data_functionalizedCrystal
_audit_creation_method	'MofGen! by Chris Wilmer'
_symmetry_space_group_name_H-M	'P1'
_symmetry_Int_Tables_number	1
_symmetry_cell_setting	triclinic
loop_
_symmetry_equiv_pos_as_xyz
  x,y,z
_cell_length_a	12.759393
_cell_length_b	12.759401
_cell_length_c	12.759399
_cell_angle_alpha	89.983359
_cell_angle_beta	89.967969
_cell_angle_gamma	90.019837
loop_
_atom_site_label
_atom_site_type_symbol
_atom_site_fract_x
_atom_site_fract_y
_atom_site_fract_z
Zn1	Zn	-0.594017	-1.606252	-0.418161
Zn2	Zn	-0.260684	-1.272919	-0.084828
Zn3	Zn	0.072650	-0.939585	0.248506
Zn4	Zn	-0.418336	-1.606145	-0.593880
Zn5	Zn	-0.085003	-1.272812	-0.260547
Zn6	Zn	0.248331	-0.939478	0.072787
Zn7	Zn	-0.418352	-1.430554	-0.418220
Zn8	Zn	-0.085019	-1.097221	-0.084887
Zn9	Zn	0.248314	-0.763887	0.248446
Zn10	Zn	-0.593973	-1.430541	-0.593803
Zn11	Zn	-0.260640	-1.097208	-0.260470
Zn12	Zn	0.072693	-0.763875	0.072863
O13	O	-0.506170	-1.518373	-0.506016
O14	O	-0.172836	-1.185040	-0.172683
O15	O	0.160497	-0.851706	0.160650
O16	O	-0.570724	-1.753259	-0.441478
O17	O	-0.237391	-1.419925	-0.108145
O18	O	0.095942	-1.086592	0.225189
O19	O	-0.271317	-1.582813	-0.570635
O20	O	0.062016	-1.249480	-0.237302
O21	O	0.395350	-0.916147	0.096031
O22	O	-0.441680	-1.453911	-0.271191
O23	O	-0.108346	-1.120577	0.062142
O24	O	0.224987	-0.787244	0.395475
O25	O	-0.441652	-1.753180	-0.570578
O26	O	-0.108319	-1.419847	-0.237245
O27	O	0.225015	-1.086514	0.096089
O28	O	-0.570740	-1.582995	-0.271148
O29	O	-0.237407	-1.249662	0.062185
O30	O	0.095927	-0.916329	0.395519
O31	O	-0.271329	-1.453807	-0.441579
O32	O	0.062004	-1.120474	-0.108246
O33	O	0.395338	-0.787141	0.225088
O34	O	-0.441637	-1.283531	-0.441505
O35	O	-0.108304	-0.950198	-0.108171
O36	O	0.225029	-0.616865	0.225162
O37	O	-0.741000	-1.453889	-0.570447
O38	O	-0.407667	-1.120556	-0.237114
O39	O	-0.074333	-0.787222	0.096220
O40	O	-0.570665	-1.283522	-0.570504
O41	O	-0.237332	-0.950189	-0.237171
O42	O	0.096002	-0.616855	0.096162
O43	O	-0.741032	-1.582983	-0.441403
O44	O	-0.407699	-1.249650	-0.108070
O45	O	-0.074366	-0.916316	0.225263
O46	O	-0.441609	-1.582801	-0.740891
O47	O	-0.108276	-1.249468	-0.407558
O48	O	0.225057	-0.916134	-0.074224
O49	O	-0.570649	-1.453785	-0.740834
O50	O	-0.237316	-1.120452	-0.407501
O51	O	0.096017	-0.787119	-0.074168
C52	C	-0.506149	-1.245406	-0.506003
C53	C	-0.172815	-0.912072	-0.172670
C54	C	0.160518	-0.578739	0.160663
C55	C	-0.506165	-1.128629	-0.506023
C56	C	-0.172831	-0.795296	-0.172690
C57	C	0.160502	-0.461962	0.160644
C58	C	-0.506146	-1.518309	-0.778984
C59	C	-0.172812	-1.184975	-0.445650
C60	C	0.160521	-0.851642	-0.112317
C61	C	-0.506171	-1.518377	-0.895760
C62	C	-0.172837	-1.185044	-0.562427
C63	C	0.160496	-0.851711	-0.229094
C64	C	-0.780203	-1.518446	-0.505910
C65	C	-0.446870	-1.185113	-0.172577
C66	C	-0.113536	-0.851780	0.160757
C67	C	-0.896980	-1.518478	-0.505865
C68	C	-0.563647	-1.185144	-0.172531
C69	C	-0.230313	-0.851811	0.160802
C70	C	-0.951848	-1.451328	-0.438653
C71	C	-0.618514	-1.117995	-0.105319
C72	C	-0.285181	-0.784662	0.228014
C73	C	-1.061572	-1.451353	-0.438620
C74	C	-0.728238	-1.118020	-0.105287
C75	C	-0.394905	-0.784686	0.228046
C76	C	-1.061551	-1.585685	-0.573015
C77	C	-0.728217	-1.252352	-0.239682
C78	C	-0.394884	-0.919018	0.093652
C79	C	-0.951829	-1.585654	-0.573052
C80	C	-0.618495	-1.252321	-0.239718
C81	C	-0.285162	-0.918988	0.093615
C82	C	-0.233202	-1.518360	-0.506046
C83	C	0.100131	-1.185027	-0.172713
C84	C	0.433464	-0.851694	0.160620
C85	C	-0.116426	-1.518533	-0.505796
C86	C	0.216907	-1.185199	-0.172462
C87	C	0.550241	-0.851866	0.160871
C88	C	-0.506191	-1.792406	-0.506030
C89	C	-0.172858	-1.459073	-0.172697
C90	C	0.160475	-1.125740	0.160637
C91	C	-0.506200	-1.909183	-0.506036
C92	C	-0.172867	-1.575850	-0.172702
C93	C	0.160466	-1.242516	0.160631
C94	C	-0.573244	-1.073790	-0.573296
C95	C	-0.239911	-0.740456	-0.239962
C96	C	0.093423	-0.407123	0.093371
C97	C	-0.573265	-0.964066	-0.573300
C98	C	-0.239931	-0.630732	-0.239966
C99	C	0.093402	-0.297399	0.093367
C100	C	-0.439118	-0.964030	-0.438756
C101	C	-0.105785	-0.630697	-0.105422
C102	C	0.227548	-0.297363	0.227911
C103	C	-0.439104	-1.073752	-0.438747
C104	C	-0.105770	-0.740419	-0.105414
C105	C	0.227563	-0.407085	0.227919
C106	C	-0.439056	-1.585632	-0.950617
C107	C	-0.105723	-1.252299	-0.617283
C108	C	0.227611	-0.918966	-0.283950
C109	C	-0.439091	-1.585700	-1.060341
C110	C	-0.105758	-1.252366	-0.727007
C111	C	0.227575	-0.919033	-0.393674
C112	C	-0.573359	-1.451248	-1.060342
C113	C	-0.240025	-1.117915	-0.727009
C114	C	0.093308	-0.784581	-0.393675
C115	C	-0.573328	-1.451187	-0.950620
C116	C	-0.239995	-1.117853	-0.617287
C117	C	0.093339	-0.784520	-0.283953
C118	C	-0.506217	-1.518466	-0.231983
C119	C	-0.172883	-1.185133	0.101350
C120	C	0.160450	-0.851800	0.434684
C121	C	-0.506237	-1.518506	-0.115206
C122	C	-0.172903	-1.185173	0.218127
C123	C	0.160430	-0.851839	0.551460
H124	H	-0.907193	-1.396629	-0.383945
H125	H	-0.573860	-1.063295	-0.050612
H126	H	-0.240526	-0.729962	0.282722
F127	F	-0.367750	-0.905617	-0.367161
F128	F	-0.034416	-0.572283	-0.033828
F129	F	0.298917	-0.238950	0.299505
H130	H	-1.106240	-1.396672	-0.383891
H131	H	-0.772907	-1.063339	-0.050557
H132	H	-0.439574	-0.730006	0.282776
F133	F	-0.367583	-1.657144	-0.892234
F134	F	-0.034249	-1.323810	-0.558901
F135	F	0.299084	-0.990477	-0.225568
F136	F	-0.644769	-1.379606	-0.892234
F137	F	-0.311436	-1.046272	-0.558901
F138	F	0.021897	-0.712939	-0.225568
H139	H	-0.384480	-1.118403	-0.383959
H140	H	-0.051146	-0.785070	-0.050626
H141	H	0.282187	-0.451737	0.282707
H142	H	-1.106222	-1.640379	-0.627715
H143	H	-0.772889	-1.307045	-0.294382
H144	H	-0.439555	-0.973712	0.038951
F145	F	-0.644619	-1.132190	-0.644894
F146	F	-0.311286	-0.798857	-0.311560
F147	F	0.022048	-0.465524	0.021773
F148	F	-0.893431	-1.657124	-0.644596
F149	F	-0.560097	-1.323791	-0.311262
F150	F	-0.226764	-0.990457	0.022071
F151	F	-0.367661	-1.657284	-1.118718
F152	F	-0.034328	-1.323951	-0.785385
F153	F	0.299006	-0.990618	-0.452051
H154	H	-0.627889	-0.919420	-0.628078
H155	H	-0.294555	-0.586087	-0.294745
H156	H	0.038778	-0.252754	0.038588
H157	H	-0.628034	-1.396543	-1.105022
H158	H	-0.294701	-1.063209	-0.771689
H159	H	0.038632	-0.729876	-0.438356
