data_functionalizedCrystal
_audit_creation_method	'MofGen! by Chris Wilmer'
_symmetry_space_group_name_H-M	'P1'
_symmetry_Int_Tables_number	1
_symmetry_cell_setting	triclinic
loop_
_symmetry_equiv_pos_as_xyz
  x,y,z
_cell_length_a	12.759401
_cell_length_b	12.759399
_cell_length_c	12.759393
_cell_angle_alpha	90.031490
_cell_angle_beta	90.017451
_cell_angle_gamma	90.014595
loop_
_atom_site_label
_atom_site_type_symbol
_atom_site_fract_x
_atom_site_fract_y
_atom_site_fract_z
Zn1	Zn	1.606238	-0.418229	0.593985
Zn2	Zn	1.606133	-0.593949	0.418306
Zn3	Zn	1.430543	-0.418281	0.418325
Zn4	Zn	1.430526	-0.593864	0.593948
O5	O	1.518360	-0.506081	0.506141
O6	O	1.753245	-0.441552	0.570689
O7	O	1.582804	-0.570703	0.271288
O8	O	1.453900	-0.271253	0.441650
O9	O	1.753168	-0.570653	0.441619
O10	O	1.582982	-0.271215	0.570707
O11	O	1.453799	-0.441641	0.271301
O12	O	1.283520	-0.441559	0.441613
O13	O	1.453871	-0.570508	0.740974
O14	O	1.283507	-0.570559	0.570643
O15	O	1.582966	-0.441470	0.741001
O16	O	1.582787	-0.740958	0.441582
O17	O	1.453769	-0.740896	0.570625
C18	C	1.245392	-0.506056	0.506126
C19	C	1.128616	-0.506071	0.506145
C20	C	1.073787	-0.438975	0.573456
C21	C	0.964063	-0.438995	0.573463
C22	C	0.964006	-0.573216	0.438844
C23	C	1.073728	-0.573189	0.438833
C24	C	1.073819	-0.361487	0.651181
C25	C	0.964095	-0.361507	0.651187
C26	C	1.518293	-0.779048	0.506120
C27	C	1.518361	-0.895825	0.506147
C28	C	1.451233	-1.060417	0.573317
C29	C	1.451168	-0.950693	0.573292
C30	C	1.585631	-0.950686	0.439030
C31	C	1.585701	-1.060408	0.439061
C32	C	1.373599	-1.060421	0.650829
C33	C	1.373533	-0.950697	0.650804
C34	C	1.792393	-0.506106	0.506156
C35	C	1.909170	-0.506117	0.506163
C36	C	1.518428	-0.505974	0.780174
C37	C	1.518457	-0.505928	0.896951
C38	C	1.518455	-0.232047	0.506185
C39	C	1.518496	-0.115271	0.506203
C40	C	1.518352	-0.506111	0.233174
C41	C	1.518527	-0.505861	0.116397
C42	C	1.451313	-0.438713	0.951826
C43	C	1.451344	-0.438682	1.061550
C44	C	1.585674	-0.573083	1.061515
C45	C	1.585636	-0.573119	0.951793
C46	C	1.373761	-0.361114	0.951848
C47	C	1.373793	-0.361083	1.061572
H48	H	0.930055	-0.284179	0.622187
O49	O	1.113252	-0.253664	0.622487
H50	H	1.161587	-0.222197	0.687647
H51	H	1.296345	-1.094546	0.621621
O52	O	1.265751	-0.911359	0.621812
H53	H	1.207786	-0.940400	0.679786
O54	O	1.402420	-1.099753	0.758648
H55	H	1.402441	-1.186743	0.758606
O56	O	0.924679	-0.390511	0.758919
H57	H	0.876343	-0.462653	0.753548
H58	H	1.107882	-0.390719	0.728419
O59	O	1.658065	-0.645613	0.892612
H60	H	1.640029	-0.728061	0.913661
O61	O	1.658252	-1.119577	0.366681
H62	H	1.704962	-1.062991	0.319983
H63	H	1.118366	-0.627815	0.384012
O64	O	1.265957	-0.389967	0.912388
H65	H	1.213210	-0.404078	0.980087
H66	H	1.640348	-0.906005	0.384366
O67	O	1.411934	-0.905485	0.753251
H68	H	1.432359	-0.970248	0.807583
H69	H	1.640370	-0.627787	1.106180
O70	O	1.412398	-0.258759	0.906773
H71	H	1.432905	-0.204462	0.971610
H72	H	1.296496	-0.390207	1.095598
O73	O	1.402865	-0.253333	1.101048
H74	H	1.402913	-0.253389	1.188038
O75	O	0.904808	-0.645610	0.366247
H76	H	0.819299	-0.634360	0.377564
