data_functionalizedCrystal
_audit_creation_method	'MofGen! by Chris Wilmer'
_symmetry_space_group_name_H-M	'P1'
_symmetry_Int_Tables_number	1
_symmetry_cell_setting	triclinic
loop_
_symmetry_equiv_pos_as_xyz
  x,y,z
_cell_length_a	17.077404
_cell_length_b	17.077402
_cell_length_c	17.077396
_cell_angle_alpha	90.027432
_cell_angle_beta	90.021457
_cell_angle_gamma	90.023437
loop_
_atom_site_label
_atom_site_type_symbol
_atom_site_fract_x
_atom_site_fract_y
_atom_site_fract_z
Zn1	Zn	-1.200047	0.312527	-0.443889
Zn2	Zn	-1.199951	0.443802	-0.312626
Zn3	Zn	-1.068779	0.312552	-0.312633
Zn4	Zn	-1.068743	0.443753	-0.443845
O5	O	-1.134380	0.378158	-0.378248
O6	O	-1.309881	0.329951	-0.426493
O7	O	-1.182525	0.426422	-0.202780
O8	O	-1.086247	0.202702	-0.330066
O9	O	-1.309810	0.426398	-0.330054
O10	O	-1.182689	0.202683	-0.426500
O11	O	-1.086153	0.329993	-0.202785
O12	O	-0.958927	0.329946	-0.330023
O13	O	-1.086186	0.426314	-0.553698
O14	O	-0.958901	0.426338	-0.426424
O15	O	-1.182655	0.329903	-0.553730
O16	O	-1.182491	0.553642	-0.330011
O17	O	-1.086093	0.553606	-0.426417
C18	C	-0.930432	0.378140	-0.378220
C19	C	-0.843182	0.378151	-0.378226
C20	C	-0.802199	0.428418	-0.428340
C21	C	-0.720219	0.428418	-0.428350
C22	C	-0.679223	0.378155	-0.378241
C23	C	-0.720212	0.327883	-0.328125
C24	C	-0.802191	0.327879	-0.328119
C25	C	-0.549342	0.327895	-0.328138
C26	C	-0.467357	0.327899	-0.328142
C27	C	-0.467370	0.428433	-0.428368
C28	C	-0.549348	0.428430	-0.428363
C29	C	-0.590332	0.378159	-0.378245
C30	C	-1.134299	0.582106	-0.378225
C31	C	-1.134336	0.669356	-0.378242
C32	C	-0.339124	0.378172	-0.378269
C33	C	-0.426374	0.378166	-0.378256
C34	C	-1.184580	0.710339	-0.328099
C35	C	-1.184617	0.792319	-0.328122
C36	C	-1.134404	0.833315	-0.378285
C37	C	-1.084158	0.792327	-0.428434
C38	C	-1.084126	0.710348	-0.428414
C39	C	-1.084226	0.963197	-0.428471
C40	C	-1.084256	1.045181	-0.428490
C41	C	-1.184717	1.045168	-0.328179
C42	C	-1.184685	0.963189	-0.328159
C43	C	-1.134437	0.922206	-0.378307
C44	C	-1.134427	0.378100	-0.582993
C45	C	-1.134447	0.378076	-0.670242
C46	C	-1.134476	1.173414	-0.378299
C47	C	-1.134501	1.086164	-0.378347
C48	C	-1.184680	0.327870	-0.711251
C49	C	-1.184690	0.327844	-0.793231
C50	C	-1.134470	0.378028	-0.834202
C51	C	-1.084231	0.428236	-0.793188
C52	C	-1.084219	0.428257	-0.711209
C53	C	-1.084263	0.428188	-0.964058
C54	C	-1.084277	0.428168	-1.046043
C55	C	-1.184734	0.327776	-1.046081
C56	C	-1.184721	0.327797	-0.964102
C57	C	-1.134484	0.378006	-0.923093
C58	C	-1.134378	0.378159	-0.174300
C59	C	-1.134509	0.377963	-0.087051
H60	H	-0.582708	0.286952	-0.287334
H61	H	-1.043277	0.825712	-0.469281
C62	C	-1.239816	0.665246	-0.272918
C63	C	-1.233471	0.676590	-0.183678
C64	C	-1.288710	0.631499	-0.128497
C65	C	-1.350295	0.575066	-0.162557
C66	C	-1.356643	0.563720	-0.251802
C67	C	-1.301404	0.608810	-0.306982
H68	H	-1.187879	0.718367	-0.158460
H69	H	-1.284010	0.639899	-0.062432
H70	H	-1.391187	0.541688	-0.121710
H71	H	-1.402235	0.521943	-0.277019
H72	H	-1.306104	0.600411	-0.373047
H73	H	-0.686826	0.286954	-0.287329
H74	H	-1.043306	0.469132	-0.677821
H75	H	-0.433997	0.469364	-0.469178
H76	H	-1.043213	0.676980	-0.469246
H77	H	-0.835572	0.469350	-0.469142
C78	C	-0.422259	0.272588	-0.273045
C79	C	-0.467335	0.217271	-0.217938
C80	C	-0.422237	0.161951	-0.162850
C81	C	-0.332064	0.161947	-0.162868
C82	C	-0.286983	0.217266	-0.217977
C83	C	-0.332081	0.272586	-0.273065
H84	H	-0.534091	0.217272	-0.217923
H85	H	-0.455609	0.121000	-0.122054
H86	H	-0.298679	0.120996	-0.122088
H87	H	-0.220226	0.217265	-0.217992
H88	H	-0.298708	0.313537	-0.313860
C89	C	-1.239964	0.272596	-0.919034
C90	C	-1.233606	0.183355	-0.930319
C91	C	-1.288848	0.128151	-0.885252
C92	C	-1.350449	0.162188	-0.828899
C93	C	-1.356811	0.251433	-0.817612
C94	C	-1.301568	0.306637	-0.862679
H95	H	-1.188003	0.158154	-0.972037
H96	H	-1.284139	0.062085	-0.893608
H97	H	-1.391343	0.121322	-0.795538
H98	H	-1.402414	0.276634	-0.775894
H99	H	-1.306278	0.372703	-0.854323
H100	H	-1.225638	0.286892	-1.079474
C101	C	-1.029015	0.483426	-0.918940
C102	C	-0.967396	0.449435	-0.862566
C103	C	-0.912158	0.504677	-0.817445
C104	C	-0.918540	0.593910	-0.828698
C105	C	-0.980162	0.627906	-0.885075
C106	C	-1.035399	0.572664	-0.930196
H107	H	-0.962669	0.383375	-0.854234
H108	H	-0.866542	0.479510	-0.775712
H109	H	-0.877650	0.634803	-0.795297
H110	H	-0.984888	0.693966	-0.893407
H111	H	-1.081015	0.597830	-0.971930
H112	H	-0.835558	0.286943	-0.287316
C113	C	-1.239891	0.837396	-0.272964
C114	C	-1.233533	0.826195	-0.183718
C115	C	-1.288814	0.871268	-0.128560
C116	C	-1.350453	0.927543	-0.162648
C117	C	-1.356814	0.938746	-0.251898
C118	C	-1.301533	0.893673	-0.307056
H119	H	-1.187901	0.784535	-0.158480
H120	H	-1.284105	0.862975	-0.062491
H121	H	-1.391376	0.960909	-0.121816
H122	H	-1.402445	0.980406	-0.277136
H123	H	-1.306242	0.901966	-0.373125
C124	C	-1.029027	1.090279	-0.483672
C125	C	-0.973763	1.045204	-0.538840
C126	C	-0.918533	1.090302	-0.594023
C127	C	-0.918567	1.180475	-0.594039
C128	C	-0.973833	1.225556	-0.538869
C129	C	-1.029063	1.180458	-0.483686
H130	H	-0.973736	0.978447	-0.538830
H131	H	-0.877621	1.056930	-0.634863
H132	H	-0.877682	1.213860	-0.634888
H133	H	-0.973860	1.292312	-0.538879
H134	H	-1.069974	1.213830	-0.442846
H135	H	-0.582725	0.469363	-0.469162
H136	H	-0.686854	0.469351	-0.469157
C137	C	-1.239924	0.272666	-0.666187
C138	C	-1.233562	0.183426	-0.677475
C139	C	-1.288805	0.128218	-0.632413
C140	C	-1.350410	0.162251	-0.576063
C141	C	-1.356774	0.251496	-0.564771
C142	C	-1.301531	0.306704	-0.609833
H143	H	-1.187956	0.158229	-0.719192
H144	H	-1.284093	0.062153	-0.640772
H145	H	-1.391304	0.121383	-0.542705
H146	H	-1.402381	0.276693	-0.523055
H147	H	-1.306243	0.372769	-0.601474
H148	H	-1.225568	0.929810	-0.287308
H149	H	-1.043339	0.469093	-0.826553
H150	H	-1.043311	0.929831	-0.469309
H151	H	-1.225633	1.078540	-0.287349
H152	H	-1.225596	0.286964	-0.826617
H153	H	-1.043381	0.469030	-1.079399
