data_functionalizedCrystal
_audit_creation_method	'MofGen! by Chris Wilmer'
_symmetry_space_group_name_H-M	'P1'
_symmetry_Int_Tables_number	1
_symmetry_cell_setting	triclinic
loop_
_symmetry_equiv_pos_as_xyz
  x,y,z
_cell_length_a	21.395361
_cell_length_b	12.759401
_cell_length_c	12.759393
_cell_angle_alpha	90.019676
_cell_angle_beta	90.038155
_cell_angle_gamma	90.031135
loop_
_atom_site_label
_atom_site_type_symbol
_atom_site_fract_x
_atom_site_fract_y
_atom_site_fract_z
Zn1	Zn	-0.249401	1.606149	0.593929
Zn2	Zn	-0.354191	1.605991	0.418225
Zn3	Zn	-0.249432	1.430448	0.418268
Zn4	Zn	-0.354146	1.430391	0.593866
O5	O	-0.301793	1.518245	0.506072
O6	O	-0.263308	1.753150	0.570630
O7	O	-0.340327	1.582663	0.271210
O8	O	-0.161750	1.453845	0.441613
O9	O	-0.340297	1.753033	0.441541
O10	O	-0.161727	1.582932	0.570671
O11	O	-0.263361	1.453692	0.271241
O12	O	-0.263317	1.283420	0.441553
O13	O	-0.340219	1.453748	0.740896
O14	O	-0.340249	1.283378	0.570565
O15	O	-0.263263	1.582877	0.740942
O16	O	-0.441863	1.582608	0.441481
O17	O	-0.441830	1.453595	0.570524
C18	C	-0.301782	1.245278	0.506057
C19	C	-0.301792	1.128501	0.506076
C20	C	-0.261777	1.073700	0.573396
C21	C	-0.261783	0.963976	0.573403
C22	C	-0.341826	0.963864	0.438767
C23	C	-0.341816	1.073586	0.438755
C24	C	-0.464580	1.518106	0.506014
C25	C	-0.534222	1.518143	0.506024
C26	C	-0.566931	1.585380	0.438900
C27	C	-0.632367	1.585429	0.438924
C28	C	-0.665090	1.518222	0.506060
C29	C	-0.632372	1.450981	0.573197
C30	C	-0.566938	1.450941	0.573179
C31	C	-0.768804	1.423624	0.514298
C32	C	-0.834237	1.423662	0.514309
C33	C	-0.866911	1.518344	0.506121
C34	C	-0.834143	1.612992	0.497901
C35	C	-0.768709	1.612953	0.497884
C36	C	-0.736042	1.518258	0.506087
C37	C	-0.970573	1.585640	0.439020
C38	C	-1.036009	1.585690	0.439050
C39	C	-1.036014	1.451233	0.573318
C40	C	-0.970578	1.451192	0.573293
C41	C	-0.937862	1.518394	0.506138
C42	C	-0.138369	1.518413	0.506154
C43	C	-0.068728	1.518484	0.506189
C44	C	-0.301732	1.518324	0.780106
C45	C	-0.301707	1.518357	0.896882
C46	C	-0.301804	1.792278	0.506088
C47	C	-0.301809	1.909055	0.506094
C48	C	-0.301807	1.518227	0.233105
C49	C	-0.301656	1.518397	0.116329
C50	C	-0.261630	1.585600	0.951770
C51	C	-0.261603	1.585617	1.061494
C52	C	-0.341735	1.451147	1.061433
C53	C	-0.341759	1.451125	0.951711
H54	H	-0.540296	1.640102	0.384221
O55	O	-0.218430	1.658112	0.892636
H56	H	-0.225183	1.646811	0.807117
O57	O	-0.218620	0.904874	0.646013
H58	H	-0.225343	0.819351	0.634704
O59	O	-0.384997	0.904635	0.366163
H60	H	-0.378286	0.819131	0.377486
O61	O	-1.071289	1.658226	0.366656
H62	H	-1.122287	1.646978	0.377960
H63	H	-0.229185	1.118409	0.628209
H64	H	-1.062656	1.396517	0.627986
H65	H	-0.228967	1.640371	1.106179
H66	H	-0.374345	1.396412	1.106089
H67	H	-0.374394	1.396361	0.907021
H68	H	-0.374402	1.118206	0.383930
O69	O	-0.935299	1.378642	0.645671
H70	H	-0.947810	1.396606	0.728150
O71	O	-0.667659	1.657941	0.366515
H72	H	-0.633916	1.704657	0.319810
H73	H	-0.943934	1.640363	0.384341
H74	H	-0.742031	1.690018	0.491193
H75	H	-0.860911	1.346593	0.520991
H76	H	-0.860744	1.690092	0.491235
H77	H	-0.742208	1.346516	0.520969
H78	H	-0.659019	1.396263	0.627861
H79	H	-0.540305	1.396188	0.627840
