data_functionalizedCrystal
_audit_creation_method	'MofGen! by Chris Wilmer'
_symmetry_space_group_name_H-M	'P1'
_symmetry_Int_Tables_number	1
_symmetry_cell_setting	triclinic
loop_
_symmetry_equiv_pos_as_xyz
  x,y,z
_cell_length_a	21.395363
_cell_length_b	17.077404
_cell_length_c	17.077396
_cell_angle_alpha	90.019777
_cell_angle_beta	89.983349
_cell_angle_gamma	90.002924
loop_
_atom_site_label
_atom_site_type_symbol
_atom_site_fract_x
_atom_site_fract_y
_atom_site_fract_z
Zn1	Zn	0.249516	1.200170	0.443913
Zn2	Zn	0.749516	1.700170	0.943913
Zn3	Zn	0.354297	1.200126	0.312674
Zn4	Zn	0.854297	1.700126	0.812674
Zn5	Zn	0.249529	1.068902	0.312660
Zn6	Zn	0.749529	1.568902	0.812660
Zn7	Zn	0.354251	1.068919	0.443897
Zn8	Zn	0.854251	1.568919	0.943897
O9	O	0.301898	1.134529	0.378286
O10	O	0.801898	1.634529	0.878286
O11	O	0.263429	1.310011	0.426516
O12	O	0.763429	1.810011	0.926516
O13	O	0.340424	1.182693	0.202825
O14	O	0.840424	1.682693	0.702825
O15	O	0.161849	1.086327	0.330072
O16	O	0.661849	1.586327	0.830072
O17	O	0.340411	1.309979	0.330096
O18	O	0.840411	1.809979	0.830096
O19	O	0.161839	1.182769	0.426503
O20	O	0.661839	1.682769	0.926503
O21	O	0.263451	1.086284	0.202815
O22	O	0.763451	1.586284	0.702815
O23	O	0.263407	0.959057	0.330057
O24	O	0.763407	1.459057	0.830057
O25	O	0.340333	1.086355	0.553746
O26	O	0.840333	1.586355	1.053746
O27	O	0.340345	0.959070	0.426476
O28	O	0.840345	1.459070	0.926476
O29	O	0.263384	1.182785	0.553758
O30	O	0.763384	1.682785	1.053758
O31	O	0.441969	1.182709	0.330080
O32	O	0.941969	1.682709	0.830080
O33	O	0.441935	1.086312	0.426489
O34	O	0.941935	1.586312	0.926489
C35	C	0.301873	0.930581	0.378264
C36	C	0.801873	1.430581	0.878264
C37	C	0.301877	0.843332	0.378272
C38	C	0.801877	1.343332	0.878272
C39	C	0.342050	0.467544	0.428435
C40	C	0.842050	0.967544	0.928435
C41	C	0.342042	0.549525	0.428423
C42	C	0.842042	1.049525	0.928423
C43	C	0.301915	0.590483	0.378299
C44	C	0.801915	1.090483	0.878299
C45	C	0.261798	0.549456	0.328177
C46	C	0.761798	1.049456	0.828177
C47	C	0.261810	0.467477	0.328186
C48	C	0.761810	0.967477	0.828186
C49	C	0.261775	0.720326	0.328164
C50	C	0.761775	1.220326	0.828164
C51	C	0.261762	0.802311	0.328156
C52	C	0.761762	1.302311	0.828156
C53	C	0.342007	0.802374	0.428402
C54	C	0.842007	1.302374	0.928402
C55	C	0.342019	0.720395	0.428410
C56	C	0.842019	1.220395	0.928410
C57	C	0.301901	0.679374	0.378290
C58	C	0.801901	1.179374	0.878290
C59	C	0.138475	1.134551	0.378288
C60	C	0.638475	1.634551	0.878288
C61	C	0.068833	1.134560	0.378289
C62	C	0.568833	1.634560	0.878289
C63	C	0.036107	1.084371	0.428479
C64	C	0.536107	1.584371	0.928479
C65	C	-0.029328	1.084379	0.428490
C66	C	0.470672	1.584379	0.928490
C67	C	-0.062035	1.134567	0.378296
C68	C	0.437965	1.634567	0.878296
C69	C	-0.029301	1.184765	0.328102
C70	C	0.470699	1.684765	0.828102
C71	C	0.036133	1.184762	0.328098
C72	C	0.536133	1.684762	0.828098
C73	C	-0.165688	1.140751	0.307581
C74	C	0.334312	1.640751	0.807581
C75	C	-0.231121	1.140749	0.307583
C76	C	0.268879	1.640749	0.807583
C77	C	-0.263856	1.134582	0.378309
C78	C	0.236144	1.634582	0.878309
C79	C	-0.231149	1.128400	0.449034
C80	C	0.268851	1.628400	0.949034
C81	C	-0.165715	1.128397	0.449030
C82	C	0.334285	1.628397	0.949030
C83	C	-0.132987	1.134576	0.378295
C84	C	0.367013	1.634576	0.878295
C85	C	-0.367534	1.084398	0.428516
C86	C	0.132466	1.584398	0.928516
C87	C	-0.432971	1.084411	0.428528
C88	C	0.067029	1.584411	0.928528
C89	C	-0.432942	1.184794	0.328133
C90	C	0.067058	1.684794	0.828133
C91	C	-0.367507	1.184785	0.328127
C92	C	0.132493	1.684785	0.828127
C93	C	-0.334807	1.134583	0.378318
C94	C	0.165193	1.634583	0.878318
C95	C	0.464686	1.134529	0.378302
C96	C	0.964686	1.634529	0.878302
C97	C	0.534327	1.134601	0.378334
C98	C	1.034327	1.634601	0.878334
C99	C	0.301852	1.134577	0.583031
C100	C	0.801852	1.634577	1.083031
C101	C	0.301832	1.134597	0.670280
C102	C	0.801832	1.634597	1.170280
C103	C	0.301924	1.339273	0.378309
C104	C	0.801924	1.839273	0.878309
C105	C	0.301935	1.426523	0.378319
C106	C	0.801935	1.926523	0.878319
C107	C	0.301899	1.134527	0.174338
C108	C	0.801899	1.634527	0.674338
C109	C	0.301742	1.134659	0.087089
C110	C	0.801742	1.634659	0.587089
C111	C	0.261762	1.184810	0.711278
C112	C	0.761762	1.684810	1.211278
C113	C	0.261741	1.184819	0.793258
C114	C	0.761741	1.684819	1.293258
C115	C	0.301794	1.134619	0.834240
C116	C	0.801794	1.634619	1.334240
C117	C	0.341866	1.084401	0.793237
C118	C	0.841866	1.584401	1.293237
C119	C	0.341884	1.084388	0.711258
C120	C	0.841884	1.584388	1.211258
C121	C	0.341829	1.084432	0.964107
C122	C	0.841829	1.584432	1.464107
C123	C	0.341812	1.084446	1.046091
C124	C	0.841812	1.584446	1.546091
C125	C	0.261686	1.184864	1.046108
C126	C	0.761686	1.684864	1.546108
C127	C	0.261703	1.184851	0.964129
C128	C	0.761703	1.684851	1.464129
C129	C	0.301776	1.134633	0.923131
C130	C	0.801776	1.634633	1.423131
H131	H	0.062728	1.043491	0.469346
H132	H	0.562728	1.543491	0.969346
Br133	Br	0.080551	1.252882	0.259978
Br134	Br	0.580551	1.752882	0.759978
H135	H	-0.257748	1.145778	0.249996
H136	H	0.242252	1.645778	0.749996
H137	H	0.374476	1.043524	0.826610
H138	H	0.874476	1.543524	1.326610
Br139	Br	0.207309	0.857897	0.260123
Br140	Br	0.707309	1.357897	0.760123
Br141	Br	0.207371	0.411805	0.260162
Br142	Br	0.707371	0.911805	0.760162
Br143	Br	0.207350	1.252987	0.908511
Br144	Br	0.707350	1.752987	1.408511
Br145	Br	-0.121269	1.149129	0.211588
Br146	Br	0.378731	1.649129	0.711588
Br147	Br	0.396263	1.016234	0.655617
Br148	Br	0.896263	1.516234	1.155617
H149	H	-0.055979	1.043508	0.469363
H150	H	0.444021	1.543508	0.969363
Br151	Br	-0.323089	1.252900	0.260006
Br152	Br	0.176911	1.752900	0.760006
H153	H	-0.055934	1.225631	0.287235
H154	H	0.444066	1.725631	0.787235
Br155	Br	0.207406	1.252949	0.655668
Br156	Br	0.707406	1.752949	1.155668
Br157	Br	0.396472	0.664808	0.496444
Br158	Br	0.896472	1.164808	0.996444
Br159	Br	0.207303	1.253020	1.101746
Br160	Br	0.707303	1.753020	1.601746
H161	H	0.374671	0.835777	0.469214
H162	H	0.874671	1.335777	0.969214
Br163	Br	-0.477323	1.252916	0.260019
Br164	Br	0.022677	1.752916	0.760019
H165	H	-0.139088	1.123374	0.506618
H166	H	0.360912	1.623374	1.006618
H167	H	0.374426	1.043567	1.079456
H168	H	0.874426	1.543567	1.579456
Br169	Br	0.207334	0.664655	0.260137
Br170	Br	0.707334	1.164655	0.760137
Br171	Br	0.396212	1.016276	0.908467
Br172	Br	0.896212	1.516276	1.408467
Br173	Br	0.396506	0.411966	0.496471
Br174	Br	0.896506	0.911966	0.996471
H175	H	-0.257801	1.123376	0.506625
H176	H	0.242199	1.623376	1.006625
Br177	Br	0.207386	1.253005	0.848895
Br178	Br	0.707386	1.753005	1.348895
H179	H	0.229128	0.582811	0.287361
H180	H	0.729128	1.082811	0.787361
Br181	Br	-0.323152	1.016267	0.496627
Br182	Br	0.176848	1.516267	0.996627
Br183	Br	-0.477387	1.016300	0.496659
Br184	Br	0.022613	1.516300	0.996659
Br185	Br	0.396489	0.605193	0.496437
Br186	Br	0.896489	1.105193	0.996437
