data_functionalizedCrystal
_audit_creation_method	'MofGen! by Chris Wilmer'
_symmetry_space_group_name_H-M	'P1'
_symmetry_Int_Tables_number	1
_symmetry_cell_setting	triclinic
loop_
_symmetry_equiv_pos_as_xyz
  x,y,z
_cell_length_a	21.395364
_cell_length_b	21.395362
_cell_length_c	17.077396
_cell_angle_alpha	89.967711
_cell_angle_beta	89.980400
_cell_angle_gamma	90.044742
loop_
_atom_site_label
_atom_site_type_symbol
_atom_site_fract_x
_atom_site_fract_y
_atom_site_fract_z
Zn1	Zn	0.957833	-0.249189	-0.443824
Zn2	Zn	1.207833	0.000811	-0.193824
Zn3	Zn	1.457833	0.250811	0.056176
Zn4	Zn	1.707833	0.500811	0.306176
Zn5	Zn	0.957746	-0.353970	-0.312549
Zn6	Zn	1.207746	-0.103970	-0.062549
Zn7	Zn	1.457746	0.146030	0.187451
Zn8	Zn	1.707746	0.396030	0.437451
Zn9	Zn	0.853057	-0.249238	-0.312572
Zn10	Zn	1.103057	0.000762	-0.062572
Zn11	Zn	1.353057	0.250762	0.187428
Zn12	Zn	1.603057	0.500762	0.437428
Zn13	Zn	0.853018	-0.353960	-0.443773
Zn14	Zn	1.103018	-0.103960	-0.193773
Zn15	Zn	1.353018	0.146040	0.056227
Zn16	Zn	1.603018	0.396040	0.306227
O17	O	0.905413	-0.301589	-0.378180
O18	O	1.155413	-0.051589	-0.128180
O19	O	1.405413	0.198411	0.121820
O20	O	1.655413	0.448411	0.371820
O21	O	1.045499	-0.263072	-0.426422
O22	O	1.295499	-0.013072	-0.176422
O23	O	1.545499	0.236928	0.073578
O24	O	1.795499	0.486928	0.323578
O25	O	0.943838	-0.340102	-0.202705
O26	O	1.193838	-0.090102	0.047295
O27	O	1.443838	0.159898	0.297295
O28	O	1.693838	0.409898	0.547295
O29	O	0.867008	-0.161553	-0.330014
O30	O	1.117008	0.088447	-0.080014
O31	O	1.367008	0.338447	0.169986
O32	O	1.617008	0.588447	0.419986
O33	O	1.045435	-0.340054	-0.329975
O34	O	1.295435	-0.090054	-0.079975
O35	O	1.545435	0.159946	0.170025
O36	O	1.795435	0.409946	0.420025
O37	O	0.943986	-0.161517	-0.426444
O38	O	1.193986	0.088483	-0.176444
O39	O	1.443986	0.338483	0.073556
O40	O	1.693986	0.588483	0.323556
O41	O	0.866924	-0.263155	-0.202722
O42	O	1.116924	-0.013155	0.047278
O43	O	1.366924	0.236845	0.297278
O44	O	1.616924	0.486845	0.547278
O45	O	0.765374	-0.263145	-0.329964
O46	O	1.015374	-0.013145	-0.079964
O47	O	1.265374	0.236855	0.170036
O48	O	1.515374	0.486855	0.420036
O49	O	0.866943	-0.340037	-0.553627
O50	O	1.116943	-0.090037	-0.303627
O51	O	1.366943	0.159963	-0.053627
O52	O	1.616943	0.409963	0.196373
O53	O	0.765346	-0.340084	-0.426357
O54	O	1.015346	-0.090084	-0.176357
O55	O	1.265346	0.159916	0.073643
O56	O	1.515346	0.409916	0.323643
O57	O	0.943949	-0.263062	-0.553664
O58	O	1.193949	-0.013062	-0.303664
O59	O	1.443949	0.236938	-0.053664
O60	O	1.693949	0.486938	0.196336
O61	O	0.943801	-0.441646	-0.329926
O62	O	1.193801	-0.191646	-0.079926
O63	O	1.443801	0.058354	0.170074
O64	O	1.693801	0.308354	0.420074
O65	O	0.866858	-0.441639	-0.426335
O66	O	1.116858	-0.191639	-0.176335
O67	O	1.366858	0.058361	0.073665
O68	O	1.616858	0.308361	0.323665
C69	C	0.742626	-0.301619	-0.378158
C70	C	0.992626	-0.051619	-0.128158
C71	C	1.242626	0.198381	0.121842
C72	C	1.492626	0.448381	0.371842
C73	C	0.672985	-0.301648	-0.378167
C74	C	0.922985	-0.051648	-0.128167
C75	C	1.172985	0.198352	0.121833
C76	C	1.422985	0.448352	0.371833
C77	C	0.640327	-0.261628	-0.428464
C78	C	0.890327	-0.011628	-0.178464
C79	C	1.140327	0.238372	0.071536
C80	C	1.390327	0.488372	0.321536
C81	C	0.574892	-0.261612	-0.428467
C82	C	0.824892	-0.011612	-0.178467
C83	C	1.074892	0.238388	0.071533
C84	C	1.324892	0.488388	0.321533
C85	C	0.542116	-0.301625	-0.378181
C86	C	0.792116	-0.051625	-0.128181
C87	C	1.042116	0.198375	0.121819
C88	C	1.292116	0.448375	0.371819
C89	C	0.574782	-0.341647	-0.327874
C90	C	0.824782	-0.091647	-0.077874
C91	C	1.074782	0.158353	0.172126
C92	C	1.324782	0.408353	0.422126
C93	C	0.640216	-0.341658	-0.327867
C94	C	0.890216	-0.091658	-0.077867
C95	C	1.140216	0.158342	0.172133
C96	C	1.390216	0.408342	0.422133
C97	C	0.438393	-0.358051	-0.371867
C98	C	0.688393	-0.108051	-0.121867
C99	C	0.938393	0.141949	0.128133
C100	C	1.188393	0.391949	0.378133
C101	C	0.372960	-0.358041	-0.371880
C102	C	0.622960	-0.108041	-0.121880
C103	C	0.872960	0.141959	0.128120
C104	C	1.122960	0.391959	0.378120
C105	C	0.340295	-0.301591	-0.378198
C106	C	0.590295	-0.051591	-0.128198
C107	C	0.840295	0.198409	0.121802
C108	C	1.090295	0.448409	0.371802
C109	C	0.373072	-0.245149	-0.384521
C110	C	0.623072	0.004851	-0.134521
C111	C	0.873072	0.254851	0.115479
C112	C	1.123072	0.504851	0.365479
C113	C	0.438506	-0.245160	-0.384514
C114	C	0.688506	0.004840	-0.134514
C115	C	0.938506	0.254840	0.115486
C116	C	1.188506	0.504840	0.365486
C117	C	0.471164	-0.301618	-0.378183
C118	C	0.721164	-0.051618	-0.128183
C119	C	0.971164	0.198382	0.121817
C120	C	1.221164	0.448382	0.371817
C121	C	0.236685	-0.261550	-0.428502
C122	C	0.486685	-0.011550	-0.178502
C123	C	0.736685	0.238450	0.071498
C124	C	0.986685	0.488450	0.321498
C125	C	0.171249	-0.261533	-0.428500
C126	C	0.421249	-0.011533	-0.178500
C127	C	0.671249	0.238467	0.071500
C128	C	0.921249	0.488467	0.321500
C129	C	0.171140	-0.341574	-0.327910
C130	C	0.421140	-0.091574	-0.077910
C131	C	0.671140	0.158426	0.172090
C132	C	0.921140	0.408426	0.422090
C133	C	0.236575	-0.341586	-0.327908
C134	C	0.486575	-0.091586	-0.077908
C135	C	0.736575	0.158414	0.172092
C136	C	0.986575	0.408414	0.422092
C137	C	0.269344	-0.301575	-0.378209
C138	C	0.519344	-0.051575	-0.128209
C139	C	0.769344	0.198425	0.121791
C140	C	1.019344	0.448425	0.371791
C141	C	0.905333	-0.464377	-0.378139
C142	C	1.155333	-0.214377	-0.128139
C143	C	1.405333	0.035623	0.121861
C144	C	1.655333	0.285623	0.371861
C145	C	0.905356	-0.534018	-0.378148
C146	C	1.155356	-0.284018	-0.128148
C147	C	1.405356	-0.034018	0.121852
C148	C	1.655356	0.215982	0.371852
C149	C	0.945416	-0.566655	-0.428395
C150	C	1.195416	-0.316655	-0.178395
C151	C	1.445416	-0.066655	0.071605
C152	C	1.695416	0.183345	0.321605
C153	C	0.945438	-0.632091	-0.428415
C154	C	1.195438	-0.382091	-0.178415
C155	C	1.445438	-0.132091	0.071585
C156	C	1.695438	0.117909	0.321585
C157	C	0.905407	-0.664886	-0.378173
C158	C	1.155407	-0.414886	-0.128173
C159	C	1.405407	-0.164886	0.121827
C160	C	1.655407	0.085114	0.371827
C161	C	0.865339	-0.632241	-0.327922
C162	C	1.115339	-0.382241	-0.077922
C163	C	1.365339	-0.132241	0.172078
C164	C	1.615339	0.117759	0.422078
C165	C	0.865314	-0.566807	-0.327910
C166	C	1.115314	-0.316807	-0.077910
C167	C	1.365314	-0.066807	0.172090
C168	C	1.615314	0.183193	0.422090
C169	C	0.900535	-0.768599	-0.307464
C170	C	1.150535	-0.518599	-0.057464
C171	C	1.400535	-0.268599	0.192536
C172	C	1.650535	-0.018599	0.442536
C173	C	0.900564	-0.834032	-0.307474
C174	C	1.150564	-0.584032	-0.057474
C175	C	1.400564	-0.334032	0.192526
C176	C	1.650564	-0.084032	0.442526
C177	C	0.905481	-0.866707	-0.378211
C178	C	1.155481	-0.616707	-0.128211
C179	C	1.405481	-0.366707	0.121789
C180	C	1.655481	-0.116707	0.371789
C181	C	0.910382	-0.833940	-0.448938
C182	C	1.160382	-0.583940	-0.198938
C183	C	1.410382	-0.333940	0.051062
C184	C	1.660382	-0.083940	0.301062
C185	C	0.910356	-0.768506	-0.448926
C186	C	1.160356	-0.518506	-0.198926
C187	C	1.410356	-0.268506	0.051074
C188	C	1.660356	-0.018506	0.301074
C189	C	0.905430	-0.735838	-0.378181
C190	C	1.155430	-0.485838	-0.128181
C191	C	1.405430	-0.235838	0.121819
C192	C	1.655430	0.014162	0.371819
C193	C	0.945567	-0.970297	-0.428483
C194	C	1.195567	-0.720297	-0.178483
C195	C	1.445567	-0.470297	0.071517
C196	C	1.695567	-0.220297	0.321517
C197	C	0.945585	-1.035733	-0.428503
C198	C	1.195585	-0.785733	-0.178503
C199	C	1.445585	-0.535733	0.071497
C200	C	1.695585	-0.285733	0.321497
C201	C	0.865489	-1.035882	-0.328004
C202	C	1.115489	-0.785882	-0.078004
C203	C	1.365489	-0.535882	0.171996
C204	C	1.615489	-0.285882	0.421996
C205	C	0.865468	-0.970447	-0.327990
C206	C	1.115468	-0.720447	-0.077990
C207	C	1.365468	-0.470447	0.172010
C208	C	1.615468	-0.220447	0.422010
C209	C	0.905511	-0.937658	-0.378229
C210	C	1.155511	-0.687658	-0.128229
C211	C	1.405511	-0.437658	0.121771
C212	C	1.655511	-0.187658	0.371771
C213	C	1.068837	-0.301559	-0.378202
C214	C	1.318837	-0.051559	-0.128202
C215	C	1.568837	0.198441	0.121798
C216	C	1.818837	0.448441	0.371798
C217	C	1.138478	-0.301546	-0.378212
C218	C	1.388478	-0.051546	-0.128212
C219	C	1.638478	0.198454	0.121788
C220	C	1.888478	0.448454	0.371788
C221	C	0.905451	-0.301543	-0.582924
C222	C	1.155451	-0.051543	-0.332924
C223	C	1.405451	0.198457	-0.082924
C224	C	1.655451	0.448457	0.167076
C225	C	0.905467	-0.301523	-0.670174
C226	C	1.155467	-0.051523	-0.420174
C227	C	1.405467	0.198477	-0.170174
C228	C	1.655467	0.448477	0.079826
C229	C	0.905511	-0.138166	-0.378237
C230	C	1.155511	0.111834	-0.128237
C231	C	1.405511	0.361834	0.121763
C232	C	1.655511	0.611834	0.371763
C233	C	0.905552	-0.068524	-0.378262
C234	C	1.155552	0.181476	-0.128262
C235	C	1.405552	0.431476	0.121738
C236	C	1.655552	0.681476	0.371738
C237	C	0.945566	-0.261439	-0.711185
C238	C	1.195566	-0.011439	-0.461185
C239	C	1.445566	0.238561	-0.211185
C240	C	1.695566	0.488561	0.038815
C241	C	0.945574	-0.261418	-0.793165
C242	C	1.195574	-0.011418	-0.543165
C243	C	1.445574	0.238582	-0.293165
C244	C	1.695574	0.488582	-0.043165
C245	C	0.905485	-0.301485	-0.834133
C246	C	1.155485	-0.051485	-0.584133
C247	C	1.405485	0.198515	-0.334133
C248	C	1.655485	0.448515	-0.084133
C249	C	0.865382	-0.341571	-0.793116
C250	C	1.115382	-0.091571	-0.543116
C251	C	1.365382	0.158429	-0.293116
C252	C	1.615382	0.408429	-0.043116
C253	C	0.865372	-0.341588	-0.711137
C254	C	1.115372	-0.091588	-0.461137
C255	C	1.365372	0.158412	-0.211137
C256	C	1.615372	0.408412	0.038863
C257	C	0.865407	-0.341533	-0.963987
C258	C	1.115407	-0.091533	-0.713987
C259	C	1.365407	0.158467	-0.463987
C260	C	1.615407	0.408467	-0.213987
C261	C	0.865418	-0.341517	-1.045971
C262	C	1.115418	-0.091517	-0.795971
C263	C	1.365418	0.158483	-0.545971
C264	C	1.615418	0.408483	-0.295971
C265	C	0.945609	-0.261363	-1.046015
C266	C	1.195609	-0.011363	-0.796015
C267	C	1.445609	0.238637	-0.546015
C268	C	1.695609	0.488637	-0.296015
C269	C	0.945599	-0.261380	-0.964036
C270	C	1.195599	-0.011380	-0.714036
C271	C	1.445599	0.238620	-0.464036
C272	C	1.695599	0.488620	-0.214036
C273	C	0.905496	-0.301467	-0.923024
C274	C	1.155496	-0.051467	-0.673024
C275	C	1.405496	0.198533	-0.423024
C276	C	1.655496	0.448533	-0.173024
C277	C	0.905412	-0.301590	-0.174232
C278	C	1.155412	-0.051590	0.075768
C279	C	1.405412	0.198410	0.325768
C280	C	1.655412	0.448410	0.575768
C281	C	0.905517	-0.301433	-0.086982
C282	C	1.155517	-0.051433	0.163018
C283	C	1.405517	0.198567	0.413018
C284	C	1.655517	0.448567	0.663018
H285	H	0.548297	-0.229020	-0.469424
H286	H	0.798297	0.020980	-0.219424
H287	H	1.048297	0.270980	0.030576
H288	H	1.298297	0.520980	0.280576
F289	F	0.271562	-0.218964	-0.482030
F290	F	0.521562	0.031036	-0.232030
F291	F	0.771562	0.281036	0.017970
F292	F	1.021562	0.531036	0.267970
H293	H	0.832744	-0.658947	-0.287016
H294	H	1.082744	-0.408947	-0.037016
H295	H	1.332744	-0.158947	0.212984
H296	H	1.582744	0.091053	0.462984
H297	H	0.978228	-0.228779	-0.826553
H298	H	1.228228	0.021221	-0.576553
H299	H	1.478228	0.271221	-0.326553
H300	H	1.728228	0.521221	-0.076553
H301	H	0.144660	-0.228940	-0.469457
H302	H	0.394660	0.021060	-0.219457
H303	H	0.644660	0.271060	0.030543
H304	H	0.894660	0.521060	0.280543
F305	F	0.895354	-0.868898	-0.232201
F306	F	1.145354	-0.618898	0.017799
F307	F	1.395354	-0.368898	0.267799
F308	F	1.645354	-0.118898	0.517799
H309	H	0.832742	-0.374166	-0.930598
H310	H	1.082742	-0.124166	-0.680598
H311	H	1.332742	0.125834	-0.430598
H312	H	1.582742	0.375834	-0.180598
F313	F	0.473151	-0.418137	-0.365133
F314	F	0.723151	-0.168137	-0.115133
F315	F	0.973151	0.081863	0.134867
F316	F	1.223151	0.331863	0.384867
H317	H	0.832739	-0.374192	-0.826479
H318	H	1.082739	-0.124192	-0.576479
H319	H	1.332739	0.125808	-0.326479
H320	H	1.582739	0.375808	-0.076479
H321	H	0.346279	-0.403999	-0.366735
H322	H	0.596279	-0.153999	-0.116735
H323	H	0.846279	0.096001	0.133265
H324	H	1.096279	0.346001	0.383265
H325	H	0.978261	-0.228722	-1.079410
H326	H	1.228261	0.021278	-0.829410
H327	H	1.478261	0.271278	-0.579410
H328	H	1.728261	0.521278	-0.329410
H329	H	0.667003	-0.229048	-0.469422
H330	H	0.917003	0.020952	-0.219422
H331	H	1.167003	0.270952	0.030578
H332	H	1.417003	0.520952	0.280578
H333	H	0.832713	-0.374222	-0.677747
H334	H	1.082713	-0.124222	-0.427747
H335	H	1.332713	0.125778	-0.177747
H336	H	1.582713	0.375778	0.072253
F337	F	0.473386	-0.185092	-0.391240
F338	F	0.723386	0.064908	-0.141240
F339	F	0.973386	0.314908	0.108760
F340	F	1.223386	0.564908	0.358760
H341	H	0.978246	-0.228758	-0.930682
H342	H	1.228246	0.021242	-0.680682
H343	H	1.478246	0.271242	-0.430682
H344	H	1.728246	0.521242	-0.180682
F345	F	0.822746	-0.384155	-1.089571
F346	F	1.072746	-0.134155	-0.839571
F347	F	1.322746	0.115845	-0.589571
F348	F	1.572746	0.365845	-0.339571
F349	F	0.822831	-0.935710	-0.274509
F350	F	1.072831	-0.685710	-0.024509
F351	F	1.322831	-0.435710	0.225491
F352	F	1.572831	-0.185710	0.475491
F353	F	0.988181	-0.935398	-0.481953
F354	F	1.238181	-0.685398	-0.231953
F355	F	1.488181	-0.435398	0.018047
F356	F	1.738181	-0.185398	0.268047
H357	H	0.346478	-0.199182	-0.389666
H358	H	0.596478	0.050818	-0.139666
H359	H	0.846478	0.300818	0.110334
H360	H	1.096478	0.550818	0.360334
F361	F	0.988238	-0.218797	-0.667591
F362	F	1.238238	0.031203	-0.417591
F363	F	1.488238	0.281203	-0.167591
F364	F	1.738238	0.531203	0.082409
H365	H	0.548092	-0.374226	-0.286930
H366	H	0.798092	-0.124226	-0.036930
H367	H	1.048092	0.125774	0.213070
H368	H	1.298092	0.375774	0.463070
F369	F	0.674973	-0.384253	-0.274329
F370	F	0.924973	-0.134253	-0.024329
F371	F	1.174973	0.115747	0.225671
F372	F	1.424973	0.365747	0.475671
F373	F	0.988218	-1.070469	-0.481994
F374	F	1.238218	-0.820469	-0.231994
F375	F	1.488218	-0.570469	0.018006
F376	F	1.738218	-0.320469	0.268006
F377	F	0.988030	-0.531763	-0.481868
F378	F	1.238030	-0.281763	-0.231868
F379	F	1.488030	-0.031763	0.018132
F380	F	1.738030	0.218237	0.268132
H381	H	0.978054	-0.658669	-0.469341
H382	H	1.228054	-0.408669	-0.219341
H383	H	1.478054	-0.158669	0.030659
H384	H	1.728054	0.091331	0.280659
H385	H	0.144455	-0.374154	-0.286966
H386	H	0.394455	-0.124154	-0.036966
H387	H	0.644455	0.125846	0.213034
H388	H	0.894455	0.375846	0.463034
H389	H	0.832891	-1.062583	-0.287101
H390	H	1.082891	-0.812583	-0.037101
H391	H	1.332891	-0.562583	0.212899
H392	H	1.582891	-0.312583	0.462899
H393	H	0.914345	-0.741829	-0.506514
H394	H	1.164345	-0.491829	-0.256514
H395	H	1.414345	-0.241829	-0.006514
H396	H	1.664345	0.008171	0.243486
F397	F	0.915617	-0.868710	-0.524227
F398	F	1.165617	-0.618710	-0.274227
F399	F	1.415617	-0.368710	-0.024227
F400	F	1.665617	-0.118710	0.225773
F401	F	0.822674	-0.532070	-0.274428
F402	F	1.072674	-0.282070	-0.024428
F403	F	1.322674	-0.032070	0.225572
F404	F	1.572674	0.217930	0.475572
H405	H	0.896528	-0.742001	-0.249858
H406	H	1.146528	-0.492001	0.000142
H407	H	1.396528	-0.242001	0.250142
H408	H	1.646528	0.007999	0.500142
F409	F	0.271333	-0.384178	-0.274372
F410	F	0.521333	-0.134178	-0.024372
F411	F	0.771333	0.115822	0.225628
F412	F	1.021333	0.365822	0.475628
