data_functionalizedCrystal
_audit_creation_method	'MofGen! by Chris Wilmer'
_symmetry_space_group_name_H-M	'P1'
_symmetry_Int_Tables_number	1
_symmetry_cell_setting	triclinic
loop_
_symmetry_equiv_pos_as_xyz
  x,y,z
_cell_length_a	12.759401
_cell_length_b	12.759400
_cell_length_c	17.077396
_cell_angle_alpha	89.974414
_cell_angle_beta	89.982476
_cell_angle_gamma	90.014916
loop_
_atom_site_label
_atom_site_type_symbol
_atom_site_fract_x
_atom_site_fract_y
_atom_site_fract_z
Zn1	Zn	1.606234	-0.418260	-0.443817
Zn2	Zn	2.106234	0.081740	0.056183
Zn3	Zn	1.606135	-0.593960	-0.312558
Zn4	Zn	2.106135	-0.093960	0.187442
Zn5	Zn	1.430542	-0.418297	-0.312570
Zn6	Zn	1.930542	0.081703	0.187430
Zn7	Zn	1.430524	-0.593898	-0.443786
Zn8	Zn	1.930524	-0.093898	0.056214
O9	O	1.518359	-0.506104	-0.378183
O10	O	2.018359	-0.006104	0.121817
O11	O	1.753242	-0.441578	-0.426413
O12	O	2.253242	0.058422	0.073587
O13	O	1.582808	-0.570700	-0.202712
O14	O	2.082808	-0.070700	0.297288
O15	O	1.453897	-0.271271	-0.329998
O16	O	1.953897	0.228729	0.170002
O17	O	1.753169	-0.570664	-0.329978
O18	O	2.253169	-0.070664	0.170022
O19	O	1.582977	-0.271244	-0.426425
O20	O	2.082977	0.228756	0.073575
O21	O	1.453801	-0.441640	-0.202721
O22	O	1.953801	0.058360	0.297279
O23	O	1.283519	-0.441580	-0.329968
O24	O	1.783519	0.058420	0.170032
O25	O	1.453867	-0.570558	-0.553637
O26	O	1.953867	-0.070558	-0.053637
O27	O	1.283506	-0.570593	-0.426372
O28	O	1.783506	-0.070593	0.073628
O29	O	1.582960	-0.441517	-0.553660
O30	O	2.082960	0.058483	-0.053660
O31	O	1.582791	-0.740973	-0.329947
O32	O	2.082791	-0.240973	0.170053
O33	O	1.453771	-0.740927	-0.426360
O34	O	1.953771	-0.240927	0.073640
C35	C	1.245391	-0.506085	-0.378168
C36	C	1.745391	-0.006085	0.121832
C37	C	1.128615	-0.506102	-0.378180
C38	C	1.628615	-0.006102	0.121820
C39	C	1.073718	-0.573209	-0.327898
C40	C	1.573718	-0.073209	0.172102
C41	C	0.963994	-0.573228	-0.327911
C42	C	1.463994	-0.073228	0.172089
C43	C	0.964073	-0.439022	-0.428492
C44	C	1.464073	0.060978	0.071508
C45	C	1.073795	-0.439009	-0.428482
C46	C	1.573795	0.060991	0.071518
C47	C	1.073672	-0.650689	-0.269826
C48	C	1.573672	-0.150689	0.230174
C49	C	0.963948	-0.650707	-0.269839
C50	C	1.463948	-0.150707	0.230161
C51	C	1.518296	-0.779071	-0.378166
C52	C	2.018296	-0.279071	0.121834
C53	C	1.518366	-0.895848	-0.378185
C54	C	2.018366	-0.395848	0.121815
C55	C	1.585621	-0.950699	-0.328039
C56	C	2.085621	-0.450699	0.171961
C57	C	1.585686	-1.060423	-0.328063
C58	C	2.085686	-0.560423	0.171937
C59	C	1.451231	-1.060435	-0.428383
C60	C	1.951231	-0.560435	0.071617
C61	C	1.451172	-0.950713	-0.428362
C62	C	1.951172	-0.450713	0.071638
C63	C	1.663245	-0.950692	-0.270118
C64	C	2.163245	-0.450692	0.229882
C65	C	1.663309	-1.060416	-0.270142
C66	C	2.163309	-0.560416	0.229858
C67	C	1.792392	-0.506124	-0.378198
C68	C	2.292392	-0.006124	0.121802
C69	C	1.909169	-0.506132	-0.378204
C70	C	2.409169	-0.006132	0.121796
C71	C	1.518422	-0.506026	-0.582927
C72	C	2.018422	-0.006026	-0.082927
C73	C	1.518449	-0.505993	-0.670177
C74	C	2.018449	-0.005993	-0.170177
C75	C	1.518450	-0.232070	-0.378216
C76	C	2.018450	0.267930	0.121784
C77	C	1.518489	-0.115294	-0.378231
C78	C	2.018489	0.384706	0.121769
C79	C	1.585671	-0.438796	-0.711180
C80	C	2.085671	0.061204	-0.211180
C81	C	1.585683	-0.438761	-0.793161
C82	C	2.085683	0.061239	-0.293161
C83	C	1.518479	-0.505929	-0.834136
C84	C	2.018479	-0.005929	-0.334136
C85	C	1.451251	-0.573129	-0.793127
C86	C	1.951251	-0.073129	-0.293127
C87	C	1.451234	-0.573158	-0.711148
C88	C	1.951234	-0.073158	-0.211148
C89	C	1.451293	-0.573066	-0.963997
C90	C	1.951293	-0.073066	-0.463997
C91	C	1.451311	-0.573039	-1.045982
C92	C	1.951311	-0.073039	-0.545982
C93	C	1.585743	-0.438669	-1.046010
C94	C	2.085743	0.061331	-0.546010
C95	C	1.585725	-0.438698	-0.964031
C96	C	2.085725	0.061302	-0.464031
C97	C	1.518498	-0.505900	-0.923027
C98	C	2.018498	-0.005900	-0.423027
C99	C	1.518356	-0.506105	-0.174235
C100	C	2.018356	-0.006105	0.325765
C101	C	1.518532	-0.505842	-0.086985
C102	C	2.018532	-0.005842	0.413015
H103	H	0.934137	-0.628810	-0.209075
H104	H	1.434137	-0.128810	0.290925
H105	H	1.640455	-0.384010	-0.930671
H106	H	2.140455	0.115990	-0.430671
H107	H	1.640480	-0.383949	-1.079399
H108	H	2.140480	0.116051	-0.579399
H109	H	1.118487	-0.384375	-0.469435
H110	H	1.618487	0.115625	0.030565
H111	H	0.919425	-0.384398	-0.469447
H112	H	1.419425	0.115602	0.030553
H113	H	1.103445	-0.732084	-0.285998
H114	H	1.603445	-0.232084	0.214002
N115	N	1.378830	-0.645483	-1.090180
N116	N	1.878830	-0.145483	-0.590180
H117	H	1.336233	-0.688054	-1.051767
H118	H	1.836233	-0.188054	-0.551767
H119	H	1.330239	-0.602695	-1.124197
H120	H	1.830239	-0.102695	-0.624197
H121	H	0.929920	-0.728048	-0.291515
H122	H	1.429920	-0.228048	0.208485
N123	N	1.378780	-0.645541	-0.919769
N124	N	1.878780	-0.145541	-0.419769
H125	H	1.336211	-0.688091	-0.958165
H126	H	1.836211	-0.188091	-0.458165
H127	H	1.421524	-0.694176	-0.885754
H128	H	1.921524	-0.194176	-0.385754
H129	H	1.396528	-0.627815	-0.826496
H130	H	1.896528	-0.127815	-0.326496
H131	H	1.396525	-1.105120	-0.469235
H132	H	1.896525	-0.605120	0.030765
N133	N	1.765717	-1.105397	-0.299015
N134	N	2.265717	-0.605397	0.200985
H135	H	1.815150	-1.046429	-0.312953
H136	H	2.315150	-0.546429	0.187047
H137	H	1.798006	-1.149970	-0.256510
H138	H	2.298006	-0.649970	0.243490
N139	N	1.378636	-0.891549	-0.482449
N140	N	1.878636	-0.391549	0.017551
H141	H	1.421284	-0.845958	-0.518843
H142	H	1.921284	-0.345958	-0.018843
H143	H	1.336093	-0.943023	-0.514183
H144	H	1.836093	-0.443023	-0.014183
N145	N	1.770980	-0.911123	-0.291749
N146	N	2.270980	-0.411123	0.208251
H147	H	1.823830	-0.937480	-0.252377
H148	H	2.323830	-0.437480	0.247623
H149	H	1.790222	-0.937421	-0.345639
H150	H	2.290222	-0.437421	0.154361
N151	N	1.378720	-0.645632	-0.666927
N152	N	1.878720	-0.145632	-0.166927
H153	H	1.395010	-0.720697	-0.681183
H154	H	1.895010	-0.220697	-0.181183
H155	H	1.388930	-0.635370	-0.608790
H156	H	1.888930	-0.135370	-0.108790
N157	N	1.118727	-0.611932	-0.193384
N158	N	1.618727	-0.111932	0.306616
H159	H	1.059794	-0.593218	-0.156456
H160	H	1.559794	-0.093218	0.343544
H161	H	1.163285	-0.668771	-0.169187
H162	H	1.663285	-0.168771	0.330813
H163	H	1.641575	-1.090270	-0.209338
H164	H	2.141575	-0.590270	0.290662
N165	N	1.624677	-0.905702	-0.193591
N166	N	2.124677	-0.405702	0.306409
H167	H	1.606086	-0.964666	-0.156631
H168	H	2.106086	-0.464666	0.343369
H169	H	1.681568	-0.861105	-0.169509
H170	H	2.181568	-0.361105	0.330491
H171	H	1.640399	-0.384103	-0.677824
H172	H	2.140399	0.115897	-0.177824
N173	N	1.658165	-0.366264	-0.837387
N174	N	2.158165	0.133736	-0.337387
H175	H	1.700733	-0.323717	-0.798989
H176	H	2.200733	0.176283	-0.298989
H177	H	1.706782	-0.409004	-0.871410
H178	H	2.206782	0.090996	-0.371410
