data_functionalizedCrystal
_audit_creation_method	'MofGen! by Chris Wilmer'
_symmetry_space_group_name_H-M	'P1'
_symmetry_Int_Tables_number	1
_symmetry_cell_setting	triclinic
loop_
_symmetry_equiv_pos_as_xyz
  x,y,z
_cell_length_a	17.077404
_cell_length_b	17.077402
_cell_length_c	17.077396
_cell_angle_alpha	90.029784
_cell_angle_beta	90.019699
_cell_angle_gamma	90.019951
loop_
_atom_site_label
_atom_site_type_symbol
_atom_site_fract_x
_atom_site_fract_y
_atom_site_fract_z
Zn1	Zn	-1.200055	0.312570	-0.443840
Zn2	Zn	-0.700055	0.812570	0.056160
Zn3	Zn	-1.199962	0.443844	-0.312571
Zn4	Zn	-0.699962	0.943844	0.187429
Zn5	Zn	-1.068786	0.312590	-0.312587
Zn6	Zn	-0.568786	0.812590	0.187413
Zn7	Zn	-1.068754	0.443791	-0.443794
Zn8	Zn	-0.568754	0.943791	0.056206
O9	O	-1.134389	0.378199	-0.378198
O10	O	-0.634389	0.878199	0.121802
O11	O	-1.309889	0.329997	-0.426439
O12	O	-0.809889	0.829997	0.073561
O13	O	-1.182536	0.426464	-0.202726
O14	O	-0.682536	0.926464	0.297274
O15	O	-1.086252	0.202740	-0.330024
O16	O	-0.586252	0.702740	0.169976
O17	O	-1.309821	0.426445	-0.329996
O18	O	-0.809821	0.926445	0.170004
O19	O	-1.182694	0.202725	-0.426455
O20	O	-0.682694	0.702725	0.073545
O21	O	-1.086162	0.330032	-0.202738
O22	O	-0.586162	0.830032	0.297262
O23	O	-0.958935	0.329980	-0.329980
O24	O	-0.458935	0.829980	0.170020
O25	O	-1.086197	0.426353	-0.553647
O26	O	-0.586197	0.926353	-0.053647
O27	O	-0.958912	0.426373	-0.426377
O28	O	-0.458912	0.926373	0.073623
O29	O	-1.182663	0.329945	-0.553681
O30	O	-0.682663	0.829945	-0.053681
O31	O	-1.182505	0.553684	-0.329952
O32	O	-0.682505	1.053684	0.170048
O33	O	-1.086107	0.553645	-0.426361
O34	O	-0.586107	1.053645	0.073639
C35	C	-0.930441	0.378173	-0.378176
C36	C	-0.430441	0.878173	0.121824
C37	C	-0.843192	0.378181	-0.378185
C38	C	-0.343192	0.878181	0.121815
C39	C	-0.802238	0.328050	-0.428478
C40	C	-0.302238	0.828050	0.071522
C41	C	-0.720257	0.328054	-0.428480
C42	C	-0.220257	0.828054	0.071520
C43	C	-0.679232	0.378193	-0.378191
C44	C	-0.179232	0.878193	0.121809
C45	C	-0.720192	0.428327	-0.327892
C46	C	-0.220192	0.928327	0.172108
C47	C	-0.802171	0.428318	-0.327887
C48	C	-0.302171	0.928318	0.172113
C49	C	-0.549322	0.428342	-0.327908
C50	C	-0.049322	0.928342	0.172092
C51	C	-0.467337	0.428351	-0.327914
C52	C	0.032663	0.928351	0.172086
C53	C	-0.467408	0.328077	-0.428500
C54	C	0.032592	0.828077	0.071500
C55	C	-0.549387	0.328069	-0.428495
C56	C	-0.049387	0.828069	0.071505
C57	C	-0.590341	0.378203	-0.378197
C58	C	-0.090341	0.878203	0.121803
C59	C	-1.134314	0.582146	-0.378167
C60	C	-0.634314	1.082146	0.121833
C61	C	-1.134353	0.669396	-0.378179
C62	C	-0.634353	1.169396	0.121821
C63	C	-1.134437	0.378141	-0.582942
C64	C	-0.634437	0.878141	-0.082942
C65	C	-1.134457	0.378116	-0.670192
C66	C	-0.634457	0.878116	-0.170192
C67	C	-0.339134	0.378221	-0.378215
C68	C	0.160866	0.878221	0.121785
C69	C	-0.426383	0.378220	-0.378207
C70	C	0.073617	0.878220	0.121793
C71	C	-1.134487	0.173454	-0.378247
C72	C	-0.634487	0.673454	0.121753
C73	C	-1.134528	0.086204	-0.378267
C74	C	-0.634528	0.586204	0.121733
C75	C	-1.184598	0.710381	-0.328033
C76	C	-0.684598	1.210381	0.171967
C77	C	-1.184637	0.792361	-0.328053
C78	C	-0.684637	1.292361	0.171947
C79	C	-1.134425	0.833356	-0.378216
C80	C	-0.634425	1.333356	0.121784
C81	C	-1.084178	0.792365	-0.428368
C82	C	-0.584178	1.292365	0.071632
C83	C	-1.084144	0.710386	-0.428351
C84	C	-0.584144	1.210386	0.071649
C85	C	-1.084250	0.963235	-0.428398
C86	C	-0.584250	1.463235	0.071602
C87	C	-1.084283	1.045220	-0.428414
C88	C	-0.584283	1.545220	0.071586
C89	C	-1.184743	1.045210	-0.328100
C90	C	-0.684743	1.545210	0.171900
C91	C	-1.184709	0.963231	-0.328083
C92	C	-0.684709	1.463231	0.171917
C93	C	-1.134461	0.922247	-0.378234
C94	C	-0.634461	1.422247	0.121766
C95	C	-1.184689	0.327913	-0.711201
C96	C	-0.684689	0.827913	-0.211201
C97	C	-1.184698	0.327886	-0.793182
C98	C	-0.684698	0.827886	-0.293182
C99	C	-1.134479	0.378068	-0.834152
C100	C	-0.634479	0.878068	-0.334152
C101	C	-1.084242	0.428274	-0.793137
C102	C	-0.584242	0.928274	-0.293137
C103	C	-1.084229	0.428296	-0.711158
C104	C	-0.584229	0.928296	-0.211158
C105	C	-1.084274	0.428227	-0.964007
C106	C	-0.584274	0.928227	-0.464007
C107	C	-1.084288	0.428207	-1.045992
C108	C	-0.584288	0.928207	-0.545992
C109	C	-1.184742	0.327818	-1.046031
C110	C	-0.684742	0.827818	-0.546031
C111	C	-1.184730	0.327839	-0.964052
C112	C	-0.684730	0.827839	-0.464052
C113	C	-1.134493	0.378046	-0.923043
C114	C	-0.634493	0.878046	-0.423043
C115	C	-1.134387	0.378200	-0.174250
C116	C	-0.634387	0.878200	0.325750
C117	C	-1.134519	0.378003	-0.087001
C118	C	-0.634519	0.878003	0.412999
H119	H	-0.433937	0.469180	-0.286965
H120	H	0.066063	0.969180	0.213035
H121	H	-0.686916	0.287233	-0.469435
H122	H	-0.186916	0.787233	0.030565
C123	C	-0.594513	0.272911	-0.483814
C124	C	-0.094513	0.772911	0.016186
N125	N	-0.628502	0.231363	-0.525477
N126	N	-0.128502	0.731363	-0.025477
H127	H	-1.225483	0.677009	-0.287181
H128	H	-0.725483	1.177009	0.212819
H129	H	-1.225603	0.287007	-0.826567
H130	H	-0.725603	0.787007	-0.326567
H131	H	-1.225645	0.286936	-1.079424
H132	H	-0.725645	0.786936	-0.579424
H133	H	-1.043298	0.825749	-0.469215
H134	H	-0.543298	1.325749	0.030785
C135	C	-1.240024	1.090295	-0.272939
C136	C	-0.740024	1.590295	0.227061
N137	N	-1.281660	1.124256	-0.231394
N138	N	-0.781660	1.624256	0.268606
H139	H	-1.043318	0.469169	-0.677769
H140	H	-0.543318	0.969169	-0.177769
H141	H	-0.582664	0.469165	-0.286948
H142	H	-0.082664	0.969165	0.213052
H143	H	-1.043411	1.078595	-0.469275
H144	H	-0.543411	1.578595	0.030725
H145	H	-1.225626	0.286981	-0.930696
H146	H	-0.725626	0.786981	-0.430696
C147	C	-0.847358	0.272891	-0.483799
C148	C	-0.347358	0.772891	0.016201
N149	N	-0.881340	0.231340	-0.525467
N150	N	-0.381340	0.731340	-0.025467
C151	C	-1.028967	0.918154	-0.483560
C152	C	-0.528967	1.418154	0.016440
N153	N	-0.987323	0.884199	-0.525102
N154	N	-0.487323	1.384199	-0.025102
C155	C	-1.028870	0.665304	-0.483517
C156	C	-0.528870	1.165304	0.016483
N157	N	-0.987238	0.631348	-0.525071
N158	N	-0.487238	1.131348	-0.025071
C159	C	-0.847220	0.483469	-0.272562
C160	C	-0.347220	0.983469	0.227438
N161	N	-0.881149	0.525008	-0.230888
N162	N	-0.381149	1.025008	0.269112
C163	C	-1.239932	0.918139	-0.272889
C164	C	-0.739932	1.418139	0.227111
N165	N	-1.281525	0.884176	-0.231313
N166	N	-0.781525	1.384176	0.268687
C167	C	-1.029014	0.483460	-0.918899
C168	C	-0.529014	0.983460	-0.418899
N169	N	-0.987397	0.525065	-0.884924
N170	N	-0.487397	1.025065	-0.384924
C171	C	-0.422357	0.272931	-0.483832
C172	C	0.077643	0.772931	0.016168
N173	N	-0.388422	0.231400	-0.525509
N174	N	0.111578	0.731400	-0.025509
C175	C	-1.239933	0.272707	-0.666142
C176	C	-0.739933	0.772707	-0.166142
N177	N	-1.281543	0.231121	-0.632205
N178	N	-0.781543	0.731121	-0.132205
C179	C	-0.675061	0.483480	-0.272573
C180	C	-0.175061	0.983480	0.227427
N181	N	-0.641070	0.525025	-0.230908
N182	N	-0.141070	1.025025	0.269092
C183	C	-1.029040	0.483405	-1.091057
C184	C	-0.529040	0.983405	-0.591057
N185	N	-0.987425	0.524979	-1.125000
N186	N	-0.487425	1.024979	-0.625000
H187	H	-1.225551	0.825727	-0.287218
H188	H	-0.725551	1.325727	0.212782
H189	H	-1.043350	0.469130	-0.826501
H190	H	-0.543350	0.969130	-0.326501
