data_functionalizedCrystal
_audit_creation_method	'MofGen! by Chris Wilmer'
_symmetry_space_group_name_H-M	'P1'
_symmetry_Int_Tables_number	1
_symmetry_cell_setting	triclinic
loop_
_symmetry_equiv_pos_as_xyz
  x,y,z
_cell_length_a	12.759401
_cell_length_b	11.169416
_cell_length_c	12.759401
_cell_angle_alpha	90.004984
_cell_angle_beta	90.006940
_cell_angle_gamma	90.011865
loop_
_atom_site_label
_atom_site_type_symbol
_atom_site_fract_x
_atom_site_fract_y
_atom_site_fract_z
Zn1	Zn	1.606153	-0.477968	0.594041
Zn2	Zn	1.606100	-0.678618	0.418370
Zn3	Zn	1.430495	-0.477953	0.418376
Zn4	Zn	1.430457	-0.678613	0.594007
O5	O	1.518301	-0.578288	0.506199
O6	O	1.753167	-0.504593	0.570749
O7	O	1.582800	-0.651995	0.271350
O8	O	1.453834	-0.310005	0.441695
O9	O	1.753128	-0.652009	0.441685
O10	O	1.582889	-0.310016	0.570755
O11	O	1.453783	-0.504567	0.271355
O12	O	1.283469	-0.504562	0.441663
O13	O	1.453770	-0.652001	0.741033
O14	O	1.283441	-0.651986	0.570698
O15	O	1.582853	-0.504588	0.741058
O16	O	1.582763	-0.846567	0.441652
O17	O	1.453719	-0.846563	0.570692
C18	C	1.245334	-0.578273	0.506178
C19	C	1.128557	-0.578296	0.506194
C20	C	1.518260	-0.890112	0.506191
C21	C	1.518338	-1.023512	0.506222
C22	C	1.073708	-0.655176	0.573277
C23	C	0.963984	-0.655181	0.573298
C24	C	0.963968	-0.501421	0.439144
C25	C	1.073690	-0.501411	0.439129
C26	C	1.792335	-0.578303	0.506220
C27	C	1.909111	-0.578310	0.506229
C28	C	1.518313	-0.578296	0.780232
C29	C	1.518318	-0.578299	0.897009
C30	C	1.518372	-0.265245	0.506230
C31	C	1.518402	-0.131845	0.506243
C32	C	1.585523	-0.501554	0.951885
C33	C	1.585514	-0.501552	1.061609
C34	C	1.451092	-0.655051	1.061571
C35	C	1.451096	-0.655046	0.951848
C36	C	1.518289	-0.578306	1.233231
C37	C	1.518304	-0.578302	1.116455
H38	H	1.118378	-0.717777	0.627888
H39	H	0.919281	-0.438826	0.384540
C40	C	1.377160	-0.739476	1.121893
H41	H	1.337129	-0.785175	1.073492
H42	H	1.417336	-0.791775	1.164695
H43	H	1.331389	-0.693558	1.164693
C44	C	1.134028	-0.416840	0.365332
H45	H	1.085638	-0.371064	0.325383
H46	H	1.176847	-0.364619	0.405595
H47	H	1.176812	-0.462672	0.319480
C48	C	1.659449	-0.417147	1.121974
H49	H	1.649817	-0.428132	1.195175
H50	H	1.730033	-0.434729	1.103999
H51	H	1.644098	-0.336498	1.103999
C52	C	1.659450	-0.417122	0.891564
H53	H	1.699465	-0.371406	0.939966
H54	H	1.705221	-0.463024	0.848761
H55	H	1.619262	-0.364821	0.848766
C56	C	1.377174	-0.739478	0.891480
H57	H	1.337151	-0.785200	0.939854
H58	H	1.331411	-0.693566	0.848672
H59	H	1.417365	-0.791774	0.848682
H60	H	0.919331	-0.717783	0.627925
