data_functionalizedCrystal
_audit_creation_method	'MofGen! by Chris Wilmer'
_symmetry_space_group_name_H-M	'P1'
_symmetry_Int_Tables_number	1
_symmetry_cell_setting	triclinic
loop_
_symmetry_equiv_pos_as_xyz
  x,y,z
_cell_length_a	12.759401
_cell_length_b	17.077402
_cell_length_c	12.759393
_cell_angle_alpha	89.964756
_cell_angle_beta	89.979527
_cell_angle_gamma	90.024408
loop_
_atom_site_label
_atom_site_type_symbol
_atom_site_fract_x
_atom_site_fract_y
_atom_site_fract_z
Zn1	Zn	1.606202	-0.312434	-0.593990
Zn2	Zn	1.606069	-0.443721	-0.418297
Zn3	Zn	1.430502	-0.312477	-0.418325
Zn4	Zn	1.430467	-0.443665	-0.593934
O5	O	1.518310	-0.378074	-0.506136
O6	O	1.753205	-0.329855	-0.570695
O7	O	1.582739	-0.426353	-0.271279
O8	O	1.453879	-0.202624	-0.441662
O9	O	1.753108	-0.426311	-0.441614
O10	O	1.582965	-0.202593	-0.570722
O11	O	1.453750	-0.329928	-0.271300
O12	O	1.283476	-0.329874	-0.441608
O13	O	1.453820	-0.426216	-0.740962
O14	O	1.283451	-0.426257	-0.570627
O15	O	1.582931	-0.329801	-0.741003
O16	O	1.582705	-0.553561	-0.441560
O17	O	1.453691	-0.553520	-0.570600
C18	C	1.245343	-0.378065	-0.506115
C19	C	1.128566	-0.378080	-0.506131
C20	C	1.073718	-0.428343	-0.573206
C21	C	0.963994	-0.428346	-0.573227
C22	C	0.963975	-0.327820	-0.439089
C23	C	1.073697	-0.327814	-0.439075
C24	C	1.518209	-0.582022	-0.506094
C25	C	1.518261	-0.669272	-0.506111
C26	C	1.585508	-0.710258	-0.438993
C27	C	1.585559	-0.792238	-0.439019
C28	C	1.518358	-0.833231	-0.506161
C29	C	1.451109	-0.792240	-0.573287
C30	C	1.451064	-0.710261	-0.573265
C31	C	1.451206	-0.963110	-0.573327
C32	C	1.451250	-1.045095	-0.573348
C33	C	1.585702	-1.045087	-0.439082
C34	C	1.585656	-0.963108	-0.439059
C35	C	1.518406	-0.922122	-0.506184
C36	C	1.792343	-0.378085	-0.506158
C37	C	1.909120	-0.378089	-0.506167
C38	C	1.518386	-0.377997	-0.780170
C39	C	1.518419	-0.377964	-0.896946
C40	C	1.518441	-0.173330	-0.506201
C41	C	1.518496	-0.086080	-0.506229
C42	C	1.585674	-0.327723	-1.061563
C43	C	1.585654	-0.327753	-0.951838
C44	C	1.451208	-0.428153	-0.951784
C45	C	1.451234	-0.428126	-1.061506
C46	C	1.518294	-0.378095	-0.233169
C47	C	1.518465	-0.377907	-0.116393
H48	H	1.118389	-0.469270	-0.627811
H49	H	1.640383	-0.286890	-0.907201
H50	H	1.396468	-0.469039	-0.907083
C51	C	0.904390	-0.482789	-0.646180
C52	C	0.841478	-0.438408	-0.713659
C53	C	0.786567	-0.488535	-0.780891
H54	H	0.861463	-0.516972	-0.606036
H55	H	0.952753	-0.512709	-0.686173
H56	H	0.793121	-0.408502	-0.673670
H57	H	0.884379	-0.404227	-0.753826
H58	H	0.834930	-0.518454	-0.820885
H59	H	0.743646	-0.522715	-0.740739
H60	H	0.743882	-0.458429	-0.826690
H61	H	0.919288	-0.286897	-0.384493
C62	C	1.658490	-0.836907	-0.366252
C63	C	1.599191	-0.884150	-0.298887
C64	C	1.666385	-0.925349	-0.231923
H65	H	1.698613	-0.800899	-0.326153
H66	H	1.704165	-0.868828	-0.406628
H67	H	1.553535	-0.852232	-0.258515
H68	H	1.559071	-0.920173	-0.338957
H69	H	1.712060	-0.957270	-0.272300
H70	H	1.706505	-0.889335	-0.191832
H71	H	1.626162	-0.957414	-0.186215
H72	H	1.118356	-0.286879	-0.384454
C73	C	1.378468	-1.089708	-0.646308
C74	C	1.437957	-1.136712	-0.713679
C75	C	1.370946	-1.177830	-0.780894
H76	H	1.338387	-1.053652	-0.686390
H77	H	1.332746	-1.121785	-0.606113
H78	H	1.483660	-1.104637	-0.753870
H79	H	1.478035	-1.172782	-0.673626
H80	H	1.325224	-1.209907	-0.740699
H81	H	1.330869	-1.141769	-0.820969
H82	H	1.411299	-1.209732	-0.826607
C83	C	1.378083	-0.918751	-0.646252
C84	C	1.319221	-0.972196	-0.705038
C85	C	1.251842	-0.931361	-0.772214
H86	H	1.418119	-0.886717	-0.692147
H87	H	1.332252	-0.886839	-0.606040
H88	H	1.365047	-1.004094	-0.745247
H89	H	1.279165	-1.004231	-0.659171
H90	H	1.206011	-0.899449	-0.732003
H91	H	1.291886	-0.899329	-0.818103
H92	H	1.211890	-0.967617	-0.812102
C93	C	1.658613	-0.273079	-1.121020
C94	C	1.635801	-0.195419	-1.094333
C95	C	1.702985	-0.145061	-1.149070
H96	H	1.649072	-0.280140	-1.194236
H97	H	1.729209	-0.284530	-1.103018
H98	H	1.565223	-0.183972	-1.112342
H99	H	1.645349	-0.188334	-1.021127
H100	H	1.773580	-0.156512	-1.131068
H101	H	1.693438	-0.152129	-1.222284
H102	H	1.687523	-0.092364	-1.130964
C103	C	1.378144	-0.482644	-1.120855
C104	C	1.319234	-0.526611	-1.049307
C105	C	1.251890	-0.576832	-1.103940
H106	H	1.418208	-0.516905	-1.163653
H107	H	1.332342	-0.452620	-1.163643
H108	H	1.365030	-0.556632	-1.006537
H109	H	1.279149	-0.492370	-1.006507
H110	H	1.206088	-0.546809	-1.146728
H111	H	1.291962	-0.611089	-1.146736
H112	H	1.211905	-0.606665	-1.055403
C113	C	1.658356	-0.665613	-0.366134
C114	C	1.643907	-0.585046	-0.380456
C115	C	1.710990	-0.543897	-0.313347
H116	H	1.728988	-0.678900	-0.381510
H117	H	1.643015	-0.679057	-0.295510
H118	H	1.659255	-0.571607	-0.451063
H119	H	1.573288	-0.571735	-0.365071
H120	H	1.695649	-0.557341	-0.242724
H121	H	1.781618	-0.557191	-0.328729
H122	H	1.701189	-0.489229	-0.323048
C123	C	1.658978	-1.089571	-0.366450
C124	C	1.726331	-1.136476	-0.426103
C125	C	1.793905	-1.177437	-0.359262
H126	H	1.619078	-1.121706	-0.320565
H127	H	1.699047	-1.053398	-0.326539
H128	H	1.686266	-1.172644	-0.465996
H129	H	1.766254	-1.104360	-0.471985
H130	H	1.833974	-1.141264	-0.319351
H131	H	1.753996	-1.209568	-0.313380
H132	H	1.839618	-1.209261	-0.399727
H133	H	1.640371	-0.929731	-0.384383
C134	C	1.378165	-0.665618	-0.646096
C135	C	1.392529	-0.585051	-0.631728
C136	C	1.325405	-0.543902	-0.698817
H137	H	1.307546	-0.679010	-0.630730
H138	H	1.393523	-0.678956	-0.716726
H139	H	1.377163	-0.571718	-0.561114
H140	H	1.463134	-0.571635	-0.647102
H141	H	1.340763	-0.557240	-0.769448
H142	H	1.254790	-0.557301	-0.683446
H143	H	1.335148	-0.489233	-0.689085
H144	H	1.396397	-0.825623	-0.627959
