data_functionalizedCrystal
_audit_creation_method	'MofGen! by Chris Wilmer'
_symmetry_space_group_name_H-M	'P1'
_symmetry_Int_Tables_number	1
_symmetry_cell_setting	triclinic
loop_
_symmetry_equiv_pos_as_xyz
  x,y,z
_cell_length_a	12.759401
_cell_length_b	12.759393
_cell_length_c	12.759400
_cell_angle_alpha	89.968474
_cell_angle_beta	90.016097
_cell_angle_gamma	89.980119
loop_
_atom_site_label
_atom_site_type_symbol
_atom_site_fract_x
_atom_site_fract_y
_atom_site_fract_z
Zn1	Zn	1.606256	-0.594020	-0.418162
Zn2	Zn	1.606151	-0.418341	-0.593880
Zn3	Zn	1.430558	-0.418356	-0.418221
Zn4	Zn	1.430547	-0.593978	-0.593804
O5	O	1.518378	-0.506174	-0.506017
O6	O	1.753263	-0.570728	-0.441478
O7	O	1.582819	-0.271322	-0.570636
O8	O	1.453914	-0.441682	-0.271192
O9	O	1.753186	-0.441657	-0.570578
O10	O	1.582998	-0.570742	-0.271148
O11	O	1.453812	-0.271333	-0.441579
O12	O	1.283536	-0.441641	-0.441505
O13	O	1.453895	-0.741005	-0.570448
O14	O	1.283528	-0.570670	-0.570505
O15	O	1.582988	-0.741036	-0.441404
O16	O	1.582808	-0.441615	-0.740891
O17	O	1.453793	-0.570655	-0.740835
C18	C	1.245411	-0.506153	-0.506004
C19	C	1.128634	-0.506169	-0.506024
C20	C	1.518452	-0.780207	-0.505911
C21	C	1.518483	-0.896984	-0.505865
C22	C	1.073796	-0.573248	-0.573296
C23	C	0.964072	-0.573269	-0.573300
C24	C	0.964034	-0.439122	-0.438756
C25	C	1.073757	-0.439107	-0.438748
C26	C	1.585711	-0.951864	-0.438666
C27	C	1.585736	-1.061588	-0.438628
C28	C	1.451302	-1.061542	-0.572998
C29	C	1.451273	-0.951820	-0.573030
C30	C	1.663328	-0.951891	-0.361092
C31	C	1.663353	-1.061615	-0.361054
C32	C	1.792412	-0.506195	-0.506030
C33	C	1.909188	-0.506204	-0.506036
C34	C	1.518316	-0.506152	-0.778984
C35	C	1.518386	-0.506178	-0.895761
C36	C	1.518365	-0.233206	-0.506046
C37	C	1.518538	-0.116430	-0.505796
C38	C	1.585703	-0.439095	-1.060348
C39	C	1.585640	-0.439062	-0.950624
C40	C	1.451183	-0.573324	-0.950627
C41	C	1.451242	-0.573351	-1.060349
C42	C	1.518469	-0.506218	-0.231983
C43	C	1.518508	-0.506238	-0.115207
H44	H	1.118474	-0.627857	-0.628074
Cl45	Cl	1.142702	-0.354778	-0.354163
H46	H	1.634240	-1.095662	-0.283745
Cl47	Cl	0.895136	-0.657604	-0.657873
H48	H	1.744724	-1.091396	-0.382844
Cl49	Cl	1.670119	-0.354650	-0.881664
Cl50	Cl	1.366758	-0.657764	-1.129319
Cl51	Cl	1.366635	-0.657699	-0.881655
H52	H	1.396526	-0.907141	-0.627746
Cl53	Cl	0.895038	-0.354818	-0.354188
H54	H	1.396580	-1.106204	-0.627678
H55	H	1.641560	-0.922135	-0.279728
H56	H	1.740600	-0.917857	-0.390258
Cl57	Cl	1.670261	-0.354720	-1.129308
