data_functionalizedCrystal
_audit_creation_method	'MofGen! by Chris Wilmer'
_symmetry_space_group_name_H-M	'P1'
_symmetry_Int_Tables_number	1
_symmetry_cell_setting	triclinic
loop_
_symmetry_equiv_pos_as_xyz
  x,y,z
_cell_length_a	12.759401
_cell_length_b	12.759399
_cell_length_c	12.759393
_cell_angle_alpha	89.968645
_cell_angle_beta	89.979434
_cell_angle_gamma	90.021845
loop_
_atom_site_label
_atom_site_type_symbol
_atom_site_fract_x
_atom_site_fract_y
_atom_site_fract_z
Zn1	Zn	-1.606201	0.418266	0.594003
Zn2	Zn	-1.106201	0.918266	1.094003
Zn3	Zn	-1.606065	0.593981	0.418321
Zn4	Zn	-1.106065	1.093981	0.918321
Zn5	Zn	-1.430500	0.418311	0.418340
Zn6	Zn	-0.930500	0.918311	0.918340
Zn7	Zn	-1.430464	0.593898	0.593959
Zn8	Zn	-0.930464	1.093898	1.093959
O9	O	-1.518308	0.506114	0.506156
O10	O	-1.018308	1.006114	1.006156
O11	O	-1.753204	0.441591	0.570709
O12	O	-1.253204	0.941591	1.070709
O13	O	-1.582734	0.570732	0.271302
O14	O	-1.082734	1.070732	0.771302
O15	O	-1.453879	0.271284	0.441668
O16	O	-0.953879	0.771284	0.941668
O17	O	-1.753104	0.570688	0.441636
O18	O	-1.253104	1.070688	0.941636
O19	O	-1.582966	0.271251	0.570728
O20	O	-1.082966	0.771251	1.070728
O21	O	-1.453747	0.441669	0.271316
O22	O	-0.953747	0.941669	0.771316
O23	O	-1.283474	0.441587	0.441625
O24	O	-0.783474	0.941587	0.941625
O25	O	-1.453818	0.570546	0.740986
O26	O	-0.953818	1.070546	1.240986
O27	O	-1.283448	0.570590	0.570652
O28	O	-0.783448	1.070590	1.070652
O29	O	-1.582931	0.441510	0.741019
O30	O	-1.082931	0.941510	1.241019
O31	O	-1.582699	0.740991	0.441593
O32	O	-1.082699	1.240991	0.941593
O33	O	-1.453686	0.740930	0.570634
O34	O	-0.953686	1.240930	1.070634
C35	C	-1.245340	0.506085	0.506137
C36	C	-0.745340	1.006085	1.006137
C37	C	-1.128564	0.506098	0.506153
C38	C	-0.628564	1.006098	1.006153
C39	C	-1.518203	0.779081	0.506130
C40	C	-1.018203	1.279081	1.006130
C41	C	-1.518254	0.895858	0.506154
C42	C	-1.018254	1.395858	1.006154
C43	C	-1.073754	0.438997	0.573465
C44	C	-0.573754	0.938997	1.073465
C45	C	-0.964030	0.439003	0.573470
C46	C	-0.464030	0.939003	1.073470
C47	C	-0.963934	0.573222	0.438850
C48	C	-0.463934	1.073222	0.938850
C49	C	-1.073656	0.573210	0.438840
C50	C	-0.573656	1.073210	0.938840
C51	C	-1.518386	0.506013	0.780189
C52	C	-1.018386	1.006013	1.280189
C53	C	-1.518420	0.505970	0.896966
C54	C	-1.018420	1.005970	1.396966
C55	C	-0.792341	0.506134	0.506172
C56	C	-0.292341	1.006134	1.006172
C57	C	-0.909117	0.506117	0.506168
C58	C	-0.409117	1.006117	1.006168
C59	C	-1.585431	0.950613	0.573411
C60	C	-1.085431	1.450613	1.073411
C61	C	-1.585473	1.060337	0.573436
C62	C	-1.085473	1.560337	1.073436
C63	C	-1.451157	1.060542	0.438939
C64	C	-0.951157	1.560542	0.938939
C65	C	-1.451110	0.950820	0.438919
C66	C	-0.951110	1.450820	0.938919
C67	C	-1.518402	1.232081	0.506198
C68	C	-1.018402	1.732081	1.006198
C69	C	-1.518342	1.115304	0.506199
C70	C	-1.018342	1.615304	1.006199
C71	C	-1.518290	0.506139	0.233188
C72	C	-1.018290	1.006139	0.733188
C73	C	-1.518460	0.505886	0.116412
C74	C	-1.018460	1.005886	0.616412
C75	C	-1.585654	0.438770	0.951847
C76	C	-1.085654	0.938770	1.451847
C77	C	-1.585672	0.438725	1.061571
C78	C	-1.085672	0.938725	1.561571
C79	C	-1.451218	0.573089	1.061524
C80	C	-0.951218	1.073089	1.561524
C81	C	-1.451196	0.573128	0.951802
C82	C	-0.951196	1.073128	1.451802
H83	H	-1.118457	0.384347	0.628272
H84	H	-0.618457	0.884347	1.128272
H85	H	-1.396438	0.627849	0.907117
H86	H	-0.896438	1.127849	1.407117
Br87	Br	-1.676552	0.876025	0.664658
Br88	Br	-1.176552	1.376025	1.164658
H89	H	-1.640389	0.384083	0.907202
H90	H	-1.140389	0.884083	1.407202
Br91	Br	-1.676930	0.347529	1.136048
Br92	Br	-1.176930	0.847529	1.636048
H93	H	-0.919409	0.384361	0.628280
H94	H	-0.419409	0.884361	1.128280
Br95	Br	-0.889411	0.664299	0.347502
Br96	Br	-0.389411	1.164299	0.847502
Br97	Br	-1.359994	0.664230	1.135951
Br98	Br	-0.859994	1.164230	1.635951
Br99	Br	-1.676638	1.134643	0.664726
Br100	Br	-1.176638	1.634643	1.164726
H101	H	-1.396493	1.105305	0.384197
H102	H	-0.896493	1.605305	0.884197
Br103	Br	-1.148047	0.664268	0.347468
Br104	Br	-0.648047	1.164268	0.847468
H105	H	-1.396401	0.906236	0.384151
H106	H	-0.896401	1.406236	0.884151
