data_functionalizedCrystal
_audit_creation_method	'MofGen! by Chris Wilmer'
_symmetry_space_group_name_H-M	'P1'
_symmetry_Int_Tables_number	1
_symmetry_cell_setting	triclinic
loop_
_symmetry_equiv_pos_as_xyz
  x,y,z
_cell_length_a	17.077404
_cell_length_b	21.395362
_cell_length_c	17.077396
_cell_angle_alpha	89.966876
_cell_angle_beta	89.982480
_cell_angle_gamma	90.025177
loop_
_atom_site_label
_atom_site_type_symbol
_atom_site_fract_x
_atom_site_fract_y
_atom_site_fract_z
Zn1	Zn	1.199999	-0.249511	-0.443828
Zn2	Zn	1.699999	0.250489	0.056172
Zn3	Zn	1.199896	-0.354293	-0.312553
Zn4	Zn	1.699896	0.145707	0.187447
Zn5	Zn	1.068736	-0.249525	-0.312575
Zn6	Zn	1.568736	0.250475	0.187425
Zn7	Zn	1.068683	-0.354246	-0.443776
Zn8	Zn	1.568683	0.145754	0.056224
O9	O	1.134329	-0.301894	-0.378183
O10	O	1.634329	0.198106	0.121817
O11	O	1.309833	-0.263424	-0.426426
O12	O	1.809833	0.236576	0.073574
O13	O	1.182476	-0.340422	-0.202709
O14	O	1.682476	0.159578	0.297291
O15	O	1.086214	-0.161845	-0.330017
O16	O	1.586214	0.338155	0.169983
O17	O	1.309757	-0.340407	-0.329979
O18	O	1.809757	0.159593	0.170021
O19	O	1.182653	-0.161835	-0.426448
O20	O	1.682653	0.338165	0.073552
O21	O	1.086114	-0.263449	-0.202725
O22	O	1.586114	0.236551	0.297275
O23	O	0.958882	-0.263403	-0.329967
O24	O	1.458882	0.236597	0.170033
O25	O	1.086124	-0.340326	-0.553630
O26	O	1.586124	0.159674	-0.053630
O27	O	0.958844	-0.340341	-0.426359
O28	O	1.458844	0.159659	0.073641
O29	O	1.182601	-0.263378	-0.553668
O30	O	1.682601	0.236622	-0.053668
O31	O	1.182425	-0.441965	-0.329929
O32	O	1.682425	0.058035	0.170071
O33	O	1.086024	-0.441930	-0.426338
O34	O	1.586024	0.058070	0.073662
C35	C	0.930381	-0.301869	-0.378160
C36	C	1.430381	0.198131	0.121840
C37	C	0.843131	-0.301873	-0.378169
C38	C	1.343131	0.198127	0.121831
C39	C	0.467317	-0.342045	-0.428318
C40	C	0.967317	0.157955	0.071682
C41	C	0.549297	-0.342037	-0.428306
C42	C	1.049297	0.157963	0.071694
C43	C	0.590282	-0.301910	-0.378195
C44	C	1.090282	0.198090	0.121805
C45	C	0.549282	-0.261794	-0.328088
C46	C	1.049282	0.238206	0.171912
C47	C	0.467303	-0.261806	-0.328096
C48	C	0.967303	0.238194	0.171904
C49	C	0.720152	-0.261771	-0.328075
C50	C	1.220152	0.238229	0.171925
C51	C	0.802137	-0.261758	-0.328067
C52	C	1.302137	0.238242	0.171933
C53	C	0.802146	-0.342002	-0.428285
C54	C	1.302146	0.157998	0.071715
C55	C	0.720168	-0.342014	-0.428293
C56	C	1.220168	0.157986	0.071707
C57	C	0.679173	-0.301897	-0.378186
C58	C	1.179173	0.198103	0.121814
C59	C	1.134228	-0.464681	-0.378143
C60	C	1.634228	0.035319	0.121857
C61	C	1.134257	-0.534323	-0.378152
C62	C	1.634257	-0.034323	0.121848
C63	C	1.184444	-0.566973	-0.428399
C64	C	1.684444	-0.066973	0.071601
C65	C	1.184472	-0.632409	-0.428418
C66	C	1.684472	-0.132409	0.071582
C67	C	1.134321	-0.665191	-0.378176
C68	C	1.634321	-0.165191	0.121824
C69	C	1.084124	-0.632532	-0.327925
C70	C	1.584124	-0.132532	0.172075
C71	C	1.084093	-0.567098	-0.327913
C72	C	1.584093	-0.067098	0.172087
C73	C	1.128219	-0.768903	-0.307467
C74	C	1.628219	-0.268903	0.192533
C75	C	1.128257	-0.834336	-0.307478
C76	C	1.628257	-0.334336	0.192522
C77	C	1.134414	-0.867012	-0.378214
C78	C	1.634414	-0.367012	0.121786
C79	C	1.140550	-0.834246	-0.448941
C80	C	1.640550	-0.334246	0.051059
C81	C	1.140519	-0.768812	-0.448929
C82	C	1.640519	-0.268812	0.051071
C83	C	1.134349	-0.736143	-0.378184
C84	C	1.634349	-0.236143	0.121816
C85	C	1.184633	-0.970615	-0.428486
C86	C	1.684633	-0.470615	0.071514
C87	C	1.184655	-1.036051	-0.428507
C88	C	1.684655	-0.536051	0.071493
C89	C	1.084312	-1.036174	-0.328007
C90	C	1.584312	-0.536174	0.171993
C91	C	1.084286	-0.970739	-0.327993
C92	C	1.584286	-0.470739	0.172007
C93	C	1.134451	-0.937963	-0.378232
C94	C	1.634451	-0.437963	0.121768
C95	C	1.339073	-0.301919	-0.378206
C96	C	1.839073	0.198081	0.121794
C97	C	1.426323	-0.301930	-0.378216
C98	C	1.926323	0.198070	0.121784
C99	C	1.134368	-0.301845	-0.582927
C100	C	1.634368	0.198155	-0.082927
C101	C	1.134385	-0.301824	-0.670177
C102	C	1.634385	0.198176	-0.170177
C103	C	1.134451	-0.138470	-0.378240
C104	C	1.634451	0.361530	0.121760
C105	C	1.134503	-0.068829	-0.378265
C106	C	1.634503	0.431171	0.121735
C107	C	1.084224	-0.261740	-0.711175
C108	C	1.584224	0.238260	-0.211175
C109	C	1.084237	-0.261726	-0.793156
C110	C	1.584237	0.238274	-0.293156
C111	C	1.134415	-0.301793	-0.834137
C112	C	1.634415	0.198207	-0.334137
C113	C	1.184578	-0.341882	-0.793133
C114	C	1.684578	0.158118	-0.293133
C115	C	1.184561	-0.341899	-0.711154
C116	C	1.684561	0.158101	-0.211154
C117	C	1.184612	-0.341843	-0.964003
C118	C	1.684612	0.158157	-0.464003
C119	C	1.184631	-0.341826	-1.045988
C120	C	1.684631	0.158174	-0.545988
C121	C	1.084289	-0.261670	-1.046005
C122	C	1.584289	0.238330	-0.546005
C123	C	1.084271	-0.261687	-0.964026
C124	C	1.584271	0.238313	-0.464026
C125	C	1.134435	-0.301775	-0.923028
C126	C	1.634435	0.198225	-0.423028
C127	C	1.134335	-0.301897	-0.174235
C128	C	1.634335	0.198103	0.325765
C129	C	1.134470	-0.301741	-0.086986
C130	C	1.634470	0.198259	0.413014
H131	H	0.582671	-0.374703	-0.469103
H132	H	1.082671	0.125297	0.030897
H133	H	1.043473	-1.062865	-0.287104
H134	H	1.543473	-0.562865	0.212896
F135	F	1.030674	-0.532348	-0.274431
F136	F	1.530674	-0.032348	0.225569
F137	F	1.237946	-0.384565	-0.667521
F138	F	1.737946	0.115435	-0.167521
H139	H	1.043368	-0.229109	-0.677814
H140	H	1.543368	0.270891	-0.177814
F141	F	1.030901	-0.219004	-1.089639
F142	F	1.530901	0.280996	-0.589639
H143	H	0.433927	-0.229139	-0.287300
H144	H	0.933927	0.270861	0.212700
F145	F	1.238019	-0.935730	-0.481956
F146	F	1.738019	-0.435730	0.018044
F147	F	0.845776	-0.384690	-0.481623
F148	F	1.345776	0.115310	0.018377
H149	H	1.225289	-0.540289	-0.469308
H150	H	1.725289	-0.040289	0.030692
F151	F	1.237893	-0.667165	-0.481897
F152	F	1.737893	-0.167165	0.018103
H153	H	1.225490	-0.374452	-1.079352
H154	H	1.725490	0.125548	-0.579352
H155	H	1.225468	-0.374482	-0.930625
H156	H	1.725468	0.125518	-0.430625
H157	H	0.835505	-0.229078	-0.287270
H158	H	1.335505	0.270922	0.212730
F159	F	1.030870	-0.935988	-0.274512
F160	F	1.530870	-0.435988	0.225488
F161	F	1.030820	-0.219085	-0.836785
F162	F	1.530820	0.280915	-0.336785
F163	F	1.238066	-1.070800	-0.481998
F164	F	1.738066	-0.570800	0.018002
H165	H	0.433953	-0.374717	-0.469129
H166	H	0.933953	0.125283	0.030871
F167	F	0.676550	-0.384717	-0.481631
F168	F	1.176550	0.115283	0.018369
F169	F	0.676525	-0.219077	-0.274741
F170	F	1.176525	0.280923	0.225259
F171	F	0.592904	-0.219091	-0.274753
F172	F	1.092904	0.280909	0.225247
H173	H	1.145513	-0.742136	-0.506517
H174	H	1.645513	-0.242136	-0.006517
F175	F	1.237977	-0.384529	-0.836750
F176	F	1.737977	0.115471	-0.336750
H177	H	1.043416	-0.229057	-0.930661
H178	H	1.543416	0.270943	-0.430661
H179	H	1.145566	-0.860849	-0.506542
H180	H	1.645566	-0.360849	-0.006542
H181	H	1.123265	-0.861009	-0.249887
H182	H	1.623265	-0.361009	0.250113
F183	F	1.121746	-0.734134	-0.232168
F184	F	1.621746	-0.234134	0.267832
H185	H	1.043289	-0.659228	-0.287019
H186	H	1.543289	-0.159228	0.212981
