data_functionalizedCrystal
_audit_creation_method	'MofGen! by Chris Wilmer'
_symmetry_space_group_name_H-M	'P1'
_symmetry_Int_Tables_number	1
_symmetry_cell_setting	triclinic
loop_
_symmetry_equiv_pos_as_xyz
  x,y,z
_cell_length_a	17.077404
_cell_length_b	21.395361
_cell_length_c	17.077396
_cell_angle_alpha	89.965914
_cell_angle_beta	89.982756
_cell_angle_gamma	90.030933
loop_
_atom_site_label
_atom_site_type_symbol
_atom_site_fract_x
_atom_site_fract_y
_atom_site_fract_z
Zn1	Zn	1.199994	-0.249430	-0.443817
Zn2	Zn	1.199889	-0.354212	-0.312540
Zn3	Zn	1.068731	-0.249453	-0.312565
Zn4	Zn	1.068676	-0.354174	-0.443763
O5	O	1.134323	-0.301817	-0.378171
O6	O	1.309827	-0.263336	-0.426414
O7	O	1.182469	-0.340342	-0.202696
O8	O	1.086211	-0.161772	-0.330008
O9	O	1.309750	-0.340319	-0.329966
O10	O	1.182649	-0.161755	-0.426439
O11	O	1.086109	-0.263376	-0.202714
O12	O	0.958877	-0.263338	-0.329957
O13	O	1.086117	-0.340253	-0.553617
O14	O	0.958837	-0.340276	-0.426348
O15	O	1.182596	-0.263298	-0.553657
O16	O	1.182416	-0.441885	-0.329914
O17	O	1.086015	-0.441857	-0.426324
C18	C	0.930375	-0.301806	-0.378149
C19	C	0.843125	-0.301816	-0.378159
C20	C	1.134219	-0.464605	-0.378127
C21	C	1.134247	-0.534246	-0.378135
C22	C	0.802134	-0.341938	-0.428269
C23	C	0.720154	-0.341939	-0.428282
C24	C	0.679166	-0.301822	-0.378179
C25	C	0.720162	-0.261695	-0.328067
C26	C	0.802141	-0.261691	-0.328059
C27	C	0.549292	-0.261707	-0.328086
C28	C	0.467307	-0.261712	-0.328092
C29	C	0.467305	-0.341956	-0.428309
C30	C	0.549284	-0.341952	-0.428301
C31	C	0.590275	-0.301826	-0.378187
C32	C	1.184487	-0.566953	-0.327986
C33	C	1.184524	-0.632389	-0.328004
C34	C	1.134306	-0.665114	-0.378162
C35	C	1.084062	-0.632399	-0.428321
C36	C	1.084032	-0.566965	-0.428307
C37	C	1.063626	-0.768829	-0.384313
C38	C	1.063654	-0.834262	-0.384321
C39	C	1.134397	-0.866935	-0.378208
C40	C	1.205114	-0.834168	-0.372070
C41	C	1.205084	-0.768733	-0.372057
C42	C	1.134332	-0.736067	-0.378182
C43	C	1.184681	-0.970595	-0.328075
C44	C	1.184719	-1.036031	-0.328098
C45	C	1.084250	-1.036041	-0.428411
C46	C	1.084219	-0.970606	-0.428392
C47	C	1.134434	-0.937886	-0.378220
C48	C	1.339067	-0.301829	-0.378193
C49	C	1.426317	-0.301834	-0.378203
C50	C	1.134362	-0.301769	-0.582915
C51	C	1.134379	-0.301748	-0.670165
C52	C	1.134448	-0.138394	-0.378232
C53	C	1.134502	-0.068753	-0.378258
C54	C	1.084219	-0.261667	-0.711164
C55	C	1.084232	-0.261653	-0.793145
C56	C	1.134409	-0.301717	-0.834125
C57	C	1.184571	-0.341802	-0.793120
C58	C	1.184554	-0.341819	-0.711141
C59	C	1.184605	-0.341763	-0.963990
C60	C	1.184624	-0.341746	-1.045975
C61	C	1.084283	-0.261597	-1.045994
C62	C	1.084266	-0.261614	-0.964015
C63	C	1.134429	-0.301698	-0.923016
C64	C	1.134329	-0.301820	-0.174223
C65	C	1.134464	-0.301665	-0.086974
H66	H	0.835501	-0.374609	-0.469066
O67	O	1.238865	-0.935302	-0.273988
H68	H	1.230403	-0.884306	-0.282401
H69	H	1.043440	-0.228957	-1.079380
O70	O	1.030129	-0.218426	-0.837369
H71	H	1.065293	-0.186550	-0.874745
O72	O	0.423093	-0.218437	-0.274064
H73	H	0.465368	-0.190526	-0.239225
O74	O	0.846359	-0.218417	-0.274012
H75	H	0.883682	-0.246419	-0.234012
O76	O	0.593509	-0.218436	-0.274029
H77	H	0.551236	-0.190547	-0.239182
O78	O	0.987383	-0.869598	-0.390941
H79	H	0.979408	-0.899441	-0.338351
O80	O	1.030103	-0.218448	-0.666970
H81	H	0.990139	-0.246493	-0.629598
H82	H	1.225422	-0.374427	-0.826492
H83	H	1.225438	-0.659024	-0.287166
H84	H	1.043411	-0.228987	-0.930651
O85	O	1.030008	-0.935329	-0.482467
H86	H	1.043425	-0.947843	-0.544092
H87	H	0.686783	-0.229028	-0.287276
O88	O	1.281350	-0.733388	-0.365448
H89	H	1.330552	-0.767096	-0.361205
O90	O	1.238736	-0.384964	-1.090175
H91	H	1.278711	-0.356917	-1.127534
H92	H	1.225405	-0.374453	-0.677761
O93	O	1.030085	-1.071333	-0.482508
H94	H	1.043507	-1.058731	-0.544127
O95	O	0.675939	-0.385333	-0.482178
H96	H	0.718214	-0.413278	-0.516953
O97	O	0.593498	-0.385218	-0.482340
H98	H	0.551224	-0.413116	-0.517196
O99	O	1.029828	-0.531682	-0.482384
H100	H	0.994906	-0.565428	-0.517261
H101	H	1.225377	-0.540315	-0.287135
H102	H	0.433926	-0.374626	-0.469115
O103	O	1.238714	-0.384991	-0.919765
H104	H	1.273617	-0.412842	-0.962032
H105	H	1.262720	-0.860769	-0.367092
H106	H	1.006014	-0.742232	-0.389295
H107	H	1.043175	-0.659049	-0.469161
O108	O	1.238908	-1.071314	-0.274005
H109	H	1.273812	-1.037566	-0.239112
