data_functionalizedCrystal
_audit_creation_method	'MofGen! by Chris Wilmer'
_symmetry_space_group_name_H-M	'P1'
_symmetry_Int_Tables_number	1
_symmetry_cell_setting	triclinic
loop_
_symmetry_equiv_pos_as_xyz
  x,y,z
_cell_length_a	21.395364
_cell_length_b	12.759400
_cell_length_c	21.395355
_cell_angle_alpha	90.012729
_cell_angle_beta	90.024552
_cell_angle_gamma	90.028117
loop_
_atom_site_label
_atom_site_type_symbol
_atom_site_fract_x
_atom_site_fract_y
_atom_site_fract_z
Zn1	Zn	0.957936	-0.417969	0.354287
Zn2	Zn	0.957870	-0.593633	0.249520
Zn3	Zn	0.853151	-0.418015	0.249523
Zn4	Zn	0.853152	-0.593652	0.354260
O5	O	0.905527	-0.505817	0.301897
O6	O	1.045605	-0.441244	0.340399
O7	O	0.943951	-0.570349	0.161842
O8	O	0.867077	-0.270988	0.263433
O9	O	1.045557	-0.570304	0.263427
O10	O	0.944062	-0.270954	0.340402
O11	O	0.867014	-0.441322	0.161845
O12	O	0.765473	-0.441341	0.263407
O13	O	0.867079	-0.570336	0.441941
O14	O	0.765474	-0.570381	0.340357
O15	O	0.944064	-0.441262	0.441961
O16	O	0.943952	-0.740657	0.263401
O17	O	0.867016	-0.740671	0.340353
C18	C	0.742739	-0.505868	0.301880
C19	C	0.673098	-0.505916	0.301887
C20	C	0.640432	-0.438824	0.342028
C21	C	0.574997	-0.438796	0.342031
C22	C	0.542230	-0.505878	0.301899
C23	C	0.574903	-0.572975	0.261750
C24	C	0.640338	-0.572993	0.261744
C25	C	0.438523	-0.600493	0.296867
C26	C	0.373090	-0.600476	0.296877
C27	C	0.340409	-0.505821	0.301913
C28	C	0.373169	-0.411179	0.306951
C29	C	0.438604	-0.411197	0.306946
C30	C	0.471277	-0.505865	0.301900
C31	C	0.236791	-0.438693	0.342058
C32	C	0.171354	-0.438663	0.342056
C33	C	0.171262	-0.572851	0.261779
C34	C	0.236697	-0.572872	0.261777
C35	C	0.269458	-0.505794	0.301921
C36	C	0.905494	-0.778785	0.301888
C37	C	0.905537	-0.895561	0.301904
C38	C	0.945603	-0.950326	0.342015
C39	C	0.945633	-1.060050	0.342030
C40	C	0.865528	-1.060235	0.261819
C41	C	0.865496	-0.950513	0.261807
C42	C	0.991853	-0.950220	0.388323
C43	C	0.991882	-1.059944	0.388338
C44	C	1.068950	-0.505767	0.301915
C45	C	1.138592	-0.505745	0.301923
C46	C	0.905579	-0.505796	0.465321
C47	C	0.905601	-0.505787	0.534962
C48	C	0.905577	-0.231784	0.301921
C49	C	0.905598	-0.115007	0.301931
C50	C	0.905511	-0.505763	0.139110
C51	C	0.905610	-0.505476	0.069469
C52	C	0.945685	-0.438575	0.567686
C53	C	0.945684	-0.438530	0.633122
C54	C	0.905606	-0.505715	0.665830
C55	C	0.865514	-0.572932	0.633098
C56	C	0.865512	-0.572967	0.567664
C57	C	0.900647	-0.600316	0.769502
C58	C	0.900654	-0.600282	0.834935
C59	C	0.905610	-0.505604	0.867651
C60	C	0.910572	-0.410957	0.834927
C61	C	0.910569	-0.410993	0.769493
C62	C	0.905604	-0.505684	0.736783
C63	C	0.945695	-0.438338	0.971328
C64	C	0.945690	-0.438291	1.036765
C65	C	0.865523	-0.572702	1.036740
C66	C	0.865525	-0.572739	0.971305
C67	C	0.905614	-0.505559	0.938603
H68	H	0.465126	-0.677579	0.292765
N69	N	1.052909	-0.905047	0.365358
H70	H	1.050657	-0.825993	0.366189
H71	H	1.060877	-0.929561	0.321188
H72	H	0.144759	-0.384023	0.374743
N73	N	0.974599	-0.910751	0.452577
H74	H	0.966917	-0.972279	0.481260
H75	H	0.935452	-0.866812	0.449700
N76	N	1.056172	-1.099317	0.371174
H77	H	1.073332	-1.143246	0.406492
H78	H	1.084796	-1.037693	0.363490
H79	H	0.832865	-0.905924	0.229152
H80	H	0.666934	-0.627629	0.229055
H81	H	0.465274	-0.334137	0.311046
N82	N	0.968841	-1.105017	0.449381
H83	H	0.996743	-1.080525	0.484567
H84	H	0.969696	-1.184066	0.447109
N85	N	0.822281	-0.645231	0.936015
H86	H	0.831991	-0.720291	0.947410
H87	H	0.828371	-0.634975	0.889610
H88	H	0.548395	-0.384157	0.374718
N89	N	0.988921	-0.366118	0.532415
H90	H	1.014314	-0.323532	0.563079
H91	H	0.963426	-0.317517	0.505254
N92	N	0.822283	-0.645379	0.668381
H93	H	0.847734	-0.694046	0.695544
H94	H	0.796891	-0.687895	0.637684
N95	N	0.915910	-0.308922	0.734192
H96	H	0.954517	-0.310341	0.707057
H97	H	0.919023	-0.248986	0.764878
H98	H	0.978335	-0.383630	0.944701
N99	N	0.135932	-0.645209	0.218492
H100	H	0.147304	-0.628781	0.173741
H101	H	0.089533	-0.634984	0.224637
N102	N	0.895310	-0.702441	0.734217
H103	H	0.892177	-0.762392	0.764875
H104	H	0.933488	-0.712185	0.707089
N105	N	0.822345	-1.119504	0.218571
H106	H	0.828443	-1.197323	0.224664
H107	H	0.832115	-1.100340	0.173830
H108	H	0.832868	-0.627698	0.541020
N109	N	0.337932	-0.309076	0.312388
H110	H	0.291509	-0.323421	0.311625
H111	H	0.349372	-0.262018	0.276204
N112	N	0.539566	-0.645321	0.218459
H113	H	0.493157	-0.635130	0.224554
H114	H	0.550979	-0.720384	0.228130
N115	N	0.988919	-0.366035	0.668428
H116	H	1.014313	-0.323482	0.637783
H117	H	1.017903	-0.408787	0.695590
N118	N	0.915923	-0.308831	0.870203
H119	H	0.915170	-0.323165	0.916621
H120	H	0.879701	-0.261875	0.858746
N121	N	0.988914	-0.365776	1.072064
H122	H	1.014306	-0.323224	1.041416
H123	H	1.017902	-0.408508	1.099234
H124	H	0.896618	-0.677350	0.861574
N125	N	0.675767	-0.366477	0.385322
H126	H	0.645140	-0.323970	0.410752
H127	H	0.702921	-0.317799	0.359867
N128	N	0.272131	-0.366347	0.385351
H129	H	0.241506	-0.323833	0.410778
H130	H	0.299289	-0.317674	0.359895
H131	H	0.832884	-0.627395	1.063371
H132	H	0.346421	-0.677539	0.292777
N133	N	0.271929	-0.645243	0.218482
H134	H	0.260517	-0.720330	0.228138
H135	H	0.318342	-0.634989	0.224585
