data_functionalizedCrystal
_audit_creation_method	'MofGen! by Chris Wilmer'
_symmetry_space_group_name_H-M	'P1'
_symmetry_Int_Tables_number	1
_symmetry_cell_setting	triclinic
loop_
_symmetry_equiv_pos_as_xyz
  x,y,z
_cell_length_a	12.759399
_cell_length_b	12.759401
_cell_length_c	12.759393
_cell_angle_alpha	90.021396
_cell_angle_beta	89.967969
_cell_angle_gamma	89.984062
loop_
_atom_site_label
_atom_site_type_symbol
_atom_site_fract_x
_atom_site_fract_y
_atom_site_fract_z
Zn1	Zn	-0.418181	-1.606252	-0.594061
Zn2	Zn	-0.593900	-1.606145	-0.418380
Zn3	Zn	-0.418238	-1.430554	-0.418391
Zn4	Zn	-0.593821	-1.430541	-0.594012
O5	O	-0.506035	-1.518373	-0.506211
O6	O	-0.441499	-1.753259	-0.570772
O7	O	-0.570655	-1.582813	-0.271360
O8	O	-0.271209	-1.453911	-0.441719
O9	O	-0.570599	-1.753180	-0.441700
O10	O	-0.271167	-1.582995	-0.570783
O11	O	-0.441597	-1.453807	-0.271369
O12	O	-0.441520	-1.283531	-0.441672
O13	O	-0.570465	-1.453889	-0.741040
O14	O	-0.570520	-1.283522	-0.570700
O15	O	-0.441423	-1.582983	-0.741075
O16	O	-0.740910	-1.582801	-0.441652
O17	O	-0.740852	-1.453785	-0.570689
C18	C	-0.506019	-1.245406	-0.506183
C19	C	-0.506037	-1.128629	-0.506195
C20	C	-0.573309	-1.073790	-0.573273
C21	C	-0.573311	-0.964066	-0.573291
C22	C	-0.438768	-0.964030	-0.439145
C23	C	-0.438760	-1.073752	-0.439133
C24	C	-0.779002	-1.518309	-0.506187
C25	C	-0.895779	-1.518377	-0.506212
C26	C	-0.950636	-1.585632	-0.439099
C27	C	-1.060360	-1.585700	-0.439134
C28	C	-1.060360	-1.451248	-0.573398
C29	C	-0.950638	-1.451187	-0.573368
C30	C	-0.232001	-1.518466	-0.506258
C31	C	-0.115225	-1.518506	-0.506278
C32	C	-0.505929	-1.518446	-0.780244
C33	C	-0.505883	-1.518478	-0.897021
C34	C	-0.506049	-0.792406	-0.506233
C35	C	-0.506047	-0.909183	-0.506225
C36	C	-0.438671	-1.451328	-0.951887
C37	C	-0.438638	-1.451353	-1.061611
C38	C	-0.573034	-1.585685	-1.061594
C39	C	-0.573071	-1.585654	-0.951872
C40	C	-0.506065	-1.518360	-0.233244
C41	C	-0.505814	-1.518533	-0.116467
H42	H	-0.628087	-1.118467	-0.627883
F43	F	-0.892255	-1.657144	-0.367628
F44	F	-0.367112	-1.379872	-1.119999
H45	H	-0.628089	-0.919420	-0.627914
H46	H	-0.627735	-1.640379	-1.106267
F47	F	-0.644616	-1.657124	-0.893476
H48	H	-1.105020	-1.640467	-0.384486
H49	H	-0.383995	-0.919336	-0.384543
H50	H	-0.383973	-1.118403	-0.384510
F51	F	-0.892251	-1.379606	-0.644807
H52	H	-1.105040	-1.396543	-0.628072
F53	F	-0.367166	-1.379830	-0.893515
