data_functionalizedCrystal
_audit_creation_method	'MofGen! by Chris Wilmer'
_symmetry_space_group_name_H-M	'P1'
_symmetry_Int_Tables_number	1
_symmetry_cell_setting	triclinic
loop_
_symmetry_equiv_pos_as_xyz
  x,y,z
_cell_length_a	21.395362
_cell_length_b	21.395362
_cell_length_c	21.395355
_cell_angle_alpha	90.020549
_cell_angle_beta	90.043940
_cell_angle_gamma	90.045668
loop_
_atom_site_label
_atom_site_type_symbol
_atom_site_fract_x
_atom_site_fract_y
_atom_site_fract_z
Zn1	Zn	0.957863	-0.249246	0.354577
Zn2	Zn	1.291197	0.084088	0.687910
Zn3	Zn	1.624530	0.417421	1.021243
Zn4	Zn	0.957768	-0.354005	0.249796
Zn5	Zn	1.291101	-0.020672	0.583129
Zn6	Zn	1.624434	0.312661	0.916462
Zn7	Zn	0.853078	-0.249275	0.249778
Zn8	Zn	1.186412	0.084059	0.583111
Zn9	Zn	1.519745	0.417392	0.916445
Zn10	Zn	0.853049	-0.354018	0.354500
Zn11	Zn	1.186383	-0.020685	0.687834
Zn12	Zn	1.519716	0.312648	1.021167
O13	O	0.905440	-0.301636	0.302163
O14	O	1.238773	0.031697	0.635496
O15	O	1.572106	0.365031	0.968829
O16	O	1.045529	-0.263125	0.340717
O17	O	1.378862	0.070209	0.674050
O18	O	1.712195	0.403542	1.007383
O19	O	0.943852	-0.340119	0.162115
O20	O	1.277186	-0.006786	0.495449
O21	O	1.610519	0.326547	0.828782
O22	O	0.867031	-0.161593	0.263704
O23	O	1.200364	0.171740	0.597038
O24	O	1.533697	0.505074	0.930371
O25	O	1.045458	-0.340091	0.263734
O26	O	1.378792	-0.006758	0.597068
O27	O	1.712125	0.326575	0.930401
O28	O	0.944016	-0.161572	0.340700
O29	O	1.277349	0.171762	0.674033
O30	O	1.610682	0.505095	1.007366
O31	O	0.866938	-0.263174	0.162102
O32	O	1.200271	0.070159	0.495436
O33	O	1.533604	0.403492	0.828769
O34	O	0.765397	-0.263187	0.263630
O35	O	1.098730	0.070147	0.596964
O36	O	1.432063	0.403480	0.930297
O37	O	0.866981	-0.340113	0.442188
O38	O	1.200314	-0.006780	0.775522
O39	O	1.533648	0.326554	1.108855
O40	O	0.765375	-0.340141	0.340569
O41	O	1.098709	-0.006808	0.673903
O42	O	1.432042	0.326525	1.007236
O43	O	0.943988	-0.263137	0.442245
O44	O	1.277321	0.070196	0.775578
O45	O	1.610654	0.403530	1.108911
O46	O	0.943824	-0.441685	0.263660
O47	O	1.277158	-0.108352	0.596994
O48	O	1.610491	0.224982	0.930327
O49	O	0.866888	-0.441695	0.340586
O50	O	1.200221	-0.108361	0.673920
O51	O	1.533555	0.224972	1.007253
C52	C	0.742652	-0.301669	0.302090
C53	C	1.075985	0.031664	0.635423
C54	C	1.409319	0.364998	0.968757
C55	C	0.673011	-0.301698	0.302074
C56	C	1.006344	0.031635	0.635407
C57	C	1.339677	0.364968	0.968740
C58	C	0.640303	-0.341822	0.342076
C59	C	0.973636	-0.008488	0.675409
C60	C	1.306970	0.324845	1.008743
C61	C	0.574867	-0.341806	0.342104
C62	C	0.908201	-0.008473	0.675437
C63	C	1.241534	0.324860	1.008770
C64	C	0.542142	-0.301674	0.302118
C65	C	0.875476	0.031659	0.635452
C66	C	1.208809	0.364992	0.968785
C67	C	0.574858	-0.261543	0.262113
C68	C	0.908192	0.071790	0.595447
C69	C	1.241525	0.405124	0.928780
C70	C	0.640292	-0.261555	0.262091
C71	C	0.973626	0.071778	0.595424
C72	C	1.306959	0.405112	0.928758
C73	C	0.438418	-0.296627	0.245713
C74	C	0.771751	0.036707	0.579047
C75	C	1.105084	0.370040	0.912380
C76	C	0.372985	-0.296619	0.245735
C77	C	0.706318	0.036714	0.579068
C78	C	1.039651	0.370048	0.912401
C79	C	0.340322	-0.301633	0.302188
C80	C	0.673655	0.031700	0.635521
C81	C	1.006988	0.365033	0.968854
C82	C	0.373100	-0.306668	0.358621
C83	C	0.706433	0.026665	0.691954
C84	C	1.039767	0.359998	1.025288
C85	C	0.438534	-0.306681	0.358599
C86	C	0.771867	0.026653	0.691932
C87	C	1.105201	0.359986	1.025265
C88	C	0.471190	-0.301656	0.302138
C89	C	0.804523	0.031677	0.635472
C90	C	1.137857	0.365010	0.968805
C91	C	0.236661	-0.341742	0.342223
C92	C	0.569995	-0.008409	0.675557
C93	C	0.903328	0.324924	1.008890
C94	C	0.171225	-0.341723	0.342252
C95	C	0.504558	-0.008389	0.675586
C96	C	0.837891	0.324944	1.008919
C97	C	0.171217	-0.261462	0.262256
C98	C	0.504550	0.071871	0.595590
C99	C	0.837884	0.405204	0.928923
C100	C	0.236652	-0.261479	0.262233
C101	C	0.569985	0.071854	0.595566
C102	C	0.903319	0.405188	0.928900
C103	C	0.269371	-0.301622	0.302216
C104	C	0.602704	0.031711	0.635549
C105	C	0.936037	0.365044	0.968882
C106	C	0.905360	-0.464424	0.302130
C107	C	1.238693	-0.131090	0.635464
C108	C	1.572026	0.202243	0.968797
C109	C	0.905383	-0.534065	0.302138
C110	C	1.238716	-0.200732	0.635471
C111	C	1.572049	0.132602	0.968804
C112	C	0.945446	-0.566710	0.342258
C113	C	1.278779	-0.233377	0.675591
C114	C	1.612112	0.099957	1.008924
C115	C	0.945468	-0.632145	0.342273
C116	C	1.278801	-0.298812	0.675606
C117	C	1.612135	0.034521	1.008940
C118	C	0.905433	-0.664933	0.302157
C119	C	1.238767	-0.331600	0.635490
C120	C	1.572100	0.001733	0.968824
C121	C	0.865362	-0.632280	0.262034
C122	C	1.198696	-0.298947	0.595368
C123	C	1.532029	0.034386	0.928701
C124	C	0.865337	-0.566846	0.262025
C125	C	1.198670	-0.233513	0.595358
C126	C	1.532004	0.099821	0.928691
C127	C	0.900556	-0.768635	0.245717
C128	C	1.233890	-0.435301	0.579050
C129	C	1.567223	-0.101968	0.912383
C130	C	0.900586	-0.834068	0.245725
C131	C	1.233919	-0.500734	0.579059
C132	C	1.567253	-0.167401	0.912392
C133	C	0.905508	-0.866754	0.302187
C134	C	1.238841	-0.533421	0.635521
C135	C	1.572174	-0.200087	0.968854
C136	C	0.910413	-0.833999	0.358643
C137	C	1.243746	-0.500666	0.691976
C138	C	1.577080	-0.167332	1.025309
C139	C	0.910388	-0.768565	0.358633
C140	C	1.243721	-0.435232	0.691966
C141	C	1.577054	-0.101898	1.025300
C142	C	0.905456	-0.735886	0.302163
C143	C	1.238789	-0.402552	0.635497
C144	C	1.572123	-0.069219	0.968830
C145	C	0.945597	-0.970351	0.342327
C146	C	1.278930	-0.637018	0.675661
C147	C	1.612264	-0.303685	1.008994
C148	C	0.945614	-1.035788	0.342344
C149	C	1.278948	-0.702455	0.675677
C150	C	1.612281	-0.369121	1.009010
C151	C	0.865512	-1.035922	0.262100
C152	C	1.198846	-0.702588	0.595433
C153	C	1.532179	-0.369255	0.928766
C154	C	0.865491	-0.970486	0.262089
C155	C	1.198825	-0.637153	0.595422
C156	C	1.532158	-0.303820	0.928755
C157	C	0.905537	-0.937705	0.302202
C158	C	1.238870	-0.604372	0.635535
C159	C	1.572204	-0.271038	0.968869
C160	C	1.068863	-0.301603	0.302236
C161	C	1.402196	0.031730	0.635569
C162	C	1.735530	0.365063	0.968903
C163	C	1.138504	-0.301589	0.302267
C164	C	1.471838	0.031744	0.635601
C165	C	1.805171	0.365077	0.968934
C166	C	0.905492	-0.301623	0.465586
C167	C	1.238825	0.031710	0.798919
C168	C	1.572158	0.365043	1.132253
C169	C	0.905514	-0.301618	0.535227
C170	C	1.238847	0.031715	0.868561
C171	C	1.572181	0.365049	1.201894
C172	C	0.905537	-0.138213	0.302209
C173	C	1.238871	0.195121	0.635542
C174	C	1.572204	0.528454	0.968875
C175	C	0.905579	-0.068571	0.302228
C176	C	1.238912	0.264762	0.635562
C177	C	1.572245	0.598095	0.968895
C178	C	0.905424	-0.301603	0.139375
C179	C	1.238757	0.031730	0.472708
C180	C	1.572091	0.365063	0.806042
C181	C	0.905523	-0.301432	0.069734
C182	C	1.238857	0.031901	0.403068
C183	C	1.572190	0.365234	0.736401
C184	C	0.945609	-0.261535	0.567971
C185	C	1.278943	0.071799	0.901304
C186	C	1.612276	0.405132	1.234637
C187	C	0.945609	-0.261508	0.633406
C188	C	1.278942	0.071826	0.966739
C189	C	1.612275	0.405159	1.300073
C190	C	0.905519	-0.301575	0.666096
C191	C	1.238852	0.031758	0.999429
C192	C	1.572185	0.365091	1.332762
C193	C	0.865415	-0.341661	0.633344
C194	C	1.198749	-0.008328	0.966678
C195	C	1.532082	0.325006	1.300011
C196	C	0.865413	-0.341682	0.567910
C197	C	1.198746	-0.008349	0.901244
C198	C	1.532080	0.324984	1.234577
C199	C	0.900544	-0.357992	0.769758
C200	C	1.233877	-0.024659	1.103091
C201	C	1.567210	0.308675	1.436424
C202	C	0.900551	-0.357972	0.835191
C203	C	1.233884	-0.024638	1.168524
C204	C	1.567217	0.308695	1.501857
C205	C	0.905523	-0.301509	0.867917
C206	C	1.238856	0.031824	1.201250
C207	C	1.572189	0.365158	1.534583
C208	C	0.910501	-0.245065	0.835202
C209	C	1.243834	0.088268	1.168535
C210	C	1.577168	0.421602	1.501868
C211	C	0.910499	-0.245086	0.769767
C212	C	1.243832	0.088247	1.103101
C213	C	1.577165	0.421580	1.436434
C214	C	0.905517	-0.301556	0.737048
C215	C	1.238850	0.031777	1.070381
C216	C	1.572183	0.365110	1.403715
C217	C	0.945619	-0.261393	0.971613
C218	C	1.278953	0.071940	1.304946
C219	C	1.612286	0.405273	1.638279
C220	C	0.945614	-0.261365	1.037049
C221	C	1.278948	0.071968	1.370383
C222	C	1.612281	0.405301	1.703716
C223	C	0.865424	-0.341524	1.036986
C224	C	1.198758	-0.008191	1.370320
C225	C	1.532091	0.325142	1.703653
C226	C	0.865426	-0.341547	0.971551
C227	C	1.198760	-0.008213	1.304884
C228	C	1.532093	0.325120	1.638217
C229	C	0.905527	-0.301482	0.938868
C230	C	1.238860	0.031851	1.272201
C231	C	1.572194	0.365185	1.605535
H232	H	0.263283	-0.228809	0.229656
H233	H	0.596617	0.104524	0.562989
H234	H	0.929950	0.437857	0.896322
F235	F	0.988286	-0.218892	0.533191
F236	F	1.321619	0.114442	0.866524
F237	F	1.654953	0.447775	1.199858
F238	F	0.988113	-0.666896	0.384973
F239	F	1.321446	-0.333562	0.718306
F240	F	1.654780	-0.000229	1.051640
F241	F	0.540029	-0.218829	0.219561
F242	F	0.873363	0.114504	0.552894
F243	F	1.206696	0.447838	0.886227
F244	F	0.338106	-0.291261	0.185674
F245	F	0.671439	0.042073	0.519007
F246	F	1.004773	0.375406	0.852341
F247	F	0.915605	-0.733707	0.418715
F248	F	1.248938	-0.400374	0.752048
F249	F	1.582271	-0.067040	1.085381
F250	F	0.473174	-0.291291	0.185624
F251	F	0.806507	0.042042	0.518957
F252	F	1.139840	0.375376	0.852291
H253	H	0.548232	-0.374479	0.374681
H254	H	0.881565	-0.041146	0.708014
H255	H	1.214898	0.292187	1.041347
H256	H	0.832759	-0.374322	0.541251
H257	H	1.166093	-0.040989	0.874584
H258	H	1.499426	0.292344	1.207918
F259	F	0.895370	-0.868922	0.185641
F260	F	1.228704	-0.535589	0.518975
F261	F	1.562037	-0.202255	0.852308
F262	F	0.915654	-0.868780	0.418738
F263	F	1.248987	-0.535447	0.752072
F264	F	1.582320	-0.202114	1.085405
H265	H	0.978258	-0.228864	0.660071
H266	H	1.311591	0.104469	0.993404
H267	H	1.644925	0.437803	1.326738
F268	F	0.988295	-0.218751	0.936827
F269	F	1.321628	0.114582	1.270160
F270	F	1.654962	0.447915	1.603493
H271	H	0.832780	-0.374190	0.944891
H272	H	1.166113	-0.040857	1.278224
H273	H	1.499446	0.292476	1.611557
F274	F	0.675104	-0.218848	0.219514
F275	F	1.008437	0.114485	0.552847
F276	F	1.341770	0.447819	0.886180
H277	H	0.978052	-0.540021	0.374922
H278	H	1.311385	-0.206688	0.708255
H279	H	1.644718	0.126645	1.041588
F280	F	0.822747	-0.384302	0.668136
F281	F	1.156080	-0.050968	1.001469
F282	F	1.489414	0.282365	1.334802
F283	F	0.473416	-0.312037	0.418657
F284	F	0.806750	0.021297	0.751991
F285	F	1.140083	0.354630	1.085324
H286	H	0.978264	-0.228721	1.063708
H287	H	1.311597	0.104612	1.397041
H288	H	1.644931	0.437946	1.730374
H289	H	0.978239	-1.062367	0.375017
H290	H	1.311572	-0.729033	0.708350
H291	H	1.644905	-0.395700	1.041684
F292	F	0.675120	-0.384544	0.384631
F293	F	1.008454	-0.051211	0.717964
F294	F	1.341787	0.282123	1.051298
F295	F	0.915795	-0.184969	0.870025
F296	F	1.249129	0.148365	1.203359
F297	F	1.582462	0.481698	1.536692
F298	F	0.915794	-0.185016	0.734952
F299	F	1.249127	0.148317	1.068285
F300	F	1.582460	0.481650	1.401619
F301	F	0.338343	-0.312003	0.418708
F302	F	0.671676	0.021331	0.752041
F303	F	1.005010	0.354664	1.085374
F304	F	0.136393	-0.218747	0.219704
F305	F	0.469726	0.114586	0.553037
F306	F	0.803059	0.447920	0.886370
H307	H	0.978203	-0.943660	0.374992
H308	H	1.311536	-0.610327	0.708325
H309	H	1.644869	-0.276993	1.041659
H310	H	0.832911	-1.062617	0.229440
H311	H	1.166245	-0.729284	0.562774
H312	H	1.499578	-0.395950	0.896107
F313	F	0.895258	-0.418044	0.870002
F314	F	1.228591	-0.084711	1.203336
F315	F	1.561924	0.248623	1.536669
H316	H	0.263302	-0.374426	0.374783
H317	H	0.596635	-0.041093	0.708116
H318	H	0.929969	0.292241	1.041449
H319	H	0.144595	-0.374395	0.374831
H320	H	0.477928	-0.041061	0.708164
H321	H	0.811262	0.292272	1.041497
H322	H	0.832871	-0.943905	0.229417
H323	H	1.166204	-0.610572	0.562750
H324	H	1.499537	-0.277238	0.896083
F325	F	0.895381	-0.733854	0.185613
F326	F	1.228715	-0.400521	0.518946
F327	F	1.562048	-0.067187	0.852279
H328	H	0.832764	-0.658980	0.229373
H329	H	1.166098	-0.325647	0.562707
H330	H	1.499431	0.007686	0.896040
H331	H	0.832712	-0.540266	0.229354
H332	H	1.166045	-0.206933	0.562687
H333	H	1.499379	0.126401	0.896020
F334	F	0.822753	-0.384163	1.071772
F335	F	1.156086	-0.050829	1.405106
F336	F	1.489419	0.282504	1.738439
H337	H	0.896327	-0.403959	0.743118
H338	H	1.229661	-0.070626	1.076451
H339	H	1.562994	0.262708	1.409784
