data_functionalizedCrystal
_audit_creation_method	'MofGen! by Chris Wilmer'
_symmetry_space_group_name_H-M	'P1'
_symmetry_Int_Tables_number	1
_symmetry_cell_setting	triclinic
loop_
_symmetry_equiv_pos_as_xyz
  x,y,z
_cell_length_a	12.759401
_cell_length_b	12.759399
_cell_length_c	12.759393
_cell_angle_alpha	89.968645
_cell_angle_beta	90.019596
_cell_angle_gamma	89.976086
loop_
_atom_site_label
_atom_site_type_symbol
_atom_site_fract_x
_atom_site_fract_y
_atom_site_fract_z
Zn1	Zn	1.606201	0.418208	0.593976
Zn2	Zn	1.939534	0.751541	0.927310
Zn3	Zn	2.272868	1.084874	1.260643
Zn4	Zn	1.606065	0.593923	0.418294
Zn5	Zn	1.939398	0.927257	0.751627
Zn6	Zn	2.272731	1.260590	1.084960
Zn7	Zn	1.430500	0.418260	0.418315
Zn8	Zn	1.763833	0.751593	0.751649
Zn9	Zn	2.097166	1.084926	1.084982
Zn10	Zn	1.430464	0.593846	0.593935
Zn11	Zn	1.763798	0.927179	0.927268
Zn12	Zn	2.097131	1.260513	1.260602
O13	O	1.518308	0.506059	0.506130
O14	O	1.851641	0.839393	0.839463
O15	O	2.184974	1.172726	1.172797
O16	O	1.753204	0.441527	0.570680
O17	O	2.086537	0.774861	0.904013
O18	O	2.419871	1.108194	1.237346
O19	O	1.582734	0.570675	0.271275
O20	O	1.916067	0.904009	0.604609
O21	O	2.249400	1.237342	0.937942
O22	O	1.453879	0.271232	0.441644
O23	O	1.787212	0.604565	0.774977
O24	O	2.120546	0.937899	1.108310
O25	O	1.753104	0.570625	0.441606
O26	O	2.086437	0.903958	0.774940
O27	O	2.419771	1.237291	1.108273
O28	O	1.582966	0.271194	0.570701
O29	O	1.916299	0.604527	0.904034
O30	O	2.249633	0.937860	1.237367
O31	O	1.453747	0.441616	0.271291
O32	O	1.787080	0.774949	0.604625
O33	O	2.120413	1.108283	0.937958
O34	O	1.283474	0.441541	0.441604
O35	O	1.616807	0.774875	0.774937
O36	O	1.950141	1.108208	1.108270
O37	O	1.453818	0.570493	0.740962
O38	O	1.787152	0.903827	1.074295
O39	O	2.120485	1.237160	1.407628
O40	O	1.283448	0.570544	0.570631
O41	O	1.616781	0.903877	0.903964
O42	O	1.950115	1.237210	1.237297
O43	O	1.582931	0.441452	0.740992
O44	O	1.916265	0.774786	1.074325
O45	O	2.249598	1.108119	1.407659
O46	O	1.582699	0.740934	0.441567
O47	O	1.916032	1.074267	0.774900
O48	O	2.249366	1.407601	1.108233
O49	O	1.453686	0.740877	0.570609
O50	O	1.787020	1.074211	0.903943
O51	O	2.120353	1.407544	1.237276
C52	C	1.245340	0.506040	0.506116
C53	C	1.578673	0.839374	0.839449
C54	C	1.912007	1.172707	1.172782
C55	C	1.128564	0.506058	0.506134
C56	C	1.461897	0.839391	0.839468
C57	C	1.795230	1.172724	1.172801
C58	C	0.963984	0.573347	0.573220
C59	C	1.297318	0.906681	0.906553
C60	C	1.630651	1.240014	1.239887
C61	C	1.073708	0.573336	0.573209
C62	C	1.407042	0.906669	0.906543
C63	C	1.740375	1.240002	1.239876
C64	C	1.073689	0.438795	0.439058
C65	C	1.407022	0.772128	0.772392
C66	C	1.740356	1.105461	1.105725
C67	C	0.963967	0.438812	0.439065
C68	C	1.297300	0.772146	0.772398
C69	C	1.630634	1.105479	1.105732
C70	C	1.518203	0.779027	0.506104
C71	C	1.851536	1.112360	0.839437
C72	C	2.184869	1.445693	1.172771
C73	C	1.518254	0.895803	0.506128
C74	C	1.851587	1.229137	0.839461
C75	C	2.184920	1.562470	1.172795
C76	C	1.585431	0.950555	0.573384
C77	C	1.918765	1.283889	0.906717
C78	C	2.252098	1.617222	1.240050
C79	C	1.585473	1.060279	0.573409
C80	C	1.918807	1.393613	0.906743
C81	C	2.252140	1.726946	1.240076
C82	C	1.451157	1.060489	0.438914
C83	C	1.784490	1.393823	0.772248
C84	C	2.117823	1.727156	1.105581
C85	C	1.451110	0.950767	0.438895
C86	C	1.784444	1.284101	0.772228
C87	C	2.117777	1.617434	1.105562
C88	C	1.792341	0.506079	0.506145
C89	C	2.125674	0.839412	0.839479
C90	C	2.459007	1.172746	1.172812
C91	C	1.909117	0.506087	0.506152
C92	C	2.242451	0.839421	0.839485
C93	C	2.575784	1.172754	1.172818
C94	C	1.518386	0.505958	0.780164
C95	C	1.851719	0.839292	1.113497
C96	C	2.185053	1.172625	1.446830
C97	C	1.518420	0.505915	0.896940
C98	C	1.851753	0.839249	1.230274
C99	C	2.185086	1.172582	1.563607
C100	C	1.518402	1.232026	0.506172
C101	C	1.851735	1.565359	0.839506
C102	C	2.185069	1.898693	1.172839
C103	C	1.518342	1.115249	0.506173
C104	C	1.851675	1.448583	0.839506
C105	C	2.185008	1.781916	1.172840
C106	C	1.518290	0.506084	0.233163
C107	C	1.851623	0.839417	0.566496
C108	C	2.184956	1.172751	0.899829
C109	C	1.518460	0.505831	0.116387
C110	C	1.851793	0.839164	0.449720
C111	C	2.185126	1.172498	0.783053
C112	C	1.585654	0.438713	0.951820
C113	C	1.918987	0.772046	1.285153
C114	C	2.252320	1.105380	1.618486
C115	C	1.585672	0.438668	1.061544
C116	C	1.919005	0.772001	1.394877
C117	C	2.252338	1.105335	1.728211
C118	C	1.451218	0.573036	1.061499
C119	C	1.784551	0.906369	1.394833
C120	C	2.117885	1.239703	1.728166
C121	C	1.451196	0.573075	0.951777
C122	C	1.784529	0.906409	1.285111
C123	C	2.117863	1.239742	1.618444
H124	H	0.919293	0.384039	0.384445
H125	H	1.252626	0.717373	0.717778
H126	H	1.585960	1.050706	1.051111
Cl127	Cl	1.142650	0.354219	0.354732
Cl128	Cl	1.475983	0.687553	0.688065
Cl129	Cl	1.809317	1.020886	1.021398
Cl130	Cl	1.366643	0.881931	0.354346
Cl131	Cl	1.699976	1.215264	0.687679
Cl132	Cl	2.033310	1.548597	1.021012
Cl133	Cl	1.142679	0.657898	0.657525
Cl134	Cl	1.476013	0.991231	0.990859
Cl135	Cl	1.809346	1.324565	1.324192
Cl136	Cl	1.670159	0.354280	0.882885
Cl137	Cl	2.003493	0.687613	1.216219
Cl138	Cl	2.336826	1.020946	1.549552
Cl139	Cl	1.366660	0.657559	0.882781
Cl140	Cl	1.699993	0.990893	1.216114
Cl141	Cl	2.033326	1.324226	1.549447
H142	H	1.640174	1.104854	0.628178
H143	H	1.973507	1.438187	0.961511
H144	H	2.306840	1.771520	1.294845
Cl145	Cl	0.895034	0.657925	0.657553
Cl146	Cl	1.228368	0.991259	0.990887
Cl147	Cl	1.561701	1.324592	1.324220
H148	H	1.396493	1.105255	0.384174
H149	H	1.729826	1.438588	0.717507
H150	H	2.063159	1.771921	1.050840
Cl151	Cl	1.669836	0.881461	0.657909
Cl152	Cl	2.003169	1.214795	0.991243
Cl153	Cl	2.336503	1.548128	1.324576
Cl154	Cl	1.670208	0.354190	1.130531
Cl155	Cl	2.003541	0.687524	1.463864
Cl156	Cl	2.336875	1.020857	1.797197
H157	H	1.396489	0.627718	1.106161
H158	H	1.729823	0.961051	1.439495
H159	H	2.063156	1.294384	1.772828
