data_functionalizedCrystal
_audit_creation_method	'MofGen! by Chris Wilmer'
_symmetry_space_group_name_H-M	'P1'
_symmetry_Int_Tables_number	1
_symmetry_cell_setting	triclinic
loop_
_symmetry_equiv_pos_as_xyz
  x,y,z
_cell_length_a	12.759399
_cell_length_b	12.759401
_cell_length_c	12.759393
_cell_angle_alpha	90.020566
_cell_angle_beta	89.969094
_cell_angle_gamma	89.986676
loop_
_atom_site_label
_atom_site_type_symbol
_atom_site_fract_x
_atom_site_fract_y
_atom_site_fract_z
Zn1	Zn	-0.418266	-1.606263	-0.594007
Zn2	Zn	-0.593981	-1.606153	-0.418326
Zn3	Zn	-0.418311	-1.430562	-0.418343
Zn4	Zn	-0.593898	-1.430553	-0.593964
O5	O	-0.506114	-1.518383	-0.506160
O6	O	-0.441591	-1.753270	-0.570713
O7	O	-0.570732	-1.582818	-0.271307
O8	O	-0.271284	-1.453919	-0.441670
O9	O	-0.570688	-1.753189	-0.441641
O10	O	-0.271251	-1.583006	-0.570730
O11	O	-0.441669	-1.453812	-0.271320
O12	O	-0.441587	-1.283540	-0.441629
O13	O	-0.570546	-1.453903	-0.740991
O14	O	-0.570590	-1.283533	-0.570657
O15	O	-0.441510	-1.582997	-0.741022
O16	O	-0.740991	-1.582809	-0.441599
O17	O	-0.740930	-1.453796	-0.570640
C18	C	-0.506085	-1.245415	-0.506141
C19	C	-0.506098	-1.128639	-0.506157
C20	C	-0.438997	-1.073820	-0.573468
C21	C	-0.439003	-0.964096	-0.573473
C22	C	-0.573222	-0.964020	-0.438854
C23	C	-0.573210	-1.073742	-0.438845
C24	C	-0.779081	-1.518318	-0.506136
C25	C	-0.895858	-1.518387	-0.506161
C26	C	-0.950717	-1.585641	-0.439046
C27	C	-1.060441	-1.585708	-0.439081
C28	C	-1.060437	-1.451259	-0.573349
C29	C	-0.950715	-1.451198	-0.573319
C30	C	-0.232081	-1.518476	-0.506207
C31	C	-0.115304	-1.518516	-0.506227
C32	C	-0.506013	-1.518461	-0.780193
C33	C	-0.505970	-1.518495	-0.896970
C34	C	-0.506134	-0.792416	-0.506176
C35	C	-0.506117	-0.909193	-0.506172
C36	C	-0.438770	-1.585719	-0.951850
C37	C	-0.438725	-1.585737	-1.061574
C38	C	-0.573088	-1.451303	-1.061529
C39	C	-0.573128	-1.451281	-0.951806
C40	C	-0.506139	-1.518365	-0.233192
C41	C	-0.505886	-1.518535	-0.116416
H42	H	-0.384361	-0.919467	-0.628283
H43	H	-1.105102	-1.640474	-0.384430
H44	H	-0.906046	-1.396432	-0.627977
C45	C	-0.647049	-0.903632	-0.364819
C46	C	-0.766493	-0.918714	-0.373181
C47	C	-0.840325	-0.858330	-0.299146
C48	C	-0.794713	-0.782864	-0.216749
C49	C	-0.675263	-0.767778	-0.208384
C50	C	-0.601431	-0.828162	-0.282419
H51	H	-0.800264	-0.974581	-0.434180
H52	H	-0.928750	-0.869497	-0.305339
H53	H	-0.849367	-0.738164	-0.161944
H54	H	-0.641492	-0.711911	-0.147386
H55	H	-0.513006	-0.816995	-0.276226
H56	H	-0.906055	-1.640352	-0.384363
H57	H	-0.627768	-1.396583	-1.106190
H58	H	-1.105116	-1.396555	-0.628025
C59	C	-0.647029	-1.134051	-0.364800
C60	C	-0.720859	-1.073672	-0.290768
C61	C	-0.794671	-1.133982	-0.216725
C62	C	-0.794653	-1.254672	-0.216713
C63	C	-0.720820	-1.315058	-0.290747
C64	C	-0.647008	-1.254748	-0.364791
H65	H	-0.720874	-0.984324	-0.290775
H66	H	-0.849327	-1.089279	-0.161920
H67	H	-0.849293	-1.299317	-0.161902
H68	H	-0.720804	-1.404406	-0.290741
H69	H	-0.592352	-1.299451	-0.419596
C70	C	-0.364807	-1.659689	-1.121941
C71	C	-0.410315	-1.742168	-1.197381
C72	C	-0.336391	-1.816122	-1.257747
C73	C	-0.216960	-1.807597	-1.242673
C74	C	-0.171446	-1.725114	-1.167229
C75	C	-0.245369	-1.651160	-1.106863
H76	H	-0.498730	-1.748482	-1.208544
H77	H	-0.370085	-1.877182	-1.313596
H78	H	-0.162238	-1.862343	-1.287359
H79	H	-0.083030	-1.718801	-1.156067
H80	H	-0.211676	-1.590101	-1.051014
H81	H	-0.384083	-1.640446	-0.907205
H82	H	-0.627849	-1.396532	-0.907122
H83	H	-0.384347	-1.118514	-0.628275
