data_functionalizedCrystal
_audit_creation_method	'MofGen! by Chris Wilmer'
_symmetry_space_group_name_H-M	'P1'
_symmetry_Int_Tables_number	1
_symmetry_cell_setting	triclinic
loop_
_symmetry_equiv_pos_as_xyz
  x,y,z
_cell_length_a	21.395361
_cell_length_b	12.759401
_cell_length_c	12.759393
_cell_angle_alpha	90.022497
_cell_angle_beta	89.961845
_cell_angle_gamma	89.968470
loop_
_atom_site_label
_atom_site_type_symbol
_atom_site_fract_x
_atom_site_fract_y
_atom_site_fract_z
Zn1	Zn	-0.249394	-1.606150	-0.594008
Zn2	Zn	-0.354185	-1.605992	-0.418304
Zn3	Zn	-0.249427	-1.430448	-0.418338
Zn4	Zn	-0.354140	-1.430391	-0.593937
O5	O	-0.301786	-1.518245	-0.506147
O6	O	-0.263301	-1.753150	-0.570716
O7	O	-0.340321	-1.582663	-0.271288
O8	O	-0.161744	-1.453845	-0.441685
O9	O	-0.340290	-1.753033	-0.441627
O10	O	-0.161721	-1.582932	-0.570749
O11	O	-0.263355	-1.453692	-0.271313
O12	O	-0.263312	-1.283420	-0.441616
O13	O	-0.340213	-1.453748	-0.740967
O14	O	-0.340244	-1.283378	-0.570628
O15	O	-0.263257	-1.582877	-0.741020
O16	O	-0.441857	-1.582608	-0.441559
O17	O	-0.441824	-1.453595	-0.570595
C18	C	-0.301777	-1.245278	-0.506119
C19	C	-0.301788	-1.128501	-0.506131
C20	C	-0.464574	-1.518106	-0.506088
C21	C	-0.534215	-1.518143	-0.506099
C22	C	-0.341907	-1.073645	-0.573201
C23	C	-0.341908	-0.963921	-0.573218
C24	C	-0.261670	-0.963919	-0.439089
C25	C	-0.261666	-1.073641	-0.439077
C26	C	-0.566925	-1.585380	-0.438978
C27	C	-0.632360	-1.585429	-0.439002
C28	C	-0.665084	-1.518222	-0.506135
C29	C	-0.632366	-1.450981	-0.573268
C30	C	-0.566932	-1.450941	-0.573250
C31	C	-0.768798	-1.423624	-0.514368
C32	C	-0.834231	-1.423662	-0.514379
C33	C	-0.866904	-1.518345	-0.506196
C34	C	-0.834136	-1.612993	-0.497981
C35	C	-0.768702	-1.612953	-0.497963
C36	C	-0.736036	-1.518258	-0.506162
C37	C	-0.970566	-1.585640	-0.439098
C38	C	-1.036003	-1.585690	-0.439129
C39	C	-1.036008	-1.451233	-0.573389
C40	C	-0.970572	-1.451192	-0.573364
C41	C	-0.937856	-1.518394	-0.506213
C42	C	-0.138363	-1.518413	-0.506229
C43	C	-0.068722	-1.518484	-0.506263
C44	C	-0.301726	-1.518324	-0.780180
C45	C	-0.301701	-1.518357	-0.896957
C46	C	-0.301795	-0.792278	-0.506169
C47	C	-0.301794	-0.909055	-0.506161
C48	C	-0.261623	-1.585600	-0.951848
C49	C	-0.261596	-1.585617	-1.061572
C50	C	-0.341729	-1.451147	-1.061505
C51	C	-0.341753	-1.451125	-0.951783
C52	C	-0.301801	-1.518227	-0.233179
C53	C	-0.301650	-1.518397	-0.116403
H54	H	-0.374577	-0.919261	-0.627834
H55	H	-0.374388	-1.396361	-0.907089
H56	H	-0.229005	-0.919239	-0.384494
C57	C	-1.071995	-1.377306	-0.647240
C58	C	-1.036011	-1.303340	-0.721071
C59	C	-1.072002	-1.229415	-0.794929
C60	C	-1.143977	-1.229456	-0.794955
C61	C	-1.179965	-1.303425	-0.721122
C62	C	-1.143974	-1.377350	-0.647264
H63	H	-0.982727	-1.303308	-0.721054
H64	H	-1.045360	-1.174658	-0.849585
H65	H	-1.170619	-1.174732	-0.849629
H66	H	-1.233249	-1.303457	-0.721139
H67	H	-1.170615	-1.432106	-0.592608
C68	C	-0.217512	-1.659589	-1.121951
C69	C	-0.244649	-1.742056	-1.197388
C70	C	-0.200562	-1.816031	-1.257766
C71	C	-0.129338	-1.807538	-1.242706
C72	C	-0.102197	-1.725068	-1.167265
C73	C	-0.146284	-1.651093	-1.106888
H74	H	-0.297377	-1.748346	-1.208539
H75	H	-0.220654	-1.877081	-1.313612
H76	H	-0.096702	-1.862299	-1.287401
H77	H	-0.049469	-1.718778	-1.156114
H78	H	-0.126192	-1.590043	-1.051041
C79	C	-0.732657	-1.717059	-0.488938
C80	C	-0.660682	-1.717010	-0.488920
C81	C	-0.624637	-1.821117	-0.479900
C82	C	-0.660567	-1.925272	-0.470899
C83	C	-0.732546	-1.925325	-0.470917
C84	C	-0.768591	-1.821218	-0.479937
H85	H	-0.634081	-1.639905	-0.495583
H86	H	-0.571353	-1.821078	-0.479887
H87	H	-0.633884	-2.002339	-0.464222
H88	H	-0.759147	-2.002430	-0.464254
H89	H	-0.821875	-1.821257	-0.479950
C90	C	-0.217533	-1.133989	-0.365291
C91	C	-0.146313	-1.118966	-0.374083
C92	C	-0.102181	-1.179314	-0.300302
C93	C	-0.129271	-1.254684	-0.217729
C94	C	-0.200496	-1.269710	-0.208933
C95	C	-0.244627	-1.209362	-0.282714
H96	H	-0.126256	-1.063170	-0.435212
H97	H	-0.049456	-1.168190	-0.306814
H98	H	-0.096603	-1.299356	-0.163112
H99	H	-0.220552	-1.325506	-0.147804
H100	H	-0.297352	-1.220486	-0.276202
H101	H	-0.943927	-1.640363	-0.384422
C102	C	-0.530934	-1.659302	-0.365119
C103	C	-0.485880	-1.741735	-0.410702
C104	C	-0.449887	-1.815656	-0.336844
C105	C	-0.458947	-1.807143	-0.217403
C106	C	-0.504003	-1.724707	-0.171814
C107	C	-0.539996	-1.650786	-0.245672
H108	H	-0.479172	-1.748039	-0.499125
H109	H	-0.416533	-1.876681	-0.370593
H110	H	-0.432302	-1.861864	-0.162729
H111	H	-0.510711	-1.718402	-0.083391
H112	H	-0.573350	-1.589761	-0.211923
C113	C	-0.386035	-1.133993	-0.646966
C114	C	-0.457256	-1.118841	-0.638177
C115	C	-0.501384	-1.179185	-0.711948
C116	C	-0.474290	-1.254682	-0.794506
C117	C	-0.403064	-1.269837	-0.803298
C118	C	-0.358937	-1.209492	-0.729528
H119	H	-0.477316	-1.062951	-0.577059
H120	H	-0.554110	-1.167966	-0.705439
H121	H	-0.506955	-1.299352	-0.849116
H122	H	-0.383004	-1.325727	-0.864416
H123	H	-0.306211	-1.220712	-0.736037
C124	C	-0.732861	-1.319464	-0.523372
C125	C	-0.660886	-1.319416	-0.523357
C126	C	-0.624950	-1.215262	-0.532364
C127	C	-0.660989	-1.111155	-0.541387
C128	C	-0.732968	-1.111199	-0.541402
C129	C	-0.768904	-1.215354	-0.532395
H130	H	-0.634204	-1.396486	-0.516678
H131	H	-0.571666	-1.215230	-0.532353
H132	H	-0.634387	-1.034054	-0.548054
H133	H	-0.759650	-1.034130	-0.548081
H134	H	-0.822188	-1.215386	-0.532406
H135	H	-0.374340	-1.396412	-1.106157
H136	H	-0.658997	-1.640184	-0.384344
H137	H	-0.860738	-1.690092	-0.491318
H138	H	-0.860906	-1.346593	-0.521058
C139	C	-0.934589	-1.377221	-0.647193
C140	C	-0.943655	-1.257795	-0.638513
C141	C	-0.907672	-1.183824	-0.712350
C142	C	-0.862624	-1.229279	-0.794867
C143	C	-0.853557	-1.348711	-0.803550
C144	C	-0.889539	-1.422682	-0.729713
H145	H	-0.977004	-1.224141	-0.577426
H146	H	-0.914385	-1.095412	-0.705922
H147	H	-0.835988	-1.174521	-0.849525
H148	H	-0.820208	-1.382365	-0.864636
H149	H	-0.882826	-1.511094	-0.736141
H150	H	-0.659014	-1.396263	-0.627930
C151	C	-0.217562	-1.659544	-0.891538
C152	C	-0.146332	-1.651043	-0.906658
C153	C	-0.102268	-1.724986	-0.846351
C154	C	-0.129435	-1.807431	-0.770924
C155	C	-0.200669	-1.815936	-0.755800
C156	C	-0.244733	-1.741992	-0.816107
H157	H	-0.126218	-1.590009	-0.962497
H158	H	-0.049535	-1.718690	-0.857548
H159	H	-0.096816	-1.862169	-0.726281
H160	H	-0.220783	-1.876969	-0.699961
H161	H	-0.297466	-1.748288	-0.804911
H162	H	-1.062634	-1.640449	-0.384473
H163	H	-0.540299	-1.396188	-0.627909
