data_functionalizedCrystal
_audit_creation_method	'MofGen! by Chris Wilmer'
_symmetry_space_group_name_H-M	'P1'
_symmetry_Int_Tables_number	1
_symmetry_cell_setting	triclinic
loop_
_symmetry_equiv_pos_as_xyz
  x,y,z
_cell_length_a	17.077404
_cell_length_b	12.759400
_cell_length_c	17.077396
_cell_angle_alpha	89.975532
_cell_angle_beta	89.981638
_cell_angle_gamma	90.011136
loop_
_atom_site_label
_atom_site_type_symbol
_atom_site_fract_x
_atom_site_fract_y
_atom_site_fract_z
Zn1	Zn	1.200108	-0.418323	-0.443841
Zn2	Zn	1.200037	-0.594024	-0.312584
Zn3	Zn	1.068839	-0.418353	-0.312591
Zn4	Zn	1.068830	-0.593954	-0.443810
O5	O	1.134453	-0.506164	-0.378207
O6	O	1.309945	-0.441647	-0.426439
O7	O	1.182608	-0.570762	-0.202738
O8	O	1.086286	-0.271328	-0.330018
O9	O	1.309893	-0.570733	-0.330005
O10	O	1.182728	-0.271306	-0.426446
O11	O	1.086218	-0.441698	-0.202743
O12	O	0.958991	-0.441631	-0.329988
O13	O	1.086269	-0.570615	-0.553661
O14	O	0.958984	-0.570644	-0.426394
O15	O	1.182719	-0.441580	-0.553684
O16	O	1.182598	-0.741036	-0.329975
O17	O	1.086201	-0.740985	-0.426387
C18	C	0.930506	-0.506134	-0.378189
C19	C	0.843256	-0.506146	-0.378200
C20	C	0.802293	-0.439051	-0.428490
C21	C	0.720313	-0.439057	-0.428493
C22	C	0.679296	-0.506166	-0.378211
C23	C	0.720264	-0.573265	-0.327915
C24	C	0.802243	-0.573252	-0.327908
C25	C	0.549394	-0.573289	-0.327935
C26	C	0.467410	-0.573303	-0.327943
C27	C	0.467464	-0.439094	-0.428520
C28	C	0.549443	-0.439081	-0.428513
C29	C	0.590405	-0.506182	-0.378218
C30	C	1.134412	-0.779131	-0.378194
C31	C	1.134466	-0.895908	-0.378215
C32	C	1.184659	-0.950678	-0.428466
C33	C	1.184695	-1.060402	-0.428486
C34	C	1.084345	-1.060575	-0.327995
C35	C	1.084305	-0.950853	-0.327981
C36	C	1.242598	-0.950580	-0.486482
C37	C	1.242634	-1.060304	-0.486501
C38	C	1.339198	-0.506194	-0.378225
C39	C	1.426447	-0.506207	-0.378232
C40	C	1.134501	-0.506086	-0.582951
C41	C	1.134521	-0.506053	-0.670201
C42	C	1.134516	-0.232130	-0.378236
C43	C	1.134543	-0.115354	-0.378249
C44	C	1.184744	-0.438859	-0.711204
C45	C	1.184754	-0.438824	-0.793184
C46	C	1.134543	-0.505989	-0.834160
C47	C	1.084315	-0.573187	-0.793151
C48	C	1.084302	-0.573216	-0.711172
C49	C	1.084347	-0.573124	-0.964022
C50	C	1.084360	-0.573096	-1.046006
C51	C	1.184798	-0.438732	-1.046034
C52	C	1.184785	-0.438761	-0.964055
C53	C	1.134557	-0.505960	-0.923051
C54	C	1.134451	-0.506165	-0.174259
C55	C	1.134583	-0.505902	-0.087009
H56	H	0.835594	-0.627888	-0.286957
C57	C	1.029122	-0.646975	-1.091078
N58	N	0.987514	-0.702621	-1.125026
C59	C	1.029096	-0.647050	-0.918920
N60	N	0.987486	-0.702736	-0.884949
C61	C	1.240004	-0.364906	-0.838284
N62	N	1.281622	-0.309228	-0.872253
H63	H	0.686965	-0.384423	-0.469446
H64	H	1.225694	-0.384014	-1.079422
H65	H	1.220823	-1.094306	-0.544234
H66	H	1.226272	-0.920769	-0.547259
C67	C	1.029054	-0.647137	-0.666069
N68	N	0.987438	-0.702814	-0.632099
H69	H	0.835683	-0.384406	-0.469438
C70	C	1.029068	-0.890609	-0.272723
N71	N	0.987455	-0.845233	-0.231105
H72	H	0.582836	-0.384442	-0.469462
H73	H	0.434108	-0.384456	-0.469470
H74	H	1.300347	-0.916512	-0.464750
C75	C	1.029203	-1.121025	-0.272708
N76	N	0.987681	-1.166556	-0.231052
H77	H	0.434016	-0.627950	-0.286999
H78	H	0.582744	-0.627926	-0.286978
H79	H	1.043430	-0.627870	-0.826520
C80	C	1.324790	-1.100482	-0.464574
N81	N	1.386666	-1.130744	-0.448058
H82	H	0.686862	-0.627901	-0.286970
H83	H	1.225634	-0.384168	-0.677847
H84	H	1.225675	-0.384075	-0.930694
