data_functionalizedCrystal
_audit_creation_method	'MofGen! by Chris Wilmer'
_symmetry_space_group_name_H-M	'P1'
_symmetry_Int_Tables_number	1
_symmetry_cell_setting	triclinic
loop_
_symmetry_equiv_pos_as_xyz
  x,y,z
_cell_length_a	12.759401
_cell_length_b	12.759400
_cell_length_c	12.759393
_cell_angle_alpha	89.968436
_cell_angle_beta	89.980387
_cell_angle_gamma	90.014916
loop_
_atom_site_label
_atom_site_type_symbol
_atom_site_fract_x
_atom_site_fract_y
_atom_site_fract_z
Zn1	Zn	1.606256	-0.418198	-0.594013
Zn2	Zn	1.606150	-0.593917	-0.418333
Zn3	Zn	1.430557	-0.418253	-0.418349
Zn4	Zn	1.430546	-0.593836	-0.593971
O5	O	1.518377	-0.506051	-0.506166
O6	O	1.753263	-0.441518	-0.570719
O7	O	1.582818	-0.570671	-0.271314
O8	O	1.453913	-0.271225	-0.441675
O9	O	1.753185	-0.570618	-0.441648
O10	O	1.582998	-0.271184	-0.570735
O11	O	1.453811	-0.441612	-0.271325
O12	O	1.283535	-0.441534	-0.441634
O13	O	1.453894	-0.570480	-0.740998
O14	O	1.283527	-0.570534	-0.570663
O15	O	1.582987	-0.441440	-0.741028
O16	O	1.582807	-0.740927	-0.441607
O17	O	1.453791	-0.740868	-0.570648
C18	C	1.245410	-0.506032	-0.506147
C19	C	1.128633	-0.506049	-0.506163
C20	C	1.518315	-0.779018	-0.506144
C21	C	1.518384	-0.895795	-0.506170
C22	C	1.073734	-0.573164	-0.438864
C23	C	0.964010	-0.573182	-0.438882
C24	C	0.964094	-0.438962	-0.573502
C25	C	1.073816	-0.438950	-0.573488
C26	C	1.073685	-0.650651	-0.361139
C27	C	0.963961	-0.650670	-0.361158
C28	C	1.585637	-0.950653	-0.439053
C29	C	1.585702	-1.060377	-0.439085
C30	C	1.451252	-1.060375	-0.573355
C31	C	1.451193	-0.950653	-0.573327
C32	C	1.663258	-0.950655	-0.361530
C33	C	1.663322	-1.060379	-0.361563
C34	C	1.792411	-0.506071	-0.506187
C35	C	1.909187	-0.506079	-0.506195
C36	C	1.518451	-0.505945	-0.780200
C37	C	1.518482	-0.505900	-0.896976
C38	C	1.518468	-0.232018	-0.506211
C39	C	1.518507	-0.115241	-0.506230
C40	C	1.585710	-0.438702	-0.951856
C41	C	1.585735	-0.438664	-1.061580
C42	C	1.451301	-0.573031	-1.061535
C43	C	1.451272	-0.573063	-0.951813
C44	C	1.663328	-0.361129	-0.951883
C45	C	1.663353	-0.361091	-1.061607
C46	C	1.518364	-0.506081	-0.233199
C47	C	1.518537	-0.505830	-0.116423
H48	H	0.919448	-0.384332	-0.628316
H49	H	1.740626	-1.094323	-0.390776
N50	N	1.634533	-1.099948	-0.253771
H51	H	1.621632	-1.038464	-0.205647
H52	H	1.568934	-1.144004	-0.258487
N53	N	1.378741	-0.645537	-0.892643
H54	H	1.421388	-0.694255	-0.847106
H55	H	1.330068	-0.602772	-0.847193
N56	N	1.113137	-0.758460	-0.389805
H57	H	1.051601	-0.806579	-0.402616
H58	H	1.157174	-0.753779	-0.455431
H59	H	1.107686	-0.621409	-0.283893
N60	N	1.133027	-0.366555	-0.646069
H61	H	1.210854	-0.376725	-0.635846
H62	H	1.113884	-0.382998	-0.721079
H63	H	1.396440	-0.905989	-0.627988
H64	H	1.396579	-0.627710	-1.106197
N65	N	0.918875	-0.753109	-0.399573
H66	H	0.943332	-0.766573	-0.473643
H67	H	0.943282	-0.811940	-0.352561
N68	N	1.634505	-0.253357	-0.912454
H69	H	1.621656	-0.205241	-0.974001
H70	H	1.568871	-0.258110	-0.868440
N71	N	0.924456	-0.621680	-0.253436
H72	H	0.985968	-0.608723	-0.205354
H73	H	0.880460	-0.556071	-0.258317
H74	H	1.396548	-1.105054	-0.628033
N75	N	1.624691	-0.905672	-0.259106
H76	H	1.550612	-0.930163	-0.245677
H77	H	1.671634	-0.930119	-0.200257
N78	N	1.771000	-0.911091	-0.390474
H79	H	1.819122	-0.972577	-0.403418
H80	H	1.766186	-0.867037	-0.456082
N81	N	1.765581	-0.400018	-0.906788
H82	H	1.815024	-0.418744	-0.965701
H83	H	1.798025	-0.343301	-0.862143
H84	H	1.634239	-0.283782	-1.095655
N85	N	1.771124	-0.389964	-1.101077
H86	H	1.823947	-0.337233	-1.074732
H87	H	1.790356	-0.462080	-1.074700
