data_functionalizedCrystal
_audit_creation_method	'MofGen! by Chris Wilmer'
_symmetry_space_group_name_H-M	'P1'
_symmetry_Int_Tables_number	1
_symmetry_cell_setting	triclinic
loop_
_symmetry_equiv_pos_as_xyz
  x,y,z
_cell_length_a	12.759401
_cell_length_b	21.395361
_cell_length_c	12.759393
_cell_angle_alpha	90.038155
_cell_angle_beta	90.020938
_cell_angle_gamma	90.032233
loop_
_atom_site_label
_atom_site_type_symbol
_atom_site_fract_x
_atom_site_fract_y
_atom_site_fract_z
Zn1	Zn	1.606150	-0.249383	0.593964
Zn2	Zn	1.605992	-0.354173	0.418261
Zn3	Zn	1.430448	-0.249416	0.418299
Zn4	Zn	1.430391	-0.354129	0.593898
O5	O	1.518245	-0.301775	0.506106
O6	O	1.753150	-0.263288	0.570668
O7	O	1.582663	-0.340309	0.271245
O8	O	1.453845	-0.161734	0.441645
O9	O	1.753033	-0.340277	0.441580
O10	O	1.582932	-0.161709	0.570706
O11	O	1.453692	-0.263345	0.271273
O12	O	1.283420	-0.263302	0.441581
O13	O	1.453748	-0.340202	0.740928
O14	O	1.283378	-0.340234	0.570593
O15	O	1.582877	-0.263245	0.740977
O16	O	1.582608	-0.441845	0.441516
O17	O	1.453595	-0.441813	0.570556
C18	C	1.245278	-0.301768	0.506085
C19	C	1.128501	-0.301779	0.506101
C20	C	1.073645	-0.341899	0.573171
C21	C	0.963921	-0.341901	0.573192
C22	C	0.963919	-0.261663	0.439063
C23	C	1.073641	-0.261658	0.439048
C24	C	1.518106	-0.464563	0.506047
C25	C	1.518143	-0.534204	0.506057
C26	C	1.585380	-0.566913	0.438935
C27	C	1.585429	-0.632349	0.438958
C28	C	1.518222	-0.665072	0.506093
C29	C	1.450981	-0.632355	0.573229
C30	C	1.450941	-0.566921	0.573211
C31	C	1.423624	-0.768788	0.514329
C32	C	1.423662	-0.834221	0.514340
C33	C	1.518345	-0.866893	0.506155
C34	C	1.612993	-0.834125	0.497937
C35	C	1.612953	-0.768691	0.497919
C36	C	1.518258	-0.736025	0.506121
C37	C	1.585640	-0.970555	0.439054
C38	C	1.585690	-1.035991	0.439085
C39	C	1.451233	-1.035997	0.573350
C40	C	1.451192	-0.970562	0.573325
C41	C	1.518394	-0.937844	0.506171
C42	C	1.792278	-0.301783	0.506127
C43	C	1.909055	-0.301787	0.506136
C44	C	1.518324	-0.301715	0.780139
C45	C	1.518357	-0.301689	0.896916
C46	C	1.518413	-0.138352	0.506187
C47	C	1.518484	-0.068711	0.506222
C48	C	1.518227	-0.301790	0.233138
C49	C	1.518397	-0.301639	0.116362
C50	C	1.585600	-0.261612	0.951805
C51	C	1.585617	-0.261585	1.061529
C52	C	1.451147	-0.341719	1.061465
C53	C	1.451125	-0.341742	0.951743
H54	H	1.118306	-0.228984	0.384431
H55	H	0.919261	-0.374570	0.627809
H56	H	1.640363	-0.943915	0.384377
C57	C	1.376977	-0.530937	0.647043
H58	H	1.386582	-0.487281	0.637419
H59	H	1.306400	-0.541708	0.631613
H60	H	1.392333	-0.541615	0.717654
H61	H	1.396412	-0.374329	1.106119
C62	C	1.659589	-0.217502	1.121902
H63	H	1.699629	-0.193657	1.073531
H64	H	1.619442	-0.190189	1.164712
H65	H	1.705351	-0.241468	1.164699
C66	C	1.659654	-1.071972	0.365246
H67	H	1.699660	-1.043112	0.325246
H68	H	1.705430	-1.097451	0.405478
H69	H	1.619492	-1.097542	0.319442
C70	C	0.903570	-0.217540	0.365299
H71	H	0.830366	-0.223293	0.374904
H72	H	0.921590	-0.175451	0.380799
H73	H	0.921513	-0.226665	0.294676
C74	C	1.377308	-1.071982	0.647202
H75	H	1.337260	-1.043127	0.687180
H76	H	1.331569	-1.097556	0.606984
H77	H	1.417499	-1.097460	0.693027
C78	C	1.659388	-0.668339	0.365122
H79	H	1.649790	-0.711995	0.374757
H80	H	1.644041	-0.657660	0.294515
H81	H	1.729970	-0.657571	0.380559
C82	C	1.659310	-0.530928	0.365081
H83	H	1.699368	-0.559784	0.325116
H84	H	1.619135	-0.505444	0.319262
H85	H	1.705056	-0.505360	0.405314
H86	H	1.346593	-0.860896	0.521021
H87	H	1.690018	-0.742012	0.491231
C88	C	1.717150	-0.870055	0.488941
H89	H	1.703623	-0.913718	0.490143
H90	H	1.750777	-0.859348	0.425010
H91	H	1.761301	-0.859274	0.546139
C92	C	1.377162	-0.385834	0.891361
H93	H	1.337136	-0.409692	0.939727
H94	H	1.331402	-0.361876	0.848560
H95	H	1.417326	-0.413145	0.848555
H96	H	1.396437	-0.943928	0.627978
C97	C	1.319467	-0.732854	0.523341
H98	H	1.263106	-0.761740	0.528224
H99	H	1.320786	-0.707298	0.584236
H100	H	1.310247	-0.707363	0.463108
H101	H	1.118309	-0.374567	0.627773
H102	H	1.396263	-0.659003	0.627892
C103	C	1.659538	-0.217548	0.891498
H104	H	1.699579	-0.193671	0.939907
H105	H	1.705284	-0.241522	0.848687
H106	H	1.619356	-0.190255	0.848707
