data_functionalizedCrystal
_audit_creation_method	'MofGen! by Chris Wilmer'
_symmetry_space_group_name_H-M	'P1'
_symmetry_Int_Tables_number	1
_symmetry_cell_setting	triclinic
loop_
_symmetry_equiv_pos_as_xyz
  x,y,z
_cell_length_a	21.395364
_cell_length_b	21.395361
_cell_length_c	21.395355
_cell_angle_alpha	90.021511
_cell_angle_beta	90.025298
_cell_angle_gamma	90.047409
loop_
_atom_site_label
_atom_site_type_symbol
_atom_site_fract_x
_atom_site_fract_y
_atom_site_fract_z
Zn1	Zn	-0.957859	0.249232	-0.354261
Zn2	Zn	-0.707859	0.499232	-0.104261
Zn3	Zn	-0.457859	0.749232	0.145739
Zn4	Zn	-0.207859	0.999232	0.395739
Zn5	Zn	-0.957762	0.353992	-0.249478
Zn6	Zn	-0.707762	0.603992	0.000522
Zn7	Zn	-0.457762	0.853992	0.250522
Zn8	Zn	-0.207762	1.103992	0.500522
Zn9	Zn	-0.853074	0.249263	-0.249496
Zn10	Zn	-0.603074	0.499263	0.000504
Zn11	Zn	-0.353074	0.749263	0.250504
Zn12	Zn	-0.103074	0.999263	0.500504
Zn13	Zn	-0.853043	0.354006	-0.354217
Zn14	Zn	-0.603043	0.604006	-0.104217
Zn15	Zn	-0.353043	0.854006	0.145783
Zn16	Zn	-0.103043	1.104006	0.395783
O17	O	-0.905435	0.301623	-0.301863
O18	O	-0.655435	0.551623	-0.051863
O19	O	-0.405435	0.801623	0.198137
O20	O	-0.155435	1.051623	0.448137
O21	O	-1.045524	0.263110	-0.340372
O22	O	-0.795524	0.513110	-0.090372
O23	O	-0.545524	0.763110	0.159628
O24	O	-0.295524	1.013110	0.409628
O25	O	-0.943847	0.340106	-0.161802
O26	O	-0.693847	0.590106	0.088198
O27	O	-0.443847	0.840106	0.338198
O28	O	-0.193847	1.090106	0.588198
O29	O	-0.867028	0.161581	-0.263420
O30	O	-0.617028	0.411581	-0.013420
O31	O	-0.367028	0.661581	0.236580
O32	O	-0.117028	0.911581	0.486580
O33	O	-1.045453	0.340076	-0.263388
O34	O	-0.795453	0.590076	-0.013388
O35	O	-0.545453	0.840076	0.236612
O36	O	-0.295453	1.090076	0.486612
O37	O	-0.944013	0.161558	-0.340390
O38	O	-0.694013	0.411558	-0.090390
O39	O	-0.444013	0.661558	0.159610
O40	O	-0.194013	0.911558	0.409610
O41	O	-0.866933	0.263162	-0.161816
O42	O	-0.616933	0.513162	0.088184
O43	O	-0.366933	0.763162	0.338184
O44	O	-0.116933	1.013162	0.588184
O45	O	-0.765392	0.263176	-0.263377
O46	O	-0.515392	0.513176	-0.013377
O47	O	-0.265392	0.763176	0.236623
O48	O	-0.015392	1.013176	0.486623
O49	O	-0.866975	0.340101	-0.441901
O50	O	-0.616975	0.590101	-0.191901
O51	O	-0.366975	0.840101	0.058099
O52	O	-0.116975	1.090101	0.308099
O53	O	-0.765370	0.340131	-0.340315
O54	O	-0.515370	0.590131	-0.090315
O55	O	-0.265370	0.840131	0.159685
O56	O	-0.015370	1.090131	0.409685
O57	O	-0.943983	0.263124	-0.441933
O58	O	-0.693983	0.513124	-0.191933
O59	O	-0.443983	0.763124	0.058067
O60	O	-0.193983	1.013124	0.308067
O61	O	-0.943817	0.441672	-0.263346
O62	O	-0.693817	0.691672	-0.013346
O63	O	-0.443817	0.941672	0.236654
O64	O	-0.193817	1.191672	0.486654
O65	O	-0.866881	0.441682	-0.340297
O66	O	-0.616881	0.691682	-0.090297
O67	O	-0.366881	0.941682	0.159703
O68	O	-0.116881	1.191682	0.409703
C69	C	-0.742647	0.301659	-0.301843
C70	C	-0.492647	0.551659	-0.051843
C71	C	-0.242647	0.801659	0.198157
C72	C	0.007353	1.051659	0.448157
C73	C	-0.673006	0.301689	-0.301850
C74	C	-0.423006	0.551689	-0.051850
C75	C	-0.173006	0.801689	0.198150
C76	C	0.076994	1.051689	0.448150
C77	C	-0.640352	0.261679	-0.341997
C78	C	-0.390352	0.511679	-0.091997
C79	C	-0.140352	0.761679	0.158003
C80	C	0.109648	1.011679	0.408003
C81	C	-0.574917	0.261664	-0.341998
C82	C	-0.324917	0.511664	-0.091998
C83	C	-0.074917	0.761664	0.158002
C84	C	0.175083	1.011664	0.408002
C85	C	-0.542137	0.301671	-0.301859
C86	C	-0.292137	0.551671	-0.051859
C87	C	-0.042137	0.801671	0.198141
C88	C	0.207863	1.051671	0.448141
C89	C	-0.574799	0.341683	-0.261705
C90	C	-0.324799	0.591683	-0.011705
C91	C	-0.074799	0.841683	0.238295
C92	C	0.175201	1.091683	0.488295
C93	C	-0.640233	0.341692	-0.261700
C94	C	-0.390233	0.591692	-0.011700
C95	C	-0.140233	0.841692	0.238300
C96	C	0.109767	1.091692	0.488300
C97	C	-0.438413	0.358099	-0.296818
C98	C	-0.188413	0.608099	-0.046818
C99	C	0.061587	0.858099	0.203182
C100	C	0.311587	1.108099	0.453182
C101	C	-0.372980	0.358090	-0.296827
C102	C	-0.122980	0.608090	-0.046827
C103	C	0.127020	0.858090	0.203173
C104	C	0.377020	1.108090	0.453173
C105	C	-0.340317	0.301642	-0.301871
C106	C	-0.090317	0.551642	-0.051871
C107	C	0.159683	0.801642	0.198129
C108	C	0.409683	1.051642	0.448129
C109	C	-0.373094	0.245200	-0.306919
C110	C	-0.123094	0.495200	-0.056919
C111	C	0.126906	0.745200	0.193081
C112	C	0.376906	0.995200	0.443081
C113	C	-0.438528	0.245210	-0.306914
C114	C	-0.188528	0.495210	-0.056914
C115	C	0.061472	0.745210	0.193086
C116	C	0.311472	0.995210	0.443086
C117	C	-0.471185	0.301665	-0.301860
C118	C	-0.221185	0.551665	-0.051860
C119	C	0.028815	0.801665	0.198140
C120	C	0.278815	1.051665	0.448140
C121	C	-0.236711	0.261613	-0.342021
C122	C	0.013289	0.511613	-0.092021
C123	C	0.263289	0.761613	0.157979
C124	C	0.513289	1.011613	0.407979
C125	C	-0.171274	0.261597	-0.342019
C126	C	0.078726	0.511597	-0.092019
C127	C	0.328726	0.761597	0.157981
C128	C	0.578726	1.011597	0.407981
C129	C	-0.171157	0.341622	-0.261728
C130	C	0.078843	0.591622	-0.011728
C131	C	0.328843	0.841622	0.238272
C132	C	0.578843	1.091622	0.488272
C133	C	-0.236593	0.341632	-0.261728
C134	C	0.013407	0.591632	-0.011728
C135	C	0.263407	0.841632	0.238272
C136	C	0.513407	1.091632	0.488272
C137	C	-0.269365	0.301629	-0.301878
C138	C	-0.019365	0.551629	-0.051878
C139	C	0.230635	0.801629	0.198122
C140	C	0.480635	1.051629	0.448122
C141	C	-0.905352	0.464411	-0.301828
C142	C	-0.655352	0.714411	-0.051828
C143	C	-0.405352	0.964411	0.198172
C144	C	-0.155352	1.214411	0.448172
C145	C	-0.905374	0.534052	-0.301834
C146	C	-0.655374	0.784052	-0.051834
C147	C	-0.405374	1.034052	0.198166
C148	C	-0.155374	1.284052	0.448166
C149	C	-0.905487	0.301610	-0.465286
C150	C	-0.655487	0.551610	-0.215286
C151	C	-0.405487	0.801610	0.034714
C152	C	-0.155487	1.051610	0.284714
C153	C	-0.905509	0.301605	-0.534928
C154	C	-0.655509	0.551605	-0.284928
C155	C	-0.405509	0.801605	-0.034928
C156	C	-0.155509	1.051605	0.215072
C157	C	-0.068858	0.301596	-0.301880
C158	C	0.181142	0.551596	-0.051880
C159	C	0.431142	0.801596	0.198120
C160	C	0.681142	1.051596	0.448120
C161	C	-0.138499	0.301604	-0.301879
C162	C	0.111501	0.551604	-0.051879
C163	C	0.361501	0.801604	0.198121
C164	C	0.611501	1.051604	0.448121
C165	C	-0.905535	0.138200	-0.301912
C166	C	-0.655535	0.388200	-0.051912
C167	C	-0.405535	0.638200	0.198088
C168	C	-0.155535	0.888200	0.448088
C169	C	-0.905577	0.068558	-0.301932
C170	C	-0.655577	0.318558	-0.051932
C171	C	-0.405577	0.568558	0.198068
C172	C	-0.155577	0.818558	0.448068
C173	C	-0.945470	0.566739	-0.261807
C174	C	-0.695470	0.816739	-0.011807
C175	C	-0.445470	1.066739	0.238193
C176	C	-0.195470	1.316739	0.488193
C177	C	-0.945499	0.632174	-0.261821
C178	C	-0.695499	0.882174	-0.011821
C179	C	-0.445499	1.132174	0.238179
C180	C	-0.195499	1.382174	0.488179
C181	C	-0.905421	0.664920	-0.301856
C182	C	-0.655421	0.914920	-0.051856
C183	C	-0.405421	1.164920	0.198144
C184	C	-0.155421	1.414920	0.448144
C185	C	-0.865322	0.632226	-0.341891
C186	C	-0.615322	0.882226	-0.091891
C187	C	-0.365322	1.132226	0.158109
C188	C	-0.115322	1.382226	0.408109
C189	C	-0.865298	0.566791	-0.341880
C190	C	-0.615298	0.816791	-0.091880
C191	C	-0.365298	1.066791	0.158120
C192	C	-0.115298	1.316791	0.408120
C193	C	-0.849006	0.768652	-0.306765
C194	C	-0.599006	1.018652	-0.056765
C195	C	-0.349006	1.268652	0.193235
C196	C	-0.099006	1.518652	0.443235
C197	C	-0.849029	0.834085	-0.306771
C198	C	-0.599029	1.084085	-0.056771
C199	C	-0.349029	1.334085	0.193229
C200	C	-0.099029	1.584085	0.443229
C201	C	-0.905494	0.866741	-0.301892
C202	C	-0.655494	1.116741	-0.051892
C203	C	-0.405494	1.366741	0.198108
C204	C	-0.155494	1.616741	0.448108
C205	C	-0.961938	0.833956	-0.296994
C206	C	-0.711938	1.083956	-0.046994
C207	C	-0.461938	1.333956	0.203006
C208	C	-0.211938	1.583956	0.453006
C209	C	-0.961915	0.768522	-0.296983
C210	C	-0.711915	1.018522	-0.046983
C211	C	-0.461915	1.268522	0.203017
C212	C	-0.211915	1.518522	0.453017
C213	C	-0.905442	0.735873	-0.301872
C214	C	-0.655442	0.985873	-0.051872
C215	C	-0.405442	1.235873	0.198128
C216	C	-0.155442	1.485873	0.448128
C217	C	-0.945625	0.970380	-0.261878
C218	C	-0.695625	1.220380	-0.011878
C219	C	-0.445625	1.470380	0.238122
C220	C	-0.195625	1.720380	0.488122
C221	C	-0.945655	1.035817	-0.261896
C222	C	-0.695655	1.285817	-0.011896
C223	C	-0.445655	1.535817	0.238104
C224	C	-0.195655	1.785817	0.488104
C225	C	-0.865473	1.035867	-0.341963
C226	C	-0.615473	1.285867	-0.091963
C227	C	-0.365473	1.535867	0.158037
C228	C	-0.115473	1.785867	0.408037
C229	C	-0.865448	0.970432	-0.341948
C230	C	-0.615448	1.220432	-0.091948
C231	C	-0.365448	1.470432	0.158052
C232	C	-0.115448	1.720432	0.408052
C233	C	-0.905523	0.937692	-0.301902
C234	C	-0.655523	1.187692	-0.051902
C235	C	-0.405523	1.437692	0.198098
C236	C	-0.155523	1.687692	0.448098
C237	C	-0.945605	0.261521	-0.567659
C238	C	-0.695605	0.511521	-0.317659
C239	C	-0.445605	0.761521	-0.067659
C240	C	-0.195605	1.011521	0.182341
C241	C	-0.945604	0.261494	-0.633094
C242	C	-0.695604	0.511494	-0.383094
C243	C	-0.445604	0.761494	-0.133094
C244	C	-0.195604	1.011494	0.116906
C245	C	-0.905514	0.301562	-0.665796
C246	C	-0.655514	0.551562	-0.415796
C247	C	-0.405514	0.801562	-0.165796
C248	C	-0.155514	1.051562	0.084204
C249	C	-0.865410	0.341649	-0.633057
C250	C	-0.615410	0.591649	-0.383057
C251	C	-0.365410	0.841649	-0.133057
C252	C	-0.115410	1.091649	0.116943
C253	C	-0.865407	0.341670	-0.567623
C254	C	-0.615407	0.591670	-0.317623
C255	C	-0.365407	0.841670	-0.067623
C256	C	-0.115407	1.091670	0.182377
C257	C	-0.900538	0.357979	-0.769459
C258	C	-0.650538	0.607979	-0.519459
C259	C	-0.400538	0.857979	-0.269459
C260	C	-0.150538	1.107979	-0.019459
C261	C	-0.900545	0.357959	-0.834892
C262	C	-0.650545	0.607959	-0.584892
C263	C	-0.400545	0.857959	-0.334892
C264	C	-0.150545	1.107959	-0.084892
C265	C	-0.905518	0.301496	-0.867617
C266	C	-0.655518	0.551496	-0.617617
C267	C	-0.405518	0.801496	-0.367617
C268	C	-0.155518	1.051496	-0.117617
C269	C	-0.910497	0.245052	-0.834901
C270	C	-0.660497	0.495052	-0.584901
C271	C	-0.410497	0.745052	-0.334901
C272	C	-0.160497	0.995052	-0.084901
C273	C	-0.910494	0.245073	-0.769467
C274	C	-0.660494	0.495073	-0.519467
C275	C	-0.410494	0.745073	-0.269467
C276	C	-0.160494	0.995073	-0.019467
C277	C	-0.905512	0.301543	-0.736748
C278	C	-0.655512	0.551543	-0.486748
C279	C	-0.405512	0.801543	-0.236748
C280	C	-0.155512	1.051543	0.013252
C281	C	-0.945615	0.261380	-0.971300
C282	C	-0.695615	0.511380	-0.721300
C283	C	-0.445615	0.761380	-0.471300
C284	C	-0.195615	1.011380	-0.221300
C285	C	-0.945610	0.261352	-1.036737
C286	C	-0.695610	0.511352	-0.786737
C287	C	-0.445610	0.761352	-0.536737
C288	C	-0.195610	1.011352	-0.286737
C289	C	-0.865419	0.341512	-1.036699
C290	C	-0.615419	0.591512	-0.786699
C291	C	-0.365419	0.841512	-0.536699
C292	C	-0.115419	1.091512	-0.286699
C293	C	-0.865421	0.341534	-0.971263
C294	C	-0.615421	0.591534	-0.721263
C295	C	-0.365421	0.841534	-0.471263
C296	C	-0.115421	1.091534	-0.221263
C297	C	-0.905522	0.301469	-0.938568
C298	C	-0.655522	0.551469	-0.688568
C299	C	-0.405522	0.801469	-0.438568
C300	C	-0.155522	1.051469	-0.188568
C301	C	-0.905419	0.301591	-0.139075
C302	C	-0.655419	0.551591	0.110925
C303	C	-0.405419	0.801591	0.360925
C304	C	-0.155419	1.051591	0.610925
C305	C	-0.905518	0.301419	-0.069435
C306	C	-0.655518	0.551419	0.180565
C307	C	-0.405518	0.801419	0.430565
C308	C	-0.155518	1.051419	0.680565
H309	H	-0.263179	0.374215	-0.229039
H310	H	-0.013179	0.624215	0.020961
H311	H	0.236821	0.874215	0.270961
H312	H	0.486821	1.124215	0.520961
H313	H	-0.144469	0.374196	-0.229047
H314	H	0.105531	0.624196	0.020953
H315	H	0.355531	0.874196	0.270953
H316	H	0.605531	1.124196	0.520953
Cl317	Cl	-0.681285	0.391993	-0.211224
Cl318	Cl	-0.431285	0.641993	0.038776
Cl319	Cl	-0.181285	0.891993	0.288776
Cl320	Cl	0.068715	1.141993	0.538776
H321	H	-0.667032	0.229104	-0.374689
H322	H	-0.417032	0.479104	-0.124689
H323	H	-0.167032	0.729104	0.125311
H324	H	0.082968	0.979104	0.375311
Cl325	Cl	-0.815035	0.929337	-0.392268
Cl326	Cl	-0.565035	1.179337	-0.142268
Cl327	Cl	-0.315035	1.429337	0.107732
Cl328	Cl	-0.065035	1.679337	0.357732
Cl329	Cl	-0.814941	0.673391	-0.392223
Cl330	Cl	-0.564941	0.923391	-0.142223
Cl331	Cl	-0.314941	1.173391	0.107777
Cl332	Cl	-0.064941	1.423391	0.357777
Cl333	Cl	-0.814887	0.525697	-0.392204
Cl334	Cl	-0.564887	0.775697	-0.142204
Cl335	Cl	-0.314887	1.025697	0.107796
Cl336	Cl	-0.064887	1.275697	0.357796
Cl337	Cl	-0.996015	0.211150	-0.526559
Cl338	Cl	-0.746015	0.461150	-0.276559
Cl339	Cl	-0.496015	0.711150	-0.026559
Cl340	Cl	-0.246015	0.961150	0.223441
H341	H	-0.144689	0.229013	-0.374710
H342	H	0.105311	0.479013	-0.124710
H343	H	0.355311	0.729013	0.125290
H344	H	0.605311	0.979013	0.375290
Cl345	Cl	-1.032870	0.727309	-0.290832
Cl346	Cl	-0.782870	0.977309	-0.040832
Cl347	Cl	-0.532870	1.227309	0.209168
Cl348	Cl	-0.282870	1.477309	0.459168
H349	H	-0.978254	0.228850	-0.659749
H350	H	-0.728254	0.478850	-0.409749
H351	H	-0.478254	0.728850	-0.159749
H352	H	-0.228254	0.978850	0.090251
H353	H	-1.007918	0.860543	-0.293022
H354	H	-0.757918	1.110543	-0.043022
H355	H	-0.507918	1.360543	0.206978
H356	H	-0.257918	1.610543	0.456978
Cl357	Cl	-0.894304	0.428970	-0.728325
Cl358	Cl	-0.644304	0.678970	-0.478325
Cl359	Cl	-0.394304	0.928970	-0.228325
Cl360	Cl	-0.144304	1.178970	0.021675
Cl361	Cl	-0.331781	0.429046	-0.290491
Cl362	Cl	-0.081781	0.679046	-0.040491
Cl363	Cl	0.168219	0.929046	0.209509
Cl364	Cl	0.418219	1.179046	0.459509
H365	H	-0.803022	0.742070	-0.310740
H366	H	-0.553022	0.992070	-0.060740
H367	H	-0.303022	1.242070	0.189260
H368	H	-0.053022	1.492070	0.439260
Cl369	Cl	-0.996004	0.929219	-0.211535
Cl370	Cl	-0.746004	1.179219	0.038465
Cl371	Cl	-0.496004	1.429219	0.288465
Cl372	Cl	-0.246004	1.679219	0.538465
H373	H	-0.914547	0.199115	-0.742833
H374	H	-0.664547	0.449115	-0.492833
H375	H	-0.414547	0.699115	-0.242833
H376	H	-0.164547	0.949115	0.007167
H377	H	-0.914547	0.199075	-0.861545
H378	H	-0.664547	0.449075	-0.611545
H379	H	-0.414547	0.699075	-0.361545
H380	H	-0.164547	0.949075	-0.111545
H381	H	-0.978103	0.540084	-0.229201
H382	H	-0.728103	0.790084	0.020799
H383	H	-0.478103	1.040084	0.270799
H384	H	-0.228103	1.290084	0.520799
Cl385	Cl	-0.996071	1.076910	-0.211576
Cl386	Cl	-0.746071	1.326910	0.038424
Cl387	Cl	-0.496071	1.576910	0.288424
Cl388	Cl	-0.246071	1.826910	0.538424
H389	H	-0.548106	0.374256	-0.229023
H390	H	-0.298106	0.624256	0.020977
H391	H	-0.048106	0.874256	0.270977
H392	H	0.201894	1.124256	0.520977
Cl393	Cl	-0.479732	0.174258	-0.313256
Cl394	Cl	-0.229732	0.424258	-0.063256
Cl395	Cl	0.020268	0.674258	0.186744
Cl396	Cl	0.270268	0.924258	0.436744
H397	H	-0.832843	1.062528	-0.374563
H398	H	-0.582843	1.312528	-0.124563
H399	H	-0.332843	1.562528	0.125437
H400	H	-0.082843	1.812528	0.375437
H401	H	-0.978265	0.228753	-0.944679
H402	H	-0.728265	0.478753	-0.694679
H403	H	-0.478265	0.728753	-0.444679
H404	H	-0.228265	0.978753	-0.194679
H405	H	-0.832774	0.374179	-0.944614
H406	H	-0.582774	0.624179	-0.694614
H407	H	-0.332774	0.874179	-0.444614
H408	H	-0.082774	1.124179	-0.194614
Cl409	Cl	-0.996031	0.210966	-1.077885
Cl410	Cl	-0.746031	0.460966	-0.827885
Cl411	Cl	-0.496031	0.710966	-0.577885
Cl412	Cl	-0.246031	0.960966	-0.327885
H413	H	-0.832770	0.374130	-1.063324
H414	H	-0.582770	0.624130	-0.813324
H415	H	-0.332770	0.874130	-0.563324
H416	H	-0.082770	1.124130	-0.313324
Cl417	Cl	-0.894291	0.428916	-0.876013
Cl418	Cl	-0.644291	0.678916	-0.626013
Cl419	Cl	-0.394291	0.928916	-0.376013
Cl420	Cl	-0.144291	1.178916	-0.126013
H421	H	-0.832766	0.374270	-0.659687
H422	H	-0.582766	0.624270	-0.409687
H423	H	-0.332766	0.874270	-0.159687
H424	H	-0.082766	1.124270	0.090313
H425	H	-0.832753	0.374310	-0.540974
H426	H	-0.582753	0.624310	-0.290974
H427	H	-0.332753	0.874310	-0.040974
H428	H	-0.082753	1.124310	0.209026
H429	H	-0.548325	0.229080	-0.374689
H430	H	-0.298325	0.479080	-0.124689
H431	H	-0.048325	0.729080	0.125311
H432	H	0.201675	0.979080	0.375311
H433	H	-0.346501	0.199235	-0.311026
H434	H	-0.096501	0.449235	-0.061026
H435	H	0.153499	0.699235	0.188974
H436	H	0.403499	0.949235	0.438974
H437	H	-0.263396	0.229036	-0.374710
H438	H	-0.013396	0.479036	-0.124710
H439	H	0.236604	0.729036	0.125290
H440	H	0.486604	0.979036	0.375290
Cl441	Cl	-0.479469	0.429068	-0.290467
Cl442	Cl	-0.229469	0.679068	-0.040467
Cl443	Cl	0.020531	0.929068	0.209533
Cl444	Cl	0.270531	1.179068	0.459533
H445	H	-0.803068	0.860773	-0.310753
H446	H	-0.553068	1.110773	-0.060753
H447	H	-0.303068	1.360773	0.189247
H448	H	-0.053068	1.610773	0.439247
H449	H	-0.978152	0.658793	-0.229226
H450	H	-0.728152	0.908793	0.020774
H451	H	-0.478152	1.158793	0.270774
H452	H	-0.228152	1.408793	0.520774
