data_functionalizedCrystal
_audit_creation_method	'MofGen! by Chris Wilmer'
_symmetry_space_group_name_H-M	'P1'
_symmetry_Int_Tables_number	1
_symmetry_cell_setting	triclinic
loop_
_symmetry_equiv_pos_as_xyz
  x,y,z
_cell_length_a	12.759401
_cell_length_b	12.759399
_cell_length_c	12.759393
_cell_angle_alpha	90.030906
_cell_angle_beta	90.020938
_cell_angle_gamma	90.016641
loop_
_atom_site_label
_atom_site_type_symbol
_atom_site_fract_x
_atom_site_fract_y
_atom_site_fract_z
Zn1	Zn	1.606263	-0.418173	0.594017
Zn2	Zn	2.106263	0.081827	1.094017
Zn3	Zn	1.606153	-0.593888	0.418336
Zn4	Zn	2.106153	-0.093888	0.918336
Zn5	Zn	1.430562	-0.418229	0.418352
Zn6	Zn	1.930562	0.081771	0.918352
Zn7	Zn	1.430553	-0.593815	0.593973
Zn8	Zn	1.930553	-0.093815	1.093973
O9	O	1.518383	-0.506026	0.506170
O10	O	2.018383	-0.006026	1.006170
O11	O	1.753270	-0.441489	0.570724
O12	O	2.253270	0.058511	1.070724
O13	O	1.582818	-0.570641	0.271317
O14	O	2.082818	-0.070641	0.771317
O15	O	1.453919	-0.271200	0.441680
O16	O	1.953919	0.228800	0.941680
O17	O	1.753189	-0.570587	0.441652
O18	O	2.253189	-0.070587	0.941652
O19	O	1.583006	-0.271159	0.570740
O20	O	2.083006	0.228841	1.070740
O21	O	1.453812	-0.441584	0.271329
O22	O	1.953812	0.058416	0.771329
O23	O	1.283540	-0.441513	0.441637
O24	O	1.783540	0.058487	0.941637
O25	O	1.453903	-0.570461	0.741000
O26	O	1.953903	-0.070461	1.241000
O27	O	1.283533	-0.570516	0.570665
O28	O	1.783533	-0.070516	1.070665
O29	O	1.582997	-0.441418	0.741032
O30	O	2.082997	0.058582	1.241032
O31	O	1.582809	-0.740900	0.441609
O32	O	2.082809	-0.240900	0.941609
O33	O	1.453796	-0.740846	0.570649
O34	O	1.953796	-0.240846	1.070649
C35	C	1.245415	-0.506013	0.506149
C36	C	1.745415	-0.006013	1.006149
C37	C	1.128639	-0.506033	0.506165
C38	C	1.628639	-0.006033	1.006165
C39	C	1.073801	-0.573307	0.573244
C40	C	1.573801	-0.073307	1.073244
C41	C	0.964077	-0.573311	0.573265
C42	C	1.464077	-0.073311	1.073265
C43	C	0.964038	-0.438764	0.439118
C44	C	1.464038	0.061236	0.939118
C45	C	1.073760	-0.438756	0.439104
C46	C	1.573760	0.061244	0.939104
C47	C	1.518318	-0.778994	0.506146
C48	C	2.018318	-0.278994	1.006146
C49	C	1.518387	-0.895770	0.506171
C50	C	2.018387	-0.395770	1.006171
C51	C	1.585641	-0.950625	0.439056
C52	C	2.085641	-0.450625	0.939056
C53	C	1.585708	-1.060349	0.439091
C54	C	2.085708	-0.560349	0.939091
C55	C	1.451259	-1.060353	0.573359
C56	C	1.951259	-0.560353	1.073359
C57	C	1.451198	-0.950631	0.573328
C58	C	1.951198	-0.450631	1.073328
C59	C	1.792416	-0.506040	0.506191
C60	C	2.292416	-0.006040	1.006191
C61	C	1.909193	-0.506046	0.506200
C62	C	2.409193	-0.006046	1.006200
C63	C	1.518461	-0.505925	0.780203
C64	C	2.018461	-0.005925	1.280203
C65	C	1.518495	-0.505882	0.896980
C66	C	2.018495	-0.005882	1.396980
C67	C	1.518476	-0.231993	0.506217
C68	C	2.018476	0.268007	1.006217
C69	C	1.518516	-0.115216	0.506237
C70	C	2.018516	0.384784	1.006237
C71	C	1.518365	-0.506051	0.233202
C72	C	2.018365	-0.006051	0.733202
C73	C	1.518535	-0.505798	0.116426
C74	C	2.018535	-0.005798	0.616426
C75	C	1.585719	-0.438679	0.951860
C76	C	2.085719	0.061321	1.451860
C77	C	1.585737	-0.438633	1.061584
C78	C	2.085737	0.061367	1.561584
C79	C	1.451303	-0.573004	1.061538
C80	C	1.951303	-0.073004	1.561538
C81	C	1.451281	-0.573044	0.951816
C82	C	1.951281	-0.073044	1.451816
H83	H	0.919432	-0.628090	0.627889
H84	H	1.419432	-0.128090	1.127889
H85	H	1.396532	-0.627768	0.907131
H86	H	1.896532	-0.127768	1.407131
H87	H	1.640352	-0.905960	0.384374
H88	H	2.140352	-0.405960	0.884374
O89	O	1.651108	-0.373582	0.898543
O90	O	2.151108	0.126418	1.398543
C91	C	1.718918	-0.433415	0.835052
C92	C	2.218918	0.066585	1.335052
H93	H	1.725394	-0.516151	0.868102
H94	H	2.225394	-0.016151	1.368102
H95	H	1.799781	-0.395414	0.833826
H96	H	2.299781	0.104586	1.333826
H97	H	1.686414	-0.437063	0.751891
H98	H	2.186414	0.062937	1.251891
O99	O	1.651140	-0.373321	1.114733
O100	O	2.151140	0.126679	1.614733
C101	C	1.710435	-0.314035	1.042800
C102	C	2.210435	0.185965	1.542800
H103	H	1.714041	-0.357100	0.964581
H104	H	2.214041	0.142900	1.464581
H105	H	1.793223	-0.302824	1.074518
H106	H	2.293223	0.197176	1.574518
H107	H	1.671991	-0.234243	1.031134
H108	H	2.171991	0.265757	1.531134
H109	H	0.919343	-0.383991	0.384518
H110	H	1.419343	0.116009	0.884518
H111	H	1.640474	-1.105007	0.384441
H112	H	2.140474	-0.605007	0.884441
O113	O	1.126875	-0.373369	0.373839
O114	O	1.626875	0.126631	0.873839
C115	C	1.054912	-0.313979	0.314664
C116	C	1.554912	0.186021	0.814664
H117	H	0.976686	-0.357011	0.310956
H118	H	1.476686	0.142989	0.810956
H119	H	1.086581	-0.302669	0.231904
H120	H	1.586581	0.197331	0.731904
H121	H	1.043280	-0.234234	0.353279
H122	H	1.543280	0.265766	0.853279
O123	O	1.386022	-1.113810	0.638486
O124	O	1.886022	-0.613810	1.138486
C125	C	1.400511	-1.222417	0.624139
C126	C	1.900511	-0.722417	1.124139
H127	H	1.434971	-1.237439	0.543094
H128	H	1.934971	-0.737439	1.043094
H129	H	1.321833	-1.264176	0.631205
H130	H	1.821833	-0.764176	1.131205
H131	H	1.456443	-1.253459	0.686515
H132	H	1.956443	-0.753459	1.186515
O133	O	1.385764	-0.897501	0.638561
O134	O	1.885764	-0.397501	1.138561
C135	C	1.326487	-0.969448	0.697855
C136	C	1.826487	-0.469448	1.197855
H137	H	1.322908	-1.047701	0.654842
H138	H	1.822908	-0.547701	1.154842
H139	H	1.243688	-0.937801	0.708983
H140	H	1.743688	-0.437801	1.208983
H141	H	1.364929	-0.981020	0.777683
H142	H	1.864929	-0.481020	1.277683
H143	H	1.396583	-0.627687	1.106199
H144	H	1.896583	-0.127687	1.606199
H145	H	1.118479	-0.628086	0.627852
H146	H	1.618479	-0.128086	1.127852
