data_functionalizedCrystal
_audit_creation_method	'MofGen! by Chris Wilmer'
_symmetry_space_group_name_H-M	'P1'
_symmetry_Int_Tables_number	1
_symmetry_cell_setting	triclinic
loop_
_symmetry_equiv_pos_as_xyz
  x,y,z
_cell_length_a	21.395363
_cell_length_b	17.077404
_cell_length_c	17.077396
_cell_angle_alpha	90.019777
_cell_angle_beta	89.983349
_cell_angle_gamma	90.002924
loop_
_atom_site_label
_atom_site_type_symbol
_atom_site_fract_x
_atom_site_fract_y
_atom_site_fract_z
Zn1	Zn	0.249516	1.200170	0.443913
Zn2	Zn	0.354297	1.200126	0.312674
Zn3	Zn	0.249529	1.068902	0.312660
Zn4	Zn	0.354251	1.068919	0.443897
O5	O	0.301898	1.134529	0.378286
O6	O	0.263429	1.310011	0.426516
O7	O	0.340424	1.182693	0.202825
O8	O	0.161849	1.086327	0.330072
O9	O	0.340411	1.309979	0.330096
O10	O	0.161839	1.182769	0.426503
O11	O	0.263451	1.086284	0.202815
O12	O	0.263407	0.959057	0.330057
O13	O	0.340333	1.086355	0.553746
O14	O	0.340345	0.959070	0.426476
O15	O	0.263384	1.182785	0.553758
O16	O	0.441969	1.182709	0.330080
O17	O	0.441935	1.086312	0.426489
C18	C	0.301873	0.930581	0.378264
C19	C	0.301877	0.843332	0.378272
C20	C	0.342050	0.467544	0.428435
C21	C	0.342042	0.549525	0.428423
C22	C	0.301915	0.590483	0.378299
C23	C	0.261798	0.549456	0.328177
C24	C	0.261810	0.467477	0.328186
C25	C	0.261775	0.720326	0.328164
C26	C	0.261762	0.802311	0.328156
C27	C	0.342007	0.802374	0.428402
C28	C	0.342019	0.720395	0.428410
C29	C	0.301901	0.679374	0.378290
C30	C	0.138475	1.134551	0.378288
C31	C	0.068833	1.134560	0.378289
C32	C	0.036107	1.084371	0.428479
C33	C	-0.029328	1.084379	0.428490
C34	C	-0.062035	1.134567	0.378296
C35	C	-0.029301	1.184765	0.328102
C36	C	0.036133	1.184762	0.328098
C37	C	-0.165688	1.140751	0.307581
C38	C	-0.231121	1.140749	0.307583
C39	C	-0.263856	1.134582	0.378309
C40	C	-0.231149	1.128400	0.449034
C41	C	-0.165715	1.128397	0.449030
C42	C	-0.132987	1.134576	0.378295
C43	C	-0.367534	1.084398	0.428516
C44	C	-0.432971	1.084411	0.428528
C45	C	-0.432942	1.184794	0.328133
C46	C	-0.367507	1.184785	0.328127
C47	C	-0.334807	1.134583	0.378318
C48	C	0.464686	1.134529	0.378302
C49	C	0.534327	1.134601	0.378334
C50	C	0.301852	1.134577	0.583031
C51	C	0.301832	1.134597	0.670280
C52	C	0.301924	1.339273	0.378309
C53	C	0.301935	1.426523	0.378319
C54	C	0.301899	1.134527	0.174338
C55	C	0.301742	1.134659	0.087089
C56	C	0.261762	1.184810	0.711278
C57	C	0.261741	1.184819	0.793258
C58	C	0.301794	1.134619	0.834240
C59	C	0.341866	1.084401	0.793237
C60	C	0.341884	1.084388	0.711258
C61	C	0.341829	1.084432	0.964107
C62	C	0.341812	1.084446	1.046091
C63	C	0.261686	1.184864	1.046108
C64	C	0.261703	1.184851	0.964129
C65	C	0.301776	1.134633	0.923131
H66	H	0.062728	1.043491	0.469346
Br67	Br	0.080551	1.252882	0.259978
H68	H	-0.257748	1.145778	0.249996
H69	H	0.374476	1.043524	0.826610
Br70	Br	0.207309	0.857897	0.260123
Br71	Br	0.207371	0.411805	0.260162
Br72	Br	0.207350	1.252987	0.908511
Br73	Br	-0.121269	1.149129	0.211588
Br74	Br	0.396263	1.016234	0.655617
H75	H	-0.055979	1.043508	0.469363
Br76	Br	-0.323089	1.252900	0.260006
H77	H	-0.055934	1.225631	0.287235
Br78	Br	0.207406	1.252949	0.655668
Br79	Br	0.396472	0.664808	0.496444
Br80	Br	0.207303	1.253020	1.101746
H81	H	0.374671	0.835777	0.469214
Br82	Br	-0.477323	1.252916	0.260019
H83	H	-0.139088	1.123374	0.506618
H84	H	0.374426	1.043567	1.079456
Br85	Br	0.207334	0.664655	0.260137
Br86	Br	0.396212	1.016276	0.908467
Br87	Br	0.396506	0.411966	0.496471
H88	H	-0.257801	1.123376	0.506625
Br89	Br	0.207386	1.253005	0.848895
H90	H	0.229128	0.582811	0.287361
Br91	Br	-0.323152	1.016267	0.496627
Br92	Br	-0.477387	1.016300	0.496659
Br93	Br	0.396489	0.605193	0.496437
