data_functionalizedCrystal
_audit_creation_method	'MofGen! by Chris Wilmer'
_symmetry_space_group_name_H-M	'P1'
_symmetry_Int_Tables_number	1
_symmetry_cell_setting	triclinic
loop_
_symmetry_equiv_pos_as_xyz
  x,y,z
_cell_length_a	12.759401
_cell_length_b	17.077402
_cell_length_c	12.759393
_cell_angle_alpha	89.965312
_cell_angle_beta	89.979062
_cell_angle_gamma	90.024408
loop_
_atom_site_label
_atom_site_type_symbol
_atom_site_fract_x
_atom_site_fract_y
_atom_site_fract_z
Zn1	Zn	1.606207	-0.312438	-0.593990
Zn2	Zn	1.606073	-0.443724	-0.418297
Zn3	Zn	1.430505	-0.312480	-0.418325
Zn4	Zn	1.430472	-0.443669	-0.593934
O5	O	1.518314	-0.378078	-0.506136
O6	O	1.753210	-0.329859	-0.570695
O7	O	1.582741	-0.426355	-0.271279
O8	O	1.453882	-0.202628	-0.441662
O9	O	1.753111	-0.426314	-0.441614
O10	O	1.582969	-0.202597	-0.570722
O11	O	1.453753	-0.329930	-0.271300
O12	O	1.283480	-0.329877	-0.441608
O13	O	1.453826	-0.426221	-0.740962
O14	O	1.283456	-0.426261	-0.570627
O15	O	1.582937	-0.329806	-0.741003
O16	O	1.582709	-0.553564	-0.441560
O17	O	1.453696	-0.553524	-0.570600
C18	C	1.245347	-0.378068	-0.506115
C19	C	1.128570	-0.378083	-0.506131
C20	C	1.073723	-0.428347	-0.573206
C21	C	0.963999	-0.428350	-0.573227
C22	C	0.963979	-0.327823	-0.439089
C23	C	1.073701	-0.327817	-0.439075
C24	C	1.518213	-0.582026	-0.506094
C25	C	1.518266	-0.669276	-0.506111
C26	C	1.585511	-0.710261	-0.438993
C27	C	1.585563	-0.792241	-0.439019
C28	C	1.518362	-0.833235	-0.506161
C29	C	1.451114	-0.792244	-0.573287
C30	C	1.451068	-0.710265	-0.573265
C31	C	1.451211	-0.963114	-0.573327
C32	C	1.451255	-1.045099	-0.573348
C33	C	1.585705	-1.045090	-0.439082
C34	C	1.585660	-0.963111	-0.439059
C35	C	1.518410	-0.922126	-0.506184
C36	C	1.792347	-0.378088	-0.506158
C37	C	1.909124	-0.378093	-0.506167
C38	C	1.518393	-0.378003	-0.780170
C39	C	1.518426	-0.377971	-0.896946
C40	C	1.518445	-0.173334	-0.506201
C41	C	1.518500	-0.086084	-0.506229
C42	C	1.585660	-0.327759	-0.951831
C43	C	1.585677	-0.327725	-1.061555
C44	C	1.451226	-0.428121	-1.061500
C45	C	1.451203	-0.428150	-0.951778
C46	C	1.518296	-0.378096	-0.233169
C47	C	1.518466	-0.377907	-0.116393
H48	H	1.118359	-0.286881	-0.384454
H49	H	1.396311	-0.676896	-0.627921
N50	N	1.658144	-0.918894	-0.366651
H51	H	1.615457	-0.884936	-0.317916
H52	H	1.700742	-0.957346	-0.324205
N53	N	1.378780	-1.089317	-0.645766
H54	H	1.336177	-1.050915	-0.688293
H55	H	1.421550	-1.123275	-0.694423
H56	H	1.396497	-0.468977	-1.106157
N57	N	1.657989	-0.666049	-0.366572
H58	H	1.700598	-0.704456	-0.324059
H59	H	1.706567	-0.631979	-0.409374
N60	N	1.658161	-0.273641	-0.892687
H61	H	1.641889	-0.217547	-0.911790
H62	H	1.647912	-0.281351	-0.814870
N63	N	1.132900	-0.482560	-0.645532
H64	H	1.113850	-0.470436	-0.720630
H65	H	1.210713	-0.474909	-0.635256
H66	H	1.640320	-0.825608	-0.384364
N67	N	1.658190	-0.273559	-1.120742
H68	H	1.733245	-0.285759	-1.101658
H69	H	1.647918	-0.281169	-1.198553
N70	N	1.378681	-0.918900	-0.645720
H71	H	1.394961	-0.933110	-0.720807
H72	H	1.303659	-0.933239	-0.629248
N73	N	1.658241	-1.089289	-0.366680
H74	H	1.648079	-1.147443	-0.376883
H75	H	1.733258	-1.074899	-0.383091
H76	H	1.396447	-0.469038	-0.907090
H77	H	0.919347	-0.469279	-0.627847
N78	N	0.904798	-0.273630	-0.366739
H79	H	0.826967	-0.281268	-0.376914
H80	H	0.923951	-0.285799	-0.291683
H81	H	1.396402	-0.825628	-0.627959
