data_functionalizedCrystal
_audit_creation_method	'MofGen! by Chris Wilmer'
_symmetry_space_group_name_H-M	'P1'
_symmetry_Int_Tables_number	1
_symmetry_cell_setting	triclinic
loop_
_symmetry_equiv_pos_as_xyz
  x,y,z
_cell_length_a	17.077404
_cell_length_b	21.395361
_cell_length_c	17.077396
_cell_angle_alpha	90.031624
_cell_angle_beta	89.983895
_cell_angle_gamma	89.971496
loop_
_atom_site_label
_atom_site_type_symbol
_atom_site_fract_x
_atom_site_fract_y
_atom_site_fract_z
Zn1	Zn	1.199995	0.249467	-0.443806
Zn2	Zn	1.199890	0.354250	-0.312535
Zn3	Zn	1.068732	0.249487	-0.312557
Zn4	Zn	1.068678	0.354207	-0.443761
O5	O	1.134324	0.301853	-0.378165
O6	O	1.309828	0.263377	-0.426403
O7	O	1.182471	0.340379	-0.202691
O8	O	1.086212	0.161806	-0.329995
O9	O	1.309751	0.340360	-0.329958
O10	O	1.182650	0.161792	-0.426424
O11	O	1.086110	0.263410	-0.202707
O12	O	0.958878	0.263368	-0.329952
O13	O	1.086118	0.340287	-0.553614
O14	O	0.958838	0.340306	-0.426347
O15	O	1.182597	0.263335	-0.553647
O16	O	1.182418	0.441922	-0.329914
O17	O	1.086016	0.441891	-0.426326
C18	C	0.930376	0.301835	-0.378147
C19	C	0.843126	0.301843	-0.378158
C20	C	0.802177	0.261829	-0.428454
C21	C	0.720197	0.261833	-0.428457
C22	C	0.679167	0.301854	-0.378169
C23	C	0.720122	0.341870	-0.327868
C24	C	0.802101	0.341862	-0.327861
C25	C	0.549252	0.341884	-0.327888
C26	C	0.467267	0.341893	-0.327895
C27	C	0.467348	0.261854	-0.428484
C28	C	0.549327	0.261847	-0.428477
C29	C	0.590276	0.301864	-0.378177
C30	C	1.134221	0.464641	-0.378130
C31	C	1.134249	0.534282	-0.378141
C32	C	1.184489	0.566990	-0.327993
C33	C	1.184526	0.632426	-0.328014
C34	C	1.134308	0.665150	-0.378175
C35	C	1.084064	0.632433	-0.428333
C36	C	1.084034	0.566999	-0.428316
C37	C	1.063629	0.768862	-0.384334
C38	C	1.063657	0.834295	-0.384345
C39	C	1.134400	0.866971	-0.378232
C40	C	1.205117	0.834205	-0.372091
C41	C	1.205087	0.768771	-0.372074
C42	C	1.134335	0.736102	-0.378199
C43	C	1.184685	0.970632	-0.328104
C44	C	1.184723	1.036069	-0.328131
C45	C	1.084254	1.036075	-0.428446
C46	C	1.084223	0.970640	-0.428423
C47	C	1.134437	0.937922	-0.378248
C48	C	1.339068	0.301871	-0.378183
C49	C	1.426318	0.301879	-0.378191
C50	C	1.134363	0.301804	-0.582909
C51	C	1.134380	0.301784	-0.670159
C52	C	1.134450	1.138430	-0.378231
C53	C	1.134506	1.068788	-0.378293
C54	C	1.084220	0.261701	-0.711157
C55	C	1.084233	0.261687	-0.793137
C56	C	1.134410	0.301753	-0.834118
C57	C	1.184572	0.341840	-0.793115
C58	C	1.184555	0.341857	-0.711136
C59	C	1.184606	0.341800	-0.963985
C60	C	1.184625	0.341783	-1.045970
C61	C	1.084284	0.261631	-1.045987
C62	C	1.084267	0.261648	-0.964008
C63	C	1.134430	0.301734	-0.923010
C64	C	1.134330	0.301856	-0.174217
C65	C	1.134465	0.301700	-0.086968
H66	H	0.582731	0.229261	-0.469430
H67	H	1.225379	0.540354	-0.287140
H68	H	1.262723	0.860809	-0.367113
C69	C	0.675156	0.217818	-0.483784
H70	H	0.711333	0.193988	-0.513739
H71	H	0.643179	0.190489	-0.453823
H72	H	0.643176	0.241828	-0.517935
H73	H	1.006017	0.742264	-0.389315
C74	C	1.028948	0.934658	-0.483577
H75	H	0.999039	0.963517	-0.513450
H76	H	1.058938	0.909089	-0.517800
H77	H	0.994750	0.909177	-0.453503
H78	H	1.043385	0.229050	-0.826514
H79	H	0.835578	0.229240	-0.469406
C80	C	1.029018	0.217633	-0.666085
H81	H	0.999140	0.193765	-0.702246
H82	H	1.059051	0.190340	-0.634113
H83	H	0.994790	0.241613	-0.634099
H84	H	1.043412	0.229020	-0.930643
H85	H	1.225441	0.659062	-0.287178
C86	C	1.029082	0.217556	-1.091081
H87	H	1.036264	0.223293	-1.145774
H88	H	1.040581	0.175457	-1.077674
H89	H	0.976334	0.226741	-1.077624
C90	C	0.847145	0.385883	-0.272543
H91	H	0.810969	0.409725	-0.242600
H92	H	0.879126	0.361881	-0.238391
H93	H	0.879120	0.413211	-0.302514
H94	H	1.262667	0.742095	-0.367076
C95	C	1.239823	0.385850	-1.091048
H96	H	1.269691	0.409730	-1.054891
H97	H	1.274049	0.361874	-1.123034
H98	H	1.209780	0.413140	-1.123021
H99	H	1.225575	0.943992	-0.287251
C100	C	1.239784	0.385896	-0.918889
H101	H	1.269675	0.409751	-0.955035
H102	H	1.209728	0.413199	-0.886896
H103	H	1.274001	0.361934	-0.886921
H104	H	1.225424	0.374465	-0.826488
C105	C	0.422307	0.217835	-0.483811
H106	H	0.367607	0.223566	-0.476608
H107	H	0.435757	0.227060	-0.536530
H108	H	0.435761	0.175723	-0.472416
H109	H	0.433863	0.374483	-0.286947
H110	H	0.582590	0.374469	-0.286926
C111	C	1.028824	0.668427	-0.483507
H112	H	1.036031	0.712083	-0.476330
H113	H	1.040274	0.657665	-0.536257
H114	H	0.976082	0.657745	-0.471964
C115	C	0.674995	0.385895	-0.272551
H116	H	0.711126	0.409721	-0.242591
H117	H	0.643014	0.413228	-0.302520
H118	H	0.643014	0.361893	-0.238403
H119	H	1.225640	1.062699	-0.287295
C120	C	1.239731	0.385948	-0.666038
H121	H	1.269622	0.409804	-0.702185
H122	H	1.209673	0.413250	-0.634047
H123	H	1.273948	0.361988	-0.634069
H124	H	1.043369	1.062718	-0.469291
C125	C	0.985876	0.870334	-0.391106
H126	H	0.996024	0.913983	-0.390233
H127	H	0.960751	0.859598	-0.438872
H128	H	0.952871	0.859659	-0.348373
C129	C	1.028763	0.531018	-0.483477
H130	H	0.998856	0.559877	-0.513353
H131	H	1.058756	0.505448	-0.517697
H132	H	0.994563	0.505538	-0.453405
