data_functionalizedCrystal
_audit_creation_method	'MofGen! by Chris Wilmer'
_symmetry_space_group_name_H-M	'P1'
_symmetry_Int_Tables_number	1
_symmetry_cell_setting	triclinic
loop_
_symmetry_equiv_pos_as_xyz
  x,y,z
_cell_length_a	17.077404
_cell_length_b	21.395361
_cell_length_c	17.077396
_cell_angle_alpha	89.966749
_cell_angle_beta	89.980499
_cell_angle_gamma	90.030933
loop_
_atom_site_label
_atom_site_type_symbol
_atom_site_fract_x
_atom_site_fract_y
_atom_site_fract_z
Zn1	Zn	1.200012	-0.249435	-0.443817
Zn2	Zn	1.700012	0.250565	0.056183
Zn3	Zn	1.199901	-0.354216	-0.312540
Zn4	Zn	1.699901	0.145784	0.187460
Zn5	Zn	1.068744	-0.249457	-0.312565
Zn6	Zn	1.568744	0.250543	0.187435
Zn7	Zn	1.068694	-0.354179	-0.443763
Zn8	Zn	1.568694	0.145821	0.056237
O9	O	1.134338	-0.301822	-0.378171
O10	O	1.634338	0.198178	0.121829
O11	O	1.309844	-0.263341	-0.426414
O12	O	1.809844	0.236659	0.073586
O13	O	1.182477	-0.340344	-0.202696
O14	O	1.682477	0.159656	0.297304
O15	O	1.086224	-0.161776	-0.330008
O16	O	1.586224	0.338224	0.169992
O17	O	1.309763	-0.340323	-0.329966
O18	O	1.809763	0.159677	0.170034
O19	O	1.182666	-0.161760	-0.426439
O20	O	1.682666	0.338240	0.073561
O21	O	1.086117	-0.263378	-0.202714
O22	O	1.586117	0.236622	0.297286
O23	O	0.958890	-0.263342	-0.329957
O24	O	1.458890	0.236658	0.170043
O25	O	1.086139	-0.340260	-0.553617
O26	O	1.586139	0.159740	-0.053617
O27	O	0.958854	-0.340281	-0.426348
O28	O	1.458854	0.159719	0.073652
O29	O	1.182618	-0.263305	-0.553657
O30	O	1.682618	0.236695	-0.053657
O31	O	1.182429	-0.441889	-0.329914
O32	O	1.682429	0.058111	0.170086
O33	O	1.086031	-0.441862	-0.426324
O34	O	1.586031	0.058138	0.073676
C35	C	0.930390	-0.301810	-0.378149
C36	C	1.430390	0.198190	0.121851
C37	C	0.843140	-0.301821	-0.378159
C38	C	1.343140	0.198179	0.121841
C39	C	0.802151	-0.341943	-0.428269
C40	C	1.302151	0.158057	0.071731
C41	C	0.720171	-0.341944	-0.428282
C42	C	1.220171	0.158056	0.071718
C43	C	0.679181	-0.301826	-0.378179
C44	C	1.179181	0.198174	0.121821
C45	C	0.720175	-0.261699	-0.328067
C46	C	1.220175	0.238301	0.171933
C47	C	0.802154	-0.261695	-0.328059
C48	C	1.302154	0.238305	0.171941
C49	C	0.549305	-0.261711	-0.328086
C50	C	1.049305	0.238289	0.171914
C51	C	0.467320	-0.261716	-0.328092
C52	C	0.967320	0.238284	0.171908
C53	C	0.467322	-0.341961	-0.428309
C54	C	0.967322	0.158039	0.071691
C55	C	0.549301	-0.341957	-0.428301
C56	C	1.049301	0.158043	0.071699
C57	C	0.590290	-0.301830	-0.378187
C58	C	1.090290	0.198170	0.121813
C59	C	1.134234	-0.464609	-0.378127
C60	C	1.634234	0.035391	0.121873
C61	C	1.134262	-0.534251	-0.378135
C62	C	1.634262	-0.034251	0.121865
C63	C	1.184500	-0.566957	-0.327986
C64	C	1.684500	-0.066957	0.172014
C65	C	1.184537	-0.632392	-0.328004
C66	C	1.684537	-0.132392	0.171996
C67	C	1.134321	-0.665119	-0.378162
C68	C	1.634321	-0.165119	0.121838
C69	C	1.084078	-0.632404	-0.428321
C70	C	1.584078	-0.132404	0.071679
C71	C	1.084049	-0.566970	-0.428307
C72	C	1.584049	-0.066970	0.071693
C73	C	1.063641	-0.768833	-0.384313
C74	C	1.563641	-0.268833	0.115687
C75	C	1.063669	-0.834266	-0.384321
C76	C	1.563669	-0.334266	0.115679
C77	C	1.134412	-0.866940	-0.378208
C78	C	1.634412	-0.366940	0.121792
C79	C	1.205129	-0.834172	-0.372070
C80	C	1.705129	-0.334172	0.127930
C81	C	1.205099	-0.768738	-0.372057
C82	C	1.705099	-0.268738	0.127943
C83	C	1.134347	-0.736071	-0.378182
C84	C	1.634347	-0.236071	0.121818
C85	C	1.184694	-0.970599	-0.328075
C86	C	1.684694	-0.470599	0.171925
C87	C	1.184732	-1.036035	-0.328098
C88	C	1.684732	-0.536035	0.171902
C89	C	1.084267	-1.036046	-0.428411
C90	C	1.584267	-0.536046	0.071589
C91	C	1.084236	-0.970611	-0.428392
C92	C	1.584236	-0.470611	0.071608
C93	C	1.134449	-0.937891	-0.378220
C94	C	1.634449	-0.437891	0.121780
C95	C	1.339082	-0.301833	-0.378193
C96	C	1.839082	0.198167	0.121807
C97	C	1.426332	-0.301839	-0.378203
C98	C	1.926332	0.198161	0.121797
C99	C	1.134385	-0.301775	-0.582915
C100	C	1.634385	0.198225	-0.082915
C101	C	1.134405	-0.301756	-0.670165
C102	C	1.634405	0.198244	-0.170165
C103	C	1.134463	-0.138398	-0.378232
C104	C	1.634463	0.361602	0.121768
C105	C	1.134517	-0.068757	-0.378258
C106	C	1.634517	0.431243	0.121742
C107	C	1.184644	-0.261682	-0.711177
C108	C	1.684644	0.238318	-0.211177
C109	C	1.184653	-0.261661	-0.793158
C110	C	1.684653	0.238339	-0.293158
C111	C	1.134428	-0.301718	-0.834125
C112	C	1.634428	0.198282	-0.334125
C113	C	1.084184	-0.341793	-0.793107
C114	C	1.584184	0.158207	-0.293107
C115	C	1.084171	-0.341811	-0.711128
C116	C	1.584171	0.158189	-0.211128
C117	C	1.084215	-0.341756	-0.963977
C118	C	1.584215	0.158244	-0.463977
C119	C	1.084229	-0.341739	-1.045962
C120	C	1.584229	0.158261	-0.545962
C121	C	1.184698	-0.261606	-1.046007
C122	C	1.684698	0.238394	-0.546007
C123	C	1.184685	-0.261623	-0.964028
C124	C	1.684685	0.238377	-0.464028
C125	C	1.134442	-0.301700	-0.923016
C126	C	1.634442	0.198300	-0.423016
C127	C	1.134336	-0.301822	-0.174223
C128	C	1.634336	0.198178	0.325777
C129	C	1.134467	-0.301666	-0.086974
C130	C	1.634467	0.198334	0.413026
H131	H	0.582676	-0.229031	-0.287285
H132	H	1.082676	0.270969	0.212715
H133	H	1.006087	-0.860941	-0.389311
H134	H	1.506087	-0.360941	0.110689
Cl135	Cl	1.247697	-0.673518	-0.264953
Cl136	Cl	1.747697	-0.173518	0.235047
Cl137	Cl	0.974698	-0.727765	-0.392000
Cl138	Cl	1.474698	-0.227765	0.108000
H139	H	0.433945	-0.374631	-0.469115
H140	H	0.933945	0.125369	0.030885
H141	H	1.043290	-0.374380	-0.930588
H142	H	1.543290	0.125620	-0.430588
Cl143	Cl	1.247861	-0.211225	-1.097564
Cl144	Cl	1.747861	0.288775	-0.597564
H145	H	1.043286	-0.374406	-0.826469
H146	H	1.543286	0.125594	-0.326469
H147	H	0.433948	-0.229041	-0.287304
H148	H	0.933948	0.270959	0.212696
Cl149	Cl	0.668644	-0.211260	-0.265086
Cl150	Cl	1.168644	0.288740	0.234914
Cl151	Cl	1.020886	-0.525851	-0.491356
Cl152	Cl	1.520886	-0.025851	0.008644
Cl153	Cl	1.021072	-0.929491	-0.491437
Cl154	Cl	1.521072	-0.429491	0.008563
H155	H	1.043329	-0.374356	-1.079315
H156	H	1.543329	0.125644	-0.579315
H157	H	0.582673	-0.374628	-0.469094
H158	H	1.082673	0.125372	0.030906
H159	H	1.043254	-0.374436	-0.677737
H160	H	1.543254	0.125564	-0.177737
H161	H	0.835520	-0.374614	-0.469066
H162	H	1.335520	0.125386	0.030934
Cl163	Cl	0.853683	-0.211251	-0.265062
Cl164	Cl	1.353683	0.288749	0.234938
Cl165	Cl	1.247636	-0.525827	-0.264924
Cl166	Cl	1.747636	-0.025827	0.235076
H167	H	1.262678	-0.742060	-0.367061
H168	H	1.762678	-0.242060	0.132939
H169	H	1.262734	-0.860773	-0.367092
H170	H	1.762734	-0.360773	0.132908
H171	H	1.043194	-0.659054	-0.469161
H172	H	1.543194	-0.159054	0.030839
H173	H	1.225546	-0.229065	-0.677828
H174	H	1.725546	0.270935	-0.177828
H175	H	0.686801	-0.374617	-0.469086
H176	H	1.186801	0.125383	0.030914
Cl177	Cl	1.247817	-0.929462	-0.265003
Cl178	Cl	1.747817	-0.429462	0.234997
H179	H	1.225647	-1.062664	-0.287263
H180	H	1.725647	-0.562664	0.212737
Cl181	Cl	1.021143	-1.077181	-0.491474
Cl182	Cl	1.521143	-0.577181	0.008526
Cl183	Cl	1.247848	-0.211308	-0.844712
Cl184	Cl	1.747848	0.288692	-0.344712
H185	H	1.225587	-0.229009	-0.930675
H186	H	1.725587	0.270991	-0.430675
