data_functionalizedCrystal
_audit_creation_method	'MofGen! by Chris Wilmer'
_symmetry_space_group_name_H-M	'P1'
_symmetry_Int_Tables_number	1
_symmetry_cell_setting	triclinic
loop_
_symmetry_equiv_pos_as_xyz
  x,y,z
_cell_length_a	21.395362
_cell_length_b	12.759400
_cell_length_c	21.395356
_cell_angle_alpha	89.976483
_cell_angle_beta	89.964122
_cell_angle_gamma	90.030564
loop_
_atom_site_label
_atom_site_type_symbol
_atom_site_fract_x
_atom_site_fract_y
_atom_site_fract_z
Zn1	Zn	0.957879	-0.417842	-0.354606
Zn2	Zn	0.957826	-0.593537	-0.249837
Zn3	Zn	0.853109	-0.417921	-0.249807
Zn4	Zn	0.853093	-0.593529	-0.354542
O5	O	0.905477	-0.505707	-0.302198
O6	O	1.045550	-0.441119	-0.340747
O7	O	0.943919	-0.570277	-0.162155
O8	O	0.867036	-0.270889	-0.263723
O9	O	1.045511	-0.570201	-0.263774
O10	O	0.944011	-0.270832	-0.340719
O11	O	0.866984	-0.441253	-0.162133
O12	O	0.765429	-0.441245	-0.263661
O13	O	0.867009	-0.570187	-0.442228
O14	O	0.765417	-0.570263	-0.340609
O15	O	0.943995	-0.441111	-0.442275
O16	O	0.943904	-0.740557	-0.263712
O17	O	0.866957	-0.740551	-0.340638
C18	C	0.742689	-0.505763	-0.302125
C19	C	0.673048	-0.505812	-0.302109
C20	C	0.640345	-0.573081	-0.342116
C21	C	0.574910	-0.573055	-0.342144
C22	C	0.542180	-0.505771	-0.302154
C23	C	0.574890	-0.438489	-0.262144
C24	C	0.640325	-0.438510	-0.262122
C25	C	0.438461	-0.497323	-0.245748
C26	C	0.373028	-0.497311	-0.245769
C27	C	0.340359	-0.505703	-0.302223
C28	C	0.373130	-0.514130	-0.358657
C29	C	0.438564	-0.514150	-0.358635
C30	C	0.471227	-0.505741	-0.302174
C31	C	0.236703	-0.572947	-0.342263
C32	C	0.171267	-0.572914	-0.342292
C33	C	0.171249	-0.438354	-0.262287
C34	C	0.236684	-0.438382	-0.262264
C35	C	0.269408	-0.505684	-0.302251
C36	C	0.905440	-0.778675	-0.302185
C37	C	0.905481	-0.895451	-0.302200
C38	C	0.945592	-0.950281	-0.262189
C39	C	0.945630	-1.060005	-0.262208
C40	C	0.865442	-1.060059	-0.342252
C41	C	0.865407	-0.950337	-0.342235
C42	C	0.991886	-0.950251	-0.215975
C43	C	0.991924	-1.059975	-0.215994
C44	C	1.068900	-0.505652	-0.302271
C45	C	1.138541	-0.505629	-0.302303
C46	C	0.905506	-0.505640	-0.465621
C47	C	0.905518	-0.505611	-0.535263
C48	C	0.905531	-0.231674	-0.302225
C49	C	0.905554	-0.114897	-0.302236
C50	C	0.945664	-0.438234	-1.037085
C51	C	0.945659	-0.438259	-0.971649
C52	C	0.905572	-0.505471	-0.938901
C53	C	0.865498	-0.572682	-0.971594
C54	C	0.865509	-0.572662	-1.037028
C55	C	0.849104	-0.513817	-0.835206
C56	C	0.849093	-0.513830	-0.769773
C57	C	0.905540	-0.505538	-0.737080
C58	C	0.962000	-0.497212	-0.769828
C59	C	0.962011	-0.497192	-0.835262
C60	C	0.905556	-0.505500	-0.867949
C61	C	0.945609	-0.438364	-0.633443
C62	C	0.945605	-0.438397	-0.568006
C63	C	0.865439	-0.572814	-0.567952
C64	C	0.865448	-0.572787	-0.633388
C65	C	0.905532	-0.505556	-0.666129
C66	C	0.905484	-0.505699	-0.139410
C67	C	0.905593	-0.505431	-0.069770
H68	H	0.144641	-0.627690	-0.374875
H69	H	1.040395	-0.920374	-0.229025
H70	H	0.832877	-0.627384	-1.063640
H71	H	0.144601	-0.383566	-0.229729
H72	H	0.832751	-0.905695	-0.374821
H73	H	0.978966	-1.089832	-0.167457
C74	C	0.272659	-0.364389	-0.218247
N75	N	0.299755	-0.308654	-0.185091
C76	C	0.676299	-0.364511	-0.218106
N77	N	0.703396	-0.308776	-0.184951
H78	H	1.007965	-0.490456	-0.743211
C79	C	0.821401	-0.646612	-0.935570
N80	N	0.788186	-0.702300	-0.908437
H81	H	0.832816	-1.104761	-0.374847
H82	H	0.548237	-0.383705	-0.229585
H83	H	0.978247	-0.383621	-0.660102
H84	H	0.978240	-0.383679	-0.541395
C85	C	0.989762	-0.364286	-1.073096
N86	N	1.022979	-0.308590	-1.100221
H87	H	1.038024	-1.093902	-0.233433
H88	H	0.666984	-0.627882	-0.374678
C89	C	0.272701	-0.646968	-0.386257
N90	N	0.299813	-0.702719	-0.419395
H91	H	0.346351	-0.490455	-0.199817
H92	H	0.465055	-0.490485	-0.199774
H93	H	0.548278	-0.627833	-0.374724
C94	C	0.989739	-0.364328	-0.935688
N95	N	1.022938	-0.308641	-0.908605
H96	H	0.974521	-0.916301	-0.169854
H97	H	1.007983	-0.490415	-0.861923
H98	H	0.832801	-0.627543	-0.541289
C99	C	0.821359	-0.646699	-0.669342
N100	N	0.788150	-0.702374	-0.696423
C101	C	0.786985	-0.522981	-0.733757
N102	N	0.740204	-0.529874	-0.706631
C103	C	0.787004	-0.522938	-0.871162
N104	N	0.740231	-0.529808	-0.898243
H105	H	0.346532	-0.520962	-0.404627
C106	C	0.474611	-0.523418	-0.420711
N107	N	0.501760	-0.530398	-0.467467
