data_functionalizedCrystal
_audit_creation_method	'MofGen! by Chris Wilmer'
_symmetry_space_group_name_H-M	'P1'
_symmetry_Int_Tables_number	1
_symmetry_cell_setting	triclinic
loop_
_symmetry_equiv_pos_as_xyz
  x,y,z
_cell_length_a	12.759401
_cell_length_b	12.759399
_cell_length_c	12.759393
_cell_angle_alpha	90.030906
_cell_angle_beta	90.019676
_cell_angle_gamma	90.015542
loop_
_atom_site_label
_atom_site_type_symbol
_atom_site_fract_x
_atom_site_fract_y
_atom_site_fract_z
Zn1	Zn	1.606263	-0.418204	0.593982
Zn2	Zn	1.606153	-0.593919	0.418301
Zn3	Zn	1.430562	-0.418256	0.418321
Zn4	Zn	1.430553	-0.593842	0.593942
O5	O	1.518383	-0.506055	0.506136
O6	O	1.753270	-0.441523	0.570686
O7	O	1.582818	-0.570671	0.271282
O8	O	1.453919	-0.271228	0.441648
O9	O	1.753189	-0.570620	0.441613
O10	O	1.583006	-0.271189	0.570705
O11	O	1.453812	-0.441612	0.271297
O12	O	1.283540	-0.441538	0.441609
O13	O	1.453903	-0.570489	0.740968
O14	O	1.283533	-0.570540	0.570637
O15	O	1.582997	-0.441448	0.740998
O16	O	1.582809	-0.740930	0.441575
O17	O	1.453796	-0.740874	0.570617
C18	C	1.245415	-0.506037	0.506121
C19	C	1.128639	-0.506055	0.506140
C20	C	1.073820	-0.438955	0.573451
C21	C	0.964096	-0.438966	0.573458
C22	C	0.964020	-0.573185	0.438839
C23	C	1.073742	-0.573168	0.438828
C24	C	1.518318	-0.779023	0.506112
C25	C	1.518387	-0.895799	0.506137
C26	C	1.585641	-0.950656	0.439021
C27	C	1.585708	-1.060380	0.439056
C28	C	1.451259	-1.060381	0.573327
C29	C	1.451198	-0.950659	0.573296
C30	C	1.792416	-0.506074	0.506152
C31	C	1.909193	-0.506082	0.506158
C32	C	1.518461	-0.505954	0.780170
C33	C	1.518495	-0.505911	0.896946
C34	C	1.518476	-0.232022	0.506183
C35	C	1.518516	-0.115245	0.506203
C36	C	1.518365	-0.506080	0.233169
C37	C	1.518535	-0.505827	0.116393
C38	C	1.585719	-0.438709	0.951825
C39	C	1.585737	-0.438664	1.061550
C40	C	1.451303	-0.573032	1.061506
C41	C	1.451281	-0.573072	0.951784
H42	H	1.118377	-0.627810	0.384009
O43	O	1.651009	-0.897526	0.373757
C44	C	1.710364	-0.969478	0.314508
H45	H	1.714024	-1.047652	0.357569
H46	H	1.793129	-0.937717	0.303361
H47	H	1.671937	-0.981248	0.234687
O48	O	1.651206	-1.113681	0.374039
C49	C	1.719054	-1.177013	0.433978
H50	H	1.725394	-1.143873	0.516727
H51	H	1.799957	-1.178158	0.396111
H52	H	1.686676	-1.260219	0.437564
O53	O	1.386022	-1.113837	0.638455
C54	C	1.400511	-1.222444	0.624108
H55	H	1.434971	-1.237467	0.543063
H56	H	1.321833	-1.264202	0.631176
H57	H	1.456443	-1.253486	0.686483
H58	H	1.396432	-0.905992	0.627955
O59	O	0.910804	-0.638529	0.373516
C60	C	0.937597	-0.743264	0.396312
H61	H	1.017282	-0.745475	0.436684
H62	H	0.941309	-0.790285	0.320407
H63	H	0.875867	-0.778724	0.450276
O64	O	1.651034	-0.373367	0.898718
C65	C	1.710388	-0.314060	0.970690
H66	H	1.667371	-0.310394	1.048898
H67	H	1.721617	-0.231294	0.939006
H68	H	1.790171	-0.352534	0.982364
O69	O	1.650888	-0.373269	1.114902
C70	C	1.591110	-0.305395	1.178386
H71	H	1.508359	-0.298915	1.145309
H72	H	1.629137	-0.224543	1.179642
H73	H	1.587497	-0.337840	1.261540
H74	H	1.396583	-0.627714	1.106168
O75	O	1.386090	-0.638508	0.898514
C76	C	1.408999	-0.743213	0.925324
H77	H	1.492933	-0.748517	0.955500
H78	H	1.399918	-0.795139	0.853152
H79	H	1.352671	-0.770651	0.988996
O80	O	1.126985	-0.373661	0.638865
C81	C	1.055066	-0.314459	0.698295
H82	H	0.976835	-0.310781	0.655273
H83	H	1.086783	-0.231690	0.709645
H84	H	1.043425	-0.353031	0.778021
H85	H	0.919467	-0.384325	0.628269
