data_functionalizedCrystal
_audit_creation_method	'MofGen! by Chris Wilmer'
_symmetry_space_group_name_H-M	'P1'
_symmetry_Int_Tables_number	1
_symmetry_cell_setting	triclinic
loop_
_symmetry_equiv_pos_as_xyz
  x,y,z
_cell_length_a	17.077404
_cell_length_b	21.395361
_cell_length_c	17.077404
_cell_angle_alpha	90.015717
_cell_angle_beta	90.008318
_cell_angle_gamma	90.030933
loop_
_atom_site_label
_atom_site_type_symbol
_atom_site_fract_x
_atom_site_fract_y
_atom_site_fract_z
Zn1	Zn	1.199925	-0.249543	0.443816
Zn2	Zn	1.199840	-0.354292	0.312540
Zn3	Zn	1.068683	-0.249533	0.312564
Zn4	Zn	1.068607	-0.354287	0.443763
O5	O	1.134264	-0.301914	0.378171
O6	O	1.309761	-0.263445	0.426414
O7	O	1.182438	-0.340394	0.202696
O8	O	1.086160	-0.161857	0.330008
O9	O	1.309698	-0.340404	0.329966
O10	O	1.182583	-0.161864	0.426438
O11	O	1.086077	-0.263428	0.202714
O12	O	0.958826	-0.263423	0.329956
O13	O	1.086031	-0.340395	0.553617
O14	O	0.958770	-0.340385	0.426347
O15	O	1.182510	-0.263440	0.553656
O16	O	1.182364	-0.441970	0.329914
O17	O	1.085948	-0.441966	0.426323
C18	C	0.930316	-0.301903	0.378149
C19	C	0.843066	-0.301913	0.378159
C20	C	0.802068	-0.342048	0.428269
C21	C	0.720087	-0.342049	0.428281
C22	C	0.679107	-0.301918	0.378179
C23	C	0.720111	-0.261779	0.328067
C24	C	0.802090	-0.261775	0.328059
C25	C	0.549241	-0.261791	0.328085
C26	C	0.467256	-0.261796	0.328092
C27	C	0.467238	-0.342065	0.428308
C28	C	0.549217	-0.342061	0.428300
C29	C	0.590216	-0.301923	0.378187
C30	C	1.134160	-0.464702	0.378127
C31	C	1.134188	-0.534343	0.378135
C32	C	1.184436	-0.567037	0.327986
C33	C	1.184473	-0.632473	0.328003
C34	C	1.134247	-0.665211	0.378162
C35	C	1.083995	-0.632509	0.428320
C36	C	1.083965	-0.567075	0.428307
C37	C	1.063566	-0.768927	0.384313
C38	C	1.063594	-0.834360	0.384321
C39	C	1.134338	-0.867032	0.378208
C40	C	1.205056	-0.834263	0.372070
C41	C	1.205026	-0.768829	0.372056
C42	C	1.134273	-0.736164	0.378182
C43	C	1.184630	-0.970679	0.328075
C44	C	1.184668	-1.036115	0.328098
C45	C	1.084183	-1.036151	0.428411
C46	C	1.084152	-0.970715	0.428392
C47	C	1.134375	-0.937983	0.378220
C48	C	1.339008	-0.301926	0.378193
C49	C	1.426258	-0.301931	0.378203
C50	C	1.134271	-0.301918	0.582915
C51	C	1.134274	-0.301920	0.670165
C52	C	1.134389	-0.138491	0.378232
C53	C	1.134443	-0.068849	0.378258
C54	C	1.184505	-0.261856	0.711177
C55	C	1.184498	-0.261855	0.793157
C56	C	1.134265	-0.301922	0.834124
C57	C	1.084029	-0.341987	0.793107
C58	C	1.084032	-0.341984	0.711128
C59	C	1.084027	-0.341991	0.963977
C60	C	1.084025	-0.341995	1.045961
C61	C	1.184493	-0.261862	1.046006
C62	C	1.184497	-0.261859	0.964027
C63	C	1.134261	-0.301926	0.923015
C64	C	1.134252	-0.301926	1.174223
C65	C	1.134255	-0.301931	1.086973
H66	H	0.835428	-0.374729	0.469065
H67	H	0.835470	-0.229090	0.287258
H68	H	1.225332	-0.540389	0.287135
C69	C	1.039612	-1.136468	0.472974
C70	C	1.028975	-1.072129	0.483549
H71	H	1.005526	-1.158681	0.507014
H72	H	1.092345	-1.147144	0.484513
H73	H	1.028167	-1.147214	0.420222
H74	H	1.040426	-1.061383	0.536300
H75	H	0.976231	-1.061449	0.472015
C76	C	1.222964	-0.950554	0.195184
C77	C	1.239838	-0.934694	0.272933
H78	H	1.257050	-0.928342	0.161143
H79	H	1.170232	-0.939873	0.183651
H80	H	1.230180	-0.994205	0.188027
H81	H	1.232616	-0.891044	0.280091
H82	H	1.292582	-0.945371	0.284470
H83	H	1.225394	-0.659097	0.287166
C84	C	0.641475	-0.177485	0.317354
C85	C	0.594304	-0.217671	0.272996
H86	H	0.669290	-0.150248	0.283341
H87	H	0.677611	-0.201383	0.347184
H88	H	0.609509	-0.153565	0.351610
H89	H	0.626271	-0.241595	0.238744
H90	H	0.558164	-0.193771	0.243153
C91	C	1.344861	-0.775297	0.359960
C92	C	1.282755	-0.732808	0.365322
H93	H	1.392848	-0.753058	0.355811
H94	H	1.338013	-0.800836	0.314973
H95	H	1.345848	-0.800805	0.405470
H96	H	1.281765	-0.707303	0.319809
H97	H	1.289605	-0.707259	0.410314
H98	H	1.262663	-0.860863	0.367092
C99	C	0.641435	-0.350890	0.533853
C100	C	0.594265	-0.386172	0.483374
H101	H	0.669248	-0.378123	0.567852
H102	H	0.609476	-0.323638	0.563944
H103	H	0.677581	-0.326989	0.503997
H104	H	0.558115	-0.410070	0.513230
H105	H	0.626227	-0.413435	0.453281
C106	C	1.195784	-1.109809	0.222615
C107	C	1.239948	-1.072091	0.273049
H108	H	1.229926	-1.132032	0.188656
H109	H	1.161638	-1.084343	0.192480
H110	H	1.165844	-1.138640	0.252507
H111	H	1.269883	-1.043258	0.243157
H112	H	1.274108	-1.097560	0.303187
H113	H	1.043121	-0.374602	0.677737
H114	H	1.043232	-0.944094	0.469225
C115	C	0.923764	-0.827883	0.396445
C116	C	0.985863	-0.870376	0.391068
H117	H	0.875777	-0.850119	0.400615
H118	H	0.922766	-0.802379	0.350942
H119	H	0.930631	-0.802341	0.441436
H120	H	0.979000	-0.895916	0.346073
H121	H	0.986861	-0.895892	0.436576
H122	H	1.005953	-0.742332	0.389295
C123	C	1.073039	-0.706072	0.533904
C124	C	1.028785	-0.668494	0.483454
H125	H	1.038954	-0.728289	0.567941
H126	H	1.107198	-0.680511	0.563956
H127	H	1.102968	-0.734907	0.504029
H128	H	0.998860	-0.639656	0.513329
H129	H	0.994612	-0.694057	0.453400
H130	H	0.686738	-0.229101	0.287276
C131	C	0.984645	-0.573684	0.527463
C132	C	1.028723	-0.531133	0.483430
H133	H	0.950537	-0.551493	0.561489
H134	H	1.018835	-0.599166	0.557526
H135	H	0.954659	-0.599243	0.493233
H136	H	1.058714	-0.505577	0.517659
H137	H	0.994529	-0.505640	0.453364
H138	H	1.225413	-0.229231	0.677827
H139	H	1.225403	-0.229232	0.826545
C140	C	1.283802	-0.182647	0.972301
C141	C	1.239713	-0.217817	0.918994
H142	H	1.317885	-0.155454	0.944498
H143	H	1.313807	-0.209947	1.004268
H144	H	1.249612	-0.158680	1.004282
H145	H	1.273903	-0.241788	0.887017
H146	H	1.209705	-0.190514	0.887014
C147	C	1.229082	-0.226262	1.171690
C148	C	1.239700	-0.217808	1.091083
H149	H	1.263159	-0.199063	1.199519
H150	H	1.240545	-0.268353	1.185114
H151	H	1.176342	-0.217093	1.185104
H152	H	1.292439	-0.226982	1.077668
H153	H	1.228242	-0.175708	1.077654
C154	C	0.984702	-0.421193	1.037687
C155	C	1.028802	-0.386032	1.090995
H156	H	0.950607	-0.448377	1.065491
H157	H	1.018879	-0.445164	1.005710
H158	H	0.954702	-0.393883	1.005717
H159	H	1.058807	-0.413342	1.122961
H160	H	0.994621	-0.362059	1.122985
H161	H	1.043108	-0.374608	0.930587
C162	C	1.073053	-0.426271	0.885260
C163	C	1.028810	-0.386030	0.838135
H164	H	1.038962	-0.453464	0.913053
H165	H	1.102961	-0.402411	0.921415
H166	H	1.107233	-0.450236	0.853266
H167	H	0.994635	-0.362062	0.870130
H168	H	0.998889	-0.409893	0.801976
H169	H	0.433892	-0.229111	0.287304
H170	H	0.686710	-0.374731	0.469086
C171	C	0.341566	-0.377709	0.472836
C172	C	0.422176	-0.386183	0.483401
H173	H	0.313746	-0.404943	0.506849
H174	H	0.328114	-0.386813	0.420081
H175	H	0.328170	-0.335625	0.484426
H176	H	0.435573	-0.428266	0.471804
H177	H	0.435634	-0.377083	0.536167
