data_functionalizedCrystal
_audit_creation_method	'MofGen! by Chris Wilmer'
_symmetry_space_group_name_H-M	'P1'
_symmetry_Int_Tables_number	1
_symmetry_cell_setting	triclinic
loop_
_symmetry_equiv_pos_as_xyz
  x,y,z
_cell_length_a	17.077404
_cell_length_b	17.077402
_cell_length_c	17.077396
_cell_angle_alpha	90.027528
_cell_angle_beta	90.019501
_cell_angle_gamma	90.023718
loop_
_atom_site_label
_atom_site_type_symbol
_atom_site_fract_x
_atom_site_fract_y
_atom_site_fract_z
Zn1	Zn	1.200051	-0.312503	0.443848
Zn2	Zn	1.199957	-0.443778	0.312584
Zn3	Zn	1.068783	-0.312531	0.312596
Zn4	Zn	1.068750	-0.443732	0.443808
O5	O	1.134385	-0.378136	0.378209
O6	O	1.309886	-0.329925	0.426447
O7	O	1.182531	-0.426399	0.202739
O8	O	1.086250	-0.202680	0.330028
O9	O	1.309816	-0.426372	0.330008
O10	O	1.182692	-0.202660	0.426459
O11	O	1.086158	-0.329972	0.202747
O12	O	0.958932	-0.329927	0.329989
O13	O	1.086193	-0.426293	0.553660
O14	O	0.958907	-0.426320	0.426390
O15	O	1.182659	-0.329880	0.553690
O16	O	1.182499	-0.553619	0.329969
O17	O	1.086101	-0.553585	0.426379
C18	C	0.930437	-0.378122	0.378187
C19	C	0.843188	-0.378135	0.378197
C20	C	0.802205	-0.428402	0.428312
C21	C	0.720225	-0.428404	0.428324
C22	C	0.679228	-0.378141	0.378217
C23	C	0.720216	-0.327869	0.328100
C24	C	0.802195	-0.327863	0.328092
C25	C	0.549346	-0.327884	0.328118
C26	C	0.467362	-0.327890	0.328125
C27	C	0.467376	-0.428424	0.428351
C28	C	0.549355	-0.428419	0.428343
C29	C	0.590337	-0.378147	0.378225
C30	C	1.134307	-0.582084	0.378186
C31	C	1.134346	-0.669334	0.378202
C32	C	1.184536	-0.710246	0.428454
C33	C	1.184569	-0.792226	0.428470
C34	C	1.134415	-0.833293	0.378231
C35	C	1.084220	-0.792375	0.327977
C36	C	1.084183	-0.710396	0.327965
C37	C	1.084300	-0.963245	0.328004
C38	C	1.084337	-1.045230	0.328015
C39	C	1.184686	-1.045075	0.428510
C40	C	1.184649	-0.963096	0.428498
C41	C	1.134455	-0.922184	0.378243
C42	C	1.339130	-0.378151	0.378231
C43	C	1.426379	-0.378157	0.378241
C44	C	1.134433	-0.378078	0.582953
C45	C	1.134453	-0.378054	0.670203
C46	C	1.134485	-0.173392	0.378249
C47	C	1.134527	-0.086142	0.378267
C48	C	1.134383	-0.378137	0.174261
C49	C	1.134515	-0.377941	0.087012
C50	C	1.184685	-0.327847	0.711210
C51	C	1.184695	-0.327821	0.793190
C52	C	1.134475	-0.378006	0.834163
C53	C	1.084238	-0.428214	0.793150
C54	C	1.084225	-0.428236	0.711171
C55	C	1.084269	-0.428167	0.964020
C56	C	1.084283	-0.428147	1.046005
C57	C	1.184739	-0.327752	1.046040
C58	C	1.184726	-0.327774	0.964061
C59	C	1.134489	-0.377984	0.923054
H60	H	1.225380	-0.676815	0.469361
H61	H	1.225623	-0.286913	0.930703
H62	H	0.686830	-0.286941	0.287305
O63	O	1.035544	-0.477047	0.671244
C64	C	1.024930	-0.583076	0.578689
C65	C	1.080150	-0.527837	0.623846
H66	H	1.060972	-0.624165	0.540370
H67	H	0.983911	-0.547085	0.540256
H68	H	0.989019	-0.618910	0.622063
H69	H	1.116112	-0.491991	0.580529
H70	H	1.121117	-0.563873	0.662291
H71	H	1.225600	-0.286940	0.826575
H72	H	1.043423	-0.929937	0.287084
H73	H	1.043380	-0.825818	0.287074
H74	H	1.043312	-0.677087	0.287046
O75	O	1.233456	-0.278992	1.085990
C76	C	1.278013	-0.234477	1.212299
C77	C	1.222793	-0.289722	1.167149
H78	H	1.269424	-0.243144	1.277924
H79	H	1.264250	-0.171170	1.196242
H80	H	1.341294	-0.248256	1.196150
H81	H	1.159494	-0.276013	1.183275
H82	H	1.236624	-0.353012	1.183211
H83	H	1.043495	-1.078664	0.287109
H84	H	1.225582	-0.286983	0.677856
H85	H	0.582732	-0.469352	0.469141
H86	H	1.225492	-0.929660	0.469402
O87	O	1.035535	-0.476996	1.085726
C88	C	0.997381	-0.610504	1.110834
C89	C	1.052625	-0.555273	1.065785
H90	H	1.011189	-0.673803	1.094741
H91	H	0.934077	-0.596774	1.094699
H92	H	1.006016	-0.601817	1.176464
H93	H	1.044060	-0.563930	1.000144
H94	H	1.115909	-0.569016	1.081985
O95	O	0.841905	-0.477253	0.477062
C96	C	0.833256	-0.576996	0.576445
C97	C	0.788203	-0.521702	0.521285
H98	H	0.789858	-0.612960	0.612203
H99	H	0.871645	-0.541044	0.617602
H100	H	0.871628	-0.617961	0.540320
H101	H	0.749788	-0.480726	0.557347
H102	H	0.749863	-0.557703	0.480126
O103	O	1.233369	-1.084934	0.477307
C104	C	1.277931	-1.211159	0.521836
C105	C	1.222745	-1.166113	0.466554
H106	H	1.269373	-1.276800	0.513150
H107	H	1.264105	-1.195068	0.585134
H108	H	1.341219	-1.194950	0.508112
H109	H	1.159439	-1.182298	0.480207
H110	H	1.236639	-1.182208	0.403272
H111	H	0.686861	-0.469337	0.469133
O112	O	1.035585	-0.476981	0.924092
C113	C	1.024988	-0.583012	0.831538
C114	C	1.080200	-0.527766	0.876698
H115	H	1.061038	-0.624097	0.793222
H116	H	0.983968	-0.547025	0.793101
H117	H	0.989078	-0.618849	0.874909
H118	H	1.116161	-0.491917	0.833383
H119	H	1.121168	-0.563798	0.915147
O120	O	1.035342	-0.476881	0.832912
C121	C	0.901804	-0.515003	0.857926
C122	C	0.957088	-0.459823	0.812864
H123	H	0.838526	-0.501242	0.841721
H124	H	0.910374	-0.506365	0.923572
H125	H	0.915597	-0.578298	0.841802
H126	H	0.943330	-0.396507	0.828922
H127	H	0.948509	-0.468529	0.747228
O128	O	0.842096	-0.279146	0.279369
C129	C	0.934578	-0.268448	0.173370
C130	C	0.889454	-0.323712	0.228509
H131	H	0.972866	-0.304459	0.132225
H132	H	0.973041	-0.227460	0.209436
H133	H	0.891184	-0.232507	0.137592
H134	H	0.932792	-0.359704	0.264299
H135	H	0.850979	-0.364649	0.192398
O136	O	1.233411	-0.831846	0.477297
C137	C	1.332935	-0.823042	0.576975
C138	C	1.277666	-0.778075	0.521710
H139	H	1.368718	-0.779587	0.612910
H140	H	1.374062	-0.861382	0.541002
H141	H	1.296893	-0.861455	0.617969
H142	H	1.313644	-0.739620	0.480706
H143	H	1.236536	-0.739785	0.557733
O144	O	0.589190	-0.278968	0.279543
C145	C	0.681813	-0.172999	0.269142
C146	C	0.636727	-0.228329	0.324247
H147	H	0.720270	-0.132055	0.305263
H148	H	0.638464	-0.137023	0.233343
H149	H	0.720126	-0.209003	0.228016
H150	H	0.598413	-0.192386	0.365421
H151	H	0.680118	-0.264308	0.359991
O152	O	0.427449	-0.477182	0.477016
C153	C	0.301161	-0.521778	0.521421
C154	C	0.346285	-0.466507	0.466288
H155	H	0.235533	-0.513178	0.512754
H156	H	0.317258	-0.508075	0.584756
H157	H	0.317297	-0.585046	0.507529
H158	H	0.330174	-0.403220	0.480109
H159	H	0.330185	-0.480278	0.402969
O160	O	0.427658	-0.278988	0.279431
C161	C	0.436290	-0.179294	0.179996
C162	C	0.481352	-0.234623	0.235115
H163	H	0.479682	-0.143422	0.144140
H164	H	0.397959	-0.138252	0.216079
H165	H	0.397858	-0.215295	0.138923
H166	H	0.519826	-0.198686	0.276199
H167	H	0.519633	-0.275667	0.198982
