data_functionalizedCrystal
_audit_creation_method	'MofGen! by Chris Wilmer'
_symmetry_space_group_name_H-M	'P1'
_symmetry_Int_Tables_number	1
_symmetry_cell_setting	triclinic
loop_
_symmetry_equiv_pos_as_xyz
  x,y,z
_cell_length_a	17.077404
_cell_length_b	17.077402
_cell_length_c	17.077396
_cell_angle_alpha	89.970216
_cell_angle_beta	89.980499
_cell_angle_gamma	90.023108
loop_
_atom_site_label
_atom_site_type_symbol
_atom_site_fract_x
_atom_site_fract_y
_atom_site_fract_z
Zn1	Zn	1.200055	-0.312503	-0.443836
Zn2	Zn	1.199962	-0.443778	-0.312567
Zn3	Zn	1.068786	-0.312531	-0.312584
Zn4	Zn	1.068754	-0.443732	-0.443790
O5	O	1.134389	-0.378136	-0.378194
O6	O	1.309889	-0.329925	-0.426434
O7	O	1.182536	-0.426399	-0.202722
O8	O	1.086252	-0.202680	-0.330021
O9	O	1.309821	-0.426372	-0.329992
O10	O	1.182694	-0.202660	-0.426451
O11	O	1.086162	-0.329972	-0.202734
O12	O	0.958935	-0.329927	-0.329976
O13	O	1.086197	-0.426293	-0.553643
O14	O	0.958912	-0.426320	-0.426373
O15	O	1.182663	-0.329880	-0.553677
O16	O	1.182505	-0.553619	-0.329948
O17	O	1.086107	-0.553585	-0.426357
C18	C	0.930441	-0.378122	-0.378172
C19	C	0.843192	-0.378135	-0.378182
C20	C	0.802210	-0.428402	-0.428295
C21	C	0.720229	-0.428404	-0.428308
C22	C	0.679232	-0.378141	-0.378202
C23	C	0.720220	-0.327869	-0.328087
C24	C	0.802199	-0.327863	-0.328079
C25	C	0.549350	-0.327884	-0.328106
C26	C	0.467365	-0.327890	-0.328112
C27	C	0.467380	-0.428424	-0.428335
C28	C	0.549359	-0.428419	-0.428327
C29	C	0.590341	-0.378147	-0.378210
C30	C	1.134314	-0.582084	-0.378163
C31	C	1.134353	-0.669334	-0.378176
C32	C	1.184598	-0.710316	-0.328029
C33	C	1.184637	-0.792296	-0.328049
C34	C	1.134425	-0.833293	-0.378212
C35	C	1.084178	-0.792305	-0.428364
C36	C	1.084144	-0.710327	-0.428348
C37	C	1.084250	-0.963175	-0.428394
C38	C	1.084283	-1.045160	-0.428410
C39	C	1.184743	-1.045145	-0.328096
C40	C	1.184709	-0.963166	-0.328079
C41	C	1.134461	-0.922184	-0.378230
C42	C	1.339134	-0.378151	-0.378216
C43	C	1.426383	-0.378157	-0.378226
C44	C	1.134437	-0.378078	-0.582938
C45	C	1.134457	-0.378054	-0.670188
C46	C	1.134487	-0.173392	-0.378243
C47	C	1.134528	-0.086142	-0.378263
C48	C	1.184689	-0.327847	-0.711197
C49	C	1.184698	-0.327821	-0.793178
C50	C	1.134479	-0.378006	-0.834148
C51	C	1.084242	-0.428214	-0.793133
C52	C	1.084229	-0.428236	-0.711154
C53	C	1.084274	-0.428167	-0.964003
C54	C	1.084288	-0.428147	-1.045988
C55	C	1.184742	-0.327752	-1.046027
C56	C	1.184730	-0.327774	-0.964048
C57	C	1.134493	-0.377984	-0.923039
C58	C	1.134387	-0.378137	-0.174246
C59	C	1.134519	-0.377941	-0.086997
H60	H	0.582715	-0.286940	-0.287302
H61	H	1.043318	-0.469111	-0.677766
O62	O	0.842066	-0.477311	-0.476857
C63	C	0.934624	-0.583268	-0.487227
C64	C	0.889526	-0.527942	-0.432138
H65	H	0.973020	-0.624207	-0.451095
H66	H	0.891283	-0.619251	-0.523034
H67	H	0.973000	-0.547261	-0.528348
H68	H	0.851150	-0.563889	-0.390970
H69	H	0.932910	-0.491957	-0.396386
H70	H	0.433988	-0.286953	-0.287321
O71	O	1.233553	-0.279208	-0.671365
C72	C	1.339489	-0.268667	-0.578792
C73	C	1.284215	-0.323846	-0.623864
H74	H	1.380452	-0.304734	-0.540364
H75	H	1.375448	-0.232789	-0.622151
H76	H	1.303442	-0.227616	-0.540452
H77	H	1.320201	-0.364944	-0.662205
H78	H	1.248253	-0.359669	-0.580463
O79	O	1.035571	-0.477047	-0.832965
C80	C	1.024972	-0.582970	-0.925528
C81	C	1.080181	-0.527727	-0.880456
H82	H	1.061016	-0.623948	-0.963948
H83	H	0.989079	-0.618915	-0.882170
H84	H	0.983937	-0.546901	-0.963877
H85	H	1.121264	-0.563736	-0.842106
H86	H	1.116019	-0.491780	-0.923857
O87	O	0.680541	-0.477317	-0.477003
C88	C	0.689208	-0.577020	-0.576421
C89	C	0.734251	-0.521673	-0.521301
H90	H	0.732612	-0.612885	-0.612262
H91	H	0.650822	-0.618068	-0.540339
H92	H	0.650833	-0.541035	-0.617508
H93	H	0.772668	-0.557595	-0.480203
H94	H	0.772587	-0.480623	-0.557432
H95	H	0.686834	-0.286941	-0.287293
O96	O	1.035376	-0.670598	-0.477169
C97	C	0.997229	-0.645412	-0.610660
C98	C	1.052491	-0.690466	-0.555452
H99	H	1.011058	-0.661446	-0.673964
H100	H	0.933933	-0.661602	-0.596891
H101	H	1.005821	-0.579782	-0.601992
H102	H	1.043969	-0.756106	-0.564089
H103	H	1.115767	-0.674211	-0.569235
O104	O	0.427454	-0.477182	-0.476998
C105	C	0.301167	-0.521778	-0.521400
C106	C	0.346290	-0.466507	-0.466269
H107	H	0.235538	-0.513179	-0.512734
H108	H	0.317263	-0.508075	-0.584736
H109	H	0.317303	-0.585046	-0.507506
H110	H	0.330178	-0.403220	-0.480094
H111	H	0.330190	-0.480278	-0.402950
O112	O	1.233446	-0.923428	-0.279242
C113	C	1.271586	-0.898366	-0.145746
C114	C	1.216353	-0.943431	-0.200964
H115	H	1.257776	-0.914509	-0.082446
H116	H	1.334894	-0.914437	-0.159527
H117	H	1.262942	-0.832738	-0.154390
H118	H	1.224927	-1.009069	-0.192350
H119	H	1.153066	-0.927295	-0.187169
H120	H	1.043298	-0.825692	-0.469211
O121	O	0.841890	-0.279013	-0.279320
C122	C	0.833228	-0.179271	-0.179941
C123	C	0.788182	-0.234569	-0.235107
H124	H	0.789825	-0.143312	-0.144192
H125	H	0.871556	-0.215220	-0.138776
H126	H	0.871661	-0.138302	-0.216060
H127	H	0.749707	-0.275549	-0.199051
H128	H	0.749904	-0.198572	-0.276274
H129	H	0.582737	-0.469352	-0.469122
O130	O	1.233570	-0.279029	-0.832892
C131	C	1.333179	-0.179427	-0.824279
C132	C	1.277883	-0.234660	-0.779206
H133	H	1.369009	-0.143529	-0.780894
H134	H	1.374263	-0.215424	-0.862638
H135	H	1.297157	-0.138399	-0.862683
H136	H	1.313842	-0.275700	-0.740759
H137	H	1.236798	-0.198615	-0.740897
H138	H	1.225483	-0.676941	-0.287177
O139	O	1.233459	-0.278992	-1.085980
C140	C	1.278016	-0.234477	-1.212290
C141	C	1.222796	-0.289722	-1.167138
H142	H	1.269426	-0.243144	-1.277914
H143	H	1.264252	-0.171170	-1.196235
H144	H	1.341297	-0.248256	-1.196140
H145	H	1.159497	-0.276013	-1.183264
H146	H	1.236628	-0.353012	-1.183197
O147	O	1.035609	-0.476966	-1.085828
C148	C	1.024989	-0.582869	-1.178413
C149	C	1.080209	-0.527649	-1.133326
H150	H	1.061025	-0.623849	-1.216838
H151	H	0.989083	-0.618812	-1.135064
H152	H	0.983966	-0.546780	-1.216757
H153	H	1.121280	-0.563677	-1.094980
H154	H	1.116060	-0.491703	-1.176717
H155	H	1.043354	-0.469041	-0.930616
H156	H	1.225551	-0.825660	-0.287214
O157	O	1.035600	-1.084954	-0.477255
C158	C	0.997424	-1.109955	-0.610752
C159	C	1.052615	-1.064852	-0.555524
H160	H	1.011150	-1.093706	-0.674043
H161	H	1.006086	-1.175595	-0.602210
H162	H	0.934130	-1.093913	-0.596878
H163	H	1.115930	-1.080828	-0.569364
H164	H	1.043885	-0.999223	-0.564076
O165	O	1.035400	-0.923281	-0.477003
C166	C	0.929339	-0.830845	-0.487447
C167	C	0.984626	-0.875961	-0.432314
H168	H	0.888264	-0.792588	-0.451337
H169	H	0.965293	-0.792353	-0.528507
H170	H	0.893493	-0.874245	-0.523317
H171	H	1.020484	-0.832617	-0.396393
H172	H	0.948627	-0.914465	-0.391305
H173	H	1.225660	-1.078516	-0.287263
H174	H	1.225627	-0.286913	-0.930692
