data_functionalizedCrystal
_audit_creation_method	'MofGen! by Chris Wilmer'
_symmetry_space_group_name_H-M	'P1'
_symmetry_Int_Tables_number	1
_symmetry_cell_setting	triclinic
loop_
_symmetry_equiv_pos_as_xyz
  x,y,z
_cell_length_a	12.759401
_cell_length_b	11.169416
_cell_length_c	12.759393
_cell_angle_alpha	89.971874
_cell_angle_beta	89.979527
_cell_angle_gamma	90.011865
loop_
_atom_site_label
_atom_site_type_symbol
_atom_site_fract_x
_atom_site_fract_y
_atom_site_fract_z
Zn1	Zn	1.606293	-0.477694	-0.594041
Zn2	Zn	1.606199	-0.678425	-0.418371
Zn3	Zn	1.430594	-0.477759	-0.418377
Zn4	Zn	1.430597	-0.678339	-0.594008
O5	O	1.518421	-0.578054	-0.506199
O6	O	1.753302	-0.504329	-0.570750
O7	O	1.582864	-0.651869	-0.271350
O8	O	1.453938	-0.309801	-0.441696
O9	O	1.753233	-0.651806	-0.441685
O10	O	1.583024	-0.309753	-0.570756
O11	O	1.453847	-0.504442	-0.271355
O12	O	1.283573	-0.504358	-0.441663
O13	O	1.453945	-0.651659	-0.741033
O14	O	1.283576	-0.651723	-0.570698
O15	O	1.583028	-0.504246	-0.741058
O16	O	1.582868	-0.846363	-0.441653
O17	O	1.453854	-0.846300	-0.570692
C18	C	1.245454	-0.578039	-0.506178
C19	C	1.128677	-0.578062	-0.506194
C20	C	1.073844	-0.654912	-0.573277
C21	C	0.964120	-0.654916	-0.573298
C22	C	0.964071	-0.501218	-0.439144
C23	C	1.073793	-0.501209	-0.439129
C24	C	1.518379	-0.889879	-0.506191
C25	C	1.518458	-1.023279	-0.506223
C26	C	1.792454	-0.578070	-0.506221
C27	C	1.909231	-0.578076	-0.506230
C28	C	1.518497	-0.577936	-0.780233
C29	C	1.518530	-0.577885	-0.897009
C30	C	1.518491	-0.265012	-0.506230
C31	C	1.518521	-0.131612	-0.506243
C32	C	1.585770	-0.501070	-1.061617
C33	C	1.585750	-0.501116	-0.951893
C34	C	1.451333	-0.654622	-0.951856
C35	C	1.451359	-0.654580	-1.061578
C36	C	1.518405	-0.578085	-0.233232
C37	C	1.518576	-0.577798	-0.116456
H38	H	0.919372	-0.438649	-0.384540
H39	H	1.118527	-0.717488	-0.627889
Cl40	Cl	1.142732	-0.404582	-0.354796
H41	H	1.640467	-0.438638	-0.907248
Cl42	Cl	1.366829	-0.751134	-0.882859
Cl43	Cl	1.670270	-0.404542	-1.130603
H44	H	0.919480	-0.717493	-0.627925
Cl45	Cl	1.366887	-0.751054	-1.130523
