data_functionalizedCrystal
_audit_creation_method	'MofGen! by Chris Wilmer'
_symmetry_space_group_name_H-M	'P1'
_symmetry_Int_Tables_number	1
_symmetry_cell_setting	triclinic
loop_
_symmetry_equiv_pos_as_xyz
  x,y,z
_cell_length_a	17.077402
_cell_length_b	17.077404
_cell_length_c	17.077396
_cell_angle_alpha	89.978543
_cell_angle_beta	90.029784
_cell_angle_gamma	89.978013
loop_
_atom_site_label
_atom_site_type_symbol
_atom_site_fract_x
_atom_site_fract_y
_atom_site_fract_z
Zn1	Zn	-0.312527	-1.200055	0.443877
Zn2	Zn	-0.443802	-1.199962	0.312608
Zn3	Zn	-0.312552	-1.068786	0.312620
Zn4	Zn	-0.443753	-1.068754	0.443827
O5	O	-0.378158	-1.134389	0.378233
O6	O	-0.329951	-1.309889	0.426479
O7	O	-0.426422	-1.182536	0.202762
O8	O	-0.202702	-1.086252	0.330058
O9	O	-0.426398	-1.309821	0.330036
O10	O	-0.202683	-1.182694	0.426491
O11	O	-0.329993	-1.086162	0.202771
O12	O	-0.329946	-0.958935	0.330009
O13	O	-0.426314	-1.086197	0.553680
O14	O	-0.426338	-0.958912	0.426406
O15	O	-0.329903	-1.182663	0.553717
O16	O	-0.553642	-1.182505	0.329988
O17	O	-0.553606	-1.086107	0.426394
C18	C	-0.378140	-0.930441	0.378204
C19	C	-0.378151	-0.843192	0.378210
C20	C	-0.428418	-0.802210	0.428322
C21	C	-0.428418	-0.720229	0.428332
C22	C	-0.378155	-0.679232	0.378225
C23	C	-0.327883	-0.720220	0.328111
C24	C	-0.327879	-0.802199	0.328106
C25	C	-0.327895	-0.549350	0.328124
C26	C	-0.327899	-0.467365	0.328128
C27	C	-0.428433	-0.467380	0.428350
C28	C	-0.428430	-0.549359	0.428345
C29	C	-0.378159	-0.590341	0.378230
C30	C	-0.582106	-1.134314	0.378201
C31	C	-0.669356	-1.134353	0.378214
C32	C	-0.710339	-1.184598	0.328069
C33	C	-0.792319	-1.184637	0.328089
C34	C	-0.833315	-1.134425	0.378251
C35	C	-0.792327	-1.084178	0.428401
C36	C	-0.710348	-1.084144	0.428385
C37	C	-0.963197	-1.084250	0.428431
C38	C	-1.045181	-1.084283	0.428447
C39	C	-1.045168	-1.184743	0.328136
C40	C	-0.963189	-1.184709	0.328119
C41	C	-0.922206	-1.134461	0.378269
C42	C	-0.173414	-1.134487	0.378281
C43	C	-0.086164	-1.134528	0.378302
C44	C	-0.378100	-1.134437	0.582977
C45	C	-0.378076	-1.134457	0.670227
C46	C	-0.378172	-0.339134	0.378253
C47	C	-0.378166	-0.426383	0.378240
C48	C	-0.378159	-1.134387	0.174285
C49	C	-0.377963	-1.134519	0.087036
C50	C	-0.327870	-1.184689	0.711237
C51	C	-0.327844	-1.184698	0.793218
C52	C	-0.378028	-1.134479	0.834186
C53	C	-0.428236	-1.084242	0.793170
C54	C	-0.428257	-1.084229	0.711191
C55	C	-0.428188	-1.084274	0.964040
C56	C	-0.428168	-1.084288	1.046025
C57	C	-0.327776	-1.184742	1.046067
C58	C	-0.327797	-1.184730	0.964088
C59	C	-0.378006	-1.134493	0.923077
H60	H	-0.469364	-0.434009	0.469159
H61	H	-0.286952	-0.582715	0.287322
H62	H	-0.287007	-1.225585	0.677887
N63	N	-0.666149	-1.029943	0.482468
H64	H	-0.632187	-0.993571	0.450526
H65	H	-0.632130	-1.061862	0.518860
N66	N	-0.273613	-1.238910	1.090307
H67	H	-0.217532	-1.226740	1.076048
H68	H	-0.285875	-1.294970	1.076043
N69	N	-0.273674	-0.676009	0.274059
H70	H	-0.285801	-0.690258	0.217954
H71	H	-0.217624	-0.690317	0.286413
H72	H	-0.286937	-1.225627	0.930734
N73	N	-0.666121	-1.238755	0.273968
H74	H	-0.680438	-1.226605	0.217873
H75	H	-0.680351	-1.294817	0.286286
H76	H	-0.286964	-1.225603	0.826605
N77	N	-1.089399	-1.030129	0.482551
H78	H	-1.075088	-1.042289	0.538646
H79	H	-1.147536	-1.037801	0.474879
N80	N	-0.273688	-0.423144	0.274087
H81	H	-0.241836	-0.461544	0.242342
H82	H	-0.237410	-0.389154	0.306112
H83	H	-0.469093	-1.043350	0.826533
H84	H	-0.469030	-1.043393	1.079379
N85	N	-0.836519	-1.238829	0.274001
H86	H	-0.870587	-1.206963	0.237604
H87	H	-0.870431	-1.275195	0.305998
N88	N	-0.836546	-1.030020	0.482500
H89	H	-0.822329	-0.973936	0.470252
H90	H	-0.822215	-1.042239	0.538575
N91	N	-0.482337	-1.030088	0.919805
H92	H	-0.514127	-0.998278	0.958196
H93	H	-0.518675	-1.062019	0.885788
H94	H	-0.286943	-0.835565	0.287304
H95	H	-0.469363	-0.582737	0.469142
H96	H	-0.929810	-1.225591	0.287270
N97	N	-1.089365	-1.238941	0.274044
H98	H	-1.147519	-1.231349	0.281668
H99	H	-1.074979	-1.294990	0.286309
N100	N	-0.918991	-1.030058	0.482523
H101	H	-0.957400	-0.998252	0.514301
H102	H	-0.885029	-0.993737	0.450528
N103	N	-0.482405	-1.030043	0.666962
H104	H	-0.538490	-1.042206	0.681215
H105	H	-0.474738	-1.037673	0.608826
N106	N	-0.482636	-0.846425	0.482361
H107	H	-0.514478	-0.808020	0.514109
H108	H	-0.450730	-0.880467	0.518744
H109	H	-0.469351	-0.686866	0.469138
