data_functionalizedCrystal
_audit_creation_method	'MofGen! by Chris Wilmer'
_symmetry_space_group_name_H-M	'P1'
_symmetry_Int_Tables_number	1
_symmetry_cell_setting	triclinic
loop_
_symmetry_equiv_pos_as_xyz
  x,y,z
_cell_length_a	17.077402
_cell_length_b	12.759401
_cell_length_c	12.759393
_cell_angle_alpha	89.980324
_cell_angle_beta	89.965312
_cell_angle_gamma	90.023310
loop_
_atom_site_label
_atom_site_type_symbol
_atom_site_fract_x
_atom_site_fract_y
_atom_site_fract_z
Zn1	Zn	-0.312461	1.606207	-0.593954
Zn2	Zn	-0.443747	1.606073	-0.418261
Zn3	Zn	-0.312500	1.430505	-0.418293
Zn4	Zn	-0.443690	1.430472	-0.593902
O5	O	-0.378100	1.518314	-0.506103
O6	O	-0.329884	1.753210	-0.570656
O7	O	-0.426378	1.582741	-0.271244
O8	O	-0.202648	1.453882	-0.441630
O9	O	-0.426340	1.753111	-0.441576
O10	O	-0.202620	1.582969	-0.570687
O11	O	-0.329951	1.453753	-0.271268
O12	O	-0.329895	1.283480	-0.441580
O13	O	-0.426242	1.453826	-0.740930
O14	O	-0.426280	1.283456	-0.570599
O15	O	-0.329829	1.582937	-0.740968
O16	O	-0.553587	1.582709	-0.441526
O17	O	-0.553545	1.453696	-0.570568
C18	C	-0.378086	1.245347	-0.506088
C19	C	-0.378099	1.128570	-0.506106
C20	C	-0.327966	1.073760	-0.573422
C21	C	-0.327974	0.964036	-0.573429
C22	C	-0.428256	0.963942	-0.438802
C23	C	-0.428243	1.073664	-0.438790
C24	C	-0.582048	1.518213	-0.506061
C25	C	-0.669297	1.518265	-0.506078
C26	C	-0.710283	1.585511	-0.438958
C27	C	-0.792264	1.585563	-0.438984
C28	C	-0.833257	1.518362	-0.506127
C29	C	-0.792265	1.451114	-0.573255
C30	C	-0.710286	1.451068	-0.573233
C31	C	-0.963135	1.451211	-0.573295
C32	C	-1.045120	1.451255	-0.573316
C33	C	-1.045113	1.585705	-0.439047
C34	C	-0.963134	1.585660	-0.439024
C35	C	-0.922148	1.518410	-0.506151
C36	C	-0.173355	1.518445	-0.506168
C37	C	-0.086106	1.518500	-0.506196
C38	C	-0.378024	1.518393	-0.780136
C39	C	-0.377992	1.518426	-0.896913
C40	C	-0.378114	1.792347	-0.506118
C41	C	-0.378120	1.909124	-0.506125
C42	C	-0.327782	1.585660	-0.951796
C43	C	-0.327748	1.585677	-1.061521
C44	C	-0.428142	1.451226	-1.061468
C45	C	-0.428171	1.451203	-0.951746
C46	C	-0.378118	1.518296	-0.233135
C47	C	-0.377929	1.518466	-0.116359
H48	H	-0.469082	0.919224	-0.383996
F49	F	-0.835881	1.657138	-0.367549
H50	H	-0.929767	1.396452	-0.627960
H51	H	-0.286860	1.640424	-1.106202
F52	F	-0.835895	1.379600	-0.644720
F53	F	-0.481611	1.379636	-0.893332
H54	H	-1.078488	1.640466	-0.384393
H55	H	-0.676916	1.396311	-0.627890
H56	H	-0.469069	1.118291	-0.383968
H57	H	-0.676912	1.640229	-0.384278
H58	H	-0.286921	1.640394	-0.907155
F59	F	-0.919508	1.657181	-0.367562
H60	H	-0.287133	1.118462	-0.628233
F61	F	-0.274614	0.905708	-0.645075
H62	H	-1.078494	1.396554	-0.628009
F63	F	-0.481545	1.379690	-1.119835
