data_functionalizedCrystal
_audit_creation_method	'MofGen! by Chris Wilmer'
_symmetry_space_group_name_H-M	'P1'
_symmetry_Int_Tables_number	1
_symmetry_cell_setting	triclinic
loop_
_symmetry_equiv_pos_as_xyz
  x,y,z
_cell_length_a	21.395362
_cell_length_b	17.077403
_cell_length_c	17.077396
_cell_angle_alpha	90.019195
_cell_angle_beta	89.963454
_cell_angle_gamma	89.983406
loop_
_atom_site_label
_atom_site_type_symbol
_atom_site_fract_x
_atom_site_fract_y
_atom_site_fract_z
Zn1	Zn	0.957944	0.312163	-0.444310
Zn2	Zn	0.957915	0.443441	-0.313069
Zn3	Zn	0.853173	0.312230	-0.313014
Zn4	Zn	0.853183	0.443427	-0.444248
O5	O	0.905554	0.377815	-0.378660
O6	O	1.045618	0.329555	-0.426950
O7	O	0.944004	0.426070	-0.203215
O8	O	0.867079	0.202374	-0.330433
O9	O	1.045597	0.426005	-0.330528
O10	O	0.944054	0.202325	-0.426896
O11	O	0.867050	0.329670	-0.203174
O12	O	0.765496	0.329656	-0.330373
O13	O	0.867097	0.425980	-0.554104
O14	O	0.765504	0.426045	-0.426790
O15	O	0.944064	0.329541	-0.554149
O16	O	0.944014	0.553286	-0.330468
O17	O	0.867068	0.553276	-0.426844
C18	C	0.742766	0.377857	-0.378569
C19	C	0.673125	0.377893	-0.378549
C20	C	0.905568	0.173071	-0.378666
C21	C	0.905575	0.085821	-0.378668
C22	C	0.865503	0.044855	-0.328447
C23	C	0.865508	-0.037125	-0.328457
C24	C	0.905588	-0.078138	-0.378684
C25	C	0.945661	-0.037167	-0.428910
C26	C	0.945653	0.044812	-0.428904
C27	C	0.945677	-0.208037	-0.428919
C28	C	0.945686	-0.290021	-0.428925
C29	C	0.865532	-0.289974	-0.328472
C30	C	0.865524	-0.207995	-0.328466
C31	C	0.905598	-0.167029	-0.378691
C32	C	0.640432	0.428150	-0.428679
C33	C	0.574997	0.428131	-0.428713
C34	C	0.542257	0.377863	-0.378605
C35	C	0.574957	0.327597	-0.328472
C36	C	0.640391	0.327612	-0.328444
C37	C	0.438537	0.371556	-0.307937
C38	C	0.373104	0.371546	-0.307963
C39	C	0.340436	0.377812	-0.378692
C40	C	0.373209	0.384104	-0.449396
C41	C	0.438643	0.384119	-0.449368
C42	C	0.471304	0.377841	-0.378630
C43	C	0.236791	0.428051	-0.428863
C44	C	0.171354	0.428026	-0.428900
C45	C	0.171316	0.327496	-0.328651
C46	C	0.236751	0.327516	-0.328622
C47	C	0.269485	0.377798	-0.378727
C48	C	1.068977	0.377774	-0.378752
C49	C	1.138618	0.377757	-0.378791
C50	C	0.905556	0.581763	-0.378673
C51	C	0.905615	0.669013	-0.378704
C52	C	0.905585	0.377752	-0.583405
C53	C	0.905598	0.377725	-0.670655
C54	C	0.945725	0.427829	-1.046493
C55	C	0.945709	0.427852	-0.964512
C56	C	0.905638	0.377669	-0.923504
C57	C	0.865576	0.327466	-0.964480
C58	C	0.865590	0.327448	-1.046459
C59	C	0.865553	0.327506	-0.793610
C60	C	0.865541	0.327524	-0.711625
C61	C	0.945672	0.427911	-0.711663
C62	C	0.945685	0.427892	-0.793642
C63	C	0.905624	0.377688	-0.834613
C64	C	0.905559	0.377822	-0.174713
C65	C	0.905667	0.377628	-0.087463
H66	H	0.832867	0.078243	-0.287544
H67	H	0.144737	0.468949	-0.469726
C68	C	0.821504	0.272258	-0.919367
N69	N	0.788311	0.230669	-0.885389
C70	C	0.989737	0.483140	-0.666594
N71	N	1.022927	0.524735	-0.632645
C72	C	0.337280	0.390993	-0.527204
N73	N	0.310215	0.396183	-0.585807
C74	C	0.989762	-0.162976	-0.484168
N75	N	1.022968	-0.129037	-0.525778
H76	H	0.548373	0.469056	-0.469538
C77	C	0.821456	0.272327	-0.666517
N78	N	0.788249	0.230753	-0.632542
C79	C	0.272800	0.483352	-0.483988
N80	N	0.299920	0.525003	-0.525511
H81	H	0.978293	-0.070564	-0.469810
H82	H	0.978278	0.078165	-0.469804
C83	C	0.821525	0.272221	-1.091526
N84	N	0.788333	0.230623	-1.125469
H85	H	0.978320	0.468740	-0.931158
H86	H	0.832878	-0.070479	-0.287564
H87	H	0.832890	-0.174604	-0.287562
H88	H	0.832902	-0.323333	-0.287578
C89	C	0.538942	0.272302	-0.273353
N90	N	0.511815	0.230651	-0.231837
H91	H	0.667080	0.469092	-0.469479
C92	C	0.989764	-0.335134	-0.484192
N93	N	1.022960	-0.369113	-0.525826
C94	C	0.474692	0.391039	-0.527140
N95	N	0.501843	0.396250	-0.585720
C96	C	0.135305	0.272200	-0.273531
N97	N	0.108179	0.230548	-0.232015
H98	H	0.832931	0.286625	-0.826965
H99	H	0.263370	0.286596	-0.287797
C100	C	0.337059	0.364620	-0.230188
N101	N	0.309912	0.359398	-0.171606
C102	C	0.474464	0.364666	-0.230124
N103	N	0.501524	0.359478	-0.171517
C104	C	0.676354	0.272327	-0.273291
N105	N	0.703443	0.230688	-0.231747
C106	C	0.989806	0.483035	-1.091595
N107	N	1.023007	0.524621	-1.125564
H108	H	0.978317	0.468752	-0.827029
