data_functionalizedCrystal
_audit_creation_method	'MofGen! by Chris Wilmer'
_symmetry_space_group_name_H-M	'P1'
_symmetry_Int_Tables_number	1
_symmetry_cell_setting	triclinic
loop_
_symmetry_equiv_pos_as_xyz
  x,y,z
_cell_length_a	21.395362
_cell_length_b	21.395361
_cell_length_c	21.395364
_cell_angle_alpha	89.982373
_cell_angle_beta	90.034975
_cell_angle_gamma	89.953415
loop_
_atom_site_label
_atom_site_type_symbol
_atom_site_fract_x
_atom_site_fract_y
_atom_site_fract_z
Zn1	Zn	0.957804	0.249270	0.354572
Zn2	Zn	0.957723	0.354022	0.249789
Zn3	Zn	0.853035	0.249292	0.249774
Zn4	Zn	0.852988	0.354042	0.354494
O5	O	0.905388	0.301657	0.302157
O6	O	1.045471	0.263148	0.340712
O7	O	0.943822	0.340130	0.162109
O8	O	0.866987	0.161611	0.263702
O9	O	1.045412	0.340109	0.263728
O10	O	0.943960	0.161595	0.340697
O11	O	0.866908	0.263185	0.162098
O12	O	0.765351	0.263205	0.263626
O13	O	0.866906	0.340143	0.442182
O14	O	0.765316	0.340165	0.340563
O15	O	0.943914	0.263167	0.442240
O16	O	0.943776	0.441703	0.263653
O17	O	0.866828	0.441718	0.340579
C18	C	0.905305	0.464444	0.302123
C19	C	0.905327	0.534085	0.302129
C20	C	0.742600	0.301690	0.302085
C21	C	0.672959	0.301719	0.302068
C22	C	0.905414	0.301655	0.465581
C23	C	0.905425	0.301654	0.535222
C24	C	0.640244	0.341845	0.342070
C25	C	0.574808	0.341830	0.342098
C26	C	0.542090	0.301695	0.302113
C27	C	0.574813	0.261561	0.262109
C28	C	0.640247	0.261573	0.262087
C29	C	0.438374	0.296643	0.245708
C30	C	0.372942	0.296636	0.245729
C31	C	0.340270	0.301654	0.302182
C32	C	0.373039	0.306693	0.358616
C33	C	0.438473	0.306705	0.358593
C34	C	0.471138	0.301677	0.302133
C35	C	0.236602	0.341766	0.342217
C36	C	0.171166	0.341746	0.342246
C37	C	0.171172	0.261480	0.262252
C38	C	0.236607	0.261497	0.262228
C39	C	0.269318	0.301643	0.302210
C40	C	1.068811	0.301624	0.302231
C41	C	1.138452	0.301610	0.302262
C42	C	0.905488	0.138233	0.302206
C43	C	0.905530	0.068592	0.302227
C44	C	0.945429	0.566770	0.262114
C45	C	0.945458	0.632205	0.262128
C46	C	0.905374	0.664954	0.302150
C47	C	0.865269	0.632261	0.342172
C48	C	0.865245	0.566827	0.342161
C49	C	0.848958	0.768685	0.307041
C50	C	0.848981	0.834118	0.307047
C51	C	0.905447	0.866774	0.302187
C52	C	0.961892	0.833990	0.297307
C53	C	0.961869	0.768556	0.297296
C54	C	0.905395	0.735906	0.302166
C55	C	0.945584	0.970412	0.262186
C56	C	0.945614	1.035848	0.262204
C57	C	0.865419	1.035903	0.342245
C58	C	0.865395	0.970467	0.342230
C59	C	0.905476	0.937726	0.302197
C60	C	0.865383	0.261592	0.567919
C61	C	0.865371	0.261595	0.633355
C62	C	0.905414	0.301654	0.666090
C63	C	0.945459	0.341724	0.633385
C64	C	0.945465	0.341724	0.567951
C65	C	0.961851	0.306588	0.769795
C66	C	0.961847	0.306584	0.835228
C67	C	0.905396	0.301658	0.867911
C68	C	0.848948	0.296723	0.835153
C69	C	0.848954	0.296723	0.769719
C70	C	0.905412	0.301659	0.737043
C71	C	0.865338	0.261597	0.971561
C72	C	0.865325	0.261605	1.036997
C73	C	0.945419	0.341731	1.037027
C74	C	0.945426	0.341726	0.971591
C75	C	0.905386	0.301656	0.938862
C76	C	0.905362	0.301670	1.139370
C77	C	0.905368	0.301665	1.069729
H78	H	0.666873	0.374534	0.374627
C79	C	0.336898	0.291138	0.183654
H80	H	0.293249	0.291870	0.191750
H81	H	0.347624	0.252974	0.163661
H82	H	0.347581	0.325200	0.157257
C83	C	0.989721	1.071804	0.218180
H84	H	0.983998	1.115464	0.223921
H85	H	0.980564	1.061110	0.176072
H86	H	1.031814	1.061029	0.227393
H87	H	1.007810	0.310599	0.861895
C88	C	0.337109	0.312211	0.420717
H89	H	0.293446	0.311474	0.412651
H90	H	0.347811	0.350387	0.440679
H91	H	0.347895	0.278165	0.447130
H92	H	0.465151	0.310806	0.404543
H93	H	0.803020	0.860806	0.311015
H94	H	0.832765	0.228968	0.659982
C95	C	0.989509	0.385786	0.669389
H96	H	1.013357	0.409650	0.640541
H97	H	1.016821	0.361812	0.694939
H98	H	0.965521	0.413093	0.694891
H99	H	0.832784	1.062566	0.374834
C100	C	0.821274	0.934512	0.386238
H101	H	0.797400	0.963386	0.410072
H102	H	0.845211	0.908943	0.413564
H103	H	0.793979	0.909033	0.362225
C104	C	0.786842	0.732769	0.312392
H105	H	0.753230	0.761664	0.315292
H106	H	0.787624	0.707226	0.348708
H107	H	0.781348	0.707266	0.276469
H108	H	0.978024	0.374346	1.063679
C109	C	1.023949	0.312013	0.733848
H110	H	1.015868	0.311314	0.690186
H111	H	1.050328	0.277927	0.744598
H112	H	1.043954	0.350158	0.744576
H113	H	0.832633	0.658929	0.374759
H114	H	0.666883	0.228896	0.229512
H115	H	0.832713	0.228983	1.063618
H116	H	0.263237	0.374452	0.374776
H117	H	0.832734	0.228970	0.944911
C118	C	0.474307	0.291089	0.183609
H119	H	0.445421	0.288085	0.150005
H120	H	0.499858	0.254768	0.184503
H121	H	0.499804	0.326985	0.178007
C122	C	0.786866	0.291306	0.733686
H123	H	0.753243	0.288378	0.762518
H124	H	0.787702	0.254990	0.708169
H125	H	0.781346	0.327223	0.708149
H126	H	0.263244	0.228825	0.229652
C127	C	0.135190	0.217325	0.218277
H128	H	0.091533	0.223064	0.224019
H129	H	0.145969	0.175246	0.227527
H130	H	0.145859	0.226429	0.176154
C131	C	0.135179	0.385896	0.386241
H132	H	0.164035	0.409812	0.410041
H133	H	0.109700	0.361977	0.413600
H134	H	0.109607	0.413149	0.362217
H135	H	0.832588	0.540215	0.374747
H136	H	0.832777	0.228966	0.541275
H137	H	0.978075	0.374347	0.541329
C138	C	0.786847	0.291323	0.871094
H139	H	0.794925	0.292042	0.914756
H140	H	0.766825	0.253188	0.860377
H141	H	0.760484	0.325422	0.860332
C142	C	0.538826	0.217414	0.218127
H143	H	0.495170	0.223157	0.223865
H144	H	0.549599	0.175333	0.227371
H145	H	0.549501	0.226523	0.176006
C146	C	0.989481	0.385788	0.935623
H147	H	1.013332	0.409643	0.964489
H148	H	0.965502	0.413092	0.910069
H149	H	1.016799	0.361808	0.910126
H150	H	0.548167	0.374505	0.374674
H151	H	1.007872	0.860578	0.293349
C152	C	0.989524	0.530758	0.218087
H153	H	1.013416	0.559599	0.194262
H154	H	0.965569	0.505270	0.190753
H155	H	1.016802	0.505192	0.242090
C156	C	0.989571	0.668169	0.218111
H157	H	0.983846	0.711829	0.223855
H158	H	0.980423	0.657477	0.176001
H159	H	1.031662	0.657394	0.227333
C160	C	1.023951	0.732492	0.291939
H161	H	1.015847	0.688846	0.292626
H162	H	1.050287	0.743169	0.326058
H163	H	1.044017	0.743206	0.253819
C164	C	0.989678	0.934393	0.218159
H165	H	1.013574	0.963233	0.194336
H166	H	0.965721	0.908909	0.190823
H167	H	1.016953	0.908824	0.242162
