data_functionalizedCrystal
_audit_creation_method	'MofGen! by Chris Wilmer'
_symmetry_space_group_name_H-M	'P1'
_symmetry_Int_Tables_number	1
_symmetry_cell_setting	triclinic
loop_
_symmetry_equiv_pos_as_xyz
  x,y,z
_cell_length_a	17.077404
_cell_length_b	12.759400
_cell_length_c	12.759393
_cell_angle_alpha	89.969420
_cell_angle_beta	89.979838
_cell_angle_gamma	90.014910
loop_
_atom_site_label
_atom_site_type_symbol
_atom_site_fract_x
_atom_site_fract_y
_atom_site_fract_z
Zn1	Zn	1.200104	-0.418208	-0.594068
Zn2	Zn	1.200029	-0.593924	-0.418388
Zn3	Zn	1.068835	-0.418260	-0.418398
Zn4	Zn	1.068823	-0.593846	-0.594020
O5	O	1.134448	-0.506060	-0.506219
O6	O	1.309941	-0.441528	-0.570780
O7	O	1.182599	-0.570676	-0.271368
O8	O	1.086285	-0.271232	-0.441725
O9	O	1.309886	-0.570626	-0.441708
O10	O	1.182728	-0.271194	-0.570789
O11	O	1.086211	-0.441617	-0.271376
O12	O	0.958986	-0.441542	-0.441679
O13	O	1.086265	-0.570493	-0.741048
O14	O	0.958978	-0.570544	-0.570708
O15	O	1.182716	-0.441453	-0.741083
O16	O	1.182588	-0.740935	-0.441662
O17	O	1.086191	-0.740878	-0.570698
C18	C	0.930500	-0.506041	-0.506190
C19	C	0.843250	-0.506058	-0.506202
C20	C	0.802276	-0.573331	-0.573280
C21	C	0.720296	-0.573333	-0.573297
C22	C	0.679291	-0.506067	-0.506230
C23	C	0.720271	-0.438787	-0.439149
C24	C	0.802250	-0.438780	-0.439138
C25	C	0.549401	-0.438807	-0.439174
C26	C	0.467416	-0.438815	-0.439183
C27	C	0.467447	-0.573360	-0.573333
C28	C	0.549426	-0.573354	-0.573322
C29	C	0.590400	-0.506075	-0.506240
C30	C	1.134401	-0.779027	-0.506197
C31	C	1.134453	-0.895804	-0.506222
C32	C	1.184702	-0.950661	-0.439108
C33	C	1.184751	-1.060385	-0.439140
C34	C	1.084294	-1.060385	-0.573405
C35	C	1.084250	-0.950663	-0.573377
C36	C	1.242698	-0.950661	-0.361588
C37	C	1.242746	-1.060385	-0.361620
C38	C	1.339192	-0.506080	-0.506248
C39	C	1.426442	-0.506088	-0.506261
C40	C	1.134498	-0.505958	-0.780252
C41	C	1.134519	-0.505915	-0.897029
C42	C	1.134516	-0.232026	-0.506264
C43	C	1.134545	-0.115250	-0.506283
C44	C	1.184745	-0.573044	-1.061608
C45	C	1.184716	-0.573089	-0.951884
C46	C	1.084342	-0.438700	-0.951904
C47	C	1.084368	-0.438662	-1.061626
C48	C	1.242698	-0.650629	-1.061596
C49	C	1.242669	-0.650674	-0.951872
C50	C	1.134443	-0.506085	-0.233251
C51	C	1.134574	-0.505832	-0.116475
H52	H	0.835656	-0.628110	-0.627890
C53	C	0.594470	-0.364799	-0.365377
N54	N	0.628417	-0.309062	-0.309790
C55	C	1.029068	-1.120741	-0.647264
N56	N	0.987468	-1.166200	-0.702894
C57	C	1.213285	-0.904793	-0.257131
N58	N	1.191123	-0.870245	-0.178458
C59	C	1.320773	-1.106249	-0.401084
N60	N	1.379542	-1.140795	-0.430807
C61	C	0.422312	-0.364815	-0.365410
N62	N	0.388340	-0.309077	-0.309844
C63	C	1.320735	-0.611248	-1.107588
N64	N	1.379513	-0.581584	-1.142230
H65	H	1.303461	-0.628889	-0.922099
C66	C	0.847321	-0.364777	-0.365346
N67	N	0.881267	-0.309033	-0.309764
C68	C	1.220803	-1.100731	-0.251682
N69	N	1.204273	-1.131119	-0.168880
H70	H	0.686878	-0.384013	-0.384547
H71	H	0.686938	-0.628114	-0.627917
C72	C	1.213205	-0.755106	-0.905873
N73	N	1.191006	-0.833760	-0.871226
C74	C	1.029009	-0.890324	-0.647258
N75	N	0.987411	-0.844878	-0.702924
C76	C	1.029174	-0.364726	-1.121976
N77	N	0.987601	-0.309033	-1.167431
H78	H	1.043466	-0.384013	-0.907232
C79	C	1.324801	-0.910320	-0.391116
N80	N	1.386639	-0.879935	-0.413357
H81	H	0.582810	-0.628133	-0.627928
H82	H	0.434082	-0.628139	-0.627956
H83	H	1.226405	-0.731988	-1.091356
