data_functionalizedCrystal
_audit_creation_method	'MofGen! by Chris Wilmer'
_symmetry_space_group_name_H-M	'P1'
_symmetry_Int_Tables_number	1
_symmetry_cell_setting	triclinic
loop_
_symmetry_equiv_pos_as_xyz
  x,y,z
_cell_length_a	17.077395
_cell_length_b	17.077404
_cell_length_c	17.077402
_cell_angle_alpha	90.023108
_cell_angle_beta	90.028524
_cell_angle_gamma	90.015641
loop_
_atom_site_label
_atom_site_type_symbol
_atom_site_fract_x
_atom_site_fract_y
_atom_site_fract_z
Zn1	Zn	-0.443836	-1.200025	0.312513
Zn2	Zn	-0.312567	-1.199941	0.443785
Zn3	Zn	-0.312584	-1.068765	0.312538
Zn4	Zn	-0.443790	-1.068725	0.443741
O5	O	-0.378194	-1.134364	0.378144
O6	O	-0.426434	-1.309860	0.329935
O7	O	-0.202722	-1.182522	0.426404
O8	O	-0.330021	-1.086230	0.202688
O9	O	-0.329992	-1.309799	0.426380
O10	O	-0.426451	-1.182665	0.202670
O11	O	-0.202734	-1.086148	0.329977
O12	O	-0.329976	-0.958913	0.329934
O13	O	-0.553643	-1.086160	0.426305
O14	O	-0.426373	-0.958883	0.426329
O15	O	-0.553677	-1.182626	0.329892
O16	O	-0.329948	-1.182482	0.553626
O17	O	-0.426357	-1.086078	0.553594
C18	C	-0.378172	-0.930416	0.378130
C19	C	-0.378182	-0.843166	0.378143
C20	C	-0.582938	-1.134398	0.378091
C21	C	-0.670188	-1.134412	0.378068
C22	C	-1.046021	-1.184729	0.327760
C23	C	-0.964041	-1.184713	0.327787
C24	C	-0.923037	-1.134477	0.377994
C25	C	-0.964018	-1.084259	0.428182
C26	C	-1.045997	-1.084279	0.428158
C27	C	-0.793148	-1.084218	0.428228
C28	C	-0.711164	-1.084196	0.428251
C29	C	-0.711192	-1.184651	0.327857
C30	C	-0.793171	-1.184672	0.327833
C31	C	-0.834146	-1.134453	0.378020
C32	C	-0.378163	-1.134288	0.582092
C33	C	-0.378176	-1.134327	0.669342
C34	C	-0.174246	-1.134375	0.378141
C35	C	-0.086997	-1.134513	0.377942
C36	C	-0.378216	-1.339108	0.378159
C37	C	-0.378226	-1.426358	0.378166
C38	C	-0.428295	-0.802181	0.428411
C39	C	-0.428308	-0.720200	0.428413
C40	C	-0.378202	-0.679207	0.378150
C41	C	-0.328087	-0.720198	0.327876
C42	C	-0.328079	-0.802177	0.327871
C43	C	-0.328106	-0.549328	0.327891
C44	C	-0.328112	-0.467343	0.327897
C45	C	-0.428335	-0.467352	0.428434
C46	C	-0.428326	-0.549330	0.428429
C47	C	-0.378210	-0.590316	0.378155
C48	C	-0.378243	-1.134461	0.173400
C49	C	-0.378263	-1.134503	0.086150
C50	C	-0.328029	-1.184576	0.710323
C51	C	-0.328049	-1.184615	0.792303
C52	C	-0.378212	-1.134400	0.833301
C53	C	-0.428364	-1.084149	0.792315
C54	C	-0.428348	-1.084115	0.710336
C55	C	-0.428394	-1.084221	0.963185
C56	C	-0.428410	-1.084254	1.045170
C57	C	-0.328096	-1.184721	1.045152
C58	C	-0.328079	-1.184687	0.963173
C59	C	-0.378230	-1.134435	0.922192
H60	H	-1.079401	-1.225632	0.286870
C61	C	-0.838219	-1.028973	0.483435
N62	N	-0.872167	-0.987359	0.525013
H63	H	-0.930627	-1.043359	0.469065
C64	C	-0.272972	-0.594410	0.272590
N65	N	-0.231443	-0.628365	0.230941
C66	C	-0.483513	-1.028838	0.665258
N67	N	-0.525068	-0.987203	0.631305
H68	H	-0.287228	-1.225572	0.929793
C69	C	-0.918972	-1.239947	0.272575
N70	N	-0.885026	-1.281550	0.230985
C71	C	-1.091070	-1.029037	0.483362
N72	N	-1.125017	-0.987427	0.524944
C73	C	-0.483421	-0.675120	0.483728
N74	N	-0.524931	-0.641167	0.525398
C75	C	-0.483467	-0.422266	0.483731
N76	N	-0.524991	-0.388304	0.525381
C77	C	-0.666117	-1.239898	0.272655
N78	N	-0.632164	-1.281507	0.231077
H79	H	-0.287214	-1.225532	0.825666
H80	H	-0.287263	-1.225641	1.078523
C81	C	-0.272843	-1.239816	0.665233
N82	N	-0.231277	-1.281426	0.631273
H83	H	-0.469272	-1.043379	1.078548
C84	C	-0.666061	-1.028946	0.483493
N85	N	-0.632090	-0.987333	0.525105
C86	C	-0.483416	-0.847266	0.483706
N87	N	-0.524937	-0.881223	0.525354
C88	C	-0.483557	-1.028934	0.918108
N89	N	-0.525099	-0.987288	0.884156
C90	C	-0.272948	-0.847260	0.272573
N91	N	-0.231424	-0.881216	0.230920
H92	H	-0.469122	-0.582705	0.469362
H93	H	-0.287293	-0.686814	0.286947
H94	H	-0.287321	-0.433968	0.286959
H95	H	-0.826554	-1.225575	0.286946
H96	H	-0.469211	-1.043266	0.825702
