data_functionalizedCrystal
_audit_creation_method	'MofGen! by Chris Wilmer'
_symmetry_space_group_name_H-M	'P1'
_symmetry_Int_Tables_number	1
_symmetry_cell_setting	triclinic
loop_
_symmetry_equiv_pos_as_xyz
  x,y,z
_cell_length_a	21.395355
_cell_length_b	17.077404
_cell_length_c	17.077403
_cell_angle_alpha	89.999063
_cell_angle_beta	89.994146
_cell_angle_gamma	90.024450
loop_
_atom_site_label
_atom_site_type_symbol
_atom_site_fract_x
_atom_site_fract_y
_atom_site_fract_z
Zn1	Zn	-0.354315	-1.200214	-0.312594
Zn2	Zn	-0.104315	-0.950214	-0.062594
Zn3	Zn	0.145685	-0.700214	0.187406
Zn4	Zn	0.395685	-0.450214	0.437406
Zn5	Zn	-0.249561	-1.200160	-0.443842
Zn6	Zn	0.000439	-0.950160	-0.193842
Zn7	Zn	0.250439	-0.700160	0.056158
Zn8	Zn	0.500439	-0.450160	0.306158
Zn9	Zn	-0.249552	-1.068934	-0.312595
Zn10	Zn	0.000448	-0.818934	-0.062595
Zn11	Zn	0.250448	-0.568934	0.187405
Zn12	Zn	0.500448	-0.318934	0.437405
Zn13	Zn	-0.354301	-1.068965	-0.443823
Zn14	Zn	-0.104301	-0.818965	-0.193823
Zn15	Zn	0.145699	-0.568965	0.056177
Zn16	Zn	0.395699	-0.318965	0.306177
O17	O	-0.301932	-1.134568	-0.378213
O18	O	-0.051932	-0.884568	-0.128213
O19	O	0.198068	-0.634568	0.121787
O20	O	0.448068	-0.384568	0.371787
O21	O	-0.340429	-1.310054	-0.330013
O22	O	-0.090429	-1.060054	-0.080013
O23	O	0.159571	-0.810054	0.169987
O24	O	0.409571	-0.560054	0.419987
O25	O	-0.161882	-1.182718	-0.426441
O26	O	0.088118	-0.932718	-0.176441
O27	O	0.338118	-0.682718	0.073559
O28	O	0.588118	-0.432718	0.323559
O29	O	-0.263451	-1.086359	-0.202748
O30	O	-0.013451	-0.836359	0.047252
O31	O	0.236549	-0.586359	0.297252
O32	O	0.486549	-0.336359	0.547252
O33	O	-0.263466	-1.310014	-0.426440
O34	O	-0.013466	-1.060014	-0.176440
O35	O	0.236534	-0.810014	0.073560
O36	O	0.486534	-0.560014	0.323560
O37	O	-0.340420	-1.182809	-0.202747
O38	O	-0.090420	-0.932809	0.047253
O39	O	0.159580	-0.682809	0.297253
O40	O	0.409580	-0.432809	0.547253
O41	O	-0.161875	-1.086307	-0.330014
O42	O	0.088125	-0.836307	-0.080014
O43	O	0.338125	-0.586307	0.169986
O44	O	0.588125	-0.336307	0.419986
O45	O	-0.263437	-0.959091	-0.329995
O46	O	-0.013437	-0.709091	-0.079995
O47	O	0.236563	-0.459091	0.170005
O48	O	0.486563	-0.209091	0.420005
O49	O	-0.441981	-1.086410	-0.426406
O50	O	-0.191981	-0.836410	-0.176406
O51	O	0.058019	-0.586410	0.073594
O52	O	0.308019	-0.336410	0.323594
O53	O	-0.340396	-0.959114	-0.426407
O54	O	-0.090396	-0.709114	-0.176407
O55	O	0.159604	-0.459114	0.073593
O56	O	0.409604	-0.209114	0.323593
O57	O	-0.441991	-1.182838	-0.329993
O58	O	-0.191991	-0.932838	-0.079993
O59	O	0.058009	-0.682838	0.170007
O60	O	0.308009	-0.432838	0.420007
O61	O	-0.263452	-1.182747	-0.553687
O62	O	-0.013452	-0.932747	-0.303687
O63	O	0.236548	-0.682747	-0.053687
O64	O	0.486548	-0.432747	0.196313
O65	O	-0.340405	-1.086358	-0.553672
O66	O	-0.090405	-0.836358	-0.303672
O67	O	0.159595	-0.586358	-0.053672
O68	O	0.409595	-0.336358	0.196328
C69	C	-0.301915	-0.930620	-0.378199
C70	C	-0.051915	-0.680620	-0.128199
C71	C	0.198085	-0.430620	0.121801
C72	C	0.448085	-0.180620	0.371801
C73	C	-0.301922	-0.843371	-0.378212
C74	C	-0.051922	-0.593371	-0.128212
C75	C	0.198078	-0.343371	0.121788
C76	C	0.448078	-0.093371	0.371788
C77	C	-0.465355	-1.134633	-0.378198
C78	C	-0.215355	-0.884633	-0.128198
C79	C	0.034645	-0.634633	0.121802
C80	C	0.284645	-0.384633	0.371802
C81	C	-0.534997	-1.134661	-0.378191
C82	C	-0.284997	-0.884661	-0.128191
C83	C	-0.034997	-0.634661	0.121809
C84	C	0.215003	-0.384661	0.371809
C85	C	-0.301942	-1.134572	-0.582161
C86	C	-0.051942	-0.884572	-0.332161
C87	C	0.198058	-0.634572	-0.082161
C88	C	0.448058	-0.384572	0.167839
C89	C	-0.301967	-1.134645	-0.669411
C90	C	-0.051967	-0.884645	-0.419411
C91	C	0.198033	-0.634645	-0.169411
C92	C	0.448033	-0.384645	0.080589
C93	C	-0.567716	-1.184869	-0.327987
C94	C	-0.317716	-0.934869	-0.077987
C95	C	-0.067716	-0.684869	0.172013
C96	C	0.182284	-0.434869	0.422013
C97	C	-0.633152	-1.184868	-0.327953
C98	C	-0.383152	-0.934868	-0.077953
C99	C	-0.133152	-0.684868	0.172047
C100	C	0.116848	-0.434868	0.422047
C101	C	-0.665865	-1.134667	-0.378137
C102	C	-0.415865	-0.884667	-0.128137
C103	C	-0.165865	-0.634667	0.121863
C104	C	0.084135	-0.384667	0.371863
C105	C	-0.633138	-1.084449	-0.428345
C106	C	-0.383138	-0.834449	-0.178345
C107	C	-0.133138	-0.584449	0.071655
C108	C	0.116862	-0.334449	0.321655
C109	C	-0.567704	-1.084446	-0.428372
C110	C	-0.317704	-0.834446	-0.178372
C111	C	-0.067704	-0.584446	0.071628
C112	C	0.182296	-0.334446	0.321628
C113	C	-0.769543	-1.128470	-0.448817
C114	C	-0.519543	-0.878470	-0.198817
C115	C	-0.269543	-0.628470	0.051183
C116	C	-0.019543	-0.378470	0.301183
C117	C	-0.834976	-1.128479	-0.448792
C118	C	-0.584976	-0.878479	-0.198792
C119	C	-0.334976	-0.628479	0.051208
C120	C	-0.084976	-0.378479	0.301208
C121	C	-0.867686	-1.134672	-0.378054
C122	C	-0.617686	-0.884672	-0.128054
C123	C	-0.367686	-0.634672	0.121946
C124	C	-0.117686	-0.384672	0.371946
C125	C	-0.834955	-1.140873	-0.307340
C126	C	-0.584955	-0.890873	-0.057340
C127	C	-0.334955	-0.640873	0.192660
C128	C	-0.084955	-0.390873	0.442660
C129	C	-0.769521	-1.140870	-0.307367
C130	C	-0.519521	-0.890870	-0.057367
C131	C	-0.269521	-0.640870	0.192633
C132	C	-0.019521	-0.390870	0.442633
C133	C	-0.736817	-1.134665	-0.378114
C134	C	-0.486817	-0.884665	-0.128114
C135	C	-0.236817	-0.634665	0.121886
C136	C	0.013183	-0.384665	0.371886
C137	C	-0.971358	-1.184882	-0.327809
C138	C	-0.721358	-0.934882	-0.077809
C139	C	-0.471358	-0.684882	0.172191
C140	C	-0.221358	-0.434882	0.422191
C141	C	-1.036795	-1.184875	-0.327774
C142	C	-0.786795	-0.934875	-0.077774
C143	C	-0.536795	-0.684875	0.172226
C144	C	-0.286795	-0.434875	0.422226
C145	C	-1.036779	-1.084461	-0.428174
C146	C	-0.786779	-0.834461	-0.178174
C147	C	-0.536779	-0.584461	0.071826
C148	C	-0.286779	-0.334461	0.321826
C149	C	-0.971344	-1.084463	-0.428202
C150	C	-0.721344	-0.834463	-0.178202
C151	C	-0.471344	-0.584463	0.071798
C152	C	-0.221344	-0.334463	0.321798
C153	C	-0.938637	-1.134678	-0.378021
C154	C	-0.688637	-0.884678	-0.128021
C155	C	-0.438637	-0.634678	0.121979
C156	C	-0.188637	-0.384678	0.371979
C157	C	-0.139144	-1.134549	-0.378173
C158	C	0.110856	-0.884549	-0.128173
C159	C	0.360856	-0.634549	0.121827
C160	C	0.610856	-0.384549	0.371827
C161	C	-0.069504	-1.134673	-0.377958
C162	C	0.180496	-0.884673	-0.127958
C163	C	0.430496	-0.634673	0.122042
C164	C	0.680496	-0.384673	0.372042
C165	C	-0.301950	-1.339313	-0.378228
C166	C	-0.051950	-1.089313	-0.128228
C167	C	0.198050	-0.839313	0.121772
C168	C	0.448050	-0.589313	0.371772
C169	C	-0.301957	-1.426562	-0.378235
C170	C	-0.051957	-1.176562	-0.128235
C171	C	0.198043	-0.926562	0.121765
C172	C	0.448043	-0.676562	0.371765
C173	C	-0.341930	-0.802413	-0.428490
C174	C	-0.091930	-0.552413	-0.178490
C175	C	0.158070	-0.302413	0.071510
C176	C	0.408070	-0.052413	0.321510
C177	C	-0.341940	-0.720432	-0.428491
C178	C	-0.091940	-0.470432	-0.178491
C179	C	0.158060	-0.220432	0.071509
C180	C	0.408060	0.029568	0.321509
C181	C	-0.301939	-0.679411	-0.378219
C182	C	-0.051939	-0.429411	-0.128219
C183	C	0.198061	-0.179411	0.121781
C184	C	0.448061	0.070589	0.371781
C185	C	-0.261929	-0.720375	-0.327936
C186	C	-0.011929	-0.470375	-0.077936
C187	C	0.238071	-0.220375	0.172064
C188	C	0.488071	0.029625	0.422064
C189	C	-0.261922	-0.802354	-0.327931
C190	C	-0.011922	-0.552354	-0.077931
C191	C	0.238078	-0.302354	0.172069
C192	C	0.488078	-0.052354	0.422069
C193	C	-0.261944	-0.549505	-0.327951
C194	C	-0.011944	-0.299505	-0.077951
C195	C	0.238056	-0.049505	0.172049
C196	C	0.488056	0.200495	0.422049
C197	C	-0.261949	-0.467520	-0.327957
C198	C	-0.011949	-0.217520	-0.077957
C199	C	0.238051	0.032480	0.172043
C200	C	0.488051	0.282480	0.422043
C201	C	-0.341962	-0.467583	-0.428512
C202	C	-0.091962	-0.217583	-0.178512
C203	C	0.158038	0.032417	0.071488
C204	C	0.408038	0.282417	0.321488
C205	C	-0.341955	-0.549562	-0.428507
C206	C	-0.091955	-0.299562	-0.178507
C207	C	0.158045	-0.049562	0.071493
C208	C	0.408045	0.200438	0.321493
C209	C	-0.301945	-0.590520	-0.378225
C210	C	-0.051945	-0.340520	-0.128225
C211	C	0.198055	-0.090520	0.121775
C212	C	0.448055	0.159480	0.371775
C213	C	-0.301936	-1.134587	-0.173469
C214	C	-0.051936	-0.884587	0.076531
C215	C	0.198064	-0.634587	0.326531
C216	C	0.448064	-0.384587	0.576531
C217	C	-0.301938	-1.134594	-0.086219
C218	C	-0.051938	-0.884594	0.163781
C219	C	0.198062	-0.634594	0.413781
C220	C	0.448062	-0.384594	0.663781
C221	C	-0.261866	-1.084384	-0.045228
C222	C	-0.011866	-0.834384	0.204772
C223	C	0.238134	-0.584384	0.454772
C224	C	0.488134	-0.334384	0.704772
C225	C	-0.261874	-1.084390	0.036752
C226	C	-0.011874	-0.834390	0.286752
C227	C	0.238126	-0.584390	0.536752
C228	C	0.488126	-0.334390	0.786752
C229	C	-0.301951	-1.134611	0.077740
C230	C	-0.051951	-0.884611	0.327740
C231	C	0.198049	-0.634611	0.577740
C232	C	0.448049	-0.384611	0.827740
C233	C	-0.342027	-1.184823	0.036743
C234	C	-0.092027	-0.934823	0.286743
C235	C	0.157973	-0.684823	0.536743
C236	C	0.407973	-0.434823	0.786743
C237	C	-0.342022	-1.184812	-0.045236
C238	C	-0.092022	-0.934812	0.204764
C239	C	0.157978	-0.684812	0.454764
C240	C	0.407978	-0.434812	0.704764
C241	C	-0.342034	-1.184843	0.207613
C242	C	-0.092034	-0.934843	0.457613
C243	C	0.157966	-0.684843	0.707613
C244	C	0.407966	-0.434843	0.957613
C245	C	-0.342038	-1.184855	0.289598
C246	C	-0.092038	-0.934855	0.539598
C247	C	0.157962	-0.684855	0.789598
C248	C	0.407962	-0.434855	1.039598
C249	C	-0.261886	-1.084421	0.289601
C250	C	-0.011886	-0.834421	0.539601
C251	C	0.238114	-0.584421	0.789601
C252	C	0.488114	-0.334421	1.039601
C253	C	-0.261881	-1.084410	0.207622
C254	C	-0.011881	-0.834410	0.457622
C255	C	0.238119	-0.584410	0.707622
C256	C	0.488119	-0.334410	0.957622
C257	C	-0.301956	-1.134624	0.166631
C258	C	-0.051956	-0.884624	0.416631
C259	C	0.198044	-0.634624	0.666631
C260	C	0.448044	-0.384624	0.916631
H261	H	-0.541090	-1.225757	-0.287124
H262	H	-0.291090	-0.975757	-0.037124
H263	H	-0.041090	-0.725757	0.212876
H264	H	0.208910	-0.475757	0.462876
H265	H	-0.861586	-1.145918	-0.249739
H266	H	-0.611586	-0.895918	0.000261
H267	H	-0.361586	-0.645918	0.250261
H268	H	-0.111586	-0.395918	0.500261
Cl269	Cl	-0.392270	-0.416094	-0.491713
Cl270	Cl	-0.142270	-0.166094	-0.241713
Cl271	Cl	0.107730	0.083906	0.008287
Cl272	Cl	0.357730	0.333906	0.258287
Cl273	Cl	-0.392400	-1.247935	-0.096768
Cl274	Cl	-0.142400	-0.997935	0.153232
Cl275	Cl	0.107600	-0.747935	0.403232
Cl276	Cl	0.357600	-0.497935	0.653232
Cl277	Cl	-0.876117	-1.120690	-0.537688
Cl278	Cl	-0.626117	-0.870690	-0.287688
Cl279	Cl	-0.376117	-0.620690	-0.037688
Cl280	Cl	-0.126117	-0.370690	0.212312
H281	H	-0.374502	-0.835806	-0.469430
H282	H	-0.124502	-0.585806	-0.219430
H283	H	0.125498	-0.335806	0.030570
H284	H	0.375498	-0.085806	0.280570
Cl285	Cl	-0.930209	-1.021344	-0.491323
Cl286	Cl	-0.680209	-0.771344	-0.241323
Cl287	Cl	-0.430209	-0.521344	0.008677
Cl288	Cl	-0.180209	-0.271344	0.258677
H289	H	-0.742916	-1.123217	-0.506405
H290	H	-0.492916	-0.873217	-0.256405
H291	H	-0.242916	-0.623217	-0.006405
H292	H	0.007084	-0.373217	0.243595
H293	H	-0.659797	-1.225752	-0.287066
H294	H	-0.409797	-0.975752	-0.037066
H295	H	-0.159797	-0.725752	0.212934
H296	H	0.090203	-0.475752	0.462934
H297	H	-0.374518	-0.687088	-0.469433
H298	H	-0.124518	-0.437088	-0.219433
H299	H	0.125482	-0.187088	0.030567
H300	H	0.375482	0.062912	0.280567
Cl301	Cl	-0.728375	-1.148660	-0.218474
Cl302	Cl	-0.478375	-0.898660	0.031526
Cl303	Cl	-0.228375	-0.648660	0.281526
Cl304	Cl	0.021625	-0.398660	0.531526
Cl305	Cl	-1.077928	-1.248012	-0.264666
Cl306	Cl	-0.827928	-0.998012	-0.014666
Cl307	Cl	-0.577928	-0.748012	0.235334
Cl308	Cl	-0.327928	-0.498012	0.485334
Cl309	Cl	-0.211658	-0.415952	-0.264760
Cl310	Cl	0.038342	-0.165952	-0.014760
Cl311	Cl	0.288342	0.084048	0.235240
Cl312	Cl	0.538342	0.334048	0.485240
H313	H	-0.229368	-0.582851	-0.286999
H314	H	0.020632	-0.332851	-0.036999
H315	H	0.270632	-0.082851	0.213001
H316	H	0.520632	0.167149	0.463001
Cl317	Cl	-1.077899	-1.021343	-0.491256
Cl318	Cl	-0.827899	-0.771343	-0.241256
Cl319	Cl	-0.577899	-0.521343	0.008744
Cl320	Cl	-0.327899	-0.271343	0.258744
H321	H	-0.659777	-1.043573	-0.469203
H322	H	-0.409777	-0.793573	-0.219203
H323	H	-0.159777	-0.543573	0.030797
H324	H	0.090223	-0.293573	0.280797
Cl325	Cl	-0.211478	-1.021250	-0.096748
Cl326	Cl	0.038522	-0.771250	0.153252
Cl327	Cl	0.288522	-0.521250	0.403252
Cl328	Cl	0.538522	-0.271250	0.653252
H329	H	-0.541064	-1.043557	-0.469253
H330	H	-0.291064	-0.793557	-0.219253
H331	H	-0.041064	-0.543557	0.030747
H332	H	0.208936	-0.293557	0.280747
H333	H	-0.374525	-0.582959	-0.469448
H334	H	-0.124525	-0.332959	-0.219448
H335	H	0.125475	-0.082959	0.030552
H336	H	0.375475	0.167041	0.280552
Cl337	Cl	-0.211644	-0.668806	-0.264730
Cl338	Cl	0.038356	-0.418806	-0.014730
Cl339	Cl	0.288356	-0.168806	0.235270
Cl340	Cl	0.538356	0.081194	0.485270
H341	H	-0.944727	-1.225765	-0.286945
H342	H	-0.694727	-0.975765	-0.036945
H343	H	-0.444727	-0.725765	0.213055
H344	H	-0.194727	-0.475765	0.463055
Cl345	Cl	-0.392416	-1.247950	0.088271
Cl346	Cl	-0.142416	-0.997950	0.338271
Cl347	Cl	0.107584	-0.747950	0.588271
Cl348	Cl	0.357584	-0.497950	0.838271
Cl349	Cl	-0.211626	-0.853844	-0.264720
Cl350	Cl	0.038374	-0.603844	-0.014720
Cl351	Cl	0.288374	-0.353844	0.235280
Cl352	Cl	0.538374	-0.103844	0.485280
H353	H	-0.229245	-1.043505	0.070127
H354	H	0.020755	-0.793505	0.320127
H355	H	0.270755	-0.543505	0.570127
H356	H	0.520755	-0.293505	0.820127
H357	H	-0.229244	-1.043521	0.174252
H358	H	0.020756	-0.793521	0.424252
H359	H	0.270756	-0.543521	0.674252
H360	H	0.520756	-0.293521	0.924252
H361	H	-0.229256	-1.043535	0.322981
H362	H	0.020744	-0.793535	0.572981
H363	H	0.270744	-0.543535	0.822981
H364	H	0.520744	-0.293535	1.072981
H365	H	-0.374674	-1.225748	0.322966
H366	H	-0.124674	-0.975748	0.572966
H367	H	0.125326	-0.725748	0.822966
H368	H	0.375326	-0.475748	1.072966
Cl369	Cl	-0.392413	-1.247971	0.156083
Cl370	Cl	-0.142413	-0.997971	0.406083
Cl371	Cl	0.107587	-0.747971	0.656083
Cl372	Cl	0.357587	-0.497971	0.906083
