data_functionalizedCrystal
_audit_creation_method	'MofGen! by Chris Wilmer'
_symmetry_space_group_name_H-M	'P1'
_symmetry_Int_Tables_number	1
_symmetry_cell_setting	triclinic
loop_
_symmetry_equiv_pos_as_xyz
  x,y,z
_cell_length_a	17.077404
_cell_length_b	12.759399
_cell_length_c	17.077396
_cell_angle_alpha	89.973830
_cell_angle_beta	89.982756
_cell_angle_gamma	90.015909
loop_
_atom_site_label
_atom_site_type_symbol
_atom_site_fract_x
_atom_site_fract_y
_atom_site_fract_z
Zn1	Zn	1.200076	-0.418251	-0.443860
Zn2	Zn	1.700076	0.081749	0.056140
Zn3	Zn	1.200005	-0.593954	-0.312601
Zn4	Zn	1.700005	-0.093954	0.187399
Zn5	Zn	1.068813	-0.418291	-0.312608
Zn6	Zn	1.568813	0.081709	0.187392
Zn7	Zn	1.068793	-0.593890	-0.443825
Zn8	Zn	1.568793	-0.093890	0.056175
O9	O	1.134422	-0.506097	-0.378223
O10	O	1.634422	-0.006097	0.121777
O11	O	1.309914	-0.441569	-0.426460
O12	O	1.809914	0.058431	0.073540
O13	O	1.182581	-0.570696	-0.202755
O14	O	1.682581	-0.070696	0.297245
O15	O	1.086264	-0.271264	-0.330036
O16	O	1.586264	0.228736	0.169964
O17	O	1.309862	-0.570658	-0.330025
O18	O	1.809862	-0.070658	0.169975
O19	O	1.182703	-0.271236	-0.426467
O20	O	1.682703	0.228764	0.073533
O21	O	1.086195	-0.441637	-0.202760
O22	O	1.586195	0.058363	0.297240
O23	O	0.958964	-0.441574	-0.330002
O24	O	1.458964	0.058426	0.169998
O25	O	1.086229	-0.570547	-0.553676
O26	O	1.586229	-0.070547	-0.053676
O27	O	0.958949	-0.570585	-0.426407
O28	O	1.458949	-0.070585	0.073593
O29	O	1.182683	-0.441506	-0.553702
O30	O	1.682683	0.058494	-0.053702
O31	O	1.182561	-0.740967	-0.329991
O32	O	1.682561	-0.240967	0.170009
O33	O	1.086160	-0.740919	-0.426400
O34	O	1.586160	-0.240919	0.073600
C35	C	0.930474	-0.506077	-0.378202
C36	C	1.430474	-0.006077	0.121798
C37	C	0.843224	-0.506095	-0.378211
C38	C	1.343224	-0.006095	0.121789
C39	C	0.802247	-0.573372	-0.428328
C40	C	1.302247	-0.073372	0.071672
C41	C	0.720266	-0.573375	-0.428341
C42	C	1.220266	-0.073375	0.071659
C43	C	0.679265	-0.506104	-0.378232
C44	C	1.179265	-0.006104	0.121768
C45	C	0.720248	-0.438819	-0.328112
C46	C	1.220248	0.061181	0.171888
C47	C	0.802227	-0.438812	-0.328104
C48	C	1.302227	0.061188	0.171896
C49	C	0.549378	-0.438839	-0.328131
C50	C	1.049378	0.061161	0.171869
C51	C	0.467393	-0.438847	-0.328138
C52	C	0.967393	0.061153	0.171862
C53	C	0.467417	-0.573402	-0.428368
C54	C	0.967417	-0.073402	0.071632
C55	C	0.549396	-0.573395	-0.428360
C56	C	1.049396	-0.073395	0.071640
C57	C	0.590374	-0.506111	-0.378239
C58	C	1.090374	-0.006111	0.121761
C59	C	1.134372	-0.779064	-0.378208
C60	C	1.634372	-0.279064	0.121792
C61	C	1.134422	-0.895841	-0.378228
C62	C	1.634422	-0.395841	0.121772
C63	C	1.084332	-1.060537	-0.328011
C64	C	1.584332	-0.560537	0.171989
C65	C	1.084278	-0.950813	-0.327992
C66	C	1.584278	-0.450813	0.172008
C67	C	1.184617	-0.950597	-0.428492
C68	C	1.684617	-0.450597	0.071508
C69	C	1.184666	-1.060319	-0.428515
C70	C	1.684666	-0.560319	0.071485
C71	C	1.026404	-1.060661	-0.269986
C72	C	1.526404	-0.560661	0.230014
C73	C	1.026351	-0.950937	-0.269966
C74	C	1.526351	-0.450937	0.230034
C75	C	1.339166	-0.506116	-0.378246
C76	C	1.839166	-0.006116	0.121754
C77	C	1.426416	-0.506125	-0.378255
C78	C	1.926416	-0.006125	0.121745
C79	C	1.134461	-0.506015	-0.582968
C80	C	1.634461	-0.006015	-0.082968
C81	C	1.134478	-0.505980	-0.670218
C82	C	1.634478	-0.005980	-0.170218
C83	C	1.134494	-0.232063	-0.378256
C84	C	1.634494	0.267937	0.121744
C85	C	1.134524	-0.115287	-0.378270
C86	C	1.634524	0.384713	0.121730
C87	C	1.084305	-0.438771	-0.711210
C88	C	1.584305	0.061229	-0.211210
C89	C	1.084318	-0.438747	-0.793190
C90	C	1.584318	0.061253	-0.293190
C91	C	1.134508	-0.505928	-0.834177
C92	C	1.634508	-0.005928	-0.334177
C93	C	1.184683	-0.573145	-0.793179
C94	C	1.684683	-0.073145	-0.293179
C95	C	1.184666	-0.573173	-0.711200
C96	C	1.684666	-0.073173	-0.211200
C97	C	1.184717	-0.573079	-0.964049
C98	C	1.684717	-0.073079	-0.464049
C99	C	1.184736	-0.573050	-1.046034
C100	C	1.684736	-0.073050	-0.546034
C101	C	1.084369	-0.438653	-1.046039
C102	C	1.584369	0.061347	-0.546039
C103	C	1.084352	-0.438682	-0.964060
C104	C	1.584352	0.061318	-0.464060
C105	C	1.134528	-0.505897	-0.923068
C106	C	1.634528	-0.005897	-0.423068
C107	C	1.134428	-0.506102	-0.174276
C108	C	1.634428	-0.006102	0.325724
C109	C	1.134563	-0.505840	-0.087026
C110	C	1.634563	-0.005840	0.412974
H111	H	0.686906	-0.628160	-0.469151
H112	H	1.186906	-0.128160	0.030849
C113	C	0.594497	-0.647390	-0.483479
C114	C	1.094497	-0.147390	0.016521
H115	H	0.558352	-0.687456	-0.513336
H116	H	1.058352	-0.187456	-0.013336
H117	H	0.626460	-0.693111	-0.453390
H118	H	1.126460	-0.193111	0.046610
H119	H	0.626495	-0.607244	-0.517731
H120	H	1.126495	-0.107244	-0.017731
H121	H	1.043439	-0.384059	-0.677844
H122	H	1.543439	0.115941	-0.177844
H123	H	1.225440	-0.905831	-0.469400
H124	H	1.725440	-0.405831	0.030600
C125	C	1.055881	-1.106692	-0.192010
C126	C	1.555881	-0.606692	0.307990
H127	H	1.054913	-1.181051	-0.194686
H128	H	1.554913	-0.681051	0.305314
H129	H	1.022974	-1.083780	-0.150561
H130	H	1.522974	-0.583780	0.349439
H131	H	1.107953	-1.083656	-0.182686
H132	H	1.607953	-0.583656	0.317314
C133	C	0.944286	-1.100974	-0.291917
C134	C	1.444286	-0.600974	0.208083
H135	H	0.944322	-1.175431	-0.291924
H136	H	1.444322	-0.675431	0.208076
H137	H	0.930662	-1.076130	-0.342556
H138	H	1.430662	-0.576130	0.157444
H139	H	0.907213	-1.076242	-0.254788
H140	H	1.407213	-0.576242	0.245212
C141	C	0.847345	-0.647376	-0.483443
C142	C	1.347345	-0.147376	0.016557
H143	H	0.902038	-0.637748	-0.476255
H144	H	1.402038	-0.137748	0.023745
H145	H	0.833936	-0.632097	-0.536207
H146	H	1.333936	-0.132097	-0.036207
H147	H	0.833890	-0.717950	-0.471856
H148	H	1.333890	-0.217950	0.028144
H149	H	0.968568	-0.916954	-0.291680
H150	H	1.468568	-0.416954	0.208320
C151	C	0.422346	-0.647407	-0.483504
C152	C	0.922346	-0.147407	0.016496
H153	H	0.367650	-0.637769	-0.476341
H154	H	0.867650	-0.137769	0.023659
H155	H	0.435763	-0.717977	-0.471923
H156	H	0.935763	-0.217977	0.028077
H157	H	0.435808	-0.632114	-0.536266
H158	H	0.935808	-0.132114	-0.036266
C159	C	1.239856	-0.647103	-0.666109
C160	C	1.739856	-0.147103	-0.166109
H161	H	1.269755	-0.687105	-0.702259
H162	H	1.769755	-0.187105	-0.202259
H163	H	1.209807	-0.692886	-0.634120
H164	H	1.709807	-0.192886	-0.134120
H165	H	1.274066	-0.606926	-0.634137
H166	H	1.774066	-0.106926	-0.134137
C167	C	1.048387	-0.910755	-0.187855
C168	C	1.548387	-0.410755	0.312145
H169	H	1.057494	-0.968687	-0.154101
H170	H	1.557494	-0.468687	0.345899
H171	H	1.006773	-0.869465	-0.167607
H172	H	1.506773	-0.369465	0.332393
H173	H	1.094502	-0.869334	-0.191203
H174	H	1.594502	-0.369334	0.308797
H175	H	0.582740	-0.384040	-0.287324
H176	H	1.082740	0.115960	0.212676
C177	C	0.422293	-0.364841	-0.273027
C178	C	0.922293	0.135159	0.226973
H179	H	0.458437	-0.324756	-0.243185
H180	H	0.958437	0.175244	0.256815
H181	H	0.390291	-0.404968	-0.238773
H182	H	0.890291	0.095032	0.261227
H183	H	0.390334	-0.319123	-0.303130
H184	H	0.890334	0.180877	0.196870
C185	C	1.029133	-0.364811	-0.838278
C186	C	1.529133	0.135189	-0.338278
H187	H	0.999247	-0.324795	-0.802127
H188	H	1.499247	0.175205	-0.302127
H189	H	0.994923	-0.404979	-0.870250
H190	H	1.494923	0.095021	-0.370250
H191	H	1.059187	-0.319026	-0.870267
H192	H	1.559187	0.180974	-0.370267
C193	C	1.239872	-1.120540	-0.483805
C194	C	1.739872	-0.620540	0.016195
H195	H	1.269730	-1.072087	-0.513718
H196	H	1.769730	-0.572087	-0.013718
H197	H	1.209839	-1.163345	-0.517984
H198	H	1.709839	-0.663345	-0.017984
H199	H	1.274119	-1.163331	-0.453817
H200	H	1.774119	-0.663331	0.046183
C201	C	1.029152	-0.364750	-1.091127
C202	C	1.529152	0.135250	-0.591127
H203	H	1.036336	-0.374370	-1.145821
H204	H	1.536336	0.125630	-0.645821
H205	H	1.040638	-0.294156	-1.077716
H206	H	1.540638	0.205844	-0.577716
H207	H	0.976408	-0.380155	-1.077671
H208	H	1.476408	0.119845	-0.577671
C209	C	0.675152	-0.364818	-0.272993
C210	C	1.175152	0.135182	0.227007
H211	H	0.711301	-0.324741	-0.243149
H212	H	1.211301	0.175259	0.256851
H213	H	0.643152	-0.404950	-0.238742
H214	H	1.143152	0.095050	0.261258
H215	H	0.643193	-0.319091	-0.303089
H216	H	1.143193	0.180909	0.196911
H217	H	1.043486	-0.383972	-0.930691
H218	H	1.543486	0.116028	-0.430691
C219	C	1.239949	-0.646940	-1.091119
C220	C	1.739949	-0.146940	-0.591119
H221	H	1.269824	-0.686982	-1.054965
H222	H	1.769824	-0.186982	-0.554965
H223	H	1.274167	-0.606734	-1.123102
H224	H	1.774167	-0.106734	-0.623102
H225	H	1.209914	-0.692703	-1.123094
H226	H	1.709914	-0.192703	-0.623094
C227	C	1.239909	-0.647017	-0.918959
C228	C	1.739909	-0.147017	-0.418959
H229	H	1.269808	-0.687017	-0.955109
H230	H	1.769808	-0.187017	-0.455109
H231	H	1.209863	-0.692801	-0.886970
H232	H	1.709863	-0.192801	-0.386970
H233	H	1.274118	-0.606835	-0.886989
H234	H	1.774118	-0.106835	-0.386989
H235	H	1.225545	-0.627850	-0.826557
H236	H	1.725545	-0.127850	-0.326557
H237	H	0.835590	-0.384022	-0.287298
H238	H	1.335590	0.115978	0.212702
