data_functionalizedCrystal
_audit_creation_method	'MofGen! by Chris Wilmer'
_symmetry_space_group_name_H-M	'P1'
_symmetry_Int_Tables_number	1
_symmetry_cell_setting	triclinic
loop_
_symmetry_equiv_pos_as_xyz
  x,y,z
_cell_length_a	21.395364
_cell_length_b	12.759400
_cell_length_c	21.395355
_cell_angle_alpha	90.013847
_cell_angle_beta	90.024727
_cell_angle_gamma	90.013017
loop_
_atom_site_label
_atom_site_type_symbol
_atom_site_fract_x
_atom_site_fract_y
_atom_site_fract_z
Zn1	Zn	0.957929	-0.418435	0.354285
Zn2	Zn	0.957861	-0.594099	0.249516
Zn3	Zn	0.853144	-0.418430	0.249521
Zn4	Zn	0.853142	-0.594067	0.354256
O5	O	0.905519	-0.506258	0.301894
O6	O	1.045598	-0.441753	0.340397
O7	O	0.943942	-0.570808	0.161839
O8	O	0.867073	-0.271409	0.263433
O9	O	1.045548	-0.570812	0.263424
O10	O	0.944058	-0.271413	0.340402
O11	O	0.867007	-0.441744	0.161842
O12	O	0.765466	-0.441713	0.263404
O13	O	0.867070	-0.570758	0.441937
O14	O	0.765465	-0.570753	0.340352
O15	O	0.944057	-0.441721	0.441959
O16	O	0.943940	-0.741116	0.263395
O17	O	0.867004	-0.741092	0.340347
C18	C	0.742731	-0.506230	0.301876
C19	C	0.673090	-0.506243	0.301883
C20	C	0.171310	-0.573572	0.341922
C21	C	0.236745	-0.573572	0.341916
C22	C	0.269452	-0.506281	0.301914
C23	C	0.236718	-0.439003	0.261905
C24	C	0.171283	-0.439012	0.261908
C25	C	0.373125	-0.411598	0.297058
C26	C	0.438558	-0.411587	0.297059
C27	C	0.471272	-0.506253	0.301900
C28	C	0.438546	-0.600933	0.306753
C29	C	0.373112	-0.600942	0.306757
C30	C	0.340404	-0.506264	0.301906
C31	C	0.574951	-0.573532	0.341897
C32	C	0.640388	-0.573534	0.341886
C33	C	0.640359	-0.438955	0.261878
C34	C	0.574924	-0.438963	0.261886
C35	C	0.542224	-0.506250	0.301899
C36	C	0.905482	-0.779225	0.301881
C37	C	0.905523	-0.896002	0.301897
C38	C	0.945628	-0.950841	0.261872
C39	C	0.945667	-1.060565	0.261891
C40	C	0.865490	-1.060601	0.341962
C41	C	0.865455	-0.950879	0.341945
C42	C	0.991916	-0.950822	0.215642
C43	C	0.991954	-1.060546	0.215661
C44	C	1.068942	-0.506287	0.301913
C45	C	1.138583	-0.506299	0.301921
C46	C	0.905571	-0.506236	0.465318
C47	C	0.905593	-0.506227	0.534959
C48	C	0.905573	-0.232224	0.301921
C49	C	0.905596	-0.115448	0.301933
C50	C	0.905503	-0.506203	0.139107
C51	C	0.905602	-0.505916	0.069466
C52	C	0.945678	-0.439035	0.567684
C53	C	0.945677	-0.438990	0.633120
C54	C	0.905598	-0.506156	0.665827
C55	C	0.865505	-0.573353	0.633094
C56	C	0.865503	-0.573388	0.567660
C57	C	0.900638	-0.600755	0.769497
C58	C	0.900645	-0.600721	0.834930
C59	C	0.905602	-0.506045	0.867648
C60	C	0.910565	-0.411400	0.834925
C61	C	0.910563	-0.411436	0.769491
C62	C	0.905596	-0.506124	0.736780
C63	C	0.945688	-0.438798	0.971326
C64	C	0.945683	-0.438751	1.036763
C65	C	0.865514	-0.573123	1.036736
C66	C	0.865516	-0.573160	0.971301
C67	C	0.905606	-0.506000	0.938599
H68	H	0.666988	-0.384169	0.229306
C69	C	1.056630	-0.911217	0.233066
C70	C	1.096250	-0.996684	0.243741
C71	C	1.155865	-0.960240	0.259801
H72	H	1.072836	-0.869888	0.199895
H73	H	1.053987	-0.869859	0.269901
H74	H	1.098895	-1.038024	0.206910
H75	H	1.080064	-1.038021	0.276914
H76	H	1.153222	-0.918883	0.296636
H77	H	1.172064	-0.918911	0.226627
H78	H	1.182753	-1.018224	0.267051
H79	H	0.832878	-0.627882	0.944655
C80	C	0.974536	-1.100283	0.150974
C81	C	0.914916	-1.063693	0.135104
C82	C	0.898846	-1.100291	0.075526
H83	H	1.004076	-1.075480	0.121328
H84	H	0.974525	-1.174743	0.150974
H85	H	0.914931	-0.989249	0.135099
H86	H	0.885362	-1.088494	0.164733
H87	H	0.898835	-1.174750	0.075526
H88	H	0.928390	-1.075485	0.045886
H89	H	0.858390	-1.075478	0.064753
C90	C	0.135834	-0.366024	0.218371
C91	C	0.151735	-0.388743	0.156359
C92	C	0.119099	-0.321517	0.116235
H93	H	0.092170	-0.375590	0.224014
H94	H	0.146586	-0.295437	0.227571
H95	H	0.140979	-0.459313	0.147162
H96	H	0.195393	-0.379170	0.150697
H97	H	0.129851	-0.250929	0.125435
H98	H	0.075436	-0.331088	0.121883
H99	H	0.129887	-0.336915	0.074155
H100	H	0.978322	-0.384346	0.541063
H101	H	0.548278	-0.384178	0.229314
C102	C	0.989271	-0.365999	0.668547
C103	C	1.024389	-0.307208	0.625903
C104	C	1.064561	-0.239970	0.658514
H105	H	0.965387	-0.320110	0.694065
H106	H	1.016594	-0.406166	0.694071
H107	H	0.997070	-0.267044	0.600391
H108	H	1.048287	-0.353071	0.600384
H109	H	1.091884	-0.280138	0.684038
H110	H	1.040671	-0.194088	0.684031
H111	H	1.088397	-0.200080	0.629586
C112	C	0.915816	-0.308635	0.733996
C113	C	0.865521	-0.243705	0.749877
C114	C	0.870332	-0.149001	0.717186
H115	H	0.953930	-0.274904	0.744703
H116	H	0.915072	-0.322170	0.690335
H117	H	0.866271	-0.230168	0.793529
H118	H	0.827401	-0.277403	0.739169
H119	H	0.869588	-0.162536	0.673525
H120	H	0.908447	-0.115279	0.727896
H121	H	0.836205	-0.104938	0.727953
H122	H	0.914603	-0.334306	0.861562
C123	C	0.895219	-0.703577	0.870342
C124	C	0.890851	-0.786494	0.827687
C125	C	0.885843	-0.881261	0.860283
H126	H	0.931108	-0.712959	0.895884
H127	H	0.858885	-0.702240	0.895841
H128	H	0.927181	-0.787833	0.802198
H129	H	0.854962	-0.777147	0.802143
H130	H	0.849509	-0.879924	0.885782
H131	H	0.921733	-0.890633	0.885824
H132	H	0.882873	-0.937531	0.831347
H133	H	0.978328	-0.384106	0.944699
H134	H	0.978324	-0.384029	1.063406
C135	C	0.337722	-0.308696	0.291830
C136	C	0.380385	-0.225778	0.287603
C137	C	0.347796	-0.130973	0.282794
H138	H	0.312176	-0.309822	0.255514
H139	H	0.312229	-0.299497	0.327761
H140	H	0.405868	-0.234975	0.251676
H141	H	0.405933	-0.224618	0.323914
H142	H	0.322303	-0.121774	0.318725
H143	H	0.322251	-0.132110	0.246479
H144	H	0.376738	-0.074702	0.279931
H145	H	0.974545	-0.916850	0.169527
C146	C	0.474123	-0.308814	0.291923
C147	C	0.511700	-0.295572	0.344934
C148	C	0.544466	-0.200903	0.340229
H149	H	0.499685	-0.309988	0.255641
H150	H	0.445293	-0.252396	0.289066
H151	H	0.540528	-0.351975	0.347785
H152	H	0.486154	-0.294379	0.381223
H153	H	0.515635	-0.144486	0.337371
H154	H	0.570024	-0.202086	0.303945
H155	H	0.569962	-0.191902	0.376197
C156	C	0.821923	-0.646319	0.668489
C157	C	0.786805	-0.705155	0.625821
C158	C	0.746641	-0.772371	0.658402
H159	H	0.845813	-0.692180	0.694028
H160	H	0.794599	-0.606133	0.693990
H161	H	0.814125	-0.745337	0.600330
H162	H	0.762902	-0.659321	0.600281
H163	H	0.719318	-0.732186	0.683903
H164	H	0.770536	-0.818226	0.683940
H165	H	0.722805	-0.812293	0.629457
C166	C	0.822085	-0.646411	0.532045
C167	C	0.857550	-0.713759	0.494488
C168	C	0.817576	-0.781035	0.461662
H169	H	0.798198	-0.686507	0.560820
H170	H	0.794805	-0.606260	0.506467
H171	H	0.884819	-0.753907	0.520063
H172	H	0.881436	-0.673692	0.465700
H173	H	0.790296	-0.740883	0.436085
H174	H	0.793691	-0.821124	0.490443
H175	H	0.841632	-0.826732	0.436172
H176	H	0.832868	-1.105295	0.374568
H177	H	0.144689	-0.628366	0.374502
H178	H	0.832874	-0.627800	1.063366
H179	H	0.263396	-0.628354	0.374492
C180	C	0.272143	-0.365774	0.218508
C181	C	0.256228	-0.261859	0.232240
C182	C	0.288841	-0.194375	0.192266
H183	H	0.315811	-0.375256	0.224195
H184	H	0.261383	-0.380993	0.176386
H185	H	0.266992	-0.246644	0.274352
H186	H	0.212566	-0.252343	0.226550
H187	H	0.278082	-0.209595	0.150144
H188	H	0.332507	-0.203867	0.197956
H189	H	0.278044	-0.123862	0.201574
H190	H	0.346469	-0.678033	0.310707
H191	H	0.465181	-0.678018	0.310700
H192	H	0.832804	-0.906229	0.374542
H193	H	0.548326	-0.628322	0.374477
H194	H	0.667033	-0.628323	0.374459
H195	H	1.038056	-1.094502	0.233085
H196	H	0.896433	-0.677831	0.742864
