data_functionalizedCrystal
_audit_creation_method	'MofGen! by Chris Wilmer'
_symmetry_space_group_name_H-M	'P1'
_symmetry_Int_Tables_number	1
_symmetry_cell_setting	triclinic
loop_
_symmetry_equiv_pos_as_xyz
  x,y,z
_cell_length_a	12.759400
_cell_length_b	11.169417
_cell_length_c	11.169409
_cell_angle_alpha	90.021649
_cell_angle_beta	89.966244
_cell_angle_gamma	89.987206
loop_
_atom_site_label
_atom_site_type_symbol
_atom_site_fract_x
_atom_site_fract_y
_atom_site_fract_z
Zn1	Zn	-0.418231	-1.834927	-0.678589
Zn2	Zn	-0.168231	-1.584927	-0.428589
Zn3	Zn	0.081769	-1.334927	-0.178589
Zn4	Zn	0.331769	-1.084927	0.071411
Zn5	Zn	-0.593957	-1.834802	-0.477901
Zn6	Zn	-0.343957	-1.584802	-0.227901
Zn7	Zn	-0.093957	-1.334802	0.022099
Zn8	Zn	0.156043	-1.084802	0.272099
Zn9	Zn	-0.418287	-1.634213	-0.477917
Zn10	Zn	-0.168287	-1.384213	-0.227917
Zn11	Zn	0.081713	-1.134213	0.022083
Zn12	Zn	0.331713	-0.884213	0.272083
Zn13	Zn	-0.593863	-1.634206	-0.678540
Zn14	Zn	-0.343863	-1.384206	-0.428540
Zn15	Zn	-0.093863	-1.134206	-0.178540
Zn16	Zn	0.156137	-0.884206	0.071460
O17	O	-0.506084	-1.734537	-0.578237
O18	O	-0.256084	-1.484537	-0.328237
O19	O	-0.006084	-1.234537	-0.078237
O20	O	0.243916	-0.984537	0.171763
O21	O	-0.441557	-2.002860	-0.651982
O22	O	-0.191557	-1.752860	-0.401982
O23	O	0.058443	-1.502860	-0.151982
O24	O	0.308443	-1.252860	0.098018
O25	O	-0.570716	-1.808144	-0.309954
O26	O	-0.320716	-1.558144	-0.059954
O27	O	-0.070716	-1.308144	0.190046
O28	O	0.179284	-1.058144	0.440046
O29	O	-0.271258	-1.660894	-0.504564
O30	O	-0.021258	-1.410894	-0.254564
O31	O	0.228742	-1.160894	-0.004564
O32	O	0.478742	-0.910894	0.245436
O33	O	-0.570662	-2.002768	-0.504537
O34	O	-0.320662	-1.752768	-0.254537
O35	O	-0.070662	-1.502768	-0.004537
O36	O	0.179338	-1.252768	0.245463
O37	O	-0.271217	-1.808357	-0.651997
O38	O	-0.021217	-1.558357	-0.401997
O39	O	0.228783	-1.308357	-0.151997
O40	O	0.478783	-1.058357	0.098003
O41	O	-0.441653	-1.660772	-0.309965
O42	O	-0.191653	-1.410772	-0.059965
O43	O	0.058347	-1.160772	0.190035
O44	O	0.308347	-0.910772	0.440035
O45	O	-0.441562	-1.466262	-0.504516
O46	O	-0.191562	-1.216262	-0.254516
O47	O	0.058438	-0.966262	-0.004516
O48	O	0.308438	-0.716262	0.245484
O49	O	-0.570503	-1.660881	-0.846496
O50	O	-0.320503	-1.410881	-0.596496
O51	O	-0.070503	-1.160881	-0.346496
O52	O	0.179497	-0.910881	-0.096496
O53	O	-0.570557	-1.466257	-0.651913
O54	O	-0.320557	-1.216257	-0.401913
O55	O	-0.070557	-0.966257	-0.151913
O56	O	0.179443	-0.716257	0.098087
O57	O	-0.441466	-1.808350	-0.846533
O58	O	-0.191466	-1.558350	-0.596533
O59	O	0.058534	-1.308350	-0.346533
O60	O	0.308534	-1.058350	-0.096533
O61	O	-0.740965	-1.808137	-0.504489
O62	O	-0.490965	-1.558137	-0.254489
O63	O	-0.240965	-1.308137	-0.004489
O64	O	0.009035	-1.058137	0.245511
O65	O	-0.740897	-1.660759	-0.651897
O66	O	-0.490897	-1.410759	-0.401897
O67	O	-0.240897	-1.160759	-0.151897
O68	O	0.009103	-0.910759	0.098103
C69	C	-0.506056	-1.422712	-0.578212
C70	C	-0.256056	-1.172712	-0.328212
C71	C	-0.006056	-0.922712	-0.078212
C72	C	0.243944	-0.672712	0.171788
C73	C	-0.506069	-1.289312	-0.578229
C74	C	-0.256069	-1.039312	-0.328229
C75	C	-0.006069	-0.789312	-0.078229
C76	C	0.243931	-0.539312	0.171771
C77	C	-0.779052	-1.734466	-0.578212
C78	C	-0.529052	-1.484466	-0.328212
C79	C	-0.279052	-1.234466	-0.078212
C80	C	-0.029052	-0.984466	0.171788
C81	C	-0.895828	-1.734546	-0.578242
C82	C	-0.645828	-1.484546	-0.328242
C83	C	-0.395828	-1.234546	-0.078242
C84	C	-0.145828	-0.984546	0.171758
C85	C	-1.060422	-1.811443	-0.501609
C86	C	-0.810422	-1.561443	-0.251609
C87	C	-0.560422	-1.311443	-0.001609
C88	C	-0.310422	-1.061443	0.248391
C89	C	-0.950698	-1.811371	-0.501572
C90	C	-0.700698	-1.561371	-0.251572
C91	C	-0.450698	-1.311371	-0.001572
C92	C	-0.200698	-1.061371	0.248428
C93	C	-0.950688	-1.657778	-0.654946
C94	C	-0.700688	-1.407778	-0.404946
C95	C	-0.450688	-1.157778	-0.154946
C96	C	-0.200688	-0.907778	0.095054
C97	C	-1.060410	-1.657845	-0.654976
C98	C	-0.810410	-1.407845	-0.404976
C99	C	-0.560410	-1.157845	-0.154976
C100	C	-0.310410	-0.907845	0.095024
C101	C	-0.232051	-1.734640	-0.578288
C102	C	0.017949	-1.484640	-0.328288
C103	C	0.267949	-1.234640	-0.078288
C104	C	0.517949	-0.984640	0.171712
C105	C	-0.115274	-1.734684	-0.578310
C106	C	0.134726	-1.484684	-0.328310
C107	C	0.384726	-1.234684	-0.078310
C108	C	0.634726	-0.984684	0.171690
C109	C	-0.505968	-1.734629	-0.891279
C110	C	-0.255968	-1.484629	-0.641279
C111	C	-0.005968	-1.234629	-0.391279
C112	C	0.244032	-0.984629	-0.141279
C113	C	-0.505918	-1.734668	-1.024680
C114	C	-0.255918	-1.484668	-0.774680
C115	C	-0.005918	-1.234668	-0.524680
C116	C	0.244082	-0.984668	-0.274680
C117	C	-0.506104	-1.047579	-0.578255
C118	C	-0.256104	-0.797579	-0.328255
C119	C	-0.006104	-0.547579	-0.078255
C120	C	0.243896	-0.297579	0.171745
C121	C	-0.506086	-1.180979	-0.578242
C122	C	-0.256086	-0.930979	-0.328242
C123	C	-0.006086	-0.680979	-0.078242
C124	C	0.243914	-0.430979	0.171758
C125	C	-0.506125	-1.734514	-0.266412
C126	C	-0.256125	-1.484514	-0.016412
C127	C	-0.006125	-1.234514	0.233588
C128	C	0.243875	-0.984514	0.483588
C129	C	-0.505879	-1.734707	-0.133013
C130	C	-0.255879	-1.484707	0.116987
C131	C	-0.005879	-1.234707	0.366987
C132	C	0.244121	-0.984707	0.616987
H133	H	-1.105090	-1.874010	-0.439182
H134	H	-0.855090	-1.624010	-0.189182
H135	H	-0.605090	-1.374010	0.060818
H136	H	-0.355090	-1.124010	0.310818
H137	H	-0.906041	-1.873874	-0.439114
H138	H	-0.656041	-1.623874	-0.189114
H139	H	-0.406041	-1.373874	0.060886
H140	H	-0.156041	-1.123874	0.310886
F141	F	-1.118791	-1.576141	-0.736614
F142	F	-0.868791	-1.326141	-0.486614
F143	F	-0.618791	-1.076141	-0.236614
F144	F	-0.368791	-0.826141	0.013386
H145	H	-0.906007	-1.595219	-0.717367
H146	H	-0.656007	-1.345219	-0.467367
H147	H	-0.406007	-1.095219	-0.217367
H148	H	-0.156007	-0.845219	0.032633
