data_functionalizedCrystal
_audit_creation_method	'MofGen! by Chris Wilmer'
_symmetry_space_group_name_H-M	'P1'
_symmetry_Int_Tables_number	1
_symmetry_cell_setting	triclinic
loop_
_symmetry_equiv_pos_as_xyz
  x,y,z
_cell_length_a	12.759401
_cell_length_b	12.759393
_cell_length_c	12.759400
_cell_angle_alpha	89.968436
_cell_angle_beta	90.016391
_cell_angle_gamma	89.980623
loop_
_atom_site_label
_atom_site_type_symbol
_atom_site_fract_x
_atom_site_fract_y
_atom_site_fract_z
Zn1	Zn	1.606256	-0.594006	-0.418156
Zn2	Zn	1.606150	-0.418326	-0.593875
Zn3	Zn	1.430557	-0.418343	-0.418216
Zn4	Zn	1.430546	-0.593965	-0.593799
O5	O	1.518377	-0.506160	-0.506012
O6	O	1.753263	-0.570712	-0.441473
O7	O	1.582818	-0.271307	-0.570631
O8	O	1.453913	-0.441669	-0.271187
O9	O	1.753185	-0.441641	-0.570573
O10	O	1.582998	-0.570728	-0.271143
O11	O	1.453811	-0.271319	-0.441575
O12	O	1.283535	-0.441629	-0.441501
O13	O	1.453894	-0.740992	-0.570443
O14	O	1.283527	-0.570658	-0.570501
O15	O	1.582987	-0.741022	-0.441399
O16	O	1.582807	-0.441601	-0.740886
O17	O	1.453791	-0.570642	-0.740830
C18	C	1.245410	-0.506142	-0.506000
C19	C	1.128633	-0.506159	-0.506020
C20	C	0.964093	-0.573482	-0.438915
C21	C	1.073817	-0.573470	-0.438912
C22	C	1.073720	-0.438861	-0.573143
C23	C	0.963998	-0.438879	-0.573150
C24	C	0.964149	-0.651194	-0.361415
C25	C	1.073873	-0.651183	-0.361412
C26	C	1.518451	-0.780193	-0.505906
C27	C	1.518482	-0.896970	-0.505861
C28	C	1.585710	-0.951850	-0.438661
C29	C	1.585735	-1.061574	-0.438623
C30	C	1.451301	-1.061529	-0.572993
C31	C	1.451272	-0.951807	-0.573025
C32	C	1.663328	-0.951876	-0.361087
C33	C	1.663353	-1.061600	-0.361049
C34	C	1.792411	-0.506179	-0.506025
C35	C	1.909187	-0.506187	-0.506030
C36	C	1.518315	-0.506138	-0.778979
C37	C	1.518384	-0.506164	-0.895756
C38	C	1.518364	-0.233193	-0.506042
C39	C	1.518537	-0.116416	-0.505791
C40	C	1.585637	-0.439046	-0.950612
C41	C	1.585702	-0.439079	-1.060336
C42	C	1.451252	-0.573349	-1.060338
C43	C	1.451193	-0.573321	-0.950616
C44	C	1.663258	-0.361523	-0.950612
C45	C	1.663322	-0.361556	-1.060336
C46	C	1.518468	-0.506205	-0.231979
C47	C	1.518507	-0.506224	-0.115202
H48	H	1.118361	-0.384063	-0.627791
H49	H	1.744601	-0.383376	-0.920752
H50	H	1.634133	-0.284197	-0.916665
Cl51	Cl	1.782662	-0.406676	-1.112750
Cl52	Cl	1.788981	-1.107586	-0.394676
H53	H	0.934409	-0.732532	-0.383300
H54	H	1.641585	-0.280175	-1.090199
Cl55	Cl	1.119870	-0.617736	-0.235748
Cl56	Cl	0.894977	-0.354275	-0.657525
Cl57	Cl	1.629718	-0.905926	-0.235472
H58	H	1.396525	-0.907128	-0.627742
H59	H	1.634239	-1.095648	-0.283740
H60	H	0.930119	-0.622187	-0.284090
Cl61	Cl	1.126471	-0.770435	-0.406545
Cl62	Cl	1.782628	-0.899320	-0.406111
Cl63	Cl	1.366813	-1.130475	-0.657424
Cl64	Cl	1.366788	-0.657771	-1.129312
Cl65	Cl	1.366660	-0.657717	-0.881657
