data_functionalizedCrystal
_audit_creation_method	'MofGen! by Chris Wilmer'
_symmetry_space_group_name_H-M	'P1'
_symmetry_Int_Tables_number	1
_symmetry_cell_setting	triclinic
loop_
_symmetry_equiv_pos_as_xyz
  x,y,z
_cell_length_a	17.077404
_cell_length_b	21.395362
_cell_length_c	17.077396
_cell_angle_alpha	90.031646
_cell_angle_beta	90.018362
_cell_angle_gamma	90.025469
loop_
_atom_site_label
_atom_site_type_symbol
_atom_site_fract_x
_atom_site_fract_y
_atom_site_fract_z
Zn1	Zn	1.200029	-0.249472	0.443802
Zn2	Zn	1.450029	0.000528	0.693802
Zn3	Zn	1.700029	0.250528	0.943802
Zn4	Zn	1.950029	0.500528	1.193802
Zn5	Zn	1.199926	-0.354254	0.312528
Zn6	Zn	1.449926	-0.104254	0.562528
Zn7	Zn	1.699926	0.145746	0.812528
Zn8	Zn	1.949926	0.395746	1.062528
Zn9	Zn	1.068761	-0.249490	0.312552
Zn10	Zn	1.318761	0.000510	0.562552
Zn11	Zn	1.568761	0.250510	0.812552
Zn12	Zn	1.818761	0.500510	1.062552
Zn13	Zn	1.068719	-0.354212	0.443755
Zn14	Zn	1.318719	-0.104212	0.693755
Zn15	Zn	1.568719	0.145788	0.943755
Zn16	Zn	1.818719	0.395788	1.193755
O17	O	1.134359	-0.301857	0.378159
O18	O	1.384359	-0.051857	0.628159
O19	O	1.634359	0.198143	0.878159
O20	O	1.884359	0.448143	1.128159
O21	O	1.309863	-0.263382	0.426398
O22	O	1.559863	-0.013382	0.676398
O23	O	1.809863	0.236618	0.926398
O24	O	2.059863	0.486618	1.176398
O25	O	1.182501	-0.340381	0.202684
O26	O	1.432501	-0.090381	0.452684
O27	O	1.682501	0.159619	0.702684
O28	O	1.932501	0.409619	0.952684
O29	O	1.086235	-0.161810	0.329992
O30	O	1.336235	0.088190	0.579992
O31	O	1.586235	0.338190	0.829992
O32	O	1.836235	0.588190	1.079992
O33	O	1.309787	-0.340364	0.329952
O34	O	1.559787	-0.090364	0.579952
O35	O	1.809787	0.159636	0.829952
O36	O	2.059787	0.409636	1.079952
O37	O	1.182678	-0.161797	0.426421
O38	O	1.432678	0.088203	0.676421
O39	O	1.682678	0.338203	0.926421
O40	O	1.932678	0.588203	1.176421
O41	O	1.086135	-0.263412	0.202702
O42	O	1.336135	-0.013412	0.452702
O43	O	1.586135	0.236588	0.702702
O44	O	1.836135	0.486588	0.952702
O45	O	0.958909	-0.263372	0.329947
O46	O	1.208909	-0.013372	0.579947
O47	O	1.458909	0.236628	0.829947
O48	O	1.708909	0.486628	1.079947
O49	O	1.086163	-0.340294	0.553608
O50	O	1.336163	-0.090294	0.803608
O51	O	1.586163	0.159706	1.053608
O52	O	1.836163	0.409706	1.303608
O53	O	0.958877	-0.340311	0.426341
O54	O	1.208877	-0.090311	0.676341
O55	O	1.458877	0.159689	0.926341
O56	O	1.708877	0.409689	1.176341
O57	O	1.182636	-0.263342	0.553642
O58	O	1.432636	-0.013342	0.803642
O59	O	1.682636	0.236658	1.053642
O60	O	1.932636	0.486658	1.303642
O61	O	1.182460	-0.441926	0.329906
O62	O	1.432460	-0.191926	0.579906
O63	O	1.682460	0.058074	0.829906
O64	O	1.932460	0.308074	1.079906
O65	O	1.086062	-0.441896	0.426317
O66	O	1.336062	-0.191896	0.676317
O67	O	1.586062	0.058104	0.926317
O68	O	1.836062	0.308104	1.176317
C69	C	0.930411	-0.301839	0.378142
C70	C	1.180411	-0.051839	0.628142
C71	C	1.430411	0.198161	0.878142
C72	C	1.680411	0.448161	1.128142
C73	C	0.843161	-0.301847	0.378153
C74	C	1.093161	-0.051847	0.628153
C75	C	1.343161	0.198153	0.878153
C76	C	1.593161	0.448153	1.128153
C77	C	0.802211	-0.261834	0.428449
C78	C	1.052211	-0.011834	0.678449
C79	C	1.302211	0.238166	0.928449
C80	C	1.552211	0.488166	1.178449
C81	C	0.720231	-0.261838	0.428452
C82	C	0.970231	-0.011838	0.678452
C83	C	1.220231	0.238162	0.928452
C84	C	1.470231	0.488162	1.178452
C85	C	0.679202	-0.301859	0.378163
C86	C	0.929202	-0.051859	0.628163
C87	C	1.179202	0.198141	0.878163
C88	C	1.429202	0.448141	1.128163
C89	C	0.720157	-0.341874	0.327862
C90	C	0.970157	-0.091874	0.577862
C91	C	1.220157	0.158126	0.827862
C92	C	1.470157	0.408126	1.077862
C93	C	0.802136	-0.341866	0.327855
C94	C	1.052136	-0.091866	0.577855
C95	C	1.302136	0.158134	0.827855
C96	C	1.552136	0.408134	1.077855
C97	C	0.549287	-0.341888	0.327881
C98	C	0.799287	-0.091888	0.577881
C99	C	1.049287	0.158112	0.827881
C100	C	1.299287	0.408112	1.077881
C101	C	0.467303	-0.341897	0.327889
C102	C	0.717303	-0.091897	0.577889
C103	C	0.967303	0.158103	0.827889
C104	C	1.217303	0.408103	1.077889
C105	C	0.467382	-0.261859	0.428479
C106	C	0.717382	-0.011859	0.678479
C107	C	0.967382	0.238141	0.928479
C108	C	1.217382	0.488141	1.178479
C109	C	0.549361	-0.261852	0.428472
C110	C	0.799361	-0.011852	0.678472
C111	C	1.049361	0.238148	0.928472
C112	C	1.299361	0.488148	1.178472
C113	C	0.590311	-0.301868	0.378171
C114	C	0.840311	-0.051868	0.628171
C115	C	1.090311	0.198132	0.878171
C116	C	1.340311	0.448132	1.128171
C117	C	1.134267	-0.464645	0.378121
C118	C	1.384267	-0.214645	0.628121
C119	C	1.634267	0.035355	0.878121
C120	C	1.884267	0.285355	1.128121
C121	C	1.134299	-0.534286	0.378131
C122	C	1.384299	-0.284286	0.628131
C123	C	1.634299	-0.034286	0.878131
C124	C	1.884299	0.215714	1.128131
C125	C	1.184742	-1.036077	0.328085
C126	C	1.434742	-0.786077	0.578085
C127	C	1.684742	-0.536077	0.828085
C128	C	1.934742	-0.286077	1.078085
C129	C	1.184712	-0.970642	0.328067
C130	C	1.434712	-0.720642	0.578067
C131	C	1.684712	-0.470642	0.828067
C132	C	1.934712	-0.220642	1.078067
C133	C	1.134470	-0.937924	0.378215
C134	C	1.384470	-0.687924	0.628215
C135	C	1.634470	-0.437924	0.878215
C136	C	1.884470	-0.187924	1.128215
C137	C	1.084240	-0.970648	0.428372
C138	C	1.334240	-0.720648	0.678372
C139	C	1.584240	-0.470648	0.928372
C140	C	1.834240	-0.220648	1.178372
C141	C	1.084265	-1.036082	0.428383
C142	C	1.334265	-0.786082	0.678383
C143	C	1.584265	-0.536082	0.928383
C144	C	1.834265	-0.286082	1.178383
C145	C	1.128190	-0.834222	0.448914
C146	C	1.378190	-0.584222	0.698914
C147	C	1.628190	-0.334222	0.948914
C148	C	1.878190	-0.084222	1.198914
C149	C	1.128170	-0.768789	0.448904
C150	C	1.378170	-0.518789	0.698904
C151	C	1.628170	-0.268789	0.948904
C152	C	1.878170	-0.018789	1.198904
C153	C	1.134387	-0.736104	0.378180
C154	C	1.384387	-0.486104	0.628180
C155	C	1.634387	-0.236104	0.878180
C156	C	1.884387	0.013896	1.128180
C157	C	1.140640	-0.768859	0.307463
C158	C	1.390640	-0.518859	0.557463
C159	C	1.640640	-0.268859	0.807463
C160	C	1.890640	-0.018859	1.057463
C161	C	1.140666	-0.834293	0.307475
C162	C	1.390666	-0.584293	0.557475
C163	C	1.640666	-0.334293	0.807475
C164	C	1.890666	-0.084293	1.057475
C165	C	1.134436	-0.866972	0.378208
C166	C	1.384436	-0.616972	0.628208
C167	C	1.634436	-0.366972	0.878208
C168	C	1.884436	-0.116972	1.128208
C169	C	1.184578	-0.632436	0.328003
C170	C	1.434578	-0.382436	0.578003
C171	C	1.684578	-0.132436	0.828003
C172	C	1.934578	0.117564	1.078003
C173	C	1.184543	-0.566999	0.327983
C174	C	1.434543	-0.316999	0.577983
C175	C	1.684543	-0.066999	0.827983
C176	C	1.934543	0.183001	1.077983
C177	C	1.084074	-0.567006	0.428295
C178	C	1.334074	-0.317006	0.678295
C179	C	1.584074	-0.067006	0.928295
C180	C	1.834074	0.182994	1.178295
C181	C	1.084105	-0.632442	0.428308
C182	C	1.334105	-0.382442	0.678308
C183	C	1.584105	-0.132442	0.928308
C184	C	1.834105	0.117558	1.178308
C185	C	1.134361	-0.665152	0.378163
C186	C	1.384361	-0.415152	0.628163
C187	C	1.634361	-0.165152	0.878163
C188	C	1.884361	0.084848	1.128163
C189	C	1.339103	-0.301876	0.378177
C190	C	1.589103	-0.051876	0.628177
C191	C	1.839103	0.198124	0.878177
C192	C	2.089103	0.448124	1.128177
C193	C	1.426353	-0.301883	0.378185
C194	C	1.676353	-0.051883	0.628185
C195	C	1.926353	0.198117	0.878185
C196	C	2.176353	0.448117	1.128185
C197	C	1.134406	-0.301811	0.582903
C198	C	1.384406	-0.051811	0.832903
C199	C	1.634406	0.198189	1.082903
C200	C	1.884406	0.448189	1.332903
C201	C	1.134427	-0.301791	0.670153
C202	C	1.384427	-0.051791	0.920153
C203	C	1.634427	0.198209	1.170153
C204	C	1.884427	0.448209	1.420153
C205	C	1.134473	-0.138434	0.378214
C206	C	1.384473	0.111566	0.628214
C207	C	1.634473	0.361566	0.878214
C208	C	1.884473	0.611566	1.128214
C209	C	1.134521	-0.068793	0.378238
C210	C	1.384521	0.181207	0.628238
C211	C	1.634521	0.431207	0.878238
C212	C	1.884521	0.681207	1.128238
C213	C	1.134357	-0.301858	0.174211
C214	C	1.384357	-0.051858	0.424211
C215	C	1.634357	0.198142	0.674211
C216	C	1.884357	0.448142	0.924211
C217	C	1.134489	-0.301701	0.086962
C218	C	1.384489	-0.051701	0.336962
C219	C	1.634489	0.198299	0.586962
C220	C	1.884489	0.448299	0.836962
C221	C	1.184662	-0.261719	0.711163
C222	C	1.434662	-0.011719	0.961163
C223	C	1.684662	0.238281	1.211163
C224	C	1.934662	0.488281	1.461163
C225	C	1.184672	-0.261698	0.793143
C226	C	1.434672	-0.011698	1.043143
C227	C	1.684672	0.238302	1.293143
C228	C	1.934672	0.488302	1.543143
C229	C	1.134449	-0.301753	0.834113
C230	C	1.384449	-0.051753	1.084113
C231	C	1.634449	0.198247	1.334113
C232	C	1.884449	0.448247	1.584113
C233	C	1.084208	-0.341827	0.793098
C234	C	1.334208	-0.091827	1.043098
C235	C	1.584208	0.158173	1.293098
C236	C	1.834208	0.408173	1.543098
C237	C	1.084195	-0.341845	0.711119
C238	C	1.334195	-0.091845	0.961119
C239	C	1.584195	0.158155	1.211119
C240	C	1.834195	0.408155	1.461119
C241	C	1.084239	-0.341790	0.963968
C242	C	1.334239	-0.091790	1.213968
C243	C	1.584239	0.158210	1.463968
C244	C	1.834239	0.408210	1.713968
C245	C	1.084253	-0.341773	1.045952
C246	C	1.334253	-0.091773	1.295952
C247	C	1.584253	0.158227	1.545952
C248	C	1.834253	0.408227	1.795952
C249	C	1.184716	-0.261643	1.045992
C250	C	1.434716	-0.011643	1.295992
C251	C	1.684716	0.238357	1.545992
C252	C	1.934716	0.488357	1.795992
C253	C	1.184703	-0.261661	0.964013
C254	C	1.434703	-0.011661	1.214013
C255	C	1.684703	0.238339	1.464013
C256	C	1.934703	0.488339	1.714013
C257	C	1.134463	-0.301736	0.923004
C258	C	1.384463	-0.051736	1.173004
C259	C	1.634463	0.198264	1.423004
C260	C	1.884463	0.448264	1.673004
H261	H	0.686893	-0.229256	0.469410
H262	H	0.936893	0.020744	0.719410
H263	H	1.186893	0.270744	0.969410
H264	H	1.436893	0.520744	1.219410
F265	F	1.030725	-0.384493	0.667474
F266	F	1.280725	-0.134493	0.917474
F267	F	1.530725	0.115507	1.167474
F268	F	1.780725	0.365507	1.417474
H269	H	1.225562	-0.229104	0.677811
H270	H	1.475562	0.020896	0.927811
H271	H	1.725562	0.270896	1.177811
H272	H	1.975562	0.520896	1.427811
F273	F	1.030660	-0.667261	0.481695
F274	F	1.280660	-0.417261	0.731695
F275	F	1.530660	-0.167261	0.981695
F276	F	1.780660	0.082739	1.231695
F277	F	1.237996	-0.532181	0.274600
F278	F	1.487996	-0.282181	0.524600
F279	F	1.737996	-0.032181	0.774600
F280	F	1.987996	0.217819	1.024600
F281	F	1.238227	-1.070887	0.274714
F282	F	1.488227	-0.820887	0.524714
F283	F	1.738227	-0.570887	0.774714
F284	F	1.988227	-0.320887	1.024714
F285	F	1.030594	-0.532190	0.481659
F286	F	1.280594	-0.282190	0.731659
F287	F	1.530594	-0.032190	0.981659
F288	F	1.780594	0.217810	1.231659
F289	F	0.423799	-0.219270	0.482011
F290	F	0.673799	0.030730	0.732011
F291	F	0.923799	0.280730	0.982011
F292	F	1.173799	0.530730	1.232011
F293	F	0.845718	-0.384454	0.274323
F294	F	1.095718	-0.134454	0.524323
F295	F	1.345718	0.115546	0.774323
F296	F	1.595718	0.365546	1.024323
F297	F	1.030766	-0.384441	0.920324
F298	F	1.280766	-0.134441	1.170324
F299	F	1.530766	0.115559	1.420324
F300	F	1.780766	0.365559	1.670324
F301	F	0.593026	-0.219262	0.482001
F302	F	0.843026	0.030738	0.732001
F303	F	1.093026	0.280738	0.982001
F304	F	1.343026	0.530738	1.232001
F305	F	0.423638	-0.384504	0.274381
F306	F	0.673638	-0.134504	0.524381
F307	F	0.923638	0.115496	0.774381
F308	F	1.173638	0.365496	1.024381
H309	H	1.225603	-0.229048	0.930658
H310	H	1.475603	0.020952	1.180658
H311	H	1.725603	0.270952	1.430658
H312	H	1.975603	0.520952	1.680658
F313	F	1.238163	-0.935816	0.274682
F314	F	1.488163	-0.685816	0.524682
F315	F	1.738163	-0.435816	0.774682
F316	F	1.988163	-0.185816	1.024682
H317	H	0.686745	-0.374457	0.286912
H318	H	0.936745	-0.124457	0.536912
H319	H	1.186745	0.125543	0.786912
H320	H	1.436745	0.375543	1.036912
H321	H	1.123083	-0.742122	0.506484
H322	H	1.373083	-0.492122	0.756484
H323	H	1.623083	-0.242122	1.006484
H324	H	1.873083	0.007878	1.256484
H325	H	1.043370	-1.062719	0.469226
H326	H	1.293370	-0.812719	0.719226
H327	H	1.543370	-0.562719	0.969226
H328	H	1.793370	-0.312719	1.219226
F329	F	1.238166	-0.219069	0.836785
F330	F	1.488166	0.030931	1.086785
F331	F	1.738166	0.280931	1.336785
F332	F	1.988166	0.530931	1.586785
F333	F	1.147317	-0.869152	0.232216
F334	F	1.397317	-0.619152	0.482216
F335	F	1.647317	-0.369152	0.732216
F336	F	1.897317	-0.119152	0.982216
H337	H	1.043313	-0.374439	0.826462
H338	H	1.293313	-0.124439	1.076462
H339	H	1.543313	0.125561	1.326462
H340	H	1.793313	0.375561	1.576462
F341	F	1.238186	-0.218993	1.089638
F342	F	1.488186	0.031007	1.339638
F343	F	1.738186	0.281007	1.589638
F344	F	1.988186	0.531007	1.839638
F345	F	0.592867	-0.384481	0.274348
F346	F	0.842867	-0.134481	0.524348
F347	F	1.092867	0.115519	0.774348
F348	F	1.342867	0.365519	1.024348
F349	F	0.845870	-0.219240	0.481978
F350	F	1.095870	0.030760	0.731978
F351	F	1.345870	0.280760	0.981978
F352	F	1.595870	0.530760	1.231978
H353	H	1.145704	-0.742248	0.249874
H354	H	1.395704	-0.492248	0.499874
H355	H	1.645704	-0.242248	0.749874
H356	H	1.895704	0.007752	0.999874
H357	H	1.123269	-0.860829	0.506523
H358	H	1.373269	-0.610829	0.756523
H359	H	1.623269	-0.360829	1.006523
H360	H	1.873269	-0.110829	1.256523
F361	F	1.238060	-0.667251	0.274631
F362	F	1.488060	-0.417251	0.524631
F363	F	1.738060	-0.167251	0.774631
F364	F	1.988060	0.082749	1.024631
F365	F	1.030794	-0.384399	1.089554
F366	F	1.280794	-0.134399	1.339554
F367	F	1.530794	0.115601	1.589554
F368	F	1.780794	0.365601	1.839554
H369	H	1.043331	-0.944006	0.469202
H370	H	1.293331	-0.694006	0.719202
H371	H	1.543331	-0.444006	0.969202
H372	H	1.793331	-0.194006	1.219202
