data_functionalizedCrystal
_audit_creation_method	'MofGen! by Chris Wilmer'
_symmetry_space_group_name_H-M	'P1'
_symmetry_Int_Tables_number	1
_symmetry_cell_setting	triclinic
loop_
_symmetry_equiv_pos_as_xyz
  x,y,z
_cell_length_a	21.395364
_cell_length_b	21.395361
_cell_length_c	21.395355
_cell_angle_alpha	89.978489
_cell_angle_beta	89.975273
_cell_angle_gamma	90.029041
loop_
_atom_site_label
_atom_site_type_symbol
_atom_site_fract_x
_atom_site_fract_y
_atom_site_fract_z
Zn1	Zn	0.957859	-0.249539	-0.354251
Zn2	Zn	1.207859	0.000461	-0.104251
Zn3	Zn	1.457859	0.250461	0.145749
Zn4	Zn	1.707859	0.500461	0.395749
Zn5	Zn	0.957762	-0.354299	-0.249468
Zn6	Zn	1.207762	-0.104299	0.000532
Zn7	Zn	1.457762	0.145701	0.250532
Zn8	Zn	1.707762	0.395701	0.500532
Zn9	Zn	0.853074	-0.249536	-0.249488
Zn10	Zn	1.103074	0.000464	0.000512
Zn11	Zn	1.353074	0.250464	0.250512
Zn12	Zn	1.603074	0.500464	0.500512
Zn13	Zn	0.853043	-0.354280	-0.354208
Zn14	Zn	1.103043	-0.104280	-0.104208
Zn15	Zn	1.353043	0.145720	0.145792
Zn16	Zn	1.603043	0.395720	0.395792
O17	O	0.905434	-0.301913	-0.301854
O18	O	1.155434	-0.051913	-0.051854
O19	O	1.405434	0.198087	0.198146
O20	O	1.655434	0.448087	0.448146
O21	O	1.045524	-0.263445	-0.340362
O22	O	1.295524	-0.013445	-0.090362
O23	O	1.545524	0.236555	0.159638
O24	O	1.795524	0.486555	0.409638
O25	O	0.943847	-0.340409	-0.161793
O26	O	1.193847	-0.090409	0.088207
O27	O	1.443847	0.159591	0.338207
O28	O	1.693847	0.409591	0.588207
O29	O	0.867028	-0.161859	-0.263411
O30	O	1.117028	0.088141	-0.013411
O31	O	1.367028	0.338141	0.236589
O32	O	1.617028	0.588141	0.486589
O33	O	1.045452	-0.340411	-0.263378
O34	O	1.295452	-0.090411	-0.013378
O35	O	1.545452	0.159589	0.236622
O36	O	1.795452	0.409589	0.486622
O37	O	0.944013	-0.161861	-0.340380
O38	O	1.194013	0.088139	-0.090380
O39	O	1.444013	0.338139	0.159620
O40	O	1.694013	0.588139	0.409620
O41	O	0.866933	-0.263440	-0.161807
O42	O	1.116933	-0.013440	0.088193
O43	O	1.366933	0.236560	0.338193
O44	O	1.616933	0.486560	0.588193
O45	O	0.765392	-0.263421	-0.263369
O46	O	1.015392	-0.013421	-0.013369
O47	O	1.265392	0.236579	0.236631
O48	O	1.515392	0.486579	0.486631
O49	O	0.866975	-0.340379	-0.441892
O50	O	1.116975	-0.090379	-0.191892
O51	O	1.366975	0.159621	0.058108
O52	O	1.616975	0.409621	0.308108
O53	O	0.765369	-0.340376	-0.340307
O54	O	1.015369	-0.090376	-0.090307
O55	O	1.265369	0.159624	0.159693
O56	O	1.515369	0.409624	0.409693
O57	O	0.943983	-0.263426	-0.441923
O58	O	1.193983	-0.013426	-0.191923
O59	O	1.443983	0.236574	0.058077
O60	O	1.693983	0.486574	0.308077
O61	O	0.943817	-0.441974	-0.263336
O62	O	1.193817	-0.191974	-0.013336
O63	O	1.443817	0.058026	0.236664
O64	O	1.693817	0.308026	0.486664
O65	O	0.866881	-0.441960	-0.340288
O66	O	1.116881	-0.191960	-0.090288
O67	O	1.366881	0.058040	0.159712
O68	O	1.616881	0.308040	0.409712
C69	C	0.742647	-0.301897	-0.301836
C70	C	0.992647	-0.051897	-0.051836
C71	C	1.242647	0.198103	0.198164
C72	C	1.492647	0.448103	0.448164
C73	C	0.673006	-0.301905	-0.301843
C74	C	0.923006	-0.051905	-0.051843
C75	C	1.173006	0.198095	0.198157
C76	C	1.423006	0.448095	0.448157
C77	C	0.905352	-0.464701	-0.301819
C78	C	1.155352	-0.214701	-0.051819
C79	C	1.405352	0.035299	0.198181
C80	C	1.655352	0.285299	0.448181
C81	C	0.905374	-0.534342	-0.301825
C82	C	1.155374	-0.284342	-0.051825
C83	C	1.405374	-0.034342	0.198175
C84	C	1.655374	0.215658	0.448175
C85	C	0.171214	-0.342057	-0.341877
C86	C	0.421214	-0.092057	-0.091877
C87	C	0.671214	0.157943	0.158123
C88	C	0.921214	0.407943	0.408123
C89	C	0.236649	-0.342057	-0.341870
C90	C	0.486649	-0.092057	-0.091870
C91	C	0.736649	0.157943	0.158130
C92	C	0.986649	0.407943	0.408130
C93	C	0.269367	-0.301927	-0.301874
C94	C	0.519367	-0.051927	-0.051874
C95	C	0.769367	0.198073	0.198126
C96	C	1.019367	0.448073	0.448126
C97	C	0.236644	-0.261805	-0.261870
C98	C	0.486644	-0.011805	-0.011870
C99	C	0.736644	0.238195	0.238130
C100	C	0.986644	0.488195	0.488130
C101	C	0.171210	-0.261811	-0.261873
C102	C	0.421210	-0.011811	-0.011873
C103	C	0.671210	0.238189	0.238127
C104	C	0.921210	0.488189	0.488127
C105	C	0.373056	-0.245462	-0.297025
C106	C	0.623056	0.004538	-0.047025
C107	C	0.873056	0.254538	0.202975
C108	C	1.123056	0.504538	0.452975
C109	C	0.438489	-0.245455	-0.297027
C110	C	0.688489	0.004545	-0.047027
C111	C	0.938489	0.254545	0.202973
C112	C	1.188489	0.504545	0.452973
C113	C	0.471188	-0.301911	-0.301860
C114	C	0.721188	-0.051911	-0.051860
C115	C	0.971188	0.198089	0.198140
C116	C	1.221188	0.448089	0.448140
C117	C	0.438446	-0.358374	-0.306705
C118	C	0.688446	-0.108374	-0.056705
C119	C	0.938446	0.141626	0.193295
C120	C	1.188446	0.391626	0.443295
C121	C	0.373012	-0.358380	-0.306709
C122	C	0.623012	-0.108380	-0.056709
C123	C	0.873012	0.141620	0.193291
C124	C	1.123012	0.391620	0.443291
C125	C	0.340320	-0.301917	-0.301865
C126	C	0.590320	-0.051917	-0.051865
C127	C	0.840320	0.198083	0.198135
C128	C	1.090320	0.448083	0.448135
C129	C	0.574856	-0.342033	-0.341851
C130	C	0.824856	-0.092033	-0.091851
C131	C	1.074856	0.157967	0.158149
C132	C	1.324856	0.407967	0.408149
C133	C	0.640292	-0.342034	-0.341840
C134	C	0.890292	-0.092034	-0.091840
C135	C	1.140292	0.157966	0.158160
C136	C	1.390292	0.407966	0.408160
C137	C	0.640286	-0.261777	-0.261843
C138	C	0.890286	-0.011777	-0.011843
C139	C	1.140286	0.238223	0.238157
C140	C	1.390286	0.488223	0.488157
C141	C	0.574850	-0.261781	-0.261851
C142	C	0.824850	-0.011781	-0.011851
C143	C	1.074850	0.238219	0.238149
C144	C	1.324850	0.488219	0.488149
C145	C	0.542139	-0.301909	-0.301858
C146	C	0.792139	-0.051909	-0.051858
C147	C	1.042139	0.198091	0.198142
C148	C	1.292139	0.448091	0.448142
C149	C	0.945470	-0.567042	-0.261797
C150	C	1.195470	-0.317042	-0.011797
C151	C	1.445470	-0.067042	0.238203
C152	C	1.695470	0.182958	0.488203
C153	C	0.945499	-0.632477	-0.261811
C154	C	1.195499	-0.382477	-0.011811
C155	C	1.445499	-0.132477	0.238189
C156	C	1.695499	0.117523	0.488189
C157	C	0.905421	-0.665211	-0.301847
C158	C	1.155421	-0.415211	-0.051847
C159	C	1.405421	-0.165211	0.198153
C160	C	1.655421	0.084789	0.448153
C161	C	0.865322	-0.632503	-0.341882
C162	C	1.115322	-0.382503	-0.091882
C163	C	1.365322	-0.132503	0.158118
C164	C	1.615322	0.117497	0.408118
C165	C	0.865298	-0.567069	-0.341871
C166	C	1.115298	-0.317069	-0.091871
C167	C	1.365298	-0.067069	0.158129
C168	C	1.615298	0.182931	0.408129
C169	C	0.849006	-0.768924	-0.306756
C170	C	1.099006	-0.518924	-0.056756
C171	C	1.349006	-0.268924	0.193244
C172	C	1.599006	-0.018924	0.443244
C173	C	0.849029	-0.834357	-0.306763
C174	C	1.099029	-0.584357	-0.056763
C175	C	1.349029	-0.334357	0.193237
C176	C	1.599029	-0.084357	0.443237
C177	C	0.905494	-0.867031	-0.301883
C178	C	1.155494	-0.617031	-0.051883
C179	C	1.405494	-0.367031	0.198117
C180	C	1.655494	-0.117031	0.448117
C181	C	0.961938	-0.834265	-0.296984
C182	C	1.211938	-0.584265	-0.046984
C183	C	1.461938	-0.334265	0.203016
C184	C	1.711938	-0.084265	0.453016
C185	C	0.961915	-0.768830	-0.296974
C186	C	1.211915	-0.518830	-0.046974
C187	C	1.461915	-0.268830	0.203026
C188	C	1.711915	-0.018830	0.453026
C189	C	0.905442	-0.736163	-0.301863
C190	C	1.155442	-0.486163	-0.051863
C191	C	1.405442	-0.236163	0.198137
C192	C	1.655442	0.013837	0.448137
C193	C	0.945625	-0.970683	-0.261868
C194	C	1.195625	-0.720683	-0.011868
C195	C	1.445625	-0.470683	0.238132
C196	C	1.695625	-0.220683	0.488132
C197	C	0.945655	-1.036120	-0.261887
C198	C	1.195655	-0.786120	-0.011887
C199	C	1.445655	-0.536120	0.238113
C200	C	1.695655	-0.286120	0.488113
C201	C	0.865472	-1.036144	-0.341955
C202	C	1.115472	-0.786144	-0.091955
C203	C	1.365472	-0.536144	0.158045
C204	C	1.615472	-0.286144	0.408045
C205	C	0.865448	-0.970709	-0.341939
C206	C	1.115448	-0.720709	-0.091939
C207	C	1.365448	-0.470709	0.158061
C208	C	1.615448	-0.220709	0.408061
C209	C	0.905523	-0.937983	-0.301893
C210	C	1.155523	-0.687983	-0.051893
C211	C	1.405523	-0.437983	0.198107
C212	C	1.655523	-0.187983	0.448107
C213	C	1.068858	-0.301931	-0.301872
C214	C	1.318858	-0.051931	-0.051872
C215	C	1.568858	0.198069	0.198128
C216	C	1.818858	0.448069	0.448128
C217	C	1.138499	-0.301938	-0.301880
C218	C	1.388499	-0.051938	-0.051880
C219	C	1.638499	0.198062	0.198120
C220	C	1.888499	0.448062	0.448120
C221	C	0.905486	-0.301901	-0.465277
C222	C	1.155486	-0.051901	-0.215277
C223	C	1.405486	0.198099	0.034723
C224	C	1.655486	0.448099	0.284723
C225	C	0.905509	-0.301895	-0.534918
C226	C	1.155509	-0.051895	-0.284918
C227	C	1.405509	0.198105	-0.034918
C228	C	1.655509	0.448105	0.215082
C229	C	0.905535	-0.138490	-0.301903
C230	C	1.155535	0.111510	-0.051903
C231	C	1.405535	0.361510	0.198097
C232	C	1.655535	0.611510	0.448097
C233	C	0.905577	-0.068849	-0.301923
C234	C	1.155577	0.181151	-0.051923
C235	C	1.405577	0.431151	0.198077
C236	C	1.655577	0.681151	0.448077
C237	C	0.945605	-0.261824	-0.567649
C238	C	1.195605	-0.011824	-0.317649
C239	C	1.445605	0.238176	-0.067649
C240	C	1.695605	0.488176	0.182351
C241	C	0.945604	-0.261797	-0.633085
C242	C	1.195604	-0.011797	-0.383085
C243	C	1.445604	0.238203	-0.133085
C244	C	1.695604	0.488203	0.116915
C245	C	0.905513	-0.301853	-0.665787
C246	C	1.155513	-0.051853	-0.415787
C247	C	1.405513	0.198147	-0.165787
C248	C	1.655513	0.448147	0.084213
C249	C	0.865409	-0.341926	-0.633048
C250	C	1.115409	-0.091926	-0.383048
C251	C	1.365409	0.158074	-0.133048
C252	C	1.615409	0.408074	0.116952
C253	C	0.865407	-0.341948	-0.567614
C254	C	1.115407	-0.091948	-0.317614
C255	C	1.365407	0.158052	-0.067614
C256	C	1.615407	0.408052	0.182386
C257	C	0.900538	-0.358268	-0.769449
C258	C	1.150538	-0.108268	-0.519449
C259	C	1.400538	0.141732	-0.269449
C260	C	1.650538	0.391732	-0.019449
C261	C	0.900544	-0.358247	-0.834882
C262	C	1.150544	-0.108247	-0.584882
C263	C	1.400544	0.141753	-0.334882
C264	C	1.650544	0.391753	-0.084882
C265	C	0.905517	-0.301786	-0.867608
C266	C	1.155517	-0.051786	-0.617608
C267	C	1.405517	0.198214	-0.367608
C268	C	1.655517	0.448214	-0.117608
C269	C	0.910497	-0.245344	-0.834892
C270	C	1.160497	0.004656	-0.584892
C271	C	1.410497	0.254656	-0.334892
C272	C	1.660497	0.504656	-0.084892
C273	C	0.910494	-0.245365	-0.769458
C274	C	1.160494	0.004635	-0.519458
C275	C	1.410494	0.254635	-0.269458
C276	C	1.660494	0.504635	-0.019458
C277	C	0.905511	-0.301834	-0.736739
C278	C	1.155511	-0.051834	-0.486739
C279	C	1.405511	0.198166	-0.236739
C280	C	1.655511	0.448166	0.013261
C281	C	0.945615	-0.261683	-0.971291
C282	C	1.195615	-0.011683	-0.721291
C283	C	1.445615	0.238317	-0.471291
C284	C	1.695615	0.488317	-0.221291
C285	C	0.945610	-0.261655	-1.036728
C286	C	1.195610	-0.011655	-0.786728
C287	C	1.445610	0.238345	-0.536728
C288	C	1.695610	0.488345	-0.286728
C289	C	0.865418	-0.341789	-1.036690
C290	C	1.115418	-0.091789	-0.786690
C291	C	1.365418	0.158211	-0.536690
C292	C	1.615418	0.408211	-0.286690
C293	C	0.865420	-0.341812	-0.971255
C294	C	1.115420	-0.091812	-0.721255
C295	C	1.365420	0.158188	-0.471255
C296	C	1.615420	0.408188	-0.221255
C297	C	0.905522	-0.301759	-0.938559
C298	C	1.155522	-0.051759	-0.688559
C299	C	1.405522	0.198241	-0.438559
C300	C	1.655522	0.448241	-0.188559
C301	C	0.905419	-0.301881	-0.139066
C302	C	1.155419	-0.051881	0.110934
C303	C	1.405419	0.198119	0.360934
C304	C	1.655419	0.448119	0.610934
C305	C	0.905518	-0.301710	-0.069425
C306	C	1.155518	-0.051710	0.180575
C307	C	1.405518	0.198290	0.430575
C308	C	1.655518	0.448290	0.680575
H309	H	0.144585	-0.374734	-0.374452
H310	H	0.394585	-0.124734	-0.124452
H311	H	0.644585	0.125266	0.125548
H312	H	0.894585	0.375266	0.375548
H313	H	0.832795	-0.944083	-0.374531
H314	H	1.082795	-0.694083	-0.124531
H315	H	1.332795	-0.444083	0.125469
H316	H	1.582795	-0.194083	0.375469
F317	F	0.988282	-0.219194	-0.532856
F318	F	1.238282	0.030806	-0.282856
F319	F	1.488282	0.280806	-0.032856
F320	F	1.738282	0.530806	0.217144
H321	H	0.803068	-0.861031	-0.310745
H322	H	1.053068	-0.611031	-0.060745
H323	H	1.303068	-0.361031	0.189255
H324	H	1.553068	-0.111031	0.439255
H325	H	0.465068	-0.404345	-0.310646
H326	H	0.715068	-0.154345	-0.060646
H327	H	0.965068	0.095655	0.189354
H328	H	1.215068	0.345655	0.439354
H329	H	0.803022	-0.742327	-0.310732
H330	H	1.053022	-0.492327	-0.060732
H331	H	1.303022	-0.242327	0.189268
H332	H	1.553022	0.007673	0.439268
F333	F	0.271474	-0.384759	-0.384442
F334	F	0.521474	-0.134759	-0.134442
F335	F	0.771474	0.115241	0.115558
F336	F	1.021474	0.365241	0.365558
H337	H	0.832691	-0.659159	-0.374480
H338	H	1.082691	-0.409159	-0.124480
H339	H	1.332691	-0.159159	0.125520
H340	H	1.582691	0.090841	0.375520
F341	F	0.988129	-0.532216	-0.219183
F342	F	1.238129	-0.282216	0.030817
F343	F	1.488129	-0.032216	0.280817
F344	F	1.738129	0.217784	0.530817
F345	F	0.822746	-0.384463	-0.936419
F346	F	1.072746	-0.134463	-0.686419
F347	F	1.322746	0.115537	-0.436419
F348	F	1.572746	0.365537	-0.186419
F349	F	0.473329	-0.185362	-0.291877
F350	F	0.723329	0.064638	-0.041877
F351	F	0.973329	0.314638	0.208123
F352	F	1.223329	0.564638	0.458123
F353	F	0.271466	-0.219098	-0.219301
F354	F	0.521466	0.030902	0.030699
F355	F	0.771466	0.280902	0.280699
F356	F	1.021466	0.530902	0.530699
F357	F	0.915792	-0.185249	-0.869715
F358	F	1.165792	0.064751	-0.619715
F359	F	1.415792	0.314751	-0.369715
F360	F	1.665792	0.564751	-0.119715
F361	F	0.540040	-0.384742	-0.384428
F362	F	0.790040	-0.134742	-0.134428
F363	F	1.040040	0.115258	0.115572
F364	F	1.290040	0.365258	0.365572
F365	F	0.822740	-0.384554	-0.667853
F366	F	1.072740	-0.134554	-0.417853
F367	F	1.322740	0.115446	-0.167853
F368	F	1.572740	0.365446	0.082147
H369	H	0.666924	-0.229104	-0.229275
H370	H	0.916924	0.020896	0.020725
H371	H	1.166924	0.270896	0.270725
H372	H	1.416924	0.520896	0.520725
F373	F	0.338168	-0.418470	-0.311863
F374	F	0.588168	-0.168470	-0.061863
F375	F	0.838168	0.081530	0.188137
F376	F	1.088168	0.331530	0.438137
H377	H	0.832647	-0.540444	-0.374468
H378	H	1.082647	-0.290444	-0.124468
H379	H	1.332647	-0.040444	0.125532
H380	H	1.582647	0.209556	0.375532
H381	H	0.346438	-0.199487	-0.293079
H382	H	0.596438	0.050513	-0.043079
H383	H	0.846438	0.300513	0.206921
H384	H	1.096438	0.550513	0.456921
F385	F	0.988291	-0.219054	-0.936492
F386	F	1.238291	0.030946	-0.686492
F387	F	1.488291	0.280946	-0.436492
F388	F	1.738291	0.530946	-0.186492
F389	F	1.022037	-0.869033	-0.291786
F390	F	1.272037	-0.619033	-0.041786
F391	F	1.522037	-0.369033	0.208214
F392	F	1.772037	-0.119033	0.458214
F393	F	0.136391	-0.219108	-0.219302
F394	F	0.386391	0.030892	0.030698
F395	F	0.636391	0.280892	0.280698
F396	F	0.886391	0.530892	0.530698
H397	H	0.666928	-0.374708	-0.374408
H398	H	0.916928	-0.124708	-0.124408
H399	H	1.166928	0.125292	0.125592
H400	H	1.416928	0.375292	0.375592
H401	H	0.978152	-0.659107	-0.229216
H402	H	1.228152	-0.409107	0.020784
H403	H	1.478152	-0.159107	0.270784
H404	H	1.728152	0.090893	0.520784
F405	F	0.915790	-0.185297	-0.734642
F406	F	1.165790	0.064703	-0.484642
F407	F	1.415790	0.314703	-0.234642
F408	F	1.665790	0.564703	0.015358
F409	F	0.988271	-0.219137	-0.667926
F410	F	1.238271	0.030863	-0.417926
F411	F	1.488271	0.280863	-0.167926
F412	F	1.738271	0.530863	0.082074
F413	F	0.988295	-0.219011	-1.071562
F414	F	1.238295	0.030989	-0.821562
F415	F	1.488295	0.280989	-0.571562
F416	F	1.738295	0.530989	-0.321562
F417	F	0.822821	-1.070977	-0.384567
F418	F	1.072821	-0.820977	-0.134567
F419	F	1.322821	-0.570977	0.115433
F420	F	1.572821	-0.320977	0.365433
F421	F	0.822746	-0.384415	-1.071490
F422	F	1.072746	-0.134415	-0.821490
F423	F	1.322746	0.115585	-0.571490
F424	F	1.572746	0.365585	-0.321490
H425	H	0.548214	-0.229110	-0.229284
H426	H	0.798214	0.020890	0.020716
H427	H	1.048214	0.270890	0.270716
H428	H	1.298214	0.520890	0.520716
F429	F	0.895250	-0.418318	-0.869695
F430	F	1.145250	-0.168318	-0.619695
F431	F	1.395250	0.081682	-0.369695
F432	F	1.645250	0.331682	-0.119695
F433	F	1.021985	-0.733960	-0.291764
F434	F	1.271985	-0.483960	-0.041764
F435	F	1.521985	-0.233960	0.208236
F436	F	1.771985	0.016040	0.458236
H437	H	0.896320	-0.404233	-0.742810
H438	H	1.146320	-0.154233	-0.492810
H439	H	1.396320	0.095767	-0.242810
H440	H	1.646320	0.345767	0.007190
F441	F	0.988275	-0.935851	-0.219248
F442	F	1.238275	-0.685851	0.030752
F443	F	1.488275	-0.435851	0.280752
F444	F	1.738275	-0.185851	0.530752
F445	F	0.822729	-0.384598	-0.532779
F446	F	1.072729	-0.134598	-0.282779
F447	F	1.322729	0.115402	-0.032779
F448	F	1.572729	0.365402	0.217221
F449	F	0.988337	-1.070921	-0.219286
F450	F	1.238337	-0.820921	0.030714
F451	F	1.488337	-0.570921	0.280714
F452	F	1.738337	-0.320921	0.530714
