data_functionalizedCrystal
_audit_creation_method	'MofGen! by Chris Wilmer'
_symmetry_space_group_name_H-M	'P1'
_symmetry_Int_Tables_number	1
_symmetry_cell_setting	triclinic
loop_
_symmetry_equiv_pos_as_xyz
  x,y,z
_cell_length_a	12.759401
_cell_length_b	21.395361
_cell_length_c	21.395364
_cell_angle_alpha	90.015132
_cell_angle_beta	90.004546
_cell_angle_gamma	90.029752
loop_
_atom_site_label
_atom_site_type_symbol
_atom_site_fract_x
_atom_site_fract_y
_atom_site_fract_z
Zn1	Zn	1.605993	-0.249567	0.354196
Zn2	Zn	2.105993	0.250433	0.854196
Zn3	Zn	1.605881	-0.354315	0.249413
Zn4	Zn	2.105881	0.145685	0.749413
Zn5	Zn	1.430338	-0.249553	0.249438
Zn6	Zn	1.930338	0.250447	0.749438
Zn7	Zn	1.430235	-0.354309	0.354159
Zn8	Zn	1.930235	0.145691	0.854159
O9	O	1.518112	-0.301936	0.301802
O10	O	2.018112	0.198064	0.801802
O11	O	1.752999	-0.263470	0.340301
O12	O	2.252999	0.236530	0.840301
O13	O	1.582592	-0.340415	0.161739
O14	O	2.082592	0.159585	0.661739
O15	O	1.453729	-0.161877	0.263361
O16	O	1.953729	0.338123	0.763361
O17	O	1.752917	-0.340428	0.263318
O18	O	2.252917	0.159572	0.763318
O19	O	1.582782	-0.161887	0.340326
O20	O	2.082782	0.338113	0.840326
O21	O	1.453621	-0.263447	0.161757
O22	O	1.953621	0.236553	0.661757
O23	O	1.283303	-0.263441	0.263325
O24	O	1.783303	0.236559	0.763325
O25	O	1.453553	-0.340417	0.441842
O26	O	1.953553	0.159583	0.941842
O27	O	1.283227	-0.340404	0.340263
O28	O	1.783227	0.159596	0.840263
O29	O	1.582682	-0.263464	0.441869
O30	O	2.082682	0.236536	0.941869
O31	O	1.582491	-0.441992	0.263282
O32	O	2.082491	0.058008	0.763282
O33	O	1.453444	-0.441987	0.340238
O34	O	1.953444	0.058013	0.840238
C35	C	1.245144	-0.301921	0.301793
C36	C	1.745144	0.198079	0.801793
C37	C	1.128368	-0.301930	0.301804
C38	C	1.628368	0.198070	0.801804
C39	C	1.517973	-0.464723	0.301767
C40	C	2.017973	0.035277	0.801767
C41	C	1.518010	-0.534365	0.301773
C42	C	2.018010	-0.034365	0.801773
C43	C	1.585264	-0.567059	0.261743
C44	C	2.085264	-0.067059	0.761743
C45	C	1.585313	-0.632495	0.261757
C46	C	2.085313	-0.132495	0.761757
C47	C	1.518089	-0.665233	0.301794
C48	C	2.018089	-0.165233	0.801794
C49	C	1.450830	-0.632530	0.341832
C50	C	1.950830	-0.132530	0.841832
C51	C	1.450790	-0.567096	0.341821
C52	C	1.950790	-0.067096	0.841821
C53	C	1.423488	-0.768948	0.306707
C54	C	1.923488	-0.268948	0.806707
C55	C	1.423526	-0.834381	0.306714
C56	C	1.923526	-0.334381	0.806714
C57	C	1.518211	-0.867054	0.301831
C58	C	2.018211	-0.367054	0.801831
C59	C	1.612861	-0.834286	0.296929
C60	C	2.112861	-0.334286	0.796929
C61	C	1.612822	-0.768852	0.296918
C62	C	2.112822	-0.268852	0.796918
C63	C	1.518125	-0.736185	0.301811
C64	C	2.018125	-0.236185	0.801811
C65	C	1.585524	-0.970701	0.261814
C66	C	2.085524	-0.470701	0.761814
C67	C	1.585575	-1.036138	0.261832
C68	C	2.085575	-0.536138	0.761832
C69	C	1.451082	-1.036172	0.341904
C70	C	1.951082	-0.536172	0.841904
C71	C	1.451041	-0.970737	0.341889
C72	C	1.951041	-0.470737	0.841889
C73	C	1.518260	-0.938005	0.301841
C74	C	2.018260	-0.438005	0.801841
C75	C	1.073541	-0.261933	0.341951
C76	C	1.573541	0.238067	0.841951
C77	C	0.963817	-0.261945	0.341955
C78	C	1.463817	0.238055	0.841955
C79	C	0.963756	-0.341956	0.261663
C80	C	1.463756	0.158044	0.761663
C81	C	1.073478	-0.341940	0.261656
C82	C	1.573478	0.158060	0.761656
C83	C	1.073576	-0.215742	0.388310
C84	C	1.573576	0.284258	0.888310
C85	C	0.963852	-0.215754	0.388314
C86	C	1.463852	0.284246	0.888314
C87	C	1.792145	-0.301951	0.301811
C88	C	2.292145	0.198049	0.801811
C89	C	1.908922	-0.301957	0.301815
C90	C	2.408922	0.198043	0.801815
C91	C	1.518118	-0.301941	0.465225
C92	C	2.018118	0.198059	0.965225
C93	C	1.518121	-0.301944	0.534866
C94	C	2.018121	0.198056	1.034866
C95	C	1.518280	-0.138512	0.301850
C96	C	2.018280	0.361488	0.801850
C97	C	1.518351	-0.068871	0.301871
C98	C	2.018351	0.431129	0.801871
C99	C	1.585266	-0.342008	1.036653
C100	C	2.085266	0.157992	1.536653
C101	C	1.585264	-0.342012	0.971218
C102	C	2.085264	0.157988	1.471218
C103	C	1.518118	-0.301939	0.938504
C104	C	2.018118	0.198061	1.438504
C105	C	1.450950	-0.261871	0.971232
C106	C	1.950950	0.238129	1.471232
C107	C	1.450947	-0.261872	1.036666
C108	C	1.950947	0.238128	1.536666
C109	C	1.509885	-0.245488	0.834852
C110	C	2.009885	0.254512	1.334852
C111	C	1.509896	-0.245486	0.769419
C112	C	2.009896	0.254514	1.269419
C113	C	1.518122	-0.301936	0.736684
C114	C	2.018122	0.198064	1.236684
C115	C	1.526360	-0.358391	0.769389
C116	C	2.026360	0.141609	1.269389
C117	C	1.526357	-0.358392	0.834823
C118	C	2.026357	0.141608	1.334823
C119	C	1.518114	-0.301934	0.867552
C120	C	2.018114	0.198066	1.367552
C121	C	1.585278	-0.342011	0.633011
C122	C	2.085278	0.157989	1.133011
C123	C	1.585269	-0.342016	0.567575
C124	C	2.085269	0.157984	1.067575
C125	C	1.450961	-0.261869	0.567590
C126	C	1.950961	0.238131	1.067590
C127	C	1.450965	-0.261869	0.633026
C128	C	1.950965	0.238131	1.133026
C129	C	1.518129	-0.301939	0.665732
C130	C	2.018129	0.198061	1.165732
C131	C	1.518102	-0.301944	1.139014
C132	C	2.018102	0.198056	1.639014
C133	C	1.518111	-0.301942	1.069373
C134	C	2.018111	0.198058	1.569373
H135	H	1.640001	-0.540411	0.229134
H136	H	2.140001	-0.040411	0.729134
O137	O	1.658130	-1.071401	0.218659
O138	O	2.158130	-0.571401	0.718659
H139	H	1.646879	-1.122401	0.225400
H140	H	2.146879	-0.622401	0.725400
H141	H	1.503255	-0.199512	0.861501
H142	H	2.003255	0.300488	1.361501
O143	O	1.657699	-0.385237	0.668292
O144	O	2.157699	0.114763	1.168292
H145	H	1.740168	-0.374502	0.655735
H146	H	2.240168	0.125498	1.155735
H147	H	1.639965	-0.374631	0.944572
H148	H	2.139965	0.125369	1.444572
H149	H	1.103371	-0.167191	0.375403
H150	H	1.603371	0.332809	0.875403
H151	H	1.346378	-0.742352	0.310686
H152	H	1.846378	-0.242352	0.810686
O153	O	1.378569	-1.071475	0.385085
O154	O	1.878569	-0.571475	0.885085
H155	H	1.425565	-1.101253	0.416989
H156	H	1.925565	-0.601253	0.916989
H157	H	1.107614	-0.233195	0.434369
H158	H	1.607614	0.266805	0.934369
O159	O	0.918791	-0.154662	0.365414
O160	O	1.418791	0.345338	0.865414
H161	H	0.869835	-0.163342	0.323411
H162	H	1.369835	0.336658	0.823411
O163	O	0.924411	-0.233080	0.452559
O164	O	1.424411	0.266920	0.952559
H165	H	0.837420	-0.233070	0.452523
H166	H	1.337420	0.266930	0.952523
O167	O	1.657699	-0.385233	0.532278
O168	O	2.157699	0.114767	1.032278
H169	H	1.711163	-0.357187	0.502471
H170	H	2.211163	0.142813	1.002471
H171	H	1.396272	-0.944115	0.374483
H172	H	1.896272	-0.444115	0.874483
H173	H	1.639954	-0.374637	1.063279
H174	H	2.139954	0.125363	1.563279
H175	H	1.503195	-0.199517	0.742796
H176	H	2.003195	0.300483	1.242796
O177	O	1.714987	-0.869525	0.291657
O178	O	2.214987	-0.369525	0.791657
H179	H	1.754221	-0.856971	0.247091
H180	H	2.254221	-0.356971	0.747091
H181	H	1.640262	-0.944050	0.229206
H182	H	2.140262	-0.444050	0.729206
O183	O	1.321447	-0.869723	0.312000
O184	O	1.821447	-0.369723	0.812000
H185	H	1.255601	-0.836012	0.315406
H186	H	1.755601	-0.336012	0.815406
O187	O	1.378309	-0.667835	0.385010
O188	O	1.878309	-0.167835	0.885010
H189	H	1.389624	-0.718829	0.378286
H190	H	1.889624	-0.218829	0.878286
O191	O	1.378246	-0.531825	0.384995
O192	O	1.878246	-0.031825	0.884995
H193	H	1.324822	-0.502052	0.356915
H194	H	1.824822	-0.002052	0.856915
H195	H	1.533061	-0.404359	0.861449
H196	H	2.033061	0.095641	1.361449
H197	H	1.533061	-0.404358	0.742737
H198	H	2.033061	0.095642	1.242737
H199	H	1.118113	-0.374503	0.228958
H200	H	1.618113	0.125497	0.728958
O201	O	1.378538	-0.218644	0.532318
O202	O	1.878538	0.281356	1.032318
H203	H	1.389826	-0.225371	0.481319
H204	H	1.889826	0.274629	0.981319
O205	O	1.657844	-0.667771	0.218575
O206	O	2.157844	-0.167771	0.718575
H207	H	1.704573	-0.634017	0.190722
H208	H	2.204573	-0.134017	0.690722
H209	H	1.396284	-0.229241	0.659666
H210	H	1.896284	0.270759	1.159666
O211	O	1.378533	-0.218644	0.935954
O212	O	1.878533	0.281356	1.435954
H213	H	1.389826	-0.225368	0.884956
H214	H	1.889826	0.274632	1.384956
O215	O	1.378524	-0.218650	1.071963
O216	O	1.878524	0.281350	1.571963
H217	H	1.331835	-0.190782	1.038225
H218	H	1.831835	0.309218	1.538225
H219	H	1.689888	-0.742173	0.292928
H220	H	2.189888	-0.242173	0.792928
H221	H	0.919051	-0.374531	0.228976
H222	H	1.419051	0.125469	0.728976
