data_functionalizedCrystal
_audit_creation_method	'MofGen! by Chris Wilmer'
_symmetry_space_group_name_H-M	'P1'
_symmetry_Int_Tables_number	1
_symmetry_cell_setting	triclinic
loop_
_symmetry_equiv_pos_as_xyz
  x,y,z
_cell_length_a	12.759401
_cell_length_b	12.759400
_cell_length_c	17.077396
_cell_angle_alpha	89.974414
_cell_angle_beta	89.982476
_cell_angle_gamma	90.014916
loop_
_atom_site_label
_atom_site_type_symbol
_atom_site_fract_x
_atom_site_fract_y
_atom_site_fract_z
Zn1	Zn	1.606234	-0.418260	-0.443817
Zn2	Zn	1.606135	-0.593960	-0.312558
Zn3	Zn	1.430542	-0.418297	-0.312570
Zn4	Zn	1.430524	-0.593898	-0.443786
O5	O	1.518359	-0.506104	-0.378183
O6	O	1.753242	-0.441578	-0.426413
O7	O	1.582808	-0.570700	-0.202712
O8	O	1.453897	-0.271271	-0.329998
O9	O	1.753169	-0.570664	-0.329978
O10	O	1.582977	-0.271244	-0.426425
O11	O	1.453801	-0.441640	-0.202721
O12	O	1.283519	-0.441580	-0.329968
O13	O	1.453867	-0.570558	-0.553637
O14	O	1.283506	-0.570593	-0.426372
O15	O	1.582960	-0.441517	-0.553660
O16	O	1.582791	-0.740973	-0.329947
O17	O	1.453771	-0.740927	-0.426360
C18	C	1.245391	-0.506085	-0.378168
C19	C	1.128615	-0.506102	-0.378180
C20	C	1.073718	-0.573209	-0.327898
C21	C	0.963994	-0.573228	-0.327911
C22	C	0.964073	-0.439022	-0.428492
C23	C	1.073795	-0.439009	-0.428482
C24	C	1.073672	-0.650689	-0.269826
C25	C	0.963948	-0.650707	-0.269839
C26	C	1.518296	-0.779071	-0.378166
C27	C	1.518366	-0.895848	-0.378185
C28	C	1.585621	-0.950699	-0.328039
C29	C	1.585686	-1.060423	-0.328063
C30	C	1.451231	-1.060435	-0.428383
C31	C	1.451172	-0.950713	-0.428362
C32	C	1.663245	-0.950692	-0.270118
C33	C	1.663309	-1.060416	-0.270142
C34	C	1.792392	-0.506124	-0.378198
C35	C	1.909169	-0.506132	-0.378204
C36	C	1.518422	-0.506026	-0.582927
C37	C	1.518449	-0.505993	-0.670177
C38	C	1.518450	-0.232070	-0.378216
C39	C	1.518489	-0.115294	-0.378231
C40	C	1.585671	-0.438796	-0.711180
C41	C	1.585683	-0.438761	-0.793161
C42	C	1.518479	-0.505929	-0.834136
C43	C	1.451251	-0.573129	-0.793127
C44	C	1.451234	-0.573158	-0.711148
C45	C	1.451293	-0.573066	-0.963997
C46	C	1.451311	-0.573039	-1.045982
C47	C	1.585743	-0.438669	-1.046010
C48	C	1.585725	-0.438698	-0.964031
C49	C	1.518498	-0.505900	-0.923027
C50	C	1.518356	-0.506105	-0.174235
C51	C	1.518532	-0.505842	-0.086985
H52	H	0.934137	-0.628810	-0.209075
H53	H	1.640455	-0.384010	-0.930671
H54	H	1.640480	-0.383949	-1.079399
H55	H	1.118487	-0.384375	-0.469435
H56	H	0.919425	-0.384398	-0.469447
H57	H	1.103445	-0.732084	-0.285998
N58	N	1.378830	-0.645483	-1.090180
H59	H	1.336233	-0.688054	-1.051767
H60	H	1.330239	-0.602695	-1.124197
H61	H	0.929920	-0.728048	-0.291515
N62	N	1.378780	-0.645541	-0.919769
H63	H	1.336211	-0.688091	-0.958165
H64	H	1.421524	-0.694176	-0.885754
H65	H	1.396528	-0.627815	-0.826496
H66	H	1.396525	-1.105120	-0.469235
N67	N	1.765717	-1.105397	-0.299015
H68	H	1.815150	-1.046429	-0.312953
H69	H	1.798006	-1.149970	-0.256510
N70	N	1.378636	-0.891549	-0.482449
H71	H	1.421284	-0.845958	-0.518843
H72	H	1.336093	-0.943023	-0.514183
N73	N	1.770980	-0.911123	-0.291749
H74	H	1.823830	-0.937480	-0.252377
H75	H	1.790222	-0.937421	-0.345639
N76	N	1.378720	-0.645632	-0.666927
H77	H	1.395010	-0.720697	-0.681183
H78	H	1.388930	-0.635370	-0.608790
N79	N	1.118727	-0.611932	-0.193384
H80	H	1.059794	-0.593218	-0.156456
H81	H	1.163285	-0.668771	-0.169187
H82	H	1.641575	-1.090270	-0.209338
N83	N	1.624677	-0.905702	-0.193591
H84	H	1.606086	-0.964666	-0.156631
H85	H	1.681568	-0.861105	-0.169509
H86	H	1.640399	-0.384103	-0.677824
N87	N	1.658165	-0.366264	-0.837387
H88	H	1.700733	-0.323717	-0.798989
H89	H	1.706782	-0.409004	-0.871410
