data_functionalizedCrystal
_audit_creation_method	'MofGen! by Chris Wilmer'
_symmetry_space_group_name_H-M	'P1'
_symmetry_Int_Tables_number	1
_symmetry_cell_setting	triclinic
loop_
_symmetry_equiv_pos_as_xyz
  x,y,z
_cell_length_a	12.759401
_cell_length_b	12.759400
_cell_length_c	12.759393
_cell_angle_alpha	89.968385
_cell_angle_beta	89.980163
_cell_angle_gamma	90.016209
loop_
_atom_site_label
_atom_site_type_symbol
_atom_site_fract_x
_atom_site_fract_y
_atom_site_fract_z
Zn1	Zn	1.606255	-0.418161	-0.594020
Zn2	Zn	1.939588	-0.084828	-0.260687
Zn3	Zn	2.272922	0.248506	0.072646
Zn4	Zn	1.606150	-0.593880	-0.418340
Zn5	Zn	1.939483	-0.260547	-0.085007
Zn6	Zn	2.272816	0.072787	0.248326
Zn7	Zn	1.430557	-0.418220	-0.418355
Zn8	Zn	1.763891	-0.084887	-0.085022
Zn9	Zn	2.097224	0.248446	0.248311
Zn10	Zn	1.430546	-0.593803	-0.593978
Zn11	Zn	1.763879	-0.260470	-0.260644
Zn12	Zn	2.097212	0.072863	0.072689
O13	O	1.518377	-0.506016	-0.506173
O14	O	1.851710	-0.172683	-0.172840
O15	O	2.185044	0.160650	0.160493
O16	O	1.753262	-0.441478	-0.570727
O17	O	2.086595	-0.108145	-0.237394
O18	O	2.419929	0.225189	0.095939
O19	O	1.582818	-0.570635	-0.271321
O20	O	1.916151	-0.237302	0.062012
O21	O	2.249484	0.096031	0.395345
O22	O	1.453913	-0.271191	-0.441682
O23	O	1.787246	0.062142	-0.108348
O24	O	2.120579	0.395475	0.224985
O25	O	1.753185	-0.570578	-0.441656
O26	O	2.086518	-0.237245	-0.108323
O27	O	2.419851	0.096089	0.225010
O28	O	1.582997	-0.271148	-0.570742
O29	O	1.916331	0.062185	-0.237409
O30	O	2.249664	0.395519	0.095925
O31	O	1.453811	-0.441579	-0.271332
O32	O	1.787144	-0.108246	0.062001
O33	O	2.120477	0.225088	0.395334
O34	O	1.283535	-0.441505	-0.441640
O35	O	1.616868	-0.108171	-0.108307
O36	O	1.950201	0.225162	0.225026
O37	O	1.453893	-0.570447	-0.741004
O38	O	1.787227	-0.237114	-0.407671
O39	O	2.120560	0.096220	-0.074338
O40	O	1.283526	-0.570504	-0.570669
O41	O	1.616860	-0.237171	-0.237336
O42	O	1.950193	0.096162	0.095997
O43	O	1.582986	-0.441403	-0.741036
O44	O	1.916320	-0.108070	-0.407702
O45	O	2.249653	0.225263	-0.074369
O46	O	1.582806	-0.740891	-0.441615
O47	O	1.916140	-0.407558	-0.108281
O48	O	2.249473	-0.074224	0.225052
O49	O	1.453791	-0.740834	-0.570655
O50	O	1.787124	-0.407501	-0.237321
O51	O	2.120458	-0.074168	0.096012
C52	C	1.245410	-0.506003	-0.506152
C53	C	1.578743	-0.172670	-0.172819
C54	C	1.912076	0.160663	0.160514
C55	C	1.128633	-0.506023	-0.506168
C56	C	1.461966	-0.172690	-0.172835
C57	C	1.795300	0.160644	0.160498
C58	C	1.518315	-0.778984	-0.506151
C59	C	1.851648	-0.445650	-0.172818
C60	C	2.184981	-0.112317	0.160515
C61	C	1.518384	-0.895760	-0.506177
C62	C	1.851717	-0.562427	-0.172844
C63	C	2.185051	-0.229094	0.160489
C64	C	1.073794	-0.573296	-0.573248
C65	C	1.407127	-0.239962	-0.239915
C66	C	1.740461	0.093371	0.093419
C67	C	0.964070	-0.573300	-0.573269
C68	C	1.297403	-0.239966	-0.239936
C69	C	1.630737	0.093367	0.093398
C70	C	0.964033	-0.438756	-0.439122
C71	C	1.297367	-0.105422	-0.105788
C72	C	1.630700	0.227911	0.227545
C73	C	1.073755	-0.438747	-0.439107
C74	C	1.407089	-0.105414	-0.105773
C75	C	1.740422	0.227919	0.227560
C76	C	1.585637	-0.950617	-0.439060
C77	C	1.918970	-0.617283	-0.105727
C78	C	2.252303	-0.283950	0.227606
C79	C	1.585701	-1.060341	-0.439093
C80	C	1.919035	-0.727007	-0.105759
C81	C	2.252368	-0.393674	0.227574
C82	C	1.451251	-1.060342	-0.573362
C83	C	1.784584	-0.727009	-0.240028
C84	C	2.117918	-0.393675	0.093305
C85	C	1.451193	-0.950620	-0.573334
C86	C	1.784526	-0.617287	-0.240000
C87	C	2.117859	-0.283953	0.093333
C88	C	1.663257	-0.950617	-0.361538
C89	C	1.996591	-0.617284	-0.028205
C90	C	2.329924	-0.283950	0.305129
C91	C	1.663322	-1.060341	-0.361570
C92	C	1.996655	-0.727008	-0.028237
C93	C	2.329989	-0.393674	0.305096
C94	C	1.792410	-0.506030	-0.506195
C95	C	2.125743	-0.172697	-0.172862
C96	C	2.459077	0.160637	0.160472
C97	C	1.909187	-0.506036	-0.506204
C98	C	2.242520	-0.172702	-0.172871
C99	C	2.575853	0.160631	0.160463
C100	C	1.518450	-0.505910	-0.780207
C101	C	1.851784	-0.172577	-0.446873
C102	C	2.185117	0.160757	-0.113540
C103	C	1.518482	-0.505865	-0.896984
C104	C	1.851815	-0.172531	-0.563650
C105	C	2.185148	0.160802	-0.230317
C106	C	1.518468	-0.231983	-0.506218
C107	C	1.851801	0.101350	-0.172885
C108	C	2.185135	0.434684	0.160448
C109	C	1.518507	-0.115206	-0.506238
C110	C	1.851840	0.218127	-0.172904
C111	C	2.185174	0.551460	0.160429
C112	C	1.451332	-0.438653	-0.951851
C113	C	1.784665	-0.105319	-0.618517
C114	C	2.117998	0.228014	-0.285184
C115	C	1.451356	-0.438620	-1.061575
C116	C	1.784690	-0.105287	-0.728242
C117	C	2.118023	0.228046	-0.394908
C118	C	1.585689	-0.573015	-1.061555
C119	C	1.919023	-0.239682	-0.728222
C120	C	2.252356	0.093652	-0.394888
C121	C	1.585659	-0.573052	-0.951833
C122	C	1.918992	-0.239718	-0.618499
C123	C	2.252325	0.093615	-0.285166
C124	C	1.518364	-0.506046	-0.233206
C125	C	1.851698	-0.172713	0.100127
C126	C	2.185031	0.160620	0.433461
C127	C	1.518537	-0.505796	-0.116430
C128	C	1.851870	-0.172462	0.216904
C129	C	2.185203	0.160871	0.550237
H130	H	1.118472	-0.628073	-0.627857
H131	H	1.451805	-0.294740	-0.294523
H132	H	1.785139	0.038593	0.038810
H133	H	1.641585	-1.090204	-0.280189
H134	H	1.974918	-0.756870	0.053144
H135	H	2.308251	-0.423537	0.386477
H136	H	1.640383	-0.627715	-1.106226
H137	H	1.973717	-0.294382	-0.772893
H138	H	2.307050	0.038951	-0.439560
H139	H	1.118406	-0.383959	-0.384482
H140	H	1.451740	-0.050626	-0.051149
H141	H	1.785073	0.282707	0.282184
Br142	Br	1.360161	-0.347473	-0.877415
Br143	Br	1.693494	-0.014140	-0.544082
Br144	Br	2.026828	0.319193	-0.210749
H145	H	1.740626	-1.094284	-0.390784
H146	H	2.073959	-0.760950	-0.057451
H147	H	2.407293	-0.427617	0.275883
Br148	Br	1.360202	-0.347418	-1.136034
Br149	Br	1.693535	-0.014085	-0.802701
Br150	Br	2.026869	0.319248	-0.469367
H151	H	0.919339	-0.383984	-0.384521
H152	H	1.252672	-0.050650	-0.051187
H153	H	1.586005	0.282683	0.282146
H154	H	1.396440	-0.905957	-0.627995
H155	H	1.729773	-0.572623	-0.294662
H156	H	2.063106	-0.239290	0.038672
Br157	Br	1.676790	-0.664282	-0.877363
Br158	Br	2.010123	-0.330949	-0.544029
Br159	Br	2.343456	0.002384	-0.210696
H160	H	1.744601	-0.920757	-0.383391
H161	H	2.077934	-0.587424	-0.050058
H162	H	2.411267	-0.254090	0.283275
H163	H	1.634132	-0.916670	-0.284211
H164	H	1.967466	-0.583337	0.049122
H165	H	2.300799	-0.250004	0.382455
H166	H	0.919425	-0.628078	-0.627893
H167	H	1.252758	-0.294745	-0.294560
H168	H	1.586092	0.038589	0.038773
H169	H	1.396547	-1.105022	-0.628039
H170	H	1.729881	-0.771689	-0.294706
H171	H	2.063214	-0.438356	0.038628
