data_functionalizedCrystal
_audit_creation_method	'MofGen! by Chris Wilmer'
_symmetry_space_group_name_H-M	'P1'
_symmetry_Int_Tables_number	1
_symmetry_cell_setting	triclinic
loop_
_symmetry_equiv_pos_as_xyz
  x,y,z
_cell_length_a	21.395362
_cell_length_b	12.759400
_cell_length_c	12.759393
_cell_angle_alpha	89.975651
_cell_angle_beta	89.954247
_cell_angle_gamma	90.021373
loop_
_atom_site_label
_atom_site_type_symbol
_atom_site_fract_x
_atom_site_fract_y
_atom_site_fract_z
Zn1	Zn	-0.957966	0.417710	0.594770
Zn2	Zn	-0.957923	0.593423	0.419107
Zn3	Zn	-0.853185	0.417815	0.419027
Zn4	Zn	-0.853200	0.593403	0.594666
O5	O	-0.905568	0.505588	0.506893
O6	O	-1.045638	0.440983	0.571544
O7	O	-0.944005	0.570181	0.272075
O8	O	-0.867096	0.270780	0.442350
O9	O	-1.045606	0.570079	0.442485
O10	O	-0.944078	0.270703	0.571467
O11	O	-0.867054	0.441162	0.272017
O12	O	-0.765509	0.441143	0.442250
O13	O	-0.867122	0.570044	0.741701
O14	O	-0.765520	0.570147	0.571291
O15	O	-0.944093	0.440963	0.741777
O16	O	-0.944020	0.740442	0.442385
O17	O	-0.867080	0.740427	0.571368
C18	C	-0.742781	0.505655	0.506751
C19	C	-0.673139	0.505709	0.506716
C20	C	-0.640449	0.572972	0.573803
C21	C	-0.575013	0.572951	0.573842
C22	C	-0.542271	0.505677	0.506775
C23	C	-0.574970	0.438401	0.439683
C24	C	-0.640404	0.438416	0.439653
C25	C	-0.438546	0.497247	0.412179
C26	C	-0.373113	0.497239	0.412206
C27	C	-0.340450	0.505623	0.506866
C28	C	-0.373228	0.514037	0.601502
C29	C	-0.438663	0.514053	0.601472
C30	C	-0.471319	0.505652	0.506800
C31	C	-0.236807	0.572867	0.574002
C32	C	-0.171370	0.572838	0.574042
C33	C	-0.171328	0.438293	0.439874
C34	C	-0.236764	0.438317	0.439843
C35	C	-0.269499	0.505609	0.506905
C36	C	-0.905590	0.231554	0.506911
C37	C	-0.905599	0.114778	0.506919
C38	C	-0.865545	0.059910	0.574074
C39	C	-0.865556	-0.049814	0.574084
C40	C	-0.945678	-0.049793	0.439776
C41	C	-0.945669	0.059929	0.439772
C42	C	-0.068992	0.505539	0.507005
C43	C	-0.138633	0.505563	0.506976
C44	C	-0.905564	0.778555	0.506897
C45	C	-0.905619	0.895332	0.506934
C46	C	-0.905614	0.505490	0.780926
C47	C	-0.905633	0.505448	0.897703
C48	C	-0.905559	0.505609	0.233925
C49	C	-0.905661	0.505355	0.117149
C50	C	-0.945718	0.572550	1.062331
C51	C	-0.945703	0.572600	0.952607
C52	C	-0.865572	0.438250	0.952529
C53	C	-0.865584	0.438206	1.062251
H54	H	-0.465348	0.520901	0.678527
H55	H	-0.832942	-0.094484	0.628769
H56	H	-0.832921	0.104565	0.628757
Cl57	Cl	-0.996098	0.656968	1.131342
H58	H	-0.144670	0.383513	0.385272
H59	H	-0.978301	-0.094462	0.385105
Cl60	Cl	-0.332174	0.524571	0.720512
Cl61	Cl	-0.815213	0.353741	1.131171
H62	H	-0.978289	0.104603	0.385086
H63	H	-0.978321	0.627317	0.907978
H64	H	-0.832944	0.383579	0.907817
Cl65	Cl	-0.331913	0.486660	0.293239
H66	H	-0.548391	0.627725	0.628476
H67	H	-0.667098	0.627766	0.628412
H68	H	-0.263462	0.627655	0.628613
H69	H	-0.263381	0.383548	0.385208
Cl70	Cl	-0.130273	0.657401	0.658395
Cl71	Cl	-0.479601	0.486711	0.293165
Cl72	Cl	-0.681503	0.353849	0.355307
Cl73	Cl	-0.533809	0.353822	0.355375
