data_functionalizedCrystal
_audit_creation_method	'MofGen! by Chris Wilmer'
_symmetry_space_group_name_H-M	'P1'
_symmetry_Int_Tables_number	1
_symmetry_cell_setting	triclinic
loop_
_symmetry_equiv_pos_as_xyz
  x,y,z
_cell_length_a	12.759401
_cell_length_b	17.077402
_cell_length_c	12.759393
_cell_angle_alpha	89.965312
_cell_angle_beta	89.979062
_cell_angle_gamma	90.024408
loop_
_atom_site_label
_atom_site_type_symbol
_atom_site_fract_x
_atom_site_fract_y
_atom_site_fract_z
Zn1	Zn	1.606207	-0.312438	-0.593990
Zn2	Zn	1.606073	-0.443724	-0.418297
Zn3	Zn	1.430505	-0.312480	-0.418325
Zn4	Zn	1.430472	-0.443669	-0.593934
O5	O	1.518314	-0.378078	-0.506136
O6	O	1.753210	-0.329859	-0.570695
O7	O	1.582741	-0.426355	-0.271279
O8	O	1.453882	-0.202628	-0.441662
O9	O	1.753111	-0.426314	-0.441614
O10	O	1.582969	-0.202597	-0.570722
O11	O	1.453753	-0.329930	-0.271300
O12	O	1.283480	-0.329877	-0.441608
O13	O	1.453826	-0.426221	-0.740962
O14	O	1.283456	-0.426261	-0.570627
O15	O	1.582937	-0.329806	-0.741003
O16	O	1.582709	-0.553564	-0.441560
O17	O	1.453696	-0.553524	-0.570600
C18	C	1.245347	-0.378068	-0.506115
C19	C	1.128570	-0.378083	-0.506131
C20	C	1.073723	-0.428347	-0.573206
C21	C	0.963999	-0.428350	-0.573227
C22	C	0.963979	-0.327823	-0.439089
C23	C	1.073701	-0.327817	-0.439075
C24	C	1.518213	-0.582026	-0.506094
C25	C	1.518266	-0.669276	-0.506111
C26	C	1.585511	-0.710261	-0.438993
C27	C	1.585563	-0.792241	-0.439019
C28	C	1.518362	-0.833235	-0.506161
C29	C	1.451114	-0.792244	-0.573287
C30	C	1.451068	-0.710265	-0.573265
C31	C	1.451211	-0.963114	-0.573327
C32	C	1.451255	-1.045099	-0.573348
C33	C	1.585705	-1.045090	-0.439082
C34	C	1.585660	-0.963111	-0.439059
C35	C	1.518410	-0.922126	-0.506184
C36	C	1.792347	-0.378088	-0.506158
C37	C	1.909124	-0.378093	-0.506167
C38	C	1.518393	-0.378003	-0.780170
C39	C	1.518426	-0.377971	-0.896946
C40	C	1.518445	-0.173334	-0.506201
C41	C	1.518500	-0.086084	-0.506229
C42	C	1.585660	-0.327759	-0.951831
C43	C	1.585677	-0.327725	-1.061555
C44	C	1.451226	-0.428121	-1.061500
C45	C	1.451203	-0.428150	-0.951778
C46	C	1.518296	-0.378096	-0.233169
C47	C	1.518466	-0.377907	-0.116393
H48	H	1.118359	-0.286881	-0.384454
H49	H	0.919291	-0.286900	-0.384493
C50	C	1.659434	-0.665171	-0.365135
C51	C	1.650935	-0.676522	-0.245695
C52	C	1.724863	-0.631434	-0.171838
C53	C	1.807290	-0.574995	-0.217422
C54	C	1.815793	-0.563641	-0.336869
C55	C	1.741865	-0.608729	-0.410726
H56	H	1.589914	-0.718304	-0.211945
H57	H	1.718568	-0.639839	-0.083415
H58	H	1.862016	-0.541618	-0.162749
H59	H	1.876813	-0.521860	-0.370619
H60	H	1.748160	-0.600324	-0.499148
H61	H	1.640374	-0.929734	-0.384383
C62	C	1.377354	-1.090194	-0.647222
C63	C	1.377412	-1.180368	-0.647248
C64	C	1.303517	-1.225464	-0.721128
C65	C	1.229564	-1.180386	-0.794983
C66	C	1.229502	-1.090207	-0.794959
C67	C	1.303397	-1.045111	-0.721079
H68	H	1.432159	-1.213742	-0.592574
H69	H	1.303563	-1.292220	-0.721145
H70	H	1.174862	-1.213768	-0.849673
H71	H	1.174755	-1.056833	-0.849633
H72	H	1.303352	-0.978355	-0.721062
H73	H	1.640466	-1.078464	-0.384429
C74	C	1.659540	-0.837320	-0.365188
C75	C	1.651023	-0.826127	-0.245741
C76	C	1.725010	-0.871203	-0.171909
C77	C	1.807514	-0.927472	-0.217524
C78	C	1.816034	-0.938667	-0.336977
C79	C	1.742047	-0.893591	-0.410809
H80	H	1.589946	-0.784471	-0.211968
H81	H	1.718702	-0.862915	-0.083481
H82	H	1.862283	-0.960840	-0.162869
H83	H	1.877111	-0.980323	-0.370749
H84	H	1.748355	-0.901879	-0.499236
C85	C	1.377232	-0.918027	-0.647158
C86	C	1.257807	-0.929377	-0.638470
C87	C	1.183825	-0.884289	-0.712292
C88	C	1.229267	-0.827849	-0.794803
C89	C	1.348698	-0.816496	-0.803495
C90	C	1.422680	-0.861585	-0.729673
H91	H	1.224162	-0.971159	-0.577387
H92	H	1.095414	-0.892693	-0.705858
H93	H	1.174501	-0.794472	-0.849451
H94	H	1.382343	-0.774714	-0.864578
H95	H	1.511091	-0.853180	-0.736108
C96	C	1.377094	-0.665177	-0.647093
C97	C	1.257668	-0.676525	-0.638415
C98	C	1.183695	-0.631438	-0.712249
C99	C	1.229148	-0.575003	-0.794759
C100	C	1.348580	-0.563653	-0.803440
C101	C	1.422553	-0.608740	-0.729607
H102	H	1.224015	-0.718304	-0.577333
H103	H	1.095283	-0.639840	-0.705822
H104	H	1.174388	-0.541626	-0.849415
H105	H	1.382232	-0.521874	-0.864522
H106	H	1.510965	-0.600337	-0.736033
C107	C	0.903667	-0.483644	-0.647006
C108	C	0.782977	-0.483653	-0.647033
C109	C	0.722646	-0.538950	-0.720816
C110	C	0.783004	-0.594238	-0.794572
C111	C	0.903701	-0.594231	-0.794548
C112	C	0.964032	-0.538935	-0.720765
H113	H	0.738290	-0.442723	-0.592432
H114	H	0.633298	-0.538954	-0.720833
H115	H	0.738343	-0.635172	-0.849191
H116	H	0.948388	-0.635161	-0.849149
H117	H	1.053380	-0.538930	-0.720747
C118	C	1.659594	-0.272557	-0.891515
C119	C	1.614094	-0.210949	-0.816094
C120	C	1.688028	-0.155744	-0.755781
C121	C	1.807463	-0.162147	-0.770888
C122	C	1.852970	-0.223758	-0.846312
C123	C	1.779035	-0.278964	-0.906625
H124	H	1.525676	-0.206206	-0.804908
H125	H	1.654341	-0.110135	-0.699947
H126	H	1.862194	-0.121281	-0.726241
H127	H	1.941388	-0.228501	-0.857498
H128	H	1.812723	-0.324572	-0.962459
H129	H	1.118394	-0.469275	-0.627811
C130	C	1.377292	-0.483323	-1.121818
C131	C	1.377316	-0.483297	-1.242508
C132	C	1.303383	-0.538502	-1.302822
C133	C	1.229425	-0.593733	-1.242447
C134	C	1.229397	-0.593760	-1.121750
C135	C	1.303331	-0.538555	-1.061436
H136	H	1.432067	-0.442410	-1.287207
H137	H	1.303404	-0.538482	-1.392170
H138	H	1.174695	-0.634599	-1.287096
H139	H	1.174647	-0.634647	-1.077051
H140	H	1.303310	-0.538576	-0.972087
C141	C	1.659637	-0.272493	-1.121929
C142	C	1.733574	-0.217298	-1.061612
C143	C	1.807535	-0.162062	-1.121985
C144	C	1.807559	-0.162020	-1.242675
C145	C	1.733619	-0.217217	-1.302999
C146	C	1.659658	-0.272453	-1.242626
H147	H	1.733558	-0.217328	-0.972264
H148	H	1.862270	-0.121202	-1.077329
H149	H	1.862309	-0.121131	-1.287367
H150	H	1.733635	-0.217188	-1.392347
H151	H	1.604924	-0.313313	-1.287282
H152	H	1.396402	-0.825628	-0.627959
H153	H	1.396447	-0.469038	-0.907090
