data_functionalizedCrystal
_audit_creation_method	'MofGen! by Chris Wilmer'
_symmetry_space_group_name_H-M	'P1'
_symmetry_Int_Tables_number	1
_symmetry_cell_setting	triclinic
loop_
_symmetry_equiv_pos_as_xyz
  x,y,z
_cell_length_a	12.759401
_cell_length_b	17.077402
_cell_length_c	12.759393
_cell_angle_alpha	89.965312
_cell_angle_beta	89.979062
_cell_angle_gamma	90.024408
loop_
_atom_site_label
_atom_site_type_symbol
_atom_site_fract_x
_atom_site_fract_y
_atom_site_fract_z
Zn1	Zn	1.606207	-0.312438	-0.593990
Zn2	Zn	1.606073	-0.443724	-0.418297
Zn3	Zn	1.430505	-0.312480	-0.418325
Zn4	Zn	1.430472	-0.443669	-0.593934
O5	O	1.518314	-0.378078	-0.506136
O6	O	1.753210	-0.329859	-0.570695
O7	O	1.582741	-0.426355	-0.271279
O8	O	1.453882	-0.202628	-0.441662
O9	O	1.753111	-0.426314	-0.441614
O10	O	1.582969	-0.202597	-0.570722
O11	O	1.453753	-0.329930	-0.271300
O12	O	1.283480	-0.329877	-0.441608
O13	O	1.453826	-0.426221	-0.740962
O14	O	1.283456	-0.426261	-0.570627
O15	O	1.582937	-0.329806	-0.741003
O16	O	1.582709	-0.553564	-0.441560
O17	O	1.453696	-0.553524	-0.570600
C18	C	1.245347	-0.378068	-0.506115
C19	C	1.128570	-0.378083	-0.506131
C20	C	1.073723	-0.428347	-0.573206
C21	C	0.963999	-0.428350	-0.573227
C22	C	0.963979	-0.327823	-0.439089
C23	C	1.073701	-0.327817	-0.439075
C24	C	1.518213	-0.582026	-0.506094
C25	C	1.518266	-0.669276	-0.506111
C26	C	1.585511	-0.710261	-0.438993
C27	C	1.585563	-0.792241	-0.439019
C28	C	1.518362	-0.833235	-0.506161
C29	C	1.451114	-0.792244	-0.573287
C30	C	1.451068	-0.710265	-0.573265
C31	C	1.451211	-0.963114	-0.573327
C32	C	1.451255	-1.045099	-0.573348
C33	C	1.585705	-1.045090	-0.439082
C34	C	1.585660	-0.963111	-0.439059
C35	C	1.518410	-0.922126	-0.506184
C36	C	1.792347	-0.378088	-0.506158
C37	C	1.909124	-0.378093	-0.506167
C38	C	1.518393	-0.378003	-0.780170
C39	C	1.518426	-0.377971	-0.896946
C40	C	1.518445	-0.173334	-0.506201
C41	C	1.518500	-0.086084	-0.506229
C42	C	1.585660	-0.327759	-0.951831
C43	C	1.585677	-0.327725	-1.061555
C44	C	1.451226	-0.428121	-1.061500
C45	C	1.451203	-0.428150	-0.951778
C46	C	1.518296	-0.378096	-0.233169
C47	C	1.518466	-0.377907	-0.116393
H48	H	1.118359	-0.286881	-0.384454
H49	H	0.919347	-0.469279	-0.627847
O50	O	1.651089	-0.278927	-1.114708
C51	C	1.710393	-0.234632	-1.042779
H52	H	1.713992	-0.266808	-0.964557
H53	H	1.793182	-0.226255	-1.074498
H54	H	1.671960	-0.175015	-1.031119
O55	O	1.386085	-0.476951	-1.114814
C56	C	1.445880	-0.527624	-1.178293
H57	H	1.528616	-0.532486	-1.145237
H58	H	1.407841	-0.588031	-1.179512
H59	H	1.449534	-0.503331	-1.261458
O60	O	1.386036	-0.476968	-0.898340
C61	C	1.445808	-0.527699	-0.834883
H62	H	1.525444	-0.500023	-0.818473
H63	H	1.402993	-0.538233	-0.757713
H64	H	1.457318	-0.585862	-0.877147
H65	H	1.640394	-0.286897	-0.907191
H66	H	0.919291	-0.286900	-0.384493
O67	O	1.650886	-0.923376	-0.373693
C68	C	1.627976	-0.943467	-0.268963
H69	H	1.587625	-1.003017	-0.266761
H70	H	1.703827	-0.946249	-0.221922
H71	H	1.573952	-0.897384	-0.233518
O72	O	1.126862	-0.477193	-0.638449
C73	C	1.054917	-0.521569	-0.697638
H74	H	0.976721	-0.489424	-0.701360
H75	H	1.086655	-0.530012	-0.780392
H76	H	1.043201	-0.581154	-0.659025
O77	O	1.650737	-0.670528	-0.373623
C78	C	1.627825	-0.690625	-0.268895
H79	H	1.587472	-0.750174	-0.266699
H80	H	1.703675	-0.693411	-0.221853
H81	H	1.573802	-0.644542	-0.233447
H82	H	1.640466	-1.078464	-0.384429
H83	H	1.640320	-0.825608	-0.384364
H84	H	1.396452	-0.929747	-0.627991
O85	O	1.385954	-1.084800	-0.638677
C86	C	1.326579	-1.031049	-0.697910
H87	H	1.369572	-0.972580	-0.701565
H88	H	1.315361	-1.054696	-0.780685
H89	H	1.246792	-1.022407	-0.659381
H90	H	1.396402	-0.825628	-0.627959
O91	O	1.385650	-0.670571	-0.638501
C92	C	1.326366	-0.724330	-0.697788
H93	H	1.322773	-0.782794	-0.654763
H94	H	1.243573	-0.700686	-0.708927
H95	H	1.364812	-0.732982	-0.777611
