data_functionalizedCrystal
_audit_creation_method	'MofGen! by Chris Wilmer'
_symmetry_space_group_name_H-M	'P1'
_symmetry_Int_Tables_number	1
_symmetry_cell_setting	triclinic
loop_
_symmetry_equiv_pos_as_xyz
  x,y,z
_cell_length_a	12.759401
_cell_length_b	17.077402
_cell_length_c	12.759393
_cell_angle_alpha	89.965312
_cell_angle_beta	89.979062
_cell_angle_gamma	90.024408
loop_
_atom_site_label
_atom_site_type_symbol
_atom_site_fract_x
_atom_site_fract_y
_atom_site_fract_z
Zn1	Zn	1.606207	-0.312438	-0.593990
Zn2	Zn	1.606073	-0.443724	-0.418297
Zn3	Zn	1.430505	-0.312480	-0.418325
Zn4	Zn	1.430472	-0.443669	-0.593934
O5	O	1.518314	-0.378078	-0.506136
O6	O	1.753210	-0.329859	-0.570695
O7	O	1.582741	-0.426355	-0.271279
O8	O	1.453882	-0.202628	-0.441662
O9	O	1.753111	-0.426314	-0.441614
O10	O	1.582969	-0.202597	-0.570722
O11	O	1.453753	-0.329930	-0.271300
O12	O	1.283480	-0.329877	-0.441608
O13	O	1.453826	-0.426221	-0.740962
O14	O	1.283456	-0.426261	-0.570627
O15	O	1.582937	-0.329806	-0.741003
O16	O	1.582709	-0.553564	-0.441560
O17	O	1.453696	-0.553524	-0.570600
C18	C	1.245347	-0.378068	-0.506115
C19	C	1.128570	-0.378083	-0.506131
C20	C	1.518213	-0.582026	-0.506094
C21	C	1.518266	-0.669276	-0.506111
C22	C	1.073723	-0.428347	-0.573206
C23	C	0.963999	-0.428350	-0.573227
C24	C	0.963979	-0.327823	-0.439089
C25	C	1.073701	-0.327817	-0.439075
C26	C	1.585511	-0.710261	-0.438993
C27	C	1.585563	-0.792241	-0.439019
C28	C	1.518362	-0.833235	-0.506161
C29	C	1.451114	-0.792244	-0.573287
C30	C	1.451068	-0.710265	-0.573265
C31	C	1.451211	-0.963114	-0.573327
C32	C	1.451255	-1.045099	-0.573348
C33	C	1.585705	-1.045090	-0.439082
C34	C	1.585660	-0.963111	-0.439059
C35	C	1.518410	-0.922126	-0.506184
C36	C	1.792347	-0.378088	-0.506158
C37	C	1.909124	-0.378093	-0.506167
C38	C	1.518393	-0.378003	-0.780170
C39	C	1.518426	-0.377971	-0.896946
C40	C	1.518445	-0.173334	-0.506201
C41	C	1.518500	-0.086084	-0.506229
C42	C	1.585660	-0.327759	-0.951831
C43	C	1.585677	-0.327725	-1.061555
C44	C	1.451226	-0.428121	-1.061500
C45	C	1.451203	-0.428150	-0.951778
C46	C	1.518296	-0.378096	-0.233169
C47	C	1.518466	-0.377907	-0.116393
H48	H	1.118394	-0.469275	-0.627811
H49	H	0.919291	-0.286900	-0.384493
H50	H	1.118359	-0.286881	-0.384454
C51	C	1.309971	-1.137366	-0.587856
C52	C	1.377389	-1.090157	-0.647156
H53	H	1.264365	-1.165178	-0.633425
H54	H	1.350022	-1.173506	-0.547891
H55	H	1.269789	-1.105428	-0.542046
H56	H	1.417576	-1.122096	-0.692961
H57	H	1.337334	-1.054013	-0.687139
H58	H	1.640424	-0.286837	-1.106238
C59	C	1.718418	-0.718495	-0.306284
C60	C	1.659381	-0.665204	-0.365187
H61	H	1.764028	-0.690679	-0.260725
H62	H	1.672682	-0.750521	-0.266068
H63	H	1.758596	-0.750418	-0.352117
H64	H	1.619196	-0.633285	-0.319355
H65	H	1.705123	-0.633165	-0.405407
H66	H	1.396452	-0.929747	-0.627991
C67	C	1.727115	-0.884189	-0.424788
C68	C	1.659652	-0.837220	-0.365333
H69	H	1.772912	-0.911931	-0.379321
H70	H	1.687109	-0.920389	-0.464682
H71	H	1.767089	-0.852096	-0.470669
H72	H	1.619672	-0.869313	-0.319456
H73	H	1.699662	-0.801015	-0.325420
C74	C	1.436511	-0.533769	-0.828336
C75	C	1.377297	-0.483347	-0.891436
H76	H	1.390883	-0.567837	-0.791079
H77	H	1.482261	-0.563787	-0.871137
H78	H	1.476535	-0.503875	-0.779985
H79	H	1.337279	-0.513240	-0.939793
H80	H	1.331529	-0.453325	-0.848631
C81	C	0.975047	-0.527722	-0.705802
C82	C	0.903711	-0.483605	-0.646953
H83	H	0.937826	-0.561837	-0.751314
H84	H	1.017878	-0.493557	-0.746065
H85	H	1.017806	-0.557701	-0.659933
H86	H	0.860957	-0.453622	-0.692822
H87	H	0.860862	-0.517774	-0.606686
H88	H	1.396402	-0.825628	-0.627959
H89	H	1.640374	-0.929734	-0.384383
C90	C	1.318175	-0.718503	-0.705982
C91	C	1.377152	-0.665211	-0.647046
H92	H	1.272541	-0.690687	-0.751532
H93	H	1.363948	-0.750426	-0.746211
H94	H	1.278025	-0.750529	-0.660171
H95	H	1.417308	-0.633189	-0.692857
H96	H	1.331373	-0.633275	-0.606814
C97	C	1.645686	-1.170750	-0.379695
C98	C	1.659767	-1.090138	-0.365434
H99	H	1.691449	-1.198561	-0.334271
H100	H	1.575166	-1.184289	-0.364135
H101	H	1.660912	-1.184070	-0.450351
H102	H	1.644534	-1.076816	-0.294780
H103	H	1.730304	-1.076593	-0.380987
H104	H	1.396497	-0.468977	-1.106157
C105	C	1.718550	-0.228513	-0.962911
C106	C	1.659539	-0.272595	-0.891559
H107	H	1.764154	-0.194451	-0.925701
H108	H	1.758724	-0.262703	-1.005698
H109	H	1.672789	-0.198477	-1.005712
H110	H	1.705300	-0.302635	-0.848763
H111	H	1.619362	-0.238400	-0.848754
