data_functionalizedCrystal
_audit_creation_method	'MofGen! by Chris Wilmer'
_symmetry_space_group_name_H-M	'P1'
_symmetry_Int_Tables_number	1
_symmetry_cell_setting	triclinic
loop_
_symmetry_equiv_pos_as_xyz
  x,y,z
_cell_length_a	21.395362
_cell_length_b	12.759400
_cell_length_c	21.395355
_cell_angle_alpha	89.986153
_cell_angle_beta	89.956060
_cell_angle_gamma	90.030564
loop_
_atom_site_label
_atom_site_type_symbol
_atom_site_fract_x
_atom_site_fract_y
_atom_site_fract_z
Zn1	Zn	0.957929	-0.417943	-0.354606
Zn2	Zn	0.957861	-0.593607	-0.249837
Zn3	Zn	0.853144	-0.417992	-0.249807
Zn4	Zn	0.853143	-0.593629	-0.354542
O5	O	0.905519	-0.505793	-0.302198
O6	O	1.045598	-0.441215	-0.340747
O7	O	0.943942	-0.570323	-0.162155
O8	O	0.867073	-0.270964	-0.263723
O9	O	1.045548	-0.570275	-0.263774
O10	O	0.944058	-0.270928	-0.340719
O11	O	0.867007	-0.441299	-0.162133
O12	O	0.765466	-0.441320	-0.263661
O13	O	0.867071	-0.570312	-0.442228
O14	O	0.765465	-0.570360	-0.340609
O15	O	0.944057	-0.441236	-0.442275
O16	O	0.943941	-0.740631	-0.263712
O17	O	0.867005	-0.740647	-0.340638
C18	C	0.742732	-0.505848	-0.302125
C19	C	0.673090	-0.505897	-0.302109
C20	C	0.640393	-0.573177	-0.342116
C21	C	0.574958	-0.573152	-0.342144
C22	C	0.542222	-0.505857	-0.302154
C23	C	0.574927	-0.438564	-0.262144
C24	C	0.640361	-0.438584	-0.262122
C25	C	0.438496	-0.497393	-0.245748
C26	C	0.373063	-0.497380	-0.245769
C27	C	0.340401	-0.505788	-0.302223
C28	C	0.373181	-0.514231	-0.358657
C29	C	0.438615	-0.514251	-0.358635
C30	C	0.471270	-0.505827	-0.302174
C31	C	0.236752	-0.573044	-0.342263
C32	C	0.171315	-0.573011	-0.342292
C33	C	0.171286	-0.438428	-0.262287
C34	C	0.236721	-0.438456	-0.262264
C35	C	0.269450	-0.505769	-0.302251
C36	C	0.905482	-0.778760	-0.302185
C37	C	0.905523	-0.895537	-0.302200
C38	C	0.945629	-0.950355	-0.262189
C39	C	0.945667	-1.060079	-0.262209
C40	C	0.865490	-1.060156	-0.342252
C41	C	0.865455	-0.950434	-0.342235
C42	C	0.991916	-0.950312	-0.215975
C43	C	0.991955	-1.060036	-0.215994
C44	C	1.068943	-0.505738	-0.302271
C45	C	1.138584	-0.505714	-0.302303
C46	C	0.905571	-0.505771	-0.465621
C47	C	0.905593	-0.505762	-0.535263
C48	C	0.905574	-0.231759	-0.302225
C49	C	0.905597	-0.114983	-0.302236
C50	C	0.945678	-0.438550	-0.568001
C51	C	0.945678	-0.438504	-0.633437
C52	C	0.905598	-0.505691	-0.666131
C53	C	0.865505	-0.572908	-0.633384
C54	C	0.865503	-0.572944	-0.567950
C55	C	0.900638	-0.600292	-0.769799
C56	C	0.900645	-0.600258	-0.835232
C57	C	0.905602	-0.505580	-0.867952
C58	C	0.910566	-0.410932	-0.835230
C59	C	0.910563	-0.410968	-0.769796
C60	C	0.905596	-0.505659	-0.737083
C61	C	0.945688	-0.438312	-0.971643
C62	C	0.945683	-0.438265	-1.037080
C63	C	0.865514	-0.572678	-1.037026
C64	C	0.865516	-0.572716	-0.971591
C65	C	0.905607	-0.505534	-0.938903
C66	C	0.905503	-0.505738	-0.139410
C67	C	0.905603	-0.505451	-0.069770
H68	H	0.465301	-0.521123	-0.404585
H69	H	0.263401	-0.627849	-0.374827
C70	C	1.015498	-0.842615	-0.127046
C71	C	0.968469	-0.904446	-0.153716
H72	H	1.001018	-0.814294	-0.088612
H73	H	1.051441	-0.884465	-0.119648
H74	H	1.025919	-0.787143	-0.154787
H75	H	0.958051	-0.959924	-0.125977
H76	H	0.932515	-0.862594	-0.161111
H77	H	0.896607	-0.677325	-0.861869
H78	H	0.914603	-0.333836	-0.861869
C79	C	1.043198	-1.167583	-0.292508
C80	C	1.054187	-1.105850	-0.239540
H81	H	1.081617	-1.195860	-0.307047
H82	H	1.015498	-1.223077	-0.282026
H83	H	1.025034	-1.125671	-0.324378
H84	H	1.072347	-1.147764	-0.207669
H85	H	1.081897	-1.050348	-0.250020
H86	H	0.144694	-0.627796	-0.374875
H87	H	0.666983	-0.383793	-0.229543
H88	H	0.978318	-0.383766	-0.660098
C89	C	0.914839	-1.063889	-0.134434
C90	C	0.974448	-1.100340	-0.150476
H91	H	0.904030	-1.088778	-0.093989
H92	H	0.914816	-0.989448	-0.134418
H93	H	0.885243	-1.088737	-0.164009
H94	H	1.004044	-1.075485	-0.120903
H95	H	0.974475	-1.174796	-0.150486
H96	H	0.896434	-0.677371	-0.743165
C97	C	0.759394	-1.094103	-0.372653
C98	C	0.821446	-1.120500	-0.386256
H99	H	0.732203	-1.131350	-0.399824
H100	H	0.750253	-1.112147	-0.330554
H101	H	0.753640	-1.020908	-0.378369
H102	H	0.827200	-1.193693	-0.380536
H103	H	0.830589	-1.102463	-0.428366
C104	C	0.981248	-0.378873	-0.467722
C105	C	0.989721	-0.364665	-0.532071
H106	H	1.008435	-0.333253	-0.445541
H107	H	0.939152	-0.363543	-0.456982
H108	H	0.990422	-0.449458	-0.457004
H109	H	0.980543	-0.294082	-0.542791
H110	H	1.031827	-0.379988	-0.542816
H111	H	0.667037	-0.627988	-0.374678
C112	C	0.834960	-0.750584	-1.057145
C113	C	0.821456	-0.646537	-1.072951
H114	H	0.807754	-0.796180	-1.079322
H115	H	0.877048	-0.765932	-1.067907
H116	H	0.829224	-0.760208	-1.013487
H117	H	0.827196	-0.636911	-1.116608
H118	H	0.779357	-0.631183	-1.062193
H119	H	0.832871	-0.627608	-0.660008
C120	C	1.101056	-0.946524	-0.190020
C121	C	1.057401	-0.909975	-0.233596
H122	H	1.141481	-0.921625	-0.200902
H123	H	1.090226	-0.921762	-0.149577
H124	H	1.101072	-1.020974	-0.190038
H125	H	1.057381	-0.835524	-0.233575
H126	H	1.068233	-0.934731	-0.274050
C127	C	0.353095	-0.617812	-0.450149
C128	C	0.337293	-0.523455	-0.420721
H129	H	0.330935	-0.623504	-0.488463
H130	H	0.396751	-0.619033	-0.458204
H131	H	0.342303	-0.674892	-0.423741
H132	H	0.348088	-0.466374	-0.447127
H133	H	0.293627	-0.522225	-0.412669
H134	H	0.465084	-0.490542	-0.199774
H135	H	0.548330	-0.627939	-0.374725
H136	H	0.144633	-0.383631	-0.229729
C137	C	0.230118	-0.305437	-0.183182
C138	C	0.272666	-0.364509	-0.218280
H139	H	0.252310	-0.259787	-0.156026
H140	H	0.204646	-0.265309	-0.210530
H141	H	0.204548	-0.351156	-0.159180
H142	H	0.298233	-0.318790	-0.242286
H143	H	0.298149	-0.404640	-0.190928
C144	C	0.920359	-0.223821	-0.776358
C145	C	0.916009	-0.306938	-0.733828
H146	H	0.923715	-0.159597	-0.754152
H147	H	0.956266	-0.233023	-0.801903
H148	H	0.884041	-0.222467	-0.801857
H149	H	0.952330	-0.308297	-0.708333
H150	H	0.880099	-0.297734	-0.708272
H151	H	0.548270	-0.383770	-0.229585
H152	H	0.346379	-0.490512	-0.199817
H153	H	0.832858	-0.627675	-0.541295
C154	C	0.834879	-0.916631	-0.448289
C155	C	0.821372	-0.890181	-0.386220
H156	H	0.807659	-0.879438	-0.475443
H157	H	0.876961	-0.898557	-0.457501
H158	H	0.829166	-0.989837	-0.454018
H159	H	0.827089	-0.816976	-0.380490
H160	H	0.779280	-0.908248	-0.377005
C161	C	0.781234	-0.587381	-0.897945
C162	C	0.821458	-0.646607	-0.935599
H163	H	0.754030	-0.633000	-0.875728
H164	H	0.805106	-0.547384	-0.869114
H165	H	0.757279	-0.541605	-0.923458
H166	H	0.845417	-0.692378	-0.910085
H167	H	0.797584	-0.686622	-0.964433
C168	C	1.024925	-0.305438	-0.978266
C169	C	0.989747	-0.364456	-0.935708
H170	H	1.052121	-0.259838	-0.956081
H171	H	1.048883	-0.351187	-1.003807
H172	H	0.997626	-0.265250	-1.003766
H173	H	1.017045	-0.404651	-0.910211
H174	H	0.965787	-0.318702	-0.910156
H175	H	0.978324	-0.383527	-1.063735
