data_functionalizedCrystal
_audit_creation_method	'MofGen! by Chris Wilmer'
_symmetry_space_group_name_H-M	'P1'
_symmetry_Int_Tables_number	1
_symmetry_cell_setting	triclinic
loop_
_symmetry_equiv_pos_as_xyz
  x,y,z
_cell_length_a	12.759401
_cell_length_b	21.395361
_cell_length_c	12.759401
_cell_angle_alpha	90.015573
_cell_angle_beta	90.006940
_cell_angle_gamma	90.032233
loop_
_atom_site_label
_atom_site_type_symbol
_atom_site_fract_x
_atom_site_fract_y
_atom_site_fract_z
Zn1	Zn	1.606004	-0.249522	0.593964
Zn2	Zn	2.106004	0.250478	1.093964
Zn3	Zn	1.605889	-0.354271	0.418260
Zn4	Zn	2.105889	0.145729	0.918260
Zn5	Zn	1.430346	-0.249514	0.418299
Zn6	Zn	1.930346	0.250486	0.918299
Zn7	Zn	1.430246	-0.354269	0.593898
Zn8	Zn	1.930246	0.145731	1.093898
O9	O	1.518121	-0.301894	0.506105
O10	O	2.018121	0.198106	1.006105
O11	O	1.753010	-0.263422	0.570668
O12	O	2.253010	0.236578	1.070668
O13	O	1.582597	-0.340373	0.271245
O14	O	2.082597	0.159627	0.771245
O15	O	1.453737	-0.161838	0.441645
O16	O	1.953737	0.338162	0.941645
O17	O	1.752925	-0.340381	0.441579
O18	O	2.252925	0.159619	0.941579
O19	O	1.582793	-0.161843	0.570705
O20	O	2.082793	0.338157	1.070705
O21	O	1.453626	-0.263408	0.271273
O22	O	1.953626	0.236592	0.771273
O23	O	1.283312	-0.263406	0.441581
O24	O	1.783312	0.236594	0.941581
O25	O	1.453567	-0.340376	0.740927
O26	O	1.953567	0.159624	1.240927
O27	O	1.283238	-0.340369	0.570592
O28	O	1.783238	0.159631	1.070592
O29	O	1.582696	-0.263420	0.740976
O30	O	2.082696	0.236580	1.240976
O31	O	1.582500	-0.441949	0.441515
O32	O	2.082500	0.058051	0.941515
O33	O	1.453455	-0.441947	0.570555
O34	O	1.953455	0.058053	1.070555
C35	C	1.245154	-0.301887	0.506084
C36	C	1.745154	0.198113	1.006084
C37	C	1.128377	-0.301898	0.506100
C38	C	1.628377	0.198102	1.006100
C39	C	1.073505	-0.342034	0.573171
C40	C	1.573505	0.157966	1.073171
C41	C	0.963781	-0.342036	0.573192
C42	C	1.463781	0.157964	1.073192
C43	C	0.963812	-0.261766	0.439062
C44	C	1.463812	0.238234	0.939062
C45	C	1.073534	-0.261761	0.439048
C46	C	1.573534	0.238239	0.939048
C47	C	1.517983	-0.464682	0.506047
C48	C	2.017983	0.035318	1.006047
C49	C	1.518019	-0.534323	0.506057
C50	C	2.018019	-0.034323	1.006057
C51	C	1.585272	-0.567016	0.438935
C52	C	2.085272	-0.067016	0.938935
C53	C	1.585321	-0.632452	0.438958
C54	C	2.085321	-0.132452	0.938958
C55	C	1.518098	-0.665191	0.506093
C56	C	2.018098	-0.165191	1.006093
C57	C	1.450841	-0.632490	0.573228
C58	C	1.950841	-0.132490	1.073228
C59	C	1.450801	-0.567056	0.573210
C60	C	1.950801	-0.067056	1.073210
C61	C	1.423498	-0.768909	0.514329
C62	C	1.923498	-0.268909	1.014329
C63	C	1.423536	-0.834342	0.514340
C64	C	1.923536	-0.334342	1.014340
C65	C	1.518221	-0.867012	0.506154
C66	C	2.018221	-0.367012	1.006154
C67	C	1.612871	-0.834242	0.497937
C68	C	2.112871	-0.334242	0.997937
C69	C	1.612831	-0.768808	0.497919
C70	C	2.112831	-0.268808	0.997919
C71	C	1.518134	-0.736144	0.506120
C72	C	2.018134	-0.236144	1.006120
C73	C	1.585532	-0.970658	0.439054
C74	C	2.085532	-0.470658	0.939054
C75	C	1.585583	-1.036095	0.439085
C76	C	2.085583	-0.536095	0.939085
C77	C	1.451093	-1.036132	0.573349
C78	C	1.951093	-0.536132	1.073349
C79	C	1.451052	-0.970696	0.573324
C80	C	1.951052	-0.470696	1.073324
C81	C	1.518270	-0.937963	0.506171
C82	C	2.018270	-0.437963	1.006171
C83	C	1.792155	-0.301902	0.506127
C84	C	2.292155	0.198098	1.006127
C85	C	1.908931	-0.301906	0.506136
C86	C	2.408931	0.198094	1.006136
C87	C	1.518133	-0.301899	0.780138
C88	C	2.018133	0.198101	1.280138
C89	C	1.518138	-0.301900	0.896915
C90	C	2.018138	0.198100	1.396915
C91	C	1.518289	-0.138471	0.506187
C92	C	2.018289	0.361529	1.006187
C93	C	1.518361	-0.068830	0.506222
C94	C	2.018361	0.431170	1.006222
C95	C	1.585367	-0.261835	0.951804
C96	C	2.085367	0.238165	1.451804
C97	C	1.585358	-0.261834	1.061528
C98	C	2.085358	0.238166	1.561528
C99	C	1.450888	-0.341968	1.061465
C100	C	1.950888	0.158032	1.561465
C101	C	1.450892	-0.341966	0.951742
C102	C	1.950892	0.158034	1.451742
C103	C	1.518109	-0.301904	1.233138
C104	C	2.018109	0.198096	1.733138
C105	C	1.518124	-0.301902	1.116361
C106	C	2.018124	0.198098	1.616361
H107	H	1.118212	-0.229074	0.384431
H108	H	1.618212	0.270926	0.884431
Br109	Br	1.359524	-0.522683	0.664313
Br110	Br	1.859524	-0.022683	1.164313
H111	H	1.118155	-0.374715	0.627772
H112	H	1.618155	0.125285	1.127772
H113	H	0.919145	-0.229089	0.384469
H114	H	1.419145	0.270911	0.884469
Br115	Br	0.889314	-0.396505	0.664225
Br116	Br	1.389314	0.103495	1.164225
H117	H	1.396364	-1.062788	0.628017
H118	H	1.896364	-0.562788	1.128017
Br119	Br	1.676511	-0.522596	0.347813
Br120	Br	2.176511	-0.022596	0.847813
H121	H	1.640120	-0.229210	0.907167
H122	H	2.140120	0.270790	1.407167
Br123	Br	1.676600	-0.676831	0.347858
Br124	Br	2.176600	-0.176831	0.847858
Br125	Br	1.741278	-0.724335	0.486774
Br126	Br	2.241278	-0.224335	0.986774
Br127	Br	1.359637	-0.396338	0.877243
Br128	Br	1.859637	0.103662	1.377243
Br129	Br	1.741380	-0.878572	0.486811
Br130	Br	2.241380	-0.378572	0.986811
H131	H	1.396284	-0.944076	0.627977
H132	H	1.896284	-0.444076	1.127977
H133	H	1.640269	-0.944006	0.384377
H134	H	2.140269	-0.444006	0.884377
H135	H	1.396141	-0.374589	1.106118
H136	H	1.896141	0.125411	1.606118
Br137	Br	1.359617	-0.676921	0.664349
Br138	Br	1.859617	-0.176921	1.164349
H139	H	1.640355	-1.062712	0.384428
H140	H	2.140355	-0.562712	0.884428
H141	H	1.346466	-0.861018	0.521021
H142	H	1.846466	-0.361018	1.021021
H143	H	1.346388	-0.742315	0.520998
H144	H	1.846388	-0.242315	1.020998
Br145	Br	1.676609	-0.207463	1.136017
Br146	Br	2.176609	0.292537	1.636017
