data_functionalizedCrystal
_audit_creation_method	'MofGen! by Chris Wilmer'
_symmetry_space_group_name_H-M	'P1'
_symmetry_Int_Tables_number	1
_symmetry_cell_setting	triclinic
loop_
_symmetry_equiv_pos_as_xyz
  x,y,z
_cell_length_a	21.395362
_cell_length_b	21.395361
_cell_length_c	21.395356
_cell_angle_alpha	90.030681
_cell_angle_beta	89.957023
_cell_angle_gamma	89.953415
loop_
_atom_site_label
_atom_site_type_symbol
_atom_site_fract_x
_atom_site_fract_y
_atom_site_fract_z
Zn1	Zn	0.957854	0.249189	-0.354573
Zn2	Zn	0.957758	0.353965	-0.249790
Zn3	Zn	0.853070	0.249235	-0.249774
Zn4	Zn	0.853038	0.353962	-0.354494
O5	O	0.905430	0.301588	-0.302158
O6	O	1.045519	0.263070	-0.340712
O7	O	0.943844	0.340094	-0.162110
O8	O	0.867024	0.161551	-0.263702
O9	O	1.045448	0.340049	-0.263729
O10	O	0.944008	0.161517	-0.340697
O11	O	0.866931	0.263148	-0.162098
O12	O	0.765388	0.263145	-0.263626
O13	O	0.866968	0.340042	-0.442183
O14	O	0.765364	0.340087	-0.340564
O15	O	0.943976	0.263066	-0.442240
O16	O	0.943813	0.441643	-0.263653
O17	O	0.866875	0.441640	-0.340579
C18	C	0.905347	0.464375	-0.302123
C19	C	0.905369	0.534017	-0.302129
C20	C	0.742642	0.301621	-0.302085
C21	C	0.673001	0.301650	-0.302069
C22	C	0.905479	0.301549	-0.465581
C23	C	0.905500	0.301532	-0.535222
C24	C	0.640292	0.341767	-0.342070
C25	C	0.574856	0.341752	-0.342098
C26	C	0.542133	0.301626	-0.302113
C27	C	0.574850	0.261501	-0.262109
C28	C	0.640284	0.261513	-0.262087
C29	C	0.438409	0.296587	-0.245708
C30	C	0.372976	0.296580	-0.245730
C31	C	0.340312	0.301585	-0.302182
C32	C	0.373089	0.306611	-0.358616
C33	C	0.438523	0.306623	-0.358594
C34	C	0.471180	0.301608	-0.302133
C35	C	0.236650	0.341687	-0.342218
C36	C	0.171214	0.341668	-0.342247
C37	C	0.171208	0.261421	-0.262252
C38	C	0.236644	0.261437	-0.262229
C39	C	0.269361	0.301574	-0.302211
C40	C	1.068853	0.301555	-0.302231
C41	C	1.138494	0.301541	-0.302262
C42	C	0.905530	0.138164	-0.302206
C43	C	0.905573	0.068523	-0.302227
C44	C	0.945466	0.566710	-0.262114
C45	C	0.945495	0.632146	-0.262128
C46	C	0.905416	0.664885	-0.302150
C47	C	0.865317	0.632183	-0.342172
C48	C	0.865293	0.566749	-0.342162
C49	C	0.849001	0.768615	-0.307041
C50	C	0.849024	0.834048	-0.307047
C51	C	0.905489	0.866706	-0.302187
C52	C	0.961934	0.833922	-0.297307
C53	C	0.961910	0.768488	-0.297296
C54	C	0.905438	0.735837	-0.302167
C55	C	0.945621	0.970352	-0.262186
C56	C	0.945651	1.035788	-0.262204
C57	C	0.865467	1.035825	-0.342245
C58	C	0.865442	0.970389	-0.342230
C59	C	0.905519	0.937657	-0.302197
C60	C	0.865462	0.261462	-0.567919
C61	C	0.865460	0.261451	-0.633355
C62	C	0.905507	0.301502	-0.666091
C63	C	0.945548	0.341580	-0.633385
C64	C	0.945545	0.341595	-0.567951
C65	C	0.961959	0.306413	-0.769796
C66	C	0.961964	0.306393	-0.835229
C67	C	0.905517	0.301460	-0.867911
C68	C	0.849065	0.296533	-0.835153
C69	C	0.849061	0.296548	-0.769719
C70	C	0.905515	0.301491	-0.737043
C71	C	0.865474	0.261376	-0.971561
C72	C	0.865470	0.261368	-1.036998
C73	C	0.945564	0.341494	-1.037027
C74	C	0.945562	0.341505	-0.971592
C75	C	0.905517	0.301442	-0.938863
C76	C	0.905417	0.301581	-0.139370
C77	C	0.905517	0.301421	-0.069729
H78	H	0.666926	0.374449	-0.374627
H79	H	0.832857	0.228818	-0.659982
H80	H	1.007868	0.741798	-0.293325
H81	H	0.548202	0.228829	-0.229554
Cl82	Cl	1.032927	0.312620	-0.728716
H83	H	0.832862	0.228741	-1.063619
H84	H	0.832789	0.943768	-0.374811
Cl85	Cl	0.995890	0.391934	-0.674538
Cl86	Cl	0.815117	0.211101	-0.526778
H87	H	0.803101	0.292511	-0.861762
H88	H	0.803063	0.860735	-0.311015
H89	H	0.803017	0.742031	-0.311001
Cl90	Cl	0.814935	0.673340	-0.392489
Cl91	Cl	0.479465	0.290297	-0.174732
H92	H	0.832641	0.540129	-0.374747
H93	H	0.978255	0.943700	-0.229590
Cl94	Cl	0.332033	0.312900	-0.429591
H95	H	0.978173	0.374104	-1.063680
Cl96	Cl	0.995903	0.391877	-0.930484
H97	H	0.263290	0.374366	-0.374776
Cl98	Cl	0.331777	0.290261	-0.174786
Cl99	Cl	0.778096	0.290358	-0.728539
H100	H	0.832867	0.228755	-0.944912
H101	H	1.007931	0.310402	-0.861896
H102	H	1.007913	0.860511	-0.293349
Cl103	Cl	0.996068	1.076890	-0.211900
Cl104	Cl	0.995884	0.391972	-0.526844
H105	H	0.465207	0.310714	-0.404543
Cl106	Cl	0.533727	0.392189	-0.392389
Cl107	Cl	0.130093	0.392102	-0.392543
H108	H	0.144565	0.228746	-0.229699
Cl109	Cl	0.277766	0.211003	-0.211936
Cl110	Cl	0.815086	1.076976	-0.392563
H111	H	0.666915	0.228843	-0.229513
H112	H	0.978100	0.540061	-0.229519
Cl113	Cl	0.995905	0.673255	-0.211820
