data_functionalizedCrystal
_audit_creation_method	'MofGen! by Chris Wilmer'
_symmetry_space_group_name_H-M	'P1'
_symmetry_Int_Tables_number	1
_symmetry_cell_setting	triclinic
loop_
_symmetry_equiv_pos_as_xyz
  x,y,z
_cell_length_a	12.759401
_cell_length_b	12.759400
_cell_length_c	12.759393
_cell_angle_alpha	89.968385
_cell_angle_beta	89.978854
_cell_angle_gamma	90.014632
loop_
_atom_site_label
_atom_site_type_symbol
_atom_site_fract_x
_atom_site_fract_y
_atom_site_fract_z
Zn1	Zn	1.606255	-0.418205	-0.594057
Zn2	Zn	1.606150	-0.593924	-0.418377
Zn3	Zn	1.430557	-0.418260	-0.418388
Zn4	Zn	1.430546	-0.593843	-0.594010
O5	O	1.518377	-0.506058	-0.506208
O6	O	1.753262	-0.441526	-0.570767
O7	O	1.582818	-0.570679	-0.271357
O8	O	1.453913	-0.271231	-0.441715
O9	O	1.753185	-0.570626	-0.441696
O10	O	1.582997	-0.271191	-0.570778
O11	O	1.453811	-0.441619	-0.271365
O12	O	1.283535	-0.441540	-0.441670
O13	O	1.453893	-0.570487	-0.741037
O14	O	1.283526	-0.570540	-0.570699
O15	O	1.582986	-0.441447	-0.741072
O16	O	1.582806	-0.740934	-0.441651
O17	O	1.453791	-0.740874	-0.570688
C18	C	1.245410	-0.506038	-0.506181
C19	C	1.128633	-0.506054	-0.506194
C20	C	1.518315	-0.779025	-0.506186
C21	C	1.518384	-0.895802	-0.506212
C22	C	0.963997	-0.573192	-0.438933
C23	C	1.073721	-0.573173	-0.438903
C24	C	1.073815	-0.438943	-0.573512
C25	C	0.964093	-0.438957	-0.573536
C26	C	0.963943	-0.650693	-0.361220
C27	C	1.073667	-0.650673	-0.361191
C28	C	1.585637	-0.950660	-0.439097
C29	C	1.585701	-1.060384	-0.439129
C30	C	1.451251	-1.060382	-0.573395
C31	C	1.451193	-0.950660	-0.573367
C32	C	1.663258	-0.950663	-0.361576
C33	C	1.663322	-1.060387	-0.361608
C34	C	1.792410	-0.506079	-0.506236
C35	C	1.909187	-0.506088	-0.506248
C36	C	1.518450	-0.505952	-0.780241
C37	C	1.518482	-0.505906	-0.897018
C38	C	1.518468	-0.232025	-0.506253
C39	C	1.518507	-0.115248	-0.506272
C40	C	1.451332	-0.438693	-0.951884
C41	C	1.451356	-0.438660	-1.061608
C42	C	1.585689	-0.573058	-1.061591
C43	C	1.585659	-0.573095	-0.951869
C44	C	1.518364	-0.506088	-0.233241
C45	C	1.518537	-0.505837	-0.116464
H46	H	0.919471	-0.384306	-0.628342
H47	H	1.744601	-0.920805	-0.383431
C48	C	1.134216	-0.365112	-0.647530
H49	H	1.207413	-0.374717	-0.637880
H50	H	1.116232	-0.294506	-0.632283
H51	H	1.116275	-0.380582	-0.718102
C52	C	0.923644	-0.620946	-0.251414
H53	H	0.849186	-0.620912	-0.251449
H54	H	0.948498	-0.553101	-0.233490
H55	H	0.948374	-0.670437	-0.201576
H56	H	1.396675	-0.383929	-1.106275
C57	C	1.377228	-0.890314	-0.647203
H58	H	1.386822	-0.817110	-0.637578
H59	H	1.306652	-0.908361	-0.631782
H60	H	1.392596	-0.908230	-0.717812
C61	C	1.633957	-1.100741	-0.251678
H62	H	1.634014	-1.175199	-0.251702
H63	H	1.566152	-1.076005	-0.233434
H64	H	1.683609	-1.075928	-0.202080
H65	H	1.396631	-0.383983	-0.907228
H66	H	1.640383	-0.627761	-1.106264
H67	H	1.640343	-0.627833	-0.907196
C68	C	0.917970	-0.755160	-0.400413
H69	H	0.973423	-0.801673	-0.417845
H70	H	0.876098	-0.742757	-0.460698
H71	H	0.876036	-0.785510	-0.346858
H72	H	1.107654	-0.621437	-0.283934
C73	C	1.113914	-0.760617	-0.390435
H74	H	1.188371	-0.760602	-0.390400
H75	H	1.089148	-0.778879	-0.458210
H76	H	1.089063	-0.810197	-0.340714
H77	H	1.396547	-1.105061	-0.628071
H78	H	1.634132	-0.916715	-0.284249
C79	C	1.767746	-1.106252	-0.401076
H80	H	1.814207	-1.050751	-0.418623
H81	H	1.755257	-1.148117	-0.461333
H82	H	1.798203	-1.148174	-0.347605
