data_functionalizedCrystal
_audit_creation_method	'MofGen! by Chris Wilmer'
_symmetry_space_group_name_H-M	'P1'
_symmetry_Int_Tables_number	1
_symmetry_cell_setting	triclinic
loop_
_symmetry_equiv_pos_as_xyz
  x,y,z
_cell_length_a	17.077402
_cell_length_b	12.759401
_cell_length_c	12.759393
_cell_angle_alpha	90.020938
_cell_angle_beta	89.965312
_cell_angle_gamma	89.975592
loop_
_atom_site_label
_atom_site_type_symbol
_atom_site_fract_x
_atom_site_fract_y
_atom_site_fract_z
Zn1	Zn	-0.312438	-1.606207	-0.593990
Zn2	Zn	-0.443724	-1.606073	-0.418297
Zn3	Zn	-0.312480	-1.430505	-0.418325
Zn4	Zn	-0.443669	-1.430472	-0.593934
O5	O	-0.378078	-1.518314	-0.506136
O6	O	-0.329859	-1.753210	-0.570695
O7	O	-0.426355	-1.582741	-0.271279
O8	O	-0.202628	-1.453882	-0.441662
O9	O	-0.426314	-1.753111	-0.441614
O10	O	-0.202597	-1.582969	-0.570722
O11	O	-0.329930	-1.453753	-0.271300
O12	O	-0.329877	-1.283480	-0.441608
O13	O	-0.426221	-1.453826	-0.740962
O14	O	-0.426261	-1.283456	-0.570627
O15	O	-0.329806	-1.582937	-0.741003
O16	O	-0.553564	-1.582709	-0.441560
O17	O	-0.553524	-1.453696	-0.570600
C18	C	-0.378068	-1.245347	-0.506115
C19	C	-0.378083	-1.128570	-0.506131
C20	C	-0.582026	-1.518213	-0.506094
C21	C	-0.669276	-1.518266	-0.506111
C22	C	-0.378003	-1.518393	-0.780170
C23	C	-0.377971	-1.518426	-0.896946
C24	C	-0.710261	-1.585511	-0.438993
C25	C	-0.792241	-1.585563	-0.439019
C26	C	-0.833235	-1.518362	-0.506161
C27	C	-0.792244	-1.451114	-0.573287
C28	C	-0.710265	-1.451068	-0.573265
C29	C	-0.963114	-1.451211	-0.573327
C30	C	-1.045099	-1.451255	-0.573348
C31	C	-1.045090	-1.585705	-0.439082
C32	C	-0.963111	-1.585660	-0.439059
C33	C	-0.922126	-1.518410	-0.506184
C34	C	-0.173334	-1.518445	-0.506201
C35	C	-0.086084	-1.518500	-0.506229
C36	C	-0.378088	-1.792347	-0.506158
C37	C	-0.378093	-1.909124	-0.506167
C38	C	-0.428347	-1.073723	-0.573206
C39	C	-0.428350	-0.963999	-0.573227
C40	C	-0.327823	-0.963979	-0.439089
C41	C	-0.327817	-1.073701	-0.439075
C42	C	-0.327759	-1.585660	-0.951831
C43	C	-0.327725	-1.585677	-1.061555
C44	C	-0.428121	-1.451226	-1.061500
C45	C	-0.428150	-1.451203	-0.951778
C46	C	-0.378096	-1.518296	-0.233169
C47	C	-0.377907	-1.518466	-0.116393
H48	H	-0.676889	-1.640229	-0.384314
H49	H	-0.676896	-1.396311	-0.627921
C50	C	-0.272553	-1.659597	-0.891520
N51	N	-0.230968	-1.715286	-0.846097
C52	C	-0.272520	-1.134036	-0.365283
N53	N	-0.230872	-1.179481	-0.309707
C54	C	-0.272491	-1.659642	-1.121924
N55	N	-0.230885	-1.715355	-1.167393
C56	C	-0.918033	-1.377223	-0.647160
N57	N	-0.884077	-1.321489	-0.702762
C58	C	-0.483651	-0.903672	-0.647005
N59	N	-0.525309	-0.858235	-0.702575
H60	H	-0.469038	-1.396447	-0.907090
C61	C	-0.483635	-1.134075	-0.646978
N62	N	-0.525278	-1.179530	-0.702549
C63	C	-0.272538	-0.903613	-0.365325
N64	N	-0.230897	-0.858146	-0.309762
H65	H	-0.825608	-1.640320	-0.384364
C66	C	-0.918019	-1.659567	-0.365184
N67	N	-0.884057	-1.715232	-0.309537
H68	H	-1.078464	-1.640466	-0.384429
C69	C	-1.090191	-1.377342	-0.647218
N70	N	-1.124154	-1.321673	-0.702861
H71	H	-0.468977	-1.396497	-1.106157
H72	H	-0.825628	-1.396402	-0.627959
