data_functionalizedCrystal
_audit_creation_method	'MofGen! by Chris Wilmer'
_symmetry_space_group_name_H-M	'P1'
_symmetry_Int_Tables_number	1
_symmetry_cell_setting	triclinic
loop_
_symmetry_equiv_pos_as_xyz
  x,y,z
_cell_length_a	12.759399
_cell_length_b	12.759401
_cell_length_c	12.759393
_cell_angle_alpha	89.979062
_cell_angle_beta	90.030906
_cell_angle_gamma	89.983359
loop_
_atom_site_label
_atom_site_type_symbol
_atom_site_fract_x
_atom_site_fract_y
_atom_site_fract_z
Zn1	Zn	-0.418173	-1.606263	0.594017
Zn2	Zn	0.081827	-1.106263	1.094017
Zn3	Zn	-0.593888	-1.606153	0.418336
Zn4	Zn	-0.093888	-1.106153	0.918336
Zn5	Zn	-0.418229	-1.430562	0.418352
Zn6	Zn	0.081771	-0.930562	0.918352
Zn7	Zn	-0.593815	-1.430553	0.593973
Zn8	Zn	-0.093815	-0.930553	1.093973
O9	O	-0.506026	-1.518383	0.506170
O10	O	-0.006026	-1.018383	1.006170
O11	O	-0.441489	-1.753270	0.570724
O12	O	0.058511	-1.253270	1.070724
O13	O	-0.570641	-1.582818	0.271317
O14	O	-0.070641	-1.082818	0.771317
O15	O	-0.271200	-1.453919	0.441680
O16	O	0.228800	-0.953919	0.941680
O17	O	-0.570587	-1.753189	0.441652
O18	O	-0.070587	-1.253189	0.941652
O19	O	-0.271159	-1.583006	0.570740
O20	O	0.228841	-1.083006	1.070740
O21	O	-0.441584	-1.453812	0.271329
O22	O	0.058416	-0.953812	0.771329
O23	O	-0.441513	-1.283540	0.441637
O24	O	0.058487	-0.783540	0.941637
O25	O	-0.570461	-1.453903	0.741000
O26	O	-0.070461	-0.953903	1.241000
O27	O	-0.570516	-1.283533	0.570665
O28	O	-0.070516	-0.783533	1.070665
O29	O	-0.441418	-1.582997	0.741032
O30	O	0.058582	-1.082997	1.241032
O31	O	-0.740900	-1.582809	0.441609
O32	O	-0.240900	-1.082809	0.941609
O33	O	-0.740846	-1.453796	0.570649
O34	O	-0.240846	-0.953796	1.070649
C35	C	-0.506013	-1.245415	0.506149
C36	C	-0.006013	-0.745415	1.006149
C37	C	-0.506033	-1.128639	0.506165
C38	C	-0.006033	-0.628639	1.006165
C39	C	-0.778994	-1.518318	0.506146
C40	C	-0.278994	-1.018318	1.006146
C41	C	-0.895770	-1.518387	0.506171
C42	C	-0.395770	-1.018387	1.006171
C43	C	-0.505925	-1.518461	0.780203
C44	C	-0.005925	-1.018461	1.280203
C45	C	-0.505882	-1.518495	0.896980
C46	C	-0.005882	-1.018495	1.396980
C47	C	-0.950625	-1.585641	0.439056
C48	C	-0.450625	-1.085641	0.939056
C49	C	-1.060349	-1.585708	0.439091
C50	C	-0.560349	-1.085708	0.939091
C51	C	-1.060353	-1.451259	0.573359
C52	C	-0.560353	-0.951259	1.073359
C53	C	-0.950631	-1.451198	0.573328
C54	C	-0.450631	-0.951198	1.073328
C55	C	-0.231993	-1.518476	0.506217
C56	C	0.268007	-1.018476	1.006217
C57	C	-0.115216	-1.518516	0.506237
C58	C	0.384784	-1.018516	1.006237
C59	C	-0.506040	-1.792416	0.506191
C60	C	-0.006040	-1.292416	1.006191
C61	C	-0.506046	-1.909193	0.506200
C62	C	-0.006046	-1.409193	1.006200
C63	C	-0.573307	-1.073801	0.573244
C64	C	-0.073307	-0.573801	1.073244
C65	C	-0.573311	-0.964077	0.573265
C66	C	-0.073311	-0.464077	1.073265
C67	C	-0.438764	-0.964038	0.439118
C68	C	0.061236	-0.464038	0.939118
C69	C	-0.438756	-1.073760	0.439104
C70	C	0.061244	-0.573760	0.939104
C71	C	-0.506051	-1.518365	0.233202
C72	C	-0.006051	-1.018365	0.733202
C73	C	-0.505798	-1.518535	0.116426
C74	C	-0.005798	-1.018535	0.616426
C75	C	-0.438679	-1.585719	0.951860
C76	C	0.061321	-1.085719	1.451860
C77	C	-0.438633	-1.585737	1.061584
C78	C	0.061367	-1.085737	1.561584
C79	C	-0.573004	-1.451303	1.061538
C80	C	-0.073004	-0.951303	1.561538
C81	C	-0.573044	-1.451281	0.951816
C82	C	-0.073044	-0.951281	1.451816
H83	H	-0.905960	-1.640352	0.384374
H84	H	-0.405960	-1.140352	0.884374
H85	H	-1.105035	-1.396555	0.628034
H86	H	-0.605035	-0.896555	1.128034
O87	O	-1.119521	-1.658254	0.366714
O88	O	-0.619521	-1.158254	0.866714
H89	H	-1.169610	-1.611293	0.313243
H90	H	-0.669610	-1.111293	0.813243
H91	H	-0.905965	-1.396432	0.627986
H92	H	-0.405965	-0.896432	1.127986
H93	H	-0.383908	-1.640476	1.106263
H94	H	0.116092	-1.140476	1.606263
H95	H	-0.628086	-1.118479	0.627852
H96	H	-0.128086	-0.618479	1.127852
O97	O	-0.645986	-0.904926	0.645496
O98	O	-0.145986	-0.404926	1.145496
H99	H	-0.692810	-0.961523	0.692076
H100	H	-0.192810	-0.461523	1.192076
O101	O	-0.366237	-0.904850	0.366755
O102	O	0.133763	-0.404850	0.866755
H103	H	-0.377561	-0.819340	0.378015
H104	H	0.122439	-0.319340	0.878015
H105	H	-0.627687	-1.396583	1.106199
H106	H	-0.127687	-0.896583	1.606199
O107	O	-0.366209	-1.132920	0.366735
O108	O	0.133791	-0.632920	0.866735
H109	H	-0.319445	-1.076328	0.320089
H110	H	0.180555	-0.576328	0.820089
H111	H	-0.383989	-1.640446	0.907216
H112	H	0.116011	-1.140446	1.407216
O113	O	-0.645500	-1.378742	0.892611
O114	O	-0.145500	-0.878742	1.392611
H115	H	-0.692195	-1.332007	0.949173
H116	H	-0.192195	-0.832007	1.449173
