data_functionalizedCrystal
_audit_creation_method	'MofGen! by Chris Wilmer'
_symmetry_space_group_name_H-M	'P1'
_symmetry_Int_Tables_number	1
_symmetry_cell_setting	triclinic
loop_
_symmetry_equiv_pos_as_xyz
  x,y,z
_cell_length_a	17.077404
_cell_length_b	21.395361
_cell_length_c	17.077396
_cell_angle_alpha	89.969211
_cell_angle_beta	90.019501
_cell_angle_gamma	89.969241
loop_
_atom_site_label
_atom_site_type_symbol
_atom_site_fract_x
_atom_site_fract_y
_atom_site_fract_z
Zn1	Zn	1.200013	0.249435	0.443830
Zn2	Zn	1.199902	0.354216	0.312559
Zn3	Zn	1.068745	0.249457	0.312578
Zn4	Zn	1.068695	0.354179	0.443782
O5	O	1.134339	0.301822	0.378187
O6	O	1.309845	0.263341	0.426429
O7	O	1.182479	0.340344	0.202714
O8	O	1.086225	0.161776	0.330017
O9	O	1.309764	0.340323	0.329984
O10	O	1.182667	0.161760	0.426447
O11	O	1.086118	0.263378	0.202729
O12	O	0.958891	0.263342	0.329971
O13	O	1.086140	0.340260	0.553636
O14	O	0.958855	0.340281	0.426366
O15	O	1.182619	0.263305	0.553671
O16	O	1.182431	0.441889	0.329938
O17	O	1.086033	0.441862	0.426347
C18	C	0.930391	0.301810	0.378166
C19	C	0.843141	0.301821	0.378175
C20	C	0.802153	0.341943	0.428288
C21	C	0.720172	0.341944	0.428300
C22	C	0.679182	0.301826	0.378196
C23	C	0.720176	0.261699	0.328081
C24	C	0.802155	0.261695	0.328073
C25	C	0.549306	0.261711	0.328100
C26	C	0.467321	0.261716	0.328107
C27	C	0.467323	0.341961	0.428327
C28	C	0.549302	0.341957	0.428319
C29	C	0.590291	0.301830	0.378203
C30	C	1.134236	0.464609	0.378152
C31	C	1.134264	0.534251	0.378164
C32	C	1.184502	0.566957	0.328017
C33	C	1.184539	0.632392	0.328038
C34	C	1.134323	0.665119	0.378198
C35	C	1.084081	0.632404	0.428355
C36	C	1.084051	0.566970	0.428338
C37	C	1.063644	0.768833	0.384355
C38	C	1.063672	0.834266	0.384366
C39	C	1.134415	0.866940	0.378255
C40	C	1.205132	0.834172	0.372115
C41	C	1.205102	0.768738	0.372098
C42	C	1.134350	0.736071	0.378222
C43	C	1.184698	0.970599	0.328128
C44	C	1.184736	1.036035	0.328154
C45	C	1.084271	1.036046	0.428467
C46	C	1.084240	0.970611	0.428445
C47	C	1.134452	0.937891	0.378271
C48	C	1.339083	0.301833	0.378210
C49	C	1.426333	0.301839	0.378219
C50	C	1.134386	0.301775	0.582932
C51	C	1.134407	0.301756	0.670182
C52	C	1.134465	1.138398	0.378253
C53	C	1.134521	1.068757	0.378316
C54	C	1.134337	0.301822	0.174240
C55	C	1.134469	0.301666	0.086990
C56	C	1.184645	0.261682	0.711191
C57	C	1.184654	0.261661	0.793172
C58	C	1.134429	0.301718	0.834141
C59	C	1.084185	0.341793	0.793126
C60	C	1.084172	0.341811	0.711147
C61	C	1.084217	0.341756	0.963996
C62	C	1.084230	0.341739	1.045980
C63	C	1.184699	0.261606	1.046021
C64	C	1.184686	0.261623	0.964042
C65	C	1.134443	0.301700	0.923032
H66	H	0.686795	0.229031	0.287288
Cl67	Cl	0.853684	0.211251	0.265074
H68	H	1.262738	0.860773	0.367139
H69	H	1.043196	0.659054	0.469197
H70	H	0.686803	0.374617	0.469106
H71	H	0.582674	0.374628	0.469114
H72	H	1.225607	0.228973	1.079415
Cl73	Cl	1.247832	0.211270	0.912538
H74	H	1.225452	0.659027	0.287202
H75	H	1.225547	0.229065	0.677840
Cl76	Cl	0.974701	0.727765	0.392039
Cl77	Cl	1.021010	0.392189	0.659591
H78	H	0.433946	0.374631	0.469136
Cl79	Cl	1.020888	0.525851	0.491385
Cl80	Cl	1.293999	0.727546	0.364388
H81	H	1.043331	0.374356	1.079336
H82	H	1.043291	0.374380	0.930608
Cl83	Cl	1.247849	0.211308	0.844723
H84	H	0.582676	0.229031	0.287297
Cl85	Cl	0.415791	0.211283	0.265114
Cl86	Cl	0.853675	0.392384	0.491276
H87	H	1.043288	0.374406	0.826489
Cl88	Cl	1.247820	0.929462	0.265053
Cl89	Cl	1.247638	0.525827	0.264952
H90	H	1.225651	1.062664	0.287320
H91	H	1.043388	1.062691	0.469312
Cl92	Cl	1.021075	0.929491	0.491487
H93	H	1.006090	0.860941	0.389358
