data_functionalizedCrystal
_audit_creation_method	'MofGen! by Chris Wilmer'
_symmetry_space_group_name_H-M	'P1'
_symmetry_Int_Tables_number	1
_symmetry_cell_setting	triclinic
loop_
_symmetry_equiv_pos_as_xyz
  x,y,z
_cell_length_a	12.759401
_cell_length_b	17.077402
_cell_length_c	12.759393
_cell_angle_alpha	89.966010
_cell_angle_beta	90.020938
_cell_angle_gamma	89.967223
loop_
_atom_site_label
_atom_site_type_symbol
_atom_site_fract_x
_atom_site_fract_y
_atom_site_fract_z
Zn1	Zn	1.606146	0.312438	0.593995
Zn2	Zn	1.939479	0.645772	0.927328
Zn3	Zn	2.272812	0.979105	1.260661
Zn4	Zn	1.605986	0.443724	0.418304
Zn5	Zn	1.939319	0.777058	0.751637
Zn6	Zn	2.272653	1.110391	1.084971
Zn7	Zn	1.430444	0.312480	0.418330
Zn8	Zn	1.763778	0.645813	0.751663
Zn9	Zn	2.097111	0.979147	1.084996
Zn10	Zn	1.430385	0.443670	0.593941
Zn11	Zn	1.763719	0.777003	0.927275
Zn12	Zn	2.097052	1.110336	1.260608
O13	O	1.518240	0.378078	0.506142
O14	O	1.851574	0.711411	0.839476
O15	O	2.184907	1.044745	1.172809
O16	O	1.753145	0.329859	0.570700
O17	O	2.086479	0.663192	0.904034
O18	O	2.419812	0.996526	1.237367
O19	O	1.582658	0.426355	0.271286
O20	O	1.915991	0.759688	0.604620
O21	O	2.249324	1.093022	0.937953
O22	O	1.453843	0.202628	0.441665
O23	O	1.787176	0.535961	0.774999
O24	O	2.120510	0.869294	1.108332
O25	O	1.753028	0.426314	0.441621
O26	O	2.086361	0.759648	0.774955
O27	O	2.419695	1.092981	1.108288
O28	O	1.582930	0.202597	0.570725
O29	O	1.916263	0.535930	0.904059
O30	O	2.249597	0.869264	1.237392
O31	O	1.453688	0.329930	0.271305
O32	O	1.787021	0.663264	0.604639
O33	O	2.120355	0.996597	0.937972
O34	O	1.283415	0.329877	0.441613
O35	O	1.616749	0.663210	0.774947
O36	O	1.950082	0.996544	1.108280
O37	O	1.453743	0.426221	0.740969
O38	O	1.787076	0.759554	1.074303
O39	O	2.120409	1.092888	1.407636
O40	O	1.283372	0.426261	0.570634
O41	O	1.616706	0.759595	0.903968
O42	O	1.950039	1.092928	1.237301
O43	O	1.582873	0.329806	0.741009
O44	O	1.916206	0.663139	1.074342
O45	O	2.249539	0.996473	1.407675
O46	O	1.582601	0.553564	0.441569
O47	O	1.915934	0.886897	0.774903
O48	O	2.249267	1.220231	1.108236
O49	O	1.453588	0.553524	0.570609
O50	O	1.786921	0.886857	0.903943
O51	O	2.120254	1.220190	1.237276
C52	C	1.245273	0.378068	0.506122
C53	C	1.578606	0.711402	0.839455
C54	C	1.911940	1.044735	1.172788
C55	C	1.128496	0.378083	0.506138
C56	C	1.461830	0.711417	0.839471
C57	C	1.795163	1.044750	1.172804
C58	C	1.073639	0.428347	0.573213
C59	C	1.406973	0.761680	0.906546
C60	C	1.740306	1.095014	1.239880
C61	C	0.963915	0.428350	0.573234
C62	C	1.297249	0.761683	0.906567
C63	C	1.630582	1.095017	1.239900
C64	C	0.963915	0.327823	0.439095
C65	C	1.297248	0.661157	0.772428
C66	C	1.630581	0.994490	1.105761
C67	C	1.073637	0.327817	0.439080
C68	C	1.406970	0.661150	0.772413
C69	C	1.740304	0.994484	1.105747
C70	C	1.518099	0.582026	0.506104
C71	C	1.851432	0.915359	0.839437
C72	C	2.184766	1.248693	1.172770
C73	C	1.518135	0.669276	0.506122
C74	C	1.851468	1.002609	0.839456
C75	C	2.184801	1.335942	1.172789
C76	C	1.585306	0.710182	0.573377
C77	C	1.918640	1.043516	0.906710
C78	C	2.251973	1.376849	1.240043
C79	C	1.585335	0.792163	0.573396
C80	C	1.918669	1.125496	0.906729
C81	C	2.252002	1.458829	1.240063
C82	C	1.518198	0.833235	0.506155
C83	C	1.851531	1.166568	0.839488
C84	C	2.184864	1.499902	1.172822
C85	C	1.451019	0.792323	0.438898
C86	C	1.784352	1.125656	0.772231
C87	C	2.117685	1.458989	1.105564
C88	C	1.450985	0.710344	0.438884
C89	C	1.784318	1.043677	0.772218
C90	C	2.117652	1.377010	1.105551
C91	C	1.451096	0.963193	0.438928
C92	C	1.784429	1.296526	0.772262
C93	C	2.117762	1.629859	1.105595
C94	C	1.451131	1.045177	0.438940
C95	C	1.784464	1.378511	0.772273
C96	C	2.117797	1.711844	1.105606
C97	C	1.585446	1.045012	0.573440
C98	C	1.918779	1.378345	0.906773
C99	C	2.252113	1.711678	1.240106
C100	C	1.585412	0.963033	0.573426
C101	C	1.918746	1.296366	0.906760
C102	C	2.252079	1.629699	1.240093
C103	C	1.518235	0.922126	0.506168
C104	C	1.851568	1.255459	0.839501
C105	C	2.184901	1.588793	1.172834
C106	C	1.792274	0.378088	0.506164
C107	C	2.125607	0.711422	0.839497
C108	C	2.458940	1.044755	1.172831
C109	C	1.909050	0.378093	0.506173
C110	C	2.242383	0.711426	0.839506
C111	C	2.575717	1.044759	1.172840
C112	C	1.518319	0.378003	0.780176
C113	C	1.851652	0.711336	1.113509
C114	C	2.184986	1.044669	1.446843
C115	C	1.518352	0.377971	0.896953
C116	C	1.851686	0.711304	1.230286
C117	C	2.185019	1.044637	1.563619
C118	C	1.518365	1.173334	0.506195
C119	C	1.851699	1.506667	0.839528
C120	C	2.185032	1.840000	1.172862
C121	C	1.518302	1.086084	0.506194
C122	C	1.851635	1.419417	0.839527
C123	C	2.184969	1.752751	1.172861
C124	C	1.518222	0.378096	0.233175
C125	C	1.851556	0.711430	0.566508
C126	C	2.184889	1.044763	0.899842
C127	C	1.518393	0.377907	0.116399
C128	C	1.851726	0.711241	0.449732
C129	C	2.185059	1.044574	0.783066
C130	C	1.585596	0.327759	0.951837
C131	C	1.918929	0.661093	1.285170
C132	C	2.252262	0.994426	1.618503
C133	C	1.585613	0.327725	1.061561
C134	C	1.918947	0.661059	1.394894
C135	C	2.252280	0.994392	1.728227
C136	C	1.451142	0.428121	1.061507
C137	C	1.784475	0.761454	1.394840
C138	C	2.117809	1.094788	1.728174
C139	C	1.451120	0.428150	0.951785
C140	C	1.784453	0.761484	1.285118
C141	C	2.117786	1.094817	1.618452
H142	H	0.919256	0.469279	0.627855
H143	H	1.252589	0.802612	0.961188
H144	H	1.585922	1.135945	1.294522
H145	H	1.118303	0.286881	0.384459
H146	H	1.451636	0.620215	0.717792
H147	H	1.784969	0.953548	1.051126
H148	H	1.640144	1.078322	0.628205
H149	H	1.973477	1.411655	0.961538
H150	H	2.306811	1.744989	1.294872
H151	H	1.396406	0.468977	1.106165
H152	H	1.729739	0.802311	1.439498
H153	H	2.063072	1.135644	1.772832
H154	H	1.640041	0.825465	0.628153
H155	H	1.973375	1.158799	0.961486
H156	H	2.306708	1.492132	1.294820
H157	H	1.640086	0.929592	0.628174
H158	H	1.973419	1.262925	0.961507
H159	H	2.306753	1.596259	1.294840
H160	H	1.640368	0.286837	1.106243
H161	H	1.973701	0.620170	1.439576
H162	H	2.307034	0.953504	1.772909
H163	H	1.396457	1.078616	0.384191
H164	H	1.729790	1.411950	0.717524
H165	H	2.063123	1.745283	1.050857
H166	H	1.396389	0.929889	0.384162
H167	H	1.729722	1.263223	0.717496
H168	H	2.063055	1.596556	1.050829
Cl169	Cl	1.366572	0.491274	0.882782
Cl170	Cl	1.699906	0.824607	1.216116
Cl171	Cl	2.033239	1.157941	1.549449
Cl172	Cl	0.894941	0.264637	0.354796
Cl173	Cl	1.228275	0.597970	0.688129
Cl174	Cl	1.561608	0.931304	1.021463
Cl175	Cl	1.669719	0.658557	0.657908
Cl176	Cl	2.003052	0.991890	0.991241
Cl177	Cl	2.336385	1.325223	1.324575
Cl178	Cl	1.366606	0.843957	0.354376
Cl179	Cl	1.699939	1.177290	0.687709
Cl180	Cl	2.033273	1.510623	1.021043
Cl181	Cl	1.366536	0.658918	0.354334
Cl182	Cl	1.699869	0.992251	0.687667
Cl183	Cl	2.033202	1.325585	1.021001
Cl184	Cl	1.142602	0.491535	0.657518
Cl185	Cl	1.475935	0.824869	0.990851
Cl186	Cl	1.809268	1.158202	1.324185
Cl187	Cl	1.670112	0.264673	0.882908
Cl188	Cl	2.003446	0.598007	1.216242
Cl189	Cl	2.336779	0.931340	1.549575
