data_functionalizedCrystal
_audit_creation_method	'MofGen! by Chris Wilmer'
_symmetry_space_group_name_H-M	'P1'
_symmetry_Int_Tables_number	1
_symmetry_cell_setting	triclinic
loop_
_symmetry_equiv_pos_as_xyz
  x,y,z
_cell_length_a	12.759401
_cell_length_b	11.169416
_cell_length_c	12.759393
_cell_angle_alpha	89.971305
_cell_angle_beta	89.980163
_cell_angle_gamma	90.011865
loop_
_atom_site_label
_atom_site_type_symbol
_atom_site_fract_x
_atom_site_fract_y
_atom_site_fract_z
Zn1	Zn	1.606287	-0.477687	-0.594041
Zn2	Zn	1.606195	-0.678420	-0.418371
Zn3	Zn	1.430589	-0.477755	-0.418377
Zn4	Zn	1.430591	-0.678332	-0.594008
O5	O	1.518415	-0.578048	-0.506199
O6	O	1.753296	-0.504323	-0.570750
O7	O	1.582861	-0.651866	-0.271350
O8	O	1.453933	-0.309796	-0.441696
O9	O	1.753228	-0.651801	-0.441685
O10	O	1.583018	-0.309746	-0.570756
O11	O	1.453844	-0.504438	-0.271355
O12	O	1.283568	-0.504353	-0.441663
O13	O	1.453937	-0.651651	-0.741033
O14	O	1.283570	-0.651717	-0.570698
O15	O	1.583020	-0.504238	-0.741058
O16	O	1.582863	-0.846358	-0.441653
O17	O	1.453847	-0.846293	-0.570692
C18	C	1.245448	-0.578034	-0.506178
C19	C	1.128671	-0.578056	-0.506194
C20	C	1.073838	-0.654905	-0.573277
C21	C	0.964114	-0.654910	-0.573298
C22	C	0.964067	-0.501213	-0.439144
C23	C	1.073789	-0.501204	-0.439129
C24	C	1.518374	-0.889873	-0.506191
C25	C	1.518452	-1.023273	-0.506223
C26	C	1.792449	-0.578064	-0.506221
C27	C	1.909225	-0.578071	-0.506230
C28	C	1.518489	-0.577927	-0.780233
C29	C	1.518520	-0.577875	-0.897009
C30	C	1.518486	-0.265006	-0.506230
C31	C	1.518516	-0.131606	-0.506243
C32	C	1.451365	-0.501096	-0.951873
C33	C	1.451389	-0.501059	-1.061597
C34	C	1.585733	-0.654584	-1.061584
C35	C	1.585702	-0.654626	-0.951862
C36	C	1.518403	-0.578083	-0.233232
C37	C	1.518575	-0.577796	-0.116456
H38	H	1.118435	-0.438617	-0.384502
H39	H	1.640390	-0.717154	-0.907191
H40	H	1.396704	-0.438538	-1.106263
F41	F	0.905647	-0.419427	-0.367771
H42	H	1.396661	-0.438600	-0.907215
H43	H	1.118520	-0.717481	-0.627889
F44	F	0.905760	-0.736701	-0.644699
F45	F	1.657231	-0.736262	-1.119971
