data_functionalizedCrystal
_audit_creation_method	'MofGen! by Chris Wilmer'
_symmetry_space_group_name_H-M	'P1'
_symmetry_Int_Tables_number	1
_symmetry_cell_setting	triclinic
loop_
_symmetry_equiv_pos_as_xyz
  x,y,z
_cell_length_a	12.759401
_cell_length_b	21.395362
_cell_length_c	12.759393
_cell_angle_alpha	90.034721
_cell_angle_beta	89.980324
_cell_angle_gamma	89.971618
loop_
_atom_site_label
_atom_site_type_symbol
_atom_site_fract_x
_atom_site_fract_y
_atom_site_fract_z
Zn1	Zn	1.606170	0.249401	-0.593954
Zn2	Zn	1.606020	0.354191	-0.418261
Zn3	Zn	1.430468	0.249432	-0.418293
Zn4	Zn	1.430420	0.354146	-0.593902
O5	O	1.518269	0.301793	-0.506102
O6	O	1.753171	0.263308	-0.570656
O7	O	1.582691	0.340327	-0.271244
O8	O	1.453858	0.161750	-0.441630
O9	O	1.753061	0.340297	-0.441575
O10	O	1.582945	0.161727	-0.570687
O11	O	1.453713	0.263361	-0.271268
O12	O	1.283441	0.263317	-0.441580
O13	O	1.453775	0.340219	-0.740930
O14	O	1.283405	0.340249	-0.570599
O15	O	1.582898	0.263263	-0.740968
O16	O	1.582643	0.441863	-0.441525
O17	O	1.453630	0.441830	-0.570568
C18	C	1.245302	0.301782	-0.506088
C19	C	1.128525	0.301792	-0.506106
C20	C	1.073721	0.261777	-0.573422
C21	C	0.963997	0.261783	-0.573429
C22	C	0.963891	0.341826	-0.438801
C23	C	1.073613	0.341816	-0.438790
C24	C	1.518144	0.464580	-0.506060
C25	C	1.518186	0.534221	-0.506077
C26	C	1.585690	1.036014	-0.439120
C27	C	1.585651	0.970579	-0.439092
C28	C	1.518410	0.937860	-0.506212
C29	C	1.451184	0.970581	-0.573346
C30	C	1.451217	1.036016	-0.573364
C31	C	1.510011	0.834153	-0.600831
C32	C	1.509985	0.768720	-0.600814
C33	C	1.518301	0.736039	-0.506153
C34	C	1.526665	0.768799	-0.411507
C35	C	1.526698	0.834233	-0.411526
C36	C	1.518366	0.866907	-0.506198
C37	C	1.585475	0.632373	-0.438988
C38	C	1.585429	0.566936	-0.438958
C39	C	1.450968	0.566940	-0.573221
C40	C	1.451008	0.632375	-0.573242
C41	C	1.518268	0.665088	-0.506127
C42	C	1.792303	0.301804	-0.506118
C43	C	1.909079	0.301809	-0.506125
C44	C	1.518348	0.301732	-0.780136
C45	C	1.518382	0.301707	-0.896913
C46	C	1.518421	1.138369	-0.506181
C47	C	1.518477	1.068728	-0.506249
C48	C	1.585621	0.261630	-0.951796
C49	C	1.585639	0.261603	-1.061520
C50	C	1.451175	0.341735	-1.061468
C51	C	1.451153	0.341759	-0.951746
C52	C	1.518251	0.301807	-0.233135
C53	C	1.518422	0.301656	-0.116359
H54	H	0.919380	0.229197	-0.628243
C55	C	0.903484	0.385854	-0.364769
H56	H	0.830288	0.380135	-0.374424
H57	H	0.921437	0.376635	-0.294203
H58	H	0.921452	0.427963	-0.380025
C59	C	1.133902	0.385838	-0.364742
H60	H	1.085485	0.409682	-0.324664
H61	H	1.176699	0.361834	-0.319035
H62	H	1.176705	0.413163	-0.404854
C63	C	1.535882	0.870268	-0.307423
H64	H	1.540822	0.841437	-0.251039
H65	H	1.596791	0.895767	-0.308847
H66	H	1.475677	0.895824	-0.298151
H67	H	1.396442	0.374345	-1.106126
H68	H	1.640360	0.229015	-0.907154
H69	H	1.640390	0.228967	-1.106202
H70	H	1.503429	0.860756	-0.677937
H71	H	1.396391	0.374394	-0.907058
H72	H	1.640240	0.659009	-0.384337
C73	C	1.377005	0.530957	-0.647054
H74	H	1.386615	0.487301	-0.637434
H75	H	1.306429	0.541722	-0.631621
H76	H	1.392356	0.541640	-0.717665
C77	C	1.134122	0.217748	-0.647458
H78	H	1.085763	0.193913	-0.687543
H79	H	1.176932	0.241742	-0.693160
H80	H	1.176920	0.190413	-0.607339
H81	H	1.640454	1.062645	-0.384466
H82	H	1.533439	0.742191	-0.334426
H83	H	1.503181	0.742049	-0.677879
C84	C	1.659593	0.934583	-0.365257
H85	H	1.649936	0.890928	-0.374857
H86	H	1.730178	0.945267	-0.380709
H87	H	1.644268	0.945343	-0.294647
C88	C	1.659368	0.530951	-0.365113
H89	H	1.699434	0.559807	-0.325155
H90	H	1.619198	0.505466	-0.319286
H91	H	1.705107	0.505384	-0.405349
C92	C	1.377085	0.668362	-0.647097
H93	H	1.337038	0.639506	-0.687075
H94	H	1.331344	0.693930	-0.606877
H95	H	1.417272	0.693845	-0.692921
C96	C	1.377289	1.072005	-0.647215
H97	H	1.386939	1.115661	-0.637611
H98	H	1.392617	1.061239	-0.717816
H99	H	1.306697	1.061326	-0.631765
C100	C	1.377225	0.934593	-0.647179
H101	H	1.386839	0.890937	-0.637562
H102	H	1.306647	0.945355	-0.631744
H103	H	1.392573	0.945279	-0.717790
