data_functionalizedCrystal
_audit_creation_method	'MofGen! by Chris Wilmer'
_symmetry_space_group_name_H-M	'P1'
_symmetry_Int_Tables_number	1
_symmetry_cell_setting	triclinic
loop_
_symmetry_equiv_pos_as_xyz
  x,y,z
_cell_length_a	21.395364
_cell_length_b	21.395362
_cell_length_c	21.395355
_cell_angle_alpha	89.980094
_cell_angle_beta	89.975448
_cell_angle_gamma	90.042450
loop_
_atom_site_label
_atom_site_type_symbol
_atom_site_fract_x
_atom_site_fract_y
_atom_site_fract_z
Zn1	Zn	0.957873	-0.249261	-0.354255
Zn2	Zn	0.957782	-0.354021	-0.249475
Zn3	Zn	0.853088	-0.249289	-0.249492
Zn4	Zn	0.853063	-0.354032	-0.354216
O5	O	0.905452	-0.301651	-0.301860
O6	O	1.045539	-0.263142	-0.340366
O7	O	0.943866	-0.340135	-0.161800
O8	O	0.867037	-0.161607	-0.263413
O9	O	1.045472	-0.340108	-0.263384
O10	O	0.944022	-0.161587	-0.340382
O11	O	0.866948	-0.263188	-0.161812
O12	O	0.765407	-0.263199	-0.263374
O13	O	0.866994	-0.340127	-0.441899
O14	O	0.765389	-0.340154	-0.340314
O15	O	0.943998	-0.263152	-0.441928
O16	O	0.943842	-0.441700	-0.263346
O17	O	0.866906	-0.441709	-0.340298
C18	C	0.742664	-0.301681	-0.301842
C19	C	0.673023	-0.301709	-0.301849
C20	C	0.640367	-0.261698	-0.341996
C21	C	0.574932	-0.261682	-0.341998
C22	C	0.542154	-0.301687	-0.301861
C23	C	0.574818	-0.341701	-0.261707
C24	C	0.640252	-0.341712	-0.261701
C25	C	0.438433	-0.358112	-0.296822
C26	C	0.373000	-0.358102	-0.296832
C27	C	0.340334	-0.301653	-0.301875
C28	C	0.373108	-0.245212	-0.306921
C29	C	0.438542	-0.245223	-0.306915
C30	C	0.471202	-0.301679	-0.301862
C31	C	0.236725	-0.261620	-0.342026
C32	C	0.171289	-0.261603	-0.342024
C33	C	0.171176	-0.341627	-0.261736
C34	C	0.236612	-0.341639	-0.261735
C35	C	0.269382	-0.301637	-0.301883
C36	C	0.905378	-0.464438	-0.301829
C37	C	0.905404	-0.534080	-0.301837
C38	C	0.945663	-1.035851	-0.261892
C39	C	0.945639	-0.970415	-0.261878
C40	C	0.905540	-0.937718	-0.301904
C41	C	0.865451	-0.970461	-0.341937
C42	C	0.865471	-1.035895	-0.341947
C43	C	0.900532	-0.834028	-0.358335
C44	C	0.900516	-0.768595	-0.358327
C45	C	0.905474	-0.735897	-0.301876
C46	C	0.910460	-0.768640	-0.245432
C47	C	0.910481	-0.834074	-0.245441
C48	C	0.905513	-0.866765	-0.301899
C49	C	0.945532	-0.632209	-0.261827
C50	C	0.945504	-0.566772	-0.261811
C51	C	0.865319	-0.566820	-0.341876
C52	C	0.865343	-0.632255	-0.341886
C53	C	0.905453	-0.664946	-0.301862
C54	C	1.068875	-0.301621	-0.301878
C55	C	1.138516	-0.301608	-0.301885
C56	C	0.905504	-0.301638	-0.465283
C57	C	0.905526	-0.301633	-0.534924
C58	C	0.905542	-0.138227	-0.301904
C59	C	0.905581	-0.068586	-0.301923
C60	C	0.945620	-0.261550	-0.567654
C61	C	0.945619	-0.261523	-0.633089
C62	C	0.905531	-0.301590	-0.665793
C63	C	0.865429	-0.341675	-0.633055
C64	C	0.865426	-0.341697	-0.567621
C65	C	0.900558	-0.358007	-0.769457
C66	C	0.900565	-0.357986	-0.834890
C67	C	0.905534	-0.301524	-0.867614
C68	C	0.910511	-0.245080	-0.834896
C69	C	0.910508	-0.245101	-0.769462
C70	C	0.905528	-0.301571	-0.736745
C71	C	0.945630	-0.261409	-0.971295
C72	C	0.945624	-0.261381	-1.036732
C73	C	0.865438	-0.341538	-1.036697
C74	C	0.865440	-0.341561	-0.971262
C75	C	0.905539	-0.301497	-0.938565
C76	C	0.905436	-0.301618	-0.139072
C77	C	0.905535	-0.301447	-0.069431
H78	H	0.263409	-0.229044	-0.374713
H79	H	0.832774	-0.374336	-0.540973
O80	O	0.135830	-0.384771	-0.218440
H81	H	0.169534	-0.412594	-0.190519
H82	H	0.832801	-0.943836	-0.374527
H83	H	0.978191	-0.658827	-0.229236
O84	O	0.271840	-0.384797	-0.218436
H85	H	0.238057	-0.412615	-0.190528
O86	O	0.337651	-0.418972	-0.291378
H87	H	0.371358	-0.458225	-0.287853
O88	O	0.675476	-0.384872	-0.218400
H89	H	0.705294	-0.356785	-0.186571
H90	H	0.896517	-0.403946	-0.861523
H91	H	0.914558	-0.199142	-0.742826
O92	O	0.988866	-0.218335	-0.532391
H93	H	0.982134	-0.225085	-0.481391
H94	H	0.896343	-0.403973	-0.742819
O95	O	0.136067	-0.218441	-0.385325
H96	H	0.085061	-0.225146	-0.378579
O97	O	0.822179	-0.384776	-0.935954
H98	H	0.794297	-0.412628	-0.969686
H99	H	0.978141	-0.540119	-0.229210
H100	H	0.548338	-0.229097	-0.374689
H101	H	0.914559	-0.199103	-0.861538
H102	H	0.832706	-0.658909	-0.374485
H103	H	0.667045	-0.229125	-0.374687
O104	O	0.988891	-0.935100	-0.218716
H105	H	0.982140	-0.884108	-0.225438
H106	H	0.896609	-0.860646	-0.404317
O107	O	0.822243	-1.071210	-0.385128
H108	H	0.794356	-1.037483	-0.412962
H109	H	0.978277	-0.228783	-0.944672
O110	O	0.915849	-0.869392	-0.184567
H111	H	0.919288	-0.835667	-0.145308
O112	O	0.988870	-0.218296	-0.668403
H113	H	1.016755	-0.190444	-0.634673
O114	O	0.473895	-0.184353	-0.312341
H115	H	0.440192	-0.145094	-0.315841
H116	H	0.978273	-0.228737	-1.063379
H117	H	0.832791	-0.374155	-1.063324
O118	O	0.822188	-0.384890	-0.668323
H119	H	0.828928	-0.378145	-0.719322
O120	O	0.473665	-0.419000	-0.291387
H121	H	0.439884	-0.458244	-0.287891
H122	H	0.548127	-0.374273	-0.229026
O123	O	0.337885	-0.184321	-0.312353
H124	H	0.308086	-0.185370	-0.354793
O125	O	0.988915	-1.071111	-0.218719
H126	H	1.016778	-1.037351	-0.190876
O127	O	0.915802	-0.733384	-0.184538
H128	H	0.914941	-0.682383	-0.194010
O129	O	0.822068	-0.531564	-0.385051
H130	H	0.828789	-0.480563	-0.378323
H131	H	0.896460	-0.741939	-0.404286
