data_functionalizedCrystal
_audit_creation_method	'MofGen! by Chris Wilmer'
_symmetry_space_group_name_H-M	'P1'
_symmetry_Int_Tables_number	1
_symmetry_cell_setting	triclinic
loop_
_symmetry_equiv_pos_as_xyz
  x,y,z
_cell_length_a	12.759401
_cell_length_b	17.077396
_cell_length_c	12.759399
_cell_angle_alpha	89.973998
_cell_angle_beta	90.015542
_cell_angle_gamma	89.983471
loop_
_atom_site_label
_atom_site_type_symbol
_atom_site_fract_x
_atom_site_fract_y
_atom_site_fract_z
Zn1	Zn	1.606231	-0.443794	-0.418254
Zn2	Zn	2.106231	0.056206	0.081746
Zn3	Zn	1.606130	-0.312534	-0.593955
Zn4	Zn	2.106130	0.187466	-0.093955
Zn5	Zn	1.430539	-0.312549	-0.418292
Zn6	Zn	1.930539	0.187451	0.081708
Zn7	Zn	1.430520	-0.443764	-0.593893
Zn8	Zn	1.930520	0.056236	-0.093893
O9	O	1.518355	-0.378160	-0.506099
O10	O	2.018355	0.121840	-0.006099
O11	O	1.753238	-0.426388	-0.441572
O12	O	2.253238	0.073612	0.058428
O13	O	1.582804	-0.202689	-0.570694
O14	O	2.082804	0.297311	-0.070694
O15	O	1.453895	-0.329978	-0.271266
O16	O	1.953895	0.170022	0.228734
O17	O	1.753164	-0.329952	-0.570658
O18	O	2.253164	0.170048	-0.070658
O19	O	1.582975	-0.426403	-0.271238
O20	O	2.082975	0.073597	0.228762
O21	O	1.453797	-0.202700	-0.441635
O22	O	1.953797	0.297300	0.058365
O23	O	1.283516	-0.329949	-0.441576
O24	O	1.783516	0.170051	0.058424
O25	O	1.453863	-0.553615	-0.570553
O26	O	1.953863	-0.053615	-0.070553
O27	O	1.283502	-0.426352	-0.570589
O28	O	1.783502	0.073648	-0.070589
O29	O	1.582956	-0.553637	-0.441512
O30	O	2.082956	-0.053637	0.058488
O31	O	1.582785	-0.329923	-0.740968
O32	O	2.082785	0.170077	-0.240968
O33	O	1.453765	-0.426337	-0.740922
O34	O	1.953765	0.073663	-0.240922
C35	C	1.245388	-0.378149	-0.506081
C36	C	1.745388	0.121851	-0.006081
C37	C	1.128611	-0.378163	-0.506098
C38	C	1.628611	0.121837	-0.006098
C39	C	1.073788	-0.428455	-0.439004
C40	C	1.573788	0.071545	0.060996
C41	C	0.964064	-0.428460	-0.439015
C42	C	1.464064	0.071540	0.060985
C43	C	0.963995	-0.327879	-0.573222
C44	C	1.463995	0.172121	-0.073222
C45	C	1.073717	-0.327871	-0.573206
C46	C	1.573717	0.172129	-0.073206
C47	C	1.518419	-0.582904	-0.506021
C48	C	2.018419	-0.082904	-0.006021
C49	C	1.518446	-0.670154	-0.505988
C50	C	2.018446	-0.170154	-0.005988
C51	C	1.585667	-0.711157	-0.438791
C52	C	2.085667	-0.211157	0.061209
C53	C	1.585680	-0.793138	-0.438756
C54	C	2.085680	-0.293138	0.061244
C55	C	1.518475	-0.834114	-0.505924
C56	C	2.018475	-0.334114	-0.005924
C57	C	1.451246	-0.793105	-0.573125
C58	C	1.951246	-0.293105	-0.073125
C59	C	1.451229	-0.711126	-0.573153
C60	C	1.951229	-0.211126	-0.073153
C61	C	1.451289	-0.963975	-0.573061
C62	C	1.951289	-0.463975	-0.073061
C63	C	1.451307	-1.045960	-0.573034
C64	C	1.951307	-0.545960	-0.073034
C65	C	1.585739	-1.045987	-0.438664
C66	C	2.085739	-0.545987	0.061336
C67	C	1.585722	-0.964008	-0.438693
C68	C	2.085722	-0.464008	0.061307
C69	C	1.518494	-0.923005	-0.505895
C70	C	2.018494	-0.423005	-0.005895
C71	C	1.792388	-0.378172	-0.506117
C72	C	2.292388	0.121828	-0.006117
C73	C	1.909165	-0.378177	-0.506126
C74	C	2.409165	0.121823	-0.006126
C75	C	1.518291	-0.378142	-0.779066
C76	C	2.018291	0.121858	-0.279066
C77	C	1.518359	-0.378161	-0.895843
C78	C	2.018359	0.121839	-0.395843
C79	C	1.518352	-0.174212	-0.506100
C80	C	2.018352	0.325788	-0.006100
C81	C	1.518529	-0.086963	-0.505837
C82	C	2.018529	0.413037	-0.005837
C83	C	1.585617	-0.328015	-0.950693
C84	C	2.085617	0.171985	-0.450693
C85	C	1.585684	-0.328041	-1.060417
C86	C	2.085684	0.171959	-0.560417
C87	C	1.451228	-0.428362	-1.060430
C88	C	1.951228	0.071638	-0.560430
C89	C	1.451166	-0.428339	-0.950708
C90	C	1.951166	0.071661	-0.450708
C91	C	1.518448	-0.378195	-0.232065
C92	C	2.018448	0.121805	0.267935
C93	C	1.518488	-0.378210	-0.115289
C94	C	2.018488	0.121790	0.384711
H95	H	1.118479	-0.469403	-0.384358
H96	H	1.618479	0.030597	0.115642
H97	H	1.396520	-0.469213	-1.105115
H98	H	1.896520	0.030787	-0.605115
H99	H	1.396581	-1.079321	-0.627726
H100	H	1.896581	-0.579321	-0.127726
Cl101	Cl	1.366613	-0.491389	-0.881748
Cl102	Cl	1.866613	0.008611	-0.381748
H103	H	1.640396	-0.677800	-0.384098
H104	H	2.140396	-0.177800	0.115902
Cl105	Cl	0.895148	-0.491686	-0.354663
Cl106	Cl	1.395148	0.008314	0.145337
H107	H	0.919288	-0.286934	-0.627860
H108	H	1.419288	0.213066	-0.127860
H109	H	1.640452	-0.930647	-0.384004
H110	H	2.140452	-0.430647	0.115996
H111	H	1.118355	-0.286913	-0.627842
H112	H	1.618355	0.213087	-0.127842
H113	H	1.640331	-0.287158	-0.906024
H114	H	2.140331	0.212842	-0.406024
Cl115	Cl	1.670238	-0.844681	-0.354322
Cl116	Cl	2.170238	-0.344681	0.145678
H117	H	1.640477	-1.079375	-0.383944
H118	H	2.140477	-0.579375	0.116056
Cl119	Cl	1.366771	-0.912430	-0.657544
Cl120	Cl	1.866771	-0.412430	-0.157544
Cl121	Cl	1.366756	-0.844618	-0.657562
Cl122	Cl	1.866756	-0.344618	-0.157562
Cl123	Cl	1.366715	-0.659579	-0.657630
Cl124	Cl	1.866715	-0.159579	-0.157630
Cl125	Cl	1.670243	-0.265000	-1.129368
Cl126	Cl	2.170243	0.235000	-0.629368
