data_functionalizedCrystal
_audit_creation_method	'MofGen! by Chris Wilmer'
_symmetry_space_group_name_H-M	'P1'
_symmetry_Int_Tables_number	1
_symmetry_cell_setting	triclinic
loop_
_symmetry_equiv_pos_as_xyz
  x,y,z
_cell_length_a	12.759401
_cell_length_b	11.169416
_cell_length_c	12.759393
_cell_angle_alpha	89.971939
_cell_angle_beta	89.980324
_cell_angle_gamma	90.010575
loop_
_atom_site_label
_atom_site_type_symbol
_atom_site_fract_x
_atom_site_fract_y
_atom_site_fract_z
Zn1	Zn	1.606300	-0.477735	-0.594003
Zn2	Zn	2.106300	0.022265	-0.094003
Zn3	Zn	1.606205	-0.678464	-0.418330
Zn4	Zn	2.106205	-0.178464	0.081670
Zn5	Zn	1.430598	-0.477795	-0.418342
Zn6	Zn	1.930598	0.022205	0.081658
Zn7	Zn	1.430604	-0.678377	-0.593971
Zn8	Zn	1.930604	-0.178377	-0.093971
O9	O	1.518427	-0.578093	-0.506161
O10	O	2.018427	-0.078093	-0.006161
O11	O	1.753308	-0.504374	-0.570708
O12	O	2.253308	-0.004374	-0.070708
O13	O	1.582868	-0.651907	-0.271310
O14	O	2.082868	-0.151907	0.228690
O15	O	1.453943	-0.309838	-0.441661
O16	O	1.953943	0.190162	0.058339
O17	O	1.753238	-0.651849	-0.441642
O18	O	2.253238	-0.151849	0.058358
O19	O	1.583030	-0.309794	-0.570719
O20	O	2.083030	0.190206	-0.070719
O21	O	1.453851	-0.504476	-0.271319
O22	O	1.953851	-0.004476	0.228681
O23	O	1.283578	-0.504391	-0.441631
O24	O	1.783578	-0.004391	0.058369
O25	O	1.453953	-0.651699	-0.740996
O26	O	1.953953	-0.151699	-0.240996
O27	O	1.283582	-0.651758	-0.570665
O28	O	1.783582	-0.151758	-0.070665
O29	O	1.583035	-0.504289	-0.741019
O30	O	2.083035	-0.004289	-0.241019
O31	O	1.582874	-0.846402	-0.441611
O32	O	2.082874	-0.346402	0.058389
O33	O	1.453861	-0.846338	-0.570654
O34	O	1.953861	-0.346338	-0.070654
C35	C	1.245459	-0.578072	-0.506146
C36	C	1.745459	-0.078072	-0.006146
C37	C	1.128683	-0.578092	-0.506165
C38	C	1.628683	-0.078092	-0.006165
C39	C	1.073858	-0.501441	-0.573473
C40	C	1.573858	-0.001441	-0.073473
C41	C	0.964134	-0.501453	-0.573480
C42	C	1.464134	-0.001453	-0.073480
C43	C	0.964069	-0.654778	-0.438868
C44	C	1.464069	-0.154778	0.061132
C45	C	1.073791	-0.654759	-0.438856
C46	C	1.573791	-0.154759	0.061144
C47	C	1.518386	-0.889918	-0.506151
C48	C	2.018386	-0.389918	-0.006151
C49	C	1.518465	-1.023318	-0.506182
C50	C	2.018465	-0.523318	-0.006182
C51	C	1.792460	-0.578115	-0.506177
C52	C	2.292460	-0.078115	-0.006177
C53	C	1.909237	-0.578124	-0.506183
C54	C	2.409237	-0.078124	-0.006183
C55	C	1.518505	-0.577978	-0.780195
C56	C	2.018505	-0.077978	-0.280195
C57	C	1.518539	-0.577929	-0.896972
C58	C	2.018539	-0.077929	-0.396972
C59	C	1.518496	-0.265051	-0.506195
C60	C	2.018496	0.234949	-0.006195
C61	C	1.518526	-0.131651	-0.506209
C62	C	2.018526	0.368349	-0.006209
C63	C	1.585757	-0.501160	-0.951847
C64	C	2.085757	-0.001160	-0.451847
C65	C	1.585775	-0.501108	-1.061571
C66	C	2.085775	-0.001108	-0.561571
C67	C	1.451353	-0.654604	-1.061534
C68	C	1.951353	-0.154604	-0.561534
C69	C	1.451331	-0.654649	-0.951812
C70	C	1.951331	-0.154649	-0.451812
C71	C	1.518409	-0.578121	-0.233194
C72	C	2.018409	-0.078121	0.266806
C73	C	1.518579	-0.577832	-0.116418
C74	C	2.018579	-0.077832	0.383582
H75	H	1.118547	-0.439010	-0.628277
H76	H	1.618547	0.060990	-0.128277
F77	F	0.905641	-0.736371	-0.367240
F78	F	1.405641	-0.236371	0.132760
F79	F	0.905790	-0.419869	-0.645118
F80	F	1.405790	0.080131	-0.145118
F81	F	1.657325	-0.419408	-1.119969
F82	F	2.157325	0.080592	-0.619969
F83	F	1.379779	-0.736356	-0.893406
F84	F	1.879779	-0.236356	-0.393406
F85	F	1.132144	-0.736337	-0.367205
F86	F	1.632144	-0.236337	0.132795
F87	F	1.657283	-0.419504	-0.893485
F88	F	2.157283	0.080496	-0.393485
H89	H	1.396637	-0.717070	-1.106199
H90	H	1.896637	-0.217070	-0.606199
