data_functionalizedCrystal
_audit_creation_method	'MofGen! by Chris Wilmer'
_symmetry_space_group_name_H-M	'P1'
_symmetry_Int_Tables_number	1
_symmetry_cell_setting	triclinic
loop_
_symmetry_equiv_pos_as_xyz
  x,y,z
_cell_length_a	21.395362
_cell_length_b	21.395361
_cell_length_c	21.395355
_cell_angle_alpha	89.978489
_cell_angle_beta	89.956060
_cell_angle_gamma	90.046585
loop_
_atom_site_label
_atom_site_type_symbol
_atom_site_fract_x
_atom_site_fract_y
_atom_site_fract_z
Zn1	Zn	0.957859	-0.249246	-0.354573
Zn2	Zn	0.957762	-0.354005	-0.249790
Zn3	Zn	0.853074	-0.249275	-0.249774
Zn4	Zn	0.853044	-0.354018	-0.354494
O5	O	0.905435	-0.301636	-0.302158
O6	O	1.045524	-0.263125	-0.340712
O7	O	0.943847	-0.340119	-0.162110
O8	O	0.867028	-0.161593	-0.263702
O9	O	1.045453	-0.340091	-0.263729
O10	O	0.944013	-0.161572	-0.340697
O11	O	0.866934	-0.263174	-0.162098
O12	O	0.765392	-0.263187	-0.263626
O13	O	0.866976	-0.340113	-0.442183
O14	O	0.765370	-0.340141	-0.340564
O15	O	0.943983	-0.263137	-0.442240
O16	O	0.943817	-0.441685	-0.263653
O17	O	0.866881	-0.441695	-0.340579
C18	C	0.742647	-0.301669	-0.302085
C19	C	0.673006	-0.301698	-0.302069
C20	C	0.640297	-0.341822	-0.342070
C21	C	0.574862	-0.341806	-0.342098
C22	C	0.542138	-0.301674	-0.302113
C23	C	0.574854	-0.261543	-0.262109
C24	C	0.640288	-0.261555	-0.262087
C25	C	0.438413	-0.296627	-0.245708
C26	C	0.372980	-0.296619	-0.245730
C27	C	0.340317	-0.301633	-0.302182
C28	C	0.373095	-0.306668	-0.358616
C29	C	0.438529	-0.306681	-0.358594
C30	C	0.471185	-0.301656	-0.302133
C31	C	0.236656	-0.341742	-0.342218
C32	C	0.171219	-0.341723	-0.342247
C33	C	0.171213	-0.261462	-0.262252
C34	C	0.236648	-0.261479	-0.262229
C35	C	0.269366	-0.301622	-0.302211
C36	C	0.905352	-0.464424	-0.302123
C37	C	0.905374	-0.534065	-0.302129
C38	C	0.945470	-0.566752	-0.262114
C39	C	0.945499	-0.632188	-0.262128
C40	C	0.905421	-0.664933	-0.302150
C41	C	0.865322	-0.632238	-0.342172
C42	C	0.865299	-0.566804	-0.342162
C43	C	0.849006	-0.768664	-0.307041
C44	C	0.849029	-0.834097	-0.307047
C45	C	0.905494	-0.866754	-0.302187
C46	C	0.961939	-0.833970	-0.297307
C47	C	0.961915	-0.768536	-0.297296
C48	C	0.905443	-0.735886	-0.302167
C49	C	0.945625	-0.970394	-0.262186
C50	C	0.945655	-1.035830	-0.262204
C51	C	0.865473	-1.035879	-0.342245
C52	C	0.865448	-0.970444	-0.342230
C53	C	0.905524	-0.937705	-0.302197
C54	C	1.068858	-0.301603	-0.302231
C55	C	1.138499	-0.301589	-0.302262
C56	C	0.905487	-0.301623	-0.465581
C57	C	0.905509	-0.301618	-0.535222
C58	C	0.905535	-0.138213	-0.302206
C59	C	0.905578	-0.068571	-0.302227
C60	C	0.945605	-0.261535	-0.567966
C61	C	0.945604	-0.261508	-0.633402
C62	C	0.905514	-0.301575	-0.666091
C63	C	0.865410	-0.341661	-0.633339
C64	C	0.865407	-0.341682	-0.567904
C65	C	0.900538	-0.357992	-0.769752
C66	C	0.900545	-0.357972	-0.835185
C67	C	0.905518	-0.301509	-0.867911
C68	C	0.910497	-0.245065	-0.835197
C69	C	0.910495	-0.245086	-0.769763
C70	C	0.905512	-0.301556	-0.737043
C71	C	0.945615	-0.261393	-0.971608
C72	C	0.945610	-0.261365	-1.037045
C73	C	0.865419	-0.341524	-1.036980
C74	C	0.865421	-0.341547	-0.971545
C75	C	0.905522	-0.301482	-0.938863
C76	C	0.905419	-0.301603	-0.139370
C77	C	0.905518	-0.301432	-0.069729
H78	H	0.548226	-0.374479	-0.374674
C79	C	0.676283	-0.385970	-0.386055
H80	H	0.647428	-0.409860	-0.409887
H81	H	0.701758	-0.413239	-0.362032
H82	H	0.701860	-0.362042	-0.413394
H83	H	0.803022	-0.742081	-0.311001
C84	C	0.474583	-0.312209	-0.420665
H85	H	0.445763	-0.315190	-0.454292
H86	H	0.500074	-0.348529	-0.419777
H87	H	0.500148	-0.276307	-0.426224
H88	H	0.832795	-0.943828	-0.374811
H89	H	0.896321	-0.403959	-0.743111
H90	H	0.978103	-0.540098	-0.229519
H91	H	0.144569	-0.228783	-0.229699
H92	H	0.896494	-0.403932	-0.861815
H93	H	0.978153	-0.658807	-0.229544
H94	H	0.832766	-0.374282	-0.659958
C95	C	0.272629	-0.217351	-0.218219
H96	H	0.243770	-0.193450	-0.194404
H97	H	0.298211	-0.190091	-0.242225
H98	H	0.298098	-0.241289	-0.190864
H99	H	0.803068	-0.860785	-0.311015
H100	H	0.832843	-1.062540	-0.374834
C101	C	0.821309	-0.385785	-0.531885
H102	H	0.797434	-0.409648	-0.560722
H103	H	0.794023	-0.361837	-0.506334
H104	H	0.845269	-0.413089	-0.506381
H105	H	0.832691	-0.658904	-0.374760
H106	H	0.978310	-1.062443	-0.229621
H107	H	0.346502	-0.310751	-0.404585
H108	H	0.914548	-0.199088	-0.861842
H109	H	0.978259	-0.943737	-0.229590
C110	C	0.272648	-0.385890	-0.386201
H111	H	0.243794	-0.409778	-0.410037
H112	H	0.298119	-0.413161	-0.362176
H113	H	0.298228	-0.361963	-0.413537
H114	H	1.007873	-0.741844	-0.293325
C115	C	0.336927	-0.291125	-0.183655
H116	H	0.293279	-0.291857	-0.191750
H117	H	0.347649	-0.252963	-0.163661
H118	H	0.347605	-0.325189	-0.157257
H119	H	0.832647	-0.540189	-0.374747
C120	C	0.135240	-0.385869	-0.386242
H121	H	0.164099	-0.409784	-0.410041
H122	H	0.109764	-0.361949	-0.413601
H123	H	0.109664	-0.413125	-0.362218
C124	C	0.474336	-0.291076	-0.183609
H125	H	0.445445	-0.288075	-0.150005
H126	H	0.499887	-0.254756	-0.184503
H127	H	0.499832	-0.326973	-0.178007
H128	H	0.548206	-0.228866	-0.229554
C129	C	0.676269	-0.217421	-0.218080
H130	H	0.647410	-0.193518	-0.194267
H131	H	0.701852	-0.190164	-0.242088
H132	H	0.701737	-0.241359	-0.190724
C133	C	0.989710	-0.217461	-0.532019
H134	H	1.013586	-0.193581	-0.560896
H135	H	1.016993	-0.241429	-0.506510
H136	H	0.965755	-0.190170	-0.506480
C137	C	0.989717	-0.217420	-0.669428
H138	H	1.013602	-0.193565	-0.640592
H139	H	0.965773	-0.190115	-0.694941
H140	H	1.017001	-0.241385	-0.694969
C141	C	0.915964	-0.183005	-0.733777
H142	H	0.915254	-0.191108	-0.690121
H143	H	0.881897	-0.156653	-0.744476
H144	H	0.954124	-0.162958	-0.744526
H145	H	1.007918	-0.860558	-0.293349
C146	C	0.989714	-0.217315	-0.935655
H147	H	1.013586	-0.193430	-0.964531
H148	H	1.017001	-0.241280	-0.910147
H149	H	0.965753	-0.190029	-0.910115
C150	C	0.989719	-0.217272	-1.073064
H151	H	1.013604	-0.193420	-1.044225
H152	H	0.965772	-0.189965	-1.098572
H153	H	1.017003	-0.241233	-1.098608
C154	C	0.821324	-0.385602	-1.072930
H155	H	0.827071	-0.379853	-1.116591
H156	H	0.779230	-0.376450	-1.062177
H157	H	0.830477	-0.427702	-1.062210
C158	C	0.821319	-0.385643	-0.935525
H159	H	0.797445	-0.409506	-0.964363
H160	H	0.794034	-0.361690	-0.909979
H161	H	0.845273	-0.412949	-0.910016
