data_functionalizedCrystal
_audit_creation_method	'MofGen! by Chris Wilmer'
_symmetry_space_group_name_H-M	'P1'
_symmetry_Int_Tables_number	1
_symmetry_cell_setting	triclinic
loop_
_symmetry_equiv_pos_as_xyz
  x,y,z
_cell_length_a	12.759399
_cell_length_b	12.759401
_cell_length_c	12.759393
_cell_angle_alpha	90.021396
_cell_angle_beta	89.967969
_cell_angle_gamma	89.984062
loop_
_atom_site_label
_atom_site_type_symbol
_atom_site_fract_x
_atom_site_fract_y
_atom_site_fract_z
Zn1	Zn	-0.418181	-1.606252	-0.594061
Zn2	Zn	0.081819	-1.106252	-0.094061
Zn3	Zn	-0.593900	-1.606145	-0.418380
Zn4	Zn	-0.093900	-1.106145	0.081620
Zn5	Zn	-0.418238	-1.430554	-0.418391
Zn6	Zn	0.081762	-0.930554	0.081609
Zn7	Zn	-0.593821	-1.430541	-0.594012
Zn8	Zn	-0.093821	-0.930541	-0.094012
O9	O	-0.506035	-1.518373	-0.506211
O10	O	-0.006035	-1.018373	-0.006211
O11	O	-0.441499	-1.753259	-0.570772
O12	O	0.058501	-1.253259	-0.070772
O13	O	-0.570655	-1.582813	-0.271360
O14	O	-0.070655	-1.082813	0.228640
O15	O	-0.271209	-1.453911	-0.441719
O16	O	0.228791	-0.953911	0.058281
O17	O	-0.570599	-1.753180	-0.441700
O18	O	-0.070599	-1.253180	0.058300
O19	O	-0.271167	-1.582995	-0.570783
O20	O	0.228833	-1.082995	-0.070783
O21	O	-0.441597	-1.453807	-0.271369
O22	O	0.058403	-0.953807	0.228631
O23	O	-0.441520	-1.283531	-0.441672
O24	O	0.058480	-0.783531	0.058328
O25	O	-0.570465	-1.453889	-0.741040
O26	O	-0.070465	-0.953889	-0.241040
O27	O	-0.570520	-1.283522	-0.570700
O28	O	-0.070520	-0.783522	-0.070700
O29	O	-0.441423	-1.582983	-0.741075
O30	O	0.058577	-1.082983	-0.241075
O31	O	-0.740910	-1.582801	-0.441652
O32	O	-0.240910	-1.082801	0.058348
O33	O	-0.740852	-1.453785	-0.570689
O34	O	-0.240852	-0.953785	-0.070689
C35	C	-0.506019	-1.245406	-0.506183
C36	C	-0.006019	-0.745406	-0.006183
C37	C	-0.506037	-1.128629	-0.506195
C38	C	-0.006037	-0.628629	-0.006195
C39	C	-0.573309	-1.073790	-0.573273
C40	C	-0.073309	-0.573790	-0.073273
C41	C	-0.573311	-0.964066	-0.573291
C42	C	-0.073311	-0.464066	-0.073291
C43	C	-0.438768	-0.964030	-0.439145
C44	C	0.061232	-0.464030	0.060855
C45	C	-0.438760	-1.073752	-0.439133
C46	C	0.061240	-0.573752	0.060867
C47	C	-0.779002	-1.518309	-0.506187
C48	C	-0.279002	-1.018309	-0.006187
C49	C	-0.895779	-1.518377	-0.506212
C50	C	-0.395779	-1.018377	-0.006212
C51	C	-0.950636	-1.585632	-0.439099
C52	C	-0.450636	-1.085632	0.060901
C53	C	-1.060360	-1.585700	-0.439134
C54	C	-0.560360	-1.085700	0.060866
C55	C	-1.060360	-1.451248	-0.573398
C56	C	-0.560360	-0.951248	-0.073398
C57	C	-0.950638	-1.451187	-0.573368
C58	C	-0.450638	-0.951187	-0.073368
C59	C	-0.232001	-1.518466	-0.506258
C60	C	0.267999	-1.018466	-0.006258
C61	C	-0.115225	-1.518506	-0.506278
C62	C	0.384775	-1.018506	-0.006278
C63	C	-0.505929	-1.518446	-0.780244
C64	C	-0.005929	-1.018446	-0.280244
C65	C	-0.505883	-1.518478	-0.897021
C66	C	-0.005883	-1.018478	-0.397021
C67	C	-0.506049	-0.792406	-0.506233
C68	C	-0.006049	-0.292406	-0.006233
C69	C	-0.506047	-0.909183	-0.506225
C70	C	-0.006047	-0.409183	-0.006225
C71	C	-0.438671	-1.451328	-0.951887
C72	C	0.061329	-0.951328	-0.451887
C73	C	-0.438638	-1.451353	-1.061611
C74	C	0.061362	-0.951353	-0.561611
C75	C	-0.573034	-1.585685	-1.061594
C76	C	-0.073034	-1.085685	-0.561594
C77	C	-0.573071	-1.585654	-0.951872
C78	C	-0.073071	-1.085654	-0.451872
C79	C	-0.506065	-1.518360	-0.233244
C80	C	-0.006065	-1.018360	0.266756
C81	C	-0.505814	-1.518533	-0.116467
C82	C	-0.005814	-1.018533	0.383533
H83	H	-0.628087	-1.118467	-0.627883
H84	H	-0.128087	-0.618467	-0.127883
F85	F	-0.892255	-1.657144	-0.367628
F86	F	-0.392255	-1.157144	0.132372
F87	F	-0.367112	-1.379872	-1.119999
F88	F	0.132888	-0.879872	-0.619999
H89	H	-0.628089	-0.919420	-0.627914
H90	H	-0.128089	-0.419420	-0.127914
H91	H	-0.627735	-1.640379	-1.106267
H92	H	-0.127735	-1.140379	-0.606267
F93	F	-0.644616	-1.657124	-0.893476
F94	F	-0.144616	-1.157124	-0.393476
H95	H	-1.105020	-1.640467	-0.384486
H96	H	-0.605020	-1.140467	0.115514
H97	H	-0.383995	-0.919336	-0.384543
H98	H	0.116005	-0.419336	0.115457
H99	H	-0.383973	-1.118403	-0.384510
H100	H	0.116027	-0.618403	0.115490
F101	F	-0.892251	-1.379606	-0.644807
F102	F	-0.392251	-0.879606	-0.144807
H103	H	-1.105040	-1.396543	-0.628072
H104	H	-0.605040	-0.896543	-0.128072
F105	F	-0.367166	-1.379830	-0.893515
F106	F	0.132834	-0.879830	-0.393515
