data_functionalizedCrystal
_audit_creation_method	'MofGen! by Chris Wilmer'
_symmetry_space_group_name_H-M	'P1'
_symmetry_Int_Tables_number	1
_symmetry_cell_setting	triclinic
loop_
_symmetry_equiv_pos_as_xyz
  x,y,z
_cell_length_a	17.077404
_cell_length_b	21.395361
_cell_length_c	17.077396
_cell_angle_alpha	90.031624
_cell_angle_beta	89.983895
_cell_angle_gamma	89.971496
loop_
_atom_site_label
_atom_site_type_symbol
_atom_site_fract_x
_atom_site_fract_y
_atom_site_fract_z
Zn1	Zn	1.199995	0.249467	-0.443806
Zn2	Zn	1.699995	0.749467	0.056194
Zn3	Zn	1.199890	0.354250	-0.312535
Zn4	Zn	1.699890	0.854250	0.187465
Zn5	Zn	1.068732	0.249487	-0.312557
Zn6	Zn	1.568732	0.749487	0.187443
Zn7	Zn	1.068678	0.354207	-0.443761
Zn8	Zn	1.568678	0.854207	0.056239
O9	O	1.134324	0.301853	-0.378165
O10	O	1.634324	0.801853	0.121835
O11	O	1.309828	0.263377	-0.426403
O12	O	1.809828	0.763377	0.073597
O13	O	1.182471	0.340379	-0.202691
O14	O	1.682471	0.840379	0.297309
O15	O	1.086212	0.161806	-0.329995
O16	O	1.586212	0.661806	0.170005
O17	O	1.309751	0.340360	-0.329958
O18	O	1.809751	0.840360	0.170042
O19	O	1.182650	0.161792	-0.426424
O20	O	1.682650	0.661792	0.073576
O21	O	1.086110	0.263410	-0.202707
O22	O	1.586110	0.763410	0.297293
O23	O	0.958878	0.263368	-0.329952
O24	O	1.458878	0.763368	0.170048
O25	O	1.086118	0.340287	-0.553614
O26	O	1.586118	0.840287	-0.053614
O27	O	0.958838	0.340306	-0.426347
O28	O	1.458838	0.840306	0.073653
O29	O	1.182597	0.263335	-0.553647
O30	O	1.682597	0.763335	-0.053647
O31	O	1.182418	0.441922	-0.329914
O32	O	1.682418	0.941922	0.170086
O33	O	1.086016	0.441891	-0.426326
O34	O	1.586016	0.941891	0.073674
C35	C	0.930376	0.301835	-0.378147
C36	C	1.430376	0.801835	0.121853
C37	C	0.843126	0.301843	-0.378158
C38	C	1.343126	0.801843	0.121842
C39	C	0.802177	0.261829	-0.428454
C40	C	1.302177	0.761829	0.071546
C41	C	0.720197	0.261833	-0.428457
C42	C	1.220197	0.761833	0.071543
C43	C	0.679167	0.301854	-0.378169
C44	C	1.179167	0.801854	0.121831
C45	C	0.720122	0.341870	-0.327868
C46	C	1.220122	0.841870	0.172132
C47	C	0.802101	0.341862	-0.327861
C48	C	1.302101	0.841862	0.172139
C49	C	0.549252	0.341884	-0.327888
C50	C	1.049252	0.841884	0.172112
C51	C	0.467267	0.341893	-0.327895
C52	C	0.967267	0.841893	0.172105
C53	C	0.467348	0.261854	-0.428484
C54	C	0.967348	0.761854	0.071516
C55	C	0.549327	0.261847	-0.428477
C56	C	1.049327	0.761847	0.071523
C57	C	0.590276	0.301864	-0.378177
C58	C	1.090276	0.801864	0.121823
C59	C	1.134221	0.464641	-0.378130
C60	C	1.634221	0.964641	0.121870
C61	C	1.134249	0.534282	-0.378141
C62	C	1.634249	1.034282	0.121859
C63	C	1.184489	0.566990	-0.327993
C64	C	1.684489	1.066990	0.172007
C65	C	1.184526	0.632426	-0.328014
C66	C	1.684526	1.132426	0.171986
C67	C	1.134308	0.665150	-0.378175
C68	C	1.634308	1.165150	0.121825
C69	C	1.084064	0.632433	-0.428333
C70	C	1.584064	1.132433	0.071667
C71	C	1.084034	0.566999	-0.428316
C72	C	1.584034	1.066999	0.071684
C73	C	1.063629	0.768862	-0.384334
C74	C	1.563629	1.268862	0.115666
C75	C	1.063657	0.834295	-0.384345
C76	C	1.563657	1.334295	0.115655
C77	C	1.134400	0.866971	-0.378232
C78	C	1.634400	1.366971	0.121768
C79	C	1.205117	0.834205	-0.372091
C80	C	1.705117	1.334205	0.127909
C81	C	1.205087	0.768771	-0.372074
C82	C	1.705087	1.268771	0.127926
C83	C	1.134335	0.736102	-0.378199
C84	C	1.634335	1.236102	0.121801
C85	C	1.184685	0.970632	-0.328104
C86	C	1.684685	1.470632	0.171896
C87	C	1.184723	1.036069	-0.328131
C88	C	1.684723	1.536069	0.171869
C89	C	1.084254	1.036075	-0.428446
C90	C	1.584254	1.536075	0.071554
C91	C	1.084223	0.970640	-0.428423
C92	C	1.584223	1.470640	0.071577
C93	C	1.134437	0.937922	-0.378248
C94	C	1.634437	1.437922	0.121752
C95	C	1.339068	0.301871	-0.378183
C96	C	1.839068	0.801871	0.121817
C97	C	1.426318	0.301879	-0.378191
C98	C	1.926318	0.801879	0.121809
C99	C	1.134363	0.301804	-0.582909
C100	C	1.634363	0.801804	-0.082909
C101	C	1.134380	0.301784	-0.670159
C102	C	1.634380	0.801784	-0.170159
C103	C	1.134450	1.138430	-0.378231
C104	C	1.634450	1.638430	0.121769
C105	C	1.134506	1.068788	-0.378293
C106	C	1.634506	1.568788	0.121707
C107	C	1.084220	0.261701	-0.711157
C108	C	1.584220	0.761701	-0.211157
C109	C	1.084233	0.261687	-0.793137
C110	C	1.584233	0.761687	-0.293137
C111	C	1.134410	0.301753	-0.834118
C112	C	1.634410	0.801753	-0.334118
C113	C	1.184572	0.341840	-0.793115
C114	C	1.684572	0.841840	-0.293115
C115	C	1.184555	0.341857	-0.711136
C116	C	1.684555	0.841857	-0.211136
C117	C	1.184606	0.341800	-0.963985
C118	C	1.684606	0.841800	-0.463985
C119	C	1.184625	0.341783	-1.045970
C120	C	1.684625	0.841783	-0.545970
C121	C	1.084284	0.261631	-1.045987
C122	C	1.584284	0.761631	-0.545987
C123	C	1.084267	0.261648	-0.964008
C124	C	1.584267	0.761648	-0.464008
C125	C	1.134430	0.301734	-0.923010
C126	C	1.634430	0.801734	-0.423010
C127	C	1.134330	0.301856	-0.174217
C128	C	1.634330	0.801856	0.325783
C129	C	1.134465	0.301700	-0.086968
C130	C	1.634465	0.801700	0.413032
H131	H	0.582731	0.229261	-0.469430
H132	H	1.082731	0.729261	0.030570
H133	H	1.225379	0.540354	-0.287140
H134	H	1.725379	1.040354	0.212860
H135	H	1.262723	0.860809	-0.367113
H136	H	1.762723	1.360809	0.132887
C137	C	0.675156	0.217818	-0.483784
C138	C	1.175156	0.717818	0.016216
H139	H	0.711333	0.193988	-0.513739
H140	H	1.211333	0.693988	-0.013739
H141	H	0.643179	0.190489	-0.453823
H142	H	1.143179	0.690489	0.046177
H143	H	0.643176	0.241828	-0.517935
H144	H	1.143176	0.741828	-0.017935
H145	H	1.006017	0.742264	-0.389315
H146	H	1.506017	1.242264	0.110685
C147	C	1.028948	0.934658	-0.483577
C148	C	1.528948	1.434658	0.016423
H149	H	0.999039	0.963517	-0.513450
H150	H	1.499039	1.463517	-0.013450
H151	H	1.058938	0.909089	-0.517800
H152	H	1.558938	1.409089	-0.017800
H153	H	0.994750	0.909177	-0.453503
H154	H	1.494750	1.409177	0.046497
H155	H	1.043385	0.229050	-0.826514
H156	H	1.543385	0.729050	-0.326514
H157	H	0.835578	0.229240	-0.469406
H158	H	1.335578	0.729240	0.030594
C159	C	1.029018	0.217633	-0.666085
C160	C	1.529018	0.717633	-0.166085
H161	H	0.999140	0.193765	-0.702246
H162	H	1.499140	0.693765	-0.202246
H163	H	1.059051	0.190340	-0.634113
H164	H	1.559051	0.690340	-0.134113
H165	H	0.994790	0.241613	-0.634099
H166	H	1.494790	0.741613	-0.134099
H167	H	1.043412	0.229020	-0.930643
H168	H	1.543412	0.729020	-0.430643
H169	H	1.225441	0.659062	-0.287178
H170	H	1.725441	1.159062	0.212822
C171	C	1.029082	0.217556	-1.091081
C172	C	1.529082	0.717556	-0.591081
H173	H	1.036264	0.223293	-1.145774
H174	H	1.536264	0.723293	-0.645774
H175	H	1.040581	0.175457	-1.077674
H176	H	1.540581	0.675457	-0.577674
H177	H	0.976334	0.226741	-1.077624
H178	H	1.476334	0.726741	-0.577624
C179	C	0.847145	0.385883	-0.272543
C180	C	1.347145	0.885883	0.227457
H181	H	0.810969	0.409725	-0.242600
H182	H	1.310969	0.909725	0.257400
H183	H	0.879126	0.361881	-0.238391
H184	H	1.379126	0.861881	0.261609
H185	H	0.879120	0.413211	-0.302514
H186	H	1.379120	0.913211	0.197486
H187	H	1.262667	0.742095	-0.367076
H188	H	1.762667	1.242095	0.132924
C189	C	1.239823	0.385850	-1.091048
C190	C	1.739823	0.885850	-0.591048
H191	H	1.269691	0.409730	-1.054891
H192	H	1.769691	0.909730	-0.554891
H193	H	1.274049	0.361874	-1.123034
H194	H	1.774049	0.861874	-0.623034
H195	H	1.209780	0.413140	-1.123021
H196	H	1.709780	0.913140	-0.623021
H197	H	1.225575	0.943992	-0.287251
H198	H	1.725575	1.443992	0.212749
C199	C	1.239784	0.385896	-0.918889
C200	C	1.739784	0.885896	-0.418889
H201	H	1.269675	0.409751	-0.955035
H202	H	1.769675	0.909751	-0.455035
H203	H	1.209728	0.413199	-0.886896
H204	H	1.709728	0.913199	-0.386896
H205	H	1.274001	0.361934	-0.886921
H206	H	1.774001	0.861934	-0.386921
H207	H	1.225424	0.374465	-0.826488
H208	H	1.725424	0.874465	-0.326488
C209	C	0.422307	0.217835	-0.483811
C210	C	0.922307	0.717835	0.016189
H211	H	0.367607	0.223566	-0.476608
H212	H	0.867607	0.723566	0.023392
H213	H	0.435757	0.227060	-0.536530
H214	H	0.935757	0.727060	-0.036530
H215	H	0.435761	0.175723	-0.472416
H216	H	0.935761	0.675723	0.027584
H217	H	0.433863	0.374483	-0.286947
H218	H	0.933863	0.874483	0.213053
H219	H	0.582590	0.374469	-0.286926
H220	H	1.082590	0.874469	0.213074
C221	C	1.028824	0.668427	-0.483507
C222	C	1.528824	1.168427	0.016493
H223	H	1.036031	0.712083	-0.476330
H224	H	1.536031	1.212083	0.023670
H225	H	1.040274	0.657665	-0.536257
H226	H	1.540274	1.157665	-0.036257
H227	H	0.976082	0.657745	-0.471964
H228	H	1.476082	1.157745	0.028036
C229	C	0.674995	0.385895	-0.272551
C230	C	1.174995	0.885895	0.227449
H231	H	0.711126	0.409721	-0.242591
H232	H	1.211126	0.909721	0.257409
H233	H	0.643014	0.413228	-0.302520
H234	H	1.143014	0.913228	0.197480
H235	H	0.643014	0.361893	-0.238403
H236	H	1.143014	0.861893	0.261597
H237	H	1.225640	1.062699	-0.287295
H238	H	1.725640	1.562699	0.212705
C239	C	1.239731	0.385948	-0.666038
C240	C	1.739731	0.885948	-0.166038
H241	H	1.269622	0.409804	-0.702185
H242	H	1.769622	0.909804	-0.202185
H243	H	1.209673	0.413250	-0.634047
H244	H	1.709673	0.913250	-0.134047
H245	H	1.273948	0.361988	-0.634069
H246	H	1.773948	0.861988	-0.134069
H247	H	1.043369	1.062718	-0.469291
H248	H	1.543369	1.562718	0.030709
C249	C	0.985876	0.870334	-0.391106
C250	C	1.485876	1.370334	0.108894
H251	H	0.996024	0.913983	-0.390233
H252	H	1.496024	1.413983	0.109767
H253	H	0.960751	0.859598	-0.438872
H254	H	1.460751	1.359598	0.061128
H255	H	0.952871	0.859659	-0.348373
H256	H	1.452871	1.359659	0.151627
C257	C	1.028763	0.531018	-0.483477
C258	C	1.528763	1.031018	0.016523
H259	H	0.998856	0.559877	-0.513353
H260	H	1.498856	1.059877	-0.013353
H261	H	1.058756	0.505448	-0.517697
H262	H	1.558756	1.005448	-0.017697
H263	H	0.994563	0.505538	-0.453405
H264	H	1.494563	1.005538	0.046595
