data_functionalizedCrystal
_audit_creation_method	'MofGen! by Chris Wilmer'
_symmetry_space_group_name_H-M	'P1'
_symmetry_Int_Tables_number	1
_symmetry_cell_setting	triclinic
loop_
_symmetry_equiv_pos_as_xyz
  x,y,z
_cell_length_a	21.395362
_cell_length_b	21.395361
_cell_length_c	21.395356
_cell_angle_alpha	90.028614
_cell_angle_beta	90.035770
_cell_angle_gamma	90.046585
loop_
_atom_site_label
_atom_site_type_symbol
_atom_site_fract_x
_atom_site_fract_y
_atom_site_fract_z
Zn1	Zn	0.957809	-0.249202	0.354573
Zn2	Zn	1.291142	0.084132	0.687906
Zn3	Zn	1.624476	0.417465	1.021239
Zn4	Zn	0.957726	-0.353974	0.249790
Zn5	Zn	1.291060	-0.020641	0.583123
Zn6	Zn	1.624393	0.312692	0.916456
Zn7	Zn	0.853039	-0.249244	0.249774
Zn8	Zn	1.186372	0.084090	0.583107
Zn9	Zn	1.519706	0.417423	0.916440
Zn10	Zn	0.852993	-0.353974	0.354494
Zn11	Zn	1.186326	-0.020641	0.687828
Zn12	Zn	1.519660	0.312692	1.021161
O13	O	0.905392	-0.301599	0.302158
O14	O	1.238725	0.031735	0.635491
O15	O	1.572058	0.365068	0.968824
O16	O	1.045476	-0.263082	0.340712
O17	O	1.378809	0.070251	0.674046
O18	O	1.712143	0.403584	1.007379
O19	O	0.943824	-0.340099	0.162110
O20	O	1.277157	-0.006766	0.495443
O21	O	1.610491	0.326567	0.828776
O22	O	0.866991	-0.161560	0.263702
O23	O	1.200324	0.171773	0.597035
O24	O	1.533657	0.505106	0.930368
O25	O	1.045415	-0.340059	0.263729
O26	O	1.378749	-0.006725	0.597062
O27	O	1.712082	0.326608	0.930395
O28	O	0.943965	-0.161529	0.340697
O29	O	1.277298	0.171804	0.674030
O30	O	1.610631	0.505137	1.007364
O31	O	0.866910	-0.263154	0.162098
O32	O	1.200244	0.070179	0.495431
O33	O	1.533577	0.403512	0.828765
O34	O	0.765355	-0.263154	0.263626
O35	O	1.098688	0.070179	0.596959
O36	O	1.432022	0.403513	0.930293
O37	O	0.866913	-0.340058	0.442183
O38	O	1.200246	-0.006725	0.775516
O39	O	1.533579	0.326608	1.108849
O40	O	0.765321	-0.340099	0.340564
O41	O	1.098655	-0.006766	0.673897
O42	O	1.431988	0.326567	1.007230
O43	O	0.943920	-0.263082	0.442240
O44	O	1.277254	0.070251	0.775573
O45	O	1.610587	0.403584	1.108907
O46	O	0.943780	-0.441652	0.263653
O47	O	1.277113	-0.108319	0.596986
O48	O	1.610446	0.225014	0.930319
O49	O	0.866832	-0.441652	0.340579
O50	O	1.200166	-0.108319	0.673912
O51	O	1.533499	0.225014	1.007246
C52	C	0.742604	-0.301632	0.302085
C53	C	1.075937	0.031702	0.635418
C54	C	1.409271	0.365035	0.968752
C55	C	0.672963	-0.301661	0.302069
C56	C	1.006296	0.031672	0.635402
C57	C	1.339630	0.365006	0.968735
C58	C	0.640249	-0.341779	0.342070
C59	C	0.973582	-0.008446	0.675403
C60	C	1.306915	0.324887	1.008737
C61	C	0.574813	-0.341764	0.342098
C62	C	0.908147	-0.008431	0.675431
C63	C	1.241480	0.324903	1.008765
C64	C	0.542095	-0.301637	0.302113
C65	C	0.875428	0.031696	0.635447
C66	C	1.208761	0.365030	0.968780
C67	C	0.574817	-0.261511	0.262109
C68	C	0.908150	0.071823	0.595442
C69	C	1.241483	0.405156	0.928776
C70	C	0.640251	-0.261523	0.262087
C71	C	0.973584	0.071811	0.595420
C72	C	1.306918	0.405144	0.928753
C73	C	0.438378	-0.296596	0.245708
C74	C	0.771711	0.036737	0.579042
C75	C	1.105045	0.370070	0.912375
C76	C	0.372945	-0.296589	0.245730
C77	C	0.706278	0.036745	0.579063
C78	C	1.039612	0.370078	0.912396
C79	C	0.340274	-0.301596	0.302182
C80	C	0.673607	0.031737	0.635516
C81	C	1.006941	0.365071	0.968849
C82	C	0.373044	-0.306624	0.358616
C83	C	0.706377	0.026709	0.691949
C84	C	1.039711	0.360043	1.025282
C85	C	0.438478	-0.306636	0.358593
C86	C	0.771811	0.026697	0.691927
C87	C	1.105145	0.360031	1.025260
C88	C	0.471142	-0.301619	0.302133
C89	C	0.804476	0.031714	0.635467
C90	C	1.137809	0.365048	0.968800
C91	C	0.236607	-0.341700	0.342218
C92	C	0.569940	-0.008367	0.675551
C93	C	0.903274	0.324967	1.008884
C94	C	0.171171	-0.341680	0.342247
C95	C	0.504504	-0.008347	0.675580
C96	C	0.837837	0.324987	1.008913
C97	C	0.171175	-0.261430	0.262252
C98	C	0.504509	0.071903	0.595585
C99	C	0.837842	0.405237	0.928919
C100	C	0.236611	-0.261446	0.262229
C101	C	0.569944	0.071887	0.595562
C102	C	0.903277	0.405220	0.928895
C103	C	0.269323	-0.301585	0.302211
C104	C	0.602656	0.031749	0.635544
C105	C	0.935989	0.365082	0.968877
C106	C	0.905309	-0.464386	0.302123
C107	C	1.238642	-0.131053	0.635456
C108	C	1.571976	0.202280	0.968789
C109	C	0.905331	-0.534027	0.302129
C110	C	1.238664	-0.200694	0.635462
C111	C	1.571998	0.132639	0.968795
C112	C	0.945433	-0.566720	0.262114
C113	C	1.278766	-0.233386	0.595448
C114	C	1.612100	0.099947	0.928781
C115	C	0.945462	-0.632155	0.262128
C116	C	1.278795	-0.298822	0.595462
C117	C	1.612129	0.034511	0.928795
C118	C	0.905378	-0.664896	0.302150
C119	C	1.238711	-0.331562	0.635484
C120	C	1.572045	0.001771	0.968817
C121	C	0.865273	-0.632196	0.342172
C122	C	1.198607	-0.298862	0.675506
C123	C	1.531940	0.034471	1.008839
C124	C	0.865250	-0.566761	0.342162
C125	C	1.198583	-0.233428	0.675495
C126	C	1.531917	0.099905	1.008828
C127	C	0.848963	-0.768626	0.307041
C128	C	1.182296	-0.435293	0.640374
C129	C	1.515629	-0.101959	0.973708
C130	C	0.848985	-0.834059	0.307047
C131	C	1.182319	-0.500726	0.640381
C132	C	1.515652	-0.167392	0.973714
C133	C	0.905451	-0.866716	0.302187
C134	C	1.238784	-0.533383	0.635520
C135	C	1.572118	-0.200050	0.968854
C136	C	0.961896	-0.833933	0.297307
C137	C	1.295230	-0.500600	0.630640
C138	C	1.628563	-0.167266	0.963974
C139	C	0.961873	-0.768499	0.297296
C140	C	1.295206	-0.435166	0.630630
C141	C	1.628539	-0.101832	0.963963
C142	C	0.905399	-0.735848	0.302167
C143	C	1.238733	-0.402515	0.635500
C144	C	1.572066	-0.069181	0.968833
C145	C	0.945588	-0.970361	0.262186
C146	C	1.278921	-0.637028	0.595519
C147	C	1.612255	-0.303695	0.928852
C148	C	0.945618	-1.035798	0.262204
C149	C	1.278951	-0.702465	0.595537
C150	C	1.612285	-0.369131	0.928871
C151	C	0.865424	-1.035837	0.342245
C152	C	1.198757	-0.702504	0.675578
C153	C	1.532091	-0.369170	1.008911
C154	C	0.865399	-0.970402	0.342230
C155	C	1.198733	-0.637068	0.675563
C156	C	1.532066	-0.303735	1.008896
C157	C	0.905481	-0.937668	0.302197
C158	C	1.238814	-0.604334	0.635530
C159	C	1.572147	-0.271001	0.968863
C160	C	1.068815	-0.301566	0.302231
C161	C	1.402148	0.031768	0.635564
C162	C	1.735482	0.365101	0.968898
C163	C	1.138456	-0.301552	0.302262
C164	C	1.471790	0.031782	0.635595
C165	C	1.805123	0.365115	0.968929
C166	C	0.905421	-0.301566	0.465581
C167	C	1.238754	0.031768	0.798914
C168	C	1.572087	0.365101	1.132248
C169	C	0.905433	-0.301552	0.535222
C170	C	1.238766	0.031782	0.868556
C171	C	1.572099	0.365115	1.201889
C172	C	0.905492	-0.138175	0.302206
C173	C	1.238825	0.195158	0.635540
C174	C	1.572159	0.528491	0.968873
C175	C	0.905535	-0.068534	0.302227
C176	C	1.238868	0.264799	0.635560
C177	C	1.572201	0.598133	0.968894
C178	C	0.905399	-0.301586	0.139370
C179	C	1.238733	0.031747	0.472703
C180	C	1.572066	0.365080	0.806037
C181	C	0.905508	-0.301424	0.069729
C182	C	1.238842	0.031910	0.403062
C183	C	1.572175	0.365243	0.736396
C184	C	0.945552	-0.341486	1.037025
C185	C	1.278885	-0.008152	1.370359
C186	C	1.612219	0.325181	1.703692
C187	C	0.945541	-0.341505	0.971590
C188	C	1.278874	-0.008172	1.304923
C189	C	1.612207	0.325161	1.638256
C190	C	0.905493	-0.301452	0.938861
C191	C	1.238826	0.031881	1.272194
C192	C	1.572159	0.365214	1.605527
C193	C	0.865441	-0.261388	0.971573
C194	C	1.198775	0.071946	1.304906
C195	C	1.532108	0.405279	1.638239
C196	C	0.865449	-0.261373	1.037007
C197	C	1.198782	0.071960	1.370340
C198	C	1.532116	0.405293	1.703673
C199	C	0.900567	-0.245027	0.835207
C200	C	1.233900	0.088307	1.168540
C201	C	1.567234	0.421640	1.501874
C202	C	0.900563	-0.245040	0.769774
C203	C	1.233897	0.088294	1.103107
C204	C	1.567230	0.421627	1.436441
C205	C	0.905464	-0.301497	0.737040
C206	C	1.238798	0.031837	1.070373
C207	C	1.572131	0.365170	1.403707
C208	C	0.910382	-0.357942	0.769747
C209	C	1.243715	-0.024609	1.103080
C210	C	1.577049	0.308725	1.436414
C211	C	0.910390	-0.357928	0.835181
C212	C	1.243723	-0.024594	1.168515
C213	C	1.577057	0.308739	1.501848
C214	C	0.905479	-0.301464	0.867908
C215	C	1.238812	0.031870	1.201242
C216	C	1.572146	0.365203	1.534575
C217	C	0.945498	-0.341584	0.633383
C218	C	1.278831	-0.008250	0.966717
C219	C	1.612164	0.325083	1.300050
C220	C	0.945482	-0.341604	0.567947
C221	C	1.278815	-0.008271	0.901280
C222	C	1.612149	0.325062	1.234613
C223	C	0.865386	-0.261481	0.567931
C224	C	1.198719	0.071852	0.901264
C225	C	1.532053	0.405186	1.234597
C226	C	0.865398	-0.261466	0.633366
C227	C	1.198732	0.071868	0.966700
C228	C	1.532065	0.405201	1.300033
C229	C	0.905458	-0.301516	0.666089
C230	C	1.238791	0.031817	0.999422
C231	C	1.572124	0.365151	1.332755
H232	H	0.263247	-0.228781	0.229652
H233	H	0.596580	0.104553	0.562985
H234	H	0.929914	0.437886	0.896319
H235	H	0.832776	-0.228870	0.541284
H236	H	1.166110	0.104463	0.874617
H237	H	1.499443	0.437796	1.207950
O238	O	0.788057	-0.733403	0.312280
O239	O	1.121390	-0.400070	0.645613
O240	O	1.454723	-0.066737	0.978946
H241	H	0.748812	-0.767191	0.315663
H242	H	1.082145	-0.433857	0.648996
H243	H	1.415478	-0.100524	0.982330
O244	O	0.539537	-0.218228	0.218979
O245	O	0.872870	0.115105	0.552312
O246	O	1.206204	0.448438	0.885645
H247	H	0.552049	-0.228909	0.169783
H248	H	0.885382	0.104424	0.503116
H249	H	1.218716	0.437758	0.836449
O250	O	1.022751	-0.733143	0.292039
O251	O	1.356084	-0.399810	0.625373
O252	O	1.689417	-0.066477	0.958706
H253	H	1.021775	-0.703365	0.249585
H254	H	1.355109	-0.370032	0.582918
H255	H	1.688442	-0.036698	0.916252
O256	O	0.915683	-0.418806	0.870454
O257	O	1.249016	-0.085473	1.203788
O258	O	1.582349	0.247860	1.537121
H259	H	0.958133	-0.417802	0.900286
H260	H	1.291466	-0.084469	1.233619
H261	H	1.624800	0.248864	1.566953
O262	O	0.822217	-0.218247	0.668647
O263	O	1.155551	0.115086	1.001980
O264	O	1.488884	0.448420	1.335313
H265	H	0.794371	-0.190393	0.634897
H266	H	1.127704	0.142940	0.968230
H267	H	1.461038	0.476273	1.301564
H268	H	0.914374	-0.403915	0.743096
H269	H	1.247707	-0.070581	1.076430
H270	H	1.581041	0.262752	1.409763
O271	O	1.022799	-0.869155	0.292059
O272	O	1.356133	-0.535822	0.625392
O273	O	1.689466	-0.202489	0.958725
H274	H	1.046190	-0.856605	0.247502
H275	H	1.379524	-0.523272	0.580836
H276	H	1.712857	-0.189939	0.914169
O277	O	0.988826	-0.935043	0.219026
O278	O	1.322159	-0.601709	0.552359
O279	O	1.655493	-0.268376	0.885692
H280	H	0.978130	-0.947645	0.169837
H281	H	1.311463	-0.614312	0.503170
H282	H	1.644796	-0.280978	0.836503
O283	O	0.988872	-1.071064	0.219043
O284	O	1.322205	-0.737731	0.552376
O285	O	1.655538	-0.404398	0.885709
H286	H	1.016732	-1.037306	0.191201
H287	H	1.350065	-0.703973	0.524534
H288	H	1.683398	-0.370640	0.857868
H289	H	0.144536	-0.374348	0.374824
H290	H	0.477869	-0.041015	0.708158
H291	H	0.811202	0.292318	1.041491
H292	H	0.666879	-0.374462	0.374627
H293	H	1.000212	-0.041129	0.707961
H294	H	1.333545	0.292204	1.041294
H295	H	0.832790	-1.062494	0.374834
H296	H	1.166123	-0.729160	0.708168
H297	H	1.499456	-0.395827	1.041501
O298	O	0.473615	-0.291197	0.184816
O299	O	0.806948	0.042136	0.518150
O300	O	1.140282	0.375470	0.851483
H301	H	0.439837	-0.287709	0.145580
H302	H	0.773170	0.045624	0.478913
H303	H	1.106504	0.378957	0.812246
O304	O	0.988734	-0.384715	0.936305
O305	O	1.322068	-0.051382	1.269639
O306	O	1.655401	0.281952	1.602972
H307	H	1.020615	-0.356663	0.906516
H308	H	1.353949	-0.023330	1.239849
H309	H	1.687282	0.310004	1.573182
H310	H	0.548172	-0.374433	0.374674
H311	H	0.881505	-0.041100	0.708008
H312	H	1.214839	0.292234	1.041341
H313	H	0.896617	-0.199046	0.861853
H314	H	1.229951	0.134288	1.195187
H315	H	1.563284	0.467621	1.528520
O316	O	0.822133	-0.935144	0.385383
O317	O	1.155467	-0.601811	0.718717
O318	O	1.488800	-0.268477	1.052050
H319	H	0.850140	-0.905281	0.417298
H320	H	1.183473	-0.571948	0.750632
H321	H	1.516806	-0.238614	1.083965
O322	O	0.788110	-0.869417	0.312310
O323	O	1.121443	-0.536084	0.645643
O324	O	1.454776	-0.202751	0.978977
H325	H	0.748842	-0.835717	0.315701
H326	H	1.082176	-0.502384	0.649034
H327	H	1.415509	-0.169051	0.982367
H328	H	0.144536	-0.228755	0.229699
H329	H	0.477870	0.104579	0.563032
H330	H	0.811203	0.437912	0.896365
O331	O	0.822032	-0.667503	0.385333
O332	O	1.155365	-0.334169	0.718667
O333	O	1.488698	-0.000836	1.052000
H334	H	0.828778	-0.718496	0.378612
H335	H	1.162111	-0.385163	0.711945
H336	H	1.495445	-0.051830	1.045279
H337	H	0.832833	-0.228777	0.944920
H338	H	1.166166	0.104557	1.278254
H339	H	1.499500	0.437890	1.611587
H340	H	0.832840	-0.228749	1.063634
H341	H	1.166174	0.104585	1.396967
H342	H	1.499507	0.437918	1.730301
H343	H	0.832594	-0.540143	0.374747
H344	H	1.165927	-0.206809	0.708080
H345	H	1.499260	0.126524	1.041414
H346	H	0.666886	-0.228852	0.229513
H347	H	1.000220	0.104482	0.562846
H348	H	1.333553	0.437815	0.896179
O349	O	0.337601	-0.291163	0.184867
O350	O	0.670934	0.042171	0.518200
O351	O	1.004268	0.375504	0.851534
H352	H	0.371310	-0.287668	0.145609
H353	H	0.704644	0.045665	0.478942
H354	H	1.037977	0.378998	0.812276
H355	H	0.896563	-0.199078	0.743149
H356	H	1.229896	0.134255	1.076482
H357	H	1.563230	0.467588	1.409815
H358	H	0.978115	-0.374197	0.660027
H359	H	1.311448	-0.040863	0.993361
H360	H	1.644782	0.292470	1.326694
H361	H	0.978071	-0.540070	0.229519
H362	H	1.311404	-0.206736	0.562852
H363	H	1.644737	0.126597	0.896185
O364	O	0.988739	-0.384698	1.072320
O365	O	1.322072	-0.051365	1.405654
O366	O	1.655406	0.281969	1.738987
H367	H	1.016574	-0.412567	1.038581
H368	H	1.349907	-0.079234	1.371915
H369	H	1.683241	0.254099	1.705248
O370	O	0.988683	-0.384812	0.532674
O371	O	1.322017	-0.051478	0.866008
O372	O	1.655350	0.281855	1.199341
H373	H	0.977925	-0.433988	0.545220
H374	H	1.311259	-0.100654	0.878553
H375	H	1.644592	0.232679	1.211887
O376	O	0.473826	-0.312046	0.419455
O377	O	0.807159	0.021287	0.752789
O378	O	1.140492	0.354621	1.086122
H379	H	0.440120	-0.315520	0.458718
H380	H	0.773453	0.017813	0.792051
H381	H	1.106786	0.351147	1.125385
O382	O	0.988714	-0.667437	0.218973
O383	O	1.322047	-0.334104	0.552307
O384	O	1.655380	-0.000771	0.885640
H385	H	0.977990	-0.654935	0.169781
H386	H	1.311324	-0.321602	0.503115
H387	H	1.644657	0.011731	0.836448
O388	O	0.337818	-0.312020	0.419512
O389	O	0.671151	0.021313	0.752846
O390	O	1.004485	0.354647	1.086179
H391	H	0.286812	-0.311158	0.410051
H392	H	0.620146	0.022175	0.743384
H393	H	0.953479	0.355509	1.076718
H394	H	0.263243	-0.374380	0.374776
H395	H	0.596576	-0.041046	0.708110
H396	H	0.929909	0.292287	1.041443
