data_functionalizedCrystal
_audit_creation_method	'MofGen! by Chris Wilmer'
_symmetry_space_group_name_H-M	'P1'
_symmetry_Int_Tables_number	1
_symmetry_cell_setting	triclinic
loop_
_symmetry_equiv_pos_as_xyz
  x,y,z
_cell_length_a	17.077404
_cell_length_b	17.077402
_cell_length_c	17.077396
_cell_angle_alpha	90.026173
_cell_angle_beta	90.019501
_cell_angle_gamma	90.024621
loop_
_atom_site_label
_atom_site_type_symbol
_atom_site_fract_x
_atom_site_fract_y
_atom_site_fract_z
Zn1	Zn	1.200046	-0.312503	0.443855
Zn2	Zn	1.199950	-0.443778	0.312595
Zn3	Zn	1.068778	-0.312531	0.312603
Zn4	Zn	1.068743	-0.443732	0.443818
O5	O	1.134379	-0.378136	0.378218
O6	O	1.309881	-0.329925	0.426455
O7	O	1.182524	-0.426399	0.202749
O8	O	1.086246	-0.202680	0.330033
O9	O	1.309810	-0.426372	0.330019
O10	O	1.182689	-0.202660	0.426464
O11	O	1.086153	-0.329972	0.202755
O12	O	0.958927	-0.329927	0.329997
O13	O	1.086186	-0.426293	0.553670
O14	O	0.958901	-0.426320	0.426400
O15	O	1.182654	-0.329880	0.553697
O16	O	1.182490	-0.553619	0.329982
O17	O	1.086092	-0.553585	0.426392
C18	C	0.930431	-0.378122	0.378196
C19	C	0.843182	-0.378135	0.378206
C20	C	0.802198	-0.428402	0.428322
C21	C	0.720218	-0.428404	0.428335
C22	C	0.679222	-0.378141	0.378226
C23	C	0.720211	-0.327869	0.328107
C24	C	0.802190	-0.327863	0.328099
C25	C	0.549341	-0.327884	0.328126
C26	C	0.467357	-0.327890	0.328133
C27	C	0.467369	-0.428424	0.428362
C28	C	0.549348	-0.428419	0.428353
C29	C	0.590331	-0.378147	0.378233
C30	C	1.134298	-0.582084	0.378199
C31	C	1.134335	-0.669334	0.378218
C32	C	1.184735	-1.045140	0.328109
C33	C	1.184695	-0.963159	0.328095
C34	C	1.134449	-0.922183	0.378245
C35	C	1.084234	-0.963191	0.428408
C36	C	1.084271	-1.045169	0.428417
C37	C	1.084162	-0.792321	0.428386
C38	C	1.084126	-0.710336	0.428378
C39	C	1.184586	-0.710310	0.328063
C40	C	1.184623	-0.792289	0.328073
C41	C	1.134409	-0.833292	0.378236
C42	C	1.339124	-0.378151	0.378240
C43	C	1.426373	-0.378157	0.378249
C44	C	1.134427	-0.378078	0.582962
C45	C	1.134447	-0.378054	0.670212
C46	C	1.134482	-0.173392	0.378254
C47	C	1.134526	-0.086142	0.378269
C48	C	1.134377	-0.378137	0.174270
C49	C	1.134509	-0.377941	0.087021
C50	C	1.184680	-0.327847	0.711218
C51	C	1.184689	-0.327821	0.793198
C52	C	1.134469	-0.378006	0.834172
C53	C	1.084231	-0.428214	0.793160
C54	C	1.084218	-0.428236	0.711181
C55	C	1.084263	-0.428167	0.964030
C56	C	1.084276	-0.428147	1.046015
C57	C	1.184734	-0.327752	1.046047
C58	C	1.184721	-0.327774	0.964068
C59	C	1.134483	-0.377984	0.923063
H60	H	0.835571	-0.469334	0.469124
H61	H	0.433997	-0.469355	0.469173
F62	F	1.238181	-0.274412	0.836836
F63	F	1.030820	-0.481553	1.089620
F64	F	0.676604	-0.481905	0.481676
F65	F	1.030757	-0.919578	0.481781
H66	H	0.835558	-0.286927	0.287293
H67	H	0.582725	-0.469352	0.469152
F68	F	1.238175	-0.274366	0.920463
H69	H	1.043342	-0.469041	0.930646
F70	F	1.030827	-1.088807	0.481801
H71	H	0.686826	-0.286941	0.287311
H72	H	0.433980	-0.286953	0.287340
F73	F	1.238201	-0.274316	1.089689
F74	F	1.030713	-0.835956	0.481771
H75	H	1.225542	-0.825650	0.287239
F76	F	0.592957	-0.274377	0.274783
F77	F	1.238219	-1.088743	0.274734
F78	F	1.238141	-0.919525	0.274714
F79	F	1.030780	-0.481622	0.836769
H80	H	1.225472	-0.676922	0.287219
H81	H	1.225577	-0.286983	0.677863
H82	H	1.043305	-0.469111	0.677795
H83	H	1.043209	-0.676977	0.469215
