data_functionalizedCrystal
_audit_creation_method	'MofGen! by Chris Wilmer'
_symmetry_space_group_name_H-M	'P1'
_symmetry_Int_Tables_number	1
_symmetry_cell_setting	triclinic
loop_
_symmetry_equiv_pos_as_xyz
  x,y,z
_cell_length_a	12.759401
_cell_length_b	12.759399
_cell_length_c	12.759393
_cell_angle_alpha	89.967969
_cell_angle_beta	89.980163
_cell_angle_gamma	90.016641
loop_
_atom_site_label
_atom_site_type_symbol
_atom_site_fract_x
_atom_site_fract_y
_atom_site_fract_z
Zn1	Zn	1.606252	-0.418161	-0.594017
Zn2	Zn	1.606145	-0.593880	-0.418336
Zn3	Zn	1.430554	-0.418220	-0.418352
Zn4	Zn	1.430541	-0.593803	-0.593973
O5	O	1.518373	-0.506016	-0.506170
O6	O	1.753259	-0.441478	-0.570724
O7	O	1.582813	-0.570635	-0.271317
O8	O	1.453911	-0.271191	-0.441680
O9	O	1.753180	-0.570578	-0.441652
O10	O	1.582995	-0.271148	-0.570740
O11	O	1.453807	-0.441579	-0.271329
O12	O	1.283531	-0.441505	-0.441637
O13	O	1.453889	-0.570447	-0.741000
O14	O	1.283522	-0.570504	-0.570665
O15	O	1.582983	-0.441403	-0.741032
O16	O	1.582801	-0.740891	-0.441609
O17	O	1.453785	-0.740834	-0.570649
C18	C	1.245406	-0.506003	-0.506149
C19	C	1.128629	-0.506023	-0.506165
C20	C	1.073790	-0.573296	-0.573244
C21	C	0.964066	-0.573300	-0.573265
C22	C	0.964030	-0.438756	-0.439118
C23	C	1.073752	-0.438747	-0.439104
C24	C	1.518309	-0.778984	-0.506146
C25	C	1.518377	-0.895760	-0.506171
C26	C	1.585632	-0.950617	-0.439056
C27	C	1.585700	-1.060341	-0.439091
C28	C	1.451248	-1.060342	-0.573359
C29	C	1.451187	-0.950620	-0.573328
C30	C	1.792406	-0.506030	-0.506191
C31	C	1.909183	-0.506036	-0.506200
C32	C	1.518446	-0.505910	-0.780203
C33	C	1.518478	-0.505865	-0.896980
C34	C	1.518466	-0.231983	-0.506217
C35	C	1.518506	-0.115206	-0.506237
C36	C	1.451328	-0.438653	-0.951848
C37	C	1.451353	-0.438620	-1.061572
C38	C	1.585685	-0.573015	-1.061551
C39	C	1.585654	-0.573052	-0.951829
C40	C	1.518360	-0.506046	-0.233202
C41	C	1.518533	-0.505796	-0.116426
H42	H	1.118403	-0.383959	-0.384480
C43	C	1.377493	-0.364682	-1.121922
H44	H	1.337490	-0.324671	-1.073538
H45	H	1.331710	-0.404850	-1.164712
H46	H	1.417720	-0.318893	-1.164737
C47	C	1.659590	-0.646902	-1.121883
H48	H	1.699573	-0.686941	-1.073488
H49	H	1.705391	-0.606695	-1.164693
H50	H	1.619397	-0.692668	-1.164676
C51	C	0.903742	-0.647299	-0.647048
H52	H	0.830535	-0.637663	-0.637464
H53	H	0.921699	-0.717870	-0.631546
H54	H	0.921766	-0.631999	-0.717666
C55	C	0.903667	-0.364763	-0.365349
H56	H	0.952045	-0.324689	-0.325404
H57	H	0.860833	-0.404899	-0.319508
H58	H	0.860895	-0.319033	-0.405632
C59	C	1.134156	-0.647292	-0.647007
H60	H	1.207358	-0.637663	-0.637385
H61	H	1.116215	-0.632007	-0.717628
H62	H	1.116147	-0.717867	-0.631499
C63	C	1.659548	-0.890274	-0.365196
H64	H	1.699619	-0.938663	-0.325238
H65	H	1.619364	-0.847542	-0.319370
H66	H	1.705283	-0.847402	-0.405423
C67	C	1.377334	-1.120691	-0.647215
H68	H	1.386994	-1.193895	-0.637614
H69	H	1.392658	-1.102641	-0.717815
H70	H	1.306740	-1.102779	-0.631761
H71	H	1.640467	-1.105000	-0.384441
H72	H	1.396629	-0.383945	-0.907193
H73	H	1.396420	-0.905953	-0.627986
C74	C	1.659518	-0.646989	-0.891465
H75	H	1.649868	-0.637395	-0.818264
H76	H	1.730122	-0.631619	-0.909449
H77	H	1.644111	-0.717575	-0.909431
