data_functionalizedCrystal
_audit_creation_method	'MofGen! by Chris Wilmer'
_symmetry_space_group_name_H-M	'P1'
_symmetry_Int_Tables_number	1
_symmetry_cell_setting	triclinic
loop_
_symmetry_equiv_pos_as_xyz
  x,y,z
_cell_length_a	17.077404
_cell_length_b	21.395361
_cell_length_c	17.077396
_cell_angle_alpha	89.969211
_cell_angle_beta	90.019501
_cell_angle_gamma	89.969241
loop_
_atom_site_label
_atom_site_type_symbol
_atom_site_fract_x
_atom_site_fract_y
_atom_site_fract_z
Zn1	Zn	1.200013	0.249435	0.443830
Zn2	Zn	1.533346	0.582768	0.777163
Zn3	Zn	1.866680	0.916101	1.110497
Zn4	Zn	1.199902	0.354216	0.312559
Zn5	Zn	1.533236	0.687549	0.645892
Zn6	Zn	1.866569	1.020883	0.979225
Zn7	Zn	1.068745	0.249457	0.312578
Zn8	Zn	1.402078	0.582790	0.645911
Zn9	Zn	1.735411	0.916123	0.979245
Zn10	Zn	1.068695	0.354179	0.443782
Zn11	Zn	1.402029	0.687512	0.777116
Zn12	Zn	1.735362	1.020846	1.110449
O13	O	1.134339	0.301822	0.378187
O14	O	1.467672	0.635155	0.711521
O15	O	1.801005	0.968488	1.044854
O16	O	1.309845	0.263341	0.426429
O17	O	1.643179	0.596674	0.759762
O18	O	1.976512	0.930007	1.093095
O19	O	1.182479	0.340344	0.202714
O20	O	1.515812	0.673678	0.536048
O21	O	1.849145	1.007011	0.869381
O22	O	1.086225	0.161776	0.330017
O23	O	1.419558	0.495109	0.663350
O24	O	1.752891	0.828443	0.996684
O25	O	1.309764	0.340323	0.329984
O26	O	1.643097	0.673656	0.663317
O27	O	1.976431	1.006990	0.996651
O28	O	1.182667	0.161760	0.426447
O29	O	1.516000	0.495093	0.759781
O30	O	1.849334	0.828426	1.093114
O31	O	1.086118	0.263378	0.202729
O32	O	1.419451	0.596711	0.536062
O33	O	1.752784	0.930045	0.869395
O34	O	0.958891	0.263342	0.329971
O35	O	1.292225	0.596675	0.663304
O36	O	1.625558	0.930009	0.996637
O37	O	1.086140	0.340260	0.553636
O38	O	1.419474	0.673593	0.886969
O39	O	1.752807	1.006926	1.220302
O40	O	0.958855	0.340281	0.426366
O41	O	1.292188	0.673614	0.759699
O42	O	1.625522	1.006948	1.093033
O43	O	1.182619	0.263305	0.553671
O44	O	1.515952	0.596638	0.887004
O45	O	1.849285	0.929971	1.220337
O46	O	1.182431	0.441889	0.329938
O47	O	1.515764	0.775222	0.663271
O48	O	1.849097	1.108556	0.996605
O49	O	1.086033	0.441862	0.426347
O50	O	1.419366	0.775195	0.759681
O51	O	1.752700	1.108528	1.093014
C52	C	0.930391	0.301810	0.378166
C53	C	1.263724	0.635144	0.711499
C54	C	1.597058	0.968477	1.044832
C55	C	0.843141	0.301821	0.378175
C56	C	1.176474	0.635154	0.711508
C57	C	1.509808	0.968487	1.044842
C58	C	0.802153	0.341943	0.428288
C59	C	1.135486	0.675276	0.761621
C60	C	1.468819	1.008610	1.094954
C61	C	0.720172	0.341944	0.428300
C62	C	1.053505	0.675278	0.761633
C63	C	1.386839	1.008611	1.094967
C64	C	0.679182	0.301826	0.378196
C65	C	1.012515	0.635159	0.711529
C66	C	1.345848	0.968493	1.044862
C67	C	0.720176	0.261699	0.328081
C68	C	1.053509	0.595032	0.661414
C69	C	1.386843	0.928366	0.994748
C70	C	0.802155	0.261695	0.328073
C71	C	1.135488	0.595028	0.661406
C72	C	1.468822	0.928362	0.994740
C73	C	0.549306	0.261711	0.328100
C74	C	0.882639	0.595045	0.661433
C75	C	1.215973	0.928378	0.994766
C76	C	0.467321	0.261716	0.328107
C77	C	0.800655	0.595049	0.661440
C78	C	1.133988	0.928383	0.994773
C79	C	0.467323	0.341961	0.428327
C80	C	0.800656	0.675294	0.761660
C81	C	1.133990	1.008627	1.094994
C82	C	0.549302	0.341957	0.428319
C83	C	0.882635	0.675290	0.761652
C84	C	1.215969	1.008623	1.094986
C85	C	0.590291	0.301830	0.378203
C86	C	0.923624	0.635164	0.711536
C87	C	1.256957	0.968497	1.044870
C88	C	1.134236	0.464609	0.378152
C89	C	1.467569	0.797943	0.711486
C90	C	1.800902	1.131276	1.044819
C91	C	1.134264	0.534251	0.378164
C92	C	1.467597	0.867584	0.711497
C93	C	1.800930	1.200917	1.044830
C94	C	1.184502	0.566957	0.328017
C95	C	1.517836	0.900290	0.661350
C96	C	1.851169	1.233624	0.994683
C97	C	1.184539	0.632392	0.328038
C98	C	1.517872	0.965726	0.661371
C99	C	1.851206	1.299059	0.994704
C100	C	1.134323	0.665119	0.378198
C101	C	1.467656	0.998452	0.711531
C102	C	1.800990	1.331785	1.044864
C103	C	1.084081	0.632404	0.428355
C104	C	1.417414	0.965738	0.761688
C105	C	1.750747	1.299071	1.095021
C106	C	1.084051	0.566970	0.428338
C107	C	1.417384	0.900304	0.761671
C108	C	1.750718	1.233637	1.095004
C109	C	1.063644	0.768833	0.384355
C110	C	1.396977	1.102167	0.717688
C111	C	1.730311	1.435500	1.051021
C112	C	1.063672	0.834266	0.384366
C113	C	1.397006	1.167599	0.717700
C114	C	1.730339	1.500933	1.051033
C115	C	1.134415	0.866940	0.378255
C116	C	1.467749	1.200273	0.711588
C117	C	1.801082	1.533606	1.044921
C118	C	1.205132	0.834172	0.372115
C119	C	1.538465	1.167505	0.705448
C120	C	1.871799	1.500839	1.038782
C121	C	1.205102	0.768738	0.372098
C122	C	1.538435	1.102071	0.705431
C123	C	1.871769	1.435404	1.038765
C124	C	1.134350	0.736071	0.378222
C125	C	1.467683	1.069404	0.711555
C126	C	1.801017	1.402738	1.044889
C127	C	1.184698	0.970599	0.328128
C128	C	1.518031	1.303932	0.661461
C129	C	1.851365	1.637265	0.994794
C130	C	1.184736	1.036035	0.328154
C131	C	1.518070	1.369369	0.661487
C132	C	1.851403	1.702702	0.994821
C133	C	1.084271	1.036046	0.428467
C134	C	1.417604	1.369379	0.761800
C135	C	1.750938	1.702713	1.095134
C136	C	1.084240	0.970611	0.428445
C137	C	1.417573	1.303944	0.761778
C138	C	1.750907	1.637277	1.095111
C139	C	1.134452	0.937891	0.378271
C140	C	1.467786	1.271224	0.711604
C141	C	1.801119	1.604557	1.044937
C142	C	1.339083	0.301833	0.378210
C143	C	1.672416	0.635167	0.711543
C144	C	2.005750	0.968500	1.044876
C145	C	1.426333	0.301839	0.378219
C146	C	1.759666	0.635172	0.711552
C147	C	2.093000	0.968505	1.044886
C148	C	1.134386	0.301775	0.582932
C149	C	1.467720	0.635109	0.916265
C150	C	1.801053	0.968442	1.249598
C151	C	1.134407	0.301756	0.670182
C152	C	1.467740	0.635089	1.003515
C153	C	1.801073	0.968422	1.336848
C154	C	1.134465	1.138398	0.378253
C155	C	1.467798	1.471732	0.711586
C156	C	1.801131	1.805065	1.044920
C157	C	1.134521	1.068757	0.378316
C158	C	1.467854	1.402090	0.711649
C159	C	1.801187	1.735424	1.044982
C160	C	1.134337	0.301822	0.174240
C161	C	1.467670	0.635156	0.507573
C162	C	1.801003	0.968489	0.840906
C163	C	1.134469	0.301666	0.086990
C164	C	1.467802	0.634999	0.420323
C165	C	1.801135	0.968332	0.753657
C166	C	1.184645	0.261682	0.711191
C167	C	1.517978	0.595015	1.044525
C168	C	1.851311	0.928349	1.377858
C169	C	1.184654	0.261661	0.793172
C170	C	1.517988	0.594994	1.126505
C171	C	1.851321	0.928328	1.459838
C172	C	1.134429	0.301718	0.834141
C173	C	1.467762	0.635051	1.167474
C174	C	1.801096	0.968384	1.500808
C175	C	1.084185	0.341793	0.793126
C176	C	1.417518	0.675127	1.126459
C177	C	1.750852	1.008460	1.459792
C178	C	1.084172	0.341811	0.711147
C179	C	1.417506	0.675144	1.044480
C180	C	1.750839	1.008477	1.377813
C181	C	1.084217	0.341756	0.963996
C182	C	1.417550	0.675089	1.297329
C183	C	1.750883	1.008422	1.630662
C184	C	1.084230	0.341739	1.045980
C185	C	1.417564	0.675073	1.379314
C186	C	1.750897	1.008406	1.712647
C187	C	1.184699	0.261606	1.046021
C188	C	1.518032	0.594940	1.379354
C189	C	1.851365	0.928273	1.712688
C190	C	1.184686	0.261623	0.964042
C191	C	1.518019	0.594957	1.297375
C192	C	1.851353	0.928290	1.630709
C193	C	1.134443	0.301700	0.923032
C194	C	1.467776	0.635033	1.256365
C195	C	1.801110	0.968367	1.589699
H196	H	0.686795	0.229031	0.287288
H197	H	1.020129	0.562364	0.620622
H198	H	1.353462	0.895698	0.953955
Cl199	Cl	0.853684	0.211251	0.265074
Cl200	Cl	1.187017	0.544585	0.598407
Cl201	Cl	1.520350	0.877918	0.931740
H202	H	1.262738	0.860773	0.367139
H203	H	1.596071	1.194106	0.700472
H204	H	1.929404	1.527440	1.033805
H205	H	1.043196	0.659054	0.469197
H206	H	1.376529	0.992388	0.802530
H207	H	1.709863	1.325721	1.135863
H208	H	0.686803	0.374617	0.469106
H209	H	1.020136	0.707950	0.802439
H210	H	1.353470	1.041283	1.135773
H211	H	0.582674	0.374628	0.469114
H212	H	0.916008	0.707962	0.802447
H213	H	1.249341	1.041295	1.135781
H214	H	1.225607	0.228973	1.079415
H215	H	1.558940	0.562307	1.412748
H216	H	1.892274	0.895640	1.746082
Cl217	Cl	1.247832	0.211270	0.912538
Cl218	Cl	1.581165	0.544603	1.245872
Cl219	Cl	1.914499	0.877936	1.579205
H220	H	1.225452	0.659027	0.287202
H221	H	1.558786	0.992361	0.620535
H222	H	1.892119	1.325694	0.953869
H223	H	1.225547	0.229065	0.677840
H224	H	1.558880	0.562398	1.011173
H225	H	1.892213	0.895732	1.344507
Cl226	Cl	0.974701	0.727765	0.392039
Cl227	Cl	1.308035	1.061098	0.725372
Cl228	Cl	1.641368	1.394432	1.058706
Cl229	Cl	1.021010	0.392189	0.659591
Cl230	Cl	1.354344	0.725523	0.992925
Cl231	Cl	1.687677	1.058856	1.326258
H232	H	0.433946	0.374631	0.469136
H233	H	0.767280	0.707965	0.802469
H234	H	1.100613	1.041298	1.135802
Cl235	Cl	1.020888	0.525851	0.491385
Cl236	Cl	1.354221	0.859185	0.824718
Cl237	Cl	1.687554	1.192518	1.158051
Cl238	Cl	1.293999	0.727546	0.364388
Cl239	Cl	1.627332	1.060880	0.697721
Cl240	Cl	1.960665	1.394213	1.031054
H241	H	1.043331	0.374356	1.079336
H242	H	1.376664	0.707689	1.412669
H243	H	1.709997	1.041022	1.746002
H244	H	1.043291	0.374380	0.930608
H245	H	1.376625	0.707714	1.263942
H246	H	1.709958	1.041047	1.597275
Cl247	Cl	1.247849	0.211308	0.844723
Cl248	Cl	1.581182	0.544641	1.178057
Cl249	Cl	1.914515	0.877975	1.511390
H250	H	0.582676	0.229031	0.287297
H251	H	0.916010	0.562364	0.620630
H252	H	1.249343	0.895697	0.953964
Cl253	Cl	0.415791	0.211283	0.265114
Cl254	Cl	0.749125	0.544617	0.598447
Cl255	Cl	1.082458	0.877950	0.931780
Cl256	Cl	0.853675	0.392384	0.491276
Cl257	Cl	1.187009	0.725717	0.824609
Cl258	Cl	1.520342	1.059050	1.157943
H259	H	1.043288	0.374406	0.826489
H260	H	1.376621	0.707739	1.159823
H261	H	1.709955	1.041072	1.493156
Cl262	Cl	1.247820	0.929462	0.265053
Cl263	Cl	1.581154	1.262796	0.598386
Cl264	Cl	1.914487	1.596129	0.931719
Cl265	Cl	1.247638	0.525827	0.264952
Cl266	Cl	1.580971	0.859160	0.598286
Cl267	Cl	1.914305	1.192494	0.931619
H268	H	1.225651	1.062664	0.287320
H269	H	1.558985	1.395997	0.620653
H270	H	1.892318	1.729330	0.953986
H271	H	1.043388	1.062691	0.469312
H272	H	1.376721	1.396024	0.802645
H273	H	1.710054	1.729358	1.135979
Cl274	Cl	1.021075	0.929491	0.491487
Cl275	Cl	1.354408	1.262825	0.824820
Cl276	Cl	1.687742	1.596158	1.158154
H277	H	1.006090	0.860941	0.389358
H278	H	1.339424	1.194274	0.722691
H279	H	1.672757	1.527607	1.056024
