data_functionalizedCrystal
_audit_creation_method	'MofGen! by Chris Wilmer'
_symmetry_space_group_name_H-M	'P1'
_symmetry_Int_Tables_number	1
_symmetry_cell_setting	triclinic
loop_
_symmetry_equiv_pos_as_xyz
  x,y,z
_cell_length_a	21.395362
_cell_length_b	21.395364
_cell_length_c	21.395355
_cell_angle_alpha	89.974323
_cell_angle_beta	90.020549
_cell_angle_gamma	89.976177
loop_
_atom_site_label
_atom_site_type_symbol
_atom_site_fract_x
_atom_site_fract_y
_atom_site_fract_z
Zn1	Zn	-0.249611	-0.957863	0.354271
Zn2	Zn	-0.354371	-0.957767	0.249490
Zn3	Zn	-0.249600	-0.853078	0.249506
Zn4	Zn	-0.354344	-0.853049	0.354228
O5	O	-0.301981	-0.905439	0.301874
O6	O	-0.263523	-1.045528	0.340383
O7	O	-0.340479	-0.943852	0.161814
O8	O	-0.161924	-0.867030	0.263428
O9	O	-0.340490	-1.045458	0.263401
O10	O	-0.161932	-0.944015	0.340399
O11	O	-0.263505	-0.866937	0.161826
O12	O	-0.263479	-0.765396	0.263386
O13	O	-0.340444	-0.866981	0.441912
O14	O	-0.340433	-0.765375	0.340325
O15	O	-0.263497	-0.943987	0.441944
O16	O	-0.442045	-0.943824	0.263359
O17	O	-0.442025	-0.866888	0.340310
C18	C	-0.301952	-0.742652	0.301853
C19	C	-0.301955	-0.673010	0.301859
C20	C	-0.464769	-0.905359	0.301842
C21	C	-0.534410	-0.905382	0.301849
C22	C	-0.261977	-0.171250	0.342018
C23	C	-0.261975	-0.236686	0.342019
C24	C	-0.301981	-0.269372	0.301875
C25	C	-0.342005	-0.236618	0.261738
C26	C	-0.342011	-0.171184	0.261743
C27	C	-0.306836	-0.373009	0.245410
C28	C	-0.306826	-0.438442	0.245404
C29	C	-0.301966	-0.471193	0.301862
C30	C	-0.297104	-0.438503	0.358327
C31	C	-0.297110	-0.373069	0.358331
C32	C	-0.301980	-0.340324	0.301866
C33	C	-0.261945	-0.574892	0.342000
C34	C	-0.261947	-0.640328	0.342003
C35	C	-0.341974	-0.640259	0.261716
C36	C	-0.341976	-0.574824	0.261720
C37	C	-0.301958	-0.542144	0.301861
C38	C	-0.567071	-0.945445	0.341956
C39	C	-0.632506	-0.945467	0.341971
C40	C	-0.665278	-0.905433	0.301868
C41	C	-0.632610	-0.865362	0.261758
C42	C	-0.567176	-0.865337	0.261749
C43	C	-0.768978	-0.900556	0.245430
C44	C	-0.834411	-0.900585	0.245438
C45	C	-0.867099	-0.905507	0.301899
C46	C	-0.834346	-0.910412	0.358352
C47	C	-0.768912	-0.910387	0.358343
C48	C	-0.736231	-0.905455	0.301875
C49	C	-0.970712	-0.945596	0.342026
C50	C	-1.036149	-0.945614	0.342042
C51	C	-1.036252	-0.865512	0.261824
C52	C	-0.970816	-0.865491	0.261813
C53	C	-0.938050	-0.905537	0.301913
C54	C	-0.138558	-0.905537	0.301920
C55	C	-0.068917	-0.905578	0.301939
C56	C	-0.301969	-0.905491	0.465297
C57	C	-0.301963	-0.905513	0.534939
C58	C	-0.302003	-0.068862	0.301890
C59	C	-0.301993	-0.138504	0.301884
C60	C	-0.301949	-0.905423	0.139086
C61	C	-0.301778	-0.905523	0.069445
C62	C	-0.261895	-0.945609	0.567669
C63	C	-0.261868	-0.945608	0.633105
C64	C	-0.301921	-0.905518	0.665807
C65	C	-0.341991	-0.865415	0.633068
C66	C	-0.342013	-0.865413	0.567634
C67	C	-0.358335	-0.900543	0.769470
C68	C	-0.358315	-0.900550	0.834903
C69	C	-0.301854	-0.905522	0.867628
C70	C	-0.245412	-0.910501	0.834911
C71	C	-0.245434	-0.910498	0.769477
C72	C	-0.301902	-0.905516	0.736759
C73	C	-0.261754	-0.945619	0.971311
C74	C	-0.261726	-0.945614	1.036748
C75	C	-0.341854	-0.865424	1.036710
C76	C	-0.341877	-0.865426	0.971275
C77	C	-0.301827	-0.905527	0.938579
H78	H	-0.229386	-0.263353	0.374700
O79	O	-0.218643	-0.988842	0.668426
H80	H	-0.246680	-1.020696	0.698260
H81	H	-0.199476	-0.914550	0.742842
H82	H	-0.229283	-0.978262	0.541052
H83	H	-0.540394	-0.978051	0.374610
O84	O	-0.184506	-0.915847	0.870195
H85	H	-0.193969	-0.914999	0.921191
O86	O	-0.218554	-0.988860	0.936039
H87	H	-0.190679	-1.016734	0.969795
O88	O	-1.071375	-0.988828	0.385306
H89	H	-1.101186	-0.960781	0.417168
O90	O	-0.869594	-0.915720	0.419255
H91	H	-0.857042	-0.875864	0.449979
O92	O	-0.869734	-0.895300	0.184552
H93	H	-0.899586	-0.852871	0.185514
O94	O	-0.935591	-0.822285	0.218543
H95	H	-0.905793	-0.790376	0.246548
H96	H	-0.229094	-0.978263	1.063396
H97	H	-0.404301	-0.896327	0.742832
H98	H	-0.374600	-0.832772	0.659699
O99	O	-0.218821	-0.136001	0.385314
H100	H	-0.190997	-0.169770	0.413225
H101	H	-0.374640	-0.832759	0.540985
O102	O	-0.385055	-0.822181	1.071971
H103	H	-0.378311	-0.828920	1.122971
O104	O	-0.385076	-0.822163	0.935966
H105	H	-0.412918	-0.794280	0.969697
O106	O	-0.385132	-0.539499	0.218427
H107	H	-0.357044	-0.509677	0.186607
O108	O	-0.291869	-0.337808	0.419226
H109	H	-0.288491	-0.371569	0.458487
O110	O	-0.291868	-0.473815	0.419228
H111	H	-0.292690	-0.524808	0.409743
H112	H	-0.374580	-0.263235	0.229055
H113	H	-0.404274	-0.896500	0.861536
H114	H	-0.229361	-0.548283	0.374686
H115	H	-0.374554	-0.666872	0.229035
O116	O	-0.218778	-0.675648	0.385289
H117	H	-0.229583	-0.663105	0.434446
O118	O	-0.312072	-0.473699	0.184508
H119	H	-0.315466	-0.439934	0.145251
O120	O	-0.312073	-0.337685	0.184513
H121	H	-0.315441	-0.371407	0.145249
H122	H	-0.742246	-0.914379	0.404308
O123	O	-0.385165	-0.135858	0.218447
H124	H	-0.412982	-0.169577	0.190528
O125	O	-1.071588	-0.822333	0.218564
H126	H	-1.122577	-0.829083	0.225305
H127	H	-0.944033	-0.978202	0.374680
O128	O	-0.667748	-0.988680	0.385229
H129	H	-0.655161	-1.037854	0.374520
O130	O	-0.733723	-0.895251	0.184529
H131	H	-0.767489	-0.891856	0.145276
H132	H	-0.659298	-0.832764	0.229108
H133	H	-0.540583	-0.832712	0.229088
