data_functionalizedCrystal
_audit_creation_method	'MofGen! by Chris Wilmer'
_symmetry_space_group_name_H-M	'P1'
_symmetry_Int_Tables_number	1
_symmetry_cell_setting	triclinic
loop_
_symmetry_equiv_pos_as_xyz
  x,y,z
_cell_length_a	12.759400
_cell_length_b	11.169417
_cell_length_c	11.169409
_cell_angle_alpha	90.021649
_cell_angle_beta	89.966244
_cell_angle_gamma	89.987206
loop_
_atom_site_label
_atom_site_type_symbol
_atom_site_fract_x
_atom_site_fract_y
_atom_site_fract_z
Zn1	Zn	-0.418231	-1.834927	-0.678589
Zn2	Zn	-0.593957	-1.834802	-0.477901
Zn3	Zn	-0.418287	-1.634213	-0.477917
Zn4	Zn	-0.593863	-1.634206	-0.678540
O5	O	-0.506084	-1.734537	-0.578237
O6	O	-0.441557	-2.002860	-0.651982
O7	O	-0.570716	-1.808144	-0.309954
O8	O	-0.271258	-1.660894	-0.504564
O9	O	-0.570662	-2.002768	-0.504537
O10	O	-0.271217	-1.808357	-0.651997
O11	O	-0.441653	-1.660772	-0.309965
O12	O	-0.441562	-1.466262	-0.504516
O13	O	-0.570503	-1.660881	-0.846496
O14	O	-0.570557	-1.466257	-0.651913
O15	O	-0.441466	-1.808350	-0.846533
O16	O	-0.740965	-1.808137	-0.504489
O17	O	-0.740897	-1.660759	-0.651897
C18	C	-0.506056	-1.422712	-0.578212
C19	C	-0.506069	-1.289312	-0.578229
C20	C	-0.779052	-1.734466	-0.578212
C21	C	-0.895828	-1.734546	-0.578242
C22	C	-1.060422	-1.811443	-0.501609
C23	C	-0.950698	-1.811371	-0.501572
C24	C	-0.950688	-1.657778	-0.654946
C25	C	-1.060410	-1.657845	-0.654976
C26	C	-0.232051	-1.734640	-0.578288
C27	C	-0.115274	-1.734684	-0.578310
C28	C	-0.505968	-1.734629	-0.891279
C29	C	-0.505918	-1.734668	-1.024680
C30	C	-0.506104	-1.047579	-0.578255
C31	C	-0.506086	-1.180979	-0.578242
C32	C	-0.506125	-1.734514	-0.266412
C33	C	-0.505879	-1.734707	-0.133013
H34	H	-1.105090	-1.874010	-0.439182
H35	H	-0.906041	-1.873874	-0.439114
F36	F	-1.118791	-1.576141	-0.736614
H37	H	-0.906007	-1.595219	-0.717367
