data_functionalizedCrystal
_audit_creation_method	'MofGen! by Chris Wilmer'
_symmetry_space_group_name_H-M	'P1'
_symmetry_Int_Tables_number	1
_symmetry_cell_setting	triclinic
loop_
_symmetry_equiv_pos_as_xyz
  x,y,z
_cell_length_a	12.759401
_cell_length_b	17.077402
_cell_length_c	12.759393
_cell_angle_alpha	90.032432
_cell_angle_beta	90.019676
_cell_angle_gamma	90.023919
loop_
_atom_site_label
_atom_site_type_symbol
_atom_site_fract_x
_atom_site_fract_y
_atom_site_fract_z
Zn1	Zn	1.606202	-0.312461	0.593971
Zn2	Zn	1.606066	-0.443747	0.418285
Zn3	Zn	1.430501	-0.312500	0.418310
Zn4	Zn	1.430466	-0.443690	0.593926
O5	O	1.518309	-0.378100	0.506123
O6	O	1.753205	-0.329884	0.570674
O7	O	1.582735	-0.426378	0.271267
O8	O	1.453880	-0.202648	0.441641
O9	O	1.753105	-0.426340	0.441598
O10	O	1.582967	-0.202620	0.570698
O11	O	1.453748	-0.329951	0.271285
O12	O	1.283475	-0.329895	0.441597
O13	O	1.453820	-0.426242	0.740953
O14	O	1.283449	-0.426280	0.570622
O15	O	1.582933	-0.329829	0.740986
O16	O	1.582701	-0.553587	0.441555
O17	O	1.453688	-0.553545	0.570598
C18	C	1.245341	-0.378086	0.506108
C19	C	1.128565	-0.378099	0.506126
C20	C	1.073755	-0.327966	0.573440
C21	C	0.964031	-0.327974	0.573447
C22	C	0.963936	-0.428256	0.438824
C23	C	1.073658	-0.428243	0.438813
C24	C	1.518204	-0.582048	0.506092
C25	C	1.518256	-0.669297	0.506113
C26	C	1.585435	-0.710205	0.573368
C27	C	1.585479	-0.792185	0.573390
C28	C	1.518349	-0.833257	0.506152
C29	C	1.451162	-0.792343	0.438895
C30	C	1.451114	-0.710365	0.438878
C31	C	1.451270	-0.963213	0.438931
C32	C	1.451320	-1.045198	0.438946
C33	C	1.585636	-1.045034	0.573443
C34	C	1.585587	-0.963055	0.573427
C35	C	1.518402	-0.922148	0.506168
C36	C	1.792342	-0.378114	0.506138
C37	C	1.909119	-0.378120	0.506145
C38	C	1.518387	-0.378024	0.780156
C39	C	1.518421	-0.377992	0.896933
C40	C	1.518442	-0.173355	0.506177
C41	C	1.518499	-0.086106	0.506200
C42	C	1.518291	-0.378118	0.233155
C43	C	1.518461	-0.377929	0.116379
C44	C	1.585655	-0.327782	0.951814
C45	C	1.585673	-0.327748	1.061538
C46	C	1.451220	-0.428142	1.061491
C47	C	1.451197	-0.428171	0.951769
H48	H	1.640105	-0.676770	0.628116
H49	H	1.396440	-0.469058	0.907083
O50	O	1.650852	-1.084678	0.638926
C51	C	1.627822	-1.064616	0.743617
H52	H	1.587392	-1.005121	0.745750
H53	H	1.703627	-1.061731	0.790780
H54	H	1.573827	-1.110772	0.778978
H55	H	1.640420	-0.286860	1.106217
H56	H	1.396557	-0.929909	0.384166
H57	H	1.640191	-0.825489	0.628147
H58	H	0.919217	-0.469082	0.384021
O59	O	1.385821	-0.670746	0.373450
C60	C	1.326560	-0.724573	0.314127
H61	H	1.369632	-0.782983	0.310529
H62	H	1.315372	-0.700935	0.231337
H63	H	1.246756	-0.733327	0.352540
H64	H	1.396499	-0.825790	0.384153
O65	O	1.385831	-0.476914	1.114598
C66	C	1.326502	-0.521251	1.042626
H67	H	1.322866	-0.489118	0.964422
H68	H	1.243726	-0.529614	1.074316
H69	H	1.364935	-0.580873	1.030942
H70	H	1.118457	-0.287133	0.628248
H71	H	1.640390	-0.286921	0.907170
H72	H	0.919410	-0.287149	0.628258
O73	O	1.386004	-1.084975	0.373607
C74	C	1.326704	-1.031292	0.314228
H75	H	1.323011	-0.972832	0.357242
H76	H	1.243947	-1.055042	0.302969
H77	H	1.365201	-1.022593	0.234460
O78	O	1.126744	-0.477021	0.373388
C79	C	1.054756	-0.521273	0.313965
H80	H	0.976560	-0.524042	0.356997
H81	H	1.086437	-0.583105	0.302607
H82	H	1.043062	-0.492456	0.234242
O83	O	1.650651	-0.923072	0.638792
C84	C	1.590768	-0.875670	0.706603
H85	H	1.511160	-0.863463	0.669476
H86	H	1.633517	-0.817985	0.720706
H87	H	1.579204	-0.907228	0.784459
