data_functionalizedCrystal
_audit_creation_method	'MofGen! by Chris Wilmer'
_symmetry_space_group_name_H-M	'P1'
_symmetry_Int_Tables_number	1
_symmetry_cell_setting	triclinic
loop_
_symmetry_equiv_pos_as_xyz
  x,y,z
_cell_length_a	12.759401
_cell_length_b	12.759400
_cell_length_c	12.759393
_cell_angle_alpha	89.969553
_cell_angle_beta	89.981433
_cell_angle_gamma	90.012209
loop_
_atom_site_label
_atom_site_type_symbol
_atom_site_fract_x
_atom_site_fract_y
_atom_site_fract_z
Zn1	Zn	1.606267	-0.418231	-0.593991
Zn2	Zn	1.606166	-0.593950	-0.418315
Zn3	Zn	1.430569	-0.418283	-0.418331
Zn4	Zn	1.430562	-0.593866	-0.593956
O5	O	1.518391	-0.506082	-0.506148
O6	O	1.753274	-0.441554	-0.570696
O7	O	1.582833	-0.570704	-0.271296
O8	O	1.453920	-0.271255	-0.441654
O9	O	1.753200	-0.570654	-0.441627
O10	O	1.583005	-0.271217	-0.570711
O11	O	1.453822	-0.441642	-0.271307
O12	O	1.283547	-0.441560	-0.441620
O13	O	1.453909	-0.570511	-0.740982
O14	O	1.283542	-0.570561	-0.570651
O15	O	1.582998	-0.441473	-0.741008
O16	O	1.582826	-0.740960	-0.441593
O17	O	1.453811	-0.740898	-0.570636
C18	C	1.245423	-0.506058	-0.506134
C19	C	1.128647	-0.506072	-0.506152
C20	C	1.073816	-0.438977	-0.573463
C21	C	0.964092	-0.438997	-0.573469
C22	C	0.964039	-0.573217	-0.438853
C23	C	1.073761	-0.573191	-0.438841
C24	C	1.073846	-0.361489	-0.651186
C25	C	0.964122	-0.361509	-0.651193
C26	C	1.518336	-0.779050	-0.506132
C27	C	1.518408	-0.895826	-0.506160
C28	C	1.585589	-0.950589	-0.573415
C29	C	1.585638	-1.060313	-0.573441
C30	C	1.451322	-1.060502	-0.438947
C31	C	1.451269	-0.950780	-0.438927
C32	C	1.663138	-0.950481	-0.651061
C33	C	1.663187	-1.060205	-0.651086
C34	C	1.792424	-0.506108	-0.506164
C35	C	1.909201	-0.506119	-0.506170
C36	C	1.518464	-0.505976	-0.780182
C37	C	1.518496	-0.505931	-0.896959
C38	C	1.518475	-0.232049	-0.506188
C39	C	1.518510	-0.115272	-0.506205
C40	C	1.585722	-0.438735	-0.951836
C41	C	1.585747	-0.438697	-1.061560
C42	C	1.451316	-0.573061	-1.061520
C43	C	1.451287	-0.573093	-0.951798
C44	C	1.663337	-0.361164	-0.951860
C45	C	1.663362	-0.361126	-1.061584
C46	C	1.518378	-0.506112	-0.233181
C47	C	1.518550	-0.505861	-0.116405
H48	H	1.396556	-0.906193	-0.384173
H49	H	1.396659	-1.105259	-0.384210
H50	H	0.919337	-0.627863	-0.384051
H51	H	0.930079	-0.284182	-0.622191
H52	H	1.641566	-0.279799	-0.922102
C53	C	1.623792	-1.106142	-0.755484
C54	C	1.589984	-1.032459	-0.844915
C55	C	1.550587	-1.078399	-0.949308
C56	C	1.544999	-1.198020	-0.964270
C57	C	1.578809	-1.271710	-0.874836
C58	C	1.618205	-1.225770	-0.770443
H59	H	1.594120	-0.943902	-0.833842
H60	H	1.525559	-1.023848	-1.015513
H61	H	1.515835	-1.232027	-1.041547
H62	H	1.574673	-1.360267	-0.885908
H63	H	1.643233	-1.280321	-0.704238
C64	C	1.377316	-0.646977	-0.891418
C65	C	1.422760	-0.729486	-0.815947
C66	C	1.348778	-0.803361	-0.755560
C67	C	1.229353	-0.794727	-0.770645
C68	C	1.183902	-0.712214	-0.846120
C69	C	1.257884	-0.638339	-0.906506
H70	H	1.511172	-0.735881	-0.804777
H71	H	1.382424	-0.864443	-0.699688
H72	H	1.174587	-0.849414	-0.725943
H73	H	1.095491	-0.705820	-0.857289
H74	H	1.224238	-0.577258	-0.962378
H75	H	1.740610	-0.390334	-0.917824
C76	C	0.923925	-0.391100	-0.761062
C77	C	0.953086	-0.497822	-0.809231
C78	C	0.912887	-0.527413	-0.919095
C79	C	0.843528	-0.450283	-0.980789
C80	C	0.814363	-0.343554	-0.932621
C81	C	0.854562	-0.313962	-0.822757
H82	H	1.004433	-0.554925	-0.763561
H83	H	0.934477	-0.606422	-0.954752
H84	H	0.813770	-0.472188	-1.062117
H85	H	0.763016	-0.286451	-0.978291
H86	H	0.832972	-0.234954	-0.787100
H87	H	1.107913	-0.390722	-0.728424
C88	C	1.773276	-0.390582	-1.101836
C89	C	1.787942	-0.488206	-1.171215
C90	C	1.897847	-0.517665	-1.211472
C91	C	1.993086	-0.449500	-1.182350
C92	C	1.978422	-0.351870	-1.112967
C93	C	1.868517	-0.322411	-1.072710
H94	H	1.717438	-0.538671	-1.192776
H95	H	1.908701	-0.589937	-1.262834
H96	H	2.074444	-0.471308	-1.212150
H97	H	2.048927	-0.301405	-1.091406
H98	H	1.857663	-0.250139	-1.021348
C99	C	1.767552	-0.904448	-0.611774
C100	C	1.857077	-0.978049	-0.578128
C101	C	1.961491	-0.932015	-0.538840
C102	C	1.976379	-0.812380	-0.533198
C103	C	1.886851	-0.738772	-0.566845
C104	C	1.782438	-0.784806	-0.606133
H105	H	1.846059	-1.066617	-0.582304
H106	H	2.027765	-0.986506	-0.513933
H107	H	2.053672	-0.778303	-0.504114
H108	H	1.897870	-0.650204	-0.562669
H109	H	1.716163	-0.730315	-0.631041
H110	H	1.641291	-0.920662	-0.732408
C111	C	1.624043	-0.256685	-1.107586
C112	C	1.526701	-0.255006	-1.178885
C113	C	1.487378	-0.150569	-1.224888
C114	C	1.545395	-0.047812	-1.199591
C115	C	1.642742	-0.049488	-1.128289
C116	C	1.682066	-0.153924	-1.082287
H117	H	1.483748	-0.331076	-1.197614
H118	H	1.415315	-0.149330	-1.277670
H119	H	1.516285	0.029498	-1.233645
H120	H	1.685695	0.026582	-1.109560
H121	H	1.754129	-0.155164	-1.029504
H122	H	1.396595	-0.627739	-1.106183
C123	C	1.134075	-0.646993	-0.364795
C124	C	1.073700	-0.720822	-0.290763
C125	C	1.134015	-0.794628	-0.216714
C126	C	1.254705	-0.794604	-0.216697
C127	C	1.315087	-0.720771	-0.290731
C128	C	1.254772	-0.646966	-0.364780
H129	H	0.984352	-0.720843	-0.290774
H130	H	1.089315	-0.849283	-0.161909
H131	H	1.299353	-0.849239	-0.161881
H132	H	1.404435	-0.720751	-0.290721
H133	H	1.299471	-0.592310	-0.419586
C134	C	1.114067	-0.251524	-0.621930
C135	C	1.084873	-0.203039	-0.515352
C136	C	1.125093	-0.093078	-0.486096
C137	C	1.194506	-0.031601	-0.563419
C138	C	1.223704	-0.080086	-0.670004
C139	C	1.183484	-0.190047	-0.699259
H140	H	1.033485	-0.248548	-0.458106
H141	H	1.103478	-0.057187	-0.407194
H142	H	1.224280	0.049799	-0.541762
H143	H	1.275091	-0.034577	-0.727249
H144	H	1.205098	-0.225938	-0.778161
H145	H	1.744584	-1.089943	-0.629372
