data_functionalizedCrystal
_audit_creation_method	'MofGen! by Chris Wilmer'
_symmetry_space_group_name_H-M	'P1'
_symmetry_Int_Tables_number	1
_symmetry_cell_setting	triclinic
loop_
_symmetry_equiv_pos_as_xyz
  x,y,z
_cell_length_a	12.759401
_cell_length_b	21.395361
_cell_length_c	12.759393
_cell_angle_alpha	89.961845
_cell_angle_beta	89.979062
_cell_angle_gamma	90.032233
loop_
_atom_site_label
_atom_site_type_symbol
_atom_site_fract_x
_atom_site_fract_y
_atom_site_fract_z
Zn1	Zn	1.606150	-0.249383	-0.593964
Zn2	Zn	2.106150	0.250617	-0.093964
Zn3	Zn	1.605992	-0.354173	-0.418261
Zn4	Zn	2.105992	0.145827	0.081739
Zn5	Zn	1.430448	-0.249416	-0.418299
Zn6	Zn	1.930448	0.250584	0.081701
Zn7	Zn	1.430391	-0.354129	-0.593898
Zn8	Zn	1.930391	0.145871	-0.093898
O9	O	1.518245	-0.301775	-0.506106
O10	O	2.018245	0.198225	-0.006106
O11	O	1.753150	-0.263288	-0.570668
O12	O	2.253150	0.236712	-0.070668
O13	O	1.582663	-0.340309	-0.271245
O14	O	2.082663	0.159691	0.228755
O15	O	1.453845	-0.161734	-0.441645
O16	O	1.953845	0.338266	0.058355
O17	O	1.753033	-0.340277	-0.441580
O18	O	2.253033	0.159723	0.058420
O19	O	1.582932	-0.161709	-0.570706
O20	O	2.082932	0.338291	-0.070706
O21	O	1.453692	-0.263345	-0.271273
O22	O	1.953692	0.236655	0.228727
O23	O	1.283420	-0.263302	-0.441581
O24	O	1.783420	0.236698	0.058419
O25	O	1.453748	-0.340202	-0.740928
O26	O	1.953748	0.159798	-0.240928
O27	O	1.283378	-0.340234	-0.570593
O28	O	1.783378	0.159766	-0.070593
O29	O	1.582877	-0.263245	-0.740977
O30	O	2.082877	0.236755	-0.240977
O31	O	1.582608	-0.441845	-0.441516
O32	O	2.082608	0.058155	0.058484
O33	O	1.453595	-0.441813	-0.570556
O34	O	1.953595	0.058187	-0.070556
C35	C	1.245278	-0.301768	-0.506085
C36	C	1.745278	0.198232	-0.006085
C37	C	1.128501	-0.301779	-0.506101
C38	C	1.628501	0.198221	-0.006101
C39	C	1.518106	-0.464563	-0.506047
C40	C	2.018106	0.035437	-0.006047
C41	C	1.518143	-0.534204	-0.506057
C42	C	2.018143	-0.034204	-0.006057
C43	C	1.073645	-0.341899	-0.573171
C44	C	1.573645	0.158101	-0.073171
C45	C	0.963921	-0.341901	-0.573192
C46	C	1.463921	0.158099	-0.073192
C47	C	0.963919	-0.261663	-0.439063
C48	C	1.463919	0.238337	0.060937
C49	C	1.073641	-0.261658	-0.439048
C50	C	1.573641	0.238342	0.060952
C51	C	1.585380	-0.566913	-0.438935
C52	C	2.085380	-0.066913	0.061065
C53	C	1.585429	-0.632349	-0.438958
C54	C	2.085429	-0.132349	0.061042
C55	C	1.518222	-0.665072	-0.506093
C56	C	2.018222	-0.165072	-0.006093
C57	C	1.450981	-0.632355	-0.573229
C58	C	1.950981	-0.132355	-0.073229
C59	C	1.450941	-0.566921	-0.573211
C60	C	1.950941	-0.066921	-0.073211
C61	C	1.423624	-0.768788	-0.514329
C62	C	1.923624	-0.268788	-0.014329
C63	C	1.423662	-0.834221	-0.514340
C64	C	1.923662	-0.334221	-0.014340
C65	C	1.518345	-0.866893	-0.506155
C66	C	2.018345	-0.366893	-0.006155
C67	C	1.612993	-0.834125	-0.497937
C68	C	2.112993	-0.334125	0.002063
C69	C	1.612953	-0.768691	-0.497919
C70	C	2.112953	-0.268691	0.002081
C71	C	1.518258	-0.736025	-0.506121
C72	C	2.018258	-0.236025	-0.006121
C73	C	1.585640	-0.970555	-0.439054
C74	C	2.085640	-0.470555	0.060946
C75	C	1.585690	-1.035991	-0.439085
C76	C	2.085690	-0.535991	0.060915
C77	C	1.451233	-1.035997	-0.573350
C78	C	1.951233	-0.535997	-0.073350
C79	C	1.451192	-0.970562	-0.573325
C80	C	1.951192	-0.470562	-0.073325
C81	C	1.518394	-0.937844	-0.506171
C82	C	2.018394	-0.437844	-0.006171
C83	C	1.792278	-0.301783	-0.506127
C84	C	2.292278	0.198217	-0.006127
C85	C	1.909055	-0.301787	-0.506136
C86	C	2.409055	0.198213	-0.006136
C87	C	1.518324	-0.301715	-0.780139
C88	C	2.018324	0.198285	-0.280139
C89	C	1.518357	-0.301689	-0.896916
C90	C	2.018357	0.198311	-0.396916
C91	C	1.518413	-0.138352	-0.506187
C92	C	2.018413	0.361648	-0.006187
C93	C	1.518484	-0.068711	-0.506222
C94	C	2.018484	0.431289	-0.006222
C95	C	1.585600	-0.261612	-0.951805
C96	C	2.085600	0.238388	-0.451805
C97	C	1.585617	-0.261585	-1.061529
C98	C	2.085617	0.238415	-0.561529
C99	C	1.451147	-0.341719	-1.061465
C100	C	1.951147	0.158281	-0.561465
C101	C	1.451125	-0.341742	-0.951743
C102	C	1.951125	0.158258	-0.451743
C103	C	1.518227	-0.301790	-0.233138
C104	C	2.018227	0.198210	0.266862
C105	C	1.518397	-0.301639	-0.116362
C106	C	2.018397	0.198361	0.383638
H107	H	0.919261	-0.374570	-0.627809
H108	H	1.419261	0.125430	-0.127809
O109	O	1.378641	-0.384918	-1.120608
O110	O	1.878641	0.115082	-0.620608
H111	H	1.331871	-0.412785	-1.064003
H112	H	1.831871	0.087215	-0.564003
H113	H	1.640184	-0.658986	-0.384300
H114	H	2.140184	-0.158986	0.115700
O115	O	1.658112	-0.218411	-0.892673
O116	O	2.158112	0.281589	-0.392673
H117	H	1.646811	-0.225164	-0.807153
H118	H	2.146811	0.274836	-0.307153
H119	H	1.640371	-0.228948	-1.106215
H120	H	2.140371	0.271052	-0.606215
H121	H	1.396361	-0.374378	-0.907052
H122	H	1.896361	0.125622	-0.407052
H123	H	1.118309	-0.374567	-0.627773
H124	H	1.618309	0.125433	-0.127773
H125	H	1.346516	-0.742192	-0.520999
H126	H	1.846516	-0.242192	-0.020999
O127	O	1.658226	-1.071270	-0.366692
O128	O	2.158226	-0.571270	0.133308
H129	H	1.646978	-1.122268	-0.377997
H130	H	2.146978	-0.622268	0.122003
H131	H	0.919239	-0.228998	-0.384469
H132	H	1.419239	0.271002	0.115531
H133	H	1.690092	-0.860725	-0.491272
H134	H	2.190092	-0.360725	0.008728
H135	H	1.690018	-0.742012	-0.491231
H136	H	2.190018	-0.242012	0.008769
H137	H	1.118306	-0.228984	-0.384431
H138	H	1.618306	0.271016	0.115569
H139	H	1.640363	-0.943915	-0.384377
H140	H	2.140363	-0.443915	0.115623
H141	H	1.640102	-0.540277	-0.384257
H142	H	2.140102	-0.040277	0.115743
H143	H	1.396517	-1.062640	-0.628017
H144	H	1.896517	-0.562640	-0.128017
H145	H	1.346593	-0.860896	-0.521021
H146	H	1.846593	-0.360896	-0.021021
O147	O	1.378645	-0.935276	-0.645694
O148	O	1.878645	-0.435276	-0.145694
H149	H	1.331907	-0.969022	-0.692370
H150	H	1.831907	-0.469022	-0.192370
H151	H	1.396263	-0.659003	-0.627892
H152	H	1.896263	-0.159003	-0.127892
H153	H	1.396188	-0.540289	-0.627871
H154	H	1.896188	-0.040289	-0.127871
