data_functionalizedCrystal
_audit_creation_method	'MofGen! by Chris Wilmer'
_symmetry_space_group_name_H-M	'P1'
_symmetry_Int_Tables_number	1
_symmetry_cell_setting	triclinic
loop_
_symmetry_equiv_pos_as_xyz
  x,y,z
_cell_length_a	21.395364
_cell_length_b	21.395362
_cell_length_c	21.395340
_cell_angle_alpha	89.893120
_cell_angle_beta	89.929705
_cell_angle_gamma	90.028124
loop_
_atom_site_label
_atom_site_type_symbol
_atom_site_fract_x
_atom_site_fract_y
_atom_site_fract_z
Zn1	Zn	0.958145	-0.249005	-0.354257
Zn2	Zn	0.957966	-0.353923	-0.249475
Zn3	Zn	0.853277	-0.249160	-0.249493
Zn4	Zn	0.853331	-0.353746	-0.354215
O5	O	0.905680	-0.301458	-0.301860
O6	O	1.045799	-0.262932	-0.340367
O7	O	0.943981	-0.340165	-0.161799
O8	O	0.867240	-0.161462	-0.263414
O9	O	1.045667	-0.340014	-0.263384
O10	O	0.944286	-0.161348	-0.340384
O11	O	0.867066	-0.263196	-0.161812
O12	O	0.765606	-0.263024	-0.263374
O13	O	0.867332	-0.339713	-0.441899
O14	O	0.765646	-0.339863	-0.340314
O15	O	0.944339	-0.262760	-0.441929
O16	O	0.944033	-0.441577	-0.263344
O17	O	0.867159	-0.441447	-0.340297
C18	C	0.742892	-0.301442	-0.301842
C19	C	0.673251	-0.301450	-0.301849
C20	C	0.171492	-0.341542	-0.341883
C21	C	0.236927	-0.341542	-0.341877
C22	C	0.269612	-0.301472	-0.301880
C23	C	0.236857	-0.261410	-0.261875
C24	C	0.171423	-0.261416	-0.261878
C25	C	0.373296	-0.245014	-0.297030
C26	C	0.438729	-0.245008	-0.297032
C27	C	0.471433	-0.301456	-0.301866
C28	C	0.438696	-0.357912	-0.306712
C29	C	0.373262	-0.357917	-0.306716
C30	C	0.340565	-0.301462	-0.301871
C31	C	0.575133	-0.341518	-0.341858
C32	C	0.640570	-0.341519	-0.341847
C33	C	0.640498	-0.261382	-0.261848
C34	C	0.575063	-0.261387	-0.261856
C35	C	0.542384	-0.301454	-0.301864
C36	C	0.905599	-0.464246	-0.301828
C37	C	0.905622	-0.533887	-0.301835
C38	C	0.945718	-0.566484	-0.341942
C39	C	0.945740	-0.631920	-0.341957
C40	C	0.905673	-0.664756	-0.301854
C41	C	0.865570	-0.632151	-0.261745
C42	C	0.865545	-0.566717	-0.261735
C43	C	0.900751	-0.768541	-0.245415
C44	C	0.900781	-0.833974	-0.245424
C45	C	0.905748	-0.866576	-0.301885
C46	C	0.910698	-0.833738	-0.358338
C47	C	0.910672	-0.768304	-0.358329
C48	C	0.905696	-0.735708	-0.301861
C49	C	0.945869	-0.970126	-0.342011
C50	C	0.945886	-1.035562	-0.342028
C51	C	0.865720	-1.035792	-0.261810
C52	C	0.865699	-0.970357	-0.261799
C53	C	0.905777	-0.937528	-0.301899
C54	C	1.069103	-0.301476	-0.301878
C55	C	1.138744	-0.301483	-0.301886
C56	C	0.905862	-0.301199	-0.465284
C57	C	0.905939	-0.301089	-0.534925
C58	C	0.905777	-0.138035	-0.301906
C59	C	0.905819	-0.068394	-0.301925
C60	C	0.905534	-0.301671	-0.139072
C61	C	0.905578	-0.301605	-0.069431
C62	C	0.865263	-0.261797	-0.036754
C63	C	0.865309	-0.261730	0.028682
C64	C	0.905664	-0.301481	0.061437
C65	C	0.945987	-0.341292	0.028753
C66	C	0.945944	-0.341354	-0.036681
C67	C	0.911053	-0.357796	0.165253
C68	C	0.911092	-0.357736	0.230686
C69	C	0.905800	-0.301291	0.263258
C70	C	0.900456	-0.244904	0.230389
C71	C	0.900414	-0.244966	0.164955
C72	C	0.905715	-0.301419	0.132390
C73	C	0.865533	-0.261406	0.366887
C74	C	0.865583	-0.261338	0.432323
C75	C	0.946258	-0.340905	0.432393
C76	C	0.946210	-0.340968	0.366958
C77	C	0.905845	-0.301220	0.334209
H78	H	0.263474	-0.228786	-0.229308
H79	H	0.465322	-0.403877	-0.310654
H80	H	0.915365	-0.403764	0.138738
Br81	Br	0.281380	-0.395912	-0.396162
H82	H	0.346610	-0.403886	-0.310660
Br83	Br	0.894071	-0.878534	-0.168809
H84	H	0.978385	-0.658465	-0.374624
Br85	Br	0.892981	-0.168323	0.274585
Br86	Br	0.917387	-0.723739	-0.434940
Br87	Br	1.000760	-0.395235	0.073205
H88	H	0.978500	-0.943395	-0.374665
H89	H	0.548525	-0.374144	-0.374434
Br90	Br	1.000661	-0.395383	-0.081032
Br91	Br	0.917444	-0.877975	-0.434969
H92	H	0.978536	-1.062102	-0.374690
H93	H	0.896067	-0.199055	0.138196
H94	H	0.667110	-0.228759	-0.229280
Br95	Br	0.894099	-0.724301	-0.168776
H96	H	0.833093	-1.062527	-0.229162
H97	H	0.979118	-0.373269	0.459062
Br98	Br	0.811280	-0.926115	-0.207367
H99	H	0.667232	-0.374144	-0.374416
Br100	Br	0.530617	-0.207014	-0.207575
H101	H	0.832946	-0.658890	-0.229095
Br102	Br	1.000105	-0.521933	-0.396366
H103	H	0.465379	-0.199037	-0.293093
Br104	Br	0.328920	-0.168400	-0.290459
H105	H	0.832669	-0.229036	0.340221
H106	H	0.832894	-0.540176	-0.229075
H107	H	0.144760	-0.228794	-0.229307
H108	H	0.832480	-0.229311	0.055292
Br109	Br	0.127145	-0.395921	-0.396177
H110	H	0.832394	-0.229431	-0.063414
H111	H	0.832755	-0.228918	0.458928
Br112	Br	1.000923	-0.395000	0.322607
H113	H	0.915379	-0.403654	0.257443
