data_functionalizedCrystal
_audit_creation_method	'MofGen! by Chris Wilmer'
_symmetry_space_group_name_H-M	'P1'
_symmetry_Int_Tables_number	1
_symmetry_cell_setting	triclinic
loop_
_symmetry_equiv_pos_as_xyz
  x,y,z
_cell_length_a	21.395361
_cell_length_b	21.395364
_cell_length_c	12.759393
_cell_angle_alpha	90.022699
_cell_angle_beta	89.960721
_cell_angle_gamma	89.971791
loop_
_atom_site_label
_atom_site_type_symbol
_atom_site_fract_x
_atom_site_fract_y
_atom_site_fract_z
Zn1	Zn	-0.249443	-0.957841	-0.594044
Zn2	Zn	0.250557	-0.457841	-0.094044
Zn3	Zn	-0.354235	-0.957749	-0.418341
Zn4	Zn	0.145765	-0.457749	0.081659
Zn5	Zn	-0.249471	-0.853061	-0.418371
Zn6	Zn	0.250529	-0.353061	0.081629
Zn7	Zn	-0.354182	-0.853025	-0.593969
Zn8	Zn	0.145818	-0.353025	-0.093969
O9	O	-0.301833	-0.905419	-0.506181
O10	O	0.198167	-0.405419	-0.006181
O11	O	-0.263354	-1.045507	-0.570756
O12	O	0.236646	-0.545507	-0.070756
O13	O	-0.340372	-0.943838	-0.271324
O14	O	0.159628	-0.443838	0.228676
O15	O	-0.161789	-0.867014	-0.441718
O16	O	0.338211	-0.367014	0.058282
O17	O	-0.340345	-1.045439	-0.441667
O18	O	0.159655	-0.545439	0.058333
O19	O	-0.161769	-0.943996	-0.570785
O20	O	0.338231	-0.443996	-0.070785
O21	O	-0.263402	-0.866925	-0.271346
O22	O	0.236598	-0.366925	0.228654
O23	O	-0.263351	-0.765379	-0.441645
O24	O	0.236649	-0.265379	0.058355
O25	O	-0.340254	-0.866953	-0.741000
O26	O	0.159746	-0.366953	-0.241000
O27	O	-0.340281	-0.765352	-0.570657
O28	O	0.159719	-0.265352	-0.070657
O29	O	-0.263303	-0.943961	-0.741056
O30	O	0.236697	-0.443961	-0.241056
O31	O	-0.441906	-0.943803	-0.441595
O32	O	0.058094	-0.443803	0.058405
O33	O	-0.441867	-0.866863	-0.570628
O34	O	0.058133	-0.366863	-0.070628
C35	C	-0.301814	-0.742632	-0.506147
C36	C	0.198186	-0.242632	-0.006147
C37	C	-0.301821	-0.672990	-0.506157
C38	C	0.198179	-0.172990	-0.006157
C39	C	-0.341953	-0.171197	-0.573274
C40	C	0.158047	0.328803	-0.073274
C41	C	-0.341955	-0.236632	-0.573265
C42	C	0.158045	0.263368	-0.073265
C43	C	-0.301837	-0.269352	-0.506198
C44	C	0.198163	0.230648	-0.006198
C45	C	-0.261727	-0.236631	-0.439117
C46	C	0.238273	0.263369	0.060883
C47	C	-0.261732	-0.171197	-0.439121
C48	C	0.238268	0.328803	0.060879
C49	C	-0.245375	-0.373041	-0.498071
C50	C	0.254625	0.126959	0.001929
C51	C	-0.245370	-0.438474	-0.498075
C52	C	0.254630	0.061526	0.001925
C53	C	-0.301824	-0.471173	-0.506181
C54	C	0.198176	0.028827	-0.006181
C55	C	-0.358285	-0.438430	-0.514305
C56	C	0.141715	0.061570	-0.014305
C57	C	-0.358290	-0.372996	-0.514309
C58	C	0.141710	0.127004	-0.014309
C59	C	-0.301828	-0.340304	-0.506186
C60	C	0.198172	0.159696	-0.006186
C61	C	-0.341935	-0.574838	-0.573242
C62	C	0.158065	-0.074838	-0.073242
C63	C	-0.341938	-0.640275	-0.573225
C64	C	0.158062	-0.140275	-0.073225
C65	C	-0.261705	-0.640273	-0.439084
C66	C	0.238295	-0.140273	0.060916
C67	C	-0.261708	-0.574837	-0.439095
C68	C	0.238292	-0.074837	0.060905
C69	C	-0.301823	-0.542124	-0.506179
C70	C	0.198177	-0.042124	-0.006179
C71	C	-0.464621	-0.905336	-0.506123
C72	C	0.035379	-0.405336	-0.006123
C73	C	-0.534262	-0.905358	-0.506133
C74	C	-0.034262	-0.405358	-0.006133
C75	C	-0.566974	-0.945457	-0.439014
C76	C	-0.066974	-0.445457	0.060986
C77	C	-0.632410	-0.945486	-0.439038
C78	C	-0.132410	-0.445486	0.060962
C79	C	-0.665130	-0.905406	-0.506169
C80	C	-0.165130	-0.405406	-0.006169
C81	C	-0.632410	-0.865305	-0.573301
C82	C	-0.132410	-0.365305	-0.073301
C83	C	-0.566975	-0.865281	-0.573283
C84	C	-0.066975	-0.365281	-0.073283
C85	C	-0.768841	-0.848991	-0.514400
C86	C	-0.268841	-0.348991	-0.014400
C87	C	-0.834274	-0.849013	-0.514411
C88	C	-0.334274	-0.349013	-0.014411
C89	C	-0.866951	-0.905478	-0.506231
C90	C	-0.366951	-0.405478	-0.006231
C91	C	-0.834186	-0.961923	-0.498018
C92	C	-0.334186	-0.461923	0.001982
C93	C	-0.768752	-0.961900	-0.498000
C94	C	-0.268752	-0.461900	0.002000
C95	C	-0.736082	-0.905427	-0.506196
C96	C	-0.236082	-0.405427	-0.006196
C97	C	-0.970616	-0.945612	-0.439134
C98	C	-0.470616	-0.445612	0.060866
C99	C	-1.036053	-0.945642	-0.439165
C100	C	-0.536053	-0.445642	0.060835
C101	C	-1.036051	-0.865455	-0.573422
C102	C	-0.536051	-0.365455	-0.073422
C103	C	-0.970616	-0.865430	-0.573397
C104	C	-0.470616	-0.365430	-0.073397
C105	C	-0.937902	-0.905508	-0.506247
C106	C	-0.437902	-0.405508	-0.006247
C107	C	-0.138410	-0.905519	-0.506263
C108	C	0.361590	-0.405519	-0.006263
C109	C	-0.068768	-0.905562	-0.506298
C110	C	0.431232	-0.405562	-0.006298
C111	C	-0.301770	-0.905463	-0.780215
C112	C	0.198230	-0.405463	-0.280215
C113	C	-0.301743	-0.905482	-0.896992
C114	C	0.198257	-0.405482	-0.396992
C115	C	-0.301849	-0.068842	-0.506210
C116	C	0.198151	0.431158	-0.006210
C117	C	-0.301846	-0.138484	-0.506206
C118	C	0.198154	0.361516	-0.006206
C119	C	-0.261657	-0.865447	-0.951864
C120	C	0.238343	-0.365447	-0.451864
C121	C	-0.261638	-0.865462	-1.061589
C122	C	0.238362	-0.365462	-0.561589
C123	C	-0.341791	-0.945551	-1.061557
C124	C	0.158209	-0.445551	-0.561557
C125	C	-0.341813	-0.945532	-0.951835
C126	C	0.158187	-0.445532	-0.451835
C127	C	-0.301851	-0.905412	-0.233214
C128	C	0.198149	-0.405412	0.266786
C129	C	-0.301701	-0.905514	-0.116438
C130	C	0.198299	-0.405514	0.383562
H131	H	-0.374620	-0.144566	-0.627896
H132	H	0.125380	0.355434	-0.127896
H133	H	-0.199395	-0.465128	-0.491472
H134	H	0.300605	0.034872	0.008528
H135	H	-0.374458	-0.978135	-0.907156
H136	H	0.125542	-0.478135	-0.407156
H137	H	-0.374602	-0.666909	-0.627837
H138	H	0.125398	-0.166909	-0.127837
H139	H	-0.659050	-0.978141	-0.384382
H140	H	-0.159050	-0.478141	0.115618
O141	O	-0.733410	-1.022773	-0.489157
O142	O	-0.233410	-0.522773	0.010843
H143	H	-0.767120	-1.062045	-0.483479
H144	H	-0.267120	-0.562045	0.016521
O145	O	-0.419181	-0.473689	-0.523049
O146	O	0.080819	0.026311	-0.023049
H147	H	-0.449902	-0.461091	-0.456159
H148	H	0.050098	0.038909	0.043841
H149	H	-0.229047	-0.548202	-0.384484
H150	H	0.270953	-0.048202	0.115516
H151	H	-0.860790	-1.007903	-0.491357
H152	H	-0.360790	-0.507903	0.008643
O153	O	-0.935324	-0.988843	-0.366727
O154	O	-0.435324	-0.488843	0.133273
H155	H	-0.969068	-1.016740	-0.320071
H156	H	-0.469068	-0.516740	0.179929
O157	O	-0.184485	-0.337769	-0.489325
O158	O	0.315515	0.162231	0.010675
H159	H	-0.153767	-0.350350	-0.556228
H160	H	0.346233	0.149650	-0.056228
H161	H	-0.229065	-0.263276	-0.384510
H162	H	0.270935	0.236724	0.115490
H163	H	-1.062686	-0.978298	-0.384510
H164	H	-0.562686	-0.478298	0.115490
H165	H	-0.229043	-0.666912	-0.384473
H166	H	0.270957	-0.166912	0.115527
H167	H	-0.228997	-0.832861	-1.106261
H168	H	0.271003	-0.332861	-0.606261
O169	O	-1.071331	-0.822221	-0.645828
O170	O	-0.571331	-0.322221	-0.145828
H171	H	-1.122328	-0.828970	-0.634560
H172	H	-0.622328	-0.328970	-0.134560
O173	O	-0.869612	-0.788137	-0.523263
O174	O	-0.369612	-0.288137	-0.023263
H175	H	-0.857042	-0.764739	-0.597980
H176	H	-0.357042	-0.264739	-0.097980
H177	H	-0.374415	-0.978159	-1.106224
H178	H	0.125585	-0.478159	-0.606224
H179	H	-0.229070	-0.144562	-0.384506
H180	H	0.270930	0.355438	0.115494
O181	O	-0.218440	-0.822251	-0.892708
O182	O	0.281560	-0.322251	-0.392708
H183	H	-0.229177	-0.773073	-0.913743
H184	H	0.270823	-0.273073	-0.413743
H185	H	-0.404263	-0.346340	-0.520921
H186	H	0.095737	0.153660	-0.020921
O187	O	-0.385208	-0.271928	-0.645614
O188	O	0.114792	0.228072	-0.145614
H189	H	-0.413099	-0.238187	-0.692267
H190	H	0.086901	0.261813	-0.192267
O191	O	-0.385223	-0.539547	-0.645551
O192	O	0.114777	-0.039547	-0.145551
H193	H	-0.413127	-0.573291	-0.692164
H194	H	0.086873	-0.073291	-0.192164
H195	H	-0.540341	-0.978091	-0.384339
H196	H	-0.040341	-0.478091	0.115661
H197	H	-0.943979	-0.832776	-0.628047
H198	H	-0.443979	-0.332776	-0.128047
O199	O	-0.733603	-0.788082	-0.523222
O200	O	-0.233603	-0.288082	-0.023222
H201	H	-0.682599	-0.797548	-0.521840
H202	H	-0.182599	-0.297548	-0.021840
H203	H	-0.659055	-0.832672	-0.627962
H204	H	-0.159055	-0.332672	-0.127962
H205	H	-0.540340	-0.832628	-0.627941
H206	H	-0.040340	-0.332628	-0.127941
