data_functionalizedCrystal
_audit_creation_method	'MofGen! by Chris Wilmer'
_symmetry_space_group_name_H-M	'P1'
_symmetry_Int_Tables_number	1
_symmetry_cell_setting	triclinic
loop_
_symmetry_equiv_pos_as_xyz
  x,y,z
_cell_length_a	12.759400
_cell_length_b	12.759401
_cell_length_c	12.759393
_cell_angle_alpha	89.980324
_cell_angle_beta	89.969510
_cell_angle_gamma	90.015111
loop_
_atom_site_label
_atom_site_type_symbol
_atom_site_fract_x
_atom_site_fract_y
_atom_site_fract_z
Zn1	Zn	-0.418204	1.606266	-0.593985
Zn2	Zn	-0.593919	1.606158	-0.418305
Zn3	Zn	-0.418256	1.430565	-0.418324
Zn4	Zn	-0.593842	1.430557	-0.593946
O5	O	-0.506055	1.518387	-0.506140
O6	O	-0.441523	1.753273	-0.570689
O7	O	-0.570671	1.582823	-0.271286
O8	O	-0.271228	1.453921	-0.441650
O9	O	-0.570620	1.753193	-0.441618
O10	O	-0.271189	1.583008	-0.570707
O11	O	-0.441612	1.453816	-0.271300
O12	O	-0.441538	1.283543	-0.441612
O13	O	-0.570489	1.453908	-0.740972
O14	O	-0.570540	1.283537	-0.570641
O15	O	-0.441448	1.583000	-0.741001
O16	O	-0.740930	1.582815	-0.441580
O17	O	-0.740874	1.453802	-0.570623
C18	C	-0.506037	1.245419	-0.506125
C19	C	-0.506055	1.128643	-0.506144
C20	C	-0.438955	1.073823	-0.573455
C21	C	-0.438966	0.964099	-0.573462
C22	C	-0.573185	0.964024	-0.438844
C23	C	-0.573168	1.073746	-0.438832
C24	C	-0.779023	1.518324	-0.506118
C25	C	-0.895799	1.518394	-0.506144
C26	C	-0.950656	1.585645	-0.439025
C27	C	-1.060380	1.585710	-0.439058
C28	C	-1.060381	1.451262	-0.573330
C29	C	-0.950659	1.451204	-0.573302
C30	C	-0.950656	1.663264	-0.361501
C31	C	-1.060380	1.663329	-0.361534
C32	C	-0.232022	1.518478	-0.506185
C33	C	-0.115245	1.518517	-0.506204
C34	C	-0.505954	1.518465	-0.780173
C35	C	-0.505911	1.518499	-0.896950
C36	C	-0.506074	1.792420	-0.506155
C37	C	-0.506082	1.909196	-0.506162
C38	C	-0.438709	1.585722	-0.951829
C39	C	-0.438664	1.585740	-1.061553
C40	C	-0.573032	1.451308	-1.061510
C41	C	-0.573072	1.451285	-0.951788
C42	C	-0.506080	1.518369	-0.233172
C43	C	-0.505827	1.518539	-0.116396
H44	H	-0.384325	0.919470	-0.628271
Br45	Br	-0.664264	0.889515	-0.347498
Br46	Br	-0.876213	1.359951	-0.664415
Br47	Br	-0.664224	1.148151	-0.347460
H48	H	-0.383939	1.640479	-1.106230
H49	H	-1.105061	1.396559	-0.628008
H50	H	-0.920798	1.744608	-0.383353
Br51	Br	-0.347562	1.676938	-0.877408
H52	H	-1.090241	1.641590	-0.280153
Br53	Br	-0.894062	1.614689	-0.232634
H54	H	-0.627714	1.396587	-1.106173
H55	H	-0.627795	1.396536	-0.907105
Br56	Br	-1.116969	1.792160	-0.410245
H57	H	-0.384304	1.118517	-0.628261
