data_functionalizedCrystal
_audit_creation_method	'MofGen! by Chris Wilmer'
_symmetry_space_group_name_H-M	'P1'
_symmetry_Int_Tables_number	1
_symmetry_cell_setting	triclinic
loop_
_symmetry_equiv_pos_as_xyz
  x,y,z
_cell_length_a	21.395364
_cell_length_b	21.395362
_cell_length_c	21.395355
_cell_angle_alpha	89.979451
_cell_angle_beta	89.975448
_cell_angle_gamma	90.044742
loop_
_atom_site_label
_atom_site_type_symbol
_atom_site_fract_x
_atom_site_fract_y
_atom_site_fract_z
Zn1	Zn	0.957863	-0.249261	-0.354253
Zn2	Zn	1.457863	0.250739	0.145747
Zn3	Zn	0.957767	-0.354021	-0.249471
Zn4	Zn	1.457767	0.145979	0.250529
Zn5	Zn	0.853078	-0.249289	-0.249489
Zn6	Zn	1.353078	0.250711	0.250511
Zn7	Zn	0.853049	-0.354032	-0.354212
Zn8	Zn	1.353049	0.145968	0.145788
O9	O	0.905439	-0.301651	-0.301856
O10	O	1.405439	0.198349	0.198144
O11	O	1.045528	-0.263142	-0.340363
O12	O	1.545528	0.236858	0.159637
O13	O	0.943852	-0.340135	-0.161796
O14	O	1.443852	0.159865	0.338204
O15	O	0.867030	-0.161607	-0.263411
O16	O	1.367030	0.338393	0.236589
O17	O	1.045458	-0.340108	-0.263381
O18	O	1.545458	0.159892	0.236619
O19	O	0.944016	-0.161587	-0.340380
O20	O	1.444016	0.338413	0.159620
O21	O	0.866938	-0.263188	-0.161809
O22	O	1.366938	0.236812	0.338191
O23	O	0.765396	-0.263199	-0.263371
O24	O	1.265396	0.236801	0.236629
O25	O	0.866981	-0.340127	-0.441895
O26	O	1.366981	0.159873	0.058105
O27	O	0.765375	-0.340154	-0.340310
O28	O	1.265375	0.159846	0.159690
O29	O	0.943987	-0.263152	-0.441925
O30	O	1.443987	0.236848	0.058075
O31	O	0.943824	-0.441700	-0.263341
O32	O	1.443824	0.058300	0.236659
O33	O	0.866888	-0.441709	-0.340293
O34	O	1.366888	0.058291	0.159707
C35	C	0.742652	-0.301681	-0.301839
C36	C	1.242652	0.198319	0.198161
C37	C	0.673011	-0.301709	-0.301846
C38	C	1.173011	0.198291	0.198154
C39	C	0.640356	-0.261698	-0.341993
C40	C	1.140356	0.238302	0.158007
C41	C	0.574921	-0.261682	-0.341995
C42	C	1.074921	0.238318	0.158005
C43	C	0.542142	-0.301687	-0.301857
C44	C	1.042142	0.198313	0.198143
C45	C	0.574804	-0.341701	-0.261703
C46	C	1.074804	0.158299	0.238297
C47	C	0.640238	-0.341712	-0.261697
C48	C	1.140238	0.158288	0.238303
C49	C	0.438419	-0.358112	-0.296818
C50	C	0.938419	0.141888	0.203182
C51	C	0.372986	-0.358102	-0.296828
C52	C	0.872986	0.141898	0.203172
C53	C	0.340322	-0.301653	-0.301871
C54	C	0.840322	0.198347	0.198129
C55	C	0.373098	-0.245212	-0.306918
C56	C	0.873098	0.254788	0.193082
C57	C	0.438532	-0.245223	-0.306912
C58	C	0.938532	0.254777	0.193088
C59	C	0.471190	-0.301679	-0.301859
C60	C	0.971190	0.198321	0.198141
C61	C	0.236715	-0.261620	-0.342023
C62	C	0.736715	0.238380	0.157977
C63	C	0.171278	-0.261603	-0.342021
C64	C	0.671278	0.238397	0.157979
C65	C	0.171163	-0.341627	-0.261732
C66	C	0.671163	0.158373	0.238268
C67	C	0.236598	-0.341640	-0.261731
C68	C	0.736598	0.158360	0.238269
C69	C	0.269370	-0.301637	-0.301879
C70	C	0.769370	0.198363	0.198121
C71	C	0.905359	-0.464438	-0.301824
C72	C	1.405359	0.035562	0.198176
C73	C	0.905382	-0.534080	-0.301831
C74	C	1.405382	-0.034080	0.198169
C75	C	0.945446	-0.566725	-0.341938
C76	C	1.445446	-0.066725	0.158062
C77	C	0.945468	-0.632161	-0.341953
C78	C	1.445468	-0.132161	0.158047
C79	C	0.905433	-0.664948	-0.301851
C80	C	1.405433	-0.164948	0.198149
C81	C	0.865362	-0.632294	-0.261742
C82	C	1.365362	-0.132294	0.238258
C83	C	0.865337	-0.566860	-0.261732
C84	C	1.365337	-0.066860	0.238268
C85	C	0.900556	-0.768649	-0.245412
C86	C	1.400556	-0.268649	0.254588
C87	C	0.900586	-0.834082	-0.245421
C88	C	1.400586	-0.334082	0.254579
C89	C	0.905507	-0.866769	-0.301881
C90	C	1.405507	-0.366769	0.198119
C91	C	0.910413	-0.834014	-0.358334
C92	C	1.410413	-0.334014	0.141666
C93	C	0.910387	-0.768580	-0.358325
C94	C	1.410387	-0.268580	0.141675
C95	C	0.905456	-0.735900	-0.301857
C96	C	1.405456	-0.235900	0.198143
C97	C	0.945597	-0.970367	-0.342007
C98	C	1.445597	-0.470367	0.157993
C99	C	0.945614	-1.035803	-0.342024
C100	C	1.445614	-0.535803	0.157976
C101	C	0.865512	-1.035936	-0.261807
C102	C	1.365512	-0.535936	0.238193
C103	C	0.865491	-0.970500	-0.261796
C104	C	1.365491	-0.470500	0.238204
C105	C	0.905537	-0.937720	-0.301895
C106	C	1.405537	-0.437720	0.198105
C107	C	1.068863	-0.301621	-0.301874
C108	C	1.568863	0.198379	0.198126
C109	C	1.138504	-0.301608	-0.301882
C110	C	1.638504	0.198392	0.198118
C111	C	0.905491	-0.301638	-0.465280
C112	C	1.405491	0.198362	0.034720
C113	C	0.905514	-0.301633	-0.534921
C114	C	1.405514	0.198367	-0.034921
C115	C	0.905537	-0.138227	-0.301902
C116	C	1.405537	0.361773	0.198098
C117	C	0.905578	-0.068586	-0.301922
C118	C	1.405578	0.431414	0.198078
C119	C	0.945609	-0.261550	-0.567651
C120	C	1.445609	0.238450	-0.067651
C121	C	0.945608	-0.261523	-0.633086
C122	C	1.445608	0.238477	-0.133086
C123	C	0.905519	-0.301590	-0.665789
C124	C	1.405519	0.198410	-0.165789
C125	C	0.865415	-0.341675	-0.633052
C126	C	1.365415	0.158325	-0.133052
C127	C	0.865413	-0.341697	-0.567617
C128	C	1.365413	0.158303	-0.067617
C129	C	0.900543	-0.358007	-0.769453
C130	C	1.400543	0.141993	-0.269453
C131	C	0.900550	-0.357986	-0.834886
C132	C	1.400550	0.142014	-0.334886
C133	C	0.905522	-0.301524	-0.867610
C134	C	1.405522	0.198476	-0.367610
C135	C	0.910501	-0.245080	-0.834893
C136	C	1.410501	0.254920	-0.334893
C137	C	0.910498	-0.245101	-0.769459
C138	C	1.410498	0.254899	-0.269459
C139	C	0.905516	-0.301571	-0.736742
C140	C	1.405516	0.198429	-0.236742
C141	C	0.945619	-0.261409	-0.971293
C142	C	1.445619	0.238591	-0.471293
C143	C	0.945614	-0.261381	-1.036729
C144	C	1.445614	0.238619	-0.536729
C145	C	0.865424	-0.341538	-1.036693
C146	C	1.365424	0.158462	-0.536693
C147	C	0.865426	-0.341561	-0.971258
C148	C	1.365426	0.158439	-0.471258
C149	C	0.905527	-0.301497	-0.938561
C150	C	1.405527	0.198503	-0.438561
C151	C	0.905424	-0.301618	-0.139069
C152	C	1.405424	0.198382	0.360931
C153	C	0.905523	-0.301447	-0.069428
C154	C	1.405523	0.198553	0.430572
H155	H	0.263185	-0.374223	-0.229041
H156	H	0.763185	0.125777	0.270959
C157	C	0.821260	-0.530949	-0.217612
C158	C	1.321260	-0.030949	0.282388
N159	N	0.788060	-0.503899	-0.184381
N160	N	1.288060	-0.003899	0.315619
C161	C	0.676159	-0.385732	-0.217534
C162	C	1.176159	0.114268	0.282466
N163	N	0.703215	-0.418890	-0.184271
N164	N	1.203215	0.081110	0.315729
C165	C	0.895189	-0.870106	-0.183321
C166	C	1.395189	-0.370106	0.316679
N167	N	0.891123	-0.897238	-0.136546
N168	N	1.391123	-0.397238	0.363454
H169	H	0.896500	-0.403946	-0.861519
H170	H	1.396500	0.096054	-0.361519
H171	H	0.465216	-0.199267	-0.311019
H172	H	0.965216	0.300733	0.188981
H173	H	0.144692	-0.229017	-0.374712
H174	H	0.644692	0.270983	0.125288
H175	H	0.978051	-0.540037	-0.374591
H176	H	1.478051	-0.040037	0.125409
C177	C	0.895154	-0.732701	-0.183296
C178	C	1.395154	-0.232701	0.316704
N179	N	0.891089	-0.705626	-0.136511
N180	N	1.391089	-0.205626	0.363489
H181	H	0.914421	-0.860625	-0.404310
H182	H	1.414421	-0.360625	0.095690
C183	C	0.676402	-0.217686	-0.386150
C184	C	1.176402	0.282314	0.113850
N185	N	0.703553	-0.184533	-0.419406
N186	N	1.203553	0.315467	0.080594
H187	H	0.978087	-0.658746	-0.374620
H188	H	1.478087	-0.158746	0.125380
C189	C	0.915778	-0.732552	-0.420423
C190	C	1.415778	-0.232552	0.079577
N191	N	0.919835	-0.705416	-0.467196
N192	N	1.419835	-0.205416	0.032804
H193	H	0.978264	-0.228737	-1.063377
H194	H	1.478264	0.271263	-0.563377
H195	H	0.978202	-0.943676	-0.374661
H196	H	1.478202	-0.443676	0.125339
C197	C	0.989692	-1.071714	-0.386143
C198	C	1.489692	-0.571714	0.113857
N199	N	1.022895	-1.098762	-0.419373
N200	N	1.522895	-0.598762	0.080627
C201	C	0.895086	-0.420125	-0.733463
C202	C	1.395086	0.079875	-0.233463
N203	N	0.890979	-0.466912	-0.706356
N204	N	1.390979	0.033088	-0.206356
C205	C	0.821325	-0.385613	-1.072663
C206	C	1.321325	0.114387	-0.572663
N207	N	0.788108	-0.418811	-1.099759
N208	N	1.288108	0.081189	-0.599759
H209	H	0.263399	-0.229044	-0.374710
H210	H	0.763399	0.270956	0.125290
H211	H	0.832911	-1.062630	-0.229159
H212	H	1.332911	-0.562630	0.270841
C213	C	0.821414	-0.934589	-0.217679
C214	C	1.321414	-0.434589	0.282321
N215	N	0.788209	-0.907540	-0.184451
N216	N	1.288209	-0.407540	0.315549
C217	C	0.989713	-0.217470	-0.531688
C218	C	1.489713	0.282530	-0.031688
N219	N	1.022930	-0.184266	-0.504601
N220	N	1.522930	0.315734	-0.004601
H221	H	0.832764	-0.658994	-0.229091
H222	H	1.332764	-0.158994	0.270909
C223	C	0.336938	-0.420187	-0.291270
C224	C	0.836938	0.079813	0.208730
N225	N	0.309788	-0.466951	-0.287079
N226	N	0.809788	0.033049	0.212921
H227	H	0.978258	-0.228880	-0.659740
H228	H	1.478258	0.271120	-0.159740
H229	H	0.144475	-0.374200	-0.229051
H230	H	0.644475	0.125800	0.270949
H231	H	0.548329	-0.229097	-0.374686
H232	H	1.048329	0.270903	0.125314
C233	C	0.337172	-0.183112	-0.312460
C234	C	0.837172	0.316888	0.187540
N235	N	0.310110	-0.136340	-0.316633
N236	N	0.810110	0.363660	0.183367
C237	C	0.915969	-0.182966	-0.870885
C238	C	1.415969	0.317034	-0.370885
N239	N	0.920088	-0.136183	-0.897997
N240	N	1.420088	0.363817	-0.397997
C241	C	0.474343	-0.420215	-0.291273
C242	C	0.974343	0.079785	0.208727
N243	N	0.501400	-0.466989	-0.287098
N244	N	1.001400	0.033011	0.212902
H245	H	0.914550	-0.199143	-0.742824
H246	H	1.414550	0.300857	-0.242824
H247	H	0.832759	-0.374336	-0.540969
H248	H	1.332759	0.125664	-0.040969
H249	H	0.978268	-0.228783	-0.944670
H250	H	1.478268	0.271217	-0.444670
C251	C	0.821313	-0.385746	-0.669026
C252	C	1.321313	0.114254	-0.169026
N253	N	0.788092	-0.418939	-0.696122
N254	N	1.288092	0.081061	-0.196122
C255	C	0.538746	-0.385707	-0.217552
C256	C	1.038746	0.114293	0.282448
N257	N	0.511587	-0.418853	-0.184295
N258	N	1.011587	0.081147	0.315705
C259	C	0.821320	-0.385658	-0.935254
C260	C	1.321320	0.114342	-0.435254
N261	N	0.788095	-0.418872	-0.908136
N262	N	1.288095	0.081128	-0.408136
