data_functionalizedCrystal
_audit_creation_method	'MofGen! by Chris Wilmer'
_symmetry_space_group_name_H-M	'P1'
_symmetry_Int_Tables_number	1
_symmetry_cell_setting	triclinic
loop_
_symmetry_equiv_pos_as_xyz
  x,y,z
_cell_length_a	17.077404
_cell_length_b	12.759400
_cell_length_c	17.077396
_cell_angle_alpha	89.975532
_cell_angle_beta	89.978556
_cell_angle_gamma	90.011413
loop_
_atom_site_label
_atom_site_type_symbol
_atom_site_fract_x
_atom_site_fract_y
_atom_site_fract_z
Zn1	Zn	1.200108	-0.418315	-0.443905
Zn2	Zn	1.700108	0.081685	0.056095
Zn3	Zn	1.200037	-0.594016	-0.312648
Zn4	Zn	1.700037	-0.094016	0.187352
Zn5	Zn	1.068839	-0.418346	-0.312649
Zn6	Zn	1.568839	0.081654	0.187351
Zn7	Zn	1.068830	-0.593947	-0.443868
Zn8	Zn	1.568830	-0.093947	0.056132
O9	O	1.134453	-0.506156	-0.378268
O10	O	1.634453	-0.006156	0.121732
O11	O	1.309945	-0.441638	-0.426509
O12	O	1.809945	0.058362	0.073491
O13	O	1.182608	-0.570754	-0.202802
O14	O	1.682608	-0.070754	0.297198
O15	O	1.086286	-0.271321	-0.330076
O16	O	1.586286	0.228679	0.169924
O17	O	1.309893	-0.570725	-0.330076
O18	O	1.809893	-0.070725	0.169924
O19	O	1.182728	-0.271298	-0.426510
O20	O	1.682728	0.228702	0.073490
O21	O	1.086218	-0.441691	-0.202802
O22	O	1.586218	0.058309	0.297198
O23	O	0.958991	-0.441624	-0.330040
O24	O	1.458991	0.058376	0.169960
O25	O	1.086269	-0.570608	-0.553720
O26	O	1.586269	-0.070608	-0.053720
O27	O	0.958984	-0.570638	-0.426446
O28	O	1.458984	-0.070638	0.073554
O29	O	1.182719	-0.441572	-0.553747
O30	O	1.682719	0.058428	-0.053747
O31	O	1.182598	-0.741028	-0.330039
O32	O	1.682598	-0.241028	0.169961
O33	O	1.086201	-0.740978	-0.426445
O34	O	1.586201	-0.240978	0.073555
C35	C	0.930506	-0.506128	-0.378239
C36	C	1.430506	-0.006128	0.121761
C37	C	0.843256	-0.506141	-0.378245
C38	C	1.343256	-0.006141	0.121755
C39	C	0.467466	-0.439091	-0.428589
C40	C	0.967466	0.060909	0.071411
C41	C	0.549446	-0.439083	-0.428581
C42	C	1.049446	0.060917	0.071419
C43	C	0.590407	-0.506178	-0.378287
C44	C	1.090407	-0.006178	0.121713
C45	C	0.549383	-0.573293	-0.328005
C46	C	1.049383	-0.073293	0.171995
C47	C	0.467404	-0.573305	-0.328018
C48	C	0.967404	-0.073305	0.171982
C49	C	0.720253	-0.573261	-0.327979
C50	C	1.220253	-0.073261	0.172021
C51	C	0.802238	-0.573248	-0.327965
C52	C	1.302238	-0.073248	0.172035
C53	C	0.802295	-0.439039	-0.428542
C54	C	1.302295	0.060961	0.071458
C55	C	0.720316	-0.439051	-0.428556
C56	C	1.220316	0.060949	0.071444
C57	C	0.679298	-0.506165	-0.378272
C58	C	1.179298	-0.006165	0.121728
C59	C	1.134412	-0.779124	-0.378255
C60	C	1.634412	-0.279124	0.121745
C61	C	1.134467	-0.895900	-0.378276
C62	C	1.634467	-0.395900	0.121724
C63	C	1.184659	-0.950671	-0.428530
C64	C	1.684659	-0.450671	0.071470
C65	C	1.184695	-1.060395	-0.428549
C66	C	1.684695	-0.560395	0.071451
C67	C	1.084345	-1.060568	-0.328054
C68	C	1.584345	-0.560568	0.171946
C69	C	1.084305	-0.950846	-0.328039
C70	C	1.584305	-0.450846	0.171961
C71	C	1.242598	-0.950572	-0.486548
C72	C	1.742598	-0.450572	0.013452
C73	C	1.242634	-1.060296	-0.486567
C74	C	1.742634	-0.560296	0.013433
C75	C	1.339198	-0.506186	-0.378297
C76	C	1.839198	-0.006186	0.121703
C77	C	1.426448	-0.506198	-0.378309
C78	C	1.926448	-0.006198	0.121691
C79	C	1.134501	-0.506079	-0.583012
C80	C	1.634501	-0.006079	-0.083012
C81	C	1.134521	-0.506046	-0.670262
C82	C	1.634521	-0.006046	-0.170262
C83	C	1.134516	-0.232123	-0.378297
C84	C	1.634516	0.267877	0.121703
C85	C	1.134543	-0.115346	-0.378310
C86	C	1.634543	0.384654	0.121690
C87	C	1.184744	-0.438851	-0.711268
C88	C	1.684744	0.061149	-0.211268
C89	C	1.184754	-0.438816	-0.793248
C90	C	1.684754	0.061184	-0.293248
C91	C	1.134543	-0.505982	-0.834221
C92	C	1.634543	-0.005982	-0.334221
C93	C	1.084315	-0.573180	-0.793210
C94	C	1.584315	-0.073180	-0.293210
C95	C	1.084302	-0.573209	-0.711231
C96	C	1.584302	-0.073209	-0.211231
C97	C	1.084347	-0.573117	-0.964080
C98	C	1.584347	-0.073117	-0.464080
C99	C	1.084360	-0.573089	-1.046065
C100	C	1.584360	-0.073089	-0.546065
C101	C	1.184798	-0.438724	-1.046097
C102	C	1.684798	0.061276	-0.546097
C103	C	1.184785	-0.438753	-0.964118
C104	C	1.684785	0.061247	-0.464118
C105	C	1.134558	-0.505952	-0.923112
C106	C	1.634558	-0.005952	-0.423112
C107	C	1.134451	-0.506158	-0.174320
C108	C	1.634451	-0.006158	0.325680
C109	C	1.134583	-0.505895	-0.087070
C110	C	1.634583	-0.005895	0.412930
H111	H	0.686859	-0.627917	-0.287036
H112	H	1.186859	-0.127917	0.212964
N113	N	1.319095	-0.905446	-0.457772
N114	N	1.819095	-0.405446	0.042228
H115	H	1.343237	-0.860827	-0.500268
H116	H	1.843237	-0.360827	-0.000268
H117	H	1.309159	-0.860983	-0.409875
H118	H	1.809159	-0.360983	0.090125
N119	N	0.593698	-0.366687	-0.482791
N120	N	1.093698	0.133313	0.017209
H121	H	0.627732	-0.409430	-0.519111
H122	H	1.127732	0.090570	-0.019111
H123	H	0.555270	-0.324182	-0.514598
H124	H	1.055270	0.175818	-0.014598
N125	N	1.238907	-0.366322	-0.837477
N126	N	1.738907	0.133678	-0.337477
H127	H	1.270711	-0.323776	-0.799081
H128	H	1.770711	0.176224	-0.299081
H129	H	1.275232	-0.409063	-0.871503
H130	H	1.775232	0.090937	-0.371503
N131	N	1.030151	-0.645600	-0.837411
N132	N	1.530151	-0.145600	-0.337411
H133	H	1.062039	-0.694282	-0.871429
H134	H	1.562039	-0.194282	-0.371429
H135	H	0.998333	-0.688102	-0.798951
H136	H	1.498333	-0.188102	-0.298951
H137	H	0.686968	-0.384412	-0.469506
H138	H	1.186968	0.115588	0.030494
H139	H	0.582740	-0.627927	-0.287058
H140	H	1.082740	-0.127927	0.212942
N141	N	0.846530	-0.366640	-0.482771
N142	N	1.346530	0.133360	0.017229
H143	H	0.904678	-0.376812	-0.475133
H144	H	1.404678	0.123188	0.024867
H145	H	0.832230	-0.383079	-0.538816
H146	H	1.332230	0.116921	-0.038816
N147	N	0.846417	-0.645617	-0.273722
N148	N	1.346417	-0.145617	0.226278
H149	H	0.880449	-0.694346	-0.305558
H150	H	1.380449	-0.194346	0.194442
H151	H	0.880365	-0.602774	-0.237405
H152	H	1.380365	-0.102774	0.262595
H153	H	0.434008	-0.627953	-0.287076
H154	H	0.934008	-0.127953	0.212924
H155	H	1.043505	-1.105318	-0.287153
H156	H	1.543505	-0.605318	0.212847
N157	N	1.238909	-0.366414	-0.667082
N158	N	1.738909	0.133586	-0.167082
H159	H	1.275272	-0.409136	-0.633079
H160	H	1.775272	0.090864	-0.133079
H161	H	1.270672	-0.323862	-0.705556
H162	H	1.770672	0.176138	-0.205556
H163	H	0.434121	-0.384447	-0.469540
H164	H	0.934121	0.115553	0.030460
N165	N	1.030164	-0.891770	-0.273843
N166	N	1.530164	-0.391770	0.226157
H167	H	0.998397	-0.943229	-0.242020
H168	H	1.498397	-0.443229	0.257980
H169	H	1.062119	-0.846247	-0.237538
H170	H	1.562119	-0.346247	0.262462
N171	N	1.213757	-1.105349	-0.563039
N172	N	1.713757	-0.605349	-0.063039
H173	H	1.199781	-1.046416	-0.599977
H174	H	1.699781	-0.546416	-0.099977
H175	H	1.256262	-1.149873	-0.587201
H176	H	1.756262	-0.649873	-0.087201
N177	N	1.238976	-0.366246	-1.090319
N178	N	1.738976	0.133754	-0.590319
H179	H	1.231365	-0.376414	-1.148469
H180	H	1.731365	0.123586	-0.648469
H181	H	1.226779	-0.291214	-1.075994
H182	H	1.726779	0.208786	-0.575994
N183	N	1.030125	-0.645680	-0.667007
N184	N	1.530125	-0.145680	-0.167007
H185	H	1.042297	-0.720745	-0.681265
H186	H	1.542297	-0.220745	-0.181265
H187	H	1.037754	-0.635418	-0.608870
H188	H	1.537754	-0.135418	-0.108870
H189	H	1.226272	-0.920761	-0.547325
H190	H	1.726272	-0.420761	-0.047325
H191	H	1.225675	-0.384067	-0.930760
H192	H	1.725675	0.115933	-0.430760
N193	N	1.030207	-0.645530	-1.090260
N194	N	1.530207	-0.145530	-0.590260
H195	H	0.998382	-0.688100	-1.051845
H196	H	1.498382	-0.188100	-0.551845
H197	H	0.993902	-0.602741	-1.124274
H198	H	1.493902	-0.102741	-0.624274
N199	N	1.030180	-0.645599	-0.919846
N200	N	1.530180	-0.145599	-0.419846
H201	H	0.993806	-0.602911	-0.885830
H202	H	1.493806	-0.102911	-0.385830
H203	H	0.998427	-0.688135	-0.958288
H204	H	1.498427	-0.188135	-0.458288
H205	H	1.303451	-1.090033	-0.470349
H206	H	1.803451	-0.590033	0.029651
