data_functionalizedCrystal
_audit_creation_method	'MofGen! by Chris Wilmer'
_symmetry_space_group_name_H-M	'P1'
_symmetry_Int_Tables_number	1
_symmetry_cell_setting	triclinic
loop_
_symmetry_equiv_pos_as_xyz
  x,y,z
_cell_length_a	17.077402
_cell_length_b	17.077404
_cell_length_c	17.077396
_cell_angle_alpha	90.021444
_cell_angle_beta	90.029784
_cell_angle_gamma	90.021130
loop_
_atom_site_label
_atom_site_type_symbol
_atom_site_fract_x
_atom_site_fract_y
_atom_site_fract_z
Zn1	Zn	-0.312545	1.200055	0.443876
Zn2	Zn	0.020788	1.533388	0.777210
Zn3	Zn	0.354122	1.866721	1.110543
Zn4	Zn	-0.443820	1.199962	0.312607
Zn5	Zn	-0.110486	1.533295	0.645941
Zn6	Zn	0.222847	1.866628	0.979274
Zn7	Zn	-0.312568	1.068786	0.312620
Zn8	Zn	0.020765	1.402120	0.645953
Zn9	Zn	0.354099	1.735453	0.979286
Zn10	Zn	-0.443769	1.068754	0.443826
Zn11	Zn	-0.110435	1.402088	0.777160
Zn12	Zn	0.222898	1.735421	1.110493
O13	O	-0.378175	1.134389	0.378232
O14	O	-0.044842	1.467723	0.711566
O15	O	0.288491	1.801056	1.044899
O16	O	-0.329970	1.309889	0.426479
O17	O	0.003363	1.643223	0.759812
O18	O	0.336696	1.976556	1.093145
O19	O	-0.426440	1.182536	0.202762
O20	O	-0.093107	1.515869	0.536095
O21	O	0.240227	1.849202	0.869429
O22	O	-0.202718	1.086252	0.330057
O23	O	0.130615	1.419585	0.663391
O24	O	0.463949	1.752918	0.996724
O25	O	-0.426418	1.309821	0.330036
O26	O	-0.093084	1.643154	0.663369
O27	O	0.240249	1.976488	0.996703
O28	O	-0.202701	1.182694	0.426491
O29	O	0.130632	1.516027	0.759824
O30	O	0.463966	1.849361	1.093158
O31	O	-0.330010	1.086162	0.202771
O32	O	0.003324	1.419495	0.536104
O33	O	0.336657	1.752828	0.869438
O34	O	-0.329960	0.958935	0.330009
O35	O	0.003373	1.292269	0.663342
O36	O	0.336707	1.625602	0.996676
O37	O	-0.426330	1.086197	0.553680
O38	O	-0.092997	1.419531	0.887013
O39	O	0.240336	1.752864	1.220347
O40	O	-0.426353	0.958912	0.426406
O41	O	-0.093019	1.292245	0.759739
O42	O	0.240314	1.625578	1.093073
O43	O	-0.329921	1.182663	0.553717
O44	O	0.003412	1.515996	0.887050
O45	O	0.336746	1.849330	1.220383
O46	O	-0.553660	1.182505	0.329988
O47	O	-0.220327	1.515838	0.663321
O48	O	0.113007	1.849171	0.996654
O49	O	-0.553622	1.086107	0.426394
O50	O	-0.220289	1.419440	0.759727
O51	O	0.113044	1.752774	1.093061
C52	C	-0.378154	0.930441	0.378204
C53	C	-0.044821	1.263775	0.711537
C54	C	0.288513	1.597108	1.044871
C55	C	-0.378164	0.843192	0.378210
C56	C	-0.044830	1.176525	0.711544
C57	C	0.288503	1.509858	1.044877
C58	C	-0.582123	1.134314	0.378201
C59	C	-0.248790	1.467647	0.711534
C60	C	0.084544	1.800980	1.044868
C61	C	-0.669373	1.134353	0.378214
C62	C	-0.336040	1.467686	0.711547
C63	C	-0.002706	1.801020	1.044881
C64	C	-0.328067	0.467410	0.428559
C65	C	0.005266	0.800743	0.761892
C66	C	0.338600	1.134077	1.095226
C67	C	-0.328061	0.549390	0.428550
C68	C	0.005272	0.882724	0.761884
C69	C	0.338605	1.216057	1.095217
C70	C	-0.378192	0.590343	0.378252
C71	C	-0.044858	0.923676	0.711586
C72	C	0.288475	1.257009	1.044919
C73	C	-0.428337	0.549310	0.327965
C74	C	-0.095003	0.882644	0.661298
C75	C	0.238330	1.215977	0.994632
C76	C	-0.428346	0.467332	0.327978
C77	C	-0.095012	0.800665	0.661312
C78	C	0.238321	1.133998	0.994645
C79	C	-0.428313	0.720181	0.327940
C80	C	-0.094980	1.053514	0.661273
C81	C	0.238354	1.386847	0.994606
C82	C	-0.428303	0.802165	0.327925
C83	C	-0.094970	1.135498	0.661259
C84	C	0.238364	1.468832	0.994592
C85	C	-0.328029	0.802239	0.428512
C86	C	0.005305	1.135573	0.761845
C87	C	0.338638	1.468906	1.095179
C88	C	-0.328038	0.720260	0.428525
C89	C	0.005296	1.053594	0.761858
C90	C	0.338629	1.386927	1.095192
C91	C	-0.378182	0.679234	0.378237
C92	C	-0.044849	1.012567	0.711570
C93	C	0.288485	1.345900	1.044903
C94	C	-0.710357	1.184598	0.328069
C95	C	-0.377023	1.517932	0.661403
C96	C	-0.043690	1.851265	0.994736
C97	C	-0.792337	1.184637	0.328089
C98	C	-0.459004	1.517970	0.661423
C99	C	-0.125670	1.851303	0.994756
C100	C	-0.833332	1.134425	0.378251
C101	C	-0.499999	1.467759	0.711584
C102	C	-0.166666	1.801092	1.044917
C103	C	-0.792343	1.084178	0.428401
C104	C	-0.459010	1.417511	0.761734
C105	C	-0.125676	1.750844	1.095068
C106	C	-0.710364	1.084144	0.428384
C107	C	-0.377031	1.417477	0.761718
C108	C	-0.043697	1.750810	1.095051
C109	C	-0.963213	1.084250	0.428431
C110	C	-0.629880	1.417584	0.761764
C111	C	-0.296546	1.750917	1.095097
C112	C	-1.045197	1.084283	0.428447
C113	C	-0.711864	1.417616	0.761780
C114	C	-0.378531	1.750950	1.095113
C115	C	-1.045186	1.184743	0.328136
C116	C	-0.711853	1.518077	0.661469
C117	C	-0.378519	1.851410	0.994802
C118	C	-0.963207	1.184709	0.328119
C119	C	-0.629874	1.518043	0.661452
C120	C	-0.296540	1.851376	0.994786
C121	C	-0.922223	1.134461	0.378269
C122	C	-0.588890	1.467794	0.711602
C123	C	-0.255557	1.801127	1.044935
C124	C	-0.173431	1.134487	0.378281
C125	C	0.159902	1.467820	0.711614
C126	C	0.493236	1.801153	1.044948
C127	C	-0.086181	1.134528	0.378302
C128	C	0.247152	1.467862	0.711635
C129	C	0.580486	1.801195	1.044968
C130	C	-0.378117	1.134437	0.582977
C131	C	-0.044784	1.467770	0.916310
C132	C	0.288549	1.801103	1.249643
C133	C	-0.378093	1.134457	0.670227
C134	C	-0.044759	1.467790	1.003560
C135	C	0.288574	1.801124	1.336893
C136	C	-0.378197	1.339134	0.378262
C137	C	-0.044864	1.672467	0.711595
C138	C	0.288470	2.005800	1.044928
C139	C	-0.378206	1.426383	0.378274
C140	C	-0.044873	1.759717	0.711607
C141	C	0.288460	2.093050	1.044941
C142	C	-0.378176	1.134387	0.174285
C143	C	-0.044843	1.467721	0.507618
C144	C	0.288490	1.801054	0.840951
C145	C	-0.377980	1.134519	0.087035
C146	C	-0.044646	1.467852	0.420369
C147	C	0.288687	1.801186	0.753702
C148	C	-0.327888	1.184689	0.711237
C149	C	0.005445	1.518022	1.044570
C150	C	0.338779	1.851355	1.377904
C151	C	-0.327862	1.184698	0.793218
C152	C	0.005471	1.518031	1.126551
C153	C	0.338805	1.851365	1.459884
C154	C	-0.378045	1.134479	0.834186
C155	C	-0.044712	1.467813	1.167520
C156	C	0.288622	1.801146	1.500853
C157	C	-0.428252	1.084242	0.793170
C158	C	-0.094919	1.417576	1.126503
C159	C	0.238415	1.750909	1.459837
C160	C	-0.428273	1.084229	0.711191
C161	C	-0.094940	1.417563	1.044524
C162	C	0.238393	1.750896	1.377858
C163	C	-0.428205	1.084274	0.964040
C164	C	-0.094871	1.417607	1.297373
C165	C	0.238462	1.750941	1.630707
C166	C	-0.428184	1.084288	1.046025
C167	C	-0.094851	1.417621	1.379358
C168	C	0.238482	1.750954	1.712691
C169	C	-0.327793	1.184742	1.046067
C170	C	0.005540	1.518076	1.379400
C171	C	0.338873	1.851409	1.712733
C172	C	-0.327815	1.184730	0.964088
C173	C	0.005519	1.518063	1.297421
C174	C	0.338852	1.851396	1.630754
C175	C	-0.378023	1.134493	0.923077
C176	C	-0.044690	1.467827	1.256411
C177	C	0.288644	1.801160	1.589744
H178	H	-0.287240	0.434072	0.469513
H179	H	0.046093	0.767406	0.802846
H180	H	0.379426	1.100739	1.136180
Cl181	Cl	-0.265030	0.600963	0.491773
Cl182	Cl	0.068303	0.934296	0.825106
Cl183	Cl	0.401637	1.267630	1.158439
Cl184	Cl	-0.491264	1.021146	1.097527
Cl185	Cl	-0.157930	1.354479	1.430861
Cl186	Cl	0.175403	1.687813	1.764194
Cl187	Cl	-0.491362	0.668605	0.264728
Cl188	Cl	-0.158028	1.001939	0.598062
Cl189	Cl	0.175305	1.335272	0.931395
Cl190	Cl	-0.491387	0.415755	0.264767
Cl191	Cl	-0.158054	0.749088	0.598100
Cl192	Cl	0.175279	1.082422	0.931433
H193	H	-0.286982	1.225603	0.826605
H194	H	0.046351	1.558937	1.159938
H195	H	0.379684	1.892270	1.493271
H196	H	-0.469147	1.043318	0.677801
H197	H	-0.135814	1.376651	1.011135
H198	H	0.197519	1.709985	1.344468
H199	H	-0.469077	1.043354	0.930652
H200	H	-0.135744	1.376687	1.263985
H201	H	0.197590	1.710021	1.597318
Cl202	Cl	-0.264986	0.853815	0.491727
Cl203	Cl	0.068347	1.187148	0.825060
Cl204	Cl	0.401681	1.520482	1.158394
H205	H	-0.825702	1.225551	0.287256
H206	H	-0.492369	1.558884	0.620589
H207	H	-0.159036	1.892218	0.953922
H208	H	-0.287214	0.686919	0.469479
H209	H	0.046119	1.020252	0.802812
H210	H	0.379453	1.353586	1.136146
H211	H	-0.469126	0.835506	0.286970
H212	H	-0.135793	1.168840	0.620304
H213	H	0.197541	1.502173	0.953637
Cl214	Cl	-0.491362	0.600794	0.264736
Cl215	Cl	-0.158028	0.934127	0.598069
Cl216	Cl	0.175305	1.267460	0.931403
H217	H	-0.469109	1.043350	0.826533
H218	H	-0.135776	1.376684	1.159866
H219	H	0.197558	1.710017	1.493200
Cl220	Cl	-0.264675	1.247897	1.097622
Cl221	Cl	0.068658	1.581231	1.430956
Cl222	Cl	0.401991	1.914564	1.764289
H223	H	-0.676984	1.225483	0.287219
H224	H	-0.343650	1.558816	0.620552
H225	H	-0.010317	1.892150	0.953885
H226	H	-0.929829	1.225591	0.287270
H227	H	-0.596495	1.558925	0.620603
H228	H	-0.263162	1.892258	0.953937
H229	H	-1.078559	1.225660	0.287305
H230	H	-0.745225	1.558994	0.620638
H231	H	-0.411892	1.892327	0.953971
H232	H	-0.676996	1.043230	0.469218
H233	H	-0.343662	1.376563	0.802552
H234	H	-0.010329	1.709897	1.135885
Cl235	Cl	-0.264731	1.247867	0.912585
Cl236	Cl	0.068602	1.581201	1.245919
Cl237	Cl	0.401935	1.914534	1.579252
H238	H	-0.287026	1.225585	0.677886
H239	H	0.046308	1.558918	1.011220
H240	H	0.379641	1.892252	1.344553
Cl241	Cl	-1.096734	1.021150	0.491499
Cl242	Cl	-0.763400	1.354483	0.824832
Cl243	Cl	-0.430067	1.687817	1.158166
Cl244	Cl	-0.911692	1.021081	0.491478
Cl245	Cl	-0.578358	1.354414	0.824812
Cl246	Cl	-0.245025	1.687747	1.158145
Cl247	Cl	-0.843880	1.021058	0.491466
Cl248	Cl	-0.510547	1.354392	0.824799
Cl249	Cl	-0.177213	1.687725	1.158133
