data_functionalizedCrystal
_audit_creation_method	'MofGen! by Chris Wilmer'
_symmetry_space_group_name_H-M	'P1'
_symmetry_Int_Tables_number	1
_symmetry_cell_setting	triclinic
loop_
_symmetry_equiv_pos_as_xyz
  x,y,z
_cell_length_a	12.759401
_cell_length_b	12.759400
_cell_length_c	12.759393
_cell_angle_alpha	90.029805
_cell_angle_beta	90.020938
_cell_angle_gamma	90.016169
loop_
_atom_site_label
_atom_site_type_symbol
_atom_site_fract_x
_atom_site_fract_y
_atom_site_fract_z
Zn1	Zn	1.606267	-0.418173	0.594025
Zn2	Zn	2.106267	0.081827	1.094025
Zn3	Zn	1.606158	-0.593888	0.418347
Zn4	Zn	2.106158	-0.093888	0.918347
Zn5	Zn	1.430565	-0.418229	0.418360
Zn6	Zn	1.930565	0.081771	0.918360
Zn7	Zn	1.430558	-0.593815	0.593985
Zn8	Zn	1.930558	-0.093815	1.093985
O9	O	1.518387	-0.506026	0.506179
O10	O	2.018387	-0.006026	1.006179
O11	O	1.753273	-0.441489	0.570733
O12	O	2.253273	0.058511	1.070733
O13	O	1.582823	-0.570641	0.271328
O14	O	2.082823	-0.070641	0.771328
O15	O	1.453921	-0.271200	0.441685
O16	O	1.953921	0.228800	0.941685
O17	O	1.753193	-0.570587	0.441663
O18	O	2.253193	-0.070587	0.941663
O19	O	1.583008	-0.271159	0.570745
O20	O	2.083008	0.228841	1.070745
O21	O	1.453816	-0.441584	0.271337
O22	O	1.953816	0.058416	0.771337
O23	O	1.283543	-0.441513	0.441646
O24	O	1.783543	0.058487	0.941646
O25	O	1.453908	-0.570461	0.741011
O26	O	1.953908	-0.070461	1.241011
O27	O	1.283538	-0.570516	0.570676
O28	O	1.783538	-0.070516	1.070676
O29	O	1.583001	-0.441418	0.741041
O30	O	2.083001	0.058582	1.241041
O31	O	1.582815	-0.740900	0.441624
O32	O	2.082815	-0.240900	0.941624
O33	O	1.453803	-0.740846	0.570664
O34	O	1.953803	-0.240846	1.070664
C35	C	1.245420	-0.506013	0.506159
C36	C	1.745420	-0.006013	1.006159
C37	C	1.128643	-0.506033	0.506175
C38	C	1.628643	-0.006033	1.006175
C39	C	1.518325	-0.778994	0.506161
C40	C	2.018325	-0.278994	1.006161
C41	C	1.518394	-0.895770	0.506188
C42	C	2.018394	-0.395770	1.006188
C43	C	1.073805	-0.573307	0.573255
C44	C	1.573805	-0.073307	1.073255
C45	C	0.964081	-0.573311	0.573276
C46	C	1.464081	-0.073311	1.073276
C47	C	0.964042	-0.438764	0.439127
C48	C	1.464042	0.061236	0.939127
C49	C	1.073764	-0.438756	0.439112
C50	C	1.573764	0.061244	0.939112
C51	C	1.585581	-0.950521	0.573447
C52	C	2.085581	-0.450521	1.073447
C53	C	1.585640	-1.060245	0.573475
C54	C	2.085640	-0.560245	1.073475
C55	C	1.451323	-1.060458	0.438977
C56	C	1.951323	-0.560458	0.938977
C57	C	1.451260	-0.950736	0.438955
C58	C	1.951260	-0.450736	0.938955
C59	C	1.792420	-0.506040	0.506201
C60	C	2.292420	-0.006040	1.006201
C61	C	1.909197	-0.506046	0.506210
C62	C	2.409197	-0.006046	1.006210
C63	C	1.518466	-0.505925	0.780213
C64	C	2.018466	-0.005925	1.280213
C65	C	1.518499	-0.505882	0.896990
C66	C	2.018499	-0.005882	1.396990
C67	C	1.518478	-0.231993	0.506221
C68	C	2.018478	0.268007	1.006221
C69	C	1.518517	-0.115216	0.506239
C70	C	2.018517	0.384784	1.006239
C71	C	1.518369	-0.506051	0.233212
C72	C	2.018369	-0.006051	0.733212
C73	C	1.518539	-0.505798	0.116436
C74	C	2.018539	-0.005798	0.616436
C75	C	1.585723	-0.438679	0.951869
C76	C	2.085723	0.061321	1.451869
C77	C	1.585740	-0.438633	1.061593
C78	C	2.085740	0.061367	1.561593
C79	C	1.451308	-0.573004	1.061549
C80	C	1.951308	-0.073004	1.561549
C81	C	1.451286	-0.573044	0.951827
C82	C	1.951286	-0.073044	1.451827
H83	H	1.118485	-0.628086	0.627864
H84	H	1.618485	-0.128086	1.127864
H85	H	1.396537	-0.627768	0.907143
H86	H	1.896537	-0.127768	1.407143
H87	H	0.919438	-0.628090	0.627901
H88	H	1.419438	-0.128090	1.127901
O89	O	0.904831	-0.366227	0.366790
O90	O	1.404831	0.133773	0.866790
H91	H	0.925893	-0.283783	0.384945
H92	H	1.425893	0.216217	0.884945
H93	H	1.640347	-1.104818	0.628246
H94	H	2.140347	-0.604818	1.128246
H95	H	1.118414	-0.383967	0.384487
H96	H	1.618414	0.116033	0.884487
O97	O	1.378933	-1.119756	0.366456
O98	O	1.878933	-0.619756	0.866456
H99	H	1.296451	-1.098770	0.384400
H100	H	1.796451	-0.598770	0.884400
O101	O	1.657987	-0.891231	0.645957
O102	O	2.157987	-0.391231	1.145957
H103	H	1.704712	-0.947741	0.692734
H104	H	2.204712	-0.447741	1.192734
O105	O	1.378801	-0.891671	0.366399
O106	O	1.878801	-0.391671	0.866399
H107	H	1.332143	-0.948323	0.319637
H108	H	1.832143	-0.448323	0.819637
H109	H	1.640449	-0.383989	0.907223
H110	H	2.140449	0.116011	1.407223
O111	O	1.658251	-0.366156	1.120788
O112	O	2.158251	0.133844	1.620788
H113	H	1.704987	-0.319471	1.064219
H114	H	2.204987	0.180529	1.564219
H115	H	1.396588	-0.627687	1.106211
H116	H	1.896588	-0.127687	1.606211
