data_functionalizedCrystal
_audit_creation_method	'MofGen! by Chris Wilmer'
_symmetry_space_group_name_H-M	'P1'
_symmetry_Int_Tables_number	1
_symmetry_cell_setting	triclinic
loop_
_symmetry_equiv_pos_as_xyz
  x,y,z
_cell_length_a	12.759401
_cell_length_b	12.759399
_cell_length_c	12.759393
_cell_angle_alpha	90.026988
_cell_angle_beta	90.020566
_cell_angle_gamma	90.012552
loop_
_atom_site_label
_atom_site_type_symbol
_atom_site_fract_x
_atom_site_fract_y
_atom_site_fract_z
Zn1	Zn	-1.606269	0.418266	-0.594035
Zn2	Zn	-1.606161	0.593981	-0.418366
Zn3	Zn	-1.430568	0.418311	-0.418372
Zn4	Zn	-1.430561	0.593898	-0.594004
O5	O	-1.518390	0.506114	-0.506194
O6	O	-1.753276	0.441591	-0.570743
O7	O	-1.582826	0.570732	-0.271346
O8	O	-1.453923	0.271284	-0.441689
O9	O	-1.753196	0.570688	-0.441680
O10	O	-1.583010	0.271251	-0.570748
O11	O	-1.453818	0.441668	-0.271350
O12	O	-1.283546	0.441587	-0.441659
O13	O	-1.453911	0.570546	-0.741030
O14	O	-1.283541	0.570590	-0.570696
O15	O	-1.583003	0.441510	-0.741052
O16	O	-1.582819	0.740991	-0.441650
O17	O	-1.453806	0.740930	-0.570691
C18	C	-1.245422	0.506085	-0.506175
C19	C	-1.128646	0.506098	-0.506192
C20	C	-1.073826	0.438997	-0.573498
C21	C	-0.964101	0.439003	-0.573503
C22	C	-0.964027	0.573222	-0.438894
C23	C	-1.073749	0.573210	-0.438884
C24	C	-1.518329	0.779081	-0.506189
C25	C	-1.518399	0.895858	-0.506222
C26	C	-1.518468	0.506013	-0.780228
C27	C	-1.518502	0.505970	-0.897005
C28	C	-0.792423	0.506134	-0.506210
C29	C	-0.909199	0.506117	-0.506207
C30	C	-1.585715	1.060448	-0.439148
C31	C	-1.585652	0.950724	-0.439109
C32	C	-1.451198	0.950722	-0.573372
C33	C	-1.451257	1.060444	-0.573405
C34	C	-1.518480	1.232081	-0.506238
C35	C	-1.518521	1.115304	-0.506295
C36	C	-1.585725	0.438770	-0.951880
C37	C	-1.585743	0.438725	-1.061604
C38	C	-1.451311	0.573088	-1.061568
C39	C	-1.451289	0.573128	-0.951846
C40	C	-1.518372	0.506139	-0.233227
C41	C	-1.518542	0.505886	-0.116451
H42	H	-0.919317	0.627863	-0.384095
H43	H	-1.396591	0.627768	-1.106233
O44	O	-1.385952	0.638511	-0.898695
C45	C	-1.326622	0.697766	-0.970625
H46	H	-1.369667	0.701386	-1.048846
H47	H	-1.315380	0.780552	-0.938906
H48	H	-1.246845	0.659278	-0.982285
H49	H	-1.640451	0.384083	-0.907232
H50	H	-1.118519	0.384347	-0.628302
H51	H	-1.118385	0.627853	-0.384069
O52	O	-1.651200	1.113615	-0.374006
C53	C	-1.755882	1.086711	-0.397074
H54	H	-1.757981	1.007017	-0.437447
H55	H	-1.803031	1.082965	-0.321292
H56	H	-1.791282	1.148395	-0.451134
O57	O	-0.911012	0.373790	-0.638986
C58	C	-0.982998	0.314538	-0.698368
H59	H	-1.061207	0.357570	-0.701925
H60	H	-0.951334	0.303435	-0.781167
H61	H	-0.994663	0.234696	-0.660030
O62	O	-1.650876	0.897554	-0.373739
C63	C	-1.627971	0.924450	-0.269014
H64	H	-1.587628	1.004148	-0.266828
H65	H	-1.703824	0.928185	-0.221975
H66	H	-1.573942	0.862768	-0.233555
H67	H	-1.396535	1.105109	-0.628086
O68	O	-1.386021	0.897377	-0.638678
C69	C	-1.445774	0.833796	-0.706548
H70	H	-1.528532	0.866800	-0.713117
H71	H	-1.407736	0.832513	-0.787370
H72	H	-1.449370	0.750663	-0.674041
O73	O	-1.651145	0.373416	-1.114747
C74	C	-1.710439	0.314134	-1.042810
H75	H	-1.714046	0.357200	-0.964594
H76	H	-1.793227	0.302928	-1.074527
H77	H	-1.671994	0.234340	-1.031139
