data_functionalizedCrystal
_audit_creation_method	'MofGen! by Chris Wilmer'
_symmetry_space_group_name_H-M	'P1'
_symmetry_Int_Tables_number	1
_symmetry_cell_setting	triclinic
loop_
_symmetry_equiv_pos_as_xyz
  x,y,z
_cell_length_a	21.395364
_cell_length_b	21.395362
_cell_length_c	21.395340
_cell_angle_alpha	89.893120
_cell_angle_beta	89.929705
_cell_angle_gamma	90.028124
loop_
_atom_site_label
_atom_site_type_symbol
_atom_site_fract_x
_atom_site_fract_y
_atom_site_fract_z
Zn1	Zn	0.958145	-0.249005	-0.354257
Zn2	Zn	1.458145	0.250995	0.145743
Zn3	Zn	0.957966	-0.353923	-0.249475
Zn4	Zn	1.457966	0.146077	0.250525
Zn5	Zn	0.853277	-0.249160	-0.249493
Zn6	Zn	1.353277	0.250840	0.250507
Zn7	Zn	0.853331	-0.353746	-0.354215
Zn8	Zn	1.353331	0.146254	0.145785
O9	O	0.905680	-0.301458	-0.301860
O10	O	1.405680	0.198542	0.198140
O11	O	1.045799	-0.262932	-0.340367
O12	O	1.545799	0.237068	0.159633
O13	O	0.943981	-0.340165	-0.161799
O14	O	1.443981	0.159835	0.338201
O15	O	0.867240	-0.161462	-0.263414
O16	O	1.367240	0.338538	0.236586
O17	O	1.045667	-0.340014	-0.263384
O18	O	1.545667	0.159986	0.236616
O19	O	0.944286	-0.161348	-0.340384
O20	O	1.444286	0.338652	0.159616
O21	O	0.867066	-0.263196	-0.161812
O22	O	1.367066	0.236804	0.338188
O23	O	0.765606	-0.263024	-0.263374
O24	O	1.265606	0.236976	0.236626
O25	O	0.867332	-0.339713	-0.441899
O26	O	1.367332	0.160287	0.058101
O27	O	0.765646	-0.339863	-0.340314
O28	O	1.265646	0.160137	0.159686
O29	O	0.944339	-0.262760	-0.441929
O30	O	1.444339	0.237240	0.058071
O31	O	0.944033	-0.441577	-0.263344
O32	O	1.444033	0.058423	0.236656
O33	O	0.867159	-0.441447	-0.340297
O34	O	1.367159	0.058553	0.159703
C35	C	0.742892	-0.301442	-0.301842
C36	C	1.242892	0.198558	0.198158
C37	C	0.673251	-0.301450	-0.301849
C38	C	1.173251	0.198550	0.198151
C39	C	0.171492	-0.341542	-0.341883
C40	C	0.671492	0.158458	0.158117
C41	C	0.236927	-0.341542	-0.341877
C42	C	0.736927	0.158458	0.158123
C43	C	0.269612	-0.301472	-0.301880
C44	C	0.769612	0.198528	0.198120
C45	C	0.236857	-0.261410	-0.261875
C46	C	0.736857	0.238590	0.238125
C47	C	0.171423	-0.261416	-0.261878
C48	C	0.671423	0.238584	0.238122
C49	C	0.373296	-0.245014	-0.297030
C50	C	0.873296	0.254986	0.202970
C51	C	0.438729	-0.245008	-0.297032
C52	C	0.938729	0.254992	0.202968
C53	C	0.471433	-0.301456	-0.301866
C54	C	0.971433	0.198544	0.198134
C55	C	0.438696	-0.357912	-0.306712
C56	C	0.938696	0.142088	0.193288
C57	C	0.373262	-0.357917	-0.306716
C58	C	0.873262	0.142083	0.193284
C59	C	0.340565	-0.301462	-0.301871
C60	C	0.840565	0.198538	0.198129
C61	C	0.575133	-0.341518	-0.341858
C62	C	1.075133	0.158482	0.158142
C63	C	0.640570	-0.341519	-0.341847
C64	C	1.140570	0.158481	0.158153
C65	C	0.640498	-0.261382	-0.261848
C66	C	1.140498	0.238618	0.238152
C67	C	0.575063	-0.261387	-0.261856
C68	C	1.075063	0.238613	0.238144
C69	C	0.542384	-0.301454	-0.301864
C70	C	1.042384	0.198546	0.198136
C71	C	0.905599	-0.464246	-0.301828
C72	C	1.405599	0.035754	0.198172
C73	C	0.905622	-0.533887	-0.301835
C74	C	1.405622	-0.033887	0.198165
C75	C	0.945718	-0.566484	-0.341942
C76	C	1.445718	-0.066484	0.158058
C77	C	0.945740	-0.631920	-0.341957
C78	C	1.445740	-0.131920	0.158043
C79	C	0.905673	-0.664756	-0.301854
C80	C	1.405673	-0.164756	0.198146
C81	C	0.865570	-0.632151	-0.261745
C82	C	1.365570	-0.132151	0.238255
C83	C	0.865545	-0.566717	-0.261735
C84	C	1.365545	-0.066717	0.238265
C85	C	0.900751	-0.768541	-0.245415
C86	C	1.400751	-0.268541	0.254585
C87	C	0.900781	-0.833974	-0.245424
C88	C	1.400781	-0.333974	0.254576
C89	C	0.905748	-0.866576	-0.301885
C90	C	1.405748	-0.366576	0.198115
C91	C	0.910698	-0.833738	-0.358338
C92	C	1.410698	-0.333738	0.141662
C93	C	0.910672	-0.768304	-0.358329
C94	C	1.410672	-0.268304	0.141671
C95	C	0.905696	-0.735708	-0.301861
C96	C	1.405696	-0.235708	0.198139
C97	C	0.945869	-0.970126	-0.342011
C98	C	1.445869	-0.470126	0.157989
C99	C	0.945886	-1.035562	-0.342028
C100	C	1.445886	-0.535562	0.157972
C101	C	0.865720	-1.035792	-0.261810
C102	C	1.365720	-0.535792	0.238190
C103	C	0.865699	-0.970357	-0.261799
C104	C	1.365699	-0.470357	0.238201
C105	C	0.905777	-0.937528	-0.301899
C106	C	1.405777	-0.437528	0.198101
C107	C	1.069103	-0.301476	-0.301878
C108	C	1.569103	0.198524	0.198122
C109	C	1.138744	-0.301483	-0.301886
C110	C	1.638744	0.198517	0.198114
C111	C	0.905862	-0.301199	-0.465284
C112	C	1.405862	0.198801	0.034716
C113	C	0.905939	-0.301089	-0.534925
C114	C	1.405939	0.198911	-0.034925
C115	C	0.905777	-0.138035	-0.301906
C116	C	1.405777	0.361965	0.198094
C117	C	0.905819	-0.068394	-0.301925
C118	C	1.405819	0.431606	0.198075
C119	C	0.905534	-0.301671	-0.139072
C120	C	1.405534	0.198329	0.360928
C121	C	0.905578	-0.301605	-0.069431
C122	C	1.405578	0.198395	0.430569
C123	C	0.865263	-0.261797	-0.036754
C124	C	1.365263	0.238203	0.463246
C125	C	0.865309	-0.261730	0.028682
C126	C	1.365309	0.238270	0.528682
C127	C	0.905664	-0.301481	0.061437
C128	C	1.405664	0.198519	0.561437
C129	C	0.945987	-0.341292	0.028753
C130	C	1.445987	0.158708	0.528753
C131	C	0.945944	-0.341354	-0.036681
C132	C	1.445944	0.158646	0.463319
C133	C	0.911053	-0.357796	0.165253
C134	C	1.411053	0.142204	0.665253
C135	C	0.911092	-0.357736	0.230686
C136	C	1.411092	0.142264	0.730686
C137	C	0.905800	-0.301291	0.263258
C138	C	1.405800	0.198709	0.763258
C139	C	0.900456	-0.244904	0.230389
C140	C	1.400456	0.255096	0.730389
C141	C	0.900414	-0.244966	0.164955
C142	C	1.400414	0.255034	0.664955
C143	C	0.905715	-0.301419	0.132390
C144	C	1.405715	0.198581	0.632390
C145	C	0.865533	-0.261406	0.366887
C146	C	1.365533	0.238594	0.866887
C147	C	0.865583	-0.261338	0.432323
C148	C	1.365583	0.238662	0.932323
C149	C	0.946258	-0.340905	0.432393
C150	C	1.446258	0.159095	0.932393
C151	C	0.946210	-0.340968	0.366958
C152	C	1.446210	0.159032	0.866958
C153	C	0.905845	-0.301220	0.334209
C154	C	1.405845	0.198780	0.834209
H155	H	0.263474	-0.228786	-0.229308
H156	H	0.763474	0.271214	0.270692
H157	H	0.465322	-0.403877	-0.310654
H158	H	0.965322	0.096123	0.189346
H159	H	0.915365	-0.403764	0.138738
H160	H	1.415365	0.096236	0.638738
Br161	Br	0.281380	-0.395912	-0.396162
Br162	Br	0.781380	0.104088	0.103838
H163	H	0.346610	-0.403886	-0.310660
H164	H	0.846610	0.096114	0.189340
Br165	Br	0.894071	-0.878534	-0.168809
Br166	Br	1.394071	-0.378534	0.331191
H167	H	0.978385	-0.658465	-0.374624
H168	H	1.478385	-0.158465	0.125376
Br169	Br	0.892981	-0.168323	0.274585
Br170	Br	1.392981	0.331677	0.774585
Br171	Br	0.917387	-0.723739	-0.434940
Br172	Br	1.417387	-0.223739	0.065060
Br173	Br	1.000760	-0.395235	0.073205
Br174	Br	1.500760	0.104765	0.573205
H175	H	0.978500	-0.943395	-0.374665
H176	H	1.478500	-0.443395	0.125335
H177	H	0.548525	-0.374144	-0.374434
H178	H	1.048525	0.125856	0.125566
Br179	Br	1.000661	-0.395383	-0.081032
Br180	Br	1.500661	0.104617	0.418968
Br181	Br	0.917444	-0.877975	-0.434969
Br182	Br	1.417444	-0.377975	0.065031
H183	H	0.978536	-1.062102	-0.374690
H184	H	1.478536	-0.562102	0.125310
H185	H	0.896067	-0.199055	0.138196
H186	H	1.396067	0.300945	0.638196
H187	H	0.667110	-0.228759	-0.229280
H188	H	1.167110	0.271241	0.270720
Br189	Br	0.894099	-0.724301	-0.168776
Br190	Br	1.394099	-0.224301	0.331224
H191	H	0.833093	-1.062527	-0.229162
H192	H	1.333093	-0.562527	0.270838
H193	H	0.979118	-0.373269	0.459062
H194	H	1.479118	0.126731	0.959062
Br195	Br	0.811280	-0.926115	-0.207367
Br196	Br	1.311280	-0.426115	0.292633
H197	H	0.667232	-0.374144	-0.374416
H198	H	1.167232	0.125856	0.125584
Br199	Br	0.530617	-0.207014	-0.207575
Br200	Br	1.030617	0.292986	0.292425
H201	H	0.832946	-0.658890	-0.229095
H202	H	1.332946	-0.158890	0.270905
Br203	Br	1.000105	-0.521933	-0.396366
Br204	Br	1.500105	-0.021933	0.103634
H205	H	0.465379	-0.199037	-0.293093
H206	H	0.965379	0.300963	0.206907
Br207	Br	0.328920	-0.168400	-0.290459
Br208	Br	0.828920	0.331600	0.209541
H209	H	0.832669	-0.229036	0.340221
H210	H	1.332669	0.270964	0.840221
H211	H	0.832894	-0.540176	-0.229075
H212	H	1.332894	-0.040176	0.270925
H213	H	0.144760	-0.228794	-0.229307
H214	H	0.644760	0.271206	0.270693
H215	H	0.832480	-0.229311	0.055292
H216	H	1.332480	0.270689	0.555292
Br217	Br	0.127145	-0.395921	-0.396177
Br218	Br	0.627145	0.104079	0.103823
H219	H	0.832394	-0.229431	-0.063414
H220	H	1.332394	0.270569	0.436586
H221	H	0.832755	-0.228918	0.458928
H222	H	1.332755	0.271082	0.958928
Br223	Br	1.000923	-0.395000	0.322607
Br224	Br	1.500923	0.105000	0.822607
H225	H	0.915379	-0.403654	0.257443
H226	H	1.415379	0.096346	0.757443
