data_functionalizedCrystal
_audit_creation_method	'MofGen! by Chris Wilmer'
_symmetry_space_group_name_H-M	'P1'
_symmetry_Int_Tables_number	1
_symmetry_cell_setting	triclinic
loop_
_symmetry_equiv_pos_as_xyz
  x,y,z
_cell_length_a	17.077402
_cell_length_b	17.077404
_cell_length_c	12.759393
_cell_angle_alpha	89.977154
_cell_angle_beta	90.034688
_cell_angle_gamma	89.980049
loop_
_atom_site_label
_atom_site_type_symbol
_atom_site_fract_x
_atom_site_fract_y
_atom_site_fract_z
Zn1	Zn	-0.312532	-1.200079	0.594043
Zn2	Zn	-0.443818	-1.199979	0.418350
Zn3	Zn	-0.312563	-1.068804	0.418372
Zn4	Zn	-0.443753	-1.068779	0.593982
O5	O	-0.378166	-1.134410	0.506187
O6	O	-0.329961	-1.309913	0.570753
O7	O	-0.426447	-1.182547	0.271332
O8	O	-0.202712	-1.086270	0.441710
O9	O	-0.426416	-1.309839	0.441673
O10	O	-0.202689	-1.182717	0.570775
O11	O	-0.330015	-1.086173	0.271348
O12	O	-0.329952	-0.958953	0.441651
O13	O	-0.426305	-1.086228	0.741011
O14	O	-0.426336	-0.958935	0.570670
O15	O	-0.329898	-1.182693	0.741056
O16	O	-0.553656	-1.182523	0.441613
O17	O	-0.553608	-1.086130	0.570649
C18	C	-0.582114	-1.134334	0.506145
C19	C	-0.669364	-1.134374	0.506162
C20	C	-0.378141	-0.930462	0.506157
C21	C	-0.378149	-0.843212	0.506169
C22	C	-0.378091	-1.134469	0.780220
C23	C	-0.378059	-1.134494	0.896997
C24	C	-0.710353	-1.184616	0.439045
C25	C	-0.792333	-1.184655	0.439072
C26	C	-0.833323	-1.134446	0.506211
C27	C	-0.792329	-1.084201	0.573335
C28	C	-0.710350	-1.084167	0.573313
C29	C	-0.963199	-1.084274	0.573375
C30	C	-1.045183	-1.084306	0.573396
C31	C	-1.045182	-1.184761	0.439134
C32	C	-0.963203	-1.184727	0.439112
C33	C	-0.922214	-1.134481	0.506235
C34	C	-0.173422	-1.134508	0.506252
C35	C	-0.086172	-1.134549	0.506280
C36	C	-0.328013	-0.802261	0.573483
C37	C	-0.328017	-0.720281	0.573485
C38	C	-0.378161	-0.679253	0.506178
C39	C	-0.428299	-0.720210	0.438857
C40	C	-0.428290	-0.802189	0.438850
C41	C	-0.428314	-0.549340	0.438878
C42	C	-0.428323	-0.467355	0.438886
C43	C	-0.328040	-0.467432	0.573512
C44	C	-0.328032	-0.549411	0.573506
C45	C	-0.378171	-0.590362	0.506186
C46	C	-0.378188	-0.339154	0.506210
C47	C	-0.378188	-0.426404	0.506199
C48	C	-0.378185	-1.134397	0.233219
C49	C	-0.377996	-1.134524	0.116443
C50	C	-0.327851	-1.184727	0.951884
C51	C	-0.327817	-1.184741	1.061608
C52	C	-0.428205	-1.084285	1.061548
C53	C	-0.428235	-1.084268	0.951826
H54	H	-0.825703	-1.225567	0.384418
H55	H	-0.929828	-1.043361	0.628038
H56	H	-0.825709	-1.043324	0.628005
H57	H	-0.469119	-1.043357	0.907136
H58	H	-0.469140	-0.582680	0.384056
H59	H	-1.078559	-1.225676	0.384484
C60	C	-0.665995	-1.239214	0.366107
C61	C	-0.719442	-1.283237	0.307355
C62	C	-0.678611	-1.333550	0.240163
H63	H	-0.634063	-1.209279	0.320190
H64	H	-0.633980	-1.273431	0.406305
H65	H	-0.751443	-1.249025	0.267159
H66	H	-0.751375	-1.313189	0.353244
H67	H	-0.646597	-1.367767	0.280361
H68	H	-0.646681	-1.303608	0.194253
H69	H	-0.714868	-1.363431	0.200299
H70	H	-0.287214	-0.434086	0.628325
C71	C	-0.918839	-1.239325	0.366180
C72	C	-0.972280	-1.283352	0.307422
C73	C	-0.931440	-1.333666	0.240239
H74	H	-0.886905	-1.209389	0.320266
H75	H	-0.886827	-1.273539	0.406384
H76	H	-1.004279	-1.249143	0.267220
H77	H	-1.004215	-1.313304	0.353307
H78	H	-0.899428	-1.367879	0.280443
H79	H	-0.899508	-1.303723	0.194332
H80	H	-0.967693	-1.363549	0.200371
H81	H	-0.469058	-1.043395	1.106204
H82	H	-0.676977	-1.043256	0.627967
H83	H	-0.287205	-0.582814	0.628319
H84	H	-0.287182	-0.835660	0.628294
C85	C	-1.089547	-1.029774	0.646416
C86	C	-1.036107	-0.985785	0.705225
C87	C	-1.076946	-0.935551	0.772515
H88	H	-1.121582	-0.995527	0.606319
H89	H	-1.121458	-1.059790	0.692285
H90	H	-1.004209	-0.955771	0.659362
H91	H	-1.004070	-1.020011	0.745344
H92	H	-1.108857	-0.965568	0.818384
H93	H	-1.108980	-0.901310	0.732409
H94	H	-1.040693	-0.905704	0.812431
C95	C	-0.273499	-1.239344	0.892296
C96	C	-0.317965	-1.289642	0.829321
C97	C	-0.267919	-1.339969	0.774427
H98	H	-0.239291	-1.209414	0.849413
H99	H	-0.243604	-1.269307	0.940669
H100	H	-0.347847	-1.259681	0.780954
H101	H	-0.352171	-1.319589	0.872178
H102	H	-0.238024	-1.369933	0.822800
H103	H	-0.233713	-1.310033	0.731550
H104	H	-0.298082	-1.374107	0.731700
H105	H	-0.469123	-0.686798	0.384049
C106	C	-0.273714	-0.675723	0.646639
C107	C	-0.318227	-0.628655	0.713854
C108	C	-0.268227	-0.587591	0.781252
H109	H	-0.243837	-0.711811	0.686826
H110	H	-0.239486	-0.643693	0.606570
H111	H	-0.352441	-0.660682	0.753918
H112	H	-0.348102	-0.592552	0.673695
H113	H	-0.233999	-0.555561	0.741183
H114	H	-0.238353	-0.623685	0.821432
H115	H	-0.298421	-0.555646	0.826858
C116	C	-0.482632	-0.422712	0.365739
C117	C	-0.438123	-0.375620	0.298539
C118	C	-0.488125	-0.334477	0.231149
H119	H	-0.512504	-0.458753	0.325540
H120	H	-0.516866	-0.390692	0.405814
H121	H	-0.403904	-0.407637	0.258468
H122	H	-0.408253	-0.339564	0.338709
H123	H	-0.522359	-0.302458	0.271224
H124	H	-0.517994	-0.370524	0.190957
H125	H	-0.457934	-0.302515	0.185552
C126	C	-0.482814	-0.846512	0.365730
C127	C	-0.526746	-0.793037	0.306808
C128	C	-0.576988	-0.833837	0.239445
H129	H	-0.452830	-0.878486	0.319929
H130	H	-0.517090	-0.878480	0.405814
H131	H	-0.492474	-0.761082	0.266728
H132	H	-0.556746	-0.761061	0.352581
H133	H	-0.611264	-0.865806	0.279528
H134	H	-0.546998	-0.865811	0.193651
H135	H	-0.606807	-0.797561	0.199465
H136	H	-0.286932	-1.225644	1.106292
