data_functionalizedCrystal
_audit_creation_method	'MofGen! by Chris Wilmer'
_symmetry_space_group_name_H-M	'P1'
_symmetry_Int_Tables_number	1
_symmetry_cell_setting	triclinic
loop_
_symmetry_equiv_pos_as_xyz
  x,y,z
_cell_length_a	17.077404
_cell_length_b	12.759400
_cell_length_c	17.077396
_cell_angle_alpha	89.973580
_cell_angle_beta	89.982756
_cell_angle_gamma	90.014910
loop_
_atom_site_label
_atom_site_type_symbol
_atom_site_fract_x
_atom_site_fract_y
_atom_site_fract_z
Zn1	Zn	1.200082	-0.418251	-0.443859
Zn2	Zn	1.700082	0.081749	0.056141
Zn3	Zn	1.200013	-0.593954	-0.312599
Zn4	Zn	1.700013	-0.093954	0.187401
Zn5	Zn	1.068819	-0.418291	-0.312606
Zn6	Zn	1.568819	0.081709	0.187394
Zn7	Zn	1.068800	-0.593890	-0.443823
Zn8	Zn	1.568800	-0.093890	0.056177
O9	O	1.134429	-0.506097	-0.378222
O10	O	1.634429	-0.006097	0.121778
O11	O	1.309920	-0.441569	-0.426459
O12	O	1.809920	0.058431	0.073541
O13	O	1.182589	-0.570696	-0.202753
O14	O	1.682589	-0.070696	0.297247
O15	O	1.086268	-0.271264	-0.330035
O16	O	1.586268	0.228736	0.169965
O17	O	1.309869	-0.570658	-0.330023
O18	O	1.809869	-0.070658	0.169977
O19	O	1.182706	-0.271236	-0.426466
O20	O	1.682706	0.228764	0.073534
O21	O	1.086201	-0.441637	-0.202759
O22	O	1.586201	0.058363	0.297241
O23	O	0.958970	-0.441574	-0.330001
O24	O	1.458970	0.058426	0.169999
O25	O	1.086236	-0.570547	-0.553674
O26	O	1.586236	-0.070547	-0.053674
O27	O	0.958956	-0.570585	-0.426405
O28	O	1.458956	-0.070585	0.073595
O29	O	1.182688	-0.441506	-0.553701
O30	O	1.682688	0.058494	-0.053701
O31	O	1.182571	-0.740967	-0.329988
O32	O	1.682571	-0.240967	0.170012
O33	O	1.086170	-0.740919	-0.426398
O34	O	1.586170	-0.240919	0.073602
C35	C	0.930481	-0.506077	-0.378200
C36	C	1.430481	-0.006077	0.121800
C37	C	0.843231	-0.506095	-0.378209
C38	C	1.343231	-0.006095	0.121791
C39	C	1.134382	-0.779064	-0.378205
C40	C	1.634382	-0.279064	0.121795
C41	C	1.134434	-0.895841	-0.378225
C42	C	1.634434	-0.395841	0.121775
C43	C	0.802254	-0.573372	-0.428326
C44	C	1.302254	-0.073372	0.071674
C45	C	0.720274	-0.573375	-0.428339
C46	C	1.220274	-0.073375	0.071661
C47	C	0.679271	-0.506104	-0.378230
C48	C	1.179271	-0.006104	0.121770
C49	C	0.720254	-0.438819	-0.328111
C50	C	1.220254	0.061181	0.171889
C51	C	0.802233	-0.438812	-0.328103
C52	C	1.302233	0.061188	0.171897
C53	C	0.549384	-0.438839	-0.328130
C54	C	1.049384	0.061161	0.171870
C55	C	0.467399	-0.438847	-0.328136
C56	C	0.967399	0.061153	0.171864
C57	C	0.467425	-0.573402	-0.428366
C58	C	0.967425	-0.073402	0.071634
C59	C	0.549404	-0.573395	-0.428358
C60	C	1.049404	-0.073395	0.071642
C61	C	0.590380	-0.506111	-0.378237
C62	C	1.090380	-0.006111	0.121763
C63	C	1.184686	-0.950692	-0.328080
C64	C	1.684686	-0.450692	0.171920
C65	C	1.184734	-1.060416	-0.328104
C66	C	1.684734	-0.560416	0.171896
C67	C	1.084272	-1.060427	-0.428420
C68	C	1.584272	-0.560427	0.071580
C69	C	1.084228	-0.950705	-0.428399
C70	C	1.584228	-0.450705	0.071601
C71	C	1.242684	-0.950687	-0.270160
C72	C	1.742684	-0.450687	0.229840
C73	C	1.242733	-1.060411	-0.270185
C74	C	1.742733	-0.560411	0.229815
C75	C	1.339173	-0.506116	-0.378244
C76	C	1.839173	-0.006116	0.121756
C77	C	1.426423	-0.506125	-0.378253
C78	C	1.926423	-0.006125	0.121747
C79	C	1.134468	-0.506015	-0.582966
C80	C	1.634468	-0.006015	-0.082966
C81	C	1.134485	-0.505980	-0.670216
C82	C	1.634485	-0.005980	-0.170216
C83	C	1.134497	-0.232063	-0.378255
C84	C	1.634497	0.267937	0.121745
C85	C	1.134526	-0.115287	-0.378270
C86	C	1.634526	0.384713	0.121730
C87	C	1.084311	-0.438771	-0.711208
C88	C	1.584311	0.061229	-0.211208
C89	C	1.084324	-0.438747	-0.793189
C90	C	1.584324	0.061253	-0.293189
C91	C	1.134515	-0.505928	-0.834175
C92	C	1.634515	-0.005928	-0.334175
C93	C	1.184691	-0.573145	-0.793177
C94	C	1.684691	-0.073145	-0.293177
C95	C	1.184674	-0.573173	-0.711198
C96	C	1.684674	-0.073173	-0.211198
C97	C	1.184725	-0.573079	-0.964047
C98	C	1.684725	-0.073079	-0.464047
C99	C	1.184743	-0.573050	-1.046032
C100	C	1.684743	-0.073050	-0.546032
C101	C	1.084375	-0.438653	-1.046038
C102	C	1.584375	0.061347	-0.546038
C103	C	1.084358	-0.438682	-0.964059
C104	C	1.584358	0.061318	-0.464059
C105	C	1.134535	-0.505897	-0.923066
C106	C	1.634535	-0.005897	-0.423066
C107	C	1.134434	-0.506102	-0.174274
C108	C	1.634434	-0.006102	0.325726
C109	C	1.134570	-0.505840	-0.087025
C110	C	1.634570	-0.005840	0.412975
H111	H	0.835632	-0.628156	-0.469129
H112	H	1.335632	-0.128156	0.030871
H113	H	1.226496	-1.090266	-0.209380
H114	H	1.726496	-0.590266	0.290620
F115	F	0.423763	-0.367254	-0.274802
F116	F	0.923763	0.132746	0.225198
H117	H	0.434058	-0.628184	-0.469178
H118	H	0.934058	-0.128184	0.030822
F119	F	1.238167	-0.644545	-1.089652
F120	F	1.738167	-0.144545	-0.589652
H121	H	0.835595	-0.384022	-0.287296
H122	H	1.335595	0.115978	0.212704
F123	F	1.030843	-1.118827	-0.481817
F124	F	1.530843	-0.618827	0.018183
F125	F	1.030894	-0.367262	-0.667594
F126	F	1.530894	0.132738	-0.167594
F127	F	1.238126	-0.644623	-0.920422
F128	F	1.738126	-0.144623	-0.420422
H129	H	1.043316	-0.906045	-0.469238
H130	H	1.543316	-0.406045	0.030762
F131	F	0.676614	-0.367217	-0.274786
F132	F	1.176614	0.132783	0.225214
F133	F	1.238073	-0.644710	-0.667572
F134	F	1.738073	-0.144710	-0.167572
F135	F	1.322119	-0.911658	-0.291504
F136	F	1.822119	-0.411658	0.208496
H137	H	1.220928	-0.916733	-0.212385
H138	H	1.720928	-0.416733	0.287615
F139	F	1.318217	-1.104788	-0.298727
F140	F	1.818217	-0.604788	0.201273
F141	F	0.676667	-0.644981	-0.481681
F142	F	1.176667	-0.144981	0.018319
H143	H	1.043464	-0.384023	-0.826561
H144	H	1.543464	0.115977	-0.326561
H145	H	1.043491	-0.383972	-0.930690
H146	H	1.543491	0.116028	-0.430690
H147	H	1.043520	-0.383923	-1.079418
H148	H	1.543520	0.116077	-0.579418
F149	F	1.238104	-0.644650	-0.836801
F150	F	1.738104	-0.144650	-0.336801
F151	F	0.592992	-0.367226	-0.274786
F152	F	1.092992	0.132774	0.225214
F153	F	0.593040	-0.644999	-0.481684
F154	F	1.093040	-0.144999	0.018316
