data_functionalizedCrystal
_audit_creation_method	'MofGen! by Chris Wilmer'
_symmetry_space_group_name_H-M	'P1'
_symmetry_Int_Tables_number	1
_symmetry_cell_setting	triclinic
loop_
_symmetry_equiv_pos_as_xyz
  x,y,z
_cell_length_a	17.077403
_cell_length_b	17.077404
_cell_length_c	17.077404
_cell_angle_alpha	90.005946
_cell_angle_beta	89.998580
_cell_angle_gamma	89.999063
loop_
_atom_site_label
_atom_site_type_symbol
_atom_site_fract_x
_atom_site_fract_y
_atom_site_fract_z
Zn1	Zn	0.312629	1.200071	0.443902
Zn2	Zn	0.443866	1.200060	0.312661
Zn3	Zn	0.312619	1.068833	0.312650
Zn4	Zn	0.443857	1.068821	0.443884
O5	O	0.378243	1.134446	0.378274
O6	O	0.330046	1.309916	0.426504
O7	O	0.426456	1.182653	0.202813
O8	O	0.202773	1.086252	0.330063
O9	O	0.426465	1.309908	0.330082
O10	O	0.202780	1.182671	0.426494
O11	O	0.330029	1.086241	0.202804
O12	O	0.330020	0.958985	0.330047
O13	O	0.426449	1.086231	0.553734
O14	O	0.426440	0.958976	0.426464
O15	O	0.330036	1.182660	0.553746
O16	O	0.553712	1.182641	0.330065
O17	O	0.553705	1.086220	0.426475
C18	C	0.378229	0.930498	0.378253
C19	C	0.378241	0.843249	0.378262
C20	C	0.173499	1.134464	0.378279
C21	C	0.086249	1.134472	0.378281
C22	C	0.428523	0.802274	0.428386
C23	C	0.428525	0.720294	0.428399
C24	C	0.378248	0.679289	0.378283
C25	C	0.327961	0.720269	0.328156
C26	C	0.327956	0.802248	0.328148
C27	C	0.327977	0.549399	0.328175
C28	C	0.327982	0.467414	0.328182
C29	C	0.428545	0.467445	0.428425
C30	C	0.428540	0.549424	0.428417
C31	C	0.378254	0.590398	0.378290
C32	C	0.045254	1.084278	0.328078
C33	C	-0.036727	1.084284	0.328088
C34	C	-0.077711	1.134489	0.378298
C35	C	-0.036710	1.184685	0.428507
C36	C	0.045269	1.184674	0.428500
C37	C	-0.207580	1.184704	0.428516
C38	C	-0.289565	1.184716	0.428521
C39	C	-0.289576	1.084315	0.328103
C40	C	-0.207597	1.084304	0.328097
C41	C	-0.166602	1.134501	0.378305
C42	C	0.582191	1.134449	0.378286
C43	C	0.669440	1.134522	0.378318
C44	C	0.378243	1.134445	0.583019
C45	C	0.378243	1.134445	0.670268
C46	C	0.378258	1.339190	0.378297
C47	C	0.378264	1.426440	0.378306
C48	C	0.328039	1.084251	0.711254
C49	C	0.328046	1.084247	0.793234
C50	C	0.378252	1.134443	0.834228
C51	C	0.428461	1.184639	0.793237
C52	C	0.428458	1.184638	0.711258
C53	C	0.428463	1.184639	0.964107
C54	C	0.428465	1.184642	1.046091
C55	C	0.328051	1.084249	1.046083
C56	C	0.328048	1.084248	0.964104
C57	C	0.378256	1.134445	0.923119
C58	C	0.378261	1.134443	1.174326
C59	C	0.378262	1.134448	1.087077
H60	H	0.469466	0.835654	0.469194
H61	H	0.287169	1.043377	1.079457
Cl62	Cl	0.264758	0.600908	0.265157
Cl63	Cl	0.264780	0.415867	0.265174
Cl64	Cl	0.096806	1.247776	0.491617
Cl65	Cl	0.491578	1.247750	1.097625
Cl66	Cl	0.491751	0.415935	0.491454
H67	H	0.287151	1.043380	0.677883
H68	H	-0.174204	1.225571	0.469410
Cl69	Cl	0.491751	0.600972	0.491416
H70	H	0.287022	0.686877	0.287354
Cl71	Cl	0.264925	1.021149	0.912570
H72	H	-0.070084	1.225559	0.469393
H73	H	0.469341	1.225522	0.930739
H74	H	0.469344	1.225505	0.826620
Cl75	Cl	0.491577	1.247738	0.659733
H76	H	0.078617	1.043399	0.287189
Cl77	Cl	0.491739	0.668787	0.491415
Cl78	Cl	0.264740	0.853759	0.265134
H79	H	-0.070105	1.043413	0.287209
Cl80	Cl	0.264967	1.021107	0.844755
H81	H	-0.174230	1.043428	0.287207
Cl82	Cl	-0.341112	1.021212	0.264982
Cl83	Cl	-0.341086	1.247831	0.491643
