data_functionalizedCrystal
_audit_creation_method	'MofGen! by Chris Wilmer'
_symmetry_space_group_name_H-M	'P1'
_symmetry_Int_Tables_number	1
_symmetry_cell_setting	triclinic
loop_
_symmetry_equiv_pos_as_xyz
  x,y,z
_cell_length_a	17.077404
_cell_length_b	21.395362
_cell_length_c	17.077395
_cell_angle_alpha	89.968970
_cell_angle_beta	89.985498
_cell_angle_gamma	90.027761
loop_
_atom_site_label
_atom_site_type_symbol
_atom_site_fract_x
_atom_site_fract_y
_atom_site_fract_z
Zn1	Zn	1.199987	-0.249480	-0.443798
Zn2	Zn	1.199887	-0.354259	-0.312523
Zn3	Zn	1.068728	-0.249496	-0.312549
Zn4	Zn	1.068671	-0.354220	-0.443750
O5	O	1.134318	-0.301864	-0.378155
O6	O	1.309821	-0.263389	-0.426394
O7	O	1.182470	-0.340385	-0.202680
O8	O	1.086205	-0.161816	-0.329990
O9	O	1.309747	-0.340370	-0.329947
O10	O	1.182641	-0.161804	-0.426418
O11	O	1.086108	-0.263416	-0.202698
O12	O	0.958873	-0.263378	-0.329943
O13	O	1.086108	-0.340303	-0.553603
O14	O	0.958832	-0.340319	-0.426336
O15	O	1.182586	-0.263351	-0.553639
O16	O	1.182416	-0.441932	-0.329900
O17	O	1.086012	-0.441903	-0.426311
C18	C	0.930370	-0.301846	-0.378137
C19	C	0.843121	-0.301854	-0.378148
C20	C	0.802169	-0.261841	-0.428445
C21	C	0.720189	-0.261845	-0.428449
C22	C	0.679161	-0.301865	-0.378159
C23	C	0.720118	-0.341880	-0.327857
C24	C	0.802097	-0.341872	-0.327850
C25	C	0.549248	-0.341894	-0.327876
C26	C	0.467263	-0.341903	-0.327884
C27	C	0.467340	-0.261867	-0.428475
C28	C	0.549319	-0.261859	-0.428468
C29	C	0.590270	-0.301875	-0.378167
C30	C	1.134218	-0.464652	-0.378115
C31	C	1.134247	-0.534293	-0.378124
C32	C	1.184432	-0.566943	-0.428370
C33	C	1.184460	-0.632378	-0.428389
C34	C	1.134310	-0.665161	-0.378148
C35	C	1.084115	-0.632503	-0.327898
C36	C	1.084083	-0.567069	-0.327886
C37	C	1.128211	-0.768872	-0.307439
C38	C	1.128248	-0.834304	-0.307450
C39	C	1.134403	-0.866982	-0.378186
C40	C	1.140538	-0.834218	-0.448913
C41	C	1.140506	-0.768784	-0.448901
C42	C	1.134339	-0.736113	-0.378156
C43	C	1.184621	-0.970585	-0.428457
C44	C	1.184643	-1.036021	-0.428477
C45	C	1.084303	-1.036144	-0.327980
C46	C	1.084277	-0.970709	-0.327967
C47	C	1.134440	-0.937933	-0.378204
C48	C	1.339062	-0.301882	-0.378173
C49	C	1.426312	-0.301890	-0.378181
C50	C	1.134352	-0.301821	-0.582899
C51	C	1.134366	-0.301803	-0.670149
C52	C	1.134440	-0.138441	-0.378212
C53	C	1.134492	-0.068799	-0.378237
C54	C	1.184689	-0.261649	-1.045984
C55	C	1.184673	-0.261671	-0.964003
C56	C	1.134431	-0.301744	-0.922998
C57	C	1.084207	-0.341802	-0.963978
C58	C	1.084228	-0.341783	-1.045957
C59	C	1.084167	-0.341838	-0.793108
C60	C	1.084145	-0.341857	-0.711123
C61	C	1.184612	-0.261727	-0.711154
C62	C	1.184632	-0.261707	-0.793133
C63	C	1.134407	-0.301765	-0.834107
C64	C	1.134330	-0.301861	-0.174207
C65	C	1.134468	-0.301703	-0.086958
H66	H	0.686850	-0.229264	-0.469407
O67	O	1.233181	-0.535202	-0.477246
C68	C	1.277497	-0.578058	-0.521584
H69	H	1.245365	-0.624722	-0.524282
H70	H	1.285827	-0.559113	-0.583435
H71	H	1.337134	-0.584992	-0.492889
H72	H	0.686707	-0.374462	-0.286906
O73	O	1.233254	-0.664168	-0.477093
C74	C	1.284013	-0.701995	-0.432451
H75	H	1.256367	-0.711852	-0.372943
H76	H	1.294540	-0.747982	-0.464445
H77	H	1.342176	-0.676739	-0.423869
H78	H	1.043215	-0.374473	-0.677739
O79	O	1.035304	-0.380769	-0.832790
C80	C	0.990966	-0.416153	-0.779021
H81	H	0.988255	-0.390503	-0.720591
H82	H	0.929119	-0.422821	-0.802705
H83	H	1.019669	-0.463745	-0.770289
O84	O	1.146429	-0.737054	-0.517673
C85	C	1.151890	-0.779920	-0.580112
H86	H	1.125551	-0.826595	-0.561516
H87	H	1.118505	-0.761006	-0.632836
H88	H	1.216030	-0.786823	-0.596474
O89	O	0.841758	-0.380802	-0.278970
C90	C	0.787969	-0.416117	-0.234571
H91	H	0.729542	-0.418325	-0.266723
H92	H	0.811630	-0.465472	-0.226083
H93	H	0.779241	-0.393113	-0.175007
H94	H	1.043333	-0.374399	-1.079317
H95	H	1.145552	-0.860823	-0.506513
H96	H	1.225571	-0.229057	-0.930646
O97	O	1.233361	-0.938838	-0.477340
C98	C	1.277669	-0.981692	-0.521689
H99	H	1.245538	-1.028357	-0.524382
H100	H	1.285984	-0.962746	-0.583542
H101	H	1.337313	-0.988625	-0.493007
H102	H	0.835568	-0.229254	-0.469399
H103	H	0.582721	-0.229275	-0.469423
H104	H	0.433993	-0.229284	-0.469431
O105	O	1.233468	-0.222865	-0.833056
C106	C	1.284162	-0.258531	-0.880455
H107	H	1.256446	-0.306010	-0.892713
H108	H	1.294703	-0.233000	-0.938115
H109	H	1.342326	-0.265423	-0.848868
O110	O	1.233505	-0.222847	-0.671433
C111	C	1.311742	-0.236543	-0.691436
H112	H	1.313378	-0.260609	-0.750955
H113	H	1.346968	-0.191323	-0.694243
H114	H	1.338143	-0.268771	-0.645289
O115	O	1.035516	-0.380760	-0.924055
C116	C	1.080172	-0.421249	-0.876638
H117	H	1.139674	-0.399157	-0.864372
H118	H	1.048184	-0.429652	-0.818983
H119	H	1.088768	-0.467676	-0.908212
H120	H	1.225510	-1.062604	-0.469397
O121	O	1.035543	-1.068048	-0.279287
C122	C	0.984819	-1.105892	-0.323946
H123	H	1.012474	-1.115645	-0.383458
H124	H	0.974333	-1.151930	-0.291972
H125	H	0.926633	-1.080705	-0.332518
H126	H	1.043414	-0.944123	-0.287048
O127	O	1.122250	-0.866031	-0.238682
C128	C	1.116818	-0.823160	-0.176246
H129	H	1.094032	-0.776521	-0.199102
H130	H	1.074857	-0.842122	-0.130047
H131	H	1.177170	-0.816172	-0.149100
H132	H	0.433861	-0.374491	-0.286934
H133	H	1.123195	-0.742271	-0.249833
H134	H	1.043281	-0.659199	-0.286994
H135	H	0.582588	-0.374477	-0.286914
O136	O	1.035225	-0.535418	-0.279110
C137	C	0.956984	-0.551436	-0.296212
H138	H	0.955357	-0.598930	-0.326396
H139	H	0.921823	-0.553730	-0.239529
H140	H	0.930505	-0.514603	-0.336539
O141	O	1.233456	-0.222634	-1.085725
C142	C	1.216334	-0.160190	-1.065725
H143	H	1.186144	-0.158902	-1.006204
H144	H	1.273009	-0.132104	-1.062927
H145	H	1.176007	-0.139069	-1.111871
