data_functionalizedCrystal
_audit_creation_method	'MofGen! by Chris Wilmer'
_symmetry_space_group_name_H-M	'P1'
_symmetry_Int_Tables_number	1
_symmetry_cell_setting	triclinic
loop_
_symmetry_equiv_pos_as_xyz
  x,y,z
_cell_length_a	12.759401
_cell_length_b	12.759400
_cell_length_c	12.759401
_cell_angle_alpha	90.006675
_cell_angle_beta	90.005677
_cell_angle_gamma	90.014455
loop_
_atom_site_label
_atom_site_type_symbol
_atom_site_fract_x
_atom_site_fract_y
_atom_site_fract_z
Zn1	Zn	1.606126	-0.418438	0.593993
Zn2	Zn	2.106126	0.081562	1.093993
Zn3	Zn	1.606062	-0.594084	0.418317
Zn4	Zn	2.106062	-0.094084	0.918317
Zn5	Zn	1.430468	-0.418421	0.418332
Zn6	Zn	1.930468	0.081579	0.918332
Zn7	Zn	1.430419	-0.594076	0.593958
Zn8	Zn	1.930419	-0.094076	1.093958
O9	O	1.518269	-0.506255	0.506150
O10	O	2.018269	-0.006255	1.006150
O11	O	1.753139	-0.441748	0.570698
O12	O	2.253139	0.058252	1.070698
O13	O	1.582763	-0.570778	0.271298
O14	O	2.082763	-0.070778	0.771298
O15	O	1.453816	-0.271402	0.441655
O16	O	1.953816	0.228598	0.941655
O17	O	1.753092	-0.570794	0.441629
O18	O	2.253092	-0.070794	0.941629
O19	O	1.582872	-0.271414	0.570712
O20	O	2.082872	0.228586	1.070712
O21	O	1.453754	-0.441719	0.271309
O22	O	1.953754	0.058281	0.771309
O23	O	1.283440	-0.441712	0.441621
O24	O	1.783440	0.058288	0.941621
O25	O	1.453733	-0.570781	0.740984
O26	O	1.953733	-0.070781	1.240984
O27	O	1.283404	-0.570765	0.570653
O28	O	1.783404	-0.070765	1.070653
O29	O	1.582824	-0.441740	0.741010
O30	O	2.082824	0.058260	1.241010
O31	O	1.582715	-0.741104	0.441595
O32	O	2.082715	-0.241104	0.941595
O33	O	1.453671	-0.741098	0.570638
O34	O	1.953671	-0.241098	1.070638
C35	C	1.245301	-0.506237	0.506135
C36	C	1.745301	-0.006237	1.006135
C37	C	1.128525	-0.506254	0.506154
C38	C	1.628525	-0.006254	1.006154
C39	C	1.073688	-0.439181	0.573464
C40	C	1.573688	0.060819	1.073464
C41	C	0.963964	-0.439192	0.573471
C42	C	1.463964	0.060808	1.073471
C43	C	0.963923	-0.573358	0.438855
C44	C	1.463923	-0.073358	0.938855
C45	C	1.073645	-0.573341	0.438844
C46	C	1.573645	-0.073341	0.938844
C47	C	1.518209	-0.779222	0.506134
C48	C	2.018209	-0.279222	1.006134
C49	C	1.518280	-0.895999	0.506163
C50	C	2.018280	-0.395999	1.006163
C51	C	1.585502	-1.060514	0.573443
C52	C	2.085502	-0.560514	1.073443
C53	C	1.585448	-0.950790	0.573419
C54	C	2.085448	-0.450790	1.073419
C55	C	1.451170	-0.950937	0.438918
C56	C	1.951170	-0.450937	0.938918
C57	C	1.451230	-1.060659	0.438938
C58	C	1.951230	-0.560659	0.938938
C59	C	1.792302	-0.506274	0.506166
C60	C	2.292302	-0.006274	1.006166
C61	C	1.909079	-0.506282	0.506172
C62	C	2.409079	-0.006282	1.006172
C63	C	1.518280	-0.506262	0.780184
C64	C	2.018280	-0.006262	1.280184
C65	C	1.518285	-0.506265	0.896960
C66	C	2.018285	-0.006265	1.396960
C67	C	1.518357	-0.232222	0.506189
C68	C	2.018357	0.267778	1.006189
C69	C	1.518394	-0.115445	0.506206
C70	C	2.018394	0.384555	1.006206
C71	C	1.585495	-0.439084	0.951837
C72	C	2.085495	0.060916	1.451837
C73	C	1.585486	-0.439082	1.061561
C74	C	2.085486	0.060918	1.561561
C75	C	1.451055	-0.573451	1.061522
C76	C	1.951055	-0.073451	1.561522
C77	C	1.451059	-0.573447	0.951800
C78	C	1.951059	-0.073447	1.451800
C79	C	1.518256	-0.506271	1.233183
C80	C	2.018256	-0.006271	1.733183
C81	C	1.518272	-0.506267	1.116406
C82	C	2.018272	-0.006267	1.616406
H83	H	0.919227	-0.627978	0.384055
H84	H	1.419227	-0.127978	0.884055
O85	O	1.657943	-1.119601	0.645995
O86	O	2.157943	-0.619601	1.145995
H87	H	1.646704	-1.205127	0.634725
H88	H	2.146704	-0.705127	1.134725
H89	H	1.640094	-0.906068	0.628168
H90	H	2.140094	-0.406068	1.128168
H91	H	1.396484	-0.906320	0.384152
H92	H	1.896484	-0.406320	0.884152
H93	H	1.118295	-0.627961	0.384027
H94	H	1.618295	-0.127961	0.884027
O95	O	0.904823	-0.366844	0.646069
O96	O	1.404823	0.133156	1.146069
H97	H	0.819305	-0.378112	0.634763
H98	H	1.319305	0.121888	1.134763
O99	O	1.378533	-0.645889	0.892615
O100	O	1.878533	-0.145889	1.392615
H101	H	1.396501	-0.728358	0.913647
H102	H	1.896501	-0.228358	1.413647
O103	O	1.378844	-1.119919	0.366418
O104	O	1.878844	-0.619919	0.866418
H105	H	1.332118	-1.063391	0.319650
H106	H	1.832118	-0.563391	0.819650
H107	H	1.118367	-0.384552	0.628268
H108	H	1.618367	0.115448	1.128268
O109	O	1.657999	-0.366627	0.892687
O110	O	2.157999	0.133373	1.392687
H111	H	1.611000	-0.313174	0.842689
H112	H	2.111000	0.186826	1.342689
H113	H	1.396324	-0.628150	1.106185
H114	H	1.896324	-0.128150	1.606185
O115	O	1.657981	-0.366630	1.120754
O116	O	2.157981	0.133370	1.620754
H117	H	1.704731	-0.319923	1.064184
H118	H	2.204731	0.180077	1.564184
