data_functionalizedCrystal
_audit_creation_method	'MofGen! by Chris Wilmer'
_symmetry_space_group_name_H-M	'P1'
_symmetry_Int_Tables_number	1
_symmetry_cell_setting	triclinic
loop_
_symmetry_equiv_pos_as_xyz
  x,y,z
_cell_length_a	17.077404
_cell_length_b	21.395361
_cell_length_c	17.077396
_cell_angle_alpha	89.966749
_cell_angle_beta	89.980499
_cell_angle_gamma	90.030933
loop_
_atom_site_label
_atom_site_type_symbol
_atom_site_fract_x
_atom_site_fract_y
_atom_site_fract_z
Zn1	Zn	1.200012	-0.249435	-0.443817
Zn2	Zn	1.533345	0.083899	-0.110483
Zn3	Zn	1.866679	0.417232	0.222850
Zn4	Zn	1.199901	-0.354216	-0.312540
Zn5	Zn	1.533234	-0.020883	0.020794
Zn6	Zn	1.866568	0.312451	0.354127
Zn7	Zn	1.068744	-0.249457	-0.312565
Zn8	Zn	1.402077	0.083877	0.020769
Zn9	Zn	1.735410	0.417210	0.354102
Zn10	Zn	1.068694	-0.354179	-0.443763
Zn11	Zn	1.402027	-0.020846	-0.110430
Zn12	Zn	1.735360	0.312488	0.222903
O13	O	1.134338	-0.301822	-0.378171
O14	O	1.467671	0.031512	-0.044838
O15	O	1.801004	0.364845	0.288496
O16	O	1.309844	-0.263341	-0.426414
O17	O	1.643177	0.069993	-0.093081
O18	O	1.976511	0.403326	0.240252
O19	O	1.182477	-0.340344	-0.202696
O20	O	1.515811	-0.007011	0.130637
O21	O	1.849144	0.326322	0.463971
O22	O	1.086224	-0.161776	-0.330008
O23	O	1.419557	0.171557	0.003325
O24	O	1.752891	0.504891	0.336658
O25	O	1.309763	-0.340323	-0.329966
O26	O	1.643096	-0.006990	0.003368
O27	O	1.976429	0.326344	0.336701
O28	O	1.182666	-0.161760	-0.426439
O29	O	1.516000	0.171574	-0.093105
O30	O	1.849333	0.504907	0.240228
O31	O	1.086117	-0.263378	-0.202714
O32	O	1.419450	0.069955	0.130619
O33	O	1.752783	0.403289	0.463952
O34	O	0.958890	-0.263342	-0.329957
O35	O	1.292224	0.069991	0.003377
O36	O	1.625557	0.403325	0.336710
O37	O	1.086139	-0.340260	-0.553617
O38	O	1.419472	-0.006926	-0.220284
O39	O	1.752806	0.326407	0.113049
O40	O	0.958854	-0.340281	-0.426348
O41	O	1.292187	-0.006948	-0.093014
O42	O	1.625520	0.326386	0.240319
O43	O	1.182618	-0.263305	-0.553657
O44	O	1.515951	0.070029	-0.220323
O45	O	1.849284	0.403362	0.113010
O46	O	1.182429	-0.441889	-0.329914
O47	O	1.515762	-0.108556	0.003419
O48	O	1.849096	0.224778	0.336753
O49	O	1.086031	-0.441862	-0.426324
O50	O	1.419365	-0.108528	-0.092990
O51	O	1.752698	0.224805	0.240343
C52	C	0.930390	-0.301810	-0.378149
C53	C	1.263723	0.031523	-0.044816
C54	C	1.597056	0.364856	0.288517
C55	C	0.843140	-0.301821	-0.378159
C56	C	1.176473	0.031513	-0.044825
C57	C	1.509807	0.364846	0.288508
C58	C	0.802151	-0.341943	-0.428269
C59	C	1.135485	-0.008610	-0.094936
C60	C	1.468818	0.324724	0.238398
C61	C	0.720171	-0.341944	-0.428282
C62	C	1.053504	-0.008611	-0.094948
C63	C	1.386837	0.324722	0.238385
C64	C	0.679181	-0.301826	-0.378179
C65	C	1.012514	0.031507	-0.044846
C66	C	1.345847	0.364841	0.288487
C67	C	0.720175	-0.261699	-0.328067
C68	C	1.053508	0.071634	0.005267
C69	C	1.386842	0.404968	0.338600
C70	C	0.802154	-0.261695	-0.328059
C71	C	1.135487	0.071638	0.005275
C72	C	1.468821	0.404972	0.338608
C73	C	0.549305	-0.261711	-0.328086
C74	C	0.882638	0.071622	0.005248
C75	C	1.215972	0.404955	0.338581
C76	C	0.467320	-0.261716	-0.328092
C77	C	0.800654	0.071617	0.005241
C78	C	1.133987	0.404951	0.338574
C79	C	0.467322	-0.341961	-0.428309
C80	C	0.800655	-0.008627	-0.094975
C81	C	1.133989	0.324706	0.238358
C82	C	0.549301	-0.341957	-0.428301
C83	C	0.882634	-0.008623	-0.094967
C84	C	1.215967	0.324710	0.238366
C85	C	0.590290	-0.301830	-0.378187
C86	C	0.923623	0.031503	-0.044853
C87	C	1.256956	0.364836	0.288480
C88	C	1.134234	-0.464609	-0.378127
C89	C	1.467567	-0.131276	-0.044794
C90	C	1.800901	0.202057	0.288539
C91	C	1.134262	-0.534251	-0.378135
C92	C	1.467595	-0.200917	-0.044802
C93	C	1.800928	0.132416	0.288532
C94	C	1.184500	-0.566957	-0.327986
C95	C	1.517833	-0.233624	0.005347
C96	C	1.851167	0.099710	0.338681
C97	C	1.184537	-0.632392	-0.328004
C98	C	1.517870	-0.299059	0.005330
C99	C	1.851203	0.034274	0.338663
C100	C	1.134321	-0.665119	-0.378162
C101	C	1.467654	-0.331785	-0.044829
C102	C	1.800987	0.001548	0.288505
C103	C	1.084078	-0.632404	-0.428321
C104	C	1.417412	-0.299071	-0.094987
C105	C	1.750745	0.034262	0.238346
C106	C	1.084049	-0.566970	-0.428307
C107	C	1.417382	-0.233637	-0.094974
C108	C	1.750716	0.099696	0.238359
C109	C	1.063641	-0.768833	-0.384313
C110	C	1.396974	-0.435500	-0.050980
C111	C	1.730308	-0.102167	0.282353
C112	C	1.063669	-0.834266	-0.384321
C113	C	1.397003	-0.500933	-0.050988
C114	C	1.730336	-0.167599	0.282345
C115	C	1.134412	-0.866940	-0.378208
C116	C	1.467745	-0.533606	-0.044875
C117	C	1.801079	-0.200273	0.288459
C118	C	1.205129	-0.834172	-0.372070
C119	C	1.538462	-0.500839	-0.038737
C120	C	1.871795	-0.167505	0.294597
C121	C	1.205099	-0.768738	-0.372057
C122	C	1.538432	-0.435404	-0.038723
C123	C	1.871766	-0.102071	0.294610
C124	C	1.134347	-0.736071	-0.378182
C125	C	1.467681	-0.402738	-0.044849
C126	C	1.801014	-0.069405	0.288484
C127	C	1.184694	-0.970599	-0.328075
C128	C	1.518028	-0.637265	0.005258
C129	C	1.851361	-0.303932	0.338591
C130	C	1.184732	-1.036035	-0.328098
C131	C	1.518066	-0.702702	0.005235
C132	C	1.851399	-0.369369	0.338568
C133	C	1.084267	-1.036046	-0.428411
C134	C	1.417600	-0.702713	-0.095078
C135	C	1.750934	-0.369379	0.238255
C136	C	1.084236	-0.970611	-0.428392
C137	C	1.417569	-0.637277	-0.095059
C138	C	1.750903	-0.303944	0.238274
C139	C	1.134449	-0.937891	-0.378220
C140	C	1.467782	-0.604557	-0.044887
C141	C	1.801115	-0.271224	0.288446
C142	C	1.339082	-0.301833	-0.378193
C143	C	1.672415	0.031500	-0.044860
C144	C	2.005749	0.364833	0.288473
C145	C	1.426332	-0.301839	-0.378203
C146	C	1.759665	0.031495	-0.044869
C147	C	2.092998	0.364828	0.288464
C148	C	1.134385	-0.301775	-0.582915
C149	C	1.467719	0.031558	-0.249582
C150	C	1.801052	0.364891	0.083751
C151	C	1.134405	-0.301756	-0.670165
C152	C	1.467739	0.031578	-0.336832
C153	C	1.801072	0.364911	-0.003499
C154	C	1.134463	-0.138398	-0.378232
C155	C	1.467796	0.194935	-0.044899
C156	C	1.801130	0.528268	0.288435
C157	C	1.134517	-0.068757	-0.378258
C158	C	1.467850	0.264576	-0.044925
C159	C	1.801183	0.597910	0.288409
C160	C	1.184644	-0.261682	-0.711177
C161	C	1.517977	0.071651	-0.377844
C162	C	1.851310	0.404985	-0.044510
C163	C	1.184653	-0.261661	-0.793158
C164	C	1.517987	0.071672	-0.459824
C165	C	1.851320	0.405006	-0.126491
C166	C	1.134428	-0.301718	-0.834125
C167	C	1.467761	0.031616	-0.500791
C168	C	1.801094	0.364949	-0.167458
C169	C	1.084184	-0.341793	-0.793107
C170	C	1.417517	-0.008460	-0.459774
C171	C	1.750850	0.324873	-0.126441
C172	C	1.084171	-0.341811	-0.711128
C173	C	1.417504	-0.008477	-0.377795
C174	C	1.750838	0.324856	-0.044462
C175	C	1.084215	-0.341756	-0.963977
C176	C	1.417549	-0.008422	-0.630644
C177	C	1.750882	0.324911	-0.297311
C178	C	1.084229	-0.341739	-1.045962
C179	C	1.417562	-0.008406	-0.712629
C180	C	1.750896	0.324927	-0.379295
C181	C	1.184698	-0.261606	-1.046007
C182	C	1.518031	0.071727	-0.712673
C183	C	1.851364	0.405060	-0.379340
C184	C	1.184685	-0.261623	-0.964028
C185	C	1.518018	0.071710	-0.630694
C186	C	1.851352	0.405043	-0.297361
C187	C	1.134442	-0.301700	-0.923016
C188	C	1.467775	0.031633	-0.589683
C189	C	1.801108	0.364967	-0.256349
C190	C	1.134336	-0.301822	-0.174223
C191	C	1.467669	0.031511	0.159110
C192	C	1.801002	0.364844	0.492443
C193	C	1.134467	-0.301666	-0.086974
C194	C	1.467801	0.031668	0.246359
C195	C	1.801134	0.365001	0.579693
H196	H	0.582673	-0.374628	-0.469094
H197	H	0.916006	-0.041295	-0.135761
H198	H	1.249340	0.292038	0.197573
H199	H	0.433945	-0.374631	-0.469115
H200	H	0.767278	-0.041298	-0.135782
H201	H	1.100611	0.292035	0.197551
C202	C	0.594391	-0.217571	-0.272965
C203	C	0.927725	0.115762	0.060369
C204	C	1.261058	0.449096	0.393702
H205	H	0.558239	-0.193682	-0.243122
H206	H	0.891573	0.139652	0.090212
H207	H	1.224906	0.472985	0.423545
H208	H	0.626400	-0.190301	-0.303054
H209	H	0.959734	0.143032	0.030280
H210	H	1.293067	0.476366	0.363613
H211	H	0.626342	-0.241505	-0.238700
H212	H	0.959675	0.091829	0.094633
H213	H	1.293008	0.425162	0.427967
H214	H	0.433948	-0.229041	-0.287304
H215	H	0.767282	0.104293	0.046029
H216	H	1.100615	0.437626	0.379363
H217	H	0.686794	-0.229031	-0.287276
H218	H	1.020128	0.104302	0.046057
H219	H	1.353461	0.437636	0.379391
C220	C	0.847242	-0.217559	-0.272939
C221	C	1.180575	0.115774	0.060394
C222	C	1.513908	0.449107	0.393728
H223	H	0.811090	-0.193669	-0.243097
H224	H	1.144423	0.139664	0.090237
H225	H	1.477756	0.472997	0.423570
H226	H	0.879249	-0.190290	-0.303030
H227	H	1.212583	0.143043	0.030303
H228	H	1.545916	0.476377	0.363637
H229	H	0.879193	-0.241491	-0.238674
H230	H	1.212527	0.091842	0.094660
H231	H	1.545860	0.425175	0.427993
C232	C	1.028783	-0.530989	-0.483469
C233	C	1.362116	-0.197655	-0.150136
C234	C	1.695450	0.135678	0.183197
H235	H	1.035960	-0.487332	-0.476279
H236	H	1.369294	-0.153999	-0.142946
H237	H	1.702627	0.179335	0.190387
H238	H	0.976052	-0.541758	-0.471939
H239	H	1.309386	-0.208424	-0.138606
H240	H	1.642719	0.124909	0.194727
H241	H	1.040253	-0.541670	-0.536227
H242	H	1.373587	-0.208337	-0.202894
H243	H	1.706920	0.124996	0.130440
C244	C	0.847237	-0.386077	-0.483376
C245	C	1.180570	-0.052744	-0.150043
C246	C	1.513904	0.280590	0.183291
H247	H	0.901932	-0.380335	-0.476190
H248	H	1.235265	-0.047001	-0.142856
H249	H	1.568599	0.286332	0.190477
H250	H	0.833833	-0.376966	-0.536142
H251	H	1.167166	-0.043632	-0.202808
H252	H	1.500499	0.289701	0.130525
H253	H	0.833768	-0.428164	-0.471782
H254	H	1.167101	-0.094831	-0.138448
H255	H	1.500435	0.238502	0.194885
H256	H	1.225546	-0.229065	-0.677828
H257	H	1.558879	0.104268	-0.344494
H258	H	1.892212	0.437602	-0.011161
H259	H	1.225564	-0.229030	-0.826546
H260	H	1.558898	0.104303	-0.493213
H261	H	1.892231	0.437636	-0.159879
C262	C	1.239997	-1.072013	-0.272931
C263	C	1.573330	-0.738679	0.060402
C264	C	1.906664	-0.405346	0.393736
H265	H	1.269890	-1.043152	-0.243046
H266	H	1.603223	-0.709818	0.090288
H267	H	1.936556	-0.376485	0.423621
H268	H	1.274198	-1.097495	-0.302991
H269	H	1.607531	-0.764162	0.030342
H270	H	1.940864	-0.430829	0.363676
H271	H	1.209992	-1.097581	-0.238708
H272	H	1.543326	-0.764247	0.094626
H273	H	1.876659	-0.430914	0.427959
C274	C	1.239740	-0.530969	-0.272808
C275	C	1.573074	-0.197635	0.060526
C276	C	1.906407	0.135698	0.393859
H277	H	1.269672	-0.559823	-0.242948
H278	H	1.603005	-0.226490	0.090385
H279	H	1.936338	0.106843	0.423718
H280	H	1.209725	-0.505482	-0.238573
H281	H	1.543059	-0.172149	0.094761
H282	H	1.876392	0.161185	0.428094
H283	H	1.273918	-0.505404	-0.302869
H284	H	1.607251	-0.172071	0.030465
H285	H	1.940585	0.161263	0.363798
C286	C	1.239932	-0.217563	-0.918965
C287	C	1.573265	0.115771	-0.585632
C288	C	1.906598	0.449104	-0.252298
H289	H	1.269851	-0.193688	-0.955130
H290	H	1.603185	0.139645	-0.621797
H291	H	1.936518	0.472979	-0.288463
H292	H	1.274108	-0.241540	-0.886980
H293	H	1.607441	0.091794	-0.553647
H294	H	1.940775	0.425127	-0.220313
H295	H	1.209913	-0.190267	-0.886992
H296	H	1.543246	0.143066	-0.553659
H297	H	1.876579	0.476400	-0.220325
C298	C	0.985820	-0.732899	-0.391044
C299	C	1.319153	-0.399565	-0.057711
C300	C	1.652486	-0.066232	0.275623
H301	H	0.943709	-0.761784	-0.394691
H302	H	1.277042	-0.428450	-0.061358
H303	H	1.610376	-0.095117	0.271975
H304	H	0.986802	-0.707346	-0.436542
H305	H	1.320136	-0.374013	-0.103209
H306	H	1.653469	-0.040679	0.230125
H307	H	0.978933	-0.707404	-0.346041
H308	H	1.312267	-0.374071	-0.012708
H309	H	1.645600	-0.040737	0.320626
H310	H	1.225606	-0.228973	-1.079403
H311	H	1.558939	0.104360	-0.746069
H312	H	1.892273	0.437693	-0.412736
H313	H	1.225450	-0.659027	-0.287166
H314	H	1.558783	-0.325694	0.046167
H315	H	1.892116	0.007639	0.379500
H316	H	0.686801	-0.374617	-0.469086
H317	H	1.020135	-0.041283	-0.135752
H318	H	1.353468	0.292050	0.197581
H319	H	1.043286	-0.374406	-0.826469
H320	H	1.376620	-0.041072	-0.493136
H321	H	1.709953	0.292261	-0.159803
H322	H	1.262678	-0.742060	-0.367061
H323	H	1.596012	-0.408727	-0.033728
H324	H	1.929345	-0.075393	0.299606
H325	H	1.262734	-0.860773	-0.367092
H326	H	1.596068	-0.527440	-0.033759
H327	H	1.929401	-0.194106	0.299574
C328	C	1.239933	-0.934604	-0.272898
C329	C	1.573266	-0.601271	0.060435
C330	C	1.906600	-0.267938	0.393769
H331	H	1.269869	-0.963458	-0.243041
H332	H	1.603202	-0.630124	0.090292
H333	H	1.936535	-0.296791	0.423626
H334	H	1.209916	-0.909121	-0.238661
H335	H	1.543249	-0.575788	0.094673
H336	H	1.876582	-0.242454	0.428006
H337	H	1.274107	-0.909036	-0.302958
H338	H	1.607440	-0.575702	0.030375
H339	H	1.940773	-0.242369	0.363708
C340	C	1.029034	-1.072037	-0.483588
C341	C	1.362367	-0.738704	-0.150255
C342	C	1.695700	-0.405370	0.183078
H343	H	1.036244	-1.115692	-0.476413
H344	H	1.369577	-0.782359	-0.143080
H345	H	1.702911	-0.449025	0.190254
H346	H	1.040488	-1.061271	-0.536337
H347	H	1.373821	-0.727938	-0.203004
H348	H	1.707154	-0.394604	0.130330
H349	H	0.976290	-1.061360	-0.472046
H350	H	1.309623	-0.728027	-0.138713
H351	H	1.642956	-0.394693	0.194620
C352	C	1.028978	-0.385797	-1.091025
C353	C	1.362311	-0.052463	-0.757692
C354	C	1.695645	0.280870	-0.424358
H355	H	0.999045	-0.409661	-1.054860
H356	H	1.332379	-0.076328	-0.721527
H357	H	1.665712	0.257005	-0.388193
H358	H	1.058987	-0.413093	-1.122999
H359	H	1.392321	-0.079760	-0.789666
H360	H	1.725654	0.253574	-0.456333
H361	H	0.994802	-0.361812	-1.123008
H362	H	1.328136	-0.028479	-0.789675
H363	H	1.661469	0.304855	-0.456342
H364	H	1.043324	-0.943979	-0.469225
H365	H	1.376657	-0.610646	-0.135892
H366	H	1.709990	-0.277312	0.197442
H367	H	1.006087	-0.860941	-0.389311
H368	H	1.339420	-0.527607	-0.055978
H369	H	1.672754	-0.194274	0.277355
C370	C	1.028841	-0.668400	-0.483492
C371	C	1.362174	-0.335067	-0.150158
C372	C	1.695507	-0.001734	0.183175
H373	H	1.036047	-0.712055	-0.476312
H374	H	1.369381	-0.378722	-0.142979
H375	H	1.702714	-0.045389	0.190355
H376	H	1.040293	-0.657639	-0.536242
H377	H	1.373626	-0.324306	-0.202909
H378	H	1.706959	0.009028	0.130424
H379	H	0.976098	-0.657720	-0.471948
H380	H	1.309432	-0.324387	-0.138615
H381	H	1.642765	0.008947	0.194719
C382	C	1.028975	-0.385860	-0.918866
C383	C	1.362308	-0.052526	-0.585532
C384	C	1.695642	0.280807	-0.252199
H385	H	0.999077	-0.409724	-0.955004
H386	H	1.332411	-0.076391	-0.621671
H387	H	1.665744	0.256942	-0.288337
H388	H	0.994777	-0.361917	-0.886874
H389	H	1.328111	-0.028584	-0.553541
H390	H	1.661444	0.304749	-0.220208
H391	H	1.059007	-0.413163	-0.886896
H392	H	1.392340	-0.079829	-0.553562
H393	H	1.725674	0.253504	-0.220229
C394	C	1.028928	-0.385907	-0.666015
C395	C	1.362262	-0.052574	-0.332682
C396	C	1.695595	0.280760	0.000651
H397	H	0.999027	-0.409769	-0.702154
H398	H	1.332361	-0.076436	-0.368820
H399	H	1.665694	0.256897	-0.035487
H400	H	0.994734	-0.361957	-0.634029
H401	H	1.328068	-0.028624	-0.300696
H402	H	1.661401	0.304709	0.032637
H403	H	1.058951	-0.413213	-0.634040
H404	H	1.392284	-0.079880	-0.300706
H405	H	1.725617	0.253454	0.032627
