data_functionalizedCrystal
_audit_creation_method	'MofGen! by Chris Wilmer'
_symmetry_space_group_name_H-M	'P1'
_symmetry_Int_Tables_number	1
_symmetry_cell_setting	triclinic
loop_
_symmetry_equiv_pos_as_xyz
  x,y,z
_cell_length_a	12.759400
_cell_length_b	21.395364
_cell_length_c	21.395355
_cell_angle_alpha	90.025298
_cell_angle_beta	89.986153
_cell_angle_gamma	89.968614
loop_
_atom_site_label
_atom_site_type_symbol
_atom_site_fract_x
_atom_site_fract_y
_atom_site_fract_z
Zn1	Zn	-0.417920	-0.957929	-0.354294
Zn2	Zn	-0.593584	-0.957861	-0.249525
Zn3	Zn	-0.417971	-0.853144	-0.249530
Zn4	Zn	-0.593608	-0.853142	-0.354264
O5	O	-0.505771	-0.905519	-0.301903
O6	O	-0.441190	-1.045598	-0.340407
O7	O	-0.570300	-0.943942	-0.161848
O8	O	-0.270943	-0.867073	-0.263441
O9	O	-0.570250	-1.045548	-0.263434
O10	O	-0.270906	-0.944058	-0.340411
O11	O	-0.441278	-0.867007	-0.161851
O12	O	-0.441301	-0.765466	-0.263412
O13	O	-0.570292	-0.867070	-0.441946
O14	O	-0.570341	-0.765465	-0.340360
O15	O	-0.441214	-0.944057	-0.441968
O16	O	-0.740609	-0.943940	-0.263405
O17	O	-0.740626	-0.867004	-0.340356
C18	C	-0.505830	-0.742731	-0.301884
C19	C	-0.505881	-0.673090	-0.301890
C20	C	-0.438791	-0.640425	-0.342032
C21	C	-0.438767	-0.574990	-0.342033
C22	C	-0.505851	-0.542222	-0.301900
C23	C	-0.572945	-0.574894	-0.261750
C24	C	-0.572960	-0.640329	-0.261746
C25	C	-0.600471	-0.438513	-0.296865
C26	C	-0.600457	-0.373080	-0.296875
C27	C	-0.505803	-0.340401	-0.301911
C28	C	-0.411160	-0.373163	-0.306951
C29	C	-0.411175	-0.438597	-0.306947
C30	C	-0.505841	-0.471269	-0.301900
C31	C	-0.438681	-0.236784	-0.342056
C32	C	-0.438655	-0.171347	-0.342054
C33	C	-0.572843	-0.171253	-0.261774
C34	C	-0.572860	-0.236688	-0.261774
C35	C	-0.505780	-0.269450	-0.301918
C36	C	-0.778738	-0.905482	-0.301890
C37	C	-0.895515	-0.905523	-0.301906
C38	C	-0.950333	-0.945628	-0.261881
C39	C	-1.060057	-0.945667	-0.261901
C40	C	-1.060135	-0.865490	-0.341970
C41	C	-0.950413	-0.865455	-0.341954
C42	C	-0.950288	-0.991916	-0.215652
C43	C	-1.060012	-0.991955	-0.215671
C44	C	-0.231738	-0.905573	-0.301930
C45	C	-0.114961	-0.905597	-0.301942
C46	C	-0.505750	-0.905571	-0.465327
C47	C	-0.505741	-0.905593	-0.534968
C48	C	-0.505725	-0.068942	-0.301920
C49	C	-0.505738	-0.138584	-0.301919
C50	C	-0.438527	-0.945678	-0.567694
C51	C	-0.438482	-0.945677	-0.633129
C52	C	-0.505669	-0.905598	-0.665836
C53	C	-0.572887	-0.865505	-0.633103
C54	C	-0.572923	-0.865503	-0.567669
C55	C	-0.600270	-0.900638	-0.769506
C56	C	-0.600236	-0.900645	-0.834939
C57	C	-0.505558	-0.905602	-0.867657
C58	C	-0.410911	-0.910565	-0.834934
C59	C	-0.410947	-0.910563	-0.769500
C60	C	-0.505637	-0.905596	-0.736789
C61	C	-0.438290	-0.945688	-0.971335
C62	C	-0.438243	-0.945683	-1.036772
C63	C	-0.572658	-0.865514	-1.036745
C64	C	-0.572695	-0.865516	-0.971309
C65	C	-0.505513	-0.905606	-0.938609
C66	C	-0.505716	-0.905503	-0.139116
C67	C	-0.505429	-0.905602	-0.069475
H68	H	-0.677522	-0.346411	-0.292774
C69	C	-1.105858	-1.054236	-0.239207
N70	N	-1.140390	-1.101145	-0.256934
H71	H	-1.089856	-0.978989	-0.167138
H72	H	-0.627655	-0.832858	-0.541024
C73	C	-0.704605	-0.474454	-0.291328
N74	N	-0.783037	-0.501523	-0.287159
H75	H	-0.905782	-0.832804	-0.374550
H76	H	-0.627565	-0.548210	-0.229073
H77	H	-0.920414	-1.040427	-0.228687
C78	C	-0.364966	-0.539052	-0.386197
N79	N	-0.309382	-0.511985	-0.419464
H80	H	-0.384169	-0.667096	-0.374720
H81	H	-0.916326	-0.974545	-0.169537
C82	C	-0.646773	-0.676261	-0.217588
N83	N	-0.702372	-0.703326	-0.184329
C84	C	-0.364610	-0.989771	-0.531727
N85	N	-0.308930	-1.022979	-0.504635
H86	H	-0.384054	-0.263460	-0.374740
C87	C	-0.364545	-0.989779	-0.669135
N88	N	-0.308858	-1.022999	-0.696252
H89	H	-0.334113	-0.465269	-0.311049
C90	C	-1.120534	-0.821413	-0.386016
N91	N	-1.166025	-0.788211	-0.419191
C92	C	-0.306836	-0.916014	-0.733507
N93	N	-0.228417	-0.920116	-0.706397
H94	H	-0.334083	-0.346557	-0.311053
C95	C	-0.306755	-0.916017	-0.870919
N96	N	-0.228309	-0.920124	-0.898025
C97	C	-0.364379	-0.989782	-0.935363
N98	N	-0.308707	-1.022993	-0.908270
H99	H	-0.383503	-0.978324	-1.063416
H100	H	-0.627352	-0.832874	-1.063374
H101	H	-0.627434	-0.832878	-0.944664
C102	C	-0.704349	-0.895184	-0.870929
N103	N	-0.782770	-0.891070	-0.898034
C104	C	-0.704433	-0.895196	-0.733523
N105	N	-0.782886	-0.891102	-0.706422
H106	H	-0.627496	-0.263284	-0.229089
H107	H	-0.627588	-0.832870	-0.659737
H108	H	-0.384016	-0.144753	-0.374741
H109	H	-0.627464	-0.144574	-0.229097
