data_functionalizedCrystal
_audit_creation_method	'MofGen! by Chris Wilmer'
_symmetry_space_group_name_H-M	'P1'
_symmetry_Int_Tables_number	1
_symmetry_cell_setting	triclinic
loop_
_symmetry_equiv_pos_as_xyz
  x,y,z
_cell_length_a	12.759401
_cell_length_b	12.759399
_cell_length_c	12.759393
_cell_angle_alpha	90.026805
_cell_angle_beta	90.022497
_cell_angle_gamma	90.015072
loop_
_atom_site_label
_atom_site_type_symbol
_atom_site_fract_x
_atom_site_fract_y
_atom_site_fract_z
Zn1	Zn	-1.606270	0.418192	-0.594091
Zn2	Zn	-1.106270	0.918192	-0.094091
Zn3	Zn	-1.606162	0.593908	-0.418422
Zn4	Zn	-1.106162	1.093908	0.081578
Zn5	Zn	-1.430568	0.418246	-0.418421
Zn6	Zn	-0.930568	0.918246	0.081579
Zn7	Zn	-1.430562	0.593832	-0.594055
Zn8	Zn	-0.930562	1.093832	-0.094055
O9	O	-1.518390	0.506045	-0.506247
O10	O	-1.018390	1.006045	-0.006247
O11	O	-1.753276	0.441511	-0.570804
O12	O	-1.253276	0.941511	-0.070804
O13	O	-1.582827	0.570660	-0.271401
O14	O	-1.082827	1.070660	0.228599
O15	O	-1.453923	0.271218	-0.441739
O16	O	-0.953923	0.771218	0.058261
O17	O	-1.753197	0.570608	-0.441741
O18	O	-1.253197	1.070608	0.058259
O19	O	-1.583010	0.271178	-0.570802
O20	O	-1.083010	0.771178	-0.070802
O21	O	-1.453819	0.441602	-0.271400
O22	O	-0.953819	0.941602	0.228600
O23	O	-1.283546	0.441529	-0.441704
O24	O	-0.783546	0.941529	0.058296
O25	O	-1.453912	0.570479	-0.741081
O26	O	-0.953912	1.070479	-0.241081
O27	O	-1.283542	0.570531	-0.570741
O28	O	-0.783542	1.070531	-0.070741
O29	O	-1.583004	0.441437	-0.741107
O30	O	-1.083004	0.941437	-0.241107
O31	O	-1.582821	0.740919	-0.441706
O32	O	-1.082821	1.240919	0.058294
O33	O	-1.453808	0.740863	-0.570742
O34	O	-0.953808	1.240863	-0.070742
C35	C	-1.245423	0.506029	-0.506219
C36	C	-0.745423	1.006029	-0.006219
C37	C	-1.128646	0.506047	-0.506232
C38	C	-0.628646	1.006047	-0.006232
C39	C	-1.518330	0.779012	-0.506243
C40	C	-1.018330	1.279012	-0.006243
C41	C	-1.518401	0.895789	-0.506276
C42	C	-1.018401	1.395789	-0.006276
C43	C	-1.073809	0.573320	-0.573314
C44	C	-0.573809	1.073320	-0.073314
C45	C	-0.964085	0.573323	-0.573332
C46	C	-0.464085	1.073323	-0.073332
C47	C	-0.964045	0.438776	-0.439176
C48	C	-0.464045	0.938776	0.060824
C49	C	-1.073767	0.438769	-0.439164
C50	C	-0.573767	0.938769	0.060836
C51	C	-1.518469	0.505944	-0.780281
C52	C	-1.018469	1.005944	-0.280281
C53	C	-1.518503	0.505901	-0.897057
C54	C	-1.018503	1.005901	-0.397057
C55	C	-0.792424	0.506059	-0.506269
C56	C	-0.292424	1.006059	-0.006269
C57	C	-0.909200	0.506057	-0.506261
C58	C	-0.409200	1.006057	-0.006261
C59	C	-1.585655	0.950645	-0.439167
C60	C	-1.085655	1.450645	0.060833
C61	C	-1.585724	1.060369	-0.439210
C62	C	-1.085724	1.560369	0.060790
C63	C	-1.451275	1.060371	-0.573474
C64	C	-0.951275	1.560371	-0.073474
C65	C	-1.451212	0.950649	-0.573436
C66	C	-0.951212	1.450649	-0.073436
C67	C	-1.518483	1.232011	-0.506293
C68	C	-1.018483	1.732011	-0.006293
C69	C	-1.518533	1.115235	-0.506358
C70	C	-1.018533	1.615235	-0.006358
C71	C	-1.585726	0.438698	-0.951935
C72	C	-1.085726	0.938698	-0.451935
C73	C	-1.585744	0.438653	-1.061659
C74	C	-1.085744	0.938653	-0.561659
C75	C	-1.451312	0.573022	-1.061619
C76	C	-0.951312	1.073022	-0.561619
C77	C	-1.451290	0.573061	-0.951896
C78	C	-0.951290	1.073061	-0.451896
C79	C	-1.518373	0.506069	-0.233280
C80	C	-1.018373	1.006069	0.266720
C81	C	-1.518543	0.505816	-0.116504
C82	C	-1.018543	1.005816	0.383496
H83	H	-0.919442	0.628102	-0.627959
H84	H	-0.419442	1.128102	-0.127959
H85	H	-1.396571	1.105052	-0.628151
H86	H	-0.896571	1.605052	-0.128151
H87	H	-1.396541	0.627785	-0.907214
H88	H	-0.896541	1.127785	-0.407214
H89	H	-1.640452	0.384009	-0.907288
H90	H	-1.140452	0.884009	-0.407288
H91	H	-1.640491	1.105028	-0.384565
H92	H	-1.140491	1.605028	0.115435
O93	O	-1.651146	0.373341	-1.114804
O94	O	-1.151146	0.873341	-0.614804
C95	C	-1.784440	0.240028	-1.103258
C96	C	-1.284440	0.740028	-0.603258
C97	C	-1.710441	0.313962	-1.042942
C98	C	-1.210441	0.813962	-0.542942
H99	H	-1.832384	0.191986	-1.045183
H100	H	-1.332384	0.691986	-0.545183
H101	H	-1.839437	0.288199	-1.154606
H102	H	-1.339437	0.788199	-0.654606
H103	H	-1.736218	0.185111	-1.154649
H104	H	-1.236218	0.685111	-0.654649
H105	H	-1.758578	0.368894	-0.991493
H106	H	-1.258578	0.868894	-0.491493
H107	H	-1.655441	0.265726	-0.991659
H108	H	-1.155441	0.765726	-0.491659
H109	H	-1.118489	0.628099	-0.627928
H110	H	-0.618489	1.128099	-0.127928
O111	O	-1.386182	0.638376	-1.114939
O112	O	-0.886182	1.138376	-0.614939
C113	C	-1.372023	0.780134	-1.238848
C114	C	-0.872023	1.280134	-0.738848
C115	C	-1.445902	0.706201	-1.178513
C116	C	-0.945902	1.206201	-0.678513
H117	H	-1.420276	0.834975	-1.290278
H118	H	-0.920276	1.334975	-0.790278
H119	H	-1.323988	0.828249	-1.180824
H120	H	-0.823988	1.328249	-0.680824
H121	H	-1.317096	0.731854	-1.290168
H122	H	-0.817096	1.231854	-0.790168
H123	H	-1.500893	0.754400	-1.127192
H124	H	-1.000893	1.254400	-0.627192
H125	H	-1.493863	0.658082	-1.236594
H126	H	-0.993863	1.158082	-0.736594
O127	O	-0.910571	0.373527	-0.374062
O128	O	-0.410571	0.873527	0.125938
C129	C	-0.741521	0.313856	-0.314674
C130	C	-0.241521	0.813856	0.185326
C131	C	-0.801946	0.387823	-0.388452
C132	C	-0.301946	0.887823	0.111548
H133	H	-0.653687	0.325373	-0.326298
H134	H	-0.153687	0.825373	0.173702
H135	H	-0.762968	0.332197	-0.229900
H136	H	-0.262968	0.832197	0.270100
H137	H	-0.763185	0.229174	-0.333258
H138	H	-0.263185	0.729174	0.166742
H139	H	-0.780314	0.472530	-0.369963
H140	H	-0.280314	0.972530	0.130037
H141	H	-0.780493	0.369391	-0.473204
H142	H	-0.280493	0.869391	0.026796
O143	O	-1.126880	0.373383	-0.373896
O144	O	-0.626880	0.873383	0.126104
C145	C	-1.115271	0.239887	-0.240877
C146	C	-0.615271	0.739887	0.259123
C147	C	-1.054990	0.313898	-0.314714
C148	C	-0.554990	0.813898	0.185286
H149	H	-1.057174	0.191758	-0.193025
H150	H	-0.557174	0.691758	0.306975
H151	H	-1.166576	0.288003	-0.185787
H152	H	-0.666576	0.788003	0.314213
H153	H	-1.166703	0.185054	-0.289220
H154	H	-0.666703	0.685054	0.210780
H155	H	-1.003501	0.368746	-0.266455
H156	H	-0.503501	0.868746	0.233545
H157	H	-1.003751	0.265717	-0.369807
H158	H	-0.503751	0.765717	0.130193
H159	H	-1.640365	0.905980	-0.384483
H160	H	-1.140365	1.405980	0.115517
H161	H	-1.396445	0.905982	-0.628089
H162	H	-0.896445	1.405982	-0.128089
