data_functionalizedCrystal
_audit_creation_method	'MofGen! by Chris Wilmer'
_symmetry_space_group_name_H-M	'P1'
_symmetry_Int_Tables_number	1
_symmetry_cell_setting	triclinic
loop_
_symmetry_equiv_pos_as_xyz
  x,y,z
_cell_length_a	17.077404
_cell_length_b	21.395361
_cell_length_c	17.077396
_cell_angle_alpha	89.966749
_cell_angle_beta	89.980499
_cell_angle_gamma	90.030933
loop_
_atom_site_label
_atom_site_type_symbol
_atom_site_fract_x
_atom_site_fract_y
_atom_site_fract_z
Zn1	Zn	1.200012	-0.249435	-0.443817
Zn2	Zn	1.199901	-0.354216	-0.312540
Zn3	Zn	1.068744	-0.249457	-0.312565
Zn4	Zn	1.068694	-0.354179	-0.443763
O5	O	1.134338	-0.301822	-0.378171
O6	O	1.309844	-0.263341	-0.426414
O7	O	1.182477	-0.340344	-0.202696
O8	O	1.086224	-0.161776	-0.330008
O9	O	1.309763	-0.340323	-0.329966
O10	O	1.182666	-0.161760	-0.426439
O11	O	1.086117	-0.263378	-0.202714
O12	O	0.958890	-0.263342	-0.329957
O13	O	1.086139	-0.340260	-0.553617
O14	O	0.958854	-0.340281	-0.426348
O15	O	1.182618	-0.263305	-0.553657
O16	O	1.182429	-0.441889	-0.329914
O17	O	1.086031	-0.441862	-0.426324
C18	C	0.930390	-0.301810	-0.378149
C19	C	0.843140	-0.301821	-0.378159
C20	C	0.802151	-0.341943	-0.428269
C21	C	0.720171	-0.341944	-0.428282
C22	C	0.679181	-0.301826	-0.378179
C23	C	0.720175	-0.261699	-0.328067
C24	C	0.802154	-0.261695	-0.328059
C25	C	0.549305	-0.261711	-0.328086
C26	C	0.467320	-0.261716	-0.328092
C27	C	0.467322	-0.341961	-0.428309
C28	C	0.549301	-0.341957	-0.428301
C29	C	0.590290	-0.301830	-0.378187
C30	C	1.134234	-0.464609	-0.378127
C31	C	1.134262	-0.534251	-0.378135
C32	C	1.184500	-0.566957	-0.327986
C33	C	1.184537	-0.632392	-0.328004
C34	C	1.134321	-0.665119	-0.378162
C35	C	1.084078	-0.632404	-0.428321
C36	C	1.084049	-0.566970	-0.428307
C37	C	1.063641	-0.768833	-0.384313
C38	C	1.063669	-0.834266	-0.384321
C39	C	1.134412	-0.866940	-0.378208
C40	C	1.205129	-0.834172	-0.372070
C41	C	1.205099	-0.768738	-0.372057
C42	C	1.134347	-0.736071	-0.378182
C43	C	1.184694	-0.970599	-0.328075
C44	C	1.184732	-1.036035	-0.328098
C45	C	1.084267	-1.036046	-0.428411
C46	C	1.084236	-0.970611	-0.428392
C47	C	1.134449	-0.937891	-0.378220
C48	C	1.339082	-0.301833	-0.378193
C49	C	1.426332	-0.301839	-0.378203
C50	C	1.134385	-0.301775	-0.582915
C51	C	1.134405	-0.301756	-0.670165
C52	C	1.134463	-0.138398	-0.378232
C53	C	1.134517	-0.068757	-0.378258
C54	C	1.184644	-0.261682	-0.711177
C55	C	1.184653	-0.261661	-0.793158
C56	C	1.134428	-0.301718	-0.834125
C57	C	1.084184	-0.341793	-0.793107
C58	C	1.084171	-0.341811	-0.711128
C59	C	1.084215	-0.341756	-0.963977
C60	C	1.084229	-0.341739	-1.045962
C61	C	1.184698	-0.261606	-1.046007
C62	C	1.184685	-0.261623	-0.964028
C63	C	1.134442	-0.301700	-0.923016
C64	C	1.134336	-0.301822	-0.174223
C65	C	1.134467	-0.301666	-0.086974
H66	H	0.835520	-0.374614	-0.469066
Cl67	Cl	1.247636	-0.525827	-0.264924
Cl68	Cl	1.247792	-0.211325	-0.659684
H69	H	1.006087	-0.860941	-0.389311
Cl70	Cl	0.668646	-0.392387	-0.491281
Cl71	Cl	0.600831	-0.392396	-0.491282
Cl72	Cl	1.293996	-0.727546	-0.364348
Cl73	Cl	1.247861	-0.211225	-1.097564
H74	H	1.043329	-0.374356	-1.079315
Cl75	Cl	1.021009	-0.392189	-0.659570
Cl76	Cl	1.021051	-0.392138	-0.912421
Cl77	Cl	0.853683	-0.211251	-0.265062
Cl78	Cl	1.021072	-0.929491	-0.491437
H79	H	0.433945	-0.374631	-0.469115
Cl80	Cl	0.415791	-0.211283	-0.265102
H81	H	1.262734	-0.860773	-0.367092
H82	H	0.582676	-0.229031	-0.287285
H83	H	1.043138	-0.540340	-0.469145
H84	H	0.686794	-0.229031	-0.287276
H85	H	1.225564	-0.229030	-0.826546
Cl86	Cl	1.247831	-0.211270	-0.912527
Cl87	Cl	1.021040	-0.392148	-0.844609
H88	H	1.006029	-0.742237	-0.389295
H89	H	1.225450	-0.659027	-0.287166
H90	H	1.043383	-1.062691	-0.469255
Cl91	Cl	1.247817	-0.929462	-0.265003
H92	H	1.225647	-1.062664	-0.287263
H93	H	1.043194	-0.659054	-0.469161
