data_functionalizedCrystal
_audit_creation_method	'MofGen! by Chris Wilmer'
_symmetry_space_group_name_H-M	'P1'
_symmetry_Int_Tables_number	1
_symmetry_cell_setting	triclinic
loop_
_symmetry_equiv_pos_as_xyz
  x,y,z
_cell_length_a	12.759401
_cell_length_b	17.077402
_cell_length_c	12.759393
_cell_angle_alpha	89.965312
_cell_angle_beta	89.979062
_cell_angle_gamma	90.024408
loop_
_atom_site_label
_atom_site_type_symbol
_atom_site_fract_x
_atom_site_fract_y
_atom_site_fract_z
Zn1	Zn	1.606207	-0.312438	-0.593990
Zn2	Zn	2.106207	0.187562	-0.093990
Zn3	Zn	1.606073	-0.443724	-0.418297
Zn4	Zn	2.106073	0.056276	0.081703
Zn5	Zn	1.430505	-0.312480	-0.418325
Zn6	Zn	1.930505	0.187520	0.081675
Zn7	Zn	1.430472	-0.443669	-0.593934
Zn8	Zn	1.930472	0.056331	-0.093934
O9	O	1.518314	-0.378078	-0.506136
O10	O	2.018314	0.121922	-0.006136
O11	O	1.753210	-0.329859	-0.570695
O12	O	2.253210	0.170141	-0.070695
O13	O	1.582741	-0.426355	-0.271279
O14	O	2.082741	0.073645	0.228721
O15	O	1.453882	-0.202628	-0.441662
O16	O	1.953882	0.297372	0.058338
O17	O	1.753111	-0.426314	-0.441614
O18	O	2.253111	0.073686	0.058386
O19	O	1.582969	-0.202597	-0.570722
O20	O	2.082969	0.297403	-0.070722
O21	O	1.453753	-0.329930	-0.271300
O22	O	1.953753	0.170070	0.228700
O23	O	1.283480	-0.329877	-0.441608
O24	O	1.783480	0.170123	0.058392
O25	O	1.453826	-0.426221	-0.740962
O26	O	1.953826	0.073779	-0.240962
O27	O	1.283456	-0.426261	-0.570627
O28	O	1.783456	0.073739	-0.070627
O29	O	1.582937	-0.329806	-0.741003
O30	O	2.082937	0.170194	-0.241003
O31	O	1.582709	-0.553564	-0.441560
O32	O	2.082709	-0.053564	0.058440
O33	O	1.453696	-0.553524	-0.570600
O34	O	1.953696	-0.053524	-0.070600
C35	C	1.245347	-0.378068	-0.506115
C36	C	1.745347	0.121932	-0.006115
C37	C	1.128570	-0.378083	-0.506131
C38	C	1.628570	0.121917	-0.006131
C39	C	1.518213	-0.582026	-0.506094
C40	C	2.018213	-0.082026	-0.006094
C41	C	1.518266	-0.669276	-0.506111
C42	C	2.018266	-0.169276	-0.006111
C43	C	1.073723	-0.428347	-0.573206
C44	C	1.573723	0.071653	-0.073206
C45	C	0.963999	-0.428350	-0.573227
C46	C	1.463999	0.071650	-0.073227
C47	C	0.963979	-0.327823	-0.439089
C48	C	1.463979	0.172177	0.060911
C49	C	1.073701	-0.327817	-0.439075
C50	C	1.573701	0.172183	0.060925
C51	C	1.585511	-0.710261	-0.438993
C52	C	2.085511	-0.210261	0.061007
C53	C	1.585563	-0.792241	-0.439019
C54	C	2.085563	-0.292241	0.060981
C55	C	1.518362	-0.833235	-0.506161
C56	C	2.018362	-0.333235	-0.006161
C57	C	1.451114	-0.792244	-0.573287
C58	C	1.951114	-0.292244	-0.073287
C59	C	1.451068	-0.710265	-0.573265
C60	C	1.951068	-0.210265	-0.073265
C61	C	1.451211	-0.963114	-0.573327
C62	C	1.951211	-0.463114	-0.073327
C63	C	1.451255	-1.045099	-0.573348
C64	C	1.951255	-0.545099	-0.073348
C65	C	1.585705	-1.045090	-0.439082
C66	C	2.085705	-0.545090	0.060918
C67	C	1.585660	-0.963111	-0.439059
C68	C	2.085660	-0.463111	0.060941
C69	C	1.518410	-0.922126	-0.506184
C70	C	2.018410	-0.422126	-0.006184
C71	C	1.792347	-0.378088	-0.506158
C72	C	2.292347	0.121912	-0.006158
C73	C	1.909124	-0.378093	-0.506167
C74	C	2.409124	0.121907	-0.006167
C75	C	1.518393	-0.378003	-0.780170
C76	C	2.018393	0.121997	-0.280170
C77	C	1.518426	-0.377971	-0.896946
C78	C	2.018426	0.122029	-0.396946
C79	C	1.518445	-0.173334	-0.506201
C80	C	2.018445	0.326666	-0.006201
C81	C	1.518500	-0.086084	-0.506229
C82	C	2.018500	0.413916	-0.006229
C83	C	1.585660	-0.327759	-0.951831
C84	C	2.085660	0.172241	-0.451831
C85	C	1.585677	-0.327725	-1.061555
C86	C	2.085677	0.172275	-0.561555
C87	C	1.451226	-0.428121	-1.061500
C88	C	1.951226	0.071879	-0.561500
C89	C	1.451203	-0.428150	-0.951778
C90	C	1.951203	0.071850	-0.451778
C91	C	1.518296	-0.378096	-0.233169
C92	C	2.018296	0.121904	0.266831
C93	C	1.518466	-0.377907	-0.116393
C94	C	2.018466	0.122093	0.383607
H95	H	0.919347	-0.469279	-0.627847
H96	H	1.419347	0.030721	-0.127847
C97	C	0.903624	-0.272538	-0.365325
C98	C	1.403624	0.227462	0.134675
H99	H	0.952007	-0.242596	-0.325383
H100	H	1.452007	0.257404	0.174617
H101	H	0.860785	-0.302526	-0.319481
H102	H	1.360785	0.197474	0.180519
H103	H	0.860859	-0.238372	-0.405611
H104	H	1.360859	0.261628	0.094389
H105	H	1.640424	-0.286837	-1.106238
H106	H	2.140424	0.213163	-0.606238
H107	H	1.118394	-0.469275	-0.627811
H108	H	1.618394	0.030725	-0.127811
H109	H	1.396497	-0.468977	-1.106157
H110	H	1.896497	0.031023	-0.606157
H111	H	1.118359	-0.286881	-0.384454
H112	H	1.618359	0.213119	0.115546
C113	C	1.659434	-0.665175	-0.365138
C114	C	2.159434	-0.165175	0.134862
H115	H	1.699497	-0.701328	-0.325176
H116	H	2.199497	-0.201328	0.174824
H117	H	1.619256	-0.633246	-0.319315
H118	H	2.119256	-0.133246	0.180685
H119	H	1.705176	-0.633144	-0.405368
H120	H	2.205176	-0.133144	0.094632
H121	H	1.396447	-0.469038	-0.907090
H122	H	1.896447	0.030962	-0.407090
C123	C	1.659528	-0.837322	-0.365183
C124	C	2.159528	-0.337322	0.134817
H125	H	1.699533	-0.801166	-0.325184
H126	H	2.199533	-0.301166	0.174816
H127	H	1.705306	-0.869248	-0.405416
H128	H	2.205306	-0.369248	0.094584
H129	H	1.619370	-0.869354	-0.319379
H130	H	2.119370	-0.369354	0.180621
C131	C	1.659667	-1.090170	-0.365233
C132	C	2.159667	-0.590170	0.134767
H133	H	1.650075	-1.144865	-0.374864
H134	H	2.150075	-0.644865	0.125136
H135	H	1.644302	-1.076782	-0.294631
H136	H	2.144302	-0.576782	0.205369
H137	H	1.730251	-1.076685	-0.380655
H138	H	2.230251	-0.576685	0.119345
H139	H	1.640374	-0.929734	-0.384383
H140	H	2.140374	-0.429734	0.115617
H141	H	1.396554	-1.078474	-0.628040
H142	H	1.896554	-0.578474	-0.128040
C143	C	1.377241	-0.918032	-0.647167
C144	C	1.877241	-0.418032	-0.147167
H145	H	1.337219	-0.954186	-0.687151
H146	H	1.837219	-0.454186	-0.187151
H147	H	1.417391	-0.886000	-0.692970
H148	H	1.917391	-0.386000	-0.192970
H149	H	1.331463	-0.886105	-0.606924
H150	H	1.831463	-0.386105	-0.106924
C151	C	1.377100	-0.665182	-0.647097
C152	C	1.877100	-0.165182	-0.147097
H153	H	1.337079	-0.701336	-0.687082
H154	H	1.837079	-0.201336	-0.187082
H155	H	1.417252	-0.633151	-0.692899
H156	H	1.917252	-0.133151	-0.192899
H157	H	1.331321	-0.633254	-0.606857
H158	H	1.831321	-0.133254	-0.106857
C159	C	1.659592	-0.272560	-0.891515
C160	C	2.159592	0.227440	-0.391515
H161	H	1.649958	-0.279772	-0.818307
H162	H	2.149958	0.220228	-0.318307
H163	H	1.644255	-0.219813	-0.909512
H164	H	2.144255	0.280187	-0.409512
H165	H	1.730182	-0.284052	-0.909506
H166	H	2.230182	0.215948	-0.409506
H167	H	1.396402	-0.825628	-0.627959
H168	H	1.896402	-0.325628	-0.127959
