data_functionalizedCrystal
_audit_creation_method	'MofGen! by Chris Wilmer'
_symmetry_space_group_name_H-M	'P1'
_symmetry_Int_Tables_number	1
_symmetry_cell_setting	triclinic
loop_
_symmetry_equiv_pos_as_xyz
  x,y,z
_cell_length_a	17.077402
_cell_length_b	17.077404
_cell_length_c	17.077396
_cell_angle_alpha	89.979055
_cell_angle_beta	90.029784
_cell_angle_gamma	89.983638
loop_
_atom_site_label
_atom_site_type_symbol
_atom_site_fract_x
_atom_site_fract_y
_atom_site_fract_z
Zn1	Zn	-0.312645	-1.200055	0.443866
Zn2	Zn	-0.443920	-1.199962	0.312597
Zn3	Zn	-0.312657	-1.068786	0.312610
Zn4	Zn	-0.443858	-1.068754	0.443817
O5	O	-0.378270	-1.134389	0.378223
O6	O	-0.330079	-1.309889	0.426467
O7	O	-0.426538	-1.182536	0.202752
O8	O	-0.202808	-1.086252	0.330048
O9	O	-0.426527	-1.309821	0.330025
O10	O	-0.202799	-1.182694	0.426481
O11	O	-0.330100	-1.086162	0.202762
O12	O	-0.330040	-0.958935	0.330001
O13	O	-0.426421	-1.086197	0.553671
O14	O	-0.426433	-0.958912	0.426398
O15	O	-0.330019	-1.182663	0.553706
O16	O	-0.553758	-1.182504	0.329977
O17	O	-0.553713	-1.086107	0.426384
C18	C	-0.378231	-0.930441	0.378196
C19	C	-0.378234	-0.843192	0.378203
C20	C	-0.428551	-0.467386	0.428346
C21	C	-0.428544	-0.549366	0.428336
C22	C	-0.378272	-0.590343	0.378224
C23	C	-0.328011	-0.549335	0.328113
C24	C	-0.328023	-0.467356	0.328120
C25	C	-0.327988	-0.720205	0.328104
C26	C	-0.327974	-0.802189	0.328098
C27	C	-0.428509	-0.802215	0.428320
C28	C	-0.428521	-0.720236	0.428327
C29	C	-0.378258	-0.679234	0.378217
C30	C	-0.582218	-1.134314	0.378191
C31	C	-0.669467	-1.134353	0.378204
C32	C	-0.710455	-1.184598	0.328059
C33	C	-0.792436	-1.184637	0.328079
C34	C	-0.833427	-1.134425	0.378241
C35	C	-0.792433	-1.084178	0.428391
C36	C	-0.710454	-1.084144	0.428375
C37	C	-0.963303	-1.084250	0.428421
C38	C	-1.045288	-1.084283	0.428437
C39	C	-1.045285	-1.184743	0.328125
C40	C	-0.963306	-1.184709	0.328109
C41	C	-0.922318	-1.134461	0.378259
C42	C	-0.173525	-1.134487	0.378271
C43	C	-0.086276	-1.134528	0.378292
C44	C	-0.378212	-1.134437	0.582967
C45	C	-0.378187	-1.134457	0.670217
C46	C	-0.378300	-0.339134	0.378245
C47	C	-0.378292	-0.426383	0.378241
C48	C	-0.378271	-1.134387	0.174275
C49	C	-0.378074	-1.134519	0.087025
C50	C	-0.327987	-1.184689	0.711227
C51	C	-0.327961	-1.184698	0.793207
C52	C	-0.378139	-1.134479	0.834176
C53	C	-0.428342	-1.084242	0.793160
C54	C	-0.428364	-1.084229	0.711181
C55	C	-0.428295	-1.084274	0.964031
C56	C	-0.428275	-1.084288	1.046015
C57	C	-0.327892	-1.184742	1.046056
C58	C	-0.327913	-1.184730	0.964077
C59	C	-0.378117	-1.134493	0.923067
H60	H	-0.469453	-0.686875	0.469136
O61	O	-0.279063	-0.842025	0.279523
C62	C	-0.228418	-0.889487	0.324292
H63	H	-0.223644	-0.864813	0.386127
H64	H	-0.167976	-0.890411	0.296001
H65	H	-0.252681	-0.951616	0.326948
O66	O	-0.923398	-1.233520	0.279490
C67	C	-0.875924	-1.284184	0.324223
H68	H	-0.863626	-1.256460	0.383684
H69	H	-0.818288	-1.294693	0.292251
H70	H	-0.907467	-1.342367	0.332905
H71	H	-0.287058	-1.225626	0.930723
H72	H	-0.287057	-0.686823	0.287300
O73	O	-0.279288	-0.589226	0.279395
C74	C	-0.323908	-0.636604	0.228599
H75	H	-0.383430	-0.648886	0.256176
H76	H	-0.291913	-0.694253	0.218136
H77	H	-0.332461	-0.604985	0.170413
H78	H	-0.929933	-1.043335	0.469261
O79	O	-1.085076	-1.035600	0.477281
C80	C	-1.064967	-1.052700	0.555527
H81	H	-1.042378	-1.115396	0.559536
H82	H	-1.118861	-1.045951	0.594308
H83	H	-1.017403	-1.010581	0.576009
H84	H	-0.287013	-1.225645	1.079451
H85	H	-0.469484	-0.434028	0.469158
O86	O	-0.279125	-0.427645	0.279424
C87	C	-0.234764	-0.481389	0.235178
H88	H	-0.232077	-0.539841	0.267331
H89	H	-0.172911	-0.457706	0.226917
H90	H	-0.263432	-0.490079	0.175509
O91	O	-0.477169	-1.035549	0.671251
C92	C	-0.527898	-1.080214	0.623842
H93	H	-0.500226	-1.139714	0.611587
H94	H	-0.538423	-1.048231	0.566181
H95	H	-0.586066	-1.088815	0.655419
O96	O	-0.477039	-1.035429	1.085693
C97	C	-0.521364	-0.991095	1.031919
H98	H	-0.489228	-0.988381	0.973489
H99	H	-0.529712	-0.929248	1.055596
H100	H	-0.580992	-1.019804	1.023191
H101	H	-0.469472	-0.582746	0.469135
O102	O	-0.477228	-0.842124	0.477036
C103	C	-0.432594	-0.889559	0.527824
H104	H	-0.373072	-0.901842	0.500241
H105	H	-0.464576	-0.947205	0.538286
H106	H	-0.424042	-0.857991	0.586012
H107	H	-0.677086	-1.225483	0.287208
H108	H	-0.825804	-1.225551	0.287245
H109	H	-0.287128	-1.225585	0.677876
H110	H	-1.078661	-1.225660	0.287294
H111	H	-0.287084	-1.225603	0.826594
H112	H	-0.469196	-1.043350	0.826524
H113	H	-0.469164	-1.043354	0.930643
H114	H	-0.825815	-1.043298	0.469238
H115	H	-0.677083	-1.043230	0.469209
