data_functionalizedCrystal
_audit_creation_method	'MofGen! by Chris Wilmer'
_symmetry_space_group_name_H-M	'P1'
_symmetry_Int_Tables_number	1
_symmetry_cell_setting	triclinic
loop_
_symmetry_equiv_pos_as_xyz
  x,y,z
_cell_length_a	17.077404
_cell_length_b	17.077402
_cell_length_c	17.077404
_cell_angle_alpha	90.011362
_cell_angle_beta	90.004806
_cell_angle_gamma	90.021463
loop_
_atom_site_label
_atom_site_type_symbol
_atom_site_fract_x
_atom_site_fract_y
_atom_site_fract_z
Zn1	Zn	1.199946	-0.312676	0.443824
Zn2	Zn	1.199883	-0.443914	0.312560
Zn3	Zn	1.068709	-0.312661	0.312574
Zn4	Zn	1.068645	-0.443899	0.443786
O5	O	1.134296	-0.378287	0.378186
O6	O	1.309785	-0.330097	0.426421
O7	O	1.182483	-0.426503	0.202715
O8	O	1.086171	-0.202816	0.330007
O9	O	1.309738	-0.426517	0.329982
O10	O	1.182591	-0.202827	0.426435
O11	O	1.086110	-0.330072	0.202726
O12	O	0.958854	-0.330058	0.329970
O13	O	1.086062	-0.426492	0.553638
O14	O	0.958806	-0.426478	0.426371
O15	O	1.182528	-0.330083	0.553666
O16	O	1.182421	-0.553759	0.329946
O17	O	1.086000	-0.553748	0.426357
C18	C	0.930348	-0.378265	0.378168
C19	C	0.843098	-0.378275	0.378180
C20	C	0.802133	-0.328158	0.428472
C21	C	0.720152	-0.328163	0.428476
C22	C	0.679139	-0.378289	0.378190
C23	C	0.720110	-0.428408	0.327892
C24	C	0.802089	-0.428398	0.327885
C25	C	0.549240	-0.428426	0.327912
C26	C	0.467255	-0.428437	0.327920
C27	C	0.467303	-0.328191	0.428502
C28	C	0.549282	-0.328181	0.428495
C29	C	0.590248	-0.378301	0.378198
C30	C	1.134218	-0.582235	0.378163
C31	C	1.134256	-0.669485	0.378179
C32	C	1.184434	-0.710413	0.428430
C33	C	1.184467	-0.792394	0.428446
C34	C	1.134326	-0.833445	0.378208
C35	C	1.084142	-0.792511	0.327955
C36	C	1.084106	-0.710532	0.327943
C37	C	1.084223	-0.963381	0.327982
C38	C	1.084260	-1.045365	0.327993
C39	C	1.184584	-1.045243	0.428486
C40	C	1.184548	-0.963264	0.428474
C41	C	1.134365	-0.922336	0.378220
C42	C	1.339040	-0.378310	0.378204
C43	C	1.426290	-0.378320	0.378212
C44	C	1.134295	-0.378287	0.582930
C45	C	1.134294	-0.378287	0.670180
C46	C	1.134395	-0.173543	0.378227
C47	C	1.134438	-0.086293	0.378244
C48	C	1.084120	-0.328082	0.711175
C49	C	1.084117	-0.328089	0.793156
C50	C	1.134292	-0.378297	0.834140
C51	C	1.184469	-0.428508	0.793139
C52	C	1.184467	-0.428505	0.711160
C53	C	1.184469	-0.428510	0.964009
C54	C	1.184471	-0.428512	1.045993
C55	C	1.084118	-0.328093	1.046005
C56	C	1.084117	-0.328090	0.964026
C57	C	1.134295	-0.378300	0.923031
C58	C	1.134292	-0.378305	1.174238
C59	C	1.134297	-0.378307	1.086988
H60	H	0.433946	-0.287380	0.469454
C61	C	1.028910	-0.665506	0.272665
C62	C	1.035392	-0.676798	0.183435
C63	C	0.980192	-0.631774	0.128159
C64	C	0.918511	-0.575457	0.162113
C65	C	0.912027	-0.564162	0.251348
C66	C	0.967227	-0.609187	0.306624
H67	H	1.081055	-0.718490	0.158296
H68	H	0.984993	-0.640135	0.062102
H69	H	0.877649	-0.542127	0.121195
H70	H	0.866364	-0.522470	0.276487
H71	H	0.962426	-0.600825	0.372682
C72	C	0.422134	-0.483565	0.272600
C73	C	0.433382	-0.477003	0.183373
C74	C	0.388258	-0.532130	0.128052
C75	C	0.331887	-0.593818	0.161957
C76	C	0.320637	-0.600383	0.251188
C77	C	0.365760	-0.545256	0.306509
H78	H	0.475113	-0.431335	0.158271
H79	H	0.396587	-0.527270	0.061997
H80	H	0.298484	-0.634626	0.121005
H81	H	0.278905	-0.646050	0.276291
H82	H	0.357431	-0.550116	0.372564
H83	H	0.686802	-0.287355	0.469430
H84	H	0.835441	-0.469208	0.286931
H85	H	0.582591	-0.469237	0.286952
H86	H	1.043427	-1.078786	0.287088
H87	H	1.225269	-0.676995	0.469336
C88	C	1.239670	-0.837410	0.483721
C89	C	1.328906	-0.826064	0.477383
C90	C	1.384113	-0.871077	0.532661
C91	C	1.350084	-0.927437	0.594278
C92	C	1.260843	-0.938786	0.600618
C93	C	1.205637	-0.893772	0.545340
H94	H	1.354101	-0.784340	0.431769
H95	H	1.450174	-0.862676	0.527967
H96	H	1.390951	-0.960759	0.635198
H97	H	1.235649	-0.980509	0.646233
H98	H	1.139575	-0.902174	0.550034
H99	H	0.686710	-0.469218	0.286945
H100	H	1.225381	-0.929840	0.469378
H101	H	1.225444	-1.078571	0.469405
C102	C	1.028925	-0.272860	0.918943
C103	C	1.035372	-0.183624	0.930234
C104	C	0.980177	-0.128395	0.885152
C105	C	0.918534	-0.162402	0.828779
C106	C	0.912084	-0.251642	0.817486
C107	C	0.967279	-0.306872	0.862568
H108	H	1.081006	-0.158446	0.971967
H109	H	0.984952	-0.062333	0.893513
H110	H	0.877675	-0.121518	0.795407
H111	H	0.866450	-0.276820	0.775753
H112	H	0.962504	-0.372934	0.854207
H113	H	1.043355	-0.930059	0.287063
C114	C	1.028986	-0.837666	0.272691
C115	C	1.063079	-0.894014	0.211101
C116	C	1.007924	-0.939168	0.155834
C117	C	0.918676	-0.927974	0.162158
C118	C	0.884578	-0.871623	0.223751
C119	C	0.939733	-0.826469	0.279018
H120	H	1.129149	-0.902303	0.206418
H121	H	1.033165	-0.980883	0.110239
H122	H	0.877847	-0.961400	0.121246
H123	H	0.818508	-0.863334	0.228434
H124	H	0.914492	-0.784754	0.324613
H125	H	1.043257	-0.287209	0.826530
H126	H	1.043266	-0.287192	0.677812
C127	C	1.028917	-0.272863	1.091093
C128	C	0.967265	-0.306868	1.147433
C129	C	0.912069	-0.251636	1.192523
C130	C	0.918525	-0.162400	1.181274
C131	C	0.980179	-0.128391	1.124931
C132	C	1.035376	-0.183623	1.079841
H133	H	0.962483	-0.372930	1.155762
H134	H	0.866428	-0.276813	1.234232
H135	H	0.877665	-0.121515	1.214652
H136	H	0.984961	-0.062329	1.116601
H137	H	1.081017	-0.158446	1.038132
H138	H	1.225318	-0.469392	0.826514
H139	H	1.225328	-0.469396	1.079360
H140	H	1.225336	-0.469389	0.930633
H141	H	1.225330	-0.469381	0.677783
H142	H	0.582674	-0.287368	0.469446
C143	C	0.847244	-0.273017	0.483788
C144	C	0.802179	-0.217887	0.539105
C145	C	0.847288	-0.162742	0.594420
C146	C	0.937462	-0.162729	0.594419
C147	C	0.982532	-0.217861	0.539100
C148	C	0.937423	-0.273006	0.483784
H149	H	0.735423	-0.217895	0.539108
H150	H	0.813924	-0.121929	0.635371
H151	H	0.970854	-0.121907	0.635366
H152	H	1.049288	-0.217853	0.539097
H153	H	0.970787	-0.313819	0.442833
