data_functionalizedCrystal
_audit_creation_method	'MofGen! by Chris Wilmer'
_symmetry_space_group_name_H-M	'P1'
_symmetry_Int_Tables_number	1
_symmetry_cell_setting	triclinic
loop_
_symmetry_equiv_pos_as_xyz
  x,y,z
_cell_length_a	17.077404
_cell_length_b	17.077402
_cell_length_c	17.077396
_cell_angle_alpha	89.968612
_cell_angle_beta	89.982940
_cell_angle_gamma	90.023108
loop_
_atom_site_label
_atom_site_type_symbol
_atom_site_fract_x
_atom_site_fract_y
_atom_site_fract_z
Zn1	Zn	1.200036	-0.312491	-0.443836
Zn2	Zn	1.700036	0.187509	0.056164
Zn3	Zn	1.199948	-0.443770	-0.312567
Zn4	Zn	1.699948	0.056230	0.187433
Zn5	Zn	1.068773	-0.312522	-0.312584
Zn6	Zn	1.568773	0.187478	0.187416
Zn7	Zn	1.068736	-0.443719	-0.443790
Zn8	Zn	1.568736	0.056281	0.056210
O9	O	1.134373	-0.378126	-0.378194
O10	O	1.634373	0.121874	0.121806
O11	O	1.309871	-0.329913	-0.426434
O12	O	1.809871	0.170087	0.073566
O13	O	1.182527	-0.426393	-0.202722
O14	O	1.682527	0.073607	0.297278
O15	O	1.086238	-0.202671	-0.330021
O16	O	1.586238	0.297329	0.169979
O17	O	1.309807	-0.426363	-0.329992
O18	O	1.809807	0.073637	0.170008
O19	O	1.182676	-0.202648	-0.426451
O20	O	1.682676	0.297352	0.073549
O21	O	1.086153	-0.329967	-0.202734
O22	O	1.586153	0.170033	0.297266
O23	O	0.958921	-0.329918	-0.329976
O24	O	1.458921	0.170082	0.170024
O25	O	1.086174	-0.426277	-0.553643
O26	O	1.586174	0.073723	-0.053643
O27	O	0.958894	-0.426308	-0.426373
O28	O	1.458894	0.073692	0.073627
O29	O	1.182639	-0.329865	-0.553677
O30	O	1.682639	0.170135	-0.053677
O31	O	1.182490	-0.553610	-0.329948
O32	O	1.682490	-0.053610	0.170052
O33	O	1.086089	-0.553573	-0.426357
O34	O	1.586089	-0.053573	0.073643
C35	C	0.930425	-0.378111	-0.378172
C36	C	1.430425	0.121889	0.121828
C37	C	0.843176	-0.378124	-0.378182
C38	C	1.343176	0.121876	0.121818
C39	C	0.802192	-0.428390	-0.428295
C40	C	1.302192	0.071610	0.071705
C41	C	0.720211	-0.428392	-0.428308
C42	C	1.220211	0.071608	0.071692
C43	C	0.679216	-0.378131	-0.378202
C44	C	1.179216	0.121869	0.121798
C45	C	0.720206	-0.327859	-0.328087
C46	C	1.220206	0.172141	0.171913
C47	C	0.802185	-0.327854	-0.328079
C48	C	1.302185	0.172146	0.171921
C49	C	0.549336	-0.327875	-0.328106
C50	C	1.049336	0.172125	0.171894
C51	C	0.467351	-0.327881	-0.328112
C52	C	0.967351	0.172119	0.171888
C53	C	0.467362	-0.428412	-0.428335
C54	C	0.967362	0.071588	0.071665
C55	C	0.549341	-0.428407	-0.428327
C56	C	1.049341	0.071593	0.071673
C57	C	0.590325	-0.378137	-0.378210
C58	C	1.090325	0.121863	0.121790
C59	C	1.134297	-0.582073	-0.378163
C60	C	1.634297	-0.082073	0.121837
C61	C	1.134337	-0.669323	-0.378176
C62	C	1.634337	-0.169323	0.121824
C63	C	1.184584	-0.710306	-0.328029
C64	C	1.684584	-0.210306	0.171971
C65	C	1.184623	-0.792287	-0.328049
C66	C	1.684623	-0.292287	0.171951
C67	C	1.134409	-0.833283	-0.378212
C68	C	1.634409	-0.333283	0.121788
C69	C	1.084159	-0.792294	-0.428364
C70	C	1.584159	-0.292294	0.071636
C71	C	1.084125	-0.710315	-0.428348
C72	C	1.584125	-0.210315	0.071652
C73	C	1.084232	-0.963164	-0.428394
C74	C	1.584232	-0.463164	0.071606
C75	C	1.084265	-1.045148	-0.428410
C76	C	1.584265	-0.545148	0.071590
C77	C	1.184729	-1.045136	-0.328096
C78	C	1.684729	-0.545136	0.171904
C79	C	1.184696	-0.963157	-0.328079
C80	C	1.684696	-0.463157	0.171921
C81	C	1.134444	-0.922174	-0.378230
C82	C	1.634444	-0.422174	0.121770
C83	C	1.339117	-0.378140	-0.378216
C84	C	1.839117	0.121860	0.121784
C85	C	1.426367	-0.378147	-0.378226
C86	C	1.926367	0.121853	0.121774
C87	C	1.134412	-0.378062	-0.582938
C88	C	1.634412	0.121938	-0.082938
C89	C	1.134429	-0.378035	-0.670188
C90	C	1.634429	0.121965	-0.170188
C91	C	1.134471	-0.173381	-0.378243
C92	C	1.634471	0.326619	0.121757
C93	C	1.134512	-0.086131	-0.378263
C94	C	1.634512	0.413869	0.121737
C95	C	1.184682	-0.428153	-1.045999
C96	C	1.684682	0.071847	-0.545999
C97	C	1.184662	-0.428176	-0.964018
C98	C	1.684662	0.071824	-0.464018
C99	C	1.134479	-0.377979	-0.923037
C100	C	1.634479	0.122021	-0.423037
C101	C	1.084307	-0.327763	-0.964041
C102	C	1.584307	0.172237	-0.464041
C103	C	1.084324	-0.327744	-1.046020
C104	C	1.584324	0.172256	-0.546020
C105	C	1.084278	-0.327803	-0.793171
C106	C	1.584278	0.172197	-0.293171
C107	C	1.084262	-0.327820	-0.711186
C108	C	1.584262	0.172180	-0.211186
C109	C	1.184616	-0.428235	-0.711169
C110	C	1.684616	0.071765	-0.211169
C111	C	1.184633	-0.428216	-0.793148
C112	C	1.684633	0.071784	-0.293148
C113	C	1.134461	-0.377998	-0.834146
C114	C	1.634461	0.122002	-0.334146
C115	C	1.134380	-0.378132	-0.174246
C116	C	1.634380	0.121868	0.325754
C117	C	1.134515	-0.377938	-0.086997
C118	C	1.634515	0.122062	0.413003
H119	H	0.582703	-0.286932	-0.287302
H120	H	1.082703	0.213068	0.212698
O121	O	0.427587	-0.477357	-0.476935
O122	O	0.927587	0.022643	0.023065
C123	C	0.447599	-0.555567	-0.459642
C124	C	0.947599	-0.055567	0.040358
H125	H	0.470109	-0.559445	-0.396922
H126	H	0.970109	-0.059445	0.103078
H127	H	0.393674	-0.594359	-0.466334
H128	H	0.893674	-0.094359	0.033666
H129	H	0.495193	-0.576142	-0.501683
H130	H	0.995193	-0.076142	-0.001683
H131	H	0.433975	-0.286945	-0.287321
H132	H	0.933975	0.213055	0.212679
H133	H	0.686821	-0.286933	-0.287293
H134	H	1.186821	0.213067	0.212707
H135	H	0.835553	-0.286918	-0.287275
H136	H	1.335553	0.213082	0.212725
H137	H	1.225539	-0.825652	-0.287214
H138	H	1.725539	-0.325652	0.212786
O139	O	1.233435	-0.670608	-0.279273
O140	O	1.733435	-0.170608	0.220727
C141	C	1.277778	-0.724365	-0.235003
C142	C	1.777778	-0.224365	0.264997
H143	H	1.280501	-0.782775	-0.267172
H144	H	1.780501	-0.282775	0.232828
H145	H	1.339621	-0.700635	-0.226679
H146	H	1.839621	-0.200635	0.273321
H147	H	1.249072	-0.733154	-0.175362
H148	H	1.749072	-0.233154	0.324638
O149	O	1.233546	-0.923454	-0.279326
O150	O	1.733546	-0.423454	0.220674
C151	C	1.277894	-0.977203	-0.235052
C152	C	1.777894	-0.477203	0.264948
H153	H	1.280618	-1.035617	-0.267215
H154	H	1.780618	-0.535617	0.232785
H155	H	1.339735	-0.953469	-0.226733
H156	H	1.839735	-0.453469	0.273267
H157	H	1.249190	-0.985987	-0.175410
H158	H	1.749190	-0.485987	0.324590
O159	O	1.035621	-0.278980	-0.671345
O160	O	1.535621	0.221020	-0.171345
C161	C	1.080321	-0.228303	-0.623932
C162	C	1.580321	0.271697	-0.123932
H163	H	1.142152	-0.223447	-0.648645
H164	H	1.642152	0.276553	-0.148645
H165	H	1.051953	-0.167894	-0.623018
H166	H	1.551953	0.332106	-0.123018
H167	H	1.083004	-0.252586	-0.561793
H168	H	1.583004	0.247414	-0.061793
H169	H	1.225648	-1.078508	-0.287263
H170	H	1.725648	-0.578508	0.212737
H171	H	1.043210	-0.676947	-0.469183
H172	H	1.543210	-0.176947	0.030817
H173	H	1.043391	-1.078525	-0.469272
H174	H	1.543391	-0.578525	0.030728
O175	O	1.035349	-0.923472	-0.477140
O176	O	1.535349	-0.423472	0.022860
C177	C	0.991050	-0.977233	-0.521434
C178	C	1.491050	-0.477233	-0.021434
H179	H	0.988371	-1.035696	-0.489289
H180	H	1.488371	-0.535696	0.010711
H181	H	0.929190	-0.953589	-0.529752
H182	H	1.429190	-0.453589	-0.029752
H183	H	1.019767	-0.985887	-0.581077
H184	H	1.519767	-0.485887	-0.081077
H185	H	0.686846	-0.469324	-0.469114
H186	H	1.186846	0.030676	0.030886
O187	O	1.035491	-0.832201	-0.477132
O188	O	1.535491	-0.332201	0.022868
C189	C	1.080170	-0.879535	-0.527893
C190	C	1.580170	-0.379535	-0.027893
H191	H	1.139680	-0.891788	-0.500265
H192	H	1.639680	-0.391788	-0.000265
H193	H	1.048213	-0.937201	-0.538393
H194	H	1.548213	-0.437201	-0.038393
H195	H	1.088745	-0.847892	-0.586068
H196	H	1.588745	-0.347892	-0.086068
O197	O	1.233456	-0.476988	-1.085683
O198	O	1.733456	0.023012	-0.585683
C199	C	1.277742	-0.521300	-1.031913
C200	C	1.777742	-0.021300	-0.531913
H201	H	1.245576	-0.524026	-0.973472
H202	H	1.745576	-0.024026	-0.473472
H203	H	1.286088	-0.583143	-1.055579
H204	H	1.786088	-0.083143	-0.555579
H205	H	1.337373	-0.492564	-1.023208
H206	H	1.837373	0.007436	-0.523208
H207	H	1.225503	-0.469075	-0.930641
H208	H	1.725503	0.030925	-0.430641
H209	H	1.225500	-0.469087	-0.826513
H210	H	1.725500	0.030913	-0.326513
O211	O	1.233275	-0.476997	-0.671227
O212	O	1.733275	0.023003	-0.171227
C213	C	1.222513	-0.466242	-0.590082
C214	C	1.722513	0.033758	-0.090082
H215	H	1.161944	-0.440531	-0.578888
H216	H	1.661944	0.059469	-0.078888
H217	H	1.227801	-0.525049	-0.558911
H218	H	1.727801	-0.025049	-0.058911
H219	H	1.269089	-0.424450	-0.566833
H220	H	1.769089	0.075550	-0.066833
O221	O	1.035517	-0.278947	-0.832876
O222	O	1.535517	0.221053	-0.332876
C223	C	0.991208	-0.234658	-0.779129
C224	C	1.491208	0.265342	-0.279129
H225	H	1.023350	-0.231958	-0.720695
H226	H	1.523350	0.268042	-0.220695
H227	H	0.982874	-0.172804	-0.802834
H228	H	1.482874	0.327196	-0.302834
H229	H	0.931573	-0.263396	-0.770396
H230	H	1.431573	0.236604	-0.270396
O231	O	1.035520	-0.279112	-0.924147
O232	O	1.535520	0.220888	-0.424147
C233	C	0.984777	-0.323808	-0.876720
C234	C	1.484777	0.176192	-0.376720
H235	H	1.012429	-0.383302	-0.864423
H236	H	1.512429	0.116698	-0.364423
H237	H	0.974265	-0.291846	-0.819081
H238	H	1.474265	0.208154	-0.319081
H239	H	0.926606	-0.332419	-0.908303
H240	H	1.426606	0.167581	-0.408303
O241	O	0.589128	-0.477147	-0.477110
O242	O	1.089128	0.022853	0.022890
C243	C	0.569120	-0.460105	-0.555378
C244	C	1.069120	0.039895	-0.055378
H245	H	0.546605	-0.397402	-0.559457
H246	H	1.046605	0.102598	-0.059457
H247	H	0.623047	-0.466909	-0.594140
H248	H	1.123047	0.033091	-0.094140
H249	H	0.521530	-0.502220	-0.575827
H250	H	1.021530	-0.002220	-0.075827
O251	O	1.035568	-0.278890	-1.085727
O252	O	1.535568	0.221110	-0.585727
C253	C	0.991257	-0.234603	-1.031979
C254	C	1.491257	0.265397	-0.531979
H255	H	1.023400	-0.231899	-0.973546
H256	H	1.523400	0.268101	-0.473546
H257	H	0.982918	-0.172750	-1.055686
H258	H	1.482918	0.327250	-0.555686
H259	H	0.931625	-0.263345	-1.023243
H260	H	1.431625	0.236655	-0.523243
H261	H	0.835564	-0.469321	-0.469094
H262	H	1.335564	0.030679	0.030906
