data_functionalizedCrystal
_audit_creation_method	'MofGen! by Chris Wilmer'
_symmetry_space_group_name_H-M	'P1'
_symmetry_Int_Tables_number	1
_symmetry_cell_setting	triclinic
loop_
_symmetry_equiv_pos_as_xyz
  x,y,z
_cell_length_a	21.395361
_cell_length_b	12.759401
_cell_length_c	12.759393
_cell_angle_alpha	90.022017
_cell_angle_beta	89.962481
_cell_angle_gamma	89.968470
loop_
_atom_site_label
_atom_site_type_symbol
_atom_site_fract_x
_atom_site_fract_y
_atom_site_fract_z
Zn1	Zn	-0.249398	-1.606145	-0.594008
Zn2	Zn	-0.354188	-1.605988	-0.418304
Zn3	Zn	-0.249429	-1.430445	-0.418338
Zn4	Zn	-0.354144	-1.430386	-0.593937
O5	O	-0.301790	-1.518241	-0.506147
O6	O	-0.263304	-1.753145	-0.570716
O7	O	-0.340322	-1.582661	-0.271288
O8	O	-0.161747	-1.453842	-0.441685
O9	O	-0.340292	-1.753030	-0.441627
O10	O	-0.161725	-1.582928	-0.570749
O11	O	-0.263357	-1.453690	-0.271313
O12	O	-0.263314	-1.283416	-0.441616
O13	O	-0.340218	-1.453742	-0.740967
O14	O	-0.340248	-1.283373	-0.570628
O15	O	-0.263262	-1.582871	-0.741020
O16	O	-0.441860	-1.582604	-0.441559
O17	O	-0.441827	-1.453590	-0.570595
C18	C	-0.301780	-1.245273	-0.506119
C19	C	-0.301791	-1.128497	-0.506131
C20	C	-0.341911	-1.073640	-0.573201
C21	C	-0.341912	-0.963916	-0.573218
C22	C	-0.261673	-0.963915	-0.439089
C23	C	-0.261669	-1.073637	-0.439077
C24	C	-0.464577	-1.518102	-0.506088
C25	C	-0.534219	-1.518139	-0.506099
C26	C	-0.566928	-1.585376	-0.438978
C27	C	-0.632363	-1.585425	-0.439002
C28	C	-0.665087	-1.518218	-0.506135
C29	C	-0.632370	-1.450976	-0.573268
C30	C	-0.566936	-1.450937	-0.573250
C31	C	-0.768801	-1.423620	-0.514368
C32	C	-0.834234	-1.423657	-0.514379
C33	C	-0.866908	-1.518340	-0.506196
C34	C	-0.834140	-1.612988	-0.497981
C35	C	-0.768706	-1.612949	-0.497963
C36	C	-0.736039	-1.518254	-0.506162
C37	C	-0.970569	-1.585636	-0.439098
C38	C	-1.036006	-1.585687	-0.439129
C39	C	-1.036011	-1.451228	-0.573389
C40	C	-0.970576	-1.451187	-0.573364
C41	C	-0.937859	-1.518390	-0.506213
C42	C	-0.138366	-1.518409	-0.506229
C43	C	-0.068725	-1.518480	-0.506263
C44	C	-0.301731	-1.518317	-0.780180
C45	C	-0.301707	-1.518350	-0.896957
C46	C	-0.301798	-0.792274	-0.506169
C47	C	-0.301797	-0.909051	-0.506161
C48	C	-0.341736	-1.585533	-1.061542
C49	C	-0.341765	-1.585507	-0.951818
C50	C	-0.261620	-1.451206	-0.951826
C51	C	-0.261594	-1.451227	-1.061549
C52	C	-0.301803	-1.518225	-0.233179
C53	C	-0.301651	-1.518396	-0.116403
H54	H	-0.659000	-1.640181	-0.384344
C55	C	-0.182358	-0.974936	-0.306510
C56	C	-0.217575	-0.903611	-0.365378
H57	H	-0.155132	-0.937706	-0.261007
H58	H	-0.209625	-1.017689	-0.266236
H59	H	-0.158424	-1.017774	-0.352368
H60	H	-0.241513	-0.860778	-0.319521
H61	H	-0.190304	-0.860841	-0.405656
C62	C	-0.775176	-1.800102	-0.481773
C63	C	-0.732687	-1.716981	-0.488949
H64	H	-0.752938	-1.864327	-0.476218
H65	H	-0.800729	-1.790922	-0.421561
H66	H	-0.800671	-1.801437	-0.542684
H67	H	-0.707195	-1.715640	-0.428034
H68	H	-0.707123	-1.726163	-0.549167
C69	C	-0.372261	-1.763412	-1.095334
C70	C	-0.385771	-1.659357	-1.121836
H71	H	-0.399452	-1.808985	-1.132551
H72	H	-0.330166	-1.778830	-1.113345
H73	H	-0.378013	-1.772990	-1.022133
H74	H	-0.380014	-1.649777	-1.195036
H75	H	-0.427876	-1.643933	-1.103832
H76	H	-0.374581	-0.919256	-0.627834
H77	H	-0.228994	-1.118303	-0.384461
H78	H	-0.540291	-1.640099	-0.384302
H79	H	-0.860741	-1.690088	-0.491318
H80	H	-0.374407	-1.640176	-0.907154
H81	H	-0.943930	-1.640360	-0.384422
H82	H	-0.228951	-1.396551	-1.106218
H83	H	-1.062636	-1.640446	-0.384473
H84	H	-1.062654	-1.396512	-0.628055
H85	H	-0.943942	-1.396432	-0.628015
H86	H	-0.860909	-1.346589	-0.521058
H87	H	-0.374579	-1.118303	-0.627803
H88	H	-0.229006	-1.396521	-0.907150
C89	C	-0.695318	-1.305963	-0.434584
C90	C	-0.732893	-1.319532	-0.523365
H91	H	-0.673149	-1.241708	-0.440146
H92	H	-0.720875	-1.304646	-0.373701
H93	H	-0.666440	-1.362326	-0.429708
H94	H	-0.761774	-1.263173	-0.528237
H95	H	-0.707334	-1.320840	-0.584264
C96	C	-0.652583	-1.273056	-0.624294
C97	C	-0.668335	-1.377099	-0.647064
H98	H	-0.674784	-1.227451	-0.669863
H99	H	-0.663353	-1.257728	-0.553702
H100	H	-0.608930	-1.263425	-0.633892
H101	H	-0.711988	-1.386732	-0.637458
H102	H	-0.657570	-1.392432	-0.717673
C103	C	-0.546729	-1.399650	-0.751102
C104	C	-0.530979	-1.377018	-0.647030
H105	H	-0.524532	-1.354009	-0.796648
H106	H	-0.535955	-1.470216	-0.766530
H107	H	-0.590383	-1.390055	-0.760712
H108	H	-0.487325	-1.386621	-0.637418
H109	H	-0.541749	-1.306435	-0.631597
