data_functionalizedCrystal
_audit_creation_method	'MofGen! by Chris Wilmer'
_symmetry_space_group_name_H-M	'P1'
_symmetry_Int_Tables_number	1
_symmetry_cell_setting	triclinic
loop_
_symmetry_equiv_pos_as_xyz
  x,y,z
_cell_length_a	12.759401
_cell_length_b	17.077402
_cell_length_c	12.759393
_cell_angle_alpha	90.032432
_cell_angle_beta	90.020938
_cell_angle_gamma	90.025017
loop_
_atom_site_label
_atom_site_type_symbol
_atom_site_fract_x
_atom_site_fract_y
_atom_site_fract_z
Zn1	Zn	1.606202	-0.312438	0.594006
Zn2	Zn	2.106202	0.187562	1.094006
Zn3	Zn	1.606066	-0.443724	0.418320
Zn4	Zn	2.106066	0.056276	0.918320
Zn5	Zn	1.430501	-0.312480	0.418341
Zn6	Zn	1.930501	0.187520	0.918341
Zn7	Zn	1.430466	-0.443669	0.593957
Zn8	Zn	1.930466	0.056331	1.093957
O9	O	1.518309	-0.378078	0.506156
O10	O	2.018309	0.121922	1.006156
O11	O	1.753205	-0.329859	0.570712
O12	O	2.253205	0.170141	1.070712
O13	O	1.582735	-0.426355	0.271302
O14	O	2.082735	0.073645	0.771302
O15	O	1.453880	-0.202628	0.441673
O16	O	1.953880	0.297372	0.941673
O17	O	1.753105	-0.426314	0.441637
O18	O	2.253105	0.073686	0.941637
O19	O	1.582967	-0.202597	0.570733
O20	O	2.082967	0.297403	1.070733
O21	O	1.453748	-0.329930	0.271317
O22	O	1.953748	0.170070	0.771317
O23	O	1.283475	-0.329877	0.441625
O24	O	1.783475	0.170123	0.941625
O25	O	1.453820	-0.426221	0.740985
O26	O	1.953820	0.073779	1.240985
O27	O	1.283449	-0.426261	0.570650
O28	O	1.783449	0.073739	1.070650
O29	O	1.582933	-0.329806	0.741021
O30	O	2.082933	0.170194	1.241021
O31	O	1.582701	-0.553564	0.441590
O32	O	2.082701	-0.053564	0.941590
O33	O	1.453688	-0.553524	0.570630
O34	O	1.953688	-0.053524	1.070630
C35	C	1.245341	-0.378068	0.506135
C36	C	1.745341	0.121932	1.006135
C37	C	1.128565	-0.378083	0.506151
C38	C	1.628565	0.121917	1.006151
C39	C	1.073717	-0.428347	0.573229
C40	C	1.573717	0.071653	1.073229
C41	C	0.963993	-0.428350	0.573249
C42	C	1.463993	0.071650	1.073249
C43	C	0.963974	-0.327823	0.439107
C44	C	1.463974	0.172177	0.939107
C45	C	1.073696	-0.327817	0.439092
C46	C	1.573696	0.172183	0.939092
C47	C	1.518205	-0.582026	0.506125
C48	C	2.018205	-0.082026	1.006125
C49	C	1.518256	-0.669276	0.506147
C50	C	2.018256	-0.169276	1.006147
C51	C	1.585435	-0.710182	0.573402
C52	C	2.085435	-0.210182	1.073402
C53	C	1.585479	-0.792163	0.573425
C54	C	2.085479	-0.292163	1.073425
C55	C	1.518349	-0.833235	0.506185
C56	C	2.018349	-0.333235	1.006185
C57	C	1.451162	-0.792323	0.438927
C58	C	1.951162	-0.292323	0.938927
C59	C	1.451114	-0.710344	0.438910
C60	C	1.951114	-0.210344	0.938910
C61	C	1.451270	-0.963193	0.438963
C62	C	1.951270	-0.463193	0.938963
C63	C	1.451320	-1.045177	0.438978
C64	C	1.951320	-0.545177	0.938978
C65	C	1.585636	-1.045012	0.573478
C66	C	2.085636	-0.545012	1.073478
C67	C	1.585587	-0.963033	0.573462
C68	C	2.085587	-0.463033	1.073462
C69	C	1.518402	-0.922126	0.506201
C70	C	2.018402	-0.422126	1.006201
C71	C	1.792342	-0.378088	0.506178
C72	C	2.292342	0.121912	1.006178
C73	C	1.909119	-0.378093	0.506187
C74	C	2.409119	0.121907	1.006187
C75	C	1.518387	-0.378003	0.780190
C76	C	2.018387	0.121997	1.280190
C77	C	1.518421	-0.377971	0.896966
C78	C	2.018421	0.122029	1.396966
C79	C	1.518442	-0.173334	0.506210
C80	C	2.018442	0.326666	1.006210
C81	C	1.518499	-0.086084	0.506234
C82	C	2.018499	0.413916	1.006234
C83	C	1.518291	-0.378096	0.233189
C84	C	2.018291	0.121904	0.733189
C85	C	1.518461	-0.377907	0.116413
C86	C	2.018461	0.122093	0.616413
C87	C	1.585655	-0.327759	0.951849
C88	C	2.085655	0.172241	1.451849
C89	C	1.585673	-0.327725	1.061573
C90	C	2.085673	0.172275	1.561573
C91	C	1.451220	-0.428121	1.061523
C92	C	1.951220	0.071879	1.561523
C93	C	1.451197	-0.428150	0.951801
C94	C	1.951197	0.071850	1.451801
H95	H	0.919341	-0.469279	0.627872
H96	H	1.419341	0.030721	1.127872
H97	H	0.919287	-0.286900	0.384508
H98	H	1.419287	0.213100	0.884508
H99	H	1.396557	-0.929889	0.384196
H100	H	1.896557	-0.429889	0.884196
C101	C	1.636904	-0.194850	0.918114
C102	C	2.136904	0.305150	1.418114
C103	C	1.659534	-0.272594	0.891574
C104	C	2.159534	0.227406	1.391574
H105	H	1.682511	-0.160792	0.880899
H106	H	2.182511	0.339208	1.380899
H107	H	1.646542	-0.187653	0.991307
H108	H	2.146542	0.312347	1.491307
H109	H	1.566315	-0.183376	0.900117
H110	H	2.066315	0.316624	1.400117
H111	H	1.730122	-0.284070	0.909578
H112	H	2.230122	0.215930	1.409578
H113	H	1.649906	-0.279794	0.818365
H114	H	2.149906	0.220206	1.318365
H115	H	1.640255	-0.929592	0.628207
H116	H	2.140255	-0.429592	1.128207
C117	C	1.600363	-0.222094	1.184976
C118	C	2.100363	0.277906	1.684976
C119	C	1.659577	-0.272527	1.121895
C120	C	2.159577	0.227473	1.621895
H121	H	1.645991	-0.188011	1.222208
H122	H	2.145991	0.311989	1.722208
H123	H	1.560350	-0.251973	1.233337
H124	H	2.060350	0.248027	1.733337
H125	H	1.554603	-0.192085	1.142156
H126	H	2.054603	0.307915	1.642156
H127	H	1.705333	-0.302541	1.164715
H128	H	2.205333	0.197459	1.664715
H129	H	1.699609	-0.242645	1.073527
H130	H	2.199609	0.257355	1.573527
C131	C	1.197059	-0.533948	0.587566
C132	C	1.697059	-0.033948	1.087566
C133	C	1.134028	-0.483593	0.646947
C134	C	1.634028	0.016407	1.146947
H135	H	1.234284	-0.568057	0.633082
H136	H	1.734284	-0.068057	1.133082
H137	H	1.245428	-0.504014	0.547626
H138	H	1.745428	-0.004014	1.047626
H139	H	1.154207	-0.563934	0.541730
H140	H	1.654207	-0.063934	1.041730
H141	H	1.176882	-0.453603	0.692778
H142	H	1.676882	0.046397	1.192778
H143	H	1.085654	-0.513530	0.686906
H144	H	1.585654	-0.013530	1.186906
C145	C	1.726835	-0.884263	0.588139
C146	C	2.226835	-0.384263	1.088139
C147	C	1.659326	-0.837137	0.647342
C148	C	2.159326	-0.337137	1.147342
H149	H	1.772421	-0.912033	0.633776
H150	H	2.272421	-0.412033	1.133776
H151	H	1.767023	-0.852280	0.542403
H152	H	2.267023	-0.352280	1.042403
H153	H	1.686841	-0.920447	0.548101
H154	H	2.186841	-0.420447	1.048101
H155	H	1.699321	-0.800949	0.687375
H156	H	2.199321	-0.300949	1.187375
H157	H	1.619134	-0.869123	0.693097
H158	H	2.119134	-0.369123	1.193097
C159	C	1.399925	-0.561082	0.917957
C160	C	1.899925	-0.061082	1.417957
C161	C	1.377293	-0.483349	0.891462
C162	C	1.877293	0.016651	1.391462
H163	H	1.354303	-0.595155	0.880700
H164	H	1.854303	-0.095155	1.380700
H165	H	1.390311	-0.568245	0.991141
H166	H	1.890311	-0.068245	1.491141
H167	H	1.470507	-0.572568	0.899980
H168	H	1.970507	-0.072568	1.399980
H169	H	1.306712	-0.471862	0.909446
H170	H	1.806712	0.028138	1.409446
H171	H	1.386898	-0.476183	0.818262
H172	H	1.886898	0.023817	1.318262
H173	H	1.118355	-0.286881	0.384469
H174	H	1.618355	0.213119	0.884469
C175	C	1.718189	-0.718262	0.706364
C176	C	2.218189	-0.218262	1.206364
C177	C	1.659222	-0.665040	0.647322
C178	C	2.159222	-0.165040	1.147322
H179	H	1.763735	-0.690392	0.752007
H180	H	2.263735	-0.190392	1.252007
H181	H	1.758423	-0.750230	0.660634
H182	H	2.258423	-0.250230	1.160634
H183	H	1.672397	-0.750249	0.746508
H184	H	2.172397	-0.250249	1.246508
H185	H	1.705014	-0.633056	0.607171
H186	H	2.205014	-0.133056	1.107171
H187	H	1.618985	-0.633058	0.693058
H188	H	2.118985	-0.133058	1.193058
H189	H	1.396409	-0.677038	0.384145
H190	H	1.896409	-0.177038	0.884145
H191	H	1.640339	-1.078322	0.628244
H192	H	2.140339	-0.578322	1.128244
H193	H	1.396491	-0.468977	1.106182
H194	H	1.896491	0.031023	1.606182
C195	C	1.273455	-1.070585	0.387675
C196	C	1.773455	-0.570585	0.887675
C197	C	1.377525	-1.090332	0.365080
C198	C	1.877525	-0.590332	0.865080
H199	H	1.227899	-1.098468	0.342057
H200	H	1.727899	-0.598468	0.842057
H201	H	1.263807	-1.015916	0.378028
H202	H	1.763807	-0.515916	0.878028
H203	H	1.258076	-1.083993	0.458261
H204	H	1.758076	-0.583993	0.958261
H205	H	1.392907	-1.076919	0.294496
H206	H	1.892907	-0.576919	0.794496
H207	H	1.387178	-1.145014	0.374718
H208	H	1.887178	-0.645014	0.874718
C209	C	1.309909	-0.884624	0.424220
C210	C	1.809909	-0.384624	0.924220
C211	C	1.377373	-0.837470	0.365015
C212	C	1.877373	-0.337470	0.865015
H213	H	1.264362	-0.912498	0.378585
H214	H	1.764362	-0.412498	0.878585
H215	H	1.269678	-0.852647	0.469942
H216	H	1.769678	-0.352647	0.969942
H217	H	1.349939	-0.920717	0.464274
H218	H	1.849939	-0.420717	0.964274
H219	H	1.337344	-0.801374	0.324966
H220	H	1.837344	-0.301374	0.824966
H221	H	1.417608	-0.869450	0.319274
H222	H	1.917608	-0.369450	0.819274
