data_functionalizedCrystal
_audit_creation_method	'MofGen! by Chris Wilmer'
_symmetry_space_group_name_H-M	'P1'
_symmetry_Int_Tables_number	1
_symmetry_cell_setting	triclinic
loop_
_symmetry_equiv_pos_as_xyz
  x,y,z
_cell_length_a	17.077404
_cell_length_b	17.077402
_cell_length_c	17.077396
_cell_angle_alpha	89.970216
_cell_angle_beta	89.980499
_cell_angle_gamma	90.023108
loop_
_atom_site_label
_atom_site_type_symbol
_atom_site_fract_x
_atom_site_fract_y
_atom_site_fract_z
Zn1	Zn	1.200055	-0.312503	-0.443836
Zn2	Zn	1.199962	-0.443778	-0.312567
Zn3	Zn	1.068786	-0.312531	-0.312584
Zn4	Zn	1.068754	-0.443732	-0.443790
O5	O	1.134389	-0.378136	-0.378194
O6	O	1.309889	-0.329925	-0.426434
O7	O	1.182536	-0.426399	-0.202722
O8	O	1.086252	-0.202680	-0.330021
O9	O	1.309821	-0.426372	-0.329992
O10	O	1.182694	-0.202660	-0.426451
O11	O	1.086162	-0.329972	-0.202734
O12	O	0.958935	-0.329927	-0.329976
O13	O	1.086197	-0.426293	-0.553643
O14	O	0.958912	-0.426320	-0.426373
O15	O	1.182663	-0.329880	-0.553677
O16	O	1.182505	-0.553619	-0.329948
O17	O	1.086107	-0.553585	-0.426357
C18	C	0.930441	-0.378122	-0.378172
C19	C	0.843192	-0.378135	-0.378182
C20	C	0.802210	-0.428402	-0.428295
C21	C	0.720229	-0.428404	-0.428308
C22	C	0.679232	-0.378141	-0.378202
C23	C	0.720220	-0.327869	-0.328087
C24	C	0.802199	-0.327863	-0.328079
C25	C	0.549350	-0.327884	-0.328106
C26	C	0.467365	-0.327890	-0.328112
C27	C	0.467380	-0.428424	-0.428335
C28	C	0.549359	-0.428419	-0.428327
C29	C	0.590341	-0.378147	-0.378210
C30	C	1.134314	-0.582084	-0.378163
C31	C	1.134353	-0.669334	-0.378176
C32	C	1.184598	-0.710316	-0.328029
C33	C	1.184637	-0.792296	-0.328049
C34	C	1.134425	-0.833293	-0.378212
C35	C	1.084178	-0.792305	-0.428364
C36	C	1.084144	-0.710327	-0.428348
C37	C	1.084250	-0.963175	-0.428394
C38	C	1.084283	-1.045160	-0.428410
C39	C	1.184743	-1.045145	-0.328096
C40	C	1.184709	-0.963166	-0.328079
C41	C	1.134461	-0.922184	-0.378230
C42	C	1.339134	-0.378151	-0.378216
C43	C	1.426383	-0.378157	-0.378226
C44	C	1.134437	-0.378078	-0.582938
C45	C	1.134457	-0.378054	-0.670188
C46	C	1.134487	-0.173392	-0.378243
C47	C	1.134528	-0.086142	-0.378263
C48	C	1.184689	-0.327847	-0.711197
C49	C	1.184698	-0.327821	-0.793178
C50	C	1.134479	-0.378006	-0.834148
C51	C	1.084242	-0.428214	-0.793133
C52	C	1.084229	-0.428236	-0.711154
C53	C	1.084274	-0.428167	-0.964003
C54	C	1.084288	-0.428147	-1.045988
C55	C	1.184742	-0.327752	-1.046027
C56	C	1.184730	-0.327774	-0.964048
C57	C	1.134493	-0.377984	-0.923039
C58	C	1.134387	-0.378137	-0.174246
C59	C	1.134519	-0.377941	-0.086997
H60	H	0.686866	-0.469337	-0.469114
C61	C	1.029001	-0.483418	-0.838195
H62	H	0.999078	-0.513318	-0.802028
H63	H	1.059017	-0.517615	-0.870171
H64	H	0.994816	-0.453375	-0.870176
H65	H	1.043230	-0.676960	-0.469183
C66	C	1.240010	-0.272532	-1.091133
H67	H	1.232824	-0.279702	-1.145824
H68	H	1.292740	-0.284041	-1.077699
H69	H	1.228554	-0.219786	-1.077712
H70	H	1.225585	-0.286983	-0.677845
C71	C	1.029044	-0.483344	-1.091054
H72	H	0.999115	-0.513242	-1.054891
H73	H	1.059058	-0.517542	-1.123031
H74	H	0.994864	-0.453295	-1.123036
H75	H	1.225483	-0.676941	-0.287177
H76	H	1.043298	-0.825692	-0.469211
C77	C	1.239956	-0.272598	-0.838284
H78	H	1.269870	-0.242721	-0.802142
H79	H	1.209955	-0.238381	-0.870267
H80	H	1.274150	-0.302627	-0.870262
H81	H	1.225627	-0.286913	-0.930692
H82	H	1.043354	-0.469041	-0.930616
H83	H	1.225660	-1.078516	-0.287263
H84	H	0.835584	-0.469334	-0.469094
H85	H	1.043318	-0.469111	-0.677766
H86	H	0.582737	-0.469352	-0.469122
H87	H	0.434009	-0.469355	-0.469144
H88	H	0.433988	-0.286953	-0.287321
H89	H	0.686834	-0.286941	-0.287293
C90	C	0.847279	-0.272568	-0.272955
H91	H	0.811123	-0.242638	-0.243111
H92	H	0.879282	-0.238404	-0.303045
H93	H	0.879235	-0.302551	-0.238692
C94	C	1.239903	-0.837373	-0.272884
H95	H	1.269794	-0.801215	-0.242999
H96	H	1.274104	-0.869303	-0.302945
H97	H	1.209901	-0.869402	-0.238660
C98	C	0.594428	-0.272583	-0.272981
H99	H	0.558272	-0.242654	-0.243136
H100	H	0.626433	-0.238418	-0.303068
H101	H	0.626383	-0.302568	-0.238718
H102	H	1.043411	-1.078538	-0.469272
C103	C	1.028981	-0.918097	-0.483562
H104	H	0.999076	-0.954253	-0.513436
H105	H	1.058976	-0.886068	-0.517784
H106	H	0.994779	-0.886166	-0.453493
H107	H	1.225591	-0.929786	-0.287228
