data_functionalizedCrystal
_audit_creation_method	'MofGen! by Chris Wilmer'
_symmetry_space_group_name_H-M	'P1'
_symmetry_Int_Tables_number	1
_symmetry_cell_setting	triclinic
loop_
_symmetry_equiv_pos_as_xyz
  x,y,z
_cell_length_a	12.759401
_cell_length_b	12.759400
_cell_length_c	12.759393
_cell_angle_alpha	89.969349
_cell_angle_beta	89.979927
_cell_angle_gamma	90.013113
loop_
_atom_site_label
_atom_site_type_symbol
_atom_site_fract_x
_atom_site_fract_y
_atom_site_fract_z
Zn1	Zn	1.606255	-0.418204	-0.594065
Zn2	Zn	1.606158	-0.593923	-0.418389
Zn3	Zn	1.430560	-0.418259	-0.418396
Zn4	Zn	1.430550	-0.593841	-0.594022
O5	O	1.518381	-0.506057	-0.506218
O6	O	1.753263	-0.441525	-0.570776
O7	O	1.582828	-0.570678	-0.271368
O8	O	1.453912	-0.271230	-0.441720
O9	O	1.753191	-0.570625	-0.441707
O10	O	1.582994	-0.271190	-0.570783
O11	O	1.453817	-0.441618	-0.271374
O12	O	1.283538	-0.441539	-0.441678
O13	O	1.453895	-0.570485	-0.741049
O14	O	1.283531	-0.570538	-0.570710
O15	O	1.582984	-0.441445	-0.741080
O16	O	1.582818	-0.740933	-0.441665
O17	O	1.453800	-0.740873	-0.570702
C18	C	1.245413	-0.506036	-0.506191
C19	C	1.128637	-0.506053	-0.506204
C20	C	0.964004	-0.573191	-0.438944
C21	C	1.073728	-0.573172	-0.438914
C22	C	1.073816	-0.438941	-0.573521
C23	C	0.964094	-0.438956	-0.573544
C24	C	0.963953	-0.650692	-0.361233
C25	C	1.073677	-0.650672	-0.361203
C26	C	1.518326	-0.779024	-0.506201
C27	C	1.518398	-0.895801	-0.506229
C28	C	1.585578	-0.950562	-0.573488
C29	C	1.585627	-1.060286	-0.573513
C30	C	1.451314	-1.060478	-0.439013
C31	C	1.451260	-0.950756	-0.438994
C32	C	1.663125	-0.950452	-0.651137
C33	C	1.663174	-1.060176	-0.651162
C34	C	1.792414	-0.506078	-0.506246
C35	C	1.909191	-0.506087	-0.506258
C36	C	1.518449	-0.505950	-0.780251
C37	C	1.518478	-0.505904	-0.897028
C38	C	1.518465	-0.232023	-0.506258
C39	C	1.518501	-0.115247	-0.506274
C40	C	1.451331	-0.438690	-0.951899
C41	C	1.451363	-0.438659	-1.061623
C42	C	1.585698	-0.573058	-1.061596
C43	C	1.585660	-0.573094	-0.951874
C44	C	1.373777	-0.361092	-0.951916
C45	C	1.373808	-0.361061	-1.061640
C46	C	1.518373	-0.506087	-0.233250
C47	C	1.518548	-0.505837	-0.116474
H48	H	0.919470	-0.384305	-0.628349
C49	C	1.118806	-0.611708	-0.258099
C50	C	1.036859	-0.585906	-0.189826
C51	C	1.078394	-0.550017	-0.094838
H52	H	1.160704	-0.551421	-0.270533
H53	H	1.160661	-0.665167	-0.227532
H54	H	0.995022	-0.532452	-0.220387
H55	H	0.994955	-0.646177	-0.177361
H56	H	1.120248	-0.603476	-0.064271
H57	H	1.120291	-0.489733	-0.107283
H58	H	1.022800	-0.532515	-0.048500
C59	C	1.270754	-0.399730	-1.107171
C60	C	1.226224	-0.320695	-1.168925
C61	C	1.131307	-0.356293	-1.210903
H62	H	1.224110	-0.417265	-1.051833
H63	H	1.283223	-0.459952	-1.149116
H64	H	1.213751	-0.260491	-1.126982
H65	H	1.272838	-0.303151	-1.224280
H66	H	1.143776	-0.416515	-1.252848
H67	H	1.084673	-0.373828	-1.155557
H68	H	1.101087	-0.302677	-1.252815
C69	C	1.402992	-0.252503	-1.101176
C70	C	1.420812	-0.186132	-1.015665
C71	C	1.447711	-0.086131	-1.052045
H72	H	1.347379	-0.225311	-1.142515
H73	H	1.464783	-0.256882	-1.142509
H74	H	1.359028	-0.181750	-0.974350
H75	H	1.476429	-0.213291	-0.974318
H76	H	1.509502	-0.090510	-1.093378
H77	H	1.392094	-0.058949	-1.093384
H78	H	1.459814	-0.041088	-0.994033
H79	H	1.118532	-0.384284	-0.628302
C80	C	0.918777	-0.753899	-0.399903
C81	C	1.000695	-0.822253	-0.425509
C82	C	0.959118	-0.917341	-0.461123
H83	H	0.876922	-0.741636	-0.460226
H84	H	0.876872	-0.784309	-0.346356
H85	H	1.042582	-0.791850	-0.479052
H86	H	1.042556	-0.834547	-0.365202
H87	H	0.917213	-0.947751	-0.407576
H88	H	0.917263	-0.905067	-0.521443
H89	H	1.014692	-0.963734	-0.478492
C90	C	1.378542	-1.120335	-0.366054
C91	C	1.392980	-1.228147	-0.380450
C92	C	1.325970	-1.283317	-0.313247
H93	H	1.307893	-1.102516	-0.381298
H94	H	1.393957	-1.102457	-0.295450
H95	H	1.377558	-1.246018	-0.451038
H96	H	1.463616	-1.245997	-0.365199
H97	H	1.341386	-1.265439	-0.242643
H98	H	1.255325	-1.265489	-0.328496
H99	H	1.335764	-1.356472	-0.322998
C100	C	1.378278	-0.891489	-0.365860
C101	C	1.319518	-0.963104	-0.306964
C102	C	1.252283	-0.908546	-0.239569
H103	H	1.332368	-0.848685	-0.405885
H104	H	1.418446	-0.848714	-0.320051
H105	H	1.279353	-1.005861	-0.352767
H106	H	1.365400	-1.005910	-0.266917
H107	H	1.292451	-0.865772	-0.193760
H108	H	1.206381	-0.865745	-0.279603
H109	H	1.212414	-0.957128	-0.199593
H110	H	1.633983	-1.094171	-0.728433
C111	C	1.658381	-0.646209	-0.892246
C112	C	1.598842	-0.713577	-0.829262
C113	C	1.665798	-0.780958	-0.774330
H114	H	1.704184	-0.606169	-0.849365
H115	H	1.698377	-0.686277	-0.940596
H116	H	1.558865	-0.673514	-0.780918
H117	H	1.553043	-0.753641	-0.872117
H118	H	1.705793	-0.821026	-0.822681
H119	H	1.711597	-0.740909	-0.731456
H120	H	1.625411	-0.826682	-0.731597
H121	H	1.744572	-1.089913	-0.629452
C122	C	1.658603	-0.645883	-1.121334
C123	C	1.644283	-0.631451	-1.229170
C124	C	1.711437	-0.698508	-1.284230
H125	H	1.643267	-0.716521	-1.103463
H126	H	1.729215	-0.630507	-1.103418
H127	H	1.573686	-0.646835	-1.247078
H128	H	1.659626	-0.560827	-1.247072
H129	H	1.782050	-0.683132	-1.266314
H130	H	1.696096	-0.769142	-1.266350
H131	H	1.701738	-0.688718	-1.357402
H132	H	0.934133	-0.628812	-0.279906
C133	C	1.265298	-0.390372	-0.912253
C134	C	1.238764	-0.490319	-0.948920
C135	C	1.138853	-0.517334	-0.912392
H136	H	1.215577	-0.340831	-0.937053
H137	H	1.265251	-0.390459	-0.837794
H138	H	1.238803	-0.490225	-1.023364
H139	H	1.288459	-0.539883	-0.924123
H140	H	1.138806	-0.517421	-0.837932
H141	H	1.089141	-0.467786	-0.937194
H142	H	1.120841	-0.585154	-0.937256
H143	H	1.740417	-0.916385	-0.622052
H144	H	1.103461	-0.732063	-0.382857
H145	H	1.402939	-0.283814	-0.917900
H146	H	1.641277	-0.920634	-0.732483
