data_functionalizedCrystal
_audit_creation_method	'MofGen! by Chris Wilmer'
_symmetry_space_group_name_H-M	'P1'
_symmetry_Int_Tables_number	1
_symmetry_cell_setting	triclinic
loop_
_symmetry_equiv_pos_as_xyz
  x,y,z
_cell_length_a	21.395355
_cell_length_b	17.077404
_cell_length_c	17.077403
_cell_angle_alpha	89.999063
_cell_angle_beta	89.994146
_cell_angle_gamma	90.024450
loop_
_atom_site_label
_atom_site_type_symbol
_atom_site_fract_x
_atom_site_fract_y
_atom_site_fract_z
Zn1	Zn	-0.354315	-1.200214	-0.312594
Zn2	Zn	-0.020982	-0.866881	0.020739
Zn3	Zn	0.312352	-0.533547	0.354072
Zn4	Zn	-0.249561	-1.200160	-0.443842
Zn5	Zn	0.083773	-0.866827	-0.110509
Zn6	Zn	0.417106	-0.533494	0.222824
Zn7	Zn	-0.249552	-1.068934	-0.312595
Zn8	Zn	0.083782	-0.735601	0.020738
Zn9	Zn	0.417115	-0.402268	0.354072
Zn10	Zn	-0.354301	-1.068965	-0.443823
Zn11	Zn	-0.020968	-0.735631	-0.110489
Zn12	Zn	0.312366	-0.402298	0.222844
O13	O	-0.301932	-1.134568	-0.378213
O14	O	0.031401	-0.801235	-0.044880
O15	O	0.364735	-0.467902	0.288453
O16	O	-0.340429	-1.310054	-0.330013
O17	O	-0.007095	-0.976720	0.003321
O18	O	0.326238	-0.643387	0.336654
O19	O	-0.161882	-1.182718	-0.426441
O20	O	0.171452	-0.849385	-0.093107
O21	O	0.504785	-0.516051	0.240226
O22	O	-0.263451	-1.086359	-0.202748
O23	O	0.069882	-0.753025	0.130585
O24	O	0.403216	-0.419692	0.463919
O25	O	-0.263466	-1.310014	-0.426440
O26	O	0.069867	-0.976681	-0.093107
O27	O	0.403201	-0.643348	0.240227
O28	O	-0.340420	-1.182809	-0.202747
O29	O	-0.007087	-0.849476	0.130586
O30	O	0.326247	-0.516143	0.463919
O31	O	-0.161875	-1.086307	-0.330014
O32	O	0.171458	-0.752974	0.003320
O33	O	0.504792	-0.419640	0.336653
O34	O	-0.263437	-0.959091	-0.329995
O35	O	0.069896	-0.625758	0.003339
O36	O	0.403229	-0.292425	0.336672
O37	O	-0.441981	-1.086410	-0.426406
O38	O	-0.108647	-0.753077	-0.093073
O39	O	0.224686	-0.419743	0.240260
O40	O	-0.340396	-0.959114	-0.426407
O41	O	-0.007063	-0.625780	-0.093074
O42	O	0.326270	-0.292447	0.240260
O43	O	-0.441991	-1.182838	-0.329993
O44	O	-0.108658	-0.849505	0.003340
O45	O	0.224676	-0.516172	0.336673
O46	O	-0.263452	-1.182747	-0.553687
O47	O	0.069881	-0.849414	-0.220353
O48	O	0.403214	-0.516081	0.112980
O49	O	-0.340405	-1.086358	-0.553672
O50	O	-0.007071	-0.753025	-0.220339
O51	O	0.326262	-0.419692	0.112995
C52	C	-0.301915	-0.930620	-0.378199
C53	C	0.031419	-0.597287	-0.044866
C54	C	0.364752	-0.263954	0.288467
C55	C	-0.301922	-0.843371	-0.378212
C56	C	0.031411	-0.510037	-0.044879
C57	C	0.364744	-0.176704	0.288455
C58	C	-0.465355	-1.134633	-0.378198
C59	C	-0.132022	-0.801300	-0.044864
C60	C	0.201311	-0.467967	0.288469
C61	C	-0.534997	-1.134661	-0.378191
C62	C	-0.201663	-0.801328	-0.044858
C63	C	0.131670	-0.467995	0.288476
C64	C	-0.301942	-1.134572	-0.582161
C65	C	0.031392	-0.801238	-0.248828
C66	C	0.364725	-0.467905	0.084505
C67	C	-0.301967	-1.134645	-0.669411
C68	C	0.031367	-0.801311	-0.336078
C69	C	0.364700	-0.467978	-0.002744
C70	C	-0.567716	-1.184869	-0.327987
C71	C	-0.234383	-0.851536	0.005347
C72	C	0.098951	-0.518203	0.338680
C73	C	-0.633152	-1.184868	-0.327953
C74	C	-0.299818	-0.851535	0.005381
C75	C	0.033515	-0.518202	0.338714
C76	C	-0.665865	-1.134667	-0.378137
C77	C	-0.332532	-0.801334	-0.044804
C78	C	0.000802	-0.468001	0.288529
C79	C	-0.633138	-1.084449	-0.428345
C80	C	-0.299804	-0.751116	-0.095012
C81	C	0.033529	-0.417783	0.238322
C82	C	-0.567704	-1.084446	-0.428372
C83	C	-0.234370	-0.751113	-0.095039
C84	C	0.098963	-0.417780	0.238295
C85	C	-0.769543	-1.128470	-0.448817
C86	C	-0.436210	-0.795137	-0.115484
C87	C	-0.102876	-0.461804	0.217850
C88	C	-0.834976	-1.128479	-0.448792
C89	C	-0.501643	-0.795145	-0.115458
C90	C	-0.168309	-0.461812	0.217875
C91	C	-0.867686	-1.134672	-0.378054
C92	C	-0.534353	-0.801339	-0.044721
C93	C	-0.201019	-0.468006	0.288612
C94	C	-0.834955	-1.140873	-0.307340
C95	C	-0.501621	-0.807540	0.025993
C96	C	-0.168288	-0.474207	0.359326
C97	C	-0.769521	-1.140870	-0.307367
C98	C	-0.436187	-0.807537	0.025966
C99	C	-0.102854	-0.474204	0.359300
C100	C	-0.736817	-1.134665	-0.378114
C101	C	-0.403484	-0.801331	-0.044780
C102	C	-0.070151	-0.467998	0.288553
C103	C	-0.971358	-1.184882	-0.327809
C104	C	-0.638025	-0.851548	0.005524
C105	C	-0.304691	-0.518215	0.338857
C106	C	-1.036795	-1.184875	-0.327774
C107	C	-0.703461	-0.851542	0.005559
C108	C	-0.370128	-0.518209	0.338892
C109	C	-1.036779	-1.084461	-0.428174
C110	C	-0.703446	-0.751127	-0.094840
C111	C	-0.370113	-0.417794	0.238493
C112	C	-0.971344	-1.084463	-0.428202
C113	C	-0.638011	-0.751130	-0.094868
C114	C	-0.304677	-0.417796	0.238465
C115	C	-0.938637	-1.134678	-0.378021
C116	C	-0.605304	-0.801344	-0.044687
C117	C	-0.271971	-0.468011	0.288646
C118	C	-0.139144	-1.134549	-0.378173
C119	C	0.194189	-0.801215	-0.044839
C120	C	0.527522	-0.467882	0.288494
C121	C	-0.069504	-1.134673	-0.377958
C122	C	0.263830	-0.801339	-0.044625
C123	C	0.597163	-0.468006	0.288708
C124	C	-0.301950	-1.339313	-0.378228
C125	C	0.031384	-1.005979	-0.044895
C126	C	0.364717	-0.672646	0.288438
C127	C	-0.301957	-1.426562	-0.378235
C128	C	0.031376	-1.093229	-0.044901
C129	C	0.364709	-0.759896	0.288432
C130	C	-0.341930	-0.802413	-0.428490
C131	C	-0.008597	-0.469079	-0.095156
C132	C	0.324736	-0.135746	0.238177
C133	C	-0.341940	-0.720432	-0.428491
C134	C	-0.008607	-0.387099	-0.095158
C135	C	0.324726	-0.053765	0.238175
C136	C	-0.301939	-0.679411	-0.378219
C137	C	0.031395	-0.346078	-0.044886
C138	C	0.364728	-0.012745	0.288448
C139	C	-0.261929	-0.720375	-0.327936
C140	C	0.071405	-0.387042	0.005398
C141	C	0.404738	-0.053708	0.338731
C142	C	-0.261922	-0.802354	-0.327931
C143	C	0.071411	-0.469021	0.005403
C144	C	0.404744	-0.135687	0.338736
C145	C	-0.261944	-0.549505	-0.327951
C146	C	0.071390	-0.216172	0.005382
C147	C	0.404723	0.117162	0.338715
C148	C	-0.261949	-0.467520	-0.327957
C149	C	0.071384	-0.134187	0.005376
C150	C	0.404717	0.199146	0.338710
C151	C	-0.341962	-0.467583	-0.428512
C152	C	-0.008629	-0.134250	-0.095179
C153	C	0.324705	0.199083	0.238155
C154	C	-0.341955	-0.549562	-0.428507
C155	C	-0.008622	-0.216229	-0.095174
C156	C	0.324711	0.117105	0.238160
C157	C	-0.301945	-0.590520	-0.378225
C158	C	0.031389	-0.257187	-0.044891
C159	C	0.364722	0.076146	0.288442
C160	C	-0.301936	-1.134587	-0.173469
C161	C	0.031397	-0.801253	0.159864
C162	C	0.364731	-0.467920	0.493197
C163	C	-0.301938	-1.134594	-0.086219
C164	C	0.031396	-0.801261	0.247114
C165	C	0.364729	-0.467928	0.580447
C166	C	-0.261866	-1.084384	-0.045228
C167	C	0.071467	-0.751051	0.288105
C168	C	0.404800	-0.417718	0.621438
C169	C	-0.261874	-1.084390	0.036752
C170	C	0.071459	-0.751057	0.370085
C171	C	0.404792	-0.417724	0.703419
C172	C	-0.301951	-1.134611	0.077740
C173	C	0.031382	-0.801278	0.411073
C174	C	0.364716	-0.467944	0.744407
C175	C	-0.342027	-1.184823	0.036743
C176	C	-0.008693	-0.851490	0.370076
C177	C	0.324640	-0.518156	0.703410
C178	C	-0.342022	-1.184812	-0.045236
C179	C	-0.008688	-0.851479	0.288097
C180	C	0.324645	-0.518146	0.621431
C181	C	-0.342034	-1.184843	0.207613
C182	C	-0.008700	-0.851509	0.540946
C183	C	0.324633	-0.518176	0.874280
C184	C	-0.342038	-1.184855	0.289598
C185	C	-0.008705	-0.851521	0.622931
C186	C	0.324628	-0.518188	0.956264
C187	C	-0.261886	-1.084421	0.289601
C188	C	0.071447	-0.751087	0.622934
C189	C	0.404780	-0.417754	0.956268
C190	C	-0.261881	-1.084410	0.207622
C191	C	0.071452	-0.751077	0.540956
C192	C	0.404786	-0.417744	0.874289
C193	C	-0.301956	-1.134624	0.166631
C194	C	0.031377	-0.801290	0.499964
C195	C	0.364710	-0.467957	0.833298
H196	H	-0.541090	-1.225757	-0.287124
H197	H	-0.207757	-0.892424	0.046209
H198	H	0.125576	-0.559091	0.379542
H199	H	-0.861586	-1.145918	-0.249739
H200	H	-0.528252	-0.812585	0.083594
H201	H	-0.194919	-0.479251	0.416927
Cl202	Cl	-0.392270	-0.416094	-0.491713
Cl203	Cl	-0.058937	-0.082760	-0.158380
Cl204	Cl	0.274397	0.250573	0.174954
Cl205	Cl	-0.392400	-1.247935	-0.096768
Cl206	Cl	-0.059067	-0.914602	0.236565
Cl207	Cl	0.274266	-0.581268	0.569899
Cl208	Cl	-0.876117	-1.120690	-0.537688
Cl209	Cl	-0.542784	-0.787357	-0.204355
Cl210	Cl	-0.209450	-0.454024	0.128978
H211	H	-0.374502	-0.835806	-0.469430
H212	H	-0.041169	-0.502473	-0.136097
H213	H	0.292164	-0.169139	0.197237
Cl214	Cl	-0.930209	-1.021344	-0.491323
Cl215	Cl	-0.596875	-0.688010	-0.157989
Cl216	Cl	-0.263542	-0.354677	0.175344
H217	H	-0.742916	-1.123217	-0.506405
H218	H	-0.409583	-0.789884	-0.173072
H219	H	-0.076250	-0.456550	0.160262
H220	H	-0.659797	-1.225752	-0.287066
H221	H	-0.326464	-0.892419	0.046267
H222	H	0.006870	-0.559085	0.379600
H223	H	-0.374518	-0.687088	-0.469433
H224	H	-0.041185	-0.353754	-0.136100
H225	H	0.292148	-0.020421	0.197233
Cl226	Cl	-0.728375	-1.148660	-0.218474
Cl227	Cl	-0.395041	-0.815327	0.114859
Cl228	Cl	-0.061708	-0.481993	0.448193
Cl229	Cl	-1.077928	-1.248012	-0.264666
Cl230	Cl	-0.744595	-0.914679	0.068667
Cl231	Cl	-0.411262	-0.581346	0.402000
Cl232	Cl	-0.211658	-0.415952	-0.264760
Cl233	Cl	0.121676	-0.082619	0.068573
Cl234	Cl	0.455009	0.250715	0.401907
H235	H	-0.229368	-0.582851	-0.286999
H236	H	0.103965	-0.249517	0.046334
H237	H	0.437298	0.083816	0.379668
Cl238	Cl	-1.077899	-1.021343	-0.491256
Cl239	Cl	-0.744565	-0.688009	-0.157923
Cl240	Cl	-0.411232	-0.354676	0.175410
H241	H	-0.659777	-1.043573	-0.469203
H242	H	-0.326444	-0.710240	-0.135870
H243	H	0.006889	-0.376906	0.197463
Cl244	Cl	-0.211478	-1.021250	-0.096748
Cl245	Cl	0.121856	-0.687917	0.236586
Cl246	Cl	0.455189	-0.354584	0.569919
H247	H	-0.541064	-1.043557	-0.469253
H248	H	-0.207730	-0.710224	-0.135920
H249	H	0.125603	-0.376891	0.197413
H250	H	-0.374525	-0.582959	-0.469448
H251	H	-0.041192	-0.249626	-0.136114
H252	H	0.292142	0.083708	0.197219
Cl253	Cl	-0.211644	-0.668806	-0.264730
Cl254	Cl	0.121689	-0.335472	0.068603
Cl255	Cl	0.455022	-0.002139	0.401936
H256	H	-0.944727	-1.225765	-0.286945
H257	H	-0.611393	-0.892432	0.046389
H258	H	-0.278060	-0.559099	0.379722
Cl259	Cl	-0.392416	-1.247950	0.088271
Cl260	Cl	-0.059082	-0.914617	0.421604
Cl261	Cl	0.274251	-0.581283	0.754937
Cl262	Cl	-0.211626	-0.853844	-0.264720
Cl263	Cl	0.121708	-0.520511	0.068614
Cl264	Cl	0.455041	-0.187178	0.401947
H265	H	-0.229245	-1.043505	0.070127
H266	H	0.104088	-0.710172	0.403460
H267	H	0.437421	-0.376839	0.736793
H268	H	-0.229244	-1.043521	0.174252
H269	H	0.104090	-0.710187	0.507585
H270	H	0.437423	-0.376854	0.840919
H271	H	-0.229256	-1.043535	0.322981
H272	H	0.104077	-0.710202	0.656314
H273	H	0.437411	-0.376869	0.989648
H274	H	-0.374674	-1.225748	0.322966
H275	H	-0.041340	-0.892415	0.656299
H276	H	0.291993	-0.559082	0.989633
Cl277	Cl	-0.392413	-1.247971	0.156083
Cl278	Cl	-0.059080	-0.914638	0.489416
Cl279	Cl	0.274253	-0.581304	0.822749
