data_functionalizedCrystal
_audit_creation_method	'MofGen! by Chris Wilmer'
_symmetry_space_group_name_H-M	'P1'
_symmetry_Int_Tables_number	1
_symmetry_cell_setting	triclinic
loop_
_symmetry_equiv_pos_as_xyz
  x,y,z
_cell_length_a	21.395364
_cell_length_b	12.759400
_cell_length_c	21.395355
_cell_angle_alpha	90.011210
_cell_angle_beta	90.024552
_cell_angle_gamma	90.029235
loop_
_atom_site_label
_atom_site_type_symbol
_atom_site_fract_x
_atom_site_fract_y
_atom_site_fract_z
Zn1	Zn	0.957931	-0.417969	0.354293
Zn2	Zn	0.957863	-0.593633	0.249529
Zn3	Zn	0.853146	-0.418015	0.249530
Zn4	Zn	0.853145	-0.593652	0.354269
O5	O	0.905521	-0.505817	0.301905
O6	O	1.045600	-0.441244	0.340406
O7	O	0.943944	-0.570349	0.161851
O8	O	0.867074	-0.270988	0.263437
O9	O	1.045550	-0.570304	0.263436
O10	O	0.944059	-0.270954	0.340407
O11	O	0.867009	-0.441322	0.161852
O12	O	0.765468	-0.441341	0.263414
O13	O	0.867073	-0.570336	0.441950
O14	O	0.765467	-0.570381	0.340366
O15	O	0.944059	-0.441262	0.441968
O16	O	0.943944	-0.740657	0.263413
O17	O	0.867007	-0.740671	0.340365
C18	C	0.742733	-0.505868	0.301888
C19	C	0.673092	-0.505916	0.301895
C20	C	0.640427	-0.438824	0.342035
C21	C	0.574992	-0.438796	0.342038
C22	C	0.542224	-0.505878	0.301907
C23	C	0.574897	-0.572975	0.261759
C24	C	0.640331	-0.572993	0.261753
C25	C	0.438516	-0.600493	0.296876
C26	C	0.373083	-0.600476	0.296886
C27	C	0.340403	-0.505821	0.301921
C28	C	0.373165	-0.411179	0.306958
C29	C	0.438599	-0.411197	0.306952
C30	C	0.471272	-0.505865	0.301908
C31	C	0.236786	-0.438693	0.342065
C32	C	0.171349	-0.438663	0.342063
C33	C	0.171255	-0.572851	0.261788
C34	C	0.236691	-0.572872	0.261786
C35	C	0.269452	-0.505794	0.301929
C36	C	0.905485	-0.778785	0.301900
C37	C	0.905527	-0.895561	0.301918
C38	C	0.865458	-0.950469	0.341956
C39	C	0.865491	-1.060193	0.341962
C40	C	0.945668	-1.060092	0.261891
C41	C	0.945631	-0.950370	0.261883
C42	C	0.819170	-0.950528	0.388186
C43	C	0.819203	-1.060252	0.388192
C44	C	1.068944	-0.505767	0.301923
C45	C	1.138586	-0.505745	0.301931
C46	C	0.905573	-0.505796	0.465329
C47	C	0.905595	-0.505787	0.534970
C48	C	0.905574	-0.231784	0.301925
C49	C	0.905597	-0.115007	0.301933
C50	C	0.905505	-0.505763	0.139118
C51	C	0.905605	-0.505476	0.069477
C52	C	0.945680	-0.438575	0.567693
C53	C	0.945679	-0.438530	0.633129
C54	C	0.905600	-0.505715	0.665838
C55	C	0.865508	-0.572932	0.633107
C56	C	0.865505	-0.572967	0.567673
C57	C	0.900640	-0.600316	0.769511
C58	C	0.900647	-0.600282	0.834944
C59	C	0.905604	-0.505604	0.867659
C60	C	0.910567	-0.410957	0.834933
C61	C	0.910565	-0.410993	0.769499
C62	C	0.905598	-0.505684	0.736791
C63	C	0.945690	-0.438338	0.971335
C64	C	0.945685	-0.438291	1.036772
C65	C	0.865516	-0.572702	1.036749
C66	C	0.865518	-0.572740	0.971314
C67	C	0.905609	-0.505559	0.938611
H68	H	0.548391	-0.384157	0.374724
H69	H	0.667098	-0.384203	0.374722
H70	H	0.836519	-0.916439	0.434293
H71	H	0.770640	-0.920846	0.375145
H72	H	0.773125	-1.094373	0.370771
Br73	Br	1.000007	-0.875855	0.207539
Br74	Br	0.893932	-0.728823	0.725119
Br75	Br	0.482860	-0.728964	0.290032
H76	H	0.978319	-1.104731	0.229295
Br77	Br	0.840864	-1.109813	0.469086
Br78	Br	0.811110	-0.664105	0.677497
Br79	Br	0.684665	-0.664048	0.207270
H80	H	0.978324	-0.383870	0.541071
Br81	Br	0.530428	-0.664008	0.207290
Br82	Br	0.917300	-0.282456	0.879324
Br83	Br	1.000094	-0.347164	0.926949
H84	H	0.978320	-0.383793	0.659777
H85	H	0.978326	-0.383553	1.063414
H86	H	0.914604	-0.333928	0.742856
Br87	Br	0.811116	-0.663962	0.926900
Br88	Br	0.811114	-0.663870	1.081134
H89	H	0.144576	-0.627471	0.229112
Br90	Br	0.893920	-0.728730	0.879351
H91	H	0.832861	-0.627698	0.541030
H92	H	0.346558	-0.334101	0.311057
Br93	Br	0.281251	-0.347656	0.396539
Br94	Br	0.127016	-0.347595	0.396540
Br95	Br	0.483059	-0.282762	0.313786
H96	H	0.346413	-0.677539	0.292788
Br97	Br	0.281025	-0.663922	0.207303
