data_functionalizedCrystal
_audit_creation_method	'MofGen! by Chris Wilmer'
_symmetry_space_group_name_H-M	'P1'
_symmetry_Int_Tables_number	1
_symmetry_cell_setting	triclinic
loop_
_symmetry_equiv_pos_as_xyz
  x,y,z
_cell_length_a	12.759400
_cell_length_b	17.077404
_cell_length_c	17.077396
_cell_angle_alpha	90.021457
_cell_angle_beta	89.974414
_cell_angle_gamma	89.986212
loop_
_atom_site_label
_atom_site_type_symbol
_atom_site_fract_x
_atom_site_fract_y
_atom_site_fract_z
Zn1	Zn	-0.418291	-1.200099	-0.443899
Zn2	Zn	-0.593992	-1.200025	-0.312640
Zn3	Zn	-0.418325	-1.068831	-0.312643
Zn4	Zn	-0.593926	-1.068818	-0.443859
O5	O	-0.506134	-1.134443	-0.378260
O6	O	-0.441612	-1.309936	-0.426503
O7	O	-0.570731	-1.182597	-0.202794
O8	O	-0.271299	-1.086281	-0.330072
O9	O	-0.570698	-1.309882	-0.330068
O10	O	-0.271275	-1.182723	-0.426506
O11	O	-0.441669	-1.086209	-0.202796
O12	O	-0.441605	-0.958983	-0.330033
O13	O	-0.570586	-1.086258	-0.553712
O14	O	-0.570619	-0.958973	-0.426437
O15	O	-0.441548	-1.182710	-0.553741
O16	O	-0.741004	-1.182584	-0.330029
O17	O	-0.740956	-1.086186	-0.426435
C18	C	-0.506109	-0.930496	-0.378232
C19	C	-0.506124	-0.843246	-0.378238
C20	C	-0.779101	-1.134397	-0.378244
C21	C	-0.895878	-1.134449	-0.378263
C22	C	-0.573402	-0.802271	-0.428354
C23	C	-0.573402	-0.720291	-0.428364
C24	C	-0.506129	-0.679286	-0.378253
C25	C	-0.438844	-0.720267	-0.328135
C26	C	-0.438839	-0.802246	-0.328130
C27	C	-0.438860	-0.549397	-0.328148
C28	C	-0.438866	-0.467412	-0.328152
C29	C	-0.573423	-0.467442	-0.428382
C30	C	-0.573418	-0.549421	-0.428377
C31	C	-0.506134	-0.590395	-0.378258
C32	C	-0.950730	-1.184699	-0.328120
C33	C	-1.060454	-1.184747	-0.328144
C34	C	-1.060464	-1.084289	-0.428457
C35	C	-0.950742	-1.084245	-0.428436
C36	C	-0.950725	-1.242695	-0.270203
C37	C	-1.060449	-1.242743	-0.270227
C38	C	-0.232100	-1.134512	-0.378294
C39	C	-0.115324	-1.134541	-0.378308
C40	C	-0.506056	-1.134491	-0.583005
C41	C	-0.506023	-1.134511	-0.670255
C42	C	-0.506152	-0.339188	-0.378281
C43	C	-0.506143	-0.426437	-0.378268
C44	C	-0.438827	-1.184735	-0.711261
C45	C	-0.438792	-1.184745	-0.793242
C46	C	-0.505959	-1.134533	-0.834214
C47	C	-0.573158	-1.084304	-0.793202
C48	C	-0.573187	-1.084291	-0.711223
C49	C	-0.573095	-1.084335	-0.964072
C50	C	-0.573068	-1.084349	-1.046056
C51	C	-0.438700	-1.184789	-1.046091
C52	C	-0.438729	-1.184777	-0.964112
C53	C	-0.505930	-1.134547	-0.923105
C54	C	-0.506135	-1.134441	-0.174313
C55	C	-0.505872	-1.134573	-0.087063
H56	H	-0.628187	-0.835651	-0.469157
Br57	Br	-0.664709	-0.664685	-0.496383
H58	H	-0.628203	-0.582804	-0.469177
H59	H	-0.384064	-0.686875	-0.287338
H60	H	-1.105147	-1.043415	-0.469307
Br61	Br	-0.347524	-0.857855	-0.260118
Br62	Br	-0.664213	-1.016196	-1.101662
H63	H	-0.628205	-0.434076	-0.469193
Br64	Br	-1.117045	-1.338997	-0.306630
H65	H	-0.627800	-1.043421	-0.930686
H66	H	-0.384074	-0.434029	-0.287357
Br67	Br	-0.347543	-0.605005	-0.260131
Br68	Br	-0.876301	-1.016061	-0.496505
Br69	Br	-0.900956	-1.343987	-0.297421
H70	H	-0.384042	-1.225668	-0.930755
Br71	Br	-0.894119	-1.206407	-0.173917
Br72	Br	-1.110217	-1.215682	-0.168885
Br73	Br	-0.347675	-1.252890	-0.655664
Br74	Br	-0.664378	-1.016122	-0.655569
Br75	Br	-0.347643	-1.252946	-0.848891
Br76	Br	-0.347504	-1.252961	-1.101742
Br77	Br	-0.664308	-1.016153	-0.848806
