data_functionalizedCrystal
_audit_creation_method	'MofGen! by Chris Wilmer'
_symmetry_space_group_name_H-M	'P1'
_symmetry_Int_Tables_number	1
_symmetry_cell_setting	triclinic
loop_
_symmetry_equiv_pos_as_xyz
  x,y,z
_cell_length_a	21.395362
_cell_length_b	21.395364
_cell_length_c	21.395356
_cell_angle_alpha	90.023767
_cell_angle_beta	90.026508
_cell_angle_gamma	90.026713
loop_
_atom_site_label
_atom_site_type_symbol
_atom_site_fract_x
_atom_site_fract_y
_atom_site_fract_z
Zn1	Zn	-0.249482	0.957863	0.354269
Zn2	Zn	0.000518	1.207863	0.604269
Zn3	Zn	0.250518	1.457863	0.854269
Zn4	Zn	0.500518	1.707863	1.104269
Zn5	Zn	-0.354259	0.957772	0.249494
Zn6	Zn	-0.104259	1.207772	0.499494
Zn7	Zn	0.145741	1.457772	0.749494
Zn8	Zn	0.395741	1.707772	0.999494
Zn9	Zn	-0.249496	0.853080	0.249506
Zn10	Zn	0.000504	1.103080	0.499506
Zn11	Zn	0.250504	1.353080	0.749506
Zn12	Zn	0.500504	1.603080	0.999506
Zn13	Zn	-0.354223	0.853052	0.354234
Zn14	Zn	-0.104223	1.103052	0.604234
Zn15	Zn	0.145777	1.353052	0.854234
Zn16	Zn	0.395777	1.603052	1.104234
O17	O	-0.301865	0.905442	0.301876
O18	O	-0.051865	1.155442	0.551876
O19	O	0.198135	1.405442	0.801876
O20	O	0.448135	1.655442	1.051876
O21	O	-0.263390	1.045529	0.340381
O22	O	-0.013390	1.295529	0.590381
O23	O	0.236610	1.545529	0.840381
O24	O	0.486610	1.795529	1.090381
O25	O	-0.340383	0.943858	0.161818
O26	O	-0.090383	1.193858	0.411818
O27	O	0.159617	1.443858	0.661818
O28	O	0.409617	1.693858	0.911818
O29	O	-0.161816	0.867030	0.263423
O30	O	0.088184	1.117030	0.513423
O31	O	0.338184	1.367030	0.763423
O32	O	0.588184	1.617030	1.013423
O33	O	-0.340369	1.045462	0.263403
O34	O	-0.090369	1.295462	0.513403
O35	O	0.159631	1.545462	0.763403
O36	O	0.409631	1.795462	1.013403
O37	O	-0.161806	0.944014	0.340392
O38	O	0.088194	1.194014	0.590392
O39	O	0.338194	1.444014	0.840392
O40	O	0.588194	1.694014	1.090392
O41	O	-0.263414	0.866941	0.161826
O42	O	-0.013414	1.116941	0.411826
O43	O	0.236586	1.366941	0.661826
O44	O	0.486586	1.616941	0.911826
O45	O	-0.263379	0.765398	0.263388
O46	O	-0.013379	1.015398	0.513388
O47	O	0.236621	1.265398	0.763388
O48	O	0.486621	1.515398	1.013388
O49	O	-0.340308	0.866982	0.441917
O50	O	-0.090308	1.116982	0.691917
O51	O	0.159692	1.366982	0.941917
O52	O	0.409692	1.616982	1.191917
O53	O	-0.340321	0.765378	0.340332
O54	O	-0.090321	1.015378	0.590332
O55	O	0.159679	1.265378	0.840332
O56	O	0.409679	1.515378	1.090332
O57	O	-0.263355	0.943986	0.441943
O58	O	-0.013355	1.193986	0.691943
O59	O	0.236645	1.443986	0.941943
O60	O	0.486645	1.693986	1.191943
O61	O	-0.441932	0.943830	0.263368
O62	O	-0.191932	1.193830	0.513368
O63	O	0.058068	1.443830	0.763368
O64	O	0.308068	1.693830	1.013368
O65	O	-0.441906	0.866893	0.340320
O66	O	-0.191906	1.116893	0.590320
O67	O	0.058094	1.366893	0.840320
O68	O	0.308094	1.616893	1.090320
C69	C	-0.301848	0.742654	0.301858
C70	C	-0.051848	0.992654	0.551858
C71	C	0.198152	1.242654	0.801858
C72	C	0.448152	1.492654	1.051858
C73	C	-0.301856	0.673013	0.301865
C74	C	-0.051856	0.923013	0.551865
C75	C	0.198144	1.173013	0.801865
C76	C	0.448144	1.423013	1.051865
C77	C	-0.342002	0.171222	0.341901
C78	C	-0.092002	0.421222	0.591901
C79	C	0.157998	0.671222	0.841901
C80	C	0.407998	0.921222	1.091901
C81	C	-0.342002	0.236658	0.341895
C82	C	-0.092002	0.486658	0.591895
C83	C	0.157998	0.736658	0.841895
C84	C	0.407998	0.986658	1.091895
C85	C	-0.301879	0.269374	0.301896
C86	C	-0.051879	0.519374	0.551896
C87	C	0.198121	0.769374	0.801896
C88	C	0.448121	1.019374	1.051896
C89	C	-0.261763	0.236651	0.261889
C90	C	-0.011763	0.486651	0.511889
C91	C	0.238237	0.736651	0.761889
C92	C	0.488237	0.986651	1.011889
C93	C	-0.261769	0.171216	0.261892
C94	C	-0.011769	0.421216	0.511892
C95	C	0.238231	0.671216	0.761892
C96	C	0.488231	0.921216	1.011892
C97	C	-0.245414	0.373061	0.297043
C98	C	0.004586	0.623061	0.547043
C99	C	0.254586	0.873061	0.797043
C100	C	0.504586	1.123061	1.047043
C101	C	-0.245408	0.438494	0.297044
C102	C	0.004592	0.688494	0.547044
C103	C	0.254592	0.938494	0.797044
C104	C	0.504592	1.188494	1.047044
C105	C	-0.301862	0.471195	0.301882
C106	C	-0.051862	0.721195	0.551882
C107	C	0.198138	0.971195	0.801882
C108	C	0.448138	1.221195	1.051882
C109	C	-0.358325	0.438455	0.306732
C110	C	-0.108325	0.688455	0.556732
C111	C	0.141675	0.938455	0.806732
C112	C	0.391675	1.188455	1.056732
C113	C	-0.358330	0.373021	0.306735
C114	C	-0.108330	0.623021	0.556735
C115	C	0.141670	0.873021	0.806735
C116	C	0.391670	1.123021	1.056735
C117	C	-0.301869	0.340327	0.301887
C118	C	-0.051869	0.590327	0.551887
C119	C	0.198131	0.840327	0.801887
C120	C	0.448131	1.090327	1.051887
C121	C	-0.341978	0.574864	0.341876
C122	C	-0.091978	0.824864	0.591876
C123	C	0.158022	1.074864	0.841876
C124	C	0.408022	1.324864	1.091876
C125	C	-0.341980	0.640300	0.341865
C126	C	-0.091980	0.890300	0.591865
C127	C	0.158020	1.140300	0.841865
C128	C	0.408020	1.390300	1.091865
C129	C	-0.261735	0.640292	0.261862
C130	C	-0.011735	0.890292	0.511862
C131	C	0.238265	1.140292	0.761862
C132	C	0.488265	1.390292	1.011862
C133	C	-0.261739	0.574857	0.261870
C134	C	-0.011739	0.824857	0.511870
C135	C	0.238261	1.074857	0.761870
C136	C	0.488261	1.324857	1.011870
C137	C	-0.301860	0.542147	0.301880
C138	C	-0.051860	0.792147	0.551880
C139	C	0.198140	1.042147	0.801880
C140	C	0.448140	1.292147	1.051880
C141	C	-0.464653	0.905366	0.301853
C142	C	-0.214653	1.155366	0.551853
C143	C	0.035347	1.405366	0.801853
C144	C	0.285347	1.655366	1.051853
C145	C	-0.534294	0.905390	0.301864
C146	C	-0.284294	1.155390	0.551864
C147	C	-0.034294	1.405390	0.801864
C148	C	0.215706	1.655390	1.051864
C149	C	-1.036032	0.945605	0.342034
C150	C	-0.786032	1.195605	0.592034
C151	C	-0.536032	1.445605	0.842034
C152	C	-0.286032	1.695605	1.092034
C153	C	-0.970596	0.945587	0.342024
C154	C	-0.720596	1.195587	0.592024
C155	C	-0.470596	1.445587	0.842024
C156	C	-0.220596	1.695587	1.092024
C157	C	-0.937932	0.905527	0.301915
C158	C	-0.687932	1.155527	0.551915
C159	C	-0.437932	1.405527	0.801915
C160	C	-0.187932	1.655527	1.051915
C161	C	-0.970709	0.865494	0.261801
C162	C	-0.720709	1.115494	0.511801
C163	C	-0.470709	1.365494	0.761801
C164	C	-0.220709	1.615494	1.011801
C165	C	-1.036143	0.865518	0.261808
C166	C	-0.786143	1.115518	0.511808
C167	C	-0.536143	1.365518	0.761808
C168	C	-0.286143	1.615518	1.011808
C169	C	-0.834315	0.849042	0.296905
C170	C	-0.584315	1.099042	0.546905
C171	C	-0.334315	1.349042	0.796905
C172	C	-0.084315	1.599042	1.046905
C173	C	-0.768882	0.849017	0.296903
C174	C	-0.518882	1.099017	0.546903
C175	C	-0.268882	1.349017	0.796903
C176	C	-0.018882	1.599017	1.046903
C177	C	-0.736111	0.905453	0.301891
C178	C	-0.486111	1.155453	0.551891
C179	C	-0.236111	1.405453	0.801891
C180	C	0.013889	1.655453	1.051891
C181	C	-0.768782	0.961916	0.306895
C182	C	-0.518782	1.211916	0.556895
C183	C	-0.268782	1.461916	0.806895
C184	C	-0.018782	1.711916	1.056895
C185	C	-0.834216	0.961940	0.306902
C186	C	-0.584216	1.211940	0.556902
C187	C	-0.334216	1.461940	0.806902
C188	C	-0.084216	1.711940	1.056902
C189	C	-0.866980	0.905497	0.301903
C190	C	-0.616980	1.155497	0.551903
C191	C	-0.366980	1.405497	0.801903
C192	C	-0.116980	1.655497	1.051903
C193	C	-0.632390	0.945467	0.341989
C194	C	-0.382390	1.195467	0.591989
C195	C	-0.132390	1.445467	0.841989
C196	C	0.117610	1.695467	1.091989
C197	C	-0.566954	0.945450	0.341974
C198	C	-0.316954	1.195450	0.591974
C199	C	-0.066954	1.445450	0.841974
C200	C	0.183046	1.695450	1.091974
C201	C	-0.567067	0.865351	0.261755
C202	C	-0.317067	1.115351	0.511755
C203	C	-0.067067	1.365351	0.761755
C204	C	0.182933	1.615351	1.011755
C205	C	-0.632503	0.865374	0.261766
C206	C	-0.382503	1.115374	0.511766
C207	C	-0.132503	1.365374	0.761766
C208	C	0.117497	1.615374	1.011766
C209	C	-0.665160	0.905431	0.301886
C210	C	-0.415160	1.155431	0.551886
C211	C	-0.165160	1.405431	0.801886
C212	C	0.084840	1.655431	1.051886
C213	C	-0.138442	0.905535	0.301913
C214	C	0.111558	1.155535	0.551913
C215	C	0.361558	1.405535	0.801913
C216	C	0.611558	1.655535	1.051913
C217	C	-0.068800	0.905575	0.301928
C218	C	0.181200	1.155575	0.551928
C219	C	0.431200	1.405575	0.801928
C220	C	0.681200	1.655575	1.051928
C221	C	-0.301826	0.905491	0.465299
C222	C	-0.051826	1.155491	0.715299
C223	C	0.198174	1.405491	0.965299
C224	C	0.448174	1.655491	1.215299
C225	C	-0.301810	0.905512	0.534940
C226	C	-0.051810	1.155512	0.784940
C227	C	0.198190	1.405512	1.034940
C228	C	0.448190	1.655512	1.284940
C229	C	-0.301882	1.068865	0.301894
C230	C	-0.051882	1.318865	0.551894
C231	C	0.198118	1.568865	0.801894
C232	C	0.448118	1.818865	1.051894
C233	C	-0.301890	1.138506	0.301902
C234	C	-0.051890	1.388506	0.551902
C235	C	0.198110	1.638506	0.801902
C236	C	0.448110	1.888506	1.051902
C237	C	-0.301859	0.905429	0.139088
C238	C	-0.051859	1.155429	0.389088
C239	C	0.198141	1.405429	0.639088
C240	C	0.448141	1.655429	0.889088
C241	C	-0.301699	0.905529	0.069447
C242	C	-0.051699	1.155529	0.319447
C243	C	0.198301	1.405529	0.569447
C244	C	0.448301	1.655529	0.819447
C245	C	-0.261728	0.865472	0.567648
C246	C	-0.011728	1.115472	0.817648
C247	C	0.238272	1.365472	1.067648
C248	C	0.488272	1.615472	1.317648
C249	C	-0.261716	0.865470	0.633084
C250	C	-0.011716	1.115470	0.883084
C251	C	0.238284	1.365470	1.133084
C252	C	0.488284	1.615470	1.383084
C253	C	-0.301780	0.905519	0.665809
C254	C	-0.051780	1.155519	0.915809
C255	C	0.198220	1.405519	1.165809
C256	C	0.448220	1.655519	1.415809
C257	C	-0.341870	0.945561	0.633093
C258	C	-0.091870	1.195561	0.883093
C259	C	0.158130	1.445561	1.133093
C260	C	0.408130	1.695561	1.383093
C261	C	-0.341885	0.945558	0.567659
C262	C	-0.091885	1.195558	0.817659
C263	C	0.158115	1.445558	1.067659
C264	C	0.408115	1.695558	1.317659
C265	C	-0.306707	0.961971	0.769495
C266	C	-0.056707	1.211971	1.019495
C267	C	0.193293	1.461971	1.269495
C268	C	0.443293	1.711971	1.519495
C269	C	-0.306688	0.961976	0.834928
C270	C	-0.056688	1.211976	1.084928
C271	C	0.193312	1.461976	1.334928
C272	C	0.443312	1.711976	1.584928
C273	C	-0.301738	0.905529	0.867630
C274	C	-0.051738	1.155529	1.117630
C275	C	0.198262	1.405529	1.367630
C276	C	0.448262	1.655529	1.617630
C277	C	-0.296793	0.849077	0.834890
C278	C	-0.046793	1.099077	1.084890
C279	C	0.203207	1.349077	1.334890
C280	C	0.453207	1.599077	1.584890
C281	C	-0.296808	0.849073	0.769456
C282	C	-0.046808	1.099073	1.019456
C283	C	0.203192	1.349073	1.269456
C284	C	0.453192	1.599073	1.519456
C285	C	-0.301768	0.905527	0.736761
C286	C	-0.051768	1.155527	0.986761
C287	C	0.198232	1.405527	1.236761
C288	C	0.448232	1.655527	1.486761
C289	C	-0.261641	0.865484	0.971290
C290	C	-0.011641	1.115484	1.221290
C291	C	0.238359	1.365484	1.471290
C292	C	0.488359	1.615484	1.721290
C293	C	-0.261633	0.865481	1.036727
C294	C	-0.011633	1.115481	1.286727
C295	C	0.238367	1.365481	1.536727
C296	C	0.488367	1.615481	1.786727
C297	C	-0.341784	0.945578	1.036735
C298	C	-0.091784	1.195578	1.286735
C299	C	0.158216	1.445578	1.536735
C300	C	0.408216	1.695578	1.786735
C301	C	-0.341795	0.945575	0.971300
C302	C	-0.091795	1.195575	1.221300
C303	C	0.158205	1.445575	1.471300
C304	C	0.408205	1.695575	1.721300
C305	C	-0.301720	0.905529	0.938581
C306	C	-0.051720	1.155529	1.188581
C307	C	0.198280	1.405529	1.438581
C308	C	0.448280	1.655529	1.688581
H309	H	-0.229102	0.144579	0.229319
H310	H	0.020898	0.394579	0.479319
H311	H	0.270898	0.644579	0.729319
H312	H	0.520898	0.894579	0.979319
N313	N	-0.385266	0.271955	0.385041
N314	N	-0.135266	0.521955	0.635041
N315	N	0.114734	0.771955	0.885041
N316	N	0.364734	1.021955	1.135041
H317	H	-0.414268	0.299080	0.359528
H318	H	-0.164268	0.549080	0.609528
H319	H	0.085732	0.799080	0.859528
H320	H	0.335732	1.049080	1.109528
H321	H	-0.410641	0.241264	0.410377
H322	H	-0.160641	0.491264	0.660377
H323	H	0.089359	0.741264	0.910377
H324	H	0.339359	0.991264	1.160377
N325	N	-0.733446	1.022792	0.312270
N326	N	-0.483446	1.272792	0.562270
N327	N	-0.233446	1.522792	0.812270
N328	N	0.016554	1.772792	1.062270
H329	H	-0.764071	1.058562	0.315441
H330	H	-0.514071	1.308562	0.565441
H331	H	-0.264071	1.558562	0.815441
H332	H	-0.014071	1.808562	1.065441
H333	H	-0.706273	1.021861	0.350870
H334	H	-0.456273	1.271861	0.600870
H335	H	-0.206273	1.521861	0.850870
H336	H	0.043727	1.771861	1.100870
H337	H	-0.374404	0.978187	1.063379
H338	H	-0.124404	1.228187	1.313379
H339	H	0.125596	1.478187	1.563379
H340	H	0.375596	1.728187	1.813379
N341	N	-0.385088	0.988752	0.668385
N342	N	-0.135088	1.238752	0.918385
N343	N	0.114912	1.488752	1.168385
N344	N	0.364912	1.738752	1.418385
H345	H	-0.378996	0.982680	0.714801
H346	H	-0.128996	1.232680	0.964801
H347	H	0.121004	1.482680	1.214801
H348	H	0.371004	1.732680	1.464801
H349	H	-0.375348	1.033506	0.656966
H350	H	-0.125348	1.283506	0.906966
H351	H	0.124652	1.533506	1.156966
H352	H	0.374652	1.783506	1.406966
H353	H	-0.404304	0.346367	0.310682
H354	H	-0.154304	0.596367	0.560682
H355	H	0.095696	0.846367	0.810682
H356	H	0.345696	1.096367	1.060682
H357	H	-0.374432	0.978181	0.944669
H358	H	-0.124432	1.228181	1.194669
H359	H	0.125568	1.478181	1.444669
H360	H	0.375568	1.728181	1.694669
H361	H	-0.374648	0.666937	0.374436
H362	H	-0.124648	0.916937	0.624436
H363	H	0.125352	1.166937	0.874436
H364	H	0.375352	1.416937	1.124436
N365	N	-0.385284	0.135942	0.385043
N366	N	-0.135284	0.385942	0.635043
N367	N	0.114716	0.635942	0.885043
N368	N	0.364716	0.885942	1.135043
H369	H	-0.410699	0.166601	0.410378
H370	H	-0.160699	0.416601	0.660378
H371	H	0.089301	0.666601	0.910378
H372	H	0.339301	0.916601	1.160378
H373	H	-0.414248	0.108776	0.359482
H374	H	-0.164248	0.358776	0.609482
H375	H	0.085752	0.608776	0.859482
H376	H	0.335752	0.858776	1.109482
N377	N	-0.218480	0.271936	0.218754
N378	N	0.031520	0.521936	0.468754
N379	N	0.281520	0.771936	0.718754
N380	N	0.531520	1.021936	0.968754
H381	H	-0.193068	0.241278	0.193415
H382	H	0.056932	0.491278	0.443415
H383	H	0.306932	0.741278	0.693415
H384	H	0.556932	0.991278	0.943415
H385	H	-0.243942	0.299065	0.189713
H386	H	0.006058	0.549065	0.439713
H387	H	0.256058	0.799065	0.689713
H388	H	0.506058	1.049065	0.939713
H389	H	-0.742284	0.803043	0.292832
H390	H	-0.492284	1.053043	0.542832
H391	H	-0.242284	1.303043	0.792832
H392	H	0.007716	1.553043	1.042832
N393	N	-1.071255	0.988784	0.385328
N394	N	-0.821255	1.238784	0.635328
N395	N	-0.571255	1.488784	0.885328
N396	N	-0.321255	1.738784	1.135328
H397	H	-1.040563	1.014133	0.410742
H398	H	-0.790563	1.264133	0.660742
H399	H	-0.540563	1.514133	0.910742
H400	H	-0.290563	1.764133	1.160742
H401	H	-1.098408	1.017815	0.359882
H402	H	-0.848408	1.267815	0.609882
H403	H	-0.598408	1.517815	0.859882
H404	H	-0.348408	1.767815	1.109882
H405	H	-0.404295	0.465079	0.310675
H406	H	-0.154295	0.715079	0.560675
H407	H	0.095705	0.965079	0.810675
H408	H	0.345705	1.215079	1.060675
H409	H	-0.860991	0.803082	0.292845
H410	H	-0.610991	1.053082	0.542845
H411	H	-0.360991	1.303082	0.792845
H412	H	-0.110991	1.553082	1.042845
H413	H	-0.310733	1.007940	0.742875
H414	H	-0.060733	1.257940	0.992875
H415	H	0.189267	1.507940	1.242875
H416	H	0.439267	1.757940	1.492875
H417	H	-0.943911	0.978185	0.374685
H418	H	-0.693911	1.228185	0.624685
H419	H	-0.443911	1.478185	0.874685
H420	H	-0.193911	1.728185	1.124685
N421	N	-0.218498	0.822281	0.532369
N422	N	0.031502	1.072281	0.782369
N423	N	0.281502	1.322281	1.032369
N424	N	0.531502	1.572281	1.282369
H425	H	-0.228216	0.777509	0.543739
H426	H	0.021784	1.027509	0.793739
H427	H	0.271784	1.277509	1.043739
H428	H	0.521784	1.527509	1.293739
H429	H	-0.224601	0.828403	0.485962
H430	H	0.025399	1.078403	0.735962
H431	H	0.275399	1.328403	0.985962
H432	H	0.525399	1.578403	1.235962
H433	H	-0.229010	0.832875	0.944649
H434	H	0.020990	1.082875	1.194649
H435	H	0.270990	1.332875	1.444649
H436	H	0.520990	1.582875	1.694649
H437	H	-0.229067	0.666930	0.229292
H438	H	0.020933	0.916930	0.479292
H439	H	0.270933	1.166930	0.729292
H440	H	0.520933	1.416930	0.979292
N441	N	-0.312023	1.022859	0.870239
N442	N	-0.062023	1.272859	1.120239
N443	N	0.187977	1.522859	1.370239
N444	N	0.437977	1.772859	1.620239
H445	H	-0.275804	1.050924	0.858869
H446	H	-0.025804	1.300924	1.108869
H447	H	0.224196	1.550924	1.358869
H448	H	0.474196	1.800924	1.608869
H449	H	-0.352601	1.044096	0.858836
H450	H	-0.102601	1.294096	1.108836
H451	H	0.147399	1.544096	1.358836
H452	H	0.397399	1.794096	1.608836
N453	N	-0.667617	0.988679	0.385250
N454	N	-0.417617	1.238679	0.635250
N455	N	-0.167617	1.488679	0.885250
N456	N	0.082383	1.738679	1.135250
H457	H	-0.714042	0.982618	0.379171
H458	H	-0.464042	1.232618	0.629171
H459	H	-0.214042	1.482618	0.879171
H460	H	0.035958	1.732618	1.129171
H461	H	-0.656161	0.978901	0.429987
H462	H	-0.406161	1.228901	0.679987
H463	H	-0.156161	1.478901	0.929987
H464	H	0.093839	1.728901	1.179987
N465	N	-0.935486	0.822282	0.218542
N466	N	-0.685486	1.072282	0.468542
N467	N	-0.435486	1.322282	0.718542
N468	N	-0.185486	1.572282	0.968542
H469	H	-0.946889	0.832044	0.173786
H470	H	-0.696889	1.082044	0.423786
H471	H	-0.446889	1.332044	0.673786
H472	H	-0.196889	1.582044	0.923786
H473	H	-0.889071	0.828357	0.224676
H474	H	-0.639071	1.078357	0.474676
H475	H	-0.389071	1.328357	0.724676
H476	H	-0.139071	1.578357	0.974676
H477	H	-0.229073	0.832866	0.659720
H478	H	0.020927	1.082866	0.909720
H479	H	0.270927	1.332866	1.159720
H480	H	0.520927	1.582866	1.409720
H481	H	-0.199432	0.465146	0.293103
H482	H	0.050568	0.715146	0.543103
H483	H	0.300568	0.965146	0.793103
H484	H	0.550568	1.215146	1.043103
N485	N	-0.531607	0.988630	0.385231
N486	N	-0.281607	1.238630	0.635231
N487	N	-0.031607	1.488630	0.885231
N488	N	0.218393	1.738630	1.135231
H489	H	-0.562227	1.014006	0.410648
H490	H	-0.312227	1.264006	0.660648
H491	H	-0.062227	1.514006	0.910648
H492	H	0.187773	1.764006	1.160648
H493	H	-0.504461	0.963097	0.414195
H494	H	-0.254461	1.213097	0.664195
H495	H	-0.004461	1.463097	0.914195
H496	H	0.245539	1.713097	1.164195
H497	H	-0.374524	0.978166	0.541029
H498	H	-0.124524	1.228166	0.791029
H499	H	0.125476	1.478166	1.041029
H500	H	0.375476	1.728166	1.291029
H501	H	-0.229073	0.548219	0.229300
H502	H	0.020927	0.798219	0.479300
H503	H	0.270927	1.048219	0.729300
H504	H	0.520927	1.298219	0.979300
H505	H	-0.659183	0.832775	0.229109
H506	H	-0.409183	1.082775	0.479109
H507	H	-0.159183	1.332775	0.729109
H508	H	0.090817	1.582775	0.979109
H509	H	-0.199440	0.346441	0.293093
H510	H	0.050560	0.596441	0.543093
H511	H	0.300560	0.846441	0.793093
H512	H	0.550560	1.096441	1.043093
H513	H	-0.374648	0.548230	0.374454
H514	H	-0.124648	0.798230	0.624454
H515	H	0.125352	1.048230	0.874454
H516	H	0.375352	1.298230	1.124454
H517	H	-0.292783	0.803108	0.742802
H518	H	-0.042783	1.053108	0.992802
H519	H	0.207217	1.303108	1.242802
H520	H	0.457217	1.553108	1.492802
H521	H	-0.292758	0.803113	0.861514
H522	H	-0.042758	1.053113	1.111514
H523	H	0.207242	1.303113	1.361514
H524	H	0.457242	1.553113	1.611514
H525	H	-0.860814	1.007914	0.310975
H526	H	-0.610814	1.257914	0.560975
H527	H	-0.360814	1.507914	0.810975
H528	H	-0.110814	1.757914	1.060975
H529	H	-0.540473	0.832737	0.229094
H530	H	-0.290473	1.082737	0.479094
H531	H	-0.040473	1.332737	0.729094
H532	H	0.209527	1.582737	0.979094
N533	N	-1.071491	0.822342	0.218548
N534	N	-0.821491	1.072342	0.468548
N535	N	-0.571491	1.322342	0.718548
N536	N	-0.321491	1.572342	0.968548
H537	H	-1.040872	0.796962	0.193134
H538	H	-0.790872	1.046962	0.443134
H539	H	-0.540872	1.296962	0.693134
H540	H	-0.290872	1.546962	0.943134
H541	H	-1.098649	0.793341	0.244027
H542	H	-0.848649	1.043341	0.494027
H543	H	-0.598649	1.293341	0.744027
H544	H	-0.348649	1.543341	0.994027
H545	H	-0.228996	0.832871	1.063356
H546	H	0.021004	1.082871	1.313356
H547	H	0.271004	1.332871	1.563356
H548	H	0.521004	1.582871	1.813356
