data_functionalizedCrystal
_audit_creation_method	'MofGen! by Chris Wilmer'
_symmetry_space_group_name_H-M	'P1'
_symmetry_Int_Tables_number	1
_symmetry_cell_setting	triclinic
loop_
_symmetry_equiv_pos_as_xyz
  x,y,z
_cell_length_a	17.077404
_cell_length_b	12.759400
_cell_length_c	17.077395
_cell_angle_alpha	89.975675
_cell_angle_beta	89.982416
_cell_angle_gamma	90.012932
loop_
_atom_site_label
_atom_site_type_symbol
_atom_site_fract_x
_atom_site_fract_y
_atom_site_fract_z
Zn1	Zn	1.200069	-0.418328	-0.443899
Zn2	Zn	1.200004	-0.594025	-0.312640
Zn3	Zn	1.068810	-0.418355	-0.312643
Zn4	Zn	1.068788	-0.593961	-0.443859
O5	O	1.134418	-0.506167	-0.378260
O6	O	1.309908	-0.441651	-0.426503
O7	O	1.182583	-0.570760	-0.202793
O8	O	1.086259	-0.271331	-0.330072
O9	O	1.309860	-0.570734	-0.330067
O10	O	1.182694	-0.271311	-0.426506
O11	O	1.086195	-0.441697	-0.202795
O12	O	0.958960	-0.441634	-0.330033
O13	O	1.086221	-0.570624	-0.553711
O14	O	0.958944	-0.570650	-0.426437
O15	O	1.182673	-0.441588	-0.553741
O16	O	1.182562	-0.741038	-0.330028
O17	O	1.086158	-0.740990	-0.426434
C18	C	0.930470	-0.506139	-0.378232
C19	C	0.843220	-0.506152	-0.378238
C20	C	1.134371	-0.779135	-0.378244
C21	C	1.134423	-0.895911	-0.378263
C22	C	0.467428	-0.439103	-0.428583
C23	C	0.549408	-0.439096	-0.428574
C24	C	0.590371	-0.506190	-0.378280
C25	C	0.549350	-0.573303	-0.327996
C26	C	0.467371	-0.573315	-0.328010
C27	C	0.720220	-0.573271	-0.327971
C28	C	0.802204	-0.573258	-0.327957
C29	C	0.802257	-0.439052	-0.428536
C30	C	0.720278	-0.439064	-0.428549
C31	C	0.679262	-0.506176	-0.378264
C32	C	1.184676	-0.950763	-0.328120
C33	C	1.184725	-1.060487	-0.328144
C34	C	1.084260	-1.060498	-0.428457
C35	C	1.084216	-0.950776	-0.428436
C36	C	1.242677	-0.950758	-0.270203
C37	C	1.242725	-1.060482	-0.270227
C38	C	1.339162	-0.506197	-0.378289
C39	C	1.426412	-0.506209	-0.378302
C40	C	1.134452	-0.506096	-0.583005
C41	C	1.134466	-0.506066	-0.670254
C42	C	1.134486	-0.232134	-0.378294
C43	C	1.134515	-0.115357	-0.378308
C44	C	1.184776	-0.438734	-1.046086
C45	C	1.184760	-0.438771	-0.964105
C46	C	1.134531	-0.505966	-0.923103
C47	C	1.084320	-0.573137	-0.964087
C48	C	1.084341	-0.573105	-1.046066
C49	C	1.084280	-0.573198	-0.793216
C50	C	1.084258	-0.573229	-0.711232
C51	C	1.184698	-0.438864	-0.711256
C52	C	1.184719	-0.438832	-0.793235
C53	C	1.134507	-0.506001	-0.834212
C54	C	1.134430	-0.506163	-0.174312
C55	C	1.134567	-0.505897	-0.087063
H56	H	0.434082	-0.384461	-0.469534
C57	C	0.594408	-0.647108	-0.272672
C58	C	0.650739	-0.601461	-0.211093
C59	C	0.695795	-0.675265	-0.155765
C60	C	0.684521	-0.794715	-0.162017
C61	C	0.628188	-0.840367	-0.223598
C62	C	0.583131	-0.766564	-0.278926
H63	H	0.659086	-0.513032	-0.206463
H64	H	0.737497	-0.641470	-0.110179
H65	H	0.717875	-0.849349	-0.121060
H66	H	0.619840	-0.928797	-0.228228
H67	H	0.541430	-0.800359	-0.324513
H68	H	1.043339	-0.627921	-0.677850
C69	C	0.675221	-0.365260	-0.483875
C70	C	0.686534	-0.373997	-0.573099
C71	C	0.641478	-0.300195	-0.628428
C72	C	0.585111	-0.217656	-0.594535
C73	C	0.573796	-0.208916	-0.505307
C74	C	0.618851	-0.282719	-0.449977
H75	H	0.728263	-0.435100	-0.598193
H76	H	0.649855	-0.306665	-0.694481
H77	H	0.551758	-0.163024	-0.635494
H78	H	0.532067	-0.147814	-0.480213
H79	H	0.610475	-0.276248	-0.383925
H80	H	1.300480	-1.094433	-0.292058
H81	H	0.433977	-0.627962	-0.287067
H82	H	1.220922	-0.916800	-0.212427
C83	C	1.239970	-0.364915	-0.838337
C84	C	1.301597	-0.410434	-0.894697
C85	C	1.356851	-0.336519	-0.939798
C86	C	1.350478	-0.217085	-0.928540
C87	C	1.288849	-0.171560	-0.872178
C88	C	1.233595	-0.245476	-0.827076
H89	H	1.306316	-0.498851	-0.903033
H90	H	1.402473	-0.370220	-0.981521
H91	H	1.391381	-0.162369	-0.961927
H92	H	1.284130	-0.083143	-0.863842
H93	H	1.187973	-0.211775	-0.785353
H94	H	1.225673	-0.384009	-1.079463
C95	C	1.028945	-0.890442	-0.483605
C96	C	0.939717	-0.905623	-0.477134
C97	C	0.884445	-0.845291	-0.532308
C98	C	0.918402	-0.769778	-0.593954
C99	C	1.007634	-0.754593	-0.600427
C100	C	1.062906	-0.814925	-0.545253
H101	H	0.914576	-0.961525	-0.431498
H102	H	0.818389	-0.856532	-0.527516
H103	H	0.877486	-0.725116	-0.634797
H104	H	1.032775	-0.698691	-0.646063
H105	H	1.128962	-0.803684	-0.550045
C106	C	1.239935	-0.364981	-0.666182
C107	C	1.329172	-0.373560	-0.677462
C108	C	1.384403	-0.299677	-0.632383
C109	C	1.350396	-0.217215	-0.576025
C110	C	1.261155	-0.208633	-0.564744
C111	C	1.205924	-0.282516	-0.609822
H112	H	1.354350	-0.434606	-0.719183
H113	H	1.450466	-0.306030	-0.640735
H114	H	1.391282	-0.162522	-0.542656
H115	H	1.235977	-0.147587	-0.523022
H116	H	1.139861	-0.276163	-0.601470
H117	H	1.226490	-1.090333	-0.209422
H118	H	1.043394	-0.627897	-0.826578
C119	C	1.029078	-0.647062	-0.918981
C120	C	0.967449	-0.601559	-0.862618
C121	C	0.912210	-0.675487	-0.817511
C122	C	0.918599	-0.794919	-0.828767
C123	C	0.980231	-0.840429	-0.885133
C124	C	1.035471	-0.766501	-0.930240
H125	H	0.962717	-0.513142	-0.854283
H126	H	0.866586	-0.641797	-0.775785
H127	H	0.877708	-0.849646	-0.795377
H128	H	0.984963	-0.928846	-0.893468
H129	H	1.081095	-0.800191	-0.971966
C130	C	1.029115	-0.646991	-1.091144
C131	C	0.973866	-0.720910	-1.046048
C132	C	0.918644	-0.794806	-1.091125
C133	C	0.918672	-0.794784	-1.181299
C134	C	0.973923	-0.720863	-1.226400
C135	C	1.029144	-0.646966	-1.181323
H136	H	0.973844	-0.720929	-0.979291
H137	H	0.877744	-0.849528	-1.057737
H138	H	0.877794	-0.849487	-1.214668
H139	H	0.973945	-0.720844	-1.293157
H140	H	1.070045	-0.592245	-1.214710
H141	H	0.582800	-0.384455	-0.469521
H142	H	0.835657	-0.384405	-0.469479
H143	H	0.835554	-0.627895	-0.287005
H144	H	0.686827	-0.627926	-0.287027
H145	H	1.225646	-0.384082	-0.930745
H146	H	1.043383	-1.105182	-0.469306
H147	H	1.303451	-0.920906	-0.286534
