data_functionalizedCrystal
_audit_creation_method	'MofGen! by Chris Wilmer'
_symmetry_space_group_name_H-M	'P1'
_symmetry_Int_Tables_number	1
_symmetry_cell_setting	triclinic
loop_
_symmetry_equiv_pos_as_xyz
  x,y,z
_cell_length_a	17.077404
_cell_length_b	12.759400
_cell_length_c	17.077396
_cell_angle_alpha	89.975532
_cell_angle_beta	89.978556
_cell_angle_gamma	90.011413
loop_
_atom_site_label
_atom_site_type_symbol
_atom_site_fract_x
_atom_site_fract_y
_atom_site_fract_z
Zn1	Zn	1.200108	-0.418315	-0.443905
Zn2	Zn	1.200037	-0.594016	-0.312648
Zn3	Zn	1.068839	-0.418346	-0.312649
Zn4	Zn	1.068830	-0.593947	-0.443868
O5	O	1.134453	-0.506156	-0.378268
O6	O	1.309945	-0.441638	-0.426509
O7	O	1.182608	-0.570754	-0.202802
O8	O	1.086286	-0.271321	-0.330076
O9	O	1.309893	-0.570725	-0.330076
O10	O	1.182728	-0.271298	-0.426510
O11	O	1.086218	-0.441691	-0.202802
O12	O	0.958991	-0.441624	-0.330040
O13	O	1.086269	-0.570608	-0.553720
O14	O	0.958984	-0.570638	-0.426446
O15	O	1.182719	-0.441572	-0.553747
O16	O	1.182598	-0.741028	-0.330039
O17	O	1.086201	-0.740978	-0.426445
C18	C	0.930506	-0.506128	-0.378239
C19	C	0.843256	-0.506141	-0.378245
C20	C	0.467466	-0.439091	-0.428589
C21	C	0.549446	-0.439083	-0.428581
C22	C	0.590407	-0.506178	-0.378287
C23	C	0.549383	-0.573293	-0.328005
C24	C	0.467404	-0.573305	-0.328018
C25	C	0.720253	-0.573261	-0.327979
C26	C	0.802238	-0.573248	-0.327965
C27	C	0.802295	-0.439039	-0.428542
C28	C	0.720316	-0.439051	-0.428556
C29	C	0.679298	-0.506165	-0.378272
C30	C	1.134412	-0.779124	-0.378255
C31	C	1.134467	-0.895900	-0.378276
C32	C	1.184659	-0.950671	-0.428530
C33	C	1.184695	-1.060395	-0.428549
C34	C	1.084345	-1.060568	-0.328054
C35	C	1.084305	-0.950846	-0.328039
C36	C	1.242598	-0.950572	-0.486548
C37	C	1.242634	-1.060296	-0.486567
C38	C	1.339198	-0.506186	-0.378297
C39	C	1.426448	-0.506198	-0.378309
C40	C	1.134501	-0.506079	-0.583012
C41	C	1.134521	-0.506046	-0.670262
C42	C	1.134516	-0.232123	-0.378297
C43	C	1.134543	-0.115346	-0.378310
C44	C	1.184744	-0.438851	-0.711268
C45	C	1.184754	-0.438816	-0.793248
C46	C	1.134543	-0.505982	-0.834221
C47	C	1.084315	-0.573180	-0.793210
C48	C	1.084302	-0.573209	-0.711231
C49	C	1.084347	-0.573117	-0.964080
C50	C	1.084360	-0.573089	-1.046065
C51	C	1.184798	-0.438724	-1.046097
C52	C	1.184785	-0.438753	-0.964118
C53	C	1.134558	-0.505952	-0.923112
C54	C	1.134451	-0.506158	-0.174320
C55	C	1.134583	-0.505895	-0.087070
H56	H	0.686859	-0.627917	-0.287036
N57	N	1.319095	-0.905446	-0.457772
H58	H	1.343237	-0.860827	-0.500268
H59	H	1.309159	-0.860983	-0.409875
N60	N	0.593698	-0.366687	-0.482791
H61	H	0.627732	-0.409430	-0.519111
H62	H	0.555270	-0.324182	-0.514598
N63	N	1.238907	-0.366322	-0.837477
H64	H	1.270711	-0.323776	-0.799081
H65	H	1.275232	-0.409063	-0.871503
N66	N	1.030151	-0.645600	-0.837411
H67	H	1.062039	-0.694282	-0.871429
H68	H	0.998333	-0.688102	-0.798951
H69	H	0.686968	-0.384412	-0.469506
H70	H	0.582740	-0.627927	-0.287058
N71	N	0.846530	-0.366640	-0.482771
H72	H	0.904678	-0.376812	-0.475133
H73	H	0.832230	-0.383079	-0.538816
N74	N	0.846417	-0.645617	-0.273722
H75	H	0.880449	-0.694346	-0.305558
H76	H	0.880365	-0.602774	-0.237405
H77	H	0.434008	-0.627953	-0.287076
H78	H	1.043505	-1.105318	-0.287153
N79	N	1.238909	-0.366414	-0.667082
H80	H	1.275272	-0.409136	-0.633079
H81	H	1.270672	-0.323862	-0.705556
H82	H	0.434121	-0.384447	-0.469540
N83	N	1.030164	-0.891770	-0.273843
H84	H	0.998397	-0.943229	-0.242020
H85	H	1.062119	-0.846247	-0.237538
N86	N	1.213757	-1.105349	-0.563039
H87	H	1.199781	-1.046416	-0.599977
H88	H	1.256262	-1.149873	-0.587201
N89	N	1.238976	-0.366246	-1.090319
H90	H	1.231365	-0.376414	-1.148469
H91	H	1.226779	-0.291214	-1.075994
N92	N	1.030125	-0.645680	-0.667007
H93	H	1.042297	-0.720745	-0.681265
H94	H	1.037754	-0.635418	-0.608870
H95	H	1.226272	-0.920761	-0.547325
H96	H	1.225675	-0.384067	-0.930760
N97	N	1.030207	-0.645530	-1.090260
H98	H	0.998382	-0.688100	-1.051845
H99	H	0.993902	-0.602741	-1.124274
N100	N	1.030180	-0.645599	-0.919846
H101	H	0.993806	-0.602911	-0.885830
H102	H	0.998427	-0.688135	-0.958288
H103	H	1.303451	-1.090033	-0.470349
