data_functionalizedCrystal
_audit_creation_method	'MofGen! by Chris Wilmer'
_symmetry_space_group_name_H-M	'P1'
_symmetry_Int_Tables_number	1
_symmetry_cell_setting	triclinic
loop_
_symmetry_equiv_pos_as_xyz
  x,y,z
_cell_length_a	17.077402
_cell_length_b	17.077404
_cell_length_c	17.077396
_cell_angle_alpha	89.983895
_cell_angle_beta	89.969381
_cell_angle_gamma	90.020853
loop_
_atom_site_label
_atom_site_type_symbol
_atom_site_fract_x
_atom_site_fract_y
_atom_site_fract_z
Zn1	Zn	-0.312544	1.200037	-0.443812
Zn2	Zn	0.187456	1.700037	0.056188
Zn3	Zn	-0.443821	1.199949	-0.312543
Zn4	Zn	0.056179	1.699949	0.187457
Zn5	Zn	-0.312569	1.068774	-0.312562
Zn6	Zn	0.187431	1.568774	0.187438
Zn7	Zn	-0.443767	1.068737	-0.443769
Zn8	Zn	0.056233	1.568737	0.056231
O9	O	-0.378175	1.134374	-0.378171
O10	O	0.121825	1.634374	0.121829
O11	O	-0.329971	1.309872	-0.426408
O12	O	0.170029	1.809872	0.073592
O13	O	-0.426443	1.182528	-0.202698
O14	O	0.073557	1.682528	0.297302
O15	O	-0.202718	1.086239	-0.329999
O16	O	0.297282	1.586239	0.170001
O17	O	-0.426419	1.309808	-0.329966
O18	O	0.073581	1.809808	0.170034
O19	O	-0.202700	1.182677	-0.426427
O20	O	0.297300	1.682677	0.073573
O21	O	-0.330012	1.086154	-0.202713
O22	O	0.169988	1.586154	0.297287
O23	O	-0.329960	0.958922	-0.329957
O24	O	0.170040	1.458922	0.170043
O25	O	-0.426328	1.086175	-0.553622
O26	O	0.073672	1.586175	-0.053622
O27	O	-0.426351	0.958895	-0.426354
O28	O	0.073649	1.458895	0.073646
O29	O	-0.329919	1.182641	-0.553653
O30	O	0.170081	1.682641	-0.053653
O31	O	-0.553661	1.182492	-0.329924
O32	O	-0.053661	1.682492	0.170076
O33	O	-0.553621	1.086090	-0.426335
O34	O	-0.053621	1.586090	0.073665
C35	C	-0.378153	0.930427	-0.378154
C36	C	0.121847	1.430427	0.121846
C37	C	-0.378162	0.843177	-0.378165
C38	C	0.121838	1.343177	0.121835
C39	C	-0.328031	0.802221	-0.428459
C40	C	0.171969	1.302221	0.071541
C41	C	-0.328036	0.720240	-0.428463
C42	C	0.171964	1.220240	0.071537
C43	C	-0.378177	0.679217	-0.378176
C44	C	0.121823	1.179217	0.121824
C45	C	-0.428311	0.720179	-0.327876
C46	C	0.071689	1.220179	0.172124
C47	C	-0.428301	0.802158	-0.327869
C48	C	0.071699	1.302158	0.172131
C49	C	-0.428328	0.549309	-0.327895
C50	C	0.071672	1.049309	0.172105
C51	C	-0.428339	0.467324	-0.327903
C52	C	0.071661	0.967324	0.172097
C53	C	-0.328063	0.467391	-0.428489
C54	C	0.171937	0.967391	0.071511
C55	C	-0.328054	0.549370	-0.428482
C56	C	0.171946	1.049370	0.071518
C57	C	-0.378189	0.590326	-0.378183
C58	C	0.121811	1.090326	0.121817
C59	C	-0.582123	1.134299	-0.378140
C60	C	-0.082123	1.634299	0.121860
C61	C	-0.669373	1.134338	-0.378153
C62	C	-0.169373	1.634338	0.121847
C63	C	-0.710358	1.184585	-0.328005
C64	C	-0.210358	1.684585	0.171995
C65	C	-0.792338	1.184624	-0.328025
C66	C	-0.292338	1.684624	0.171975
C67	C	-0.833332	1.134410	-0.378190
C68	C	-0.333332	1.634410	0.121810
C69	C	-0.792342	1.084161	-0.428343
C70	C	-0.292342	1.584161	0.071657
C71	C	-0.710363	1.084127	-0.428326
C72	C	-0.210363	1.584127	0.071674
C73	C	-0.963212	1.084233	-0.428372
C74	C	-0.463212	1.584233	0.071628
C75	C	-1.045197	1.084266	-0.428388
C76	C	-0.545197	1.584266	0.071612
C77	C	-1.045187	1.184730	-0.328072
C78	C	-0.545187	1.684730	0.171928
C79	C	-0.963208	1.184697	-0.328055
C80	C	-0.463208	1.684697	0.171945
C81	C	-0.922223	1.134446	-0.378207
C82	C	-0.422223	1.634446	0.121793
C83	C	-0.173431	1.134472	-0.378220
C84	C	0.326569	1.634472	0.121780
C85	C	-0.086181	1.134513	-0.378241
C86	C	0.413819	1.634513	0.121759
C87	C	-0.378114	1.134414	-0.582916
C88	C	0.121886	1.634414	-0.082916
C89	C	-0.378089	1.134431	-0.670166
C90	C	0.121911	1.634431	-0.170166
C91	C	-0.378198	1.339119	-0.378190
C92	C	0.121802	1.839119	0.121810
C93	C	-0.378208	1.426368	-0.378197
C94	C	0.121792	1.926368	0.121803
C95	C	-0.327871	1.084264	-0.711163
C96	C	0.172129	1.584264	-0.211163
C97	C	-0.327853	1.084277	-0.793143
C98	C	0.172147	1.584277	-0.293143
C99	C	-0.378050	1.134461	-0.834125
C100	C	0.121950	1.634461	-0.334125
C101	C	-0.428272	1.184630	-0.793122
C102	C	0.071728	1.684630	-0.293122
C103	C	-0.428294	1.184612	-0.711143
C104	C	0.071706	1.684612	-0.211143
C105	C	-0.428223	1.184664	-0.963993
C106	C	0.071777	1.684664	-0.463993
C107	C	-0.428201	1.184682	-1.045977
C108	C	0.071799	1.684682	-0.545977
C109	C	-0.327783	1.084328	-1.045992
C110	C	0.172217	1.584328	-0.545992
C111	C	-0.327804	1.084311	-0.964013
C112	C	0.172196	1.584311	-0.464013
C113	C	-0.378026	1.134481	-0.923016
C114	C	0.121974	1.634481	-0.423016
C115	C	-0.378179	1.134380	-0.174224
C116	C	0.121821	1.634380	0.325776
C117	C	-0.377984	1.134516	-0.086974
C118	C	0.122016	1.634516	0.413026
H119	H	-0.676985	1.225472	-0.287153
H120	H	-0.176985	1.725472	0.212847
H121	H	-0.286991	1.043403	-0.677801
H122	H	0.213009	1.543403	-0.177801
H123	H	-0.929845	1.043316	-0.469214
H124	H	-0.429845	1.543316	0.030786
H125	H	-0.287229	0.582769	-0.469435
H126	H	0.212771	1.082769	0.030565
H127	H	-0.286926	1.043450	-0.930648
H128	H	0.213074	1.543450	-0.430648
O129	O	-0.832029	1.233457	-0.279236
O130	O	-0.332029	1.733457	0.220764
C131	C	-0.778267	1.277778	-0.234966
C132	C	-0.278267	1.777778	0.265034
H133	H	-0.719858	1.245601	-0.232209
H134	H	-0.219858	1.745601	0.267791
H135	H	-0.801993	1.286196	-0.173131
H136	H	-0.301993	1.786196	0.326869
H137	H	-0.769478	1.337376	-0.263759
H138	H	-0.269478	1.837376	0.236241
H139	H	-0.286889	1.043479	-1.079376
H140	H	0.213111	1.543479	-0.579376
H141	H	-0.469152	0.582653	-0.286934
H142	H	0.030848	1.082653	0.213066
H143	H	-1.078572	1.043392	-0.469251
H144	H	-0.578572	1.543392	0.030749
O145	O	-0.670669	1.035245	-0.477067
O146	O	-0.170669	1.535245	0.022933
C147	C	-0.724429	0.990947	-0.521362
C148	C	-0.224429	1.490947	-0.021362
H149	H	-0.782890	0.988265	-0.489217
H150	H	-0.282890	1.488265	0.010783
H151	H	-0.700781	0.929087	-0.529685
H152	H	-0.200781	1.429087	-0.029685
H153	H	-0.733086	1.019666	-0.581003
H154	H	-0.233086	1.519666	-0.081003
H155	H	-0.469147	1.225486	-0.826496
H156	H	0.030853	1.725486	-0.326496
H157	H	-0.286964	1.043423	-0.826519
H158	H	0.213036	1.543423	-0.326519
H159	H	-0.469133	0.686771	-0.286927
H160	H	0.030867	1.186771	0.213073
O161	O	-0.832249	1.035492	-0.477111
O162	O	-0.332249	1.535492	0.022889
C163	C	-0.879584	1.080172	-0.527872
C164	C	-0.379584	1.580172	-0.027872
H165	H	-0.891839	1.139682	-0.500243
H166	H	-0.391839	1.639682	-0.000243
H167	H	-0.937249	1.048215	-0.538372
H168	H	-0.437249	1.548215	-0.038372
H169	H	-0.847943	1.088747	-0.586047
H170	H	-0.347943	1.588747	-0.086047
H171	H	-0.469076	1.225546	-1.079343
H172	H	0.030924	1.725546	-0.579343
H173	H	-0.469123	0.835503	-0.286913
H174	H	0.030877	1.335503	0.213087
H175	H	-0.929831	1.225580	-0.287204
H176	H	-0.429831	1.725580	0.212796
O177	O	-0.477157	1.233232	-0.671280
O178	O	0.022843	1.733232	-0.171280
C179	C	-0.527849	1.188503	-0.623830
C180	C	-0.027849	1.688503	-0.123830
H181	H	-0.532682	1.126683	-0.648533
H182	H	-0.032682	1.626683	-0.148533
H183	H	-0.588263	1.216862	-0.622883
H184	H	-0.088263	1.716862	-0.122883
H185	H	-0.503594	1.185795	-0.561706
H186	H	-0.003594	1.685795	-0.061706
O187	O	-0.477037	1.233469	-0.924288
O188	O	0.022963	1.733469	-0.424288
C189	C	-0.521352	1.277753	-0.978037
C190	C	-0.021352	1.777753	-0.478037
H191	H	-0.489184	1.280503	-1.036482
H192	H	0.010816	1.780503	-0.536482
H193	H	-0.529743	1.339590	-0.954350
H194	H	-0.029743	1.839590	-0.454350
H195	H	-0.580962	1.248977	-0.986739
H196	H	-0.080962	1.748977	-0.486739
O197	O	-1.085116	1.233605	-0.279512
O198	O	-0.585116	1.733605	0.220488
C199	C	-1.166263	1.222903	-0.290314
C200	C	-0.666263	1.722903	0.209686
H201	H	-1.177408	1.197055	-0.350832
H202	H	-0.677408	1.697055	0.149168
H203	H	-1.197331	1.281754	-0.285188
H204	H	-0.697331	1.781754	0.214812
H205	H	-1.189668	1.181250	-0.243659
H206	H	-0.689668	1.681250	0.256341
H207	H	-0.287215	0.686898	-0.469419
H208	H	0.212785	1.186898	0.030581
O209	O	-0.279364	0.841982	-0.477420
O210	O	0.220636	1.341982	0.022580
C211	C	-0.296633	0.821987	-0.555627
C212	C	0.203367	1.321987	-0.055627
H213	H	-0.326817	0.762458	-0.557203
H214	H	0.173183	1.262458	-0.057203
H215	H	-0.240025	0.819209	-0.590927
H216	H	0.259975	1.319209	-0.090927
H217	H	-0.337018	0.868125	-0.581990
H218	H	0.162982	1.368125	-0.081990
O219	O	-0.279468	0.427527	-0.477388
O220	O	0.220532	0.927527	0.022612
C221	C	-0.324231	0.380128	-0.528022
C222	C	0.175769	0.880128	-0.028022
H223	H	-0.383682	0.367816	-0.500227
H224	H	0.116318	0.867816	-0.000227
H225	H	-0.292274	0.322494	-0.538609
H226	H	0.207726	0.822494	-0.038609
H227	H	-0.332932	0.411742	-0.586174
H228	H	0.167068	0.911742	-0.086174
H229	H	-0.469169	0.433925	-0.286955
H230	H	0.030831	0.933925	0.213045
