data_functionalizedCrystal
_audit_creation_method	'MofGen! by Chris Wilmer'
_symmetry_space_group_name_H-M	'P1'
_symmetry_Int_Tables_number	1
_symmetry_cell_setting	triclinic
loop_
_symmetry_equiv_pos_as_xyz
  x,y,z
_cell_length_a	12.759401
_cell_length_b	12.759400
_cell_length_c	12.759393
_cell_angle_alpha	89.970195
_cell_angle_beta	89.979062
_cell_angle_gamma	90.016169
loop_
_atom_site_label
_atom_site_type_symbol
_atom_site_fract_x
_atom_site_fract_y
_atom_site_fract_z
Zn1	Zn	1.606267	-0.418173	-0.594025
Zn2	Zn	1.606158	-0.593888	-0.418347
Zn3	Zn	1.430565	-0.418229	-0.418360
Zn4	Zn	1.430558	-0.593815	-0.593985
O5	O	1.518387	-0.506026	-0.506179
O6	O	1.753273	-0.441489	-0.570733
O7	O	1.582823	-0.570641	-0.271328
O8	O	1.453921	-0.271200	-0.441685
O9	O	1.753193	-0.570587	-0.441663
O10	O	1.583008	-0.271159	-0.570745
O11	O	1.453816	-0.441584	-0.271337
O12	O	1.283543	-0.441513	-0.441646
O13	O	1.453908	-0.570461	-0.741011
O14	O	1.283538	-0.570516	-0.570676
O15	O	1.583001	-0.441418	-0.741041
O16	O	1.582815	-0.740900	-0.441624
O17	O	1.453803	-0.740846	-0.570664
C18	C	1.245420	-0.506013	-0.506159
C19	C	1.128643	-0.506033	-0.506175
C20	C	1.073805	-0.573307	-0.573255
C21	C	0.964081	-0.573311	-0.573276
C22	C	0.964042	-0.438764	-0.439127
C23	C	1.073764	-0.438756	-0.439112
C24	C	1.518325	-0.778994	-0.506161
C25	C	1.518394	-0.895770	-0.506188
C26	C	1.585581	-0.950521	-0.573447
C27	C	1.585640	-1.060245	-0.573475
C28	C	1.451323	-1.060458	-0.438977
C29	C	1.451260	-0.950736	-0.438955
C30	C	1.792420	-0.506040	-0.506201
C31	C	1.909197	-0.506046	-0.506210
C32	C	1.518466	-0.505925	-0.780213
C33	C	1.518499	-0.505882	-0.896990
C34	C	1.518478	-0.231993	-0.506221
C35	C	1.518517	-0.115216	-0.506239
C36	C	1.585723	-0.438679	-0.951869
C37	C	1.585740	-0.438633	-1.061593
C38	C	1.451308	-0.573004	-1.061549
C39	C	1.451286	-0.573044	-0.951827
C40	C	1.518369	-0.506051	-0.233212
C41	C	1.518539	-0.505798	-0.116436
H42	H	0.919346	-0.383991	-0.384525
H43	H	1.396666	-1.105224	-0.384236
H44	H	0.919438	-0.628090	-0.627901
H45	H	1.640244	-0.905770	-0.628194
H46	H	1.396543	-0.906155	-0.384184
C47	C	1.659550	-1.120469	-0.647458
C48	C	1.778981	-1.105288	-0.638978
C49	C	1.852895	-1.165511	-0.712966
C50	C	1.807377	-1.240915	-0.795435
C51	C	1.687939	-1.256100	-0.803919
C52	C	1.614026	-1.195877	-0.729931
H53	H	1.812682	-1.049466	-0.577926
H54	H	1.941310	-1.154270	-0.706685
H55	H	1.862092	-1.285496	-0.850205
H56	H	1.654238	-1.311921	-0.864971
H57	H	1.525610	-1.207117	-0.736212
H58	H	1.640449	-0.383989	-0.907223
C59	C	1.659689	-0.364709	-1.121960
C60	C	1.733616	-0.290836	-1.061637
C61	C	1.807566	-0.216907	-1.122003
C62	C	1.807590	-0.216851	-1.242693
C63	C	1.733661	-0.290727	-1.303024
C64	C	1.659711	-0.364656	-1.242657
H65	H	1.733600	-0.290875	-0.972289
H66	H	1.862293	-0.162219	-1.077342
H67	H	1.862333	-0.162124	-1.287381
H68	H	1.733677	-0.290688	-1.392372
H69	H	1.604984	-0.419344	-1.287318
C70	C	1.377400	-0.646896	-1.121881
C71	C	1.385948	-0.766336	-1.106772
C72	C	1.312048	-0.840236	-1.167106
C73	C	1.229602	-0.794697	-1.242549
C74	C	1.221051	-0.675251	-1.257662
C75	C	1.294950	-0.601350	-1.197328
H76	H	1.446983	-0.800053	-1.050922
H77	H	1.318379	-0.928659	-1.155918
H78	H	1.174897	-0.849402	-1.287212
H79	H	1.160016	-0.641534	-1.313512
H80	H	1.288620	-0.512928	-1.208516
H81	H	1.396537	-0.627768	-0.907143
H82	H	1.118414	-0.383967	-0.384487
C83	C	1.134174	-0.647301	-0.647029
C84	C	1.119056	-0.766728	-0.638259
C85	C	1.179421	-0.840722	-0.712038
C86	C	1.254905	-0.795288	-0.794588
C87	C	1.270026	-0.675855	-0.803362
C88	C	1.209661	-0.601862	-0.729583
H89	H	1.063175	-0.800366	-0.577147
H90	H	1.168227	-0.929134	-0.705543
H91	H	1.299591	-0.850063	-0.849204
H92	H	1.325907	-0.642217	-0.864474
H93	H	1.220855	-0.513449	-0.736079
