data_functionalizedCrystal
_audit_creation_method	'MofGen! by Chris Wilmer'
_symmetry_space_group_name_H-M	'P1'
_symmetry_Int_Tables_number	1
_symmetry_cell_setting	triclinic
loop_
_symmetry_equiv_pos_as_xyz
  x,y,z
_cell_length_a	12.759401
_cell_length_b	12.759400
_cell_length_c	17.077396
_cell_angle_alpha	90.024468
_cell_angle_beta	90.016407
_cell_angle_gamma	90.013326
loop_
_atom_site_label
_atom_site_type_symbol
_atom_site_fract_x
_atom_site_fract_y
_atom_site_fract_z
Zn1	Zn	1.606245	-0.418262	0.443800
Zn2	Zn	1.606150	-0.593962	0.312543
Zn3	Zn	1.430553	-0.418298	0.312555
Zn4	Zn	1.430540	-0.593900	0.443774
O5	O	1.518372	-0.506106	0.378168
O6	O	1.753253	-0.441580	0.426394
O7	O	1.582823	-0.570702	0.202698
O8	O	1.453904	-0.271273	0.329981
O9	O	1.753184	-0.570666	0.329960
O10	O	1.582984	-0.271246	0.426406
O11	O	1.453813	-0.441642	0.202706
O12	O	1.283531	-0.441582	0.329955
O13	O	1.453882	-0.570559	0.553624
O14	O	1.283521	-0.570595	0.426361
O15	O	1.582971	-0.441519	0.553643
O16	O	1.582810	-0.740975	0.329935
O17	O	1.453790	-0.740929	0.426350
C18	C	1.245405	-0.506086	0.378157
C19	C	1.128628	-0.506103	0.378171
C20	C	1.073789	-0.573388	0.428287
C21	C	0.964065	-0.573401	0.428295
C22	C	0.964029	-0.438842	0.328066
C23	C	1.073751	-0.438824	0.328062
C24	C	1.073808	-0.651078	0.486151
C25	C	0.964084	-0.651092	0.486160
C26	C	1.518317	-0.779073	0.378155
C27	C	1.518390	-0.895850	0.378176
C28	C	1.585568	-0.950618	0.428426
C29	C	1.585617	-1.060342	0.428445
C30	C	1.451306	-1.060520	0.327958
C31	C	1.451253	-0.950798	0.327944
C32	C	1.663114	-0.950516	0.486439
C33	C	1.663163	-1.060240	0.486458
C34	C	1.792405	-0.506126	0.378179
C35	C	1.909182	-0.506134	0.378184
C36	C	1.518436	-0.506028	0.582912
C37	C	1.518463	-0.505995	0.670162
C38	C	1.518456	-0.232072	0.378197
C39	C	1.518492	-0.115296	0.378210
C40	C	1.518369	-0.506107	0.174220
C41	C	1.518546	-0.505844	0.086971
C42	C	1.585682	-0.438798	0.711163
C43	C	1.585695	-0.438763	0.793144
C44	C	1.518493	-0.505931	0.834122
C45	C	1.451266	-0.573131	0.793114
C46	C	1.451249	-0.573160	0.711135
C47	C	1.451308	-0.573068	0.963985
C48	C	1.451326	-0.573041	1.045969
C49	C	1.585754	-0.438671	1.045993
C50	C	1.585737	-0.438700	0.964014
C51	C	1.518511	-0.505902	0.923013
H52	H	0.919335	-0.384065	0.287270
H53	H	1.107825	-0.728327	0.464272
H54	H	1.744561	-1.089974	0.470234
H55	H	1.633971	-1.094244	0.544192
C56	C	1.378476	-0.646186	0.837644
C57	C	1.437954	-0.713534	0.884689
C58	C	1.370938	-0.780858	0.925711
H59	H	1.332700	-0.606104	0.869690
H60	H	1.338456	-0.686272	0.801507
H61	H	1.477956	-0.673453	0.920822
H62	H	1.483728	-0.753639	0.852663
H63	H	1.330918	-0.820944	0.889574
H64	H	1.325164	-0.740767	0.957753
H65	H	1.411284	-0.826568	0.957630
H66	H	1.640434	-0.384047	0.826524
C67	C	1.658687	-0.365756	0.666819
C68	C	1.717536	-0.306880	0.720277
C69	C	1.784787	-0.239568	0.679458
H70	H	1.704539	-0.405840	0.634835
H71	H	1.618527	-0.319930	0.634858
H72	H	1.757692	-0.352699	0.752225
H73	H	1.671711	-0.266773	0.752262
H74	H	1.744627	-0.193743	0.647497
H75	H	1.830633	-0.279661	0.647476
H76	H	1.824717	-0.199606	0.715723
C77	C	1.378176	-0.891281	0.273522
C78	C	1.310759	-0.828325	0.317924
C79	C	1.243413	-0.773496	0.267817
H80	H	1.418240	-0.848391	0.239320
H81	H	1.338143	-0.939693	0.243624
H82	H	1.350788	-0.779919	0.347809
H83	H	1.270672	-0.871189	0.352124
H84	H	1.203380	-0.821907	0.237918
H85	H	1.283486	-0.730611	0.233616
H86	H	1.197656	-0.730781	0.297936
H87	H	1.396549	-0.627774	0.930604
C88	C	1.658613	-0.365732	1.090646
C89	C	1.644220	-0.380050	1.171211
C90	C	1.711305	-0.312868	1.212373
H91	H	1.729243	-0.381044	1.077317
H92	H	1.643238	-0.295126	1.077256
H93	H	1.659602	-0.450640	1.184596
H94	H	1.573604	-0.364730	1.184563
H95	H	1.695930	-0.242262	1.198982
H96	H	1.781930	-0.328186	1.199037
H97	H	1.701541	-0.322567	1.267039
H98	H	0.930083	-0.622056	0.543953
C99	C	1.378412	-0.646303	0.666652
C100	C	1.401289	-0.750246	0.686567
C101	C	1.334224	-0.817656	0.645595
H102	H	1.307787	-0.631066	0.680042
H103	H	1.388042	-0.636767	0.611954
H104	H	1.391651	-0.759777	0.741253
H105	H	1.471902	-0.765516	0.673175
H106	H	1.343853	-0.808121	0.590897
H107	H	1.263603	-0.802410	0.658989
H108	H	1.349743	-0.888189	0.659096
C109	C	1.133103	-0.365719	0.273574
C110	C	1.061557	-0.306825	0.229680
C111	C	1.116193	-0.239475	0.179470
H112	H	1.175924	-0.319900	0.303578
H113	H	1.175868	-0.405810	0.239271
H114	H	1.018810	-0.266737	0.263978
H115	H	1.018734	-0.352617	0.199660
H116	H	1.158957	-0.279565	0.145168
H117	H	1.159011	-0.193662	0.209481
H118	H	1.067657	-0.199514	0.149677
C119	C	0.924554	-0.759609	0.464256
C120	C	1.010067	-0.825973	0.450849
C121	C	0.973693	-0.925937	0.430661
H122	H	0.883238	-0.786859	0.505792
H123	H	0.883199	-0.755151	0.418106
H124	H	1.051404	-0.830433	0.496993
H125	H	1.051392	-0.798757	0.409309
H126	H	0.932338	-0.921480	0.384511
H127	H	0.932377	-0.953177	0.472200
H128	H	1.031707	-0.970975	0.421555
H129	H	1.396645	-1.105272	0.287061
C130	C	1.658740	-0.365662	0.919664
C131	C	1.717597	-0.306783	0.973115
C132	C	1.784846	-0.239477	0.932288
H133	H	1.704588	-0.405752	0.887679
H134	H	1.618578	-0.319839	0.887702
H135	H	1.757756	-0.352600	1.005063
H136	H	1.671777	-0.266671	1.005101
H137	H	1.744684	-0.193654	0.900327
H138	H	1.830687	-0.279575	0.900305
H139	H	1.824781	-0.199513	0.968548
H140	H	1.103613	-0.629387	0.546974
C141	C	1.633906	-0.910963	0.567518
C142	C	1.616093	-0.996463	0.617129
C143	C	1.589172	-0.960067	0.691819
H144	H	1.689508	-0.869571	0.587848
H145	H	1.572108	-0.869680	0.564201
H146	H	1.677884	-1.037729	0.620449
H147	H	1.560488	-1.037863	0.596825
H148	H	1.527374	-0.918784	0.688502
H149	H	1.644777	-0.918675	0.712141
H150	H	1.577074	-1.018072	0.725487
H151	H	1.740407	-0.916446	0.464706
C152	C	1.378419	-0.646123	1.090367
C153	C	1.401220	-0.750088	1.070409
C154	C	1.334070	-0.817436	1.111287
H155	H	1.388001	-0.636617	1.145073
H156	H	1.307813	-0.630799	1.076916
H157	H	1.471809	-0.765407	1.083865
H158	H	1.391632	-0.759627	1.015710
H159	H	1.263463	-0.802112	1.097836
H160	H	1.343657	-0.807921	1.165991
H161	H	1.349524	-0.887983	1.097746
