data_functionalizedCrystal
_audit_creation_method	'MofGen! by Chris Wilmer'
_symmetry_space_group_name_H-M	'P1'
_symmetry_Int_Tables_number	1
_symmetry_cell_setting	triclinic
loop_
_symmetry_equiv_pos_as_xyz
  x,y,z
_cell_length_a	21.395364
_cell_length_b	12.759399
_cell_length_c	21.395355
_cell_angle_alpha	89.986271
_cell_angle_beta	89.975273
_cell_angle_gamma	90.013987
loop_
_atom_site_label
_atom_site_type_symbol
_atom_site_fract_x
_atom_site_fract_y
_atom_site_fract_z
Zn1	Zn	0.957925	-0.418435	-0.354285
Zn2	Zn	0.957855	-0.594099	-0.249516
Zn3	Zn	0.853140	-0.418430	-0.249522
Zn4	Zn	0.853136	-0.594067	-0.354256
O5	O	0.905514	-0.506258	-0.301895
O6	O	1.045593	-0.441753	-0.340397
O7	O	0.943936	-0.570808	-0.161839
O8	O	0.867070	-0.271409	-0.263433
O9	O	1.045542	-0.570813	-0.263424
O10	O	0.944055	-0.271413	-0.340402
O11	O	0.867002	-0.441744	-0.161843
O12	O	0.765461	-0.441713	-0.263405
O13	O	0.867065	-0.570758	-0.441938
O14	O	0.765459	-0.570753	-0.340353
O15	O	0.944052	-0.441721	-0.441959
O16	O	0.943933	-0.741116	-0.263396
O17	O	0.866997	-0.741092	-0.340348
C18	C	0.742726	-0.506230	-0.301877
C19	C	0.673085	-0.506243	-0.301884
C20	C	0.171304	-0.573572	-0.341923
C21	C	0.236739	-0.573572	-0.341916
C22	C	0.269447	-0.506281	-0.301915
C23	C	0.236713	-0.439003	-0.261905
C24	C	0.171279	-0.439012	-0.261908
C25	C	0.373121	-0.411598	-0.297059
C26	C	0.438554	-0.411587	-0.297060
C27	C	0.471267	-0.506253	-0.301901
C28	C	0.438540	-0.600933	-0.306754
C29	C	0.373106	-0.600942	-0.306757
C30	C	0.340399	-0.506264	-0.301906
C31	C	0.574946	-0.573532	-0.341898
C32	C	0.640382	-0.573534	-0.341887
C33	C	0.640355	-0.438955	-0.261879
C34	C	0.574919	-0.438963	-0.261887
C35	C	0.542219	-0.506250	-0.301899
C36	C	0.905474	-0.779225	-0.301882
C37	C	0.905514	-0.896002	-0.301898
C38	C	0.945665	-1.060566	-0.261894
C39	C	0.945623	-0.950842	-0.261874
C40	C	0.865440	-0.950891	-0.341938
C41	C	0.865479	-1.060613	-0.341954
C42	C	0.991960	-1.060537	-0.215671
C43	C	0.991918	-0.950813	-0.215652
C44	C	1.068937	-0.506287	-0.301913
C45	C	1.138578	-0.506299	-0.301921
C46	C	0.905566	-0.506236	-0.465318
C47	C	0.905588	-0.506227	-0.534960
C48	C	0.905571	-0.232224	-0.301921
C49	C	0.905595	-0.115448	-0.301933
C50	C	0.945674	-0.439035	-0.567685
C51	C	0.945673	-0.438990	-0.633120
C52	C	0.905593	-0.506156	-0.665828
C53	C	0.865499	-0.573353	-0.633095
C54	C	0.865497	-0.573388	-0.567661
C55	C	0.900632	-0.600755	-0.769498
C56	C	0.900639	-0.600721	-0.834931
C57	C	0.905597	-0.506045	-0.867649
C58	C	0.910561	-0.411400	-0.834925
C59	C	0.910559	-0.411436	-0.769491
C60	C	0.905591	-0.506124	-0.736780
C61	C	0.945684	-0.438798	-0.971327
C62	C	0.945678	-0.438751	-1.036763
C63	C	0.865508	-0.573123	-1.036737
C64	C	0.865510	-0.573160	-0.971301
C65	C	0.905601	-0.506000	-0.938600
C66	C	0.905498	-0.506203	-0.139107
C67	C	0.905597	-0.505916	-0.069466
H68	H	0.667026	-0.628323	-0.374459
H69	H	0.832778	-0.906233	-0.374522
H70	H	0.914600	-0.334306	-0.861563
Cl71	Cl	0.815100	-1.129604	-0.392287
Cl72	Cl	0.277830	-0.354412	-0.211615
Cl73	Cl	0.815100	-0.657866	-0.526518
Cl74	Cl	0.681466	-0.354369	-0.211584
H75	H	0.832864	-0.628036	-0.659730
Cl76	Cl	0.971951	-1.106605	-0.140741
Cl77	Cl	0.996079	-0.354364	-0.930214
Cl78	Cl	0.533776	-0.354377	-0.211601
Cl79	Cl	1.063128	-1.112967	-0.242587
H80	H	0.144634	-0.384228	-0.229334
H81	H	0.974550	-0.916845	-0.169532
Cl82	Cl	1.066809	-0.904705	-0.235781
H83	H	0.978318	-0.384346	-0.541063
H84	H	0.144683	-0.628366	-0.374502
H85	H	0.465174	-0.678018	-0.310701
H86	H	0.978314	-0.384269	-0.659770
H87	H	0.832868	-0.627800	-1.063367
Cl88	Cl	0.916795	-0.292460	-0.728355
H89	H	0.978320	-0.384029	-1.063407
H90	H	0.832872	-0.627882	-0.944656
H91	H	0.346490	-0.334506	-0.293106
H92	H	0.896600	-0.677786	-0.861570
H93	H	0.896427	-0.677831	-0.742865
Cl94	Cl	0.533833	-0.658124	-0.392195
H95	H	0.263390	-0.628354	-0.374493
H96	H	0.465195	-0.334493	-0.293115
Cl97	Cl	0.331965	-0.719962	-0.312854
