data_functionalizedCrystal
_audit_creation_method	'MofGen! by Chris Wilmer'
_symmetry_space_group_name_H-M	'P1'
_symmetry_Int_Tables_number	1
_symmetry_cell_setting	triclinic
loop_
_symmetry_equiv_pos_as_xyz
  x,y,z
_cell_length_a	21.395364
_cell_length_b	21.395362
_cell_length_c	21.395356
_cell_angle_alpha	90.029719
_cell_angle_beta	90.023767
_cell_angle_gamma	90.028124
loop_
_atom_site_label
_atom_site_type_symbol
_atom_site_fract_x
_atom_site_fract_y
_atom_site_fract_z
Zn1	Zn	0.957857	-0.249482	0.354255
Zn2	Zn	0.957763	-0.354259	0.249474
Zn3	Zn	0.853074	-0.249496	0.249492
Zn4	Zn	0.853043	-0.354223	0.354214
O5	O	0.905434	-0.301865	0.301859
O6	O	1.045522	-0.263390	0.340366
O7	O	0.943849	-0.340383	0.161799
O8	O	0.867026	-0.161816	0.263414
O9	O	1.045453	-0.340369	0.263384
O10	O	0.944010	-0.161806	0.340383
O11	O	0.866935	-0.263414	0.161812
O12	O	0.765392	-0.263379	0.263374
O13	O	0.866973	-0.340308	0.441898
O14	O	0.765369	-0.340321	0.340313
O15	O	0.943980	-0.263356	0.441928
O16	O	0.943819	-0.441932	0.263344
O17	O	0.866882	-0.441906	0.340296
C18	C	0.742647	-0.301848	0.301841
C19	C	0.673005	-0.301856	0.301848
C20	C	0.171214	-0.342002	0.341882
C21	C	0.236649	-0.342002	0.341876
C22	C	0.269367	-0.301879	0.301879
C23	C	0.236644	-0.261763	0.261874
C24	C	0.171210	-0.261769	0.261877
C25	C	0.373055	-0.245414	0.297030
C26	C	0.438488	-0.245408	0.297031
C27	C	0.471188	-0.301862	0.301865
C28	C	0.438447	-0.358325	0.306711
C29	C	0.373012	-0.358330	0.306715
C30	C	0.340319	-0.301869	0.301871
C31	C	0.574855	-0.341978	0.341857
C32	C	0.640292	-0.341980	0.341846
C33	C	0.640286	-0.261735	0.261848
C34	C	0.574850	-0.261739	0.261855
C35	C	0.542139	-0.301860	0.301863
C36	C	0.905354	-0.464653	0.301827
C37	C	0.905377	-0.534294	0.301834
C38	C	0.945440	-0.566945	0.341941
C39	C	0.945462	-0.632380	0.341956
C40	C	0.905428	-0.665162	0.301853
C41	C	0.865358	-0.632503	0.261744
C42	C	0.865332	-0.567069	0.261734
C43	C	0.900552	-0.768871	0.245415
C44	C	0.900581	-0.834304	0.245423
C45	C	0.905502	-0.866983	0.301884
C46	C	0.910406	-0.834221	0.358337
C47	C	0.910381	-0.768786	0.358327
C48	C	0.905450	-0.736115	0.301860
C49	C	0.945591	-0.970586	0.342010
C50	C	0.945608	-1.036023	0.342027
C51	C	0.865507	-1.036145	0.261809
C52	C	0.865487	-0.970710	0.261799
C53	C	0.905531	-0.937934	0.301898
C54	C	1.068857	-0.301882	0.301877
C55	C	1.138499	-0.301890	0.301885
C56	C	0.905484	-0.301826	0.465282
C57	C	0.905505	-0.301810	0.534924
C58	C	0.905532	-0.138442	0.301905
C59	C	0.905573	-0.068800	0.301924
C60	C	0.905421	-0.301859	0.139071
C61	C	0.905522	-0.301699	0.069430
C62	C	0.865466	-0.261728	0.567634
C63	C	0.865464	-0.261716	0.633069
C64	C	0.905511	-0.301780	0.665792
C65	C	0.945553	-0.341870	0.633074
C66	C	0.945550	-0.341885	0.567640
C67	C	0.961963	-0.306707	0.769478
C68	C	0.961968	-0.306688	0.834911
C69	C	0.905522	-0.301738	0.867613
C70	C	0.849069	-0.296793	0.834873
C71	C	0.849066	-0.296808	0.769439
C72	C	0.905519	-0.301768	0.736744
C73	C	0.865477	-0.261641	0.971275
C74	C	0.865474	-0.261633	1.036712
C75	C	0.945569	-0.341784	1.036716
C76	C	0.945567	-0.341795	0.971280
C77	C	0.905522	-0.301720	0.938564
H78	H	0.346436	-0.199440	0.293082
F79	F	0.540031	-0.219041	0.219289
H80	H	0.978172	-0.374432	0.944648
H81	H	0.465141	-0.199432	0.293092
F82	F	0.822846	-0.935959	0.219111
F83	F	0.895378	-0.734099	0.185312
H84	H	0.896592	-0.860974	0.199455
H85	H	0.832856	-0.229098	0.541000
H86	H	0.144574	-0.229102	0.229307
F87	F	0.988056	-0.532067	0.384621
F88	F	0.915646	-0.868994	0.418431
F89	F	0.540040	-0.384680	0.384434
F90	F	0.822856	-0.218993	0.936454
F91	F	0.473243	-0.418413	0.311855
F92	F	0.915597	-0.733921	0.418408
F93	F	0.988207	-0.935702	0.384689
H94	H	0.832760	-0.659199	0.229094
H95	H	0.978160	-0.374490	0.659721
H96	H	0.263287	-0.229095	0.229307
F97	F	0.675102	-0.219037	0.219275
H98	H	1.007935	-0.310711	0.861563
H99	H	0.978232	-1.062606	0.374689
F100	F	0.822842	-0.218985	1.071524
F101	F	0.988106	-0.667137	0.384641
F102	F	0.822898	-1.071030	0.219131
F103	F	0.271474	-0.384697	0.384448
F104	F	0.338169	-0.418420	0.311870
F105	F	0.822690	-0.532319	0.219046
H106	H	0.832860	-0.229073	0.659707
H107	H	0.803100	-0.292783	0.742785
F108	F	0.788990	-0.291521	0.869671
F109	F	0.988188	-0.384427	1.071538
H110	H	1.007933	-0.310734	0.742858
H111	H	0.144584	-0.374674	0.374458
F112	F	0.675110	-0.384679	0.384415
H113	H	0.978157	-0.374524	0.541008
