data_functionalizedCrystal
_audit_creation_method	'MofGen! by Chris Wilmer'
_symmetry_space_group_name_H-M	'P1'
_symmetry_Int_Tables_number	1
_symmetry_cell_setting	triclinic
loop_
_symmetry_equiv_pos_as_xyz
  x,y,z
_cell_length_a	12.759401
_cell_length_b	11.169416
_cell_length_c	11.169409
_cell_angle_alpha	89.968635
_cell_angle_beta	89.978635
_cell_angle_gamma	90.011674
loop_
_atom_site_label
_atom_site_type_symbol
_atom_site_fract_x
_atom_site_fract_y
_atom_site_fract_z
Zn1	Zn	1.606304	-0.477661	-0.678600
Zn2	Zn	1.606208	-0.678402	-0.477921
Zn3	Zn	1.430601	-0.477737	-0.477929
Zn4	Zn	1.430609	-0.678306	-0.678560
O5	O	1.518430	-0.578026	-0.578252
O6	O	1.753312	-0.504298	-0.651993
O7	O	1.582870	-0.651854	-0.309972
O8	O	1.453946	-0.309777	-0.504569
O9	O	1.753242	-0.651781	-0.504554
O10	O	1.583034	-0.309721	-0.652001
O11	O	1.453853	-0.504427	-0.309978
O12	O	1.283581	-0.504334	-0.504530
O13	O	1.453958	-0.651619	-0.846515
O14	O	1.283587	-0.651692	-0.651933
O15	O	1.583041	-0.504206	-0.846545
O16	O	1.582877	-0.846339	-0.504515
O17	O	1.453865	-0.846269	-0.651924
C18	C	1.245463	-0.578012	-0.578229
C19	C	1.128686	-0.578034	-0.578247
C20	C	1.073855	-0.654880	-0.654879
C21	C	0.964131	-0.654885	-0.654902
C22	C	0.964080	-0.501194	-0.501652
C23	C	1.073802	-0.501184	-0.501636
C24	C	1.518390	-0.889851	-0.578241
C25	C	1.518468	-1.023251	-0.578276
C26	C	1.792464	-0.578042	-0.578277
C27	C	1.909240	-0.578049	-0.578288
C28	C	1.518511	-0.577893	-0.891295
C29	C	1.518545	-0.577836	-1.024695
C30	C	1.518500	-0.264984	-0.578291
C31	C	1.518530	-0.131584	-0.578307
C32	C	1.518411	-0.578073	-0.266428
C33	C	1.518580	-0.577791	-0.133028
H34	H	0.919379	-0.438628	-0.439276
H35	H	1.118539	-0.717453	-0.717264
Br36	Br	0.889720	-0.759175	-0.758913
H37	H	1.118447	-0.438600	-0.439233
