data_functionalizedCrystal
_audit_creation_method	'MofGen! by Chris Wilmer'
_symmetry_space_group_name_H-M	'P1'
_symmetry_Int_Tables_number	1
_symmetry_cell_setting	triclinic
loop_
_symmetry_equiv_pos_as_xyz
  x,y,z
_cell_length_a	12.759401
_cell_length_b	12.759400
_cell_length_c	12.759393
_cell_angle_alpha	89.970195
_cell_angle_beta	89.980324
_cell_angle_gamma	90.015071
loop_
_atom_site_label
_atom_site_type_symbol
_atom_site_fract_x
_atom_site_fract_y
_atom_site_fract_z
Zn1	Zn	1.606267	-0.418204	-0.593990
Zn2	Zn	2.106267	0.081796	-0.093990
Zn3	Zn	1.606158	-0.593919	-0.418312
Zn4	Zn	2.106158	-0.093919	0.081688
Zn5	Zn	1.430565	-0.418256	-0.418329
Zn6	Zn	1.930565	0.081744	0.081671
Zn7	Zn	1.430558	-0.593842	-0.593953
Zn8	Zn	1.930558	-0.093842	-0.093953
O9	O	1.518387	-0.506055	-0.506146
O10	O	2.018387	-0.006055	-0.006146
O11	O	1.753273	-0.441523	-0.570694
O12	O	2.253273	0.058477	-0.070694
O13	O	1.582823	-0.570671	-0.271293
O14	O	2.082823	-0.070671	0.228707
O15	O	1.453921	-0.271228	-0.441653
O16	O	1.953921	0.228772	0.058347
O17	O	1.753193	-0.570620	-0.441624
O18	O	2.253193	-0.070620	0.058376
O19	O	1.583008	-0.271189	-0.570710
O20	O	2.083008	0.228811	-0.070710
O21	O	1.453816	-0.441612	-0.271305
O22	O	1.953816	0.058388	0.228695
O23	O	1.283543	-0.441538	-0.441617
O24	O	1.783543	0.058462	0.058383
O25	O	1.453908	-0.570489	-0.740979
O26	O	1.953908	-0.070489	-0.240979
O27	O	1.283538	-0.570540	-0.570648
O28	O	1.783538	-0.070540	-0.070648
O29	O	1.583001	-0.441448	-0.741006
O30	O	2.083001	0.058552	-0.241006
O31	O	1.582815	-0.740930	-0.441589
O32	O	2.082815	-0.240930	0.058411
O33	O	1.453802	-0.740874	-0.570632
O34	O	1.953802	-0.240874	-0.070632
C35	C	1.245420	-0.506037	-0.506131
C36	C	1.745420	-0.006037	-0.006131
C37	C	1.128643	-0.506055	-0.506150
C38	C	1.628643	-0.006055	-0.006150
C39	C	1.073823	-0.438955	-0.573460
C40	C	1.573823	0.061045	-0.073460
C41	C	0.964099	-0.438966	-0.573467
C42	C	1.464099	0.061034	-0.073467
C43	C	0.964024	-0.573185	-0.438850
C44	C	1.464024	-0.073185	0.061150
C45	C	1.073746	-0.573168	-0.438839
C46	C	1.573746	-0.073168	0.061161
C47	C	1.518325	-0.779023	-0.506127
C48	C	2.018325	-0.279023	-0.006127
C49	C	1.518394	-0.895799	-0.506154
C50	C	2.018394	-0.395799	-0.006154
C51	C	1.585581	-0.950551	-0.573412
C52	C	2.085581	-0.450551	-0.073412
C53	C	1.585640	-1.060275	-0.573440
C54	C	2.085640	-0.560275	-0.073440
C55	C	1.451323	-1.060486	-0.438945
C56	C	1.951323	-0.560486	0.061055
C57	C	1.451260	-0.950764	-0.438923
C58	C	1.951260	-0.450764	0.061077
C59	C	1.792420	-0.506074	-0.506161
C60	C	2.292420	-0.006074	-0.006161
C61	C	1.909197	-0.506082	-0.506168
C62	C	2.409197	-0.006082	-0.006168
C63	C	1.518466	-0.505954	-0.780179
C64	C	2.018466	-0.005954	-0.280179
C65	C	1.518499	-0.505911	-0.896956
C66	C	2.018499	-0.005911	-0.396956
C67	C	1.518478	-0.232022	-0.506188
C68	C	2.018478	0.267978	-0.006188
C69	C	1.518517	-0.115245	-0.506205
C70	C	2.018517	0.384755	-0.006205
C71	C	1.585723	-0.438709	-0.951834
C72	C	2.085723	0.061291	-0.451834
C73	C	1.585740	-0.438664	-1.061558
C74	C	2.085740	0.061336	-0.561558
C75	C	1.451308	-0.573032	-1.061517
C76	C	1.951308	-0.073032	-0.561517
C77	C	1.451286	-0.573072	-0.951795
C78	C	1.951286	-0.073072	-0.451795
C79	C	1.518369	-0.506080	-0.233179
C80	C	2.018369	-0.006080	0.266821
C81	C	1.518539	-0.505827	-0.116402
C82	C	2.018539	-0.005827	0.383598
H83	H	1.118382	-0.627810	-0.384021
H84	H	1.618382	-0.127810	0.115979
H85	H	1.640244	-0.905802	-0.628157
H86	H	2.140244	-0.405802	-0.128157
Br87	Br	1.676816	-1.134578	-0.664731
Br88	Br	2.176816	-0.634578	-0.164731
H89	H	1.396537	-0.627795	-0.907112
H90	H	1.896537	-0.127795	-0.407112
Br91	Br	1.360098	-0.664177	-1.135948
Br92	Br	1.860098	-0.164177	-0.635948
H93	H	1.396666	-1.105251	-0.384206
H94	H	1.896666	-0.605251	0.115794
Br95	Br	1.676938	-0.347562	-0.877413
Br96	Br	2.176938	0.152438	-0.377413
H97	H	0.919470	-0.384325	-0.628276
H98	H	1.419470	0.115675	-0.128276
Br99	Br	1.148323	-0.347871	-0.664807
Br100	Br	1.648323	0.152129	-0.164807
H101	H	1.396543	-0.906182	-0.384153
H102	H	1.896543	-0.406182	0.115847
Br103	Br	0.889515	-0.664264	-0.347506
Br104	Br	1.389515	-0.164264	0.152494
H105	H	1.640479	-0.383939	-1.106235
H106	H	2.140479	0.116061	-0.606235
