data_functionalizedCrystal
_audit_creation_method	'MofGen! by Chris Wilmer'
_symmetry_space_group_name_H-M	'P1'
_symmetry_Int_Tables_number	1
_symmetry_cell_setting	triclinic
loop_
_symmetry_equiv_pos_as_xyz
  x,y,z
_cell_length_a	12.759401
_cell_length_b	12.759399
_cell_length_c	12.759393
_cell_angle_alpha	89.969094
_cell_angle_beta	89.977503
_cell_angle_gamma	90.015938
loop_
_atom_site_label
_atom_site_type_symbol
_atom_site_fract_x
_atom_site_fract_y
_atom_site_fract_z
Zn1	Zn	-1.606263	0.418192	0.594061
Zn2	Zn	-1.606153	0.593908	0.418380
Zn3	Zn	-1.430562	0.418246	0.418391
Zn4	Zn	-1.430553	0.593832	0.594012
O5	O	-1.518383	0.506045	0.506211
O6	O	-1.753270	0.441511	0.570772
O7	O	-1.582818	0.570660	0.271360
O8	O	-1.453919	0.271218	0.441719
O9	O	-1.753189	0.570608	0.441700
O10	O	-1.583006	0.271178	0.570783
O11	O	-1.453812	0.441602	0.271369
O12	O	-1.283540	0.441529	0.441672
O13	O	-1.453903	0.570479	0.741040
O14	O	-1.283533	0.570531	0.570700
O15	O	-1.582997	0.441437	0.741075
O16	O	-1.582809	0.740919	0.441652
O17	O	-1.453796	0.740863	0.570689
C18	C	-1.245415	0.506029	0.506183
C19	C	-1.128639	0.506047	0.506195
C20	C	-1.073801	0.573320	0.573273
C21	C	-0.964077	0.573323	0.573291
C22	C	-0.964038	0.438776	0.439145
C23	C	-1.073760	0.438769	0.439133
C24	C	-1.518318	0.779012	0.506187
C25	C	-1.518387	0.895789	0.506212
C26	C	-1.518461	0.505944	0.780244
C27	C	-1.518495	0.505901	0.897021
C28	C	-0.792416	0.506059	0.506233
C29	C	-0.909193	0.506057	0.506225
C30	C	-1.518476	0.232011	0.506258
C31	C	-1.518516	0.115235	0.506278
C32	C	-1.585641	0.950645	0.439099
C33	C	-1.585708	1.060369	0.439134
C34	C	-1.451259	1.060371	0.573398
C35	C	-1.451198	0.950649	0.573368
C36	C	-1.518365	0.506069	0.233244
C37	C	-1.518535	0.505816	0.116467
C38	C	-1.585719	0.438698	0.951903
C39	C	-1.585737	0.438653	1.061628
C40	C	-1.451303	0.573022	1.061577
C41	C	-1.451281	0.573061	0.951855
H42	H	-0.919432	0.628102	0.627914
O43	O	-1.651206	1.113670	0.374120
C44	C	-1.719054	1.177002	0.434063
H45	H	-1.725394	1.143861	0.516812
H46	H	-1.799957	1.178146	0.396199
H47	H	-1.686676	1.260207	0.437647
H48	H	-1.396432	0.905982	0.628024
H49	H	-1.396555	1.105052	0.628072
H50	H	-1.396532	0.627785	0.907169
O51	O	-1.651034	0.373355	0.898799
C52	C	-1.710388	0.314049	0.970774
H53	H	-1.667371	0.310382	1.048980
H54	H	-1.721617	0.231282	0.939091
H55	H	-1.790171	0.352522	0.982452
H56	H	-0.919343	0.384003	0.384543
O57	O	-1.650761	0.897305	0.373762
C58	C	-1.590948	0.833924	0.305847
H59	H	-1.508223	0.867064	0.299290
H60	H	-1.628990	0.832714	0.225029
H61	H	-1.587265	0.750743	0.338304
H62	H	-1.640476	0.383928	1.106308
H63	H	-1.396583	0.627704	1.106237
H64	H	-1.118411	0.383981	0.384510
O65	O	-1.126948	0.638697	0.638522
C66	C	-1.055012	0.698090	0.697712
H67	H	-0.976810	0.655065	0.701429
H68	H	-1.086751	0.709391	0.780468
H69	H	-1.043307	0.777839	0.659105
