data_functionalizedCrystal
_audit_creation_method	'MofGen! by Chris Wilmer'
_symmetry_space_group_name_H-M	'P1'
_symmetry_Int_Tables_number	1
_symmetry_cell_setting	triclinic
loop_
_symmetry_equiv_pos_as_xyz
  x,y,z
_cell_length_a	17.077404
_cell_length_b	12.759399
_cell_length_c	12.759393
_cell_angle_alpha	90.032031
_cell_angle_beta	89.978453
_cell_angle_gamma	89.984659
loop_
_atom_site_label
_atom_site_type_symbol
_atom_site_fract_x
_atom_site_fract_y
_atom_site_fract_z
Zn1	Zn	1.200113	0.418197	-0.594065
Zn2	Zn	1.200033	0.593916	-0.418384
Zn3	Zn	1.068840	0.418253	-0.418395
Zn4	Zn	1.068830	0.593836	-0.594016
O5	O	1.134454	0.506051	-0.506215
O6	O	1.309949	0.441518	-0.570777
O7	O	1.182601	0.570671	-0.271364
O8	O	1.086291	0.271224	-0.441723
O9	O	1.309891	0.570618	-0.441704
O10	O	1.182737	0.271184	-0.570787
O11	O	1.086214	0.441612	-0.271372
O12	O	0.958992	0.441534	-0.441676
O13	O	1.086275	0.570480	-0.741044
O14	O	0.958985	0.570534	-0.570703
O15	O	1.182727	0.441439	-0.741080
O16	O	1.182591	0.740927	-0.441657
O17	O	1.086197	0.740867	-0.570693
C18	C	1.134406	0.779018	-0.506191
C19	C	1.134457	0.895795	-0.506216
C20	C	0.930506	0.506032	-0.506186
C21	C	0.843256	0.506049	-0.506198
C22	C	1.134509	0.505944	-0.780248
C23	C	1.134532	0.505899	-0.897025
C24	C	0.802283	0.573320	-0.573276
C25	C	0.720303	0.573323	-0.573292
C26	C	0.679297	0.506058	-0.506226
C27	C	0.720276	0.438779	-0.439146
C28	C	0.802255	0.438772	-0.439135
C29	C	0.549406	0.438799	-0.439171
C30	C	0.467421	0.438807	-0.439180
C31	C	0.467454	0.573350	-0.573328
C32	C	0.549433	0.573343	-0.573318
C33	C	0.590406	0.506065	-0.506236
C34	C	1.339198	0.506070	-0.506245
C35	C	1.426448	0.506079	-0.506257
C36	C	1.134524	0.232017	-0.506262
C37	C	1.134553	0.115241	-0.506282
C38	C	1.184707	0.950653	-0.439103
C39	C	1.184757	1.060377	-0.439139
C40	C	1.084302	1.060375	-0.573402
C41	C	1.084256	0.950653	-0.573371
C42	C	1.084362	0.438686	-0.951891
C43	C	1.084380	0.438653	-1.061615
C44	C	1.184746	0.573051	-1.061598
C45	C	1.184723	0.573088	-0.951876
C46	C	1.134445	0.506081	-0.233248
C47	C	1.134573	0.505830	-0.116471
H48	H	0.686946	0.628103	-0.627912
O49	O	1.035752	0.373314	-1.115030
C50	C	1.025249	0.231395	-1.238904
C51	C	1.080413	0.305339	-1.178494
H52	H	1.061336	0.176403	-1.290212
H53	H	0.984214	0.279557	-1.290321
H54	H	0.989354	0.183432	-1.180834
H55	H	1.116360	0.353317	-1.236489
H56	H	1.121396	0.257116	-1.127062
O57	O	1.233514	0.897248	-0.374023
C58	C	1.339482	0.773315	-0.359984
C59	C	1.284242	0.833707	-0.433804
H60	H	1.380521	0.721945	-0.408288
H61	H	1.303488	0.721962	-0.305004
H62	H	1.375369	0.831397	-0.312002
H63	H	1.248343	0.775700	-0.481854
H64	H	1.320281	0.885075	-0.488715
H65	H	1.043428	1.105054	-0.628076
H66	H	0.835614	0.383987	-0.384520
H67	H	1.043336	0.905985	-0.628028
O68	O	1.233613	0.638255	-1.114768
C69	C	1.367135	0.689214	-1.148395
C70	C	1.311878	0.615323	-1.088099
H71	H	1.430424	0.670685	-1.126872
H72	H	1.353388	0.773954	-1.126783
H73	H	1.358494	0.677657	-1.236235
H74	H	1.320488	0.626786	-1.000244
H75	H	1.325638	0.530610	-1.109797
O76	O	1.035490	0.373543	-0.898654
C77	C	0.901970	0.322508	-0.865127
C78	C	0.957232	0.396361	-0.925460
H79	H	0.838689	0.340915	-0.886794
H80	H	0.910503	0.334081	-0.777268
H81	H	0.915819	0.237791	-0.886708
H82	H	0.943418	0.481105	-0.903967
H83	H	0.948690	0.384697	-1.013305
H84	H	1.225580	0.627825	-0.907203
H85	H	0.835664	0.628099	-0.627885
H86	H	0.582817	0.628122	-0.627923
H87	H	0.434089	0.628127	-0.627952
H88	H	0.582764	0.384005	-0.384556
O89	O	0.427708	0.373363	-0.374005
C90	C	0.436322	0.239945	-0.240916
C91	C	0.481395	0.313990	-0.314690
H92	H	0.479708	0.191939	-0.192924
H93	H	0.397987	0.185009	-0.289209
H94	H	0.397895	0.288135	-0.185944
H95	H	0.519865	0.265885	-0.369676
H96	H	0.519680	0.368929	-0.266331
O97	O	0.680530	0.373488	-0.373853
C98	C	0.655351	0.322322	-0.195231
C99	C	0.700425	0.396311	-0.269059
H100	H	0.671407	0.340763	-0.110489
H101	H	0.671502	0.237608	-0.213740
H102	H	0.589724	0.333869	-0.206815
H103	H	0.766061	0.384858	-0.257517
H104	H	0.684209	0.480998	-0.250533
H105	H	1.225677	1.105037	-0.384490
