data_functionalizedCrystal
_audit_creation_method	'MofGen! by Chris Wilmer'
_symmetry_space_group_name_H-M	'P1'
_symmetry_Int_Tables_number	1
_symmetry_cell_setting	triclinic
loop_
_symmetry_equiv_pos_as_xyz
  x,y,z
_cell_length_a	21.395364
_cell_length_b	21.395362
_cell_length_c	21.395355
_cell_angle_alpha	90.020549
_cell_angle_beta	90.024552
_cell_angle_gamma	90.044742
loop_
_atom_site_label
_atom_site_type_symbol
_atom_site_fract_x
_atom_site_fract_y
_atom_site_fract_z
Zn1	Zn	0.957863	-0.249261	0.354253
Zn2	Zn	0.957767	-0.354021	0.249471
Zn3	Zn	0.853078	-0.249289	0.249489
Zn4	Zn	0.853049	-0.354032	0.354212
O5	O	0.905439	-0.301651	0.301856
O6	O	1.045528	-0.263142	0.340363
O7	O	0.943852	-0.340135	0.161796
O8	O	0.867030	-0.161607	0.263411
O9	O	1.045458	-0.340108	0.263381
O10	O	0.944016	-0.161587	0.340380
O11	O	0.866938	-0.263188	0.161809
O12	O	0.765396	-0.263199	0.263371
O13	O	0.866981	-0.340127	0.441895
O14	O	0.765375	-0.340154	0.340310
O15	O	0.943987	-0.263152	0.441925
O16	O	0.943824	-0.441700	0.263341
O17	O	0.866888	-0.441709	0.340293
C18	C	0.742652	-0.301681	0.301839
C19	C	0.673011	-0.301709	0.301846
C20	C	0.640356	-0.261698	0.341993
C21	C	0.574921	-0.261682	0.341995
C22	C	0.542142	-0.301687	0.301857
C23	C	0.574804	-0.341701	0.261703
C24	C	0.640238	-0.341712	0.261697
C25	C	0.438419	-0.358112	0.296818
C26	C	0.372986	-0.358102	0.296828
C27	C	0.340322	-0.301653	0.301871
C28	C	0.373098	-0.245212	0.306918
C29	C	0.438532	-0.245223	0.306912
C30	C	0.471190	-0.301679	0.301859
C31	C	0.236715	-0.261620	0.342023
C32	C	0.171278	-0.261603	0.342021
C33	C	0.171163	-0.341627	0.261732
C34	C	0.236598	-0.341640	0.261731
C35	C	0.269370	-0.301637	0.301879
C36	C	0.905359	-0.464438	0.301824
C37	C	0.905382	-0.534080	0.301831
C38	C	0.945446	-0.566725	0.341938
C39	C	0.945468	-0.632161	0.341953
C40	C	0.905433	-0.664948	0.301851
C41	C	0.865362	-0.632294	0.261742
C42	C	0.865337	-0.566860	0.261732
C43	C	0.900556	-0.768649	0.245412
C44	C	0.900586	-0.834082	0.245421
C45	C	0.905507	-0.866769	0.301881
C46	C	0.910413	-0.834014	0.358334
C47	C	0.910387	-0.768580	0.358325
C48	C	0.905456	-0.735900	0.301857
C49	C	0.945597	-0.970367	0.342007
C50	C	0.945614	-1.035803	0.342024
C51	C	0.865512	-1.035936	0.261807
C52	C	0.865491	-0.970500	0.261796
C53	C	0.905537	-0.937720	0.301895
C54	C	1.068863	-0.301621	0.301874
C55	C	1.138504	-0.301608	0.301882
C56	C	0.905491	-0.301638	0.465280
C57	C	0.905514	-0.301633	0.534921
C58	C	0.905537	-0.138227	0.301902
C59	C	0.905578	-0.068586	0.301922
C60	C	0.905424	-0.301618	0.139069
C61	C	0.905523	-0.301447	0.069428
C62	C	0.945609	-0.261550	0.567651
C63	C	0.945608	-0.261523	0.633086
C64	C	0.905519	-0.301590	0.665789
C65	C	0.865415	-0.341675	0.633052
C66	C	0.865413	-0.341697	0.567617
C67	C	0.900543	-0.358007	0.769453
C68	C	0.900550	-0.357986	0.834886
C69	C	0.905522	-0.301524	0.867610
C70	C	0.910501	-0.245080	0.834893
C71	C	0.910498	-0.245101	0.769459
C72	C	0.905516	-0.301571	0.736742
C73	C	0.945619	-0.261409	0.971293
C74	C	0.945614	-0.261381	1.036729
C75	C	0.865424	-0.341538	1.036693
C76	C	0.865426	-0.341561	0.971258
C77	C	0.905527	-0.301497	0.938561
H78	H	0.666825	-0.374295	0.229004
H79	H	0.548329	-0.229097	0.374686
N80	N	0.822156	-0.384928	0.532320
H81	H	0.831854	-0.429691	0.543711
H82	H	0.828252	-0.378813	0.485916
N83	N	0.915664	-0.733252	0.419210
H84	H	0.914899	-0.686842	0.410634
H85	H	0.956203	-0.744628	0.440546
N86	N	0.822289	-0.935287	0.218527
H87	H	0.828348	-0.888860	0.224605
H88	H	0.777540	-0.946770	0.228237
H89	H	0.263185	-0.374223	0.229041
H90	H	0.896327	-0.403973	0.742814
N91	N	0.822335	-1.071292	0.218549
H92	H	0.796953	-1.040678	0.193137
H93	H	0.793337	-1.098461	0.244030
H94	H	0.914550	-0.199143	0.742824
N95	N	0.988857	-0.218135	1.072026
H96	H	1.033618	-0.227862	1.060659
H97	H	0.982722	-0.224210	1.118430
N98	N	0.988683	-0.667378	0.385213
H99	H	1.033449	-0.655943	0.375515
H100	H	0.982570	-0.713793	0.379113
H101	H	0.978051	-0.540037	0.374591
N102	N	0.337636	-0.418973	0.291385
H103	H	0.368256	-0.454734	0.288180
H104	H	0.310469	-0.418004	0.252784
H105	H	0.978202	-0.943676	0.374661
H106	H	0.465216	-0.199267	0.311019
N107	N	0.988877	-0.218203	0.936029
H108	H	1.017898	-0.243679	0.908902
H109	H	1.014232	-0.192819	0.966742
H110	H	0.896595	-0.860746	0.199453
N111	N	0.895241	-0.733398	0.184512
H112	H	0.892142	-0.764075	0.148752
H113	H	0.933407	-0.706206	0.178724
N114	N	0.822171	-0.384880	0.668328
H115	H	0.847614	-0.413903	0.695487
H116	H	0.796772	-0.410235	0.637628
H117	H	0.832764	-0.658994	0.229091
H118	H	0.914421	-0.860625	0.404310
H119	H	0.263399	-0.229044	0.374710
N120	N	0.675703	-0.218554	0.385293
H121	H	0.645084	-0.193204	0.410726
H122	H	0.702866	-0.189523	0.359841
H123	H	0.144475	-0.374200	0.229051
N124	N	0.988804	-1.071018	0.385307
H125	H	1.014161	-1.040320	0.410712
H126	H	1.017826	-1.098160	0.359853
N127	N	0.822125	-0.531645	0.218471
H128	H	0.796765	-0.562342	0.193069
H129	H	0.847636	-0.504483	0.189495
H130	H	0.465009	-0.404083	0.292710
N131	N	0.988851	-0.218324	0.532395
H132	H	0.963401	-0.189301	0.505243
H133	H	1.017867	-0.243824	0.505289
H134	H	0.978258	-0.228880	0.659740
H135	H	0.914551	-0.199103	0.861536
N136	N	0.822178	-0.384749	1.071956
H137	H	0.828261	-0.378653	1.118376
H138	H	0.831901	-0.429500	1.060523
H139	H	0.832780	-0.374204	0.944609
N140	N	0.895186	-0.418861	0.870171
H141	H	0.892028	-0.454633	0.839512
H142	H	0.856583	-0.417955	0.897306
H143	H	0.346504	-0.199246	0.311025
N144	N	0.136063	-0.218434	0.385319
H145	H	0.147462	-0.228234	0.430068
H146	H	0.089648	-0.224507	0.379178
N147	N	0.539455	-0.384846	0.218406
H148	H	0.493047	-0.378768	0.224502
H149	H	0.550855	-0.429610	0.228071
