data_functionalizedCrystal
_audit_creation_method	'MofGen! by Chris Wilmer'
_symmetry_space_group_name_H-M	'P1'
_symmetry_Int_Tables_number	1
_symmetry_cell_setting	triclinic
loop_
_symmetry_equiv_pos_as_xyz
  x,y,z
_cell_length_a	21.395362
_cell_length_b	12.759399
_cell_length_c	12.759393
_cell_angle_alpha	90.032031
_cell_angle_beta	89.958968
_cell_angle_gamma	89.969005
loop_
_atom_site_label
_atom_site_type_symbol
_atom_site_fract_x
_atom_site_fract_y
_atom_site_fract_z
Zn1	Zn	0.957909	0.417758	-0.594612
Zn2	Zn	0.957846	0.593477	-0.418930
Zn3	Zn	0.853130	0.417862	-0.418882
Zn4	Zn	0.853122	0.593445	-0.594503
O5	O	0.905502	0.505635	-0.506732
O6	O	1.045579	0.441038	-0.571373
O7	O	0.943931	0.570239	-0.271903
O8	O	0.867059	0.270827	-0.442218
O9	O	1.045532	0.570138	-0.442301
O10	O	0.944040	0.270751	-0.571326
O11	O	0.866997	0.441215	-0.271867
O12	O	0.765451	0.441183	-0.442112
O13	O	0.867046	0.570082	-0.741538
O14	O	0.765445	0.570183	-0.571140
O15	O	0.944033	0.441006	-0.741618
O16	O	0.943924	0.740494	-0.442195
O17	O	0.866984	0.740470	-0.571187
C18	C	0.905463	0.778603	-0.506708
C19	C	0.905504	0.895379	-0.506733
C20	C	0.742714	0.505691	-0.506610
C21	C	0.673073	0.505740	-0.506582
C22	C	0.905545	0.505529	-0.780765
C23	C	0.905564	0.505484	-0.897542
C24	C	0.640373	0.572999	-0.573667
C25	C	0.574938	0.572974	-0.573713
C26	C	0.542204	0.505700	-0.506657
C27	C	0.574912	0.438427	-0.439568
C28	C	0.640346	0.438448	-0.439531
C29	C	0.438481	0.497265	-0.412075
C30	C	0.373048	0.497252	-0.412110
C31	C	0.340384	0.505631	-0.506773
C32	C	0.373160	0.514045	-0.601404
C33	C	0.438594	0.514065	-0.601366
C34	C	0.471252	0.505670	-0.506691
C35	C	0.236732	0.572866	-0.573914
C36	C	0.171295	0.572833	-0.573963
C37	C	0.171271	0.438292	-0.439808
C38	C	0.236706	0.438320	-0.439769
C39	C	0.269433	0.505612	-0.506820
C40	C	1.068925	0.505580	-0.506855
C41	C	1.138566	0.505557	-0.506907
C42	C	0.905557	0.231602	-0.506779
C43	C	0.905581	0.114825	-0.506799
C44	C	0.945613	0.950219	-0.439643
C45	C	0.945653	1.059943	-0.439678
C46	C	0.865471	1.059978	-0.573896
C47	C	0.865434	0.950256	-0.573865
C48	C	0.865519	0.438289	-0.952385
C49	C	0.865533	0.438256	-1.062109
C50	C	0.945644	0.572617	-1.062138
C51	C	0.945626	0.572654	-0.952415
C52	C	0.905494	0.505665	-0.233764
C53	C	0.905597	0.505415	-0.116988
H54	H	0.548309	0.627744	-0.628345
H55	H	0.978237	0.627377	-0.907761
O56	O	0.984449	0.896863	-0.374328
C57	C	0.948779	0.833499	-0.306393
H58	H	0.899445	0.866661	-0.299807
H59	H	0.971467	0.832281	-0.225587
H60	H	0.946583	0.750319	-0.338848
H61	H	0.832898	0.383595	-0.907710
O62	O	0.826615	0.372882	-1.115220
C63	C	0.791242	0.313628	-1.043255
H64	H	0.816896	0.310010	-0.965062
H65	H	0.784583	0.230842	-1.074971
H66	H	0.743646	0.352117	-1.031537
O67	O	0.984628	0.637706	-1.115492
C68	C	1.025109	0.577858	-1.179021
H69	H	1.028992	0.495122	-1.145975
H70	H	1.073319	0.615842	-1.180294
H71	H	1.005751	0.574214	-1.262164
H72	H	0.667015	0.627793	-0.628267
H73	H	0.465278	0.520913	-0.678417
O74	O	0.139458	0.638222	-0.638986
C75	C	0.101550	0.706006	-0.579069
H76	H	0.091714	0.668847	-0.499523
H77	H	0.055557	0.720120	-0.621865
H78	H	0.126724	0.783860	-0.567368
H79	H	0.978314	1.104589	-0.385048
H80	H	0.832846	1.104672	-0.628551
H81	H	0.346566	0.520866	-0.678488
H82	H	0.263330	0.383555	-0.385136
H83	H	0.144620	0.383511	-0.385214
O84	O	0.268430	0.638253	-0.639154
C85	C	0.225533	0.697624	-0.698367
H86	H	0.178911	0.654579	-0.702105
H87	H	0.244487	0.708929	-0.781115
H88	H	0.218513	0.777373	-0.659766
H89	H	0.346367	0.490408	-0.335056
H90	H	0.548256	0.383650	-0.384973
O91	O	0.470111	0.489176	-0.320013
C92	C	0.427153	0.481737	-0.236503
H93	H	0.380508	0.517044	-0.261349
H94	H	0.445993	0.526297	-0.165807
H95	H	0.420222	0.395856	-0.214824
H96	H	0.666970	0.383674	-0.384903
H97	H	0.832773	0.905603	-0.628503
