data_functionalizedCrystal
_audit_creation_method	'MofGen! by Chris Wilmer'
_symmetry_space_group_name_H-M	'P1'
_symmetry_Int_Tables_number	1
_symmetry_cell_setting	triclinic
loop_
_symmetry_equiv_pos_as_xyz
  x,y,z
_cell_length_a	17.077404
_cell_length_b	12.759400
_cell_length_c	17.077396
_cell_angle_alpha	89.974414
_cell_angle_beta	89.980499
_cell_angle_gamma	90.014910
loop_
_atom_site_label
_atom_site_type_symbol
_atom_site_fract_x
_atom_site_fract_y
_atom_site_fract_z
Zn1	Zn	1.200099	-0.418260	-0.443859
Zn2	Zn	1.200025	-0.593961	-0.312599
Zn3	Zn	1.068831	-0.418297	-0.312606
Zn4	Zn	1.068818	-0.593898	-0.443823
O5	O	1.134443	-0.506104	-0.378222
O6	O	1.309936	-0.441578	-0.426459
O7	O	1.182597	-0.570700	-0.202753
O8	O	1.086281	-0.271271	-0.330035
O9	O	1.309882	-0.570664	-0.330023
O10	O	1.182723	-0.271244	-0.426466
O11	O	1.086209	-0.441641	-0.202759
O12	O	0.958983	-0.441580	-0.330001
O13	O	1.086258	-0.570558	-0.553674
O14	O	0.958973	-0.570594	-0.426405
O15	O	1.182710	-0.441517	-0.553701
O16	O	1.182584	-0.740973	-0.329988
O17	O	1.086186	-0.740927	-0.426398
C18	C	0.930496	-0.506085	-0.378200
C19	C	0.843246	-0.506102	-0.378209
C20	C	0.802271	-0.573381	-0.428326
C21	C	0.720291	-0.573383	-0.428339
C22	C	0.679286	-0.506111	-0.378230
C23	C	0.720267	-0.438825	-0.328111
C24	C	0.802246	-0.438818	-0.328103
C25	C	0.549397	-0.438846	-0.328130
C26	C	0.467412	-0.438854	-0.328136
C27	C	0.467442	-0.573410	-0.428366
C28	C	0.549421	-0.573404	-0.428358
C29	C	0.590395	-0.506119	-0.378237
C30	C	1.134397	-0.779071	-0.378205
C31	C	1.134449	-0.895848	-0.378225
C32	C	1.184699	-0.950699	-0.328080
C33	C	1.184747	-1.060423	-0.328104
C34	C	1.084289	-1.060435	-0.428420
C35	C	1.084245	-0.950713	-0.428399
C36	C	1.242695	-0.950693	-0.270160
C37	C	1.242743	-1.060417	-0.270185
C38	C	1.339188	-0.506124	-0.378244
C39	C	1.426437	-0.506132	-0.378253
C40	C	1.134491	-0.506026	-0.582966
C41	C	1.134511	-0.505993	-0.670216
C42	C	1.134512	-0.232071	-0.378255
C43	C	1.134541	-0.115294	-0.378270
C44	C	1.184735	-0.438796	-0.711221
C45	C	1.184745	-0.438761	-0.793202
C46	C	1.134533	-0.505930	-0.834175
C47	C	1.084304	-0.573130	-0.793165
C48	C	1.084291	-0.573159	-0.711186
C49	C	1.084335	-0.573066	-0.964035
C50	C	1.084349	-0.573039	-1.046019
C51	C	1.184789	-0.438669	-1.046051
C52	C	1.184777	-0.438698	-0.964072
C53	C	1.134547	-0.505900	-0.923066
C54	C	1.134441	-0.506105	-0.174274
C55	C	1.134573	-0.505842	-0.087025
H56	H	0.434029	-0.384062	-0.287342
C57	C	1.028980	-0.890375	-0.483565
H58	H	1.036149	-0.817171	-0.476374
H59	H	0.976250	-0.908422	-0.472043
H60	H	1.040460	-0.908299	-0.536321
C61	C	0.847318	-0.364810	-0.272975
H62	H	0.811157	-0.324751	-0.243129
H63	H	0.879316	-0.319084	-0.303062
H64	H	0.879278	-0.404940	-0.238714
H65	H	1.220936	-0.916737	-0.212385
C66	C	1.029065	-1.120790	-0.483604
H67	H	1.036284	-1.193993	-0.476433
H68	H	1.040515	-1.102744	-0.536352
H69	H	0.976319	-1.102878	-0.472059
C70	C	1.240040	-0.364744	-1.091149
H71	H	1.269949	-0.324756	-1.055005
H72	H	1.210032	-0.318949	-1.123129
H73	H	1.274237	-0.404935	-1.123130
C74	C	0.422373	-0.647416	-0.483502
H75	H	0.367677	-0.637779	-0.476339
H76	H	0.435791	-0.717986	-0.471921
H77	H	0.435837	-0.632124	-0.536264
C78	C	1.220798	-1.100755	-0.188051
H79	H	1.211733	-1.042887	-0.154258
H80	H	1.262432	-1.142089	-0.167892
H81	H	1.174677	-1.142163	-0.191334
C82	C	1.324790	-0.910352	-0.292229
H83	H	1.358581	-0.968219	-0.301327
H84	H	1.344998	-0.869008	-0.250633
H85	H	1.321435	-0.868953	-0.338356
C86	C	0.594524	-0.647400	-0.483477
H87	H	0.558382	-0.687466	-0.513334
H88	H	0.626486	-0.693120	-0.453388
H89	H	0.626523	-0.607254	-0.517729
H90	H	1.225626	-0.384103	-0.677866
C91	C	1.239995	-0.364850	-0.838304
H92	H	1.269905	-0.324862	-0.802160
H93	H	1.209989	-0.319054	-0.870284
H94	H	1.274193	-0.405041	-0.870284
H95	H	0.835651	-0.628165	-0.469129
H96	H	1.300500	-1.094364	-0.292013
H97	H	1.225668	-0.384010	-0.930713
H98	H	1.043418	-0.627815	-0.826532
H99	H	1.043460	-0.627731	-1.079378
C100	C	0.594468	-0.364830	-0.273001
H101	H	0.558307	-0.324772	-0.243154
H102	H	0.626467	-0.319103	-0.303086
H103	H	0.626426	-0.404963	-0.238741
C104	C	1.029110	-0.647021	-0.918930
H105	H	0.999221	-0.687038	-0.955073
H106	H	0.994904	-0.606874	-0.886935
H107	H	1.059152	-0.692804	-0.886965
C108	C	1.029046	-0.647074	-0.666076
H109	H	1.036223	-0.637464	-0.611385
H110	H	1.040514	-0.717662	-0.679502
H111	H	0.976308	-0.631677	-0.679506
H112	H	0.686875	-0.384046	-0.287314
H113	H	0.686933	-0.628169	-0.469149
