data_functionalizedCrystal
_audit_creation_method	'MofGen! by Chris Wilmer'
_symmetry_space_group_name_H-M	'P1'
_symmetry_Int_Tables_number	1
_symmetry_cell_setting	triclinic
loop_
_symmetry_equiv_pos_as_xyz
  x,y,z
_cell_length_a	17.077404
_cell_length_b	17.077402
_cell_length_c	17.077396
_cell_angle_alpha	89.969381
_cell_angle_beta	89.982756
_cell_angle_gamma	90.023108
loop_
_atom_site_label
_atom_site_type_symbol
_atom_site_fract_x
_atom_site_fract_y
_atom_site_fract_z
Zn1	Zn	1.200037	-0.312497	-0.443836
Zn2	Zn	1.533370	0.020836	-0.110502
Zn3	Zn	1.866704	0.354170	0.222831
Zn4	Zn	1.199949	-0.443774	-0.312567
Zn5	Zn	1.533283	-0.110440	0.020767
Zn6	Zn	1.866616	0.222893	0.354100
Zn7	Zn	1.068774	-0.312526	-0.312584
Zn8	Zn	1.402107	0.020807	0.020750
Zn9	Zn	1.735441	0.354140	0.354083
Zn10	Zn	1.068737	-0.443725	-0.443790
Zn11	Zn	1.402070	-0.110392	-0.110457
Zn12	Zn	1.735404	0.222941	0.222876
O13	O	1.134374	-0.378131	-0.378194
O14	O	1.467708	-0.044797	-0.044861
O15	O	1.801041	0.288536	0.288473
O16	O	1.309872	-0.329919	-0.426434
O17	O	1.643206	0.003414	-0.093101
O18	O	1.976539	0.336748	0.240232
O19	O	1.182528	-0.426396	-0.202722
O20	O	1.515861	-0.093063	0.130611
O21	O	1.849194	0.240271	0.463945
O22	O	1.086239	-0.202676	-0.330021
O23	O	1.419572	0.130658	0.003313
O24	O	1.752905	0.463991	0.336646
O25	O	1.309808	-0.426368	-0.329992
O26	O	1.643141	-0.093034	0.003342
O27	O	1.976475	0.240299	0.336675
O28	O	1.182677	-0.202654	-0.426451
O29	O	1.516010	0.130679	-0.093118
O30	O	1.849344	0.464013	0.240216
O31	O	1.086154	-0.329969	-0.202734
O32	O	1.419487	0.003364	0.130599
O33	O	1.752820	0.336697	0.463932
O34	O	0.958922	-0.329922	-0.329976
O35	O	1.292256	0.003411	0.003357
O36	O	1.625589	0.336744	0.336690
O37	O	1.086175	-0.426285	-0.553643
O38	O	1.419509	-0.092952	-0.220310
O39	O	1.752842	0.240382	0.113023
O40	O	0.958895	-0.426313	-0.426373
O41	O	1.292228	-0.092980	-0.093040
O42	O	1.625562	0.240353	0.240293
O43	O	1.182641	-0.329872	-0.553677
O44	O	1.515974	0.003461	-0.220343
O45	O	1.849308	0.336795	0.112990
O46	O	1.182492	-0.553614	-0.329948
O47	O	1.515825	-0.220281	0.003386
O48	O	1.849158	0.113052	0.336719
O49	O	1.086090	-0.553579	-0.426357
O50	O	1.419424	-0.220245	-0.093024
O51	O	1.752757	0.113088	0.240310
C52	C	0.930427	-0.378116	-0.378172
C53	C	1.263760	-0.044783	-0.044839
C54	C	1.597093	0.288550	0.288494
C55	C	0.843177	-0.378129	-0.378182
C56	C	1.176510	-0.044796	-0.044848
C57	C	1.509843	0.288537	0.288485
C58	C	0.802193	-0.428396	-0.428295
C59	C	1.135526	-0.095062	-0.094962
C60	C	1.468860	0.238271	0.238372
C61	C	0.720212	-0.428398	-0.428308
C62	C	1.053546	-0.095064	-0.094974
C63	C	1.386879	0.238269	0.238359
C64	C	0.679217	-0.378136	-0.378202
C65	C	1.012551	-0.044803	-0.044869
C66	C	1.345884	0.288531	0.288464
C67	C	0.720207	-0.327864	-0.328087
C68	C	1.053540	0.005470	0.005247
C69	C	1.386874	0.338803	0.338580
C70	C	0.802186	-0.327859	-0.328079
C71	C	1.135519	0.005475	0.005255
C72	C	1.468853	0.338808	0.338588
C73	C	0.549337	-0.327879	-0.328106
C74	C	0.882670	0.005454	0.005228
C75	C	1.216004	0.338787	0.338561
C76	C	0.467352	-0.327885	-0.328112
C77	C	0.800686	0.005448	0.005221
C78	C	1.134019	0.338782	0.338554
C79	C	0.467363	-0.428418	-0.428335
C80	C	0.800697	-0.095085	-0.095001
C81	C	1.134030	0.238249	0.238332
C82	C	0.549342	-0.428413	-0.428326
C83	C	0.882676	-0.095080	-0.094993
C84	C	1.216009	0.238254	0.238340
C85	C	0.590326	-0.378142	-0.378210
C86	C	0.923660	-0.044808	-0.044876
C87	C	1.256993	0.288525	0.288457
C88	C	1.134299	-0.582078	-0.378163
C89	C	1.467632	-0.248745	-0.044829
C90	C	1.800965	0.084588	0.288504
C91	C	1.134338	-0.669328	-0.378176
C92	C	1.467671	-0.335995	-0.044842
C93	C	1.801005	-0.002662	0.288491
C94	C	1.184585	-0.710311	-0.328029
C95	C	1.517919	-0.376978	0.005304
C96	C	1.851252	-0.043644	0.338638
C97	C	1.184624	-0.792291	-0.328049
C98	C	1.517957	-0.458958	0.005284
C99	C	1.851290	-0.125625	0.338618
C100	C	1.134410	-0.833288	-0.378212
C101	C	1.467744	-0.499954	-0.044879
C102	C	1.801077	-0.166621	0.288454
C103	C	1.084161	-0.792299	-0.428364
C104	C	1.417494	-0.458966	-0.095031
C105	C	1.750827	-0.125633	0.238302
C106	C	1.084127	-0.710320	-0.428348
C107	C	1.417460	-0.376987	-0.095014
C108	C	1.750794	-0.043654	0.238319
C109	C	1.084233	-0.963169	-0.428394
C110	C	1.417567	-0.629836	-0.095061
C111	C	1.750900	-0.296503	0.238273
C112	C	1.084266	-1.045154	-0.428410
C113	C	1.417599	-0.711821	-0.095076
C114	C	1.750933	-0.378487	0.238257
C115	C	1.184730	-1.045140	-0.328096
C116	C	1.518064	-0.711807	0.005238
C117	C	1.851397	-0.378474	0.338571
C118	C	1.184697	-0.963161	-0.328079
C119	C	1.518030	-0.629828	0.005254
C120	C	1.851363	-0.296495	0.338588
C121	C	1.134446	-0.922179	-0.378230
C122	C	1.467779	-0.588845	-0.044897
C123	C	1.801112	-0.255512	0.288437
C124	C	1.339119	-0.378145	-0.378216
C125	C	1.672452	-0.044812	-0.044883
C126	C	2.005785	0.288521	0.288450
C127	C	1.426368	-0.378152	-0.378226
C128	C	1.759702	-0.044818	-0.044892
C129	C	2.093035	0.288515	0.288441
C130	C	1.134414	-0.378070	-0.582938
C131	C	1.467747	-0.044736	-0.249605
C132	C	1.801081	0.288597	0.083728
C133	C	1.134431	-0.378044	-0.670188
C134	C	1.467764	-0.044711	-0.336855
C135	C	1.801097	0.288623	-0.003522
C136	C	1.134472	-0.173386	-0.378243
C137	C	1.467805	0.159947	-0.044909
C138	C	1.801139	0.493280	0.288424
C139	C	1.134513	-0.086136	-0.378263
C140	C	1.467847	0.247197	-0.044930
C141	C	1.801180	0.580530	0.288403
C142	C	1.084264	-0.327828	-0.711184
C143	C	1.417597	0.005505	-0.377851
C144	C	1.750931	0.338838	-0.044518
C145	C	1.084277	-0.327811	-0.793165
C146	C	1.417610	0.005523	-0.459831
C147	C	1.750944	0.338856	-0.126498
C148	C	1.134461	-0.378005	-0.834148
C149	C	1.467794	-0.044672	-0.500814
C150	C	1.801127	0.288662	-0.167481
C151	C	1.184630	-0.428226	-0.793146
C152	C	1.517963	-0.094893	-0.459813
C153	C	1.851296	0.238441	-0.126479
C154	C	1.184612	-0.428247	-0.711167
C155	C	1.517946	-0.094914	-0.377834
C156	C	1.851279	0.238420	-0.044500
C157	C	1.184664	-0.428177	-0.964016
C158	C	1.517997	-0.094843	-0.630683
C159	C	1.851330	0.238490	-0.297349
C160	C	1.184682	-0.428155	-1.046001
C161	C	1.518016	-0.094821	-0.712667
C162	C	1.851349	0.238512	-0.379334
C163	C	1.084328	-0.327740	-1.046014
C164	C	1.417662	0.005593	-0.712681
C165	C	1.750995	0.338926	-0.379347
C166	C	1.084311	-0.327762	-0.964035
C167	C	1.417644	0.005572	-0.630702
C168	C	1.750977	0.338905	-0.297368
C169	C	1.134481	-0.377982	-0.923039
C170	C	1.467814	-0.044648	-0.589705
C171	C	1.801148	0.288685	-0.256372
C172	C	1.134380	-0.378135	-0.174246
C173	C	1.467714	-0.044801	0.159087
C174	C	1.801047	0.288532	0.492421
C175	C	1.134516	-0.377939	-0.086997
C176	C	1.467849	-0.044606	0.246337
C177	C	1.801182	0.288727	0.579670
H178	H	0.686847	-0.469330	-0.469114
H179	H	1.020180	-0.135997	-0.135781
H180	H	1.353514	0.197336	0.197552
H181	H	1.043279	-0.825685	-0.469211
H182	H	1.376613	-0.492352	-0.135878
H183	H	1.709946	-0.159018	0.197455
H184	H	1.043316	-0.929804	-0.469235
H185	H	1.376650	-0.596471	-0.135902
H186	H	1.709983	-0.263137	0.197431
Cl187	Cl	1.247714	-0.491333	-0.844668
Cl188	Cl	1.581047	-0.157999	-0.511334
Cl189	Cl	1.914380	0.175334	-0.178001
H190	H	0.433976	-0.286948	-0.287321
H191	H	0.767310	0.046385	0.046012
H192	H	1.100643	0.379718	0.379345
Cl193	Cl	1.020959	-0.658799	-0.491394
Cl194	Cl	1.354292	-0.325466	-0.158061
Cl195	Cl	1.687625	0.007868	0.175272
H196	H	1.225469	-0.469132	-0.677789
H197	H	1.558802	-0.135798	-0.344456
H198	H	1.892136	0.197535	-0.011122
H199	H	1.225524	-0.469065	-0.930640
H200	H	1.558858	-0.135731	-0.597306
H201	H	1.892191	0.197602	-0.263973
Cl202	Cl	1.021259	-0.264605	-1.097551
Cl203	Cl	1.354592	0.068728	-0.764218
Cl204	Cl	1.687925	0.402062	-0.430885
Cl205	Cl	0.600858	-0.264680	-0.265100
Cl206	Cl	0.934192	0.068653	0.068233
Cl207	Cl	1.267525	0.401987	0.401566
Cl208	Cl	0.853709	-0.264662	-0.265078
Cl209	Cl	1.187042	0.068672	0.068255
Cl210	Cl	1.520375	0.402005	0.401588
H211	H	0.686822	-0.286937	-0.287293
H212	H	1.020156	0.046397	0.046040
H213	H	1.353489	0.379730	0.379373
Cl214	Cl	1.021176	-0.264719	-0.659671
Cl215	Cl	1.354509	0.068614	-0.326338
Cl216	Cl	1.687842	0.401947	0.006996
H217	H	1.043423	-0.286923	-0.826540
H218	H	1.376757	0.046410	-0.493207
H219	H	1.710090	0.379744	-0.159873
Cl220	Cl	1.021227	-0.264654	-0.912514
Cl221	Cl	1.354560	0.068679	-0.579181
Cl222	Cl	1.687893	0.402013	-0.245848
H223	H	1.225546	-0.469027	-1.079367
H224	H	1.558880	-0.135694	-0.746034
H225	H	1.892213	0.197639	-0.412700
H226	H	1.225649	-1.078512	-0.287263
H227	H	1.558982	-0.745179	0.046070
H228	H	1.892316	-0.411846	0.379404
Cl229	Cl	0.853722	-0.491589	-0.491285
Cl230	Cl	1.187055	-0.158256	-0.157951
Cl231	Cl	1.520388	0.175077	0.175382
H232	H	0.433990	-0.469349	-0.469144
H233	H	0.767324	-0.136015	-0.135810
H234	H	1.100657	0.197318	0.197523
H235	H	1.225472	-0.676937	-0.287177
H236	H	1.558805	-0.343604	0.046156
H237	H	1.892138	-0.010270	0.379490
Cl238	Cl	1.247797	-0.843809	-0.265007
Cl239	Cl	1.581131	-0.510476	0.068326
Cl240	Cl	1.914464	-0.177142	0.401659
Cl241	Cl	1.247823	-0.911624	-0.265016
Cl242	Cl	1.581156	-0.578291	0.068318
Cl243	Cl	1.914490	-0.244957	0.401651
Cl244	Cl	0.600878	-0.491605	-0.491312
Cl245	Cl	0.934212	-0.158272	-0.157978
Cl246	Cl	1.267545	0.175061	0.175355
H247	H	1.043392	-1.078531	-0.469272
H248	H	1.376726	-0.745198	-0.135938
H249	H	1.710059	-0.411864	0.197395
