data_functionalizedCrystal
_audit_creation_method	'MofGen! by Chris Wilmer'
_symmetry_space_group_name_H-M	'P1'
_symmetry_Int_Tables_number	1
_symmetry_cell_setting	triclinic
loop_
_symmetry_equiv_pos_as_xyz
  x,y,z
_cell_length_a	12.759401
_cell_length_b	17.077402
_cell_length_c	17.077396
_cell_angle_alpha	90.029784
_cell_angle_beta	90.016478
_cell_angle_gamma	90.021927
loop_
_atom_site_label
_atom_site_type_symbol
_atom_site_fract_x
_atom_site_fract_y
_atom_site_fract_z
Zn1	Zn	1.606174	-0.312528	0.443772
Zn2	Zn	2.106174	0.187472	0.943772
Zn3	Zn	1.606050	-0.443803	0.312503
Zn4	Zn	2.106050	0.056197	0.812503
Zn5	Zn	1.430482	-0.312553	0.312527
Zn6	Zn	1.930482	0.187447	0.812527
Zn7	Zn	1.430439	-0.443754	0.443734
Zn8	Zn	1.930439	0.056246	0.943734
O9	O	1.518286	-0.378160	0.378134
O10	O	2.018286	0.121840	0.878134
O11	O	1.753178	-0.329952	0.426365
O12	O	2.253178	0.170048	0.926365
O13	O	1.582726	-0.426423	0.202659
O14	O	2.082726	0.073577	0.702659
O15	O	1.453858	-0.202703	0.329963
O16	O	1.953858	0.297297	0.829963
O17	O	1.753087	-0.426399	0.329923
O18	O	2.253087	0.073601	0.829923
O19	O	1.582938	-0.202685	0.426388
O20	O	2.082938	0.297315	0.926388
O21	O	1.453738	-0.329995	0.202677
O22	O	1.953738	0.170005	0.702677
O23	O	1.283456	-0.329947	0.329926
O24	O	1.783456	0.170053	0.829926
O25	O	1.453785	-0.426315	0.553586
O26	O	1.953785	0.073685	1.053586
O27	O	1.283424	-0.426339	0.426323
O28	O	1.783424	0.073661	0.926323
O29	O	1.582897	-0.329905	0.553614
O30	O	2.082897	0.170095	1.053614
O31	O	1.582685	-0.553643	0.329885
O32	O	2.082685	-0.053643	0.829885
O33	O	1.453665	-0.553607	0.426300
O34	O	1.953665	-0.053607	0.926300
C35	C	1.518185	-0.582107	0.378103
C36	C	2.018185	-0.082107	0.878103
C37	C	1.518238	-0.669357	0.378116
C38	C	2.018238	-0.169357	0.878116
C39	C	1.245319	-0.378141	0.378123
C40	C	1.745319	0.121859	0.878123
C41	C	1.128542	-0.378152	0.378137
C42	C	1.628542	0.121848	0.878137
C43	C	1.585487	-0.710340	0.327967
C44	C	2.085487	-0.210340	0.827967
C45	C	1.585538	-0.792321	0.327987
C46	C	2.085538	-0.292321	0.827987
C47	C	1.518334	-0.833317	0.378152
C48	C	2.018334	-0.333317	0.878152
C49	C	1.451082	-0.792328	0.428307
C50	C	1.951082	-0.292328	0.928307
C51	C	1.451037	-0.710349	0.428290
C52	C	1.951037	-0.210349	0.928290
C53	C	1.451179	-0.963198	0.428337
C54	C	1.951179	-0.463198	0.928337
C55	C	1.451223	-1.045182	0.428353
C56	C	1.951223	-0.545182	0.928353
C57	C	1.585681	-1.045169	0.328033
C58	C	2.085681	-0.545169	0.828033
C59	C	1.585636	-0.963191	0.328016
C60	C	2.085636	-0.463191	0.828016
C61	C	1.518382	-0.922208	0.378170
C62	C	2.018382	-0.422208	0.878170
C63	C	1.073721	-0.328027	0.428433
C64	C	1.573721	0.171973	0.928433
C65	C	0.963997	-0.328042	0.428438
C66	C	1.463997	0.171958	0.928438
C67	C	0.963925	-0.428314	0.327849
C68	C	1.463925	0.071686	0.827849
C69	C	1.073647	-0.428295	0.327841
C70	C	1.573647	0.071705	0.827841
C71	C	1.073761	-0.270138	0.486509
C72	C	1.573761	0.229862	0.986509
C73	C	0.964037	-0.270153	0.486514
C74	C	1.464037	0.229847	0.986514
C75	C	1.792320	-0.378179	0.378146
C76	C	2.292320	0.121821	0.878146
C77	C	1.909096	-0.378187	0.378150
C78	C	2.409096	0.121813	0.878150
C79	C	1.518350	-0.378102	0.582878
C80	C	2.018350	0.121898	1.082878
C81	C	1.518377	-0.378077	0.670128
C82	C	2.018377	0.121923	1.170128
C83	C	1.518417	-0.173415	0.378183
C84	C	2.018417	0.326585	0.878183
C85	C	1.518472	-0.086165	0.378203
C86	C	2.018472	0.413835	0.878203
C87	C	1.518283	-0.378160	0.174186
C88	C	2.018283	0.121840	0.674186
C89	C	1.518460	-0.377964	0.086937
C90	C	2.018460	0.122036	0.586937
C91	C	1.585608	-0.327872	0.711134
C92	C	2.085608	0.172128	1.211134
C93	C	1.585620	-0.327846	0.793115
C94	C	2.085620	0.172154	1.293115
C95	C	1.518407	-0.378029	0.834088
C96	C	2.018407	0.121971	1.334088
C97	C	1.451169	-0.428237	0.793076
C98	C	1.951169	0.071763	1.293076
C99	C	1.451152	-0.428258	0.711097
C100	C	1.951152	0.071742	1.211097
C101	C	1.451211	-0.428190	0.963946
C102	C	1.951211	0.071810	1.463946
C103	C	1.451229	-0.428169	1.045931
C104	C	1.951229	0.071831	1.545931
C105	C	1.585680	-0.327777	1.045964
C106	C	2.085680	0.172223	1.545964
C107	C	1.585663	-0.327798	0.963985
C108	C	2.085663	0.172202	1.463985
C109	C	1.518426	-0.378007	0.922979
C110	C	2.018426	0.121993	1.422979
H111	H	1.640208	-0.676967	0.287112
H112	H	2.140208	-0.176967	0.787112
H113	H	1.396418	-0.929832	0.469180
H114	H	1.896418	-0.429832	0.969180
Br115	Br	1.676935	-0.259639	1.101614
Br116	Br	2.176935	0.240361	1.601614
Br117	Br	1.359884	-0.847964	0.496397
Br118	Br	1.859884	-0.347964	0.996397
Br119	Br	1.360001	-1.100820	0.496424
Br120	Br	1.860001	-0.600820	0.996424
H121	H	1.396277	-0.676981	0.469128
H122	H	1.896277	-0.176981	0.969128
Br123	Br	0.889419	-0.496359	0.259591
Br124	Br	1.389419	0.003641	0.759591
H125	H	1.640344	-0.287009	0.677780
H126	H	2.140344	0.212991	1.177780
H127	H	1.118279	-0.469104	0.286878
H128	H	1.618279	0.030896	0.786878
Br129	Br	1.676915	-0.259743	0.848764
Br130	Br	2.176915	0.240257	1.348764
H131	H	1.640445	-1.078542	0.287198
H132	H	2.140445	-0.578542	0.787198
Br133	Br	1.676891	-0.259698	0.908379
Br134	Br	2.176891	0.240302	1.408379
Br135	Br	1.359900	-0.496392	0.655445
Br136	Br	1.859900	0.003608	1.155445
Br137	Br	1.360000	-0.496269	1.101537
Br138	Br	1.860000	0.003731	1.601537
H139	H	1.103541	-0.209316	0.470335
H140	H	1.603541	0.290684	0.970335
H141	H	1.107820	-0.291985	0.544216
H142	H	1.607820	0.208015	1.044216
Br143	Br	1.359956	-0.496328	0.908295
Br144	Br	1.859956	0.003672	1.408295
Br145	Br	1.359942	-0.496340	0.848681
Br146	Br	1.859942	0.003660	1.348681
H147	H	1.640299	-0.825685	0.287149
H148	H	2.140299	-0.325685	0.787149
Br149	Br	0.914440	-0.297429	0.587795
Br150	Br	1.414440	0.202571	1.087795
Br151	Br	1.676840	-0.907553	0.259932
Br152	Br	2.176840	-0.407553	0.759932
Br153	Br	0.907307	-0.173860	0.450403
Br154	Br	1.407307	0.326140	0.950403
