data_functionalizedCrystal
_audit_creation_method	'MofGen! by Chris Wilmer'
_symmetry_space_group_name_H-M	'P1'
_symmetry_Int_Tables_number	1
_symmetry_cell_setting	triclinic
loop_
_symmetry_equiv_pos_as_xyz
  x,y,z
_cell_length_a	12.759401
_cell_length_b	12.759400
_cell_length_c	12.759393
_cell_angle_alpha	89.970195
_cell_angle_beta	89.979062
_cell_angle_gamma	90.016169
loop_
_atom_site_label
_atom_site_type_symbol
_atom_site_fract_x
_atom_site_fract_y
_atom_site_fract_z
Zn1	Zn	1.606267	-0.418173	-0.594025
Zn2	Zn	1.606158	-0.593888	-0.418347
Zn3	Zn	1.430565	-0.418229	-0.418360
Zn4	Zn	1.430558	-0.593815	-0.593985
O5	O	1.518387	-0.506026	-0.506179
O6	O	1.753273	-0.441489	-0.570733
O7	O	1.582823	-0.570641	-0.271328
O8	O	1.453921	-0.271200	-0.441685
O9	O	1.753193	-0.570587	-0.441663
O10	O	1.583008	-0.271159	-0.570745
O11	O	1.453816	-0.441584	-0.271337
O12	O	1.283543	-0.441513	-0.441646
O13	O	1.453908	-0.570461	-0.741011
O14	O	1.283538	-0.570516	-0.570676
O15	O	1.583001	-0.441418	-0.741041
O16	O	1.582815	-0.740900	-0.441624
O17	O	1.453803	-0.740846	-0.570664
C18	C	1.245420	-0.506013	-0.506159
C19	C	1.128643	-0.506033	-0.506175
C20	C	1.073805	-0.573307	-0.573255
C21	C	0.964081	-0.573311	-0.573276
C22	C	0.964042	-0.438764	-0.439127
C23	C	1.073764	-0.438756	-0.439112
C24	C	1.518325	-0.778994	-0.506161
C25	C	1.518394	-0.895770	-0.506188
C26	C	1.585581	-0.950521	-0.573447
C27	C	1.585640	-1.060245	-0.573475
C28	C	1.451323	-1.060458	-0.438977
C29	C	1.451260	-0.950736	-0.438955
C30	C	1.792420	-0.506040	-0.506201
C31	C	1.909197	-0.506046	-0.506210
C32	C	1.518466	-0.505925	-0.780213
C33	C	1.518499	-0.505882	-0.896990
C34	C	1.518478	-0.231993	-0.506221
C35	C	1.518517	-0.115216	-0.506239
C36	C	1.585723	-0.438679	-0.951869
C37	C	1.585740	-0.438633	-1.061593
C38	C	1.451308	-0.573004	-1.061549
C39	C	1.451286	-0.573044	-0.951827
C40	C	1.518369	-0.506051	-0.233212
C41	C	1.518539	-0.505798	-0.116436
H42	H	1.118485	-0.628086	-0.627864
H43	H	1.640347	-1.104818	-0.628246
C44	C	1.377335	-0.890506	-0.364972
N45	N	1.321651	-0.845142	-0.309255
H46	H	1.640479	-0.383908	-1.106271
H47	H	1.396537	-0.627768	-0.907143
H48	H	1.640449	-0.383989	-0.907223
C49	C	0.903765	-0.647327	-0.647060
N50	N	0.858336	-0.703083	-0.702635
C51	C	1.377376	-0.646876	-1.121880
N52	N	1.321687	-0.702517	-1.167321
H53	H	0.919346	-0.383991	-0.384525
H54	H	1.640244	-0.905770	-0.628194
C55	C	1.134089	-0.364746	-0.365314
N56	N	1.179526	-0.309002	-0.309733
C57	C	1.377551	-1.120930	-0.364953
N58	N	1.322010	-1.166477	-0.309169
