data_functionalizedCrystal
_audit_creation_method	'MofGen! by Chris Wilmer'
_symmetry_space_group_name_H-M	'P1'
_symmetry_Int_Tables_number	1
_symmetry_cell_setting	triclinic
loop_
_symmetry_equiv_pos_as_xyz
  x,y,z
_cell_length_a	12.759401
_cell_length_b	12.759400
_cell_length_c	12.759393
_cell_angle_alpha	90.031564
_cell_angle_beta	90.018496
_cell_angle_gamma	90.014845
loop_
_atom_site_label
_atom_site_type_symbol
_atom_site_fract_x
_atom_site_fract_y
_atom_site_fract_z
Zn1	Zn	1.606255	-0.418200	0.593981
Zn2	Zn	1.606150	-0.593919	0.418301
Zn3	Zn	1.430557	-0.418255	0.418321
Zn4	Zn	1.430546	-0.593838	0.593943
O5	O	1.518377	-0.506053	0.506137
O6	O	1.753262	-0.441520	0.570685
O7	O	1.582818	-0.570673	0.271283
O8	O	1.453913	-0.271226	0.441647
O9	O	1.753185	-0.570620	0.441614
O10	O	1.582998	-0.271186	0.570704
O11	O	1.453811	-0.441614	0.271297
O12	O	1.283535	-0.441535	0.441609
O13	O	1.453894	-0.570482	0.740969
O14	O	1.283527	-0.570536	0.570638
O15	O	1.582987	-0.441442	0.740997
O16	O	1.582807	-0.740929	0.441577
O17	O	1.453791	-0.740870	0.570620
C18	C	1.245410	-0.506033	0.506122
C19	C	1.128633	-0.506050	0.506141
C20	C	1.518315	-0.779020	0.506115
C21	C	1.518384	-0.895797	0.506140
C22	C	1.073794	-0.573328	0.573215
C23	C	0.964070	-0.573342	0.573227
C24	C	0.964034	-0.438796	0.439081
C25	C	1.073756	-0.438778	0.439075
C26	C	1.073815	-0.651010	0.650660
C27	C	0.964091	-0.651024	0.650672
C28	C	1.585637	-0.950655	0.439022
C29	C	1.585702	-1.060379	0.439054
C30	C	1.451252	-1.060377	0.573327
C31	C	1.451193	-0.950655	0.573299
C32	C	1.663258	-0.950657	0.361498
C33	C	1.663322	-1.060381	0.361530
C34	C	1.792410	-0.506073	0.506152
C35	C	1.909187	-0.506082	0.506158
C36	C	1.518451	-0.505947	0.780170
C37	C	1.518482	-0.505902	0.896947
C38	C	1.518468	-0.232019	0.506182
C39	C	1.518507	-0.115243	0.506201
C40	C	1.518364	-0.506083	0.233169
C41	C	1.518537	-0.505832	0.116393
C42	C	1.585710	-0.438704	0.951825
C43	C	1.585735	-0.438666	1.061549
C44	C	1.451301	-0.573033	1.061507
C45	C	1.451272	-0.573064	0.951785
C46	C	1.663328	-0.361131	0.951851
C47	C	1.663353	-0.361093	1.061575
H48	H	1.118401	-0.383987	0.384464
H49	H	1.744601	-0.920799	0.383349
H50	H	1.634133	-0.916710	0.284172
O51	O	1.755455	-1.100933	0.396549
C52	C	1.736722	-1.163051	0.485961
H53	H	1.660321	-1.137440	0.524532
H54	H	1.804096	-1.153060	0.543816
H55	H	1.730602	-1.248879	0.461838
H56	H	1.396548	-1.105056	0.628005
O57	O	1.637202	-1.095968	0.264481
C58	C	1.536559	-1.059139	0.237574
H59	H	1.491133	-1.039615	0.311983
H60	H	1.492972	-1.122287	0.191736
H61	H	1.544189	-0.985735	0.187245
H62	H	0.930093	-0.621980	0.728024
O63	O	0.910842	-0.373507	0.373784
C64	C	0.937591	-0.396360	0.269030
H65	H	1.017250	-0.436737	0.266779
H66	H	0.941340	-0.320480	0.222051
H67	H	0.875817	-0.450339	0.233553
O68	O	1.109257	-0.625244	0.747852
C69	C	1.072373	-0.699117	0.821247
H70	H	0.998968	-0.738801	0.789249
H71	H	1.052833	-0.657663	0.897957
H72	H	1.135491	-0.760622	0.835883
H73	H	1.107829	-0.728262	0.621376
O74	O	1.385917	-0.638423	0.898638
C75	C	1.326583	-0.697669	0.970571
H76	H	1.369641	-0.701306	1.048782
H77	H	1.315310	-0.780449	0.938842
H78	H	1.246819	-0.659161	0.982255
H79	H	1.744723	-0.382886	1.091353
H80	H	0.934295	-0.732373	0.628740
H81	H	1.396579	-0.627712	1.106169
H82	H	1.641559	-0.279767	0.922095
O83	O	1.385768	-0.897528	0.638534
C84	C	1.326496	-0.969479	0.697828
H85	H	1.322922	-1.047731	0.654813
H86	H	1.243696	-0.937835	0.708962
H87	H	1.364939	-0.981051	0.777654
H88	H	1.740599	-0.390300	0.917815
H89	H	1.634239	-0.283784	1.095623
