data_functionalizedCrystal
_audit_creation_method	'MofGen! by Chris Wilmer'
_symmetry_space_group_name_H-M	'P1'
_symmetry_Int_Tables_number	1
_symmetry_cell_setting	triclinic
loop_
_symmetry_equiv_pos_as_xyz
  x,y,z
_cell_length_a	12.759400
_cell_length_b	12.759401
_cell_length_c	12.759393
_cell_angle_alpha	90.017380
_cell_angle_beta	89.968231
_cell_angle_gamma	89.985155
loop_
_atom_site_label
_atom_site_type_symbol
_atom_site_fract_x
_atom_site_fract_y
_atom_site_fract_z
Zn1	Zn	-0.418198	-1.606244	-0.593981
Zn2	Zn	-0.593917	-1.606142	-0.418301
Zn3	Zn	-0.418253	-1.430549	-0.418321
Zn4	Zn	-0.593836	-1.430535	-0.593943
O5	O	-0.506051	-1.518367	-0.506137
O6	O	-0.441518	-1.753251	-0.570685
O7	O	-0.570672	-1.582812	-0.271283
O8	O	-0.271225	-1.453905	-0.441647
O9	O	-0.570618	-1.753176	-0.441614
O10	O	-0.271184	-1.582987	-0.570704
O11	O	-0.441613	-1.453805	-0.271297
O12	O	-0.441534	-1.283526	-0.441609
O13	O	-0.570480	-1.453879	-0.740969
O14	O	-0.570533	-1.283516	-0.570638
O15	O	-0.441439	-1.582972	-0.740997
O16	O	-0.740927	-1.582798	-0.441577
O17	O	-0.740868	-1.453780	-0.570620
C18	C	-0.506032	-1.245400	-0.506122
C19	C	-0.506049	-1.128623	-0.506141
C20	C	-0.779018	-1.518305	-0.506115
C21	C	-0.895795	-1.518374	-0.506140
C22	C	-0.505944	-1.518436	-0.780170
C23	C	-0.505898	-1.518465	-0.896947
C24	C	-0.950653	-1.585629	-0.439022
C25	C	-1.060377	-1.585693	-0.439054
C26	C	-1.060375	-1.451240	-0.573327
C27	C	-0.950653	-1.451182	-0.573299
C28	C	-0.950655	-1.663251	-0.361498
C29	C	-1.060379	-1.663315	-0.361530
C30	C	-0.232018	-1.518459	-0.506182
C31	C	-0.115241	-1.518497	-0.506201
C32	C	-0.506071	-1.792401	-0.506152
C33	C	-0.506080	-1.909177	-0.506158
C34	C	-0.573326	-1.073783	-0.573215
C35	C	-0.573340	-0.964059	-0.573227
C36	C	-0.438795	-0.964025	-0.439081
C37	C	-0.438777	-1.073747	-0.439075
C38	C	-0.651008	-1.073802	-0.650660
C39	C	-0.651021	-0.964078	-0.650672
C40	C	-0.438685	-1.451319	-0.951822
C41	C	-0.438653	-1.451351	-1.061546
C42	C	-0.573052	-1.585683	-1.061510
C43	C	-0.573088	-1.585645	-0.951788
C44	C	-0.361087	-1.373767	-0.951844
C45	C	-0.361056	-1.373799	-1.061568
C46	C	-0.506082	-1.518360	-0.233169
C47	C	-0.505831	-1.518534	-0.116393
H48	H	-0.905988	-1.396428	-0.627961
H49	H	-0.383986	-1.118394	-0.384464
H50	H	-0.732371	-0.934283	-0.628740
H51	H	-1.105054	-1.396535	-0.628005
H52	H	-0.384024	-0.919332	-0.384479
H53	H	-0.916709	-1.634127	-0.284172
H54	H	-1.090242	-1.641579	-0.280150
H55	H	-0.629308	-1.103609	-0.732067
H56	H	-0.728260	-1.107817	-0.621376
H57	H	-1.094324	-1.740619	-0.390742
H58	H	-0.621977	-0.930079	-0.728024
H59	H	-0.283809	-1.402931	-0.917828
H60	H	-0.279674	-1.395616	-1.091366
H61	H	-0.627755	-1.640379	-1.106175
H62	H	-0.920798	-1.744594	-0.383349
H63	H	-0.627835	-1.640306	-0.907112
H64	H	-0.382876	-1.292378	-0.922067
H65	H	-0.390182	-1.296502	-1.095594
