data_functionalizedCrystal
_audit_creation_method	'MofGen! by Chris Wilmer'
_symmetry_space_group_name_H-M	'P1'
_symmetry_Int_Tables_number	1
_symmetry_cell_setting	triclinic
loop_
_symmetry_equiv_pos_as_xyz
  x,y,z
_cell_length_a	21.395364
_cell_length_b	21.395362
_cell_length_c	21.395356
_cell_angle_alpha	89.970924
_cell_angle_beta	89.976411
_cell_angle_gamma	90.042450
loop_
_atom_site_label
_atom_site_type_symbol
_atom_site_fract_x
_atom_site_fract_y
_atom_site_fract_z
Zn1	Zn	0.957867	-0.249204	-0.354255
Zn2	Zn	1.291201	0.084129	-0.020922
Zn3	Zn	1.624534	0.417462	0.312411
Zn4	Zn	0.957777	-0.353981	-0.249475
Zn5	Zn	1.291111	-0.020648	0.083858
Zn6	Zn	1.624444	0.312686	0.417191
Zn7	Zn	0.853084	-0.249249	-0.249492
Zn8	Zn	1.186417	0.084085	0.083841
Zn9	Zn	1.519751	0.417418	0.417175
Zn10	Zn	0.853057	-0.353975	-0.354216
Zn11	Zn	1.186391	-0.020642	-0.020882
Zn12	Zn	1.519724	0.312691	0.312451
O13	O	0.905446	-0.301602	-0.301860
O14	O	1.238780	0.031731	0.031474
O15	O	1.572113	0.365064	0.364807
O16	O	1.045533	-0.263087	-0.340366
O17	O	1.378867	0.070246	-0.007032
O18	O	1.712200	0.403580	0.326301
O19	O	0.943863	-0.340109	-0.161800
O20	O	1.277196	-0.006776	0.171534
O21	O	1.610530	0.326558	0.504867
O22	O	0.867033	-0.161565	-0.263413
O23	O	1.200366	0.171768	0.069920
O24	O	1.533699	0.505102	0.403254
O25	O	1.045467	-0.340066	-0.263384
O26	O	1.378801	-0.006733	0.069949
O27	O	1.712134	0.326601	0.403282
O28	O	0.944016	-0.161532	-0.340382
O29	O	1.277350	0.171801	-0.007049
O30	O	1.610683	0.505134	0.326285
O31	O	0.866945	-0.263162	-0.161812
O32	O	1.200279	0.070171	0.171521
O33	O	1.533612	0.403504	0.504855
O34	O	0.765403	-0.263157	-0.263374
O35	O	1.098736	0.070176	0.069959
O36	O	1.432069	0.403510	0.403292
O37	O	0.866987	-0.340057	-0.441899
O38	O	1.200320	-0.006723	-0.108565
O39	O	1.533654	0.326610	0.224768
O40	O	0.765383	-0.340099	-0.340314
O41	O	1.098716	-0.006766	-0.006981
O42	O	1.432050	0.326567	0.326353
O43	O	0.943990	-0.263082	-0.441928
O44	O	1.277324	0.070252	-0.108595
O45	O	1.610657	0.403585	0.224739
O46	O	0.943837	-0.441658	-0.263346
O47	O	1.277171	-0.108325	0.069988
O48	O	1.610504	0.225008	0.403321
O49	O	0.866900	-0.441654	-0.340298
O50	O	1.200233	-0.108321	-0.006965
O51	O	1.533566	0.225013	0.326369
C52	C	0.742659	-0.301633	-0.301842
C53	C	1.075992	0.031700	0.031491
C54	C	1.409326	0.365034	0.364825
C55	C	0.673018	-0.301661	-0.301849
C56	C	1.006351	0.031672	0.031484
C57	C	1.339684	0.365006	0.364817
C58	C	0.640361	-0.261644	-0.341996
C59	C	0.973695	0.071690	-0.008662
C60	C	1.307028	0.405023	0.324671
C61	C	0.574926	-0.261627	-0.341998
C62	C	0.908259	0.071706	-0.008665
C63	C	1.241592	0.405040	0.324669
C64	C	0.542149	-0.301639	-0.301861
C65	C	0.875483	0.031694	0.031473
C66	C	1.208816	0.365028	0.364806
C67	C	0.574814	-0.341659	-0.261707
C68	C	0.908147	-0.008326	0.071627
C69	C	1.241480	0.325008	0.404960
C70	C	0.640248	-0.341670	-0.261701
C71	C	0.973581	-0.008337	0.071632
C72	C	1.306914	0.324997	0.404966
C73	C	0.438428	-0.358064	-0.296822
C74	C	0.771761	-0.024731	0.036511
C75	C	1.105095	0.308602	0.369845
C76	C	0.372995	-0.358054	-0.296832
C77	C	0.706329	-0.024721	0.036501
C78	C	1.039662	0.308612	0.369835
C79	C	0.340329	-0.301604	-0.301875
C80	C	0.673662	0.031729	0.031459
C81	C	1.006995	0.365062	0.364792
C82	C	0.373103	-0.245163	-0.306921
C83	C	0.706436	0.088171	0.026413
C84	C	1.039770	0.421504	0.359746
C85	C	0.438537	-0.245174	-0.306915
C86	C	0.771870	0.088160	0.026418
C87	C	1.105204	0.421493	0.359752
C88	C	0.471197	-0.301631	-0.301862
C89	C	0.804530	0.031702	0.031471
C90	C	1.137864	0.365036	0.364804
C91	C	0.236720	-0.261566	-0.342026
C92	C	0.570053	0.071768	-0.008692
C93	C	0.903386	0.405101	0.324641
C94	C	0.171283	-0.261548	-0.342024
C95	C	0.504616	0.071785	-0.008690
C96	C	0.837950	0.405119	0.324643
C97	C	0.171172	-0.341585	-0.261736
C98	C	0.504505	-0.008252	0.071597
C99	C	0.837839	0.325081	0.404931
C100	C	0.236607	-0.341598	-0.261735
C101	C	0.569941	-0.008264	0.071599
C102	C	0.903274	0.325069	0.404932
C103	C	0.269377	-0.301589	-0.301883
C104	C	0.602711	0.031745	0.031451
C105	C	0.936044	0.365078	0.364784
C106	C	0.905373	-0.464390	-0.301829
C107	C	1.238706	-0.131057	0.031504
C108	C	1.572040	0.202277	0.364837
C109	C	0.905399	-0.534031	-0.301837
C110	C	1.238732	-0.200698	0.031496
C111	C	1.572065	0.132635	0.364829
C112	C	0.945659	-1.035809	-0.261892
C113	C	1.278992	-0.702475	0.071441
C114	C	1.612325	-0.369142	0.404774
C115	C	0.945635	-0.970373	-0.261878
C116	C	1.278968	-0.637040	0.071456
C117	C	1.612302	-0.303707	0.404789
C118	C	0.905535	-0.937670	-0.301904
C119	C	1.238869	-0.604336	0.031429
C120	C	1.572202	-0.271003	0.364762
C121	C	0.865445	-0.970407	-0.341937
C122	C	1.198778	-0.637073	-0.008604
C123	C	1.532112	-0.303740	0.324729
C124	C	0.865466	-1.035841	-0.341947
C125	C	1.198799	-0.702507	-0.008613
C126	C	1.532132	-0.369174	0.324720
C127	C	0.900526	-0.833971	-0.358335
C128	C	1.233860	-0.500638	-0.025002
C129	C	1.567193	-0.167304	0.308332
C130	C	0.900510	-0.768538	-0.358327
C131	C	1.233844	-0.435205	-0.024994
C132	C	1.567177	-0.101871	0.308340
C133	C	0.905469	-0.735849	-0.301876
C134	C	1.238802	-0.402515	0.031457
C135	C	1.572135	-0.069182	0.364791
C136	C	0.910456	-0.768600	-0.245432
C137	C	1.243789	-0.435267	0.087902
C138	C	1.577123	-0.101934	0.421235
C139	C	0.910477	-0.834035	-0.245441
C140	C	1.243810	-0.500701	0.087893
C141	C	1.577143	-0.167368	0.421226
C142	C	0.905508	-0.866717	-0.301899
C143	C	1.238842	-0.533384	0.031435
C144	C	1.572175	-0.200050	0.364768
C145	C	0.945528	-0.632167	-0.261827
C146	C	1.278861	-0.298834	0.071507
C147	C	1.612194	0.034500	0.404840
C148	C	0.945499	-0.566731	-0.261811
C149	C	1.278833	-0.233397	0.071522
C150	C	1.612166	0.099936	0.404856
C151	C	0.865313	-0.566765	-0.341876
C152	C	1.198646	-0.233432	-0.008543
C153	C	1.531980	0.099902	0.324790
C154	C	0.865338	-0.632200	-0.341886
C155	C	1.198671	-0.298867	-0.008553
C156	C	1.532004	0.034466	0.324780
C157	C	0.905448	-0.664898	-0.301862
C158	C	1.238782	-0.331564	0.031471
C159	C	1.572115	0.001769	0.364804
C160	C	1.068870	-0.301572	-0.301878
C161	C	1.402203	0.031761	0.031456
C162	C	1.735536	0.365094	0.364789
C163	C	1.138511	-0.301559	-0.301885
C164	C	1.471844	0.031774	0.031448
C165	C	1.805178	0.365107	0.364781
C166	C	0.905496	-0.301564	-0.465283
C167	C	1.238829	0.031770	-0.131950
C168	C	1.572162	0.365103	0.201384
C169	C	0.905517	-0.301547	-0.534924
C170	C	1.238850	0.031786	-0.201591
C171	C	1.572183	0.365120	0.131742
C172	C	0.905537	-0.138179	-0.301904
C173	C	1.238871	0.195154	0.031430
C174	C	1.572204	0.528488	0.364763
C175	C	0.905576	-0.068538	-0.301923
C176	C	1.238910	0.264796	0.031411
C177	C	1.572243	0.598129	0.364744
C178	C	0.865476	-0.261476	-0.567634
C179	C	1.198810	0.071857	-0.234301
C180	C	1.532143	0.405190	0.099033
C181	C	0.865474	-0.261465	-0.633069
C182	C	1.198808	0.071868	-0.299736
C183	C	1.532141	0.405202	0.033597
C184	C	0.905524	-0.301517	-0.665793
C185	C	1.238857	0.031816	-0.332459
C186	C	1.572190	0.365149	0.000874
C187	C	0.945567	-0.341596	-0.633075
C188	C	1.278900	-0.008262	-0.299742
C189	C	1.612234	0.325071	0.033592
C190	C	0.945563	-0.341610	-0.567641
C191	C	1.278897	-0.008277	-0.234308
C192	C	1.612230	0.325056	0.099026
C193	C	0.961976	-0.306428	-0.769479
C194	C	1.295309	0.026905	-0.436146
C195	C	1.628643	0.360238	-0.102812
C196	C	0.961980	-0.306409	-0.834912
C197	C	1.295314	0.026924	-0.501579
C198	C	1.628647	0.360258	-0.168245
C199	C	0.905534	-0.301475	-0.867614
C200	C	1.238867	0.031858	-0.534280
C201	C	1.572201	0.365192	-0.200947
C202	C	0.849081	-0.296547	-0.834874
C203	C	1.182415	0.036787	-0.501541
C204	C	1.515748	0.370120	-0.168208
C205	C	0.849078	-0.296562	-0.769440
C206	C	1.182411	0.036772	-0.436107
C207	C	1.515745	0.370105	-0.102773
C208	C	0.905532	-0.301506	-0.736745
C209	C	1.238865	0.031828	-0.403412
C210	C	1.572198	0.365161	-0.070078
C211	C	0.865488	-0.261390	-0.971276
C212	C	1.198821	0.071944	-0.637942
C213	C	1.532155	0.405277	-0.304609
C214	C	0.865485	-0.261382	-1.036712
C215	C	1.198818	0.071951	-0.703379
C216	C	1.532151	0.405284	-0.370046
C217	C	0.945583	-0.341510	-1.036717
C218	C	1.278916	-0.008176	-0.703384
C219	C	1.612250	0.325157	-0.370050
C220	C	0.945581	-0.341520	-0.971282
C221	C	1.278914	-0.008187	-0.637948
C222	C	1.612247	0.325146	-0.304615
C223	C	0.905534	-0.301457	-0.938565
C224	C	1.238867	0.031876	-0.605232
C225	C	1.572201	0.365210	-0.271898
C226	C	0.905433	-0.301596	-0.139072
C227	C	1.238767	0.031737	0.194261
C228	C	1.572100	0.365071	0.527595
C229	C	0.905534	-0.301436	-0.069431
C230	C	1.238867	0.031897	0.263902
C231	C	1.572201	0.365231	0.597235
H232	H	0.666836	-0.374258	-0.229008
H233	H	1.000170	-0.040925	0.104325
H234	H	1.333503	0.292409	0.437658
H235	H	0.914536	-0.860698	-0.199482
H236	H	1.247869	-0.527365	0.133851
H237	H	1.581203	-0.194032	0.467185
C238	C	0.135126	-0.385601	-0.217588
C239	C	0.468459	-0.052267	0.115745
C240	C	0.801792	0.281066	0.449078
H241	H	0.091478	-0.379867	-0.223344
H242	H	0.424811	-0.046533	0.109989
H243	H	0.758145	0.286800	0.443323
H244	H	0.145836	-0.376382	-0.175506
H245	H	0.479170	-0.043049	0.157828
H246	H	0.812503	0.290284	0.491161
H247	H	0.145817	-0.427713	-0.226688
H248	H	0.479150	-0.094380	0.106645
H249	H	0.812483	0.238953	0.439978
C250	C	0.337182	-0.183063	-0.312466
C251	C	0.670515	0.150271	0.020867
C252	C	1.003848	0.483604	0.354201
H253	H	0.366072	-0.149453	-0.315474
H254	H	0.699405	0.183881	0.017859
H255	H	1.032739	0.517214	0.351193
H256	H	0.311645	-0.177503	-0.276569
H257	H	0.644978	0.155831	0.056764
H258	H	0.978312	0.489164	0.390097
H259	H	0.311672	-0.183920	-0.348788
H260	H	0.645005	0.149414	-0.015455
H261	H	0.978338	0.482747	0.317878
H262	H	0.832879	-0.228768	-0.944636
H263	H	1.166212	0.104565	-0.611303
H264	H	1.499546	0.437899	-0.277970
C265	C	0.989624	-0.385650	-0.669065
C266	C	1.322958	-0.052317	-0.335732
C267	C	1.656291	0.281017	-0.002398
H268	H	1.013469	-0.409520	-0.640210
H269	H	1.346802	-0.076187	-0.306876
H270	H	1.680136	0.257146	0.026457
H271	H	1.016939	-0.361670	-0.694606
H272	H	1.350272	-0.028337	-0.361272
H273	H	1.683605	0.304996	-0.027939
H274	H	0.965641	-0.412950	-0.694576
H275	H	1.298974	-0.079617	-0.361242
H276	H	1.632307	0.253716	-0.027909
C277	C	0.474590	-0.183095	-0.312460
C278	C	0.807923	0.150238	0.020874
C279	C	1.141256	0.483571	0.354207
H280	H	0.518237	-0.191190	-0.311738
H281	H	0.851570	0.142143	0.021595
H282	H	1.184904	0.475477	0.354928
H283	H	0.463875	-0.156692	-0.278426
H284	H	0.797208	0.176641	0.054907
H285	H	1.130542	0.509975	0.388241
H286	H	0.463905	-0.163110	-0.350645
H287	H	0.797239	0.170224	-0.017312
H288	H	1.130572	0.503557	0.316022
C289	C	0.989772	-1.071772	-0.217861
C290	C	1.323105	-0.738439	0.115472
C291	C	1.656439	-0.405105	0.448805
H292	H	1.013636	-1.042904	-0.194014
H293	H	1.346970	-0.709571	0.139319
H294	H	1.680303	-0.376237	0.472652
H295	H	1.017066	-1.097256	-0.241856
H296	H	1.350399	-0.763923	0.091477
H297	H	1.683733	-0.430590	0.424811
H298	H	0.965822	-1.097337	-0.190538
H299	H	1.299156	-0.764004	0.142795
H300	H	1.632489	-0.430671	0.476128
C301	C	0.915900	-0.732651	-0.183332
C302	C	1.249234	-0.399318	0.150002
C303	C	1.582567	-0.065985	0.483335
H304	H	0.915164	-0.688991	-0.191407
H305	H	1.248497	-0.355658	0.141926
H306	H	1.581831	-0.022324	0.475260
H307	H	0.954056	-0.743343	-0.163329
H308	H	1.287389	-0.410009	0.170004
H309	H	1.620723	-0.076676	0.503337
H310	H	0.881828	-0.743435	-0.156952
H311	H	1.215161	-0.410101	0.176382
H312	H	1.548494	-0.076768	0.509715
H313	H	0.978137	-0.540082	-0.229210
H314	H	1.311471	-0.206749	0.104123
H315	H	1.644804	0.126585	0.437457
H316	H	0.263402	-0.228984	-0.374713
H317	H	0.596736	0.104349	-0.041379
H318	H	0.930069	0.437683	0.291954
H319	H	0.263197	-0.374187	-0.229046
H320	H	0.596530	-0.040853	0.104288
H321	H	0.929863	0.292480	0.437621
C322	C	0.135361	-0.217527	-0.386187
C323	C	0.468694	0.115807	-0.052854
C324	C	0.802027	0.449140	0.280480
H325	H	0.164251	-0.193706	-0.410099
H326	H	0.497585	0.139627	-0.076766
H327	H	0.830918	0.472960	0.256568
H328	H	0.109849	-0.190188	-0.362274
H329	H	0.443182	0.143146	-0.028941
H330	H	0.776516	0.476479	0.304392
H331	H	0.109826	-0.241532	-0.413444
H332	H	0.443159	0.091801	-0.080111
H333	H	0.776493	0.425135	0.253223
C334	C	0.821425	-0.217318	-1.072696
C335	C	1.154758	0.116015	-0.739363
C336	C	1.488091	0.449349	-0.406030
H337	H	0.827152	-0.223056	-1.116353
H338	H	1.160485	0.110278	-0.783019
H339	H	1.493818	0.443611	-0.449686
H340	H	0.830607	-0.175217	-1.061997
H341	H	1.163941	0.158116	-0.728664
H342	H	1.497274	0.491450	-0.395331
H343	H	0.779323	-0.226511	-1.061945
H344	H	1.112657	0.106822	-0.728612
H345	H	1.445990	0.440156	-0.395279
C346	C	0.786985	-0.291152	-0.733429
C347	C	1.120318	0.042181	-0.400095
C348	C	1.453652	0.375515	-0.066762
H349	H	0.753365	-0.288216	-0.762272
H350	H	1.086698	0.045117	-0.428938
H351	H	1.420032	0.378451	-0.095605
H352	H	0.787815	-0.254841	-0.707910
H353	H	1.121148	0.078492	-0.374577
H354	H	1.454481	0.411825	-0.041243
H355	H	0.781463	-0.327074	-0.707894
H356	H	1.114796	0.006259	-0.374561
H357	H	1.448130	0.339593	-0.041228
H358	H	0.978187	-0.658790	-0.229236
H359	H	1.311521	-0.325457	0.104097
H360	H	1.644854	0.007876	0.437431
H361	H	0.832794	-0.943776	-0.374527
H362	H	1.166128	-0.610443	-0.041194
H363	H	1.499461	-0.277109	0.292140
H364	H	0.346315	-0.404013	-0.292726
H365	H	0.679649	-0.070679	0.040607
H366	H	1.012982	0.262654	0.373940
H367	H	0.896453	-0.741874	-0.404286
H368	H	1.229787	-0.408541	-0.070953
H369	H	1.563120	-0.075208	0.262381
H370	H	0.465020	-0.404036	-0.292715
H371	H	0.798353	-0.070703	0.040619
H372	H	1.131687	0.262631	0.373952
C373	C	0.821378	-1.071844	-0.385986
C374	C	1.154711	-0.738511	-0.052653
C375	C	1.488044	-0.405178	0.280680
H376	H	0.797494	-1.042998	-0.409826
H377	H	1.130827	-0.709665	-0.076493
H378	H	1.464160	-0.376331	0.256840
H379	H	0.794101	-1.097418	-0.361999
H380	H	1.127435	-0.764085	-0.028665
H381	H	1.460768	-0.430752	0.304668
H382	H	0.845345	-1.097323	-0.413316
H383	H	1.178679	-0.763990	-0.079982
H384	H	1.512012	-0.430656	0.253351
C385	C	0.538762	-0.385673	-0.217560
C386	C	0.872096	-0.052340	0.115774
C387	C	1.205429	0.280993	0.449107
H388	H	0.495114	-0.379941	-0.223318
H389	H	0.828448	-0.046607	0.110016
H390	H	1.161781	0.286726	0.443349
H391	H	0.549471	-0.376452	-0.175477
H392	H	0.882804	-0.043119	0.157856
H393	H	1.216138	0.290214	0.491189
H394	H	0.549454	-0.427786	-0.226657
H395	H	0.882788	-0.094453	0.106676
H396	H	1.216121	0.238880	0.440010
H397	H	0.978276	-0.943720	-0.229279
H398	H	1.311609	-0.610387	0.104054
H399	H	1.644943	-0.277054	0.437388
C400	C	0.821423	-0.217415	-0.531646
C401	C	1.154756	0.115918	-0.198313
C402	C	1.488089	0.449251	0.135020
H403	H	0.827156	-0.223159	-0.487990
H404	H	1.160490	0.110174	-0.154657
H405	H	1.493823	0.443508	0.178676
H406	H	0.779321	-0.226589	-0.542354
H407	H	1.112654	0.106744	-0.209021
H408	H	1.445988	0.440078	0.124312
H409	H	0.830621	-0.175311	-0.542384
H410	H	1.163955	0.158022	-0.209051
H411	H	1.497288	0.491355	0.124282
H412	H	0.832661	-0.540138	-0.374464
H413	H	1.165994	-0.206805	-0.041131
H414	H	1.499327	0.126528	0.292202
H415	H	0.896602	-0.860581	-0.404317
H416	H	1.229935	-0.527248	-0.070984
H417	H	1.563269	-0.193914	0.262350
H418	H	0.832700	-0.658849	-0.374485
H419	H	1.166033	-0.325516	-0.041152
H420	H	1.499367	0.007818	0.292181
C421	C	0.821434	-0.217382	-0.669061
C422	C	1.154767	0.115951	-0.335727
C423	C	1.488101	0.449284	-0.002394
H424	H	0.827171	-0.223114	-0.712716
H425	H	1.160504	0.110219	-0.379383
H426	H	1.493838	0.443553	-0.046050
H427	H	0.830632	-0.175287	-0.658351
H428	H	1.163965	0.158046	-0.325018
H429	H	1.497298	0.491380	0.008315
H430	H	0.779326	-0.226559	-0.658323
H431	H	1.112659	0.106774	-0.324990
H432	H	1.445993	0.440107	0.008343
H433	H	0.803118	-0.292525	-0.861498
H434	H	1.136451	0.040809	-0.528165
H435	H	1.469784	0.374142	-0.194832
H436	H	0.978193	-0.374120	-1.063360
H437	H	1.311527	-0.040787	-0.730026
H438	H	1.644860	0.292547	-0.396693
H439	H	0.978187	-0.374149	-0.944649
H440	H	1.311521	-0.040815	-0.611316
H441	H	1.644854	0.292518	-0.277982
C442	C	1.024075	-0.311828	-0.870919
C443	C	1.357408	0.021505	-0.537586
C444	C	1.690741	0.354839	-0.204253
H445	H	1.057691	-0.314780	-0.842073
H446	H	1.391024	0.018553	-0.508740
H447	H	1.724357	0.351887	-0.175407
H448	H	1.029607	-0.275913	-0.896456
H449	H	1.362941	0.057420	-0.563123
H450	H	1.696274	0.390753	-0.229790
H451	H	1.023238	-0.348145	-0.896435
H452	H	1.356571	-0.014811	-0.563102
H453	H	1.689905	0.318522	-0.229768
C454	C	0.676405	-0.217628	-0.386149
C455	C	1.009738	0.115706	-0.052816
C456	C	1.343071	0.449039	0.280518
H457	H	0.647580	-0.193788	-0.410055
H458	H	0.980913	0.139546	-0.076721
H459	H	1.314247	0.472879	0.256612
H460	H	0.701926	-0.241631	-0.413403
H461	H	1.035259	0.091702	-0.080069
H462	H	1.368592	0.425035	0.253264
H463	H	0.701939	-0.190298	-0.362223
H464	H	1.035273	0.143036	-0.028889
H465	H	1.368606	0.476369	0.304444
C466	C	1.024069	-0.311862	-0.733510
C467	C	1.357402	0.021471	-0.400177
C468	C	1.690735	0.354804	-0.066844
H469	H	1.015982	-0.311173	-0.689852
H470	H	1.349315	0.022160	-0.356518
H471	H	1.682649	0.355493	-0.023185
H472	H	1.050447	-0.277774	-0.744250
H473	H	1.383781	0.055559	-0.410917
H474	H	1.717114	0.388893	-0.077584
H475	H	1.044078	-0.350005	-0.744233
H476	H	1.377411	-0.016672	-0.410899
H477	H	1.710744	0.316662	-0.077566
C478	C	0.989613	-0.385686	-0.531659
C479	C	1.322947	-0.052353	-0.198325
C480	C	1.656280	0.280981	0.135008
H481	H	1.013468	-0.409537	-0.560517
H482	H	1.346802	-0.076204	-0.227183
H483	H	1.680135	0.257129	0.106150
H484	H	0.965631	-0.412994	-0.506113
H485	H	1.298964	-0.079660	-0.172780
H486	H	1.632298	0.253673	0.160553
H487	H	1.016928	-0.361713	-0.506153
H488	H	1.350262	-0.028380	-0.172820
H489	H	1.683595	0.304953	0.160513
H490	H	0.548332	-0.229037	-0.374689
H491	H	0.881665	0.104296	-0.041355
H492	H	1.214998	0.437630	0.291978
