data_functionalizedCrystal
_audit_creation_method	'MofGen! by Chris Wilmer'
_symmetry_space_group_name_H-M	'P1'
_symmetry_Int_Tables_number	1
_symmetry_cell_setting	triclinic
loop_
_symmetry_equiv_pos_as_xyz
  x,y,z
_cell_length_a	17.077404
_cell_length_b	12.759400
_cell_length_c	17.077396
_cell_angle_alpha	89.974414
_cell_angle_beta	89.980499
_cell_angle_gamma	90.014910
loop_
_atom_site_label
_atom_site_type_symbol
_atom_site_fract_x
_atom_site_fract_y
_atom_site_fract_z
Zn1	Zn	1.200099	-0.418260	-0.443859
Zn2	Zn	1.200025	-0.593961	-0.312599
Zn3	Zn	1.068831	-0.418297	-0.312606
Zn4	Zn	1.068818	-0.593898	-0.443823
O5	O	1.134443	-0.506104	-0.378222
O6	O	1.309936	-0.441578	-0.426459
O7	O	1.182597	-0.570700	-0.202753
O8	O	1.086281	-0.271271	-0.330035
O9	O	1.309882	-0.570664	-0.330023
O10	O	1.182723	-0.271244	-0.426466
O11	O	1.086209	-0.441641	-0.202759
O12	O	0.958983	-0.441580	-0.330001
O13	O	1.086258	-0.570558	-0.553674
O14	O	0.958973	-0.570594	-0.426405
O15	O	1.182710	-0.441517	-0.553701
O16	O	1.182584	-0.740973	-0.329988
O17	O	1.086186	-0.740927	-0.426398
C18	C	0.930496	-0.506085	-0.378200
C19	C	0.843246	-0.506102	-0.378209
C20	C	0.802271	-0.573381	-0.428326
C21	C	0.720291	-0.573383	-0.428339
C22	C	0.679286	-0.506111	-0.378230
C23	C	0.720267	-0.438825	-0.328111
C24	C	0.802246	-0.438818	-0.328103
C25	C	0.549397	-0.438846	-0.328130
C26	C	0.467412	-0.438854	-0.328136
C27	C	0.467442	-0.573410	-0.428366
C28	C	0.549421	-0.573404	-0.428358
C29	C	0.590395	-0.506119	-0.378237
C30	C	1.134397	-0.779071	-0.378205
C31	C	1.134449	-0.895848	-0.378225
C32	C	1.184699	-0.950699	-0.328080
C33	C	1.184747	-1.060423	-0.328104
C34	C	1.084289	-1.060435	-0.428420
C35	C	1.084245	-0.950713	-0.428399
C36	C	1.242695	-0.950693	-0.270160
C37	C	1.242743	-1.060417	-0.270185
C38	C	1.339188	-0.506124	-0.378244
C39	C	1.426437	-0.506132	-0.378253
C40	C	1.134491	-0.506026	-0.582966
C41	C	1.134511	-0.505993	-0.670216
C42	C	1.134512	-0.232071	-0.378255
C43	C	1.134541	-0.115294	-0.378270
C44	C	1.184735	-0.438796	-0.711221
C45	C	1.184745	-0.438761	-0.793202
C46	C	1.134533	-0.505930	-0.834175
C47	C	1.084304	-0.573130	-0.793165
C48	C	1.084291	-0.573159	-0.711186
C49	C	1.084335	-0.573066	-0.964035
C50	C	1.084349	-0.573039	-1.046019
C51	C	1.184789	-0.438669	-1.046051
C52	C	1.184777	-0.438698	-0.964072
C53	C	1.134547	-0.505900	-0.923066
C54	C	1.134441	-0.506105	-0.174274
C55	C	1.134573	-0.505842	-0.087025
H56	H	0.582804	-0.628188	-0.469157
F57	F	0.423833	-0.645009	-0.481717
F58	F	1.238222	-0.367217	-0.920466
H59	H	0.686933	-0.628169	-0.469149
H60	H	1.043415	-1.105120	-0.469271
H61	H	0.686875	-0.384046	-0.287314
H62	H	1.043335	-0.906054	-0.469238
F63	F	1.322130	-0.911664	-0.291504
F64	F	1.221519	-1.099443	-0.190711
F65	F	0.593003	-0.367232	-0.274786
F66	F	0.845854	-0.367209	-0.274763
F67	F	1.318229	-1.104794	-0.298727
F68	F	1.214241	-0.906305	-0.194651
H69	H	1.225626	-0.384103	-0.677866
H70	H	1.043460	-0.627731	-1.079378
F71	F	1.238248	-0.367149	-1.089692
H72	H	1.043418	-0.627815	-0.826532
H73	H	1.225644	-0.384045	-0.826584
F74	F	1.030874	-0.644588	-0.920396
F75	F	1.030833	-0.644676	-0.667545
H76	H	0.434029	-0.384062	-0.287342
H77	H	0.835651	-0.628165	-0.469129
