data_functionalizedCrystal
_audit_creation_method	'MofGen! by Chris Wilmer'
_symmetry_space_group_name_H-M	'P1'
_symmetry_Int_Tables_number	1
_symmetry_cell_setting	triclinic
loop_
_symmetry_equiv_pos_as_xyz
  x,y,z
_cell_length_a	12.759401
_cell_length_b	17.077402
_cell_length_c	12.759393
_cell_angle_alpha	89.965312
_cell_angle_beta	89.979062
_cell_angle_gamma	90.024408
loop_
_atom_site_label
_atom_site_type_symbol
_atom_site_fract_x
_atom_site_fract_y
_atom_site_fract_z
Zn1	Zn	1.606207	-0.312438	-0.593990
Zn2	Zn	2.106207	0.187562	-0.093990
Zn3	Zn	1.606073	-0.443724	-0.418297
Zn4	Zn	2.106073	0.056276	0.081703
Zn5	Zn	1.430505	-0.312480	-0.418325
Zn6	Zn	1.930505	0.187520	0.081675
Zn7	Zn	1.430472	-0.443669	-0.593934
Zn8	Zn	1.930472	0.056331	-0.093934
O9	O	1.518314	-0.378078	-0.506136
O10	O	2.018314	0.121922	-0.006136
O11	O	1.753210	-0.329859	-0.570695
O12	O	2.253210	0.170141	-0.070695
O13	O	1.582741	-0.426355	-0.271279
O14	O	2.082741	0.073645	0.228721
O15	O	1.453882	-0.202628	-0.441662
O16	O	1.953882	0.297372	0.058338
O17	O	1.753111	-0.426314	-0.441614
O18	O	2.253111	0.073686	0.058386
O19	O	1.582969	-0.202597	-0.570722
O20	O	2.082969	0.297403	-0.070722
O21	O	1.453753	-0.329930	-0.271300
O22	O	1.953753	0.170070	0.228700
O23	O	1.283480	-0.329877	-0.441608
O24	O	1.783480	0.170123	0.058392
O25	O	1.453826	-0.426221	-0.740962
O26	O	1.953826	0.073779	-0.240962
O27	O	1.283456	-0.426261	-0.570627
O28	O	1.783456	0.073739	-0.070627
O29	O	1.582937	-0.329806	-0.741003
O30	O	2.082937	0.170194	-0.241003
O31	O	1.582709	-0.553564	-0.441560
O32	O	2.082709	-0.053564	0.058440
O33	O	1.453696	-0.553524	-0.570600
O34	O	1.953696	-0.053524	-0.070600
C35	C	1.245347	-0.378068	-0.506115
C36	C	1.745347	0.121932	-0.006115
C37	C	1.128570	-0.378083	-0.506131
C38	C	1.628570	0.121917	-0.006131
C39	C	1.518213	-0.582026	-0.506094
C40	C	2.018213	-0.082026	-0.006094
C41	C	1.518266	-0.669276	-0.506111
C42	C	2.018266	-0.169276	-0.006111
C43	C	1.073723	-0.428347	-0.573206
C44	C	1.573723	0.071653	-0.073206
C45	C	0.963999	-0.428350	-0.573227
C46	C	1.463999	0.071650	-0.073227
C47	C	0.963979	-0.327823	-0.439089
C48	C	1.463979	0.172177	0.060911
C49	C	1.073701	-0.327817	-0.439075
C50	C	1.573701	0.172183	0.060925
C51	C	1.585511	-0.710261	-0.438993
C52	C	2.085511	-0.210261	0.061007
C53	C	1.585563	-0.792241	-0.439019
C54	C	2.085563	-0.292241	0.060981
C55	C	1.518362	-0.833235	-0.506161
C56	C	2.018362	-0.333235	-0.006161
C57	C	1.451114	-0.792244	-0.573287
C58	C	1.951114	-0.292244	-0.073287
C59	C	1.451068	-0.710265	-0.573265
C60	C	1.951068	-0.210265	-0.073265
C61	C	1.451211	-0.963114	-0.573327
C62	C	1.951211	-0.463114	-0.073327
C63	C	1.451255	-1.045099	-0.573348
C64	C	1.951255	-0.545099	-0.073348
C65	C	1.585705	-1.045090	-0.439082
C66	C	2.085705	-0.545090	0.060918
C67	C	1.585660	-0.963111	-0.439059
C68	C	2.085660	-0.463111	0.060941
C69	C	1.518410	-0.922126	-0.506184
C70	C	2.018410	-0.422126	-0.006184
C71	C	1.792347	-0.378088	-0.506158
C72	C	2.292347	0.121912	-0.006158
C73	C	1.909124	-0.378093	-0.506167
C74	C	2.409124	0.121907	-0.006167
C75	C	1.518393	-0.378003	-0.780170
C76	C	2.018393	0.121997	-0.280170
C77	C	1.518426	-0.377971	-0.896946
C78	C	2.018426	0.122029	-0.396946
C79	C	1.518445	-0.173334	-0.506201
C80	C	2.018445	0.326666	-0.006201
C81	C	1.518500	-0.086084	-0.506229
C82	C	2.018500	0.413916	-0.006229
C83	C	1.585660	-0.327759	-0.951831
C84	C	2.085660	0.172241	-0.451831
C85	C	1.585677	-0.327725	-1.061555
C86	C	2.085677	0.172275	-0.561555
C87	C	1.451226	-0.428121	-1.061500
C88	C	1.951226	0.071879	-0.561500
C89	C	1.451203	-0.428150	-0.951778
C90	C	1.951203	0.071850	-0.451778
C91	C	1.518296	-0.378096	-0.233169
C92	C	2.018296	0.121904	0.266831
C93	C	1.518466	-0.377907	-0.116393
C94	C	2.018466	0.122093	0.383607
H95	H	1.118394	-0.469275	-0.627811
H96	H	1.618394	0.030725	-0.127811
H97	H	1.640320	-0.825608	-0.384364
H98	H	2.140320	-0.325608	0.115636
H99	H	1.640394	-0.286897	-0.907191
H100	H	2.140394	0.213103	-0.407191
Cl101	Cl	1.670142	-0.911577	-0.354652
Cl102	Cl	2.170142	-0.411577	0.145348
H103	H	1.640466	-1.078464	-0.384429
H104	H	2.140466	-0.578464	0.115571
Cl105	Cl	0.895053	-0.491540	-0.657555
Cl106	Cl	1.395053	0.008460	-0.157555
Cl107	Cl	0.894993	-0.264637	-0.354792
Cl108	Cl	1.394993	0.235363	0.145208
H109	H	1.118359	-0.286881	-0.384454
H110	H	1.618359	0.213119	0.115546
H111	H	1.640229	-0.676889	-0.384314
H112	H	2.140229	-0.176889	0.115686
Cl113	Cl	1.366639	-0.843780	-0.657700
Cl114	Cl	1.866639	-0.343780	-0.157700
H115	H	1.396497	-0.468977	-1.106157
H116	H	1.896497	0.031023	-0.606157
H117	H	1.396554	-1.078474	-0.628040
H118	H	1.896554	-0.578474	-0.128040
H119	H	1.396447	-0.469038	-0.907090
H120	H	1.896447	0.030962	-0.407090
H121	H	1.640424	-0.286837	-1.106238
H122	H	2.140424	0.213163	-0.606238
Cl123	Cl	1.366668	-0.911591	-0.657716
Cl124	Cl	1.866668	-0.411591	-0.157716
Cl125	Cl	1.366531	-0.658741	-0.657650
Cl126	Cl	1.866531	-0.158741	-0.157650
