data_functionalizedCrystal
_audit_creation_method	'MofGen! by Chris Wilmer'
_symmetry_space_group_name_H-M	'P1'
_symmetry_Int_Tables_number	1
_symmetry_cell_setting	triclinic
loop_
_symmetry_equiv_pos_as_xyz
  x,y,z
_cell_length_a	21.395361
_cell_length_b	12.759401
_cell_length_c	12.759393
_cell_angle_alpha	90.019837
_cell_angle_beta	89.960721
_cell_angle_gamma	89.967767
loop_
_atom_site_label
_atom_site_type_symbol
_atom_site_fract_x
_atom_site_fract_y
_atom_site_fract_z
Zn1	Zn	-0.249376	-1.606138	-0.593964
Zn2	Zn	0.250624	-1.106138	-0.093964
Zn3	Zn	-0.354168	-1.605983	-0.418261
Zn4	Zn	0.145832	-1.105983	0.081739
Zn5	Zn	-0.249411	-1.430440	-0.418299
Zn6	Zn	0.250589	-0.930440	0.081701
Zn7	Zn	-0.354122	-1.430380	-0.593898
Zn8	Zn	0.145878	-0.930380	-0.093898
O9	O	-0.301769	-1.518235	-0.506106
O10	O	0.198231	-1.018235	-0.006106
O11	O	-0.263281	-1.753139	-0.570668
O12	O	0.236719	-1.253139	-0.070668
O13	O	-0.340306	-1.582658	-0.271245
O14	O	0.159694	-1.082658	0.228755
O15	O	-0.161729	-1.453837	-0.441645
O16	O	0.338271	-0.953837	0.058355
O17	O	-0.340272	-1.753025	-0.441580
O18	O	0.159728	-1.253025	0.058420
O19	O	-0.161703	-1.582921	-0.570706
O20	O	0.338297	-1.082921	-0.070706
O21	O	-0.263341	-1.453687	-0.271273
O22	O	0.236659	-0.953687	0.228727
O23	O	-0.263297	-1.283411	-0.441581
O24	O	0.236703	-0.783411	0.058419
O25	O	-0.340193	-1.453734	-0.740928
O26	O	0.159807	-0.953734	-0.240928
O27	O	-0.340228	-1.283367	-0.570593
O28	O	0.159772	-0.783367	-0.070593
O29	O	-0.263237	-1.582863	-0.740977
O30	O	0.236763	-1.082863	-0.240977
O31	O	-0.441840	-1.582599	-0.441516
O32	O	0.058160	-1.082599	0.058484
O33	O	-0.441806	-1.453584	-0.570556
O34	O	0.058194	-0.953584	-0.070556
C35	C	-0.301762	-1.245268	-0.506085
C36	C	0.198238	-0.745268	-0.006085
C37	C	-0.301773	-1.128491	-0.506101
C38	C	0.198227	-0.628491	-0.006101
C39	C	-0.464557	-1.518097	-0.506047
C40	C	0.035443	-1.018097	-0.006047
C41	C	-0.534198	-1.518133	-0.506057
C42	C	-0.034198	-1.018133	-0.006057
C43	C	-0.301706	-1.518309	-0.780139
C44	C	0.198294	-1.018309	-0.280139
C45	C	-0.301679	-1.518340	-0.896916
C46	C	0.198321	-1.018340	-0.396916
C47	C	-0.566908	-1.585371	-0.438935
C48	C	-0.066908	-1.085371	0.061065
C49	C	-0.632343	-1.585420	-0.438958
C50	C	-0.132343	-1.085420	0.061042
C51	C	-0.665067	-1.518212	-0.506093
C52	C	-0.165067	-1.018212	-0.006093
C53	C	-0.632349	-1.450970	-0.573229
C54	C	-0.132349	-0.950970	-0.073229
C55	C	-0.566915	-1.450930	-0.573211
C56	C	-0.066915	-0.950930	-0.073211
C57	C	-0.768782	-1.423614	-0.514329
C58	C	-0.268782	-0.923614	-0.014329
C59	C	-0.834215	-1.423652	-0.514340
C60	C	-0.334215	-0.923652	-0.014340
C61	C	-0.866887	-1.518335	-0.506155
C62	C	-0.366887	-1.018335	-0.006155
C63	C	-0.834119	-1.612983	-0.497937
C64	C	-0.334119	-1.112983	0.002063
C65	C	-0.768685	-1.612943	-0.497919
C66	C	-0.268685	-1.112943	0.002081
C67	C	-0.736019	-1.518248	-0.506121
C68	C	-0.236019	-1.018248	-0.006121
C69	C	-0.970550	-1.585631	-0.439054
C70	C	-0.470550	-1.085631	0.060946
C71	C	-1.035986	-1.585682	-0.439085
C72	C	-0.535986	-1.085682	0.060915
C73	C	-1.035990	-1.451222	-0.573350
C74	C	-0.535990	-0.951222	-0.073350
C75	C	-0.970555	-1.451181	-0.573325
C76	C	-0.470555	-0.951181	-0.073325
C77	C	-0.937839	-1.518384	-0.506171
C78	C	-0.437839	-1.018384	-0.006171
C79	C	-0.138346	-1.518403	-0.506187
C80	C	0.361654	-1.018403	-0.006187
C81	C	-0.068705	-1.518475	-0.506222
C82	C	0.431295	-1.018475	-0.006222
C83	C	-0.301777	-1.792269	-0.506127
C84	C	0.198223	-1.292269	-0.006127
C85	C	-0.301781	-1.909045	-0.506136
C86	C	0.198219	-1.409045	-0.006136
C87	C	-0.341892	-1.073634	-0.573171
C88	C	0.158108	-0.573634	-0.073171
C89	C	-0.341895	-0.963910	-0.573192
C90	C	0.158105	-0.463910	-0.073192
C91	C	-0.261658	-0.963911	-0.439063
C92	C	0.238342	-0.463911	0.060937
C93	C	-0.261653	-1.073633	-0.439048
C94	C	0.238347	-0.573633	0.060952
C95	C	-0.261596	-1.451209	-0.951792
C96	C	0.238404	-0.951209	-0.451792
C97	C	-0.261577	-1.451233	-1.061516
C98	C	0.238423	-0.951233	-0.561516
C99	C	-0.341725	-1.585529	-1.061478
C100	C	0.158275	-1.085529	-0.561478
C101	C	-0.341747	-1.585498	-0.951756
C102	C	0.158253	-1.085498	-0.451756
C103	C	-0.301787	-1.518223	-0.233138
C104	C	0.198213	-1.018223	0.266862
C105	C	-0.301638	-1.518395	-0.116362
C106	C	0.198362	-1.018395	0.383638
H107	H	-0.540272	-1.640094	-0.384257
H108	H	-0.040272	-1.140094	0.115743
C109	C	-0.217526	-1.377324	-0.891472
C110	C	0.282474	-0.877324	-0.391472
N111	N	-0.184332	-1.321669	-0.846041
N112	N	0.315668	-0.821669	-0.346041
C113	C	-0.385832	-1.659371	-0.891389
C114	C	0.114168	-1.159371	-0.391389
N115	N	-0.419032	-1.715015	-0.845920
N116	N	0.080968	-1.215015	-0.345920
C117	C	-0.217531	-0.903556	-0.365303
C118	C	0.282469	-0.403556	0.134697
N119	N	-0.184294	-0.858097	-0.309743
N120	N	0.315706	-0.358097	0.190257
H121	H	-0.228938	-1.396568	-1.106192
H122	H	0.271062	-0.896568	-0.606192
C123	C	-0.668332	-1.659384	-0.365110
C124	C	-0.168332	-1.159384	0.134890
N125	N	-0.695436	-1.715092	-0.309485
N126	N	-0.195436	-1.215092	0.190515
H127	H	-0.540282	-1.396176	-0.627871
H128	H	-0.040282	-0.896176	-0.127871
H129	H	-0.374346	-1.640208	-1.106142
H130	H	0.125654	-1.140208	-0.606142
H131	H	-0.742006	-1.690008	-0.491231
H132	H	-0.242006	-1.190008	0.008769
C133	C	-1.071982	-1.377295	-0.647201
C134	C	-0.571982	-0.877295	-0.147201
N135	N	-1.099094	-1.321612	-0.702830
N136	N	-0.599094	-0.821612	-0.202830
H137	H	-0.860719	-1.690083	-0.491272
H138	H	-0.360719	-1.190083	0.008728
H139	H	-0.943911	-1.640356	-0.384377
H140	H	-0.443911	-1.140356	0.115623
H141	H	-1.062617	-1.640442	-0.384428
H142	H	-0.562617	-1.140442	0.115572
H143	H	-0.860890	-1.346583	-0.521021
H144	H	-0.360890	-0.846583	-0.021021
C145	C	-0.732848	-1.319446	-0.523309
C146	C	-0.232848	-0.819446	-0.023309
N147	N	-0.705784	-1.240989	-0.530063
N148	N	-0.205784	-0.740989	-0.030063
C149	C	-0.934573	-1.377234	-0.647187
C150	C	-0.434573	-0.877234	-0.147187
N151	N	-0.907471	-1.321546	-0.702836
N152	N	-0.407471	-0.821546	-0.202836
C153	C	-0.217517	-1.133980	-0.365261
C154	C	0.282483	-0.633980	0.134739
N155	N	-0.184274	-1.179433	-0.309688
N156	N	0.315726	-0.679433	0.190312
H157	H	-0.658996	-1.396251	-0.627892
H158	H	-0.158996	-0.896251	-0.127892
H159	H	-0.374563	-0.919249	-0.627809
H160	H	0.125437	-0.419249	-0.127809
C161	C	-0.386022	-1.133974	-0.646939
C162	C	0.113978	-0.633974	-0.146939
N163	N	-0.419259	-1.179420	-0.702506
N164	N	0.080741	-0.679420	-0.202506
