data_functionalizedCrystal
_audit_creation_method	'MofGen! by Chris Wilmer'
_symmetry_space_group_name_H-M	'P1'
_symmetry_Int_Tables_number	1
_symmetry_cell_setting	triclinic
loop_
_symmetry_equiv_pos_as_xyz
  x,y,z
_cell_length_a	21.395364
_cell_length_b	12.759399
_cell_length_c	12.759393
_cell_angle_alpha	90.026805
_cell_angle_beta	90.023491
_cell_angle_gamma	90.030951
loop_
_atom_site_label
_atom_site_type_symbol
_atom_site_fract_x
_atom_site_fract_y
_atom_site_fract_z
Zn1	Zn	-0.957920	0.417747	-0.594119
Zn2	Zn	-0.957856	0.593463	-0.418450
Zn3	Zn	-0.853138	0.417850	-0.418446
Zn4	Zn	-0.853134	0.593436	-0.594080
O5	O	-0.905512	0.505624	-0.506274
O6	O	-1.045589	0.441025	-0.570834
O7	O	-0.943939	0.570221	-0.271429
O8	O	-0.867066	0.270815	-0.441764
O9	O	-1.045542	0.570122	-0.441771
O10	O	-0.944049	0.270740	-0.570830
O11	O	-0.867004	0.441199	-0.271426
O12	O	-0.765460	0.441173	-0.441726
O13	O	-0.867059	0.570076	-0.741106
O14	O	-0.765457	0.570176	-0.570763
O15	O	-0.944045	0.440999	-0.741135
O16	O	-0.943936	0.740480	-0.441733
O17	O	-0.866997	0.740461	-0.570767
C18	C	-0.742724	0.505683	-0.506241
C19	C	-0.673083	0.505734	-0.506251
C20	C	-0.640417	0.438625	-0.573558
C21	C	-0.574981	0.438600	-0.573560
C22	C	-0.542215	0.505704	-0.506268
C23	C	-0.574889	0.572818	-0.438948
C24	C	-0.640323	0.572833	-0.438940
C25	C	-0.438507	0.600326	-0.497832
C26	C	-0.373074	0.600313	-0.497848
C27	C	-0.340394	0.505656	-0.506287
C28	C	-0.373155	0.411010	-0.514732
C29	C	-0.438589	0.411025	-0.514724
C30	C	-0.471262	0.505694	-0.506269
C31	C	-0.236775	0.438514	-0.573599
C32	C	-0.171339	0.438488	-0.573595
C33	C	-0.171247	0.572715	-0.438988
C34	C	-0.236683	0.572732	-0.438987
C35	C	-0.269443	0.505633	-0.506299
C36	C	-0.905476	0.778591	-0.506269
C37	C	-0.905518	0.895368	-0.506303
C38	C	-0.905559	0.505523	-0.780307
C39	C	-0.905579	0.505480	-0.897084
C40	C	-0.068935	0.505578	-0.506302
C41	C	-0.138576	0.505591	-0.506300
C42	C	-0.945626	0.950205	-0.439195
C43	C	-0.945667	1.059929	-0.439238
C44	C	-0.865487	1.059969	-0.573500
C45	C	-0.865449	0.950247	-0.573461
C46	C	-0.905567	1.231591	-0.506319
C47	C	-0.905597	1.114814	-0.506384
C48	C	-0.945668	0.438259	-0.951963
C49	C	-0.945679	0.438213	-1.061687
C50	C	-0.865509	0.572620	-1.061644
C51	C	-0.865495	0.572659	-0.951922
C52	C	-0.905501	0.505649	-0.233306
C53	C	-0.905603	0.505396	-0.116530
H54	H	-0.346549	0.333932	-0.521604
H55	H	-0.465261	0.333961	-0.521598
Cl56	Cl	-0.815125	0.657075	-1.130590
Cl57	Cl	-0.996093	1.128863	-0.354873
H58	H	-0.548206	0.627453	-0.384157
Cl59	Cl	-0.277962	0.354156	-0.658209
Cl60	Cl	-0.815090	0.657167	-0.882926
H61	H	-0.144743	0.383833	-0.628402
H62	H	-0.978253	0.905525	-0.384512
Cl63	Cl	-0.681597	0.354269	-0.658175
H64	H	-0.978322	0.383473	-1.106364
H65	H	-0.832863	1.104665	-0.628176
H66	H	-0.548379	0.383946	-0.628367
H67	H	-0.832788	0.905595	-0.628113
H68	H	-0.144569	0.627352	-0.384197
Cl69	Cl	-0.681391	0.657204	-0.354317
H70	H	-0.978305	0.383554	-0.907317
H71	H	-0.263280	0.627384	-0.384184
Cl72	Cl	-0.479583	0.719334	-0.487208
H73	H	-0.346405	0.677379	-0.490976
