data_functionalizedCrystal
_audit_creation_method	'MofGen! by Chris Wilmer'
_symmetry_space_group_name_H-M	'P1'
_symmetry_Int_Tables_number	1
_symmetry_cell_setting	triclinic
loop_
_symmetry_equiv_pos_as_xyz
  x,y,z
_cell_length_a	17.077404
_cell_length_b	21.395362
_cell_length_c	17.077396
_cell_angle_alpha	90.032289
_cell_angle_beta	90.019501
_cell_angle_gamma	90.030016
loop_
_atom_site_label
_atom_site_type_symbol
_atom_site_fract_x
_atom_site_fract_y
_atom_site_fract_z
Zn1	Zn	1.200017	-0.249435	0.443822
Zn2	Zn	1.700017	0.250565	0.943822
Zn3	Zn	1.199908	-0.354216	0.312547
Zn4	Zn	1.699908	0.145784	0.812547
Zn5	Zn	1.068749	-0.249457	0.312570
Zn6	Zn	1.568749	0.250543	0.812570
Zn7	Zn	1.068701	-0.354179	0.443771
Zn8	Zn	1.568701	0.145821	0.943771
O9	O	1.134344	-0.301822	0.378177
O10	O	1.634344	0.198178	0.878177
O11	O	1.309849	-0.263341	0.426420
O12	O	1.809849	0.236659	0.926420
O13	O	1.182484	-0.340344	0.202703
O14	O	1.682484	0.159656	0.702703
O15	O	1.086227	-0.161776	0.330012
O16	O	1.586227	0.338224	0.830012
O17	O	1.309770	-0.340323	0.329973
O18	O	1.809770	0.159677	0.829973
O19	O	1.182669	-0.161760	0.426442
O20	O	1.682669	0.338240	0.926442
O21	O	1.086122	-0.263378	0.202720
O22	O	1.586122	0.236622	0.702720
O23	O	0.958896	-0.263342	0.329962
O24	O	1.458896	0.236658	0.829962
O25	O	1.086146	-0.340260	0.553625
O26	O	1.586146	0.159740	1.053625
O27	O	0.958860	-0.340281	0.426355
O28	O	1.458860	0.159719	0.926355
O29	O	1.182623	-0.263305	0.553662
O30	O	1.682623	0.236695	1.053662
O31	O	1.182438	-0.441889	0.329923
O32	O	1.682438	0.058111	0.829923
O33	O	1.086040	-0.441862	0.426333
O34	O	1.586040	0.058138	0.926333
C35	C	0.930396	-0.301810	0.378156
C36	C	1.430396	0.198190	0.878156
C37	C	0.843146	-0.301820	0.378165
C38	C	1.343146	0.198180	0.878165
C39	C	0.802158	-0.341943	0.428276
C40	C	1.302158	0.158057	0.928276
C41	C	0.720178	-0.341944	0.428289
C42	C	1.220178	0.158056	0.928289
C43	C	0.679187	-0.301826	0.378186
C44	C	1.179187	0.198174	0.878186
C45	C	0.720180	-0.261699	0.328072
C46	C	1.220180	0.238301	0.828072
C47	C	0.802159	-0.261695	0.328064
C48	C	1.302159	0.238305	0.828064
C49	C	0.549310	-0.261711	0.328091
C50	C	1.049310	0.238289	0.828091
C51	C	0.467326	-0.261716	0.328098
C52	C	0.967326	0.238284	0.828098
C53	C	0.467329	-0.341961	0.428316
C54	C	0.967329	0.158039	0.928316
C55	C	0.549308	-0.341957	0.428308
C56	C	1.049308	0.158043	0.928308
C57	C	0.590296	-0.301830	0.378193
C58	C	1.090296	0.198170	0.878193
C59	C	1.134243	-0.464609	0.378137
C60	C	1.634243	0.035391	0.878137
C61	C	1.134272	-0.534251	0.378146
C62	C	1.634272	-0.034251	0.878146
C63	C	1.184461	-0.566898	0.428393
C64	C	1.684461	-0.066898	0.928393
C65	C	1.184488	-0.632334	0.428412
C66	C	1.684488	-0.132334	0.928412
C67	C	1.134336	-0.665119	0.378171
C68	C	1.634336	-0.165119	0.878171
C69	C	1.084137	-0.632463	0.327920
C70	C	1.584137	-0.132463	0.827920
C71	C	1.084106	-0.567029	0.327908
C72	C	1.584106	-0.067029	0.827908
C73	C	1.128232	-0.768831	0.307461
C74	C	1.628232	-0.268831	0.807461
C75	C	1.128269	-0.834264	0.307472
C76	C	1.628269	-0.334264	0.807472
C77	C	1.134429	-0.866940	0.378209
C78	C	1.634429	-0.366940	0.878209
C79	C	1.140568	-0.834174	0.448936
C80	C	1.640568	-0.334174	0.948936
C81	C	1.140537	-0.768740	0.448924
C82	C	1.640537	-0.268740	0.948924
C83	C	1.134364	-0.736071	0.378178
C84	C	1.634364	-0.236071	0.878178
C85	C	1.184650	-0.970540	0.428481
C86	C	1.684650	-0.470540	0.928481
C87	C	1.184672	-1.035976	0.428501
C88	C	1.684672	-0.535976	0.928501
C89	C	1.084325	-1.036105	0.328002
C90	C	1.584325	-0.536105	0.828002
C91	C	1.084299	-0.970669	0.327988
C92	C	1.584299	-0.470669	0.827988
C93	C	1.134466	-0.937891	0.378227
C94	C	1.634466	-0.437891	0.878227
C95	C	1.339088	-0.301833	0.378200
C96	C	1.839088	0.198167	0.878200
C97	C	1.426338	-0.301839	0.378209
C98	C	1.926338	0.198161	0.878209
C99	C	1.134391	-0.301775	0.582922
C100	C	1.634391	0.198225	1.082922
C101	C	1.134411	-0.301756	0.670172
C102	C	1.634411	0.198244	1.170172
C103	C	1.134466	-0.138398	0.378235
C104	C	1.634466	0.361602	0.878235
C105	C	1.134518	-0.068757	0.378260
C106	C	1.634518	0.431243	0.878260
C107	C	1.134342	-0.301822	0.174230
C108	C	1.634342	0.198178	0.674230
C109	C	1.134473	-0.301666	0.086980
C110	C	1.634473	0.198334	0.586980
C111	C	1.184649	-0.261682	0.711183
C112	C	1.684649	0.238318	1.211183
C113	C	1.184658	-0.261661	0.793163
C114	C	1.684658	0.238339	1.293163
C115	C	1.134434	-0.301718	0.834131
C116	C	1.634434	0.198282	1.334131
C117	C	1.084191	-0.341793	0.793114
C118	C	1.584191	0.158207	1.293114
C119	C	1.084178	-0.341811	0.711135
C120	C	1.584178	0.158189	1.211135
C121	C	1.084222	-0.341756	0.963985
C122	C	1.584222	0.158244	1.463985
C123	C	1.084236	-0.341739	1.045969
C124	C	1.584236	0.158261	1.545969
C125	C	1.184703	-0.261606	1.046012
C126	C	1.684703	0.238394	1.546012
C127	C	1.184690	-0.261623	0.964033
C128	C	1.684690	0.238377	1.464033
C129	C	1.134448	-0.301700	0.923022
C130	C	1.634448	0.198300	1.423022
H131	H	1.225308	-0.540212	0.469302
H132	H	1.725308	-0.040212	0.969302
H133	H	0.582680	-0.374628	0.469102
H134	H	1.082680	0.125372	0.969102
H135	H	0.686809	-0.374617	0.469094
H136	H	1.186809	0.125383	0.969094
Br137	Br	0.604937	-0.207252	0.260080
Br138	Br	1.104937	0.292748	0.760080
Br139	Br	1.016254	-1.080591	0.259819
Br140	Br	1.516254	-0.580591	0.759819
Br141	Br	0.857781	-0.396397	0.496272
Br142	Br	1.357781	0.103603	0.996272
Br143	Br	1.016033	-0.396144	0.908327
Br144	Br	1.516033	0.103856	1.408327
Br145	Br	0.411704	-0.396410	0.496339
Br146	Br	0.911704	0.103590	0.996339
H147	H	0.433953	-0.229041	0.287309
H148	H	0.933953	0.270959	0.787309
H149	H	0.686799	-0.229031	0.287281
H150	H	1.186799	0.270969	0.787281
Br151	Br	1.016180	-0.926358	0.259794
Br152	Br	1.516180	-0.426358	0.759794
Br153	Br	1.252860	-0.207266	0.908434
Br154	Br	1.752860	0.292734	1.408434
H155	H	1.043337	-0.374356	1.079323
H156	H	1.543337	0.125644	1.579323
Br157	Br	1.252892	-0.207219	1.101669
Br158	Br	1.752892	0.292781	1.601669
H159	H	1.225569	-0.229030	0.826551
H160	H	1.725569	0.270970	1.326551
H161	H	0.835531	-0.229020	0.287263
H162	H	1.335531	0.270980	0.787263
Br163	Br	1.148864	-0.724275	0.544906
Br164	Br	1.648864	-0.224275	1.044906
H165	H	1.225352	-0.658921	0.469339
H166	H	1.725352	-0.158921	0.969339
H167	H	1.043261	-0.374436	0.677745
H168	H	1.543261	0.125564	1.177745
Br169	Br	1.148936	-0.878511	0.544942
Br170	Br	1.648936	-0.378511	1.044942
H171	H	1.225496	-0.943851	0.469390
H172	H	1.725496	-0.443851	0.969390
H173	H	1.225542	-1.062557	0.469422
H174	H	1.725542	-0.562557	0.969422
Br175	Br	1.119947	-0.878724	0.211486
Br176	Br	1.619947	-0.378724	0.711486
H177	H	1.123212	-0.742231	0.249856
H178	H	1.623212	-0.242231	0.749856
H179	H	1.043301	-0.659161	0.287014
H180	H	1.543301	-0.159161	0.787014
H181	H	1.043235	-0.540447	0.286990
H182	H	1.543235	-0.040447	0.786990
Br183	Br	1.252821	-0.207321	0.655591
Br184	Br	1.752821	0.292679	1.155591
H185	H	1.043294	-0.374406	0.826477
H186	H	1.543294	0.125594	1.326477
