data_functionalizedCrystal
_audit_creation_method	'MofGen! by Chris Wilmer'
_symmetry_space_group_name_H-M	'P1'
_symmetry_Int_Tables_number	1
_symmetry_cell_setting	triclinic
loop_
_symmetry_equiv_pos_as_xyz
  x,y,z
_cell_length_a	12.759401
_cell_length_b	11.169416
_cell_length_c	11.169409
_cell_angle_alpha	89.968635
_cell_angle_beta	89.978635
_cell_angle_gamma	90.011674
loop_
_atom_site_label
_atom_site_type_symbol
_atom_site_fract_x
_atom_site_fract_y
_atom_site_fract_z
Zn1	Zn	1.606304	-0.477661	-0.678600
Zn2	Zn	2.106304	0.022339	-0.178600
Zn3	Zn	1.606208	-0.678402	-0.477921
Zn4	Zn	2.106208	-0.178402	0.022079
Zn5	Zn	1.430601	-0.477737	-0.477929
Zn6	Zn	1.930601	0.022263	0.022071
Zn7	Zn	1.430609	-0.678306	-0.678560
Zn8	Zn	1.930609	-0.178306	-0.178560
O9	O	1.518430	-0.578026	-0.578252
O10	O	2.018430	-0.078026	-0.078252
O11	O	1.753312	-0.504298	-0.651993
O12	O	2.253312	-0.004298	-0.151993
O13	O	1.582870	-0.651854	-0.309972
O14	O	2.082870	-0.151854	0.190028
O15	O	1.453946	-0.309777	-0.504569
O16	O	1.953946	0.190223	-0.004569
O17	O	1.753242	-0.651781	-0.504554
O18	O	2.253242	-0.151781	-0.004554
O19	O	1.583034	-0.309721	-0.652001
O20	O	2.083034	0.190279	-0.152001
O21	O	1.453853	-0.504427	-0.309978
O22	O	1.953853	-0.004427	0.190022
O23	O	1.283581	-0.504334	-0.504530
O24	O	1.783581	-0.004334	-0.004530
O25	O	1.453958	-0.651619	-0.846515
O26	O	1.953958	-0.151619	-0.346515
O27	O	1.283587	-0.651692	-0.651933
O28	O	1.783587	-0.151692	-0.151933
O29	O	1.583041	-0.504206	-0.846545
O30	O	2.083041	-0.004206	-0.346545
O31	O	1.582877	-0.846339	-0.504515
O32	O	2.082877	-0.346339	-0.004515
O33	O	1.453865	-0.846269	-0.651924
O34	O	1.953865	-0.346269	-0.151924
C35	C	1.245463	-0.578012	-0.578229
C36	C	1.745463	-0.078012	-0.078229
C37	C	1.128686	-0.578034	-0.578247
C38	C	1.628686	-0.078034	-0.078247
C39	C	1.073855	-0.654880	-0.654879
C40	C	1.573855	-0.154880	-0.154879
C41	C	0.964131	-0.654885	-0.654902
C42	C	1.464131	-0.154885	-0.154902
C43	C	0.964080	-0.501194	-0.501652
C44	C	1.464080	-0.001194	-0.001652
C45	C	1.073802	-0.501184	-0.501636
C46	C	1.573802	-0.001184	-0.001636
C47	C	1.518390	-0.889851	-0.578241
C48	C	2.018390	-0.389851	-0.078241
C49	C	1.518468	-1.023251	-0.578276
C50	C	2.018468	-0.523251	-0.078276
C51	C	1.792464	-0.578042	-0.578277
C52	C	2.292464	-0.078042	-0.078277
C53	C	1.909240	-0.578049	-0.578288
C54	C	2.409240	-0.078049	-0.078288
C55	C	1.518511	-0.577893	-0.891295
C56	C	2.018511	-0.077893	-0.391295
C57	C	1.518545	-0.577836	-1.024695
C58	C	2.018545	-0.077836	-0.524695
C59	C	1.518500	-0.264984	-0.578291
C60	C	2.018500	0.235016	-0.078291
C61	C	1.518530	-0.131584	-0.578307
C62	C	2.018530	0.368416	-0.078307
C63	C	1.518411	-0.578073	-0.266428
C64	C	2.018411	-0.078073	0.233572
C65	C	1.518580	-0.577791	-0.133028
C66	C	2.018580	-0.077791	0.366972
H67	H	0.919379	-0.438628	-0.439276
H68	H	1.419379	0.061372	0.060724
H69	H	1.118539	-0.717453	-0.717264
H70	H	1.618539	-0.217453	-0.217264
Br71	Br	0.889720	-0.759175	-0.758913
Br72	Br	1.389720	-0.259175	-0.258913
H73	H	1.118447	-0.438600	-0.439233
H74	H	1.618447	0.061400	0.060767
