data_functionalizedCrystal
_audit_creation_method	'MofGen! by Chris Wilmer'
_symmetry_space_group_name_H-M	'P1'
_symmetry_Int_Tables_number	1
_symmetry_cell_setting	triclinic
loop_
_symmetry_equiv_pos_as_xyz
  x,y,z
_cell_length_a	17.077404
_cell_length_b	17.077402
_cell_length_c	17.077396
_cell_angle_alpha	90.029784
_cell_angle_beta	90.019501
_cell_angle_gamma	90.023108
loop_
_atom_site_label
_atom_site_type_symbol
_atom_site_fract_x
_atom_site_fract_y
_atom_site_fract_z
Zn1	Zn	1.200055	-0.312503	0.443836
Zn2	Zn	1.533388	0.020830	0.777169
Zn3	Zn	1.866721	0.354163	1.110502
Zn4	Zn	1.199962	-0.443778	0.312567
Zn5	Zn	1.533295	-0.110445	0.645900
Zn6	Zn	1.866628	0.222888	0.979233
Zn7	Zn	1.068786	-0.312531	0.312584
Zn8	Zn	1.402120	0.020802	0.645917
Zn9	Zn	1.735453	0.354136	0.979250
Zn10	Zn	1.068754	-0.443732	0.443790
Zn11	Zn	1.402088	-0.110398	0.777124
Zn12	Zn	1.735421	0.222935	1.110457
O13	O	1.134389	-0.378136	0.378194
O14	O	1.467723	-0.044803	0.711527
O15	O	1.801056	0.288531	1.044861
O16	O	1.309889	-0.329925	0.426434
O17	O	1.643223	0.003408	0.759768
O18	O	1.976556	0.336741	1.093101
O19	O	1.182536	-0.426399	0.202722
O20	O	1.515869	-0.093066	0.536055
O21	O	1.849202	0.240268	0.869389
O22	O	1.086252	-0.202680	0.330021
O23	O	1.419585	0.130653	0.663354
O24	O	1.752918	0.463986	0.996687
O25	O	1.309821	-0.426372	0.329992
O26	O	1.643154	-0.093039	0.663325
O27	O	1.976488	0.240294	0.996658
O28	O	1.182694	-0.202660	0.426451
O29	O	1.516027	0.130673	0.759784
O30	O	1.849361	0.464007	1.093118
O31	O	1.086162	-0.329972	0.202734
O32	O	1.419495	0.003361	0.536068
O33	O	1.752828	0.336694	0.869401
O34	O	0.958935	-0.329927	0.329976
O35	O	1.292269	0.003406	0.663310
O36	O	1.625602	0.336740	0.996643
O37	O	1.086197	-0.426293	0.553643
O38	O	1.419531	-0.092960	0.886977
O39	O	1.752864	0.240374	1.220310
O40	O	0.958912	-0.426320	0.426373
O41	O	1.292245	-0.092986	0.759707
O42	O	1.625578	0.240347	1.093040
O43	O	1.182663	-0.329880	0.553677
O44	O	1.515996	0.003453	0.887010
O45	O	1.849330	0.336787	1.220343
O46	O	1.182505	-0.553619	0.329948
O47	O	1.515838	-0.220286	0.663281
O48	O	1.849171	0.113048	0.996614
O49	O	1.086107	-0.553585	0.426357
O50	O	1.419440	-0.220251	0.759690
O51	O	1.752774	0.113082	1.093024
C52	C	0.930441	-0.378122	0.378172
C53	C	1.263775	-0.044789	0.711506
C54	C	1.597108	0.288545	1.044839
C55	C	0.843192	-0.378135	0.378182
C56	C	1.176525	-0.044801	0.711515
C57	C	1.509858	0.288532	1.044848
C58	C	1.134314	-0.582084	0.378163
C59	C	1.467647	-0.248751	0.711496
C60	C	1.800980	0.084583	1.044829
C61	C	1.134353	-0.669334	0.378176
C62	C	1.467686	-0.336000	0.711509
C63	C	1.801020	-0.002667	1.044842
C64	C	0.802210	-0.428402	0.428295
C65	C	1.135543	-0.095069	0.761628
C66	C	1.468876	0.238265	1.094962
C67	C	0.720229	-0.428404	0.428308
C68	C	1.053563	-0.095070	0.761641
C69	C	1.386896	0.238263	1.094974
C70	C	0.679232	-0.378141	0.378202
C71	C	1.012566	-0.044808	0.711536
C72	C	1.345899	0.288525	1.044869
C73	C	0.720220	-0.327869	0.328087
C74	C	1.053553	0.005465	0.661420
C75	C	1.386887	0.338798	0.994753
C76	C	0.802199	-0.327863	0.328079
C77	C	1.135532	0.005470	0.661412
C78	C	1.468865	0.338803	0.994745
C79	C	0.549350	-0.327884	0.328106
C80	C	0.882683	0.005449	0.661439
C81	C	1.216016	0.338783	0.994772
C82	C	0.467365	-0.327890	0.328112
C83	C	0.800699	0.005443	0.661446
C84	C	1.134032	0.338777	0.994779
C85	C	0.467380	-0.428424	0.428335
C86	C	0.800714	-0.095091	0.761668
C87	C	1.134047	0.238242	1.095001
C88	C	0.549359	-0.428419	0.428327
C89	C	0.882693	-0.095086	0.761660
C90	C	1.216026	0.238247	1.094993
C91	C	0.590341	-0.378147	0.378210
C92	C	0.923675	-0.044814	0.711543
C93	C	1.257008	0.288520	1.044876
C94	C	1.184598	-0.710316	0.328029
C95	C	1.517932	-0.376982	0.661362
C96	C	1.851265	-0.043649	0.994696
C97	C	1.184637	-0.792296	0.328049
C98	C	1.517970	-0.458963	0.661382
C99	C	1.851303	-0.125629	0.994716
C100	C	1.134425	-0.833293	0.378212
C101	C	1.467759	-0.499960	0.711546
C102	C	1.801092	-0.166626	1.044879
C103	C	1.084178	-0.792305	0.428364
C104	C	1.417511	-0.458972	0.761698
C105	C	1.750844	-0.125639	1.095031
C106	C	1.084144	-0.710327	0.428348
C107	C	1.417477	-0.376993	0.761681
C108	C	1.750810	-0.043660	1.095014
C109	C	1.084250	-0.963175	0.428394
C110	C	1.417584	-0.629842	0.761727
C111	C	1.750917	-0.296509	1.095061
C112	C	1.084283	-1.045160	0.428410
C113	C	1.417616	-0.711827	0.761743
C114	C	1.750950	-0.378493	1.095076
C115	C	1.184743	-1.045145	0.328096
C116	C	1.518077	-0.711812	0.661429
C117	C	1.851410	-0.378478	0.994762
C118	C	1.184709	-0.963166	0.328079
C119	C	1.518043	-0.629833	0.661412
C120	C	1.851376	-0.296499	0.994746
C121	C	1.134461	-0.922184	0.378230
C122	C	1.467794	-0.588851	0.711563
C123	C	1.801127	-0.255517	1.044897
C124	C	1.339134	-0.378151	0.378216
C125	C	1.672467	-0.044818	0.711550
C126	C	2.005800	0.288516	1.044883
C127	C	1.426383	-0.378157	0.378226
C128	C	1.759717	-0.044824	0.711559
C129	C	2.093050	0.288509	1.044892
C130	C	1.134437	-0.378078	0.582938
C131	C	1.467770	-0.044745	0.916272
C132	C	1.801103	0.288588	1.249605
C133	C	1.134457	-0.378054	0.670188
C134	C	1.467790	-0.044720	1.003522
C135	C	1.801124	0.288613	1.336855
C136	C	1.134487	-0.173392	0.378243
C137	C	1.467820	0.159942	0.711576
C138	C	1.801153	0.493275	1.044909
C139	C	1.134528	-0.086142	0.378263
C140	C	1.467862	0.247191	0.711597
C141	C	1.801195	0.580525	1.044930
C142	C	1.134387	-0.378137	0.174246
C143	C	1.467721	-0.044804	0.507579
C144	C	1.801054	0.288530	0.840913
C145	C	1.134519	-0.377941	0.086997
C146	C	1.467852	-0.044607	0.420330
C147	C	1.801186	0.288726	0.753663
C148	C	1.184689	-0.327847	0.711197
C149	C	1.518022	0.005486	1.044530
C150	C	1.851355	0.338819	1.377864
C151	C	1.184698	-0.327821	0.793178
C152	C	1.518031	0.005512	1.126511
C153	C	1.851365	0.338846	1.459844
C154	C	1.134479	-0.378006	0.834148
C155	C	1.467813	-0.044673	1.167481
C156	C	1.801146	0.288661	1.500814
C157	C	1.084242	-0.428214	0.793133
C158	C	1.417576	-0.094881	1.126467
C159	C	1.750909	0.238452	1.459800
C160	C	1.084229	-0.428236	0.711154
C161	C	1.417563	-0.094903	1.044488
C162	C	1.750896	0.238431	1.377821
C163	C	1.084274	-0.428167	0.964003
C164	C	1.417607	-0.094834	1.297337
C165	C	1.750941	0.238499	1.630670
C166	C	1.084288	-0.428147	1.045988
C167	C	1.417621	-0.094814	1.379321
C168	C	1.750954	0.238520	1.712655
C169	C	1.184742	-0.327752	1.046027
C170	C	1.518076	0.005581	1.379360
C171	C	1.851409	0.338914	1.712693
C172	C	1.184730	-0.327774	0.964048
C173	C	1.518063	0.005559	1.297381
C174	C	1.851396	0.338893	1.630714
C175	C	1.134493	-0.377984	0.923039
C176	C	1.467827	-0.044650	1.256372
C177	C	1.801160	0.288683	1.589705
H178	H	0.835584	-0.469334	0.469094
H179	H	1.168917	-0.136001	0.802428
H180	H	1.502250	0.197333	1.135761
H181	H	1.043354	-0.469041	0.930616
H182	H	1.376687	-0.135708	1.263950
H183	H	1.710021	0.197626	1.597283
F184	F	0.845814	-0.274361	0.274743
F185	F	1.179148	0.058973	0.608076
F186	F	1.512481	0.392306	0.941409
F187	F	1.238188	-0.274412	0.836819
F188	F	1.571522	0.058922	1.170152
F189	F	1.904855	0.392255	1.503485
F190	F	0.676617	-0.481905	0.481646
F191	F	1.009950	-0.148572	0.814979
F192	F	1.343284	0.184762	1.148312
H193	H	1.043318	-0.469111	0.677766
H194	H	1.376651	-0.135778	1.011099
H195	H	1.709985	0.197555	1.344433
F196	F	1.238037	-0.666691	0.274633
F197	F	1.571370	-0.333357	0.607966
F198	F	1.904703	-0.000024	0.941299
H199	H	0.582737	-0.469352	0.469122
H200	H	0.916070	-0.136018	0.802456
H201	H	1.249404	0.197315	1.135789
F202	F	0.423764	-0.481919	0.481682
F203	F	0.757097	-0.148586	0.815015
F204	F	1.090430	0.184748	1.148348
H205	H	1.043393	-0.469010	1.079344
H206	H	1.376727	-0.135677	1.412677
H207	H	1.710060	0.197657	1.746010
F208	F	0.423735	-0.274398	0.274782
F209	F	0.757068	0.058935	0.608115
F210	F	1.090401	0.392268	0.941448
H211	H	1.043411	-1.078538	0.469272
H212	H	1.376744	-0.745204	0.802605
H213	H	1.710078	-0.411871	1.135938
F214	F	1.238149	-0.919536	0.274689
F215	F	1.571483	-0.586202	0.608022
F216	F	1.904816	-0.252869	0.941356
H217	H	1.043335	-0.929811	0.469235
H218	H	1.376668	-0.596477	0.802569
H219	H	1.710002	-0.263144	1.135902
H220	H	1.043350	-0.469073	0.826498
H221	H	1.376684	-0.135740	1.159831
H222	H	1.710017	0.197594	1.493164
F223	F	0.592964	-0.274377	0.274766
F224	F	0.926297	0.058956	0.608100
F225	F	1.259631	0.392289	0.941433
H226	H	1.225660	-1.078516	0.287263
H227	H	1.558994	-0.745183	0.620596
H228	H	1.892327	-0.411850	0.953930
H229	H	1.043298	-0.825692	0.469211
H230	H	1.376631	-0.492358	0.802545
H231	H	1.709964	-0.159025	1.135878
H232	H	1.043230	-0.676960	0.469183
H233	H	1.376563	-0.343626	0.802516
H234	H	1.709897	-0.010293	1.135850
H235	H	1.225585	-0.286983	0.677845
H236	H	1.558918	0.046350	1.011178
H237	H	1.892252	0.379683	1.344512
H238	H	0.686834	-0.286941	0.287293
H239	H	1.020167	0.046393	0.620627
H240	H	1.353500	0.379726	0.953960
H241	H	1.225627	-0.286913	0.930692
H242	H	1.558960	0.046420	1.264025
H243	H	1.892293	0.379753	1.597359
F244	F	1.238209	-0.274316	1.089672
F245	F	1.571542	0.059018	1.423005
F246	F	1.904875	0.392351	1.756339
F247	F	1.238117	-0.835909	0.274678
F248	F	1.571450	-0.502575	0.608012
F249	F	1.904784	-0.169242	0.941345
