data_functionalizedCrystal
_audit_creation_method	'MofGen! by Chris Wilmer'
_symmetry_space_group_name_H-M	'P1'
_symmetry_Int_Tables_number	1
_symmetry_cell_setting	triclinic
loop_
_symmetry_equiv_pos_as_xyz
  x,y,z
_cell_length_a	12.759400
_cell_length_b	12.759401
_cell_length_c	12.759393
_cell_angle_alpha	90.019508
_cell_angle_beta	89.968436
_cell_angle_gamma	89.987107
loop_
_atom_site_label
_atom_site_type_symbol
_atom_site_fract_x
_atom_site_fract_y
_atom_site_fract_z
Zn1	Zn	-0.418255	-1.606255	-0.594010
Zn2	Zn	-0.593973	-1.606150	-0.418330
Zn3	Zn	-0.418304	-1.430557	-0.418346
Zn4	Zn	-0.593887	-1.430546	-0.593968
O5	O	-0.506105	-1.518377	-0.506163
O6	O	-0.441580	-1.753262	-0.570716
O7	O	-0.570727	-1.582818	-0.271311
O8	O	-0.271276	-1.453913	-0.441672
O9	O	-0.570680	-1.753185	-0.441645
O10	O	-0.271240	-1.582998	-0.570732
O11	O	-0.441663	-1.453811	-0.271323
O12	O	-0.441579	-1.283535	-0.441632
O13	O	-0.570532	-1.453894	-0.740995
O14	O	-0.570579	-1.283527	-0.570661
O15	O	-0.441496	-1.582987	-0.741025
O16	O	-0.740983	-1.582807	-0.441604
O17	O	-0.740919	-1.453791	-0.570645
C18	C	-0.506076	-1.245410	-0.506144
C19	C	-0.506089	-1.128633	-0.506161
C20	C	-0.438986	-1.073812	-0.573471
C21	C	-0.438992	-0.964088	-0.573477
C22	C	-0.573214	-0.964016	-0.438858
C23	C	-0.573201	-1.073738	-0.438849
C24	C	-0.779072	-1.518315	-0.506142
C25	C	-0.895849	-1.518384	-0.506167
C26	C	-0.950709	-1.585637	-0.439050
C27	C	-1.060433	-1.585702	-0.439082
C28	C	-1.060427	-1.451252	-0.573352
C29	C	-0.950705	-1.451193	-0.573324
C30	C	-0.950713	-1.663258	-0.361527
C31	C	-1.060437	-1.663322	-0.361560
C32	C	-0.232071	-1.518468	-0.506208
C33	C	-0.115295	-1.518507	-0.506228
C34	C	-0.505999	-1.518451	-0.780197
C35	C	-0.505953	-1.518482	-0.896974
C36	C	-0.506124	-0.792410	-0.506179
C37	C	-0.506108	-0.909187	-0.506176
C38	C	-0.438758	-1.585710	-0.951853
C39	C	-0.438720	-1.585735	-1.061577
C40	C	-0.573082	-1.451301	-1.061533
C41	C	-0.573114	-1.451272	-0.951810
C42	C	-0.361188	-1.663328	-0.951880
C43	C	-0.361150	-1.663353	-1.061604
C44	C	-0.506134	-1.518364	-0.233196
C45	C	-0.505884	-1.518537	-0.116420
H46	H	-0.384349	-0.919458	-0.628286
N47	N	-0.253421	-1.634477	-0.912455
H48	H	-0.253401	-1.634447	-0.833298
H49	H	-0.200675	-1.687270	-0.938910
H50	H	-0.627759	-1.396579	-1.106194
N51	N	-0.366603	-1.133023	-0.646067
H52	H	-0.324094	-1.081641	-0.688707
H53	H	-0.317927	-1.178536	-0.603382
H54	H	-0.916765	-1.634133	-0.284201
N55	N	-0.400080	-1.765581	-0.906784
H56	H	-0.418808	-1.815024	-0.965698
H57	H	-0.343365	-1.798025	-0.862140
H58	H	-0.627855	-0.919306	-0.384056
N59	N	-0.911154	-1.771000	-0.390471
H60	H	-0.972642	-1.819122	-0.403415
H61	H	-0.867100	-1.766186	-0.456078
H62	H	-0.283840	-1.634239	-1.095651
N63	N	-1.105399	-1.765736	-0.400215
H64	H	-1.080905	-1.779088	-0.474313
H65	H	-1.080932	-1.824608	-0.353329
H66	H	-0.627846	-1.118374	-0.384031
H67	H	-1.105104	-1.396548	-0.628030
N68	N	-1.100006	-1.634533	-0.253768
H69	H	-1.038521	-1.621632	-0.205644
H70	H	-1.144060	-1.568934	-0.258484
H71	H	-0.906038	-1.396440	-0.627986
N72	N	-0.645548	-1.378722	-0.892616
H73	H	-0.688078	-1.336144	-0.944007
H74	H	-0.694202	-1.421424	-0.847066
H75	H	-0.382945	-1.744723	-1.091384
