data_functionalizedCrystal
_audit_creation_method	'MofGen! by Chris Wilmer'
_symmetry_space_group_name_H-M	'P1'
_symmetry_Int_Tables_number	1
_symmetry_cell_setting	triclinic
loop_
_symmetry_equiv_pos_as_xyz
  x,y,z
_cell_length_a	12.759400
_cell_length_b	12.759401
_cell_length_c	12.759393
_cell_angle_alpha	89.981558
_cell_angle_beta	90.031769
_cell_angle_gamma	89.987166
loop_
_atom_site_label
_atom_site_type_symbol
_atom_site_fract_x
_atom_site_fract_y
_atom_site_fract_z
Zn1	Zn	-0.418254	-1.606244	0.594011
Zn2	Zn	-0.593974	-1.606142	0.418331
Zn3	Zn	-0.418304	-1.430549	0.418347
Zn4	Zn	-0.593886	-1.430535	0.593969
O5	O	-0.506104	-1.518367	0.506165
O6	O	-0.441580	-1.753251	0.570718
O7	O	-0.570728	-1.582812	0.271312
O8	O	-0.271276	-1.453905	0.441674
O9	O	-0.570680	-1.753176	0.441646
O10	O	-0.271240	-1.582987	0.570733
O11	O	-0.441664	-1.453805	0.271324
O12	O	-0.441579	-1.283526	0.441633
O13	O	-0.570531	-1.453879	0.740996
O14	O	-0.570579	-1.283516	0.570662
O15	O	-0.441495	-1.582972	0.741027
O16	O	-0.740983	-1.582798	0.441606
O17	O	-0.740919	-1.453780	0.570647
C18	C	-0.506075	-1.245400	0.506145
C19	C	-0.506088	-1.128623	0.506162
C20	C	-0.779072	-1.518305	0.506143
C21	C	-0.895848	-1.518374	0.506169
C22	C	-0.573364	-1.073783	0.573235
C23	C	-0.573373	-0.964059	0.573245
C24	C	-0.438829	-0.964025	0.439099
C25	C	-0.438815	-1.073747	0.439095
C26	C	-0.651046	-1.073802	0.650680
C27	C	-0.651055	-0.964078	0.650690
C28	C	-0.950709	-1.585629	0.439051
C29	C	-1.060433	-1.585693	0.439084
C30	C	-1.060426	-1.451240	0.573354
C31	C	-0.950704	-1.451182	0.573326
C32	C	-0.950714	-1.663251	0.361529
C33	C	-1.060438	-1.663315	0.361561
C34	C	-0.232071	-1.518459	0.506210
C35	C	-0.115294	-1.518497	0.506229
C36	C	-0.505997	-1.518436	0.780198
C37	C	-0.505952	-1.518465	0.896975
C38	C	-0.506125	-0.792401	0.506180
C39	C	-0.506112	-0.909177	0.506175
C40	C	-0.506135	-1.518360	0.233197
C41	C	-0.505885	-1.518534	0.116421
C42	C	-0.438736	-1.451319	0.951849
C43	C	-0.438704	-1.451351	1.061573
C44	C	-0.573108	-1.585683	1.061539
C45	C	-0.573144	-1.585645	0.951817
C46	C	-0.361135	-1.373767	0.951870
C47	C	-0.361104	-1.373799	1.061594
H48	H	-0.384056	-0.919332	0.384496
C49	C	-0.676907	-0.952088	0.836685
C50	C	-0.611847	-0.918170	0.755107
H51	H	-0.652700	-0.923740	0.901142
H52	H	-0.675559	-1.026434	0.840230
H53	H	-0.746582	-0.929077	0.824013
H54	H	-0.542173	-0.941189	0.767775
H55	H	-0.613184	-0.843809	0.751563
C56	C	-0.849477	-1.812897	0.308950
C57	C	-0.910400	-1.773055	0.391032
H58	H	-0.824595	-1.880686	0.327163
H59	H	-0.791627	-1.767670	0.296794
H60	H	-0.890899	-1.817372	0.247227
H61	H	-0.868976	-1.768573	0.452753
H62	H	-0.968259	-1.818293	0.403201
H63	H	-0.728299	-1.107817	0.621396
H64	H	-0.283858	-1.402931	0.917854
H65	H	-0.732404	-0.934283	0.628757
C66	C	-0.961723	-1.318289	0.706046
C67	C	-0.890400	-1.377256	0.647104
H68	H	-0.924491	-1.272643	0.751589
H69	H	-1.004446	-1.364067	0.746282
H70	H	-1.004591	-1.278151	0.660238
H71	H	-0.847537	-1.417399	0.692912
H72	H	-0.847659	-1.331471	0.606865
H73	H	-1.105103	-1.396535	0.628031
C74	C	-0.843168	-1.535075	0.275474
C75	C	-0.904878	-1.623939	0.257142
H76	H	-0.814877	-1.510801	0.211028
H77	H	-0.787683	-1.552559	0.321961
H78	H	-0.885099	-1.481591	0.305849
H79	H	-0.862944	-1.677425	0.226773
H80	H	-0.960370	-1.606458	0.210638
H81	H	-1.094385	-1.740619	0.390774
H82	H	-1.090300	-1.641579	0.280180
C83	C	-0.705992	-1.718427	0.962810
C84	C	-0.647032	-1.659451	0.891498
H85	H	-0.751603	-1.763998	0.925569
H86	H	-0.746156	-1.672649	1.005592
H87	H	-0.660199	-1.758644	1.005619
H88	H	-0.692824	-1.619228	0.848694
H89	H	-0.606865	-1.705234	0.848698
C90	C	-0.426252	-1.200887	1.025800
C91	C	-0.400407	-1.269452	1.107537
H92	H	-0.450510	-1.136469	1.054167
H93	H	-0.479767	-1.231257	0.983893
H94	H	-0.365998	-1.188423	0.983917
H95	H	-0.460663	-1.281922	1.149416
H96	H	-0.346888	-1.239076	1.149462
H97	H	-0.279723	-1.395616	1.091391
C98	C	-0.632730	-1.645390	1.229722
C99	C	-0.646954	-1.659534	1.121826
H100	H	-0.678315	-1.690991	1.266936
H101	H	-0.648096	-1.574809	1.247694
H102	H	-0.562132	-1.660796	1.247709
H103	H	-0.717551	-1.644120	1.103837
H104	H	-0.631595	-1.730131	1.103846
H105	H	-0.384025	-1.118394	0.384485
H106	H	-0.382922	-1.292378	0.922091
H107	H	-0.629347	-1.103609	0.732088
