data_functionalizedCrystal
_audit_creation_method	'MofGen! by Chris Wilmer'
_symmetry_space_group_name_H-M	'P1'
_symmetry_Int_Tables_number	1
_symmetry_cell_setting	triclinic
loop_
_symmetry_equiv_pos_as_xyz
  x,y,z
_cell_length_a	17.077404
_cell_length_b	17.077396
_cell_length_c	17.077402
_cell_angle_alpha	90.028267
_cell_angle_beta	89.977697
_cell_angle_gamma	89.983895
loop_
_atom_site_label
_atom_site_type_symbol
_atom_site_fract_x
_atom_site_fract_y
_atom_site_fract_z
Zn1	Zn	1.200029	-0.443825	0.312544
Zn2	Zn	1.533363	-0.110491	0.645878
Zn3	Zn	1.866696	0.222842	0.979211
Zn4	Zn	1.199938	-0.312561	0.443821
Zn5	Zn	1.533272	0.020772	0.777154
Zn6	Zn	1.866605	0.354106	1.110488
Zn7	Zn	1.068766	-0.312575	0.312569
Zn8	Zn	1.402100	0.020758	0.645902
Zn9	Zn	1.735433	0.354092	0.979235
Zn10	Zn	1.068726	-0.443787	0.443767
Zn11	Zn	1.402059	-0.110454	0.777101
Zn12	Zn	1.735392	0.222880	1.110434
O13	O	1.134365	-0.378187	0.378175
O14	O	1.467698	-0.044854	0.711509
O15	O	1.801031	0.288480	1.044842
O16	O	1.309864	-0.426422	0.329971
O17	O	1.643197	-0.093089	0.663304
O18	O	1.976531	0.240245	0.996637
O19	O	1.182517	-0.202716	0.426443
O20	O	1.515850	0.130617	0.759776
O21	O	1.849183	0.463951	1.093109
O22	O	1.086234	-0.330007	0.202718
O23	O	1.419567	0.003326	0.536052
O24	O	1.752900	0.336659	0.869385
O25	O	1.309797	-0.329983	0.426419
O26	O	1.643130	0.003350	0.759752
O27	O	1.976464	0.336684	1.093086
O28	O	1.182672	-0.426436	0.202700
O29	O	1.516005	-0.093102	0.536034
O30	O	1.849339	0.240231	0.869367
O31	O	1.086145	-0.202726	0.330012
O32	O	1.419479	0.130607	0.663345
O33	O	1.752812	0.463940	0.996679
O34	O	0.958914	-0.329971	0.329960
O35	O	1.292247	0.003362	0.663293
O36	O	1.625581	0.336696	0.996627
O37	O	1.086165	-0.553639	0.426328
O38	O	1.419498	-0.220306	0.759661
O39	O	1.752831	0.113028	1.092994
O40	O	0.958884	-0.426372	0.426351
O41	O	1.292218	-0.093039	0.759685
O42	O	1.625551	0.240295	1.093018
O43	O	1.182633	-0.553667	0.329919
O44	O	1.515966	-0.220333	0.663252
O45	O	1.849299	0.113000	0.996585
O46	O	1.182478	-0.329947	0.553661
O47	O	1.515811	0.003387	0.886994
O48	O	1.849144	0.336720	1.220327
O49	O	1.086076	-0.426358	0.553621
O50	O	1.419410	-0.093025	0.886955
O51	O	1.752743	0.240309	1.220288
C52	C	0.930417	-0.378169	0.378153
C53	C	1.263750	-0.044836	0.711486
C54	C	1.597084	0.288497	1.044820
C55	C	0.843167	-0.378180	0.378162
C56	C	1.176501	-0.044847	0.711496
C57	C	1.509834	0.288486	1.044829
C58	C	0.802213	-0.428473	0.328031
C59	C	1.135546	-0.095139	0.661364
C60	C	1.468879	0.238194	0.994698
C61	C	0.720232	-0.428476	0.328036
C62	C	1.053565	-0.095143	0.661369
C63	C	1.386899	0.238190	0.994703
C64	C	0.679208	-0.378191	0.378177
C65	C	1.012541	-0.044858	0.711510
C66	C	1.345874	0.288476	1.044844
C67	C	0.720168	-0.327893	0.428311
C68	C	1.053501	0.005440	0.761644
C69	C	1.386835	0.338773	1.094977
C70	C	0.802147	-0.327886	0.428301
C71	C	1.135480	0.005447	0.761634
C72	C	1.468814	0.338780	1.094968
C73	C	0.549298	-0.327913	0.428328
C74	C	0.882631	0.005421	0.761662
C75	C	1.215965	0.338754	1.094995
C76	C	0.467313	-0.327920	0.428339
C77	C	0.800647	0.005413	0.761673
C78	C	1.133980	0.338746	1.095006
C79	C	0.467383	-0.428503	0.328063
C80	C	0.800716	-0.095170	0.661397
C81	C	1.134050	0.238164	0.994730
C82	C	0.549362	-0.428496	0.328054
C83	C	0.882695	-0.095163	0.661387
C84	C	1.216029	0.238171	0.994720
C85	C	0.590317	-0.378199	0.378189
C86	C	0.923650	-0.044865	0.711522
C87	C	1.256983	0.288468	1.044855
C88	C	1.134404	-0.582931	0.378114
C89	C	1.467738	-0.249598	0.711448
C90	C	1.801071	0.083735	1.044781
C91	C	1.134421	-0.670181	0.378089
C92	C	1.467754	-0.336848	0.711422
C93	C	1.801088	-0.003514	1.044755
C94	C	1.084256	-0.711176	0.327871
C95	C	1.417589	-0.377843	0.661204
C96	C	1.750922	-0.044509	0.994538
C97	C	1.084269	-0.793157	0.327853
C98	C	1.417602	-0.459823	0.661187
C99	C	1.750935	-0.126490	0.994520
C100	C	1.134451	-0.834141	0.378050
C101	C	1.467785	-0.500807	0.711383
C102	C	1.801118	-0.167474	1.044716
C103	C	1.184619	-0.793140	0.428272
C104	C	1.517952	-0.459807	0.761606
C105	C	1.851285	-0.126473	1.094939
C106	C	1.184601	-0.711161	0.428294
C107	C	1.517935	-0.377828	0.761627
C108	C	1.851268	-0.044494	1.094960
C109	C	1.184653	-0.964010	0.428223
C110	C	1.517986	-0.630677	0.761557
C111	C	1.851319	-0.297343	1.094890
C112	C	1.184671	-1.045995	0.428201
C113	C	1.518005	-0.712661	0.761535
C114	C	1.851338	-0.379328	1.094868
C115	C	1.084320	-1.046006	0.327783
C116	C	1.417653	-0.712672	0.661116
C117	C	1.750987	-0.379339	0.994450
C118	C	1.084303	-0.964027	0.327804
C119	C	1.417636	-0.630693	0.661138
C120	C	1.750969	-0.297360	0.994471
C121	C	1.134471	-0.923032	0.378026
C122	C	1.467805	-0.589698	0.711360
C123	C	1.801138	-0.256365	1.044693
C124	C	1.339109	-0.378205	0.378198
C125	C	1.672442	-0.044872	0.711531
C126	C	2.005776	0.288462	1.044865
C127	C	1.426359	-0.378213	0.378208
C128	C	1.759692	-0.044879	0.711541
C129	C	2.093026	0.288454	1.044875
C130	C	1.134284	-0.378164	0.582123
C131	C	1.467617	-0.044831	0.915456
C132	C	1.800951	0.288503	1.248790
C133	C	1.134321	-0.378180	0.669373
C134	C	1.467654	-0.044847	1.002706
C135	C	1.800988	0.288486	1.336040
C136	C	1.134371	-0.174239	0.378179
C137	C	1.467704	0.159094	0.711513
C138	C	1.801037	0.492428	1.044846
C139	C	1.134506	-0.086990	0.377984
C140	C	1.467839	0.246344	0.711317
C141	C	1.801173	0.579677	1.044651
C142	C	1.184567	-0.328035	0.710358
C143	C	1.517901	0.005299	1.043691
C144	C	1.851234	0.338632	1.377024
C145	C	1.184604	-0.328058	0.792338
C146	C	1.517937	0.005275	1.125671
C147	C	1.851270	0.338609	1.459005
C148	C	1.134389	-0.378224	0.833332
C149	C	1.467723	-0.044890	1.166666
C150	C	1.801056	0.288443	1.499999
C151	C	1.084141	-0.428375	0.792342
C152	C	1.417474	-0.095042	1.125675
C153	C	1.750807	0.238292	1.459009
C154	C	1.084109	-0.428355	0.710363
C155	C	1.417442	-0.095022	1.043696
C156	C	1.750776	0.238312	1.377030
C157	C	1.084209	-0.428412	0.963212
C158	C	1.417542	-0.095079	1.296545
C159	C	1.750876	0.238255	1.629879
C160	C	1.084240	-0.428431	1.045197
C161	C	1.417573	-0.095098	1.378530
C162	C	1.750906	0.238236	1.711863
C163	C	1.184704	-0.328115	1.045187
C164	C	1.518037	0.005218	1.378520
C165	C	1.851371	0.338552	1.711854
C166	C	1.184672	-0.328095	0.963208
C167	C	1.518006	0.005239	1.296541
C168	C	1.851339	0.338572	1.629875
C169	C	1.134422	-0.378245	0.922223
C170	C	1.467756	-0.044912	1.255557
C171	C	1.801089	0.288421	1.588890
C172	C	1.134461	-0.378237	1.173431
C173	C	1.467794	-0.044904	1.506764
C174	C	1.801128	0.288429	1.840098
C175	C	1.134486	-0.378285	1.086181
C176	C	1.467819	-0.044952	1.419514
C177	C	1.801153	0.288381	1.752848
H178	H	0.835609	-0.469423	0.287202
H179	H	1.168942	-0.136090	0.620536
H180	H	1.502275	0.197244	0.953869
H181	H	0.686760	-0.286946	0.469133
H182	H	1.020093	0.046387	0.802466
H183	H	1.353426	0.379720	1.135799
H184	H	0.582641	-0.286953	0.469152
H185	H	0.915974	0.046380	0.802485
H186	H	1.249307	0.379713	1.135818
Cl187	Cl	0.600935	-0.491719	0.265025
Cl188	Cl	0.934268	-0.158386	0.598358
Cl189	Cl	1.267601	0.174947	0.931692
Cl190	Cl	0.415898	-0.491731	0.265035
Cl191	Cl	0.749231	-0.158398	0.598368
Cl192	Cl	1.082565	0.174935	0.931701
H193	H	1.043194	-0.469190	0.676994
H194	H	1.376528	-0.135857	1.010327
H195	H	1.709861	0.197477	1.343661
Cl196	Cl	0.415741	-0.264722	0.491393
Cl197	Cl	0.749074	0.068611	0.824727
Cl198	Cl	1.082407	0.401944	1.158060
Cl199	Cl	1.247701	-0.844663	0.491382
Cl200	Cl	1.581035	-0.511330	0.824715
Cl201	Cl	1.914368	-0.177996	1.158048
H202	H	0.835491	-0.286932	0.469123
H203	H	1.168825	0.046401	0.802456
H204	H	1.502158	0.379734	1.135789
Cl205	Cl	1.021018	-0.491446	0.843878
Cl206	Cl	1.354351	-0.158112	1.177211
Cl207	Cl	1.687684	0.175221	1.510545
H208	H	1.043416	-0.826531	0.286964
H209	H	1.376749	-0.493198	0.620297
H210	H	1.710083	-0.159864	0.953631
H211	H	1.043443	-0.930660	0.286926
H212	H	1.376776	-0.597326	0.620260
H213	H	1.710110	-0.263993	0.953593
Cl214	Cl	1.247868	-0.265061	1.096710
Cl215	Cl	1.581201	0.068272	1.430043
Cl216	Cl	1.914534	0.401606	1.763377
Cl217	Cl	1.247776	-0.265017	0.843858
Cl218	Cl	1.581109	0.068316	1.177191
Cl219	Cl	1.914443	0.401650	1.510525
H220	H	1.043472	-1.079388	0.286889
H221	H	1.376805	-0.746055	0.620223
H222	H	1.710138	-0.412721	0.953556
Cl223	Cl	1.021169	-0.659661	0.264760
Cl224	Cl	1.354502	-0.326328	0.598093
Cl225	Cl	1.687836	0.007005	0.931426
Cl226	Cl	1.247764	-1.097517	0.491301
Cl227	Cl	1.581097	-0.764183	0.824635
Cl228	Cl	1.914431	-0.430850	1.157968
H229	H	1.225512	-0.930634	0.469113
H230	H	1.558846	-0.597301	0.802446
H231	H	1.892179	-0.263968	1.135779
H232	H	0.686891	-0.469431	0.287215
H233	H	1.020224	-0.136098	0.620549
H234	H	1.353557	0.197236	0.953882
Cl235	Cl	1.247666	-0.659624	0.491430
Cl236	Cl	1.580999	-0.326291	0.824764
Cl237	Cl	1.914332	0.007043	1.158097
Cl238	Cl	1.247693	-0.264960	0.658830
Cl239	Cl	1.581027	0.068373	0.992163
Cl240	Cl	1.914360	0.401707	1.325497
H241	H	1.225557	-0.287242	0.929831
H242	H	1.558890	0.046091	1.263164
H243	H	1.892223	0.379424	1.596497
H244	H	1.043365	-0.469295	1.078572
H245	H	1.376698	-0.135962	1.411905
H246	H	1.710032	0.197371	1.745239
H247	H	1.043293	-0.469253	0.929845
H248	H	1.376626	-0.135919	1.263178
H249	H	1.709960	0.197414	1.596512
