data_functionalizedCrystal
_audit_creation_method	'MofGen! by Chris Wilmer'
_symmetry_space_group_name_H-M	'P1'
_symmetry_Int_Tables_number	1
_symmetry_cell_setting	triclinic
loop_
_symmetry_equiv_pos_as_xyz
  x,y,z
_cell_length_a	21.395361
_cell_length_b	12.759401
_cell_length_c	12.759393
_cell_angle_alpha	90.019837
_cell_angle_beta	89.960721
_cell_angle_gamma	89.967767
loop_
_atom_site_label
_atom_site_type_symbol
_atom_site_fract_x
_atom_site_fract_y
_atom_site_fract_z
Zn1	Zn	-0.249376	-1.606138	-0.593964
Zn2	Zn	-0.354168	-1.605983	-0.418261
Zn3	Zn	-0.249411	-1.430440	-0.418299
Zn4	Zn	-0.354122	-1.430380	-0.593898
O5	O	-0.301769	-1.518235	-0.506106
O6	O	-0.263281	-1.753139	-0.570668
O7	O	-0.340306	-1.582658	-0.271245
O8	O	-0.161729	-1.453837	-0.441645
O9	O	-0.340272	-1.753025	-0.441580
O10	O	-0.161703	-1.582921	-0.570706
O11	O	-0.263341	-1.453687	-0.271273
O12	O	-0.263297	-1.283411	-0.441581
O13	O	-0.340193	-1.453734	-0.740928
O14	O	-0.340228	-1.283367	-0.570593
O15	O	-0.263237	-1.582863	-0.740977
O16	O	-0.441840	-1.582599	-0.441516
O17	O	-0.441806	-1.453584	-0.570556
C18	C	-0.301762	-1.245268	-0.506085
C19	C	-0.301773	-1.128491	-0.506101
C20	C	-0.464557	-1.518097	-0.506047
C21	C	-0.534198	-1.518133	-0.506057
C22	C	-0.301706	-1.518309	-0.780139
C23	C	-0.301679	-1.518340	-0.896916
C24	C	-0.566908	-1.585371	-0.438935
C25	C	-0.632343	-1.585420	-0.438958
C26	C	-0.665067	-1.518212	-0.506093
C27	C	-0.632349	-1.450970	-0.573229
C28	C	-0.566915	-1.450930	-0.573211
C29	C	-0.768782	-1.423614	-0.514329
C30	C	-0.834215	-1.423652	-0.514340
C31	C	-0.866887	-1.518335	-0.506155
C32	C	-0.834119	-1.612983	-0.497937
C33	C	-0.768685	-1.612943	-0.497919
C34	C	-0.736019	-1.518248	-0.506121
C35	C	-0.970550	-1.585631	-0.439054
C36	C	-1.035986	-1.585682	-0.439085
C37	C	-1.035990	-1.451222	-0.573350
C38	C	-0.970555	-1.451181	-0.573325
C39	C	-0.937839	-1.518384	-0.506171
C40	C	-0.138346	-1.518403	-0.506187
C41	C	-0.068705	-1.518475	-0.506222
C42	C	-0.301777	-1.792269	-0.506127
C43	C	-0.301781	-1.909045	-0.506136
C44	C	-0.341892	-1.073634	-0.573171
C45	C	-0.341895	-0.963910	-0.573192
C46	C	-0.261658	-0.963911	-0.439063
C47	C	-0.261653	-1.073633	-0.439048
C48	C	-0.261596	-1.451209	-0.951792
C49	C	-0.261577	-1.451233	-1.061516
C50	C	-0.341725	-1.585529	-1.061478
C51	C	-0.341747	-1.585498	-0.951756
C52	C	-0.301787	-1.518223	-0.233138
C53	C	-0.301638	-1.518395	-0.116362
H54	H	-0.540272	-1.640094	-0.384257
C55	C	-0.217526	-1.377324	-0.891472
N56	N	-0.184332	-1.321669	-0.846041
C57	C	-0.385832	-1.659371	-0.891389
N58	N	-0.419032	-1.715015	-0.845920
C59	C	-0.217531	-0.903556	-0.365303
N60	N	-0.184294	-0.858097	-0.309743
H61	H	-0.228938	-1.396568	-1.106192
C62	C	-0.668332	-1.659384	-0.365110
N63	N	-0.695436	-1.715092	-0.309485
H64	H	-0.540282	-1.396176	-0.627871
H65	H	-0.374346	-1.640208	-1.106142
H66	H	-0.742006	-1.690008	-0.491231
C67	C	-1.071982	-1.377295	-0.647201
N68	N	-1.099094	-1.321612	-0.702830
H69	H	-0.860719	-1.690083	-0.491272
H70	H	-0.943911	-1.640356	-0.384377
H71	H	-1.062617	-1.640442	-0.384428
H72	H	-0.860890	-1.346583	-0.521021
C73	C	-0.732848	-1.319446	-0.523309
N74	N	-0.705784	-1.240989	-0.530063
C75	C	-0.934573	-1.377234	-0.647187
N76	N	-0.907471	-1.321546	-0.702836
C77	C	-0.217517	-1.133980	-0.365261
N78	N	-0.184274	-1.179433	-0.309688
H79	H	-0.658996	-1.396251	-0.627892
H80	H	-0.374563	-0.919249	-0.627809
C81	C	-0.386022	-1.133974	-0.646939
N82	N	-0.419259	-1.179420	-0.702506
