data_functionalizedCrystal
_audit_creation_method	'MofGen! by Chris Wilmer'
_symmetry_space_group_name_H-M	'P1'
_symmetry_Int_Tables_number	1
_symmetry_cell_setting	triclinic
loop_
_symmetry_equiv_pos_as_xyz
  x,y,z
_cell_length_a	17.077402
_cell_length_b	21.395364
_cell_length_c	17.077396
_cell_angle_alpha	90.020730
_cell_angle_beta	89.970216
_cell_angle_gamma	89.983085
loop_
_atom_site_label
_atom_site_type_symbol
_atom_site_fract_x
_atom_site_fract_y
_atom_site_fract_z
Zn1	Zn	-0.312633	-0.957863	-0.443861
Zn2	Zn	-0.443908	-0.957788	-0.312592
Zn3	Zn	-0.312646	-0.853087	-0.312606
Zn4	Zn	-0.443847	-0.853061	-0.443813
O5	O	-0.378259	-0.905450	-0.378218
O6	O	-0.330067	-1.045531	-0.426462
O7	O	-0.426527	-0.943879	-0.202747
O8	O	-0.202798	-0.867027	-0.330044
O9	O	-0.426514	-1.045476	-0.330020
O10	O	-0.202788	-0.944005	-0.426476
O11	O	-0.330090	-0.866955	-0.202758
O12	O	-0.330031	-0.765405	-0.329997
O13	O	-0.426410	-0.866983	-0.553666
O14	O	-0.426423	-0.765387	-0.426394
O15	O	-0.330008	-0.943981	-0.553702
O16	O	-0.553747	-0.943854	-0.329973
O17	O	-0.553702	-0.866912	-0.426380
C18	C	-0.378222	-0.742662	-0.378192
C19	C	-0.378226	-0.673021	-0.378200
C20	C	-0.328129	-0.171252	-0.428510
C21	C	-0.328126	-0.236688	-0.428512
C22	C	-0.378259	-0.269382	-0.378220
C23	C	-0.428413	-0.236636	-0.327937
C24	C	-0.428420	-0.171202	-0.327942
C25	C	-0.384356	-0.373024	-0.307478
C26	C	-0.384343	-0.438457	-0.307471
C27	C	-0.378240	-0.471203	-0.378203
C28	C	-0.372134	-0.438508	-0.448945
C29	C	-0.372142	-0.373074	-0.448950
C30	C	-0.378256	-0.340335	-0.378209
C31	C	-0.328090	-0.574894	-0.428489
C32	C	-0.328092	-0.640331	-0.428491
C33	C	-0.428374	-0.640278	-0.327909
C34	C	-0.428376	-0.574843	-0.327913
C35	C	-0.378230	-0.542154	-0.378202
C36	C	-0.582207	-0.905389	-0.378187
C37	C	-0.669456	-0.905421	-0.378200
C38	C	-0.710444	-0.945526	-0.328054
C39	C	-0.792424	-0.945556	-0.328074
C40	C	-0.833416	-0.905478	-0.378236
C41	C	-0.792423	-0.865371	-0.428387
C42	C	-0.710444	-0.865344	-0.428371
C43	C	-0.963293	-0.865430	-0.428417
C44	C	-1.045277	-0.865456	-0.428433
C45	C	-1.045273	-0.945641	-0.328121
C46	C	-0.963294	-0.945614	-0.328104
C47	C	-0.922307	-0.905507	-0.378254
C48	C	-0.173514	-0.905527	-0.378267
C49	C	-0.086265	-0.905561	-0.378288
C50	C	-0.378201	-0.905488	-0.582963
C51	C	-0.378176	-0.905504	-0.670212
C52	C	-0.378286	-0.068873	-0.378238
C53	C	-0.378274	-0.138514	-0.378231
C54	C	-0.327975	-0.945598	-0.711222
C55	C	-0.327949	-0.945605	-0.793203
C56	C	-0.378129	-0.905521	-0.834172
C57	C	-0.428332	-0.865423	-0.793156
C58	C	-0.428353	-0.865413	-0.711177
C59	C	-0.428284	-0.865448	-0.964027
C60	C	-0.428264	-0.865459	-1.046011
C61	C	-0.327880	-0.945641	-1.046052
C62	C	-0.327902	-0.945630	-0.964073
C63	C	-0.378106	-0.905533	-0.923063
C64	C	-0.378260	-0.905448	-0.174270
C65	C	-0.378063	-0.905553	-0.087021
H66	H	-0.287261	-0.666985	-0.469441
H67	H	-0.287116	-0.978240	-0.677871
H68	H	-0.469123	-0.832818	-1.079366
H69	H	-0.367161	-0.465168	-0.506541
H70	H	-0.287072	-0.978255	-0.826589
H71	H	-0.677074	-0.978159	-0.287203
C72	C	-0.273628	-0.539512	-0.483181
C73	C	-0.229733	-0.582192	-0.527237
C74	C	-0.179564	-0.549623	-0.577636
H75	H	-0.239319	-0.513980	-0.453305
H76	H	-0.303686	-0.514006	-0.517371
H77	H	-0.199677	-0.607687	-0.493051
H78	H	-0.264021	-0.607726	-0.557128
H79	H	-0.209622	-0.524117	-0.611827
H80	H	-0.145260	-0.524092	-0.547755
H81	H	-0.149780	-0.578576	-0.607540
C82	C	-0.482960	-0.135622	-0.273477
C83	C	-0.533342	-0.098072	-0.317840
C84	C	-0.583601	-0.065292	-0.267693
H85	H	-0.452985	-0.110039	-0.239312
H86	H	-0.512866	-0.164443	-0.243540
H87	H	-0.503439	-0.069254	-0.347764
H88	H	-0.563335	-0.123639	-0.352003
H89	H	-0.613507	-0.094114	-0.237756
H90	H	-0.553619	-0.039713	-0.233530
H91	H	-0.617796	-0.039816	-0.297786
H92	H	-0.367172	-0.346456	-0.506550
C93	C	-0.836783	-0.989121	-0.273541
C94	C	-0.783338	-1.024198	-0.229590
C95	C	-0.824172	-1.064333	-0.179336
H96	H	-0.868719	-1.016476	-0.303517
H97	H	-0.868794	-0.965192	-0.239277
H98	H	-0.751341	-1.048125	-0.263849
H99	H	-0.751401	-0.996860	-0.199598
H100	H	-0.856183	-1.040404	-0.145073
H101	H	-0.856107	-1.091683	-0.209319
H102	H	-0.787917	-1.088133	-0.149504
C103	C	-0.482894	-0.821903	-0.919641
C104	C	-0.526858	-0.786820	-0.973064
C105	C	-0.577187	-0.746714	-0.932205
H106	H	-0.452972	-0.794550	-0.887650
H107	H	-0.517146	-0.845853	-0.887684
H108	H	-0.492610	-0.762871	-1.005008
H109	H	-0.556796	-0.814156	-1.005057
H110	H	-0.611440	-0.770665	-0.900248
H111	H	-0.547260	-0.719366	-0.900215
H112	H	-0.607028	-0.722910	-0.968446
H113	H	-0.287299	-0.144642	-0.469462
C114	C	-0.482723	-0.675880	-0.273338
C115	C	-0.471974	-0.740192	-0.284082
C116	C	-0.522023	-0.773011	-0.233819
H117	H	-0.535511	-0.665225	-0.284686
H118	H	-0.471164	-0.665178	-0.220599
H119	H	-0.483538	-0.750890	-0.336809
H120	H	-0.419196	-0.750866	-0.272728
H121	H	-0.510465	-0.762309	-0.181080
H122	H	-0.574808	-0.762351	-0.245171
H123	H	-0.514732	-0.816650	-0.241097
H124	H	-0.929919	-0.978245	-0.287255
H125	H	-1.078649	-0.978301	-0.287289
C126	C	-1.089643	-0.821926	-0.482989
C127	C	-1.036204	-0.786813	-0.526927
C128	C	-1.077045	-0.746715	-0.577202
H129	H	-1.121674	-0.794592	-0.453029
H130	H	-1.121559	-0.845883	-0.517260
H131	H	-1.004302	-0.762858	-0.492660
H132	H	-1.004172	-0.814130	-0.556903
H133	H	-1.108961	-0.770672	-0.611473
H134	H	-1.109074	-0.719386	-0.547236
H135	H	-1.040793	-0.722890	-0.607025
C136	C	-0.273631	-0.272320	-0.482974
C137	C	-0.223278	-0.309889	-0.438605
C138	C	-0.173073	-0.342726	-0.488749
H139	H	-0.243695	-0.243551	-0.512942
H140	H	-0.303672	-0.297891	-0.517112
H141	H	-0.193240	-0.284321	-0.404482
H142	H	-0.253193	-0.338670	-0.408639
H143	H	-0.203114	-0.368296	-0.522886
H144	H	-0.143142	-0.313952	-0.518714
H145	H	-0.138908	-0.368225	-0.458652
H146	H	-0.469186	-0.832784	-0.826520
H147	H	-0.469206	-0.548187	-0.286967
H148	H	-0.287046	-0.978274	-0.930718
H149	H	-0.469224	-0.832758	-0.677788
H150	H	-0.389310	-0.465073	-0.249869
H151	H	-0.929923	-0.832772	-0.469258
C152	C	-0.836784	-0.821835	-0.482938
C153	C	-0.783339	-0.786719	-0.526866
C154	C	-0.824173	-0.746611	-0.577133
H155	H	-0.868812	-0.794503	-0.452973
H156	H	-0.868701	-0.845784	-0.517216
H157	H	-0.751435	-0.762771	-0.492592
H158	H	-0.751309	-0.814034	-0.556846
H159	H	-0.856091	-0.770561	-0.611411
H160	H	-0.856200	-0.719283	-0.547162
H161	H	-0.787918	-0.722784	-0.606949
C162	C	-0.665896	-0.821906	-0.482911
C163	C	-0.618782	-0.857348	-0.533267
C164	C	-0.577742	-0.817357	-0.583531
H165	H	-0.633896	-0.794598	-0.452938
H166	H	-0.702022	-0.798050	-0.512835
H167	H	-0.582660	-0.881194	-0.503346
H168	H	-0.650763	-0.884655	-0.563258
H169	H	-0.613868	-0.793501	-0.613455
H170	H	-0.545746	-0.790050	-0.553551
H171	H	-0.545776	-0.841399	-0.617709
H172	H	-0.389328	-0.346368	-0.249875
H173	H	-0.469233	-0.263261	-0.286991
C174	C	-0.273389	-0.989098	-1.090714
C175	C	-0.284086	-0.980513	-1.171277
C176	C	-0.233897	-1.020527	-1.212447
H177	H	-0.284836	-1.031218	-1.077388
H178	H	-0.220635	-0.979937	-1.077328
H179	H	-0.336828	-0.989679	-1.184658
H180	H	-0.272634	-0.938402	-1.184626
H181	H	-0.181142	-1.011365	-1.199061
H182	H	-0.245347	-1.062644	-1.199115
H183	H	-0.241142	-1.014703	-1.267113
