data_functionalizedCrystal
_audit_creation_method	'MofGen! by Chris Wilmer'
_symmetry_space_group_name_H-M	'P1'
_symmetry_Int_Tables_number	1
_symmetry_cell_setting	triclinic
loop_
_symmetry_equiv_pos_as_xyz
  x,y,z
_cell_length_a	12.759401
_cell_length_b	17.077402
_cell_length_c	12.759393
_cell_angle_alpha	90.032432
_cell_angle_beta	90.020938
_cell_angle_gamma	90.025017
loop_
_atom_site_label
_atom_site_type_symbol
_atom_site_fract_x
_atom_site_fract_y
_atom_site_fract_z
Zn1	Zn	1.606202	-0.312438	0.594006
Zn2	Zn	1.606066	-0.443724	0.418320
Zn3	Zn	1.430501	-0.312480	0.418341
Zn4	Zn	1.430466	-0.443669	0.593957
O5	O	1.518309	-0.378078	0.506156
O6	O	1.753205	-0.329859	0.570712
O7	O	1.582735	-0.426355	0.271302
O8	O	1.453880	-0.202628	0.441673
O9	O	1.753105	-0.426314	0.441637
O10	O	1.582967	-0.202597	0.570733
O11	O	1.453748	-0.329930	0.271317
O12	O	1.283475	-0.329877	0.441625
O13	O	1.453820	-0.426221	0.740985
O14	O	1.283449	-0.426261	0.570650
O15	O	1.582933	-0.329806	0.741021
O16	O	1.582701	-0.553564	0.441590
O17	O	1.453688	-0.553524	0.570630
C18	C	1.245341	-0.378068	0.506135
C19	C	1.128565	-0.378083	0.506151
C20	C	1.073717	-0.428347	0.573229
C21	C	0.963993	-0.428350	0.573249
C22	C	0.963974	-0.327823	0.439107
C23	C	1.073696	-0.327817	0.439092
C24	C	1.518205	-0.582026	0.506125
C25	C	1.518256	-0.669276	0.506147
C26	C	1.585435	-0.710182	0.573402
C27	C	1.585479	-0.792163	0.573425
C28	C	1.518349	-0.833235	0.506185
C29	C	1.451162	-0.792323	0.438927
C30	C	1.451114	-0.710344	0.438910
C31	C	1.451270	-0.963193	0.438963
C32	C	1.451320	-1.045177	0.438978
C33	C	1.585636	-1.045012	0.573478
C34	C	1.585587	-0.963033	0.573462
C35	C	1.518402	-0.922126	0.506201
C36	C	1.792342	-0.378088	0.506178
C37	C	1.909119	-0.378093	0.506187
C38	C	1.518387	-0.378003	0.780190
C39	C	1.518421	-0.377971	0.896966
C40	C	1.518442	-0.173334	0.506210
C41	C	1.518499	-0.086084	0.506234
C42	C	1.518291	-0.378096	0.233189
C43	C	1.518461	-0.377907	0.116413
C44	C	1.585655	-0.327759	0.951849
C45	C	1.585673	-0.327725	1.061573
C46	C	1.451220	-0.428121	1.061523
C47	C	1.451197	-0.428150	0.951801
H48	H	0.919341	-0.469279	0.627872
H49	H	0.919287	-0.286900	0.384508
H50	H	1.396557	-0.929889	0.384196
C51	C	1.636904	-0.194850	0.918114
C52	C	1.659534	-0.272594	0.891574
H53	H	1.682511	-0.160792	0.880899
H54	H	1.646542	-0.187653	0.991307
H55	H	1.566315	-0.183376	0.900117
H56	H	1.730122	-0.284070	0.909578
H57	H	1.649906	-0.279794	0.818365
H58	H	1.640255	-0.929592	0.628207
C59	C	1.600363	-0.222094	1.184976
C60	C	1.659577	-0.272527	1.121895
H61	H	1.645991	-0.188011	1.222208
H62	H	1.560350	-0.251973	1.233337
H63	H	1.554603	-0.192085	1.142156
H64	H	1.705333	-0.302541	1.164715
H65	H	1.699609	-0.242645	1.073527
C66	C	1.197059	-0.533948	0.587566
C67	C	1.134028	-0.483593	0.646947
H68	H	1.234284	-0.568057	0.633082
H69	H	1.245428	-0.504014	0.547626
H70	H	1.154207	-0.563934	0.541730
H71	H	1.176882	-0.453603	0.692778
H72	H	1.085654	-0.513530	0.686906
C73	C	1.726835	-0.884263	0.588139
C74	C	1.659326	-0.837137	0.647342
H75	H	1.772421	-0.912033	0.633776
H76	H	1.767023	-0.852280	0.542403
H77	H	1.686841	-0.920447	0.548101
H78	H	1.699321	-0.800949	0.687375
H79	H	1.619134	-0.869123	0.693097
C80	C	1.399925	-0.561082	0.917957
C81	C	1.377293	-0.483349	0.891462
H82	H	1.354303	-0.595155	0.880700
H83	H	1.390311	-0.568245	0.991141
H84	H	1.470507	-0.572568	0.899980
H85	H	1.306712	-0.471862	0.909446
H86	H	1.386898	-0.476183	0.818262
H87	H	1.118355	-0.286881	0.384469
C88	C	1.718189	-0.718262	0.706364
C89	C	1.659222	-0.665040	0.647322
H90	H	1.763735	-0.690392	0.752007
H91	H	1.758423	-0.750230	0.660634
H92	H	1.672397	-0.750249	0.746508
H93	H	1.705014	-0.633056	0.607171
H94	H	1.618985	-0.633058	0.693058
H95	H	1.396409	-0.677038	0.384145
H96	H	1.640339	-1.078322	0.628244
H97	H	1.396491	-0.468977	1.106182
C98	C	1.273455	-1.070585	0.387675
C99	C	1.377525	-1.090332	0.365080
H100	H	1.227899	-1.098468	0.342057
H101	H	1.263807	-1.015916	0.378028
H102	H	1.258076	-1.083993	0.458261
H103	H	1.392907	-1.076919	0.294496
H104	H	1.387178	-1.145014	0.374718
C105	C	1.309909	-0.884624	0.424220
C106	C	1.377373	-0.837470	0.365015
H107	H	1.264362	-0.912498	0.378585
H108	H	1.269678	-0.852647	0.469942
H109	H	1.349939	-0.920717	0.464274
H110	H	1.337344	-0.801374	0.324966
H111	H	1.417608	-0.869450	0.319274
