data_functionalizedCrystal
_audit_creation_method	'MofGen! by Chris Wilmer'
_symmetry_space_group_name_H-M	'P1'
_symmetry_Int_Tables_number	1
_symmetry_cell_setting	triclinic
loop_
_symmetry_equiv_pos_as_xyz
  x,y,z
_cell_length_a	12.759400
_cell_length_b	21.395362
_cell_length_c	12.759386
_cell_angle_alpha	90.062959
_cell_angle_beta	89.936066
_cell_angle_gamma	89.969436
loop_
_atom_site_label
_atom_site_type_symbol
_atom_site_fract_x
_atom_site_fract_y
_atom_site_fract_z
Zn1	Zn	-0.417423	-0.958047	-0.594615
Zn2	Zn	-0.593241	-0.957944	-0.418935
Zn3	Zn	-0.417625	-0.853227	-0.418885
Zn4	Zn	-0.593109	-0.853260	-0.594508
O5	O	-0.505350	-0.905620	-0.506736
O6	O	-0.440716	-1.045711	-0.571377
O7	O	-0.570085	-0.943996	-0.271907
O8	O	-0.270577	-0.867161	-0.442220
O9	O	-0.569889	-1.045636	-0.442306
O10	O	-0.270429	-0.944172	-0.571329
O11	O	-0.441061	-0.867061	-0.271871
O12	O	-0.440933	-0.765554	-0.442116
O13	O	-0.569664	-0.867218	-0.741543
O14	O	-0.569860	-0.765578	-0.571145
O15	O	-0.440588	-0.944204	-0.741622
O16	O	-0.740245	-0.944028	-0.442201
O17	O	-0.740148	-0.867118	-0.571193
C18	C	-0.505405	-0.742832	-0.506614
C19	C	-0.505454	-0.673191	-0.506587
C20	C	-0.778317	-0.905583	-0.506714
C21	C	-0.895094	-0.905624	-0.506740
C22	C	-0.505089	-0.905726	-0.780770
C23	C	-0.504977	-0.905771	-0.897547
C24	C	-0.949971	-0.945716	-0.439648
C25	C	-1.059695	-0.945754	-0.439680
C26	C	-1.059654	-0.865604	-0.573900
C27	C	-0.949932	-0.865569	-0.573872
C28	C	-0.949995	-0.991988	-0.362154
C29	C	-1.059719	-0.992027	-0.362186
C30	C	-0.231316	-0.905674	-0.506781
C31	C	-0.114539	-0.905697	-0.506800
C32	C	-0.505294	-1.069043	-0.506859
C33	C	-0.505271	-1.138684	-0.506911
C34	C	-0.572676	-0.640507	-0.573672
C35	C	-0.572650	-0.575071	-0.573718
C36	C	-0.505414	-0.542322	-0.506662
C37	C	-0.438179	-0.575014	-0.439572
C38	C	-0.438199	-0.640448	-0.439535
C39	C	-0.497033	-0.438578	-0.412079
C40	C	-0.497020	-0.373145	-0.412114
C41	C	-0.505345	-0.340502	-0.506778
C42	C	-0.513705	-0.373300	-0.601408
C43	C	-0.513726	-0.438734	-0.601371
C44	C	-0.505384	-0.471370	-0.506695
C45	C	-0.572542	-0.236865	-0.573919
C46	C	-0.572509	-0.171429	-0.573967
C47	C	-0.438044	-0.171373	-0.439812
C48	C	-0.438071	-0.236808	-0.439773
C49	C	-0.505326	-0.269551	-0.506825
C50	C	-0.505534	-0.905550	-0.233768
C51	C	-0.505349	-0.905626	-0.116992
C52	C	-0.571938	-0.946010	-0.062097
C53	C	-0.571755	-0.946081	0.047627
C54	C	-0.438385	-0.865383	0.047550
C55	C	-0.438574	-0.865309	-0.062171
C56	C	-0.648935	-0.992602	-0.062052
C57	C	-0.648752	-0.992673	0.047672
H58	H	-0.905252	-0.832929	-0.628513
H59	H	-0.619269	-1.038552	-0.096340
H60	H	-0.520530	-0.465436	-0.678422
H61	H	-0.627300	-0.263525	-0.628522
H62	H	-0.384020	-0.832558	0.092199
H63	H	-0.383294	-0.144709	-0.385218
H64	H	-0.726217	-0.975651	0.081985
H65	H	-0.627438	-0.667161	-0.628272
H66	H	-0.627247	-0.144819	-0.628603
H67	H	-0.384362	-0.832418	-0.106863
H68	H	-0.626292	-1.041127	0.077207
H69	H	-1.089634	-0.979045	-0.280797
H70	H	-0.730518	-0.979925	-0.091549
H71	H	-0.627389	-0.548455	-0.628351
H72	H	-1.104317	-0.832993	-0.628557
H73	H	-0.920103	-1.040503	-0.384037
H74	H	-0.520483	-0.346724	-0.678492
H75	H	-0.383338	-0.263420	-0.385140
H76	H	-0.490219	-0.346445	-0.335060
H77	H	-1.093626	-1.038134	-0.391429
H78	H	-0.916100	-0.974601	-0.284816
H79	H	-0.383433	-0.548346	-0.384976
H80	H	-0.490249	-0.465150	-0.334987
H81	H	-0.383456	-0.667059	-0.384906
