data_functionalizedCrystal
_audit_creation_method	'MofGen! by Chris Wilmer'
_symmetry_space_group_name_H-M	'P1'
_symmetry_Int_Tables_number	1
_symmetry_cell_setting	triclinic
loop_
_symmetry_equiv_pos_as_xyz
  x,y,z
_cell_length_a	12.759401
_cell_length_b	12.759400
_cell_length_c	12.759393
_cell_angle_alpha	90.029373
_cell_angle_beta	90.019676
_cell_angle_gamma	90.013592
loop_
_atom_site_label
_atom_site_type_symbol
_atom_site_fract_x
_atom_site_fract_y
_atom_site_fract_z
Zn1	Zn	1.606278	-0.418204	0.593993
Zn2	Zn	2.106278	0.081796	1.093993
Zn3	Zn	1.606173	-0.593919	0.418316
Zn4	Zn	2.106173	-0.093919	0.918316
Zn5	Zn	1.430576	-0.418256	0.418332
Zn6	Zn	1.930576	0.081744	0.918332
Zn7	Zn	1.430573	-0.593842	0.593958
Zn8	Zn	1.930573	-0.093842	1.093958
O9	O	1.518400	-0.506055	0.506150
O10	O	2.018400	-0.006055	1.006150
O11	O	1.753285	-0.441523	0.570697
O12	O	2.253285	0.058477	1.070697
O13	O	1.582838	-0.570671	0.271297
O14	O	2.082838	-0.070671	0.771297
O15	O	1.453928	-0.271228	0.441655
O16	O	1.953928	0.228772	0.941655
O17	O	1.753208	-0.570620	0.441629
O18	O	2.253208	-0.070620	0.941629
O19	O	1.583015	-0.271189	0.570712
O20	O	2.083015	0.228811	1.070712
O21	O	1.453827	-0.441612	0.271309
O22	O	1.953827	0.058388	0.771309
O23	O	1.283555	-0.441538	0.441621
O24	O	1.783555	0.058462	0.941621
O25	O	1.453923	-0.570489	0.740983
O26	O	1.953923	-0.070489	1.240983
O27	O	1.283552	-0.570540	0.570652
O28	O	1.783552	-0.070540	1.070652
O29	O	1.583012	-0.441448	0.741009
O30	O	2.083012	0.058552	1.241009
O31	O	1.582835	-0.740930	0.441594
O32	O	2.082835	-0.240930	0.941594
O33	O	1.453822	-0.740874	0.570637
O34	O	1.953822	-0.240874	1.070637
C35	C	1.245433	-0.506037	0.506135
C36	C	1.745433	-0.006037	1.006135
C37	C	1.128656	-0.506055	0.506153
C38	C	1.628656	-0.006055	1.006153
C39	C	1.073835	-0.438955	0.573463
C40	C	1.573835	0.061045	1.073463
C41	C	0.964110	-0.438966	0.573470
C42	C	1.464110	0.061034	1.073470
C43	C	0.964039	-0.573185	0.438855
C44	C	1.464039	-0.073185	0.938855
C45	C	1.073761	-0.573168	0.438843
C46	C	1.573761	-0.073168	0.938843
C47	C	1.518345	-0.779023	0.506133
C48	C	2.018345	-0.279023	1.006133
C49	C	1.518417	-0.895799	0.506161
C50	C	2.018417	-0.395799	1.006161
C51	C	1.585599	-0.950561	0.573416
C52	C	2.085599	-0.450561	1.073416
C53	C	1.585648	-1.060285	0.573442
C54	C	2.085648	-0.560285	1.073442
C55	C	1.451330	-1.060475	0.438948
C56	C	1.951330	-0.560475	0.938948
C57	C	1.451277	-0.950753	0.438929
C58	C	1.951277	-0.450753	0.938929
C59	C	1.663150	-0.950453	0.651062
C60	C	2.163150	-0.450453	1.151062
C61	C	1.663199	-1.060177	0.651088
C62	C	2.163199	-0.560177	1.151088
C63	C	1.792433	-0.506074	0.506165
C64	C	2.292433	-0.006074	1.006165
C65	C	1.909210	-0.506082	0.506172
C66	C	2.409210	-0.006082	1.006172
C67	C	1.518479	-0.505954	0.780183
C68	C	2.018479	-0.005954	1.280183
C69	C	1.518512	-0.505911	0.896960
C70	C	2.018512	-0.005911	1.396960
C71	C	1.518484	-0.232022	0.506189
C72	C	2.018484	0.267978	1.006189
C73	C	1.518520	-0.115245	0.506206
C74	C	2.018520	0.384755	1.006206
C75	C	1.518382	-0.506080	0.233182
C76	C	2.018382	-0.006080	0.733182
C77	C	1.518552	-0.505827	0.116406
C78	C	2.018552	-0.005827	0.616406
C79	C	1.585734	-0.438709	0.951837
C80	C	2.085734	0.061291	1.451837
C81	C	1.585752	-0.438664	1.061561
C82	C	2.085752	0.061336	1.561561
C83	C	1.451323	-0.573032	1.061521
C84	C	1.951323	-0.073032	1.561521
C85	C	1.451301	-0.573071	0.951799
C86	C	1.951301	-0.073071	1.451799
H87	H	0.919480	-0.384325	0.628279
H88	H	1.419480	0.115675	1.128279
N89	N	1.658221	-0.366275	0.892687
N90	N	2.158221	0.133725	1.392687
H91	H	1.700807	-0.323695	0.944105
H92	H	2.200807	0.176305	1.444105
H93	H	1.615463	-0.317667	0.847162
H94	H	2.115463	0.182333	1.347162
N95	N	0.904827	-0.645582	0.366275
N96	N	1.404827	-0.145582	0.866275
H97	H	0.956209	-0.688086	0.323632
H98	H	1.456209	-0.188086	0.823632
H99	H	0.859281	-0.602768	0.317733
H100	H	1.359281	-0.102768	0.817733
H101	H	1.118398	-0.627810	0.384026
H102	H	1.618398	-0.127810	0.884026
N103	N	1.133045	-0.366571	0.646057
N104	N	1.633045	0.133429	1.146057
H105	H	1.081662	-0.324065	0.688697
H106	H	1.581662	0.175935	1.188697
H107	H	1.178556	-0.317893	0.603370
H108	H	1.678556	0.182107	1.103370
H109	H	1.396604	-0.627714	1.106185
H110	H	1.896604	-0.127714	1.606185
N111	N	1.378814	-0.891690	0.366390
N112	N	1.878814	-0.391690	0.866390
H113	H	1.388965	-0.813842	0.376578
H114	H	1.888965	-0.313842	0.876578
H115	H	1.303783	-0.910913	0.382690
H116	H	1.803783	-0.410913	0.882690
H117	H	1.396666	-1.105232	0.384211
H118	H	1.896666	-0.605232	0.884211
H119	H	1.641305	-0.920636	0.732409
H120	H	2.141305	-0.420636	1.232409
H121	H	1.640489	-0.383939	1.106237
H122	H	2.140489	0.116061	1.606237
H123	H	1.740441	-0.916384	0.621974
H124	H	2.240441	-0.416384	1.121974
N125	N	1.624555	-1.105223	0.753442
N126	N	2.124555	-0.605223	1.253442
H127	H	1.605851	-1.046286	0.802882
H128	H	2.105851	-0.546286	1.302882
H129	H	1.681446	-1.149742	0.785776
H130	H	2.181446	-0.649742	1.285776
H131	H	1.744596	-1.089912	0.629373
H132	H	2.244596	-0.589912	1.129373
N133	N	1.378772	-0.645536	0.892601
N134	N	1.878772	-0.145536	1.392601
H135	H	1.336197	-0.688076	0.943988
H136	H	1.836197	-0.188076	1.443988
H137	H	1.421496	-0.694181	0.847063
H138	H	1.921496	-0.194181	1.347063
