data_functionalizedCrystal
_audit_creation_method	'MofGen! by Chris Wilmer'
_symmetry_space_group_name_H-M	'P1'
_symmetry_Int_Tables_number	1
_symmetry_cell_setting	triclinic
loop_
_symmetry_equiv_pos_as_xyz
  x,y,z
_cell_length_a	12.759401
_cell_length_b	17.077402
_cell_length_c	12.759393
_cell_angle_alpha	89.964187
_cell_angle_beta	89.980163
_cell_angle_gamma	90.024408
loop_
_atom_site_label
_atom_site_type_symbol
_atom_site_fract_x
_atom_site_fract_y
_atom_site_fract_z
Zn1	Zn	1.606195	-0.312430	-0.593990
Zn2	Zn	1.606065	-0.443718	-0.418297
Zn3	Zn	1.430497	-0.312474	-0.418325
Zn4	Zn	1.430461	-0.443661	-0.593934
O5	O	1.518304	-0.378071	-0.506136
O6	O	1.753199	-0.329851	-0.570695
O7	O	1.582736	-0.426351	-0.271279
O8	O	1.453874	-0.202621	-0.441662
O9	O	1.753103	-0.426308	-0.441614
O10	O	1.582958	-0.202588	-0.570722
O11	O	1.453747	-0.329926	-0.271300
O12	O	1.283471	-0.329871	-0.441608
O13	O	1.453812	-0.426210	-0.740962
O14	O	1.283445	-0.426253	-0.570627
O15	O	1.582923	-0.329795	-0.741003
O16	O	1.582700	-0.553558	-0.441560
O17	O	1.453685	-0.553515	-0.570600
C18	C	1.245337	-0.378061	-0.506115
C19	C	1.128560	-0.378076	-0.506131
C20	C	1.073712	-0.428339	-0.573206
C21	C	0.963988	-0.428342	-0.573227
C22	C	0.963970	-0.327817	-0.439089
C23	C	1.073693	-0.327811	-0.439075
C24	C	1.518203	-0.582018	-0.506094
C25	C	1.518256	-0.669268	-0.506111
C26	C	1.585503	-0.710254	-0.438993
C27	C	1.585554	-0.792235	-0.439019
C28	C	1.518352	-0.833228	-0.506161
C29	C	1.451103	-0.792236	-0.573287
C30	C	1.451057	-0.710257	-0.573265
C31	C	1.451200	-0.963106	-0.573327
C32	C	1.451244	-1.045090	-0.573348
C33	C	1.585697	-1.045084	-0.439082
C34	C	1.585651	-0.963105	-0.439059
C35	C	1.518400	-0.922119	-0.506184
C36	C	1.792338	-0.378081	-0.506158
C37	C	1.909114	-0.378085	-0.506167
C38	C	1.518378	-0.377991	-0.780170
C39	C	1.518409	-0.377957	-0.896946
C40	C	1.518435	-0.173326	-0.506201
C41	C	1.518490	-0.086076	-0.506229
C42	C	1.451269	-0.327740	-0.951819
C43	C	1.451293	-0.327716	-1.061543
C44	C	1.585607	-0.428129	-1.061513
C45	C	1.585577	-0.428156	-0.951791
C46	C	1.518292	-0.378093	-0.233169
C47	C	1.518464	-0.377906	-0.116393
H48	H	1.640221	-0.676883	-0.384314
C49	C	1.718434	-0.783994	-0.306289
C50	C	1.659468	-0.837286	-0.365234
H51	H	1.764062	-0.811808	-0.260731
H52	H	1.758580	-0.751967	-0.352087
H53	H	1.672646	-0.752072	-0.266059
H54	H	1.705256	-0.869205	-0.405470
H55	H	1.619319	-0.869327	-0.319430
H56	H	1.396577	-0.286865	-0.907168
C57	C	1.718591	-1.036839	-0.306353
C58	C	1.659625	-1.090131	-0.365297
H59	H	1.764221	-1.064653	-0.260796
H60	H	1.758736	-1.004811	-0.352151
H61	H	1.672804	-1.004917	-0.266121
H62	H	1.705412	-1.122049	-0.405534
H63	H	1.619477	-1.122172	-0.319492
C64	C	1.318364	-1.036867	-0.706091
C65	C	1.377390	-1.090152	-0.647165
H66	H	1.272778	-1.064688	-0.751669
H67	H	1.278171	-1.004950	-0.660283
H68	H	1.364117	-1.004835	-0.746299
H69	H	1.331637	-1.122180	-0.606951
H70	H	1.417586	-1.122083	-0.692979
H71	H	1.396620	-0.286824	-1.106215
C72	C	0.930224	-0.194851	-0.388244
C73	C	0.903658	-0.272571	-0.365377
H74	H	0.892986	-0.160746	-0.342737
H75	H	1.003412	-0.187660	-0.378634
H76	H	0.912272	-0.183437	-0.458866
H77	H	0.921617	-0.283987	-0.294756
H78	H	0.830454	-0.279765	-0.374977
H79	H	1.396440	-0.929738	-0.627991
H80	H	1.396390	-0.825619	-0.627959
H81	H	1.640294	-0.468998	-1.106180
C82	C	1.107422	-0.289414	-0.261253
C83	C	1.133993	-0.272560	-0.365338
H84	H	1.144656	-0.255308	-0.215737
H85	H	1.034233	-0.282220	-0.251667
H86	H	1.125376	-0.342144	-0.245761
H87	H	1.116032	-0.219832	-0.380832
H88	H	1.207198	-0.279748	-0.374928
C89	C	1.318162	-0.718493	-0.705982
C90	C	1.377139	-0.665202	-0.647046
H91	H	1.272527	-0.690676	-0.751532
H92	H	1.363934	-0.750415	-0.746211
H93	H	1.278012	-0.750519	-0.660171
H94	H	1.417295	-0.633179	-0.692857
H95	H	1.331361	-0.633266	-0.606814
H96	H	1.640367	-0.929728	-0.384383
C97	C	1.062704	-0.527694	-0.705808
C98	C	1.134024	-0.483580	-0.646925
H99	H	1.099939	-0.561793	-0.751326
H100	H	1.019877	-0.557683	-0.659968
H101	H	1.019941	-0.493520	-0.746076
H102	H	1.176783	-0.517754	-0.606651
H103	H	1.176869	-0.453589	-0.692771
C104	C	0.840673	-0.439383	-0.714547
C105	C	0.903700	-0.483593	-0.646957
H106	H	0.803460	-0.473495	-0.760071
H107	H	0.792294	-0.409459	-0.674614
H108	H	0.883527	-0.405219	-0.754806
H109	H	0.860845	-0.517753	-0.606692
H110	H	0.952085	-0.513530	-0.686894
C111	C	1.718357	-0.527406	-0.962774
C112	C	1.659386	-0.483358	-0.891467
H113	H	1.763922	-0.561481	-0.925529
H114	H	1.672576	-0.557419	-1.005553
H115	H	1.758579	-0.493190	-1.005587
H116	H	1.619157	-0.517575	-0.848659
H117	H	1.705172	-0.453343	-0.848670
