data_functionalizedCrystal
_audit_creation_method	'MofGen! by Chris Wilmer'
_symmetry_space_group_name_H-M	'P1'
_symmetry_Int_Tables_number	1
_symmetry_cell_setting	triclinic
loop_
_symmetry_equiv_pos_as_xyz
  x,y,z
_cell_length_a	12.759401
_cell_length_b	12.759399
_cell_length_c	12.759393
_cell_angle_alpha	89.969094
_cell_angle_beta	89.979062
_cell_angle_gamma	90.016641
loop_
_atom_site_label
_atom_site_type_symbol
_atom_site_fract_x
_atom_site_fract_y
_atom_site_fract_z
Zn1	Zn	1.606263	-0.418173	-0.594017
Zn2	Zn	2.106263	0.081827	-0.094017
Zn3	Zn	1.606153	-0.593888	-0.418336
Zn4	Zn	2.106153	-0.093888	0.081664
Zn5	Zn	1.430562	-0.418229	-0.418352
Zn6	Zn	1.930562	0.081771	0.081648
Zn7	Zn	1.430553	-0.593815	-0.593973
Zn8	Zn	1.930553	-0.093815	-0.093973
O9	O	1.518383	-0.506026	-0.506170
O10	O	2.018383	-0.006026	-0.006170
O11	O	1.753270	-0.441489	-0.570724
O12	O	2.253270	0.058511	-0.070724
O13	O	1.582818	-0.570641	-0.271317
O14	O	2.082818	-0.070641	0.228683
O15	O	1.453919	-0.271200	-0.441680
O16	O	1.953919	0.228800	0.058320
O17	O	1.753189	-0.570587	-0.441652
O18	O	2.253189	-0.070587	0.058348
O19	O	1.583006	-0.271159	-0.570740
O20	O	2.083006	0.228841	-0.070740
O21	O	1.453812	-0.441584	-0.271329
O22	O	1.953812	0.058416	0.228671
O23	O	1.283540	-0.441513	-0.441637
O24	O	1.783540	0.058487	0.058363
O25	O	1.453903	-0.570461	-0.741000
O26	O	1.953903	-0.070461	-0.241000
O27	O	1.283533	-0.570516	-0.570665
O28	O	1.783533	-0.070516	-0.070665
O29	O	1.582997	-0.441418	-0.741032
O30	O	2.082997	0.058582	-0.241032
O31	O	1.582809	-0.740900	-0.441609
O32	O	2.082809	-0.240900	0.058391
O33	O	1.453796	-0.740846	-0.570649
O34	O	1.953796	-0.240846	-0.070649
C35	C	1.245415	-0.506013	-0.506149
C36	C	1.745415	-0.006013	-0.006149
C37	C	1.128639	-0.506033	-0.506165
C38	C	1.628639	-0.006033	-0.006165
C39	C	1.518318	-0.778994	-0.506146
C40	C	2.018318	-0.278994	-0.006146
C41	C	1.518387	-0.895770	-0.506171
C42	C	2.018387	-0.395770	-0.006171
C43	C	1.073801	-0.573307	-0.573244
C44	C	1.573801	-0.073307	-0.073244
C45	C	0.964077	-0.573311	-0.573265
C46	C	1.464077	-0.073311	-0.073265
C47	C	0.964038	-0.438764	-0.439118
C48	C	1.464038	0.061236	0.060882
C49	C	1.073760	-0.438756	-0.439104
C50	C	1.573760	0.061244	0.060896
C51	C	1.585641	-0.950625	-0.439056
C52	C	2.085641	-0.450625	0.060944
C53	C	1.585708	-1.060349	-0.439091
C54	C	2.085708	-0.560349	0.060909
C55	C	1.451259	-1.060353	-0.573359
C56	C	1.951259	-0.560353	-0.073359
C57	C	1.451198	-0.950631	-0.573328
C58	C	1.951198	-0.450631	-0.073328
C59	C	1.792416	-0.506040	-0.506191
C60	C	2.292416	-0.006040	-0.006191
C61	C	1.909193	-0.506046	-0.506200
C62	C	2.409193	-0.006046	-0.006200
C63	C	1.518461	-0.505925	-0.780203
C64	C	2.018461	-0.005925	-0.280203
C65	C	1.518495	-0.505882	-0.896980
C66	C	2.018495	-0.005882	-0.396980
C67	C	1.518476	-0.231993	-0.506217
C68	C	2.018476	0.268007	-0.006217
C69	C	1.518516	-0.115216	-0.506237
C70	C	2.018516	0.384784	-0.006237
C71	C	1.585719	-0.438679	-0.951860
C72	C	2.085719	0.061321	-0.451860
C73	C	1.585737	-0.438633	-1.061584
C74	C	2.085737	0.061367	-0.561584
C75	C	1.451303	-0.573004	-1.061538
C76	C	1.951303	-0.073004	-0.561538
C77	C	1.451281	-0.573044	-0.951816
C78	C	1.951281	-0.073044	-0.451816
C79	C	1.518365	-0.506051	-0.233202
C80	C	2.018365	-0.006051	0.266798
C81	C	1.518535	-0.505798	-0.116426
C82	C	2.018535	-0.005798	0.383574
H83	H	0.919432	-0.628090	-0.627889
H84	H	1.419432	-0.128090	-0.127889
H85	H	0.919343	-0.383991	-0.384518
H86	H	1.419343	0.116009	0.115482
C87	C	1.378331	-0.645899	-0.892034
C88	C	1.878331	-0.145899	-0.392034
C89	C	1.392678	-0.631534	-0.784208
C90	C	1.892678	-0.131534	-0.284208
C91	C	1.325486	-0.698614	-0.729104
C92	C	1.825486	-0.198614	-0.229104
H93	H	1.393616	-0.716529	-0.909874
H94	H	1.893616	-0.216529	-0.409874
H95	H	1.307727	-0.630501	-0.909945
H96	H	1.807727	-0.130501	-0.409945
H97	H	1.463266	-0.646940	-0.766303
H98	H	1.963266	-0.146940	-0.266303
H99	H	1.377385	-0.560919	-0.766336
H100	H	1.877385	-0.060919	-0.266336
H101	H	1.254881	-0.683215	-0.747015
H102	H	1.754881	-0.183215	-0.247015
H103	H	1.340776	-0.769239	-0.746953
H104	H	1.840776	-0.269239	-0.246953
H105	H	1.335204	-0.688869	-0.655938
H106	H	1.835204	-0.188869	-0.155938
H107	H	1.640476	-0.383908	-1.106263
H108	H	2.140476	0.116092	-0.606263
H109	H	1.640446	-0.383989	-0.907216
H110	H	2.140446	0.116011	-0.407216
C111	C	1.378401	-0.646097	-1.120944
C112	C	1.878401	-0.146097	-0.620944
C113	C	1.401217	-0.750056	-1.094217
C114	C	1.901217	-0.250056	-0.594217
C115	C	1.334073	-0.817421	-1.148908
C116	C	1.834073	-0.317421	-0.648908
H117	H	1.387977	-0.636595	-1.194167
H118	H	1.887977	-0.136595	-0.694167
H119	H	1.307793	-0.630786	-1.102934
H120	H	1.807793	-0.130786	-0.602934
H121	H	1.471808	-0.765362	-1.112234
H122	H	1.971808	-0.265362	-0.612234
H123	H	1.391635	-0.759592	-1.021003
H124	H	1.891635	-0.259592	-0.521003
H125	H	1.263466	-0.802110	-1.130897
H126	H	1.763466	-0.302110	-0.630897
H127	H	1.343655	-0.807909	-1.222128
H128	H	1.843655	-0.307909	-0.722128
H129	H	1.349539	-0.887964	-1.130774
H130	H	1.849539	-0.387964	-0.630774
C131	C	1.378477	-1.120055	-0.646321
C132	C	1.878477	-0.620055	-0.146321
C133	C	1.437962	-1.182965	-0.713711
C134	C	1.937962	-0.682965	-0.213711
C135	C	1.370947	-1.237986	-0.780928
C136	C	1.870947	-0.737986	-0.280928
H137	H	1.338390	-1.071790	-0.686391
H138	H	1.838390	-0.571790	-0.186391
H139	H	1.332761	-1.162988	-0.606129
H140	H	1.832761	-0.662988	-0.106129
H141	H	1.483659	-1.140036	-0.753899
H142	H	1.983659	-0.640036	-0.253899
H143	H	1.478047	-1.231250	-0.673671
H144	H	1.978047	-0.731250	-0.173671
H145	H	1.325231	-1.280919	-0.740736
H146	H	1.825231	-0.780919	-0.240736
H147	H	1.330863	-1.189713	-0.820990
H148	H	1.830863	-0.689713	-0.320990
H149	H	1.411297	-1.280683	-0.826653
H150	H	1.911297	-0.780683	-0.326653
C151	C	1.378060	-0.891255	-0.646240
C152	C	1.878060	-0.391255	-0.146240
C153	C	1.319206	-0.962782	-0.705035
C154	C	1.819206	-0.462782	-0.205035
C155	C	1.251818	-0.908124	-0.772201
C156	C	1.751818	-0.408124	-0.272201
H157	H	1.418089	-0.848378	-0.692131
H158	H	1.918089	-0.348378	-0.192131
H159	H	1.332224	-0.848546	-0.606021
H160	H	1.832224	-0.348546	-0.106021
H161	H	1.365036	-1.005474	-0.745250
H162	H	1.865036	-0.505474	-0.245250
H163	H	1.279155	-1.005661	-0.659172
H164	H	1.779155	-0.505661	-0.159172
H165	H	1.205983	-0.865414	-0.731983
H166	H	1.705983	-0.365414	-0.231983
H167	H	1.291856	-0.865248	-0.818085
H168	H	1.791856	-0.365248	-0.318085
H169	H	1.211871	-0.956646	-0.812095
H170	H	1.711871	-0.456646	-0.312095
H171	H	1.118479	-0.628086	-0.627852
H172	H	1.618479	-0.128086	-0.127852
H173	H	1.118411	-0.383967	-0.384480
H174	H	1.618411	0.116033	0.115520
H175	H	1.640352	-0.905960	-0.384374
H176	H	2.140352	-0.405960	0.115626
H177	H	1.640474	-1.105007	-0.384441
H178	H	2.140474	-0.605007	0.115559
