data_functionalizedCrystal
_audit_creation_method	'MofGen! by Chris Wilmer'
_symmetry_space_group_name_H-M	'P1'
_symmetry_Int_Tables_number	1
_symmetry_cell_setting	triclinic
loop_
_symmetry_equiv_pos_as_xyz
  x,y,z
_cell_length_a	12.759401
_cell_length_b	17.077402
_cell_length_c	12.759393
_cell_angle_alpha	89.964187
_cell_angle_beta	89.980163
_cell_angle_gamma	90.024408
loop_
_atom_site_label
_atom_site_type_symbol
_atom_site_fract_x
_atom_site_fract_y
_atom_site_fract_z
Zn1	Zn	1.606195	-0.312430	-0.593990
Zn2	Zn	1.606065	-0.443718	-0.418297
Zn3	Zn	1.430497	-0.312474	-0.418325
Zn4	Zn	1.430461	-0.443661	-0.593934
O5	O	1.518304	-0.378071	-0.506136
O6	O	1.753199	-0.329851	-0.570695
O7	O	1.582736	-0.426351	-0.271279
O8	O	1.453874	-0.202621	-0.441662
O9	O	1.753103	-0.426308	-0.441614
O10	O	1.582958	-0.202588	-0.570722
O11	O	1.453747	-0.329926	-0.271300
O12	O	1.283471	-0.329871	-0.441608
O13	O	1.453812	-0.426210	-0.740962
O14	O	1.283445	-0.426253	-0.570627
O15	O	1.582923	-0.329795	-0.741003
O16	O	1.582700	-0.553558	-0.441560
O17	O	1.453685	-0.553515	-0.570600
C18	C	1.245337	-0.378061	-0.506115
C19	C	1.128560	-0.378076	-0.506131
C20	C	1.073712	-0.428339	-0.573206
C21	C	0.963988	-0.428342	-0.573227
C22	C	0.963970	-0.327817	-0.439089
C23	C	1.073693	-0.327811	-0.439075
C24	C	1.518203	-0.582018	-0.506094
C25	C	1.518256	-0.669268	-0.506111
C26	C	1.585503	-0.710254	-0.438993
C27	C	1.585554	-0.792235	-0.439019
C28	C	1.518352	-0.833228	-0.506161
C29	C	1.451103	-0.792236	-0.573287
C30	C	1.451057	-0.710257	-0.573265
C31	C	1.451200	-0.963106	-0.573327
C32	C	1.451244	-1.045090	-0.573348
C33	C	1.585697	-1.045084	-0.439082
C34	C	1.585651	-0.963105	-0.439059
C35	C	1.518400	-0.922119	-0.506184
C36	C	1.792338	-0.378081	-0.506158
C37	C	1.909114	-0.378085	-0.506167
C38	C	1.518378	-0.377991	-0.780170
C39	C	1.518409	-0.377957	-0.896946
C40	C	1.518435	-0.173326	-0.506201
C41	C	1.518490	-0.086076	-0.506229
C42	C	1.451269	-0.327740	-0.951819
C43	C	1.451293	-0.327716	-1.061543
C44	C	1.585607	-0.428129	-1.061513
C45	C	1.585577	-0.428156	-0.951791
C46	C	1.518292	-0.378093	-0.233169
C47	C	1.518464	-0.377906	-0.116393
H48	H	1.118351	-0.286876	-0.384454
H49	H	1.640221	-0.676883	-0.384314
H50	H	1.640367	-0.929728	-0.384383
H51	H	1.118382	-0.469266	-0.627811
H52	H	1.640459	-1.078458	-0.384429
F53	F	1.657131	-0.835852	-0.367585
H54	H	0.919335	-0.469269	-0.627847
F55	F	1.379711	-1.088717	-0.644797
F56	F	1.379487	-0.666637	-0.644705
H57	H	1.396620	-0.286824	-1.106215
H58	H	0.919284	-0.286894	-0.384493
H59	H	1.396440	-0.929738	-0.627991
H60	H	1.396390	-0.825619	-0.627959
F61	F	1.379781	-0.274316	-0.893453
F62	F	1.657089	-0.481550	-1.119891
H63	H	1.640253	-0.469052	-0.907113
