data_functionalizedCrystal
_audit_creation_method	'MofGen! by Chris Wilmer'
_symmetry_space_group_name_H-M	'P1'
_symmetry_Int_Tables_number	1
_symmetry_cell_setting	triclinic
loop_
_symmetry_equiv_pos_as_xyz
  x,y,z
_cell_length_a	21.395364
_cell_length_b	21.395361
_cell_length_c	21.395355
_cell_angle_alpha	89.978489
_cell_angle_beta	89.975273
_cell_angle_gamma	90.029041
loop_
_atom_site_label
_atom_site_type_symbol
_atom_site_fract_x
_atom_site_fract_y
_atom_site_fract_z
Zn1	Zn	0.957859	-0.249539	-0.354251
Zn2	Zn	1.457859	0.250461	0.145749
Zn3	Zn	0.957762	-0.354299	-0.249468
Zn4	Zn	1.457762	0.145701	0.250532
Zn5	Zn	0.853074	-0.249536	-0.249488
Zn6	Zn	1.353074	0.250464	0.250512
Zn7	Zn	0.853043	-0.354280	-0.354208
Zn8	Zn	1.353043	0.145720	0.145792
O9	O	0.905434	-0.301913	-0.301854
O10	O	1.405434	0.198087	0.198146
O11	O	1.045524	-0.263445	-0.340362
O12	O	1.545524	0.236555	0.159638
O13	O	0.943847	-0.340409	-0.161793
O14	O	1.443847	0.159591	0.338207
O15	O	0.867028	-0.161859	-0.263411
O16	O	1.367028	0.338141	0.236589
O17	O	1.045452	-0.340411	-0.263378
O18	O	1.545452	0.159589	0.236622
O19	O	0.944013	-0.161861	-0.340380
O20	O	1.444013	0.338139	0.159620
O21	O	0.866933	-0.263440	-0.161807
O22	O	1.366933	0.236560	0.338193
O23	O	0.765392	-0.263421	-0.263369
O24	O	1.265392	0.236579	0.236631
O25	O	0.866975	-0.340379	-0.441892
O26	O	1.366975	0.159621	0.058108
O27	O	0.765369	-0.340376	-0.340307
O28	O	1.265369	0.159624	0.159693
O29	O	0.943983	-0.263426	-0.441923
O30	O	1.443983	0.236574	0.058077
O31	O	0.943817	-0.441974	-0.263336
O32	O	1.443817	0.058026	0.236664
O33	O	0.866881	-0.441960	-0.340288
O34	O	1.366881	0.058040	0.159712
C35	C	0.742647	-0.301897	-0.301836
C36	C	1.242647	0.198103	0.198164
C37	C	0.673006	-0.301905	-0.301843
C38	C	1.173006	0.198095	0.198157
C39	C	0.905352	-0.464701	-0.301819
C40	C	1.405352	0.035299	0.198181
C41	C	0.905374	-0.534342	-0.301825
C42	C	1.405374	-0.034342	0.198175
C43	C	0.171214	-0.342057	-0.341877
C44	C	0.671214	0.157943	0.158123
C45	C	0.236649	-0.342057	-0.341870
C46	C	0.736649	0.157943	0.158130
C47	C	0.269367	-0.301927	-0.301874
C48	C	0.769367	0.198073	0.198126
C49	C	0.236644	-0.261805	-0.261870
C50	C	0.736644	0.238195	0.238130
C51	C	0.171210	-0.261811	-0.261873
C52	C	0.671210	0.238189	0.238127
C53	C	0.373056	-0.245462	-0.297025
C54	C	0.873056	0.254538	0.202975
C55	C	0.438489	-0.245455	-0.297027
C56	C	0.938489	0.254545	0.202973
C57	C	0.471188	-0.301911	-0.301860
C58	C	0.971188	0.198089	0.198140
C59	C	0.438446	-0.358374	-0.306705
C60	C	0.938446	0.141626	0.193295
C61	C	0.373012	-0.358380	-0.306709
C62	C	0.873012	0.141620	0.193291
C63	C	0.340320	-0.301917	-0.301865
C64	C	0.840320	0.198083	0.198135
C65	C	0.574856	-0.342033	-0.341851
C66	C	1.074856	0.157967	0.158149
C67	C	0.640292	-0.342034	-0.341840
C68	C	1.140292	0.157966	0.158160
C69	C	0.640286	-0.261777	-0.261843
C70	C	1.140286	0.238223	0.238157
C71	C	0.574850	-0.261781	-0.261851
C72	C	1.074850	0.238219	0.238149
C73	C	0.542139	-0.301909	-0.301858
C74	C	1.042139	0.198091	0.198142
C75	C	0.945470	-0.567042	-0.261797
C76	C	1.445470	-0.067042	0.238203
C77	C	0.945499	-0.632477	-0.261811
C78	C	1.445499	-0.132477	0.238189
C79	C	0.905421	-0.665211	-0.301847
C80	C	1.405421	-0.165211	0.198153
C81	C	0.865322	-0.632503	-0.341882
C82	C	1.365322	-0.132503	0.158118
C83	C	0.865298	-0.567069	-0.341871
C84	C	1.365298	-0.067069	0.158129
C85	C	0.849006	-0.768924	-0.306756
C86	C	1.349006	-0.268924	0.193244
C87	C	0.849029	-0.834357	-0.306763
C88	C	1.349029	-0.334357	0.193237
C89	C	0.905494	-0.867031	-0.301883
C90	C	1.405494	-0.367031	0.198117
C91	C	0.961938	-0.834265	-0.296984
C92	C	1.461938	-0.334265	0.203016
C93	C	0.961915	-0.768830	-0.296974
C94	C	1.461915	-0.268830	0.203026
C95	C	0.905442	-0.736163	-0.301863
C96	C	1.405442	-0.236163	0.198137
C97	C	0.945625	-0.970683	-0.261868
C98	C	1.445625	-0.470683	0.238132
C99	C	0.945655	-1.036120	-0.261887
C100	C	1.445655	-0.536120	0.238113
C101	C	0.865472	-1.036144	-0.341955
C102	C	1.365472	-0.536144	0.158045
C103	C	0.865448	-0.970709	-0.341939
C104	C	1.365448	-0.470709	0.158061
C105	C	0.905523	-0.937983	-0.301893
C106	C	1.405523	-0.437983	0.198107
C107	C	1.068858	-0.301931	-0.301872
C108	C	1.568858	0.198069	0.198128
C109	C	1.138499	-0.301938	-0.301880
C110	C	1.638499	0.198062	0.198120
C111	C	0.905486	-0.301901	-0.465277
C112	C	1.405486	0.198099	0.034723
C113	C	0.905509	-0.301895	-0.534918
C114	C	1.405509	0.198105	-0.034918
C115	C	0.905535	-0.138490	-0.301903
C116	C	1.405535	0.361510	0.198097
C117	C	0.905577	-0.068849	-0.301923
C118	C	1.405577	0.431151	0.198077
C119	C	0.945605	-0.261824	-0.567649
C120	C	1.445605	0.238176	-0.067649
C121	C	0.945604	-0.261797	-0.633085
C122	C	1.445604	0.238203	-0.133085
C123	C	0.905513	-0.301853	-0.665787
C124	C	1.405513	0.198147	-0.165787
C125	C	0.865409	-0.341926	-0.633048
C126	C	1.365409	0.158074	-0.133048
C127	C	0.865407	-0.341948	-0.567614
C128	C	1.365407	0.158052	-0.067614
C129	C	0.900538	-0.358268	-0.769449
C130	C	1.400538	0.141732	-0.269449
C131	C	0.900544	-0.358247	-0.834882
C132	C	1.400544	0.141753	-0.334882
C133	C	0.905517	-0.301786	-0.867608
C134	C	1.405517	0.198214	-0.367608
C135	C	0.910497	-0.245344	-0.834892
C136	C	1.410497	0.254656	-0.334892
C137	C	0.910494	-0.245365	-0.769458
C138	C	1.410494	0.254635	-0.269458
C139	C	0.905511	-0.301834	-0.736739
C140	C	1.405511	0.198166	-0.236739
C141	C	0.945615	-0.261683	-0.971291
C142	C	1.445615	0.238317	-0.471291
C143	C	0.945610	-0.261655	-1.036728
C144	C	1.445610	0.238345	-0.536728
C145	C	0.865418	-0.341789	-1.036690
C146	C	1.365418	0.158211	-0.536690
C147	C	0.865420	-0.341812	-0.971255
C148	C	1.365420	0.158188	-0.471255
C149	C	0.905522	-0.301759	-0.938559
C150	C	1.405522	0.198241	-0.438559
C151	C	0.905419	-0.301881	-0.139066
C152	C	1.405419	0.198119	0.360934
C153	C	0.905518	-0.301710	-0.069425
C154	C	1.405518	0.198290	0.430575
H155	H	0.144585	-0.374734	-0.374452
H156	H	0.644585	0.125266	0.125548
H157	H	0.832795	-0.944083	-0.374531
H158	H	1.332795	-0.444083	0.125469
F159	F	0.988282	-0.219194	-0.532856
F160	F	1.488282	0.280806	-0.032856
H161	H	0.803068	-0.861031	-0.310745
H162	H	1.303068	-0.361031	0.189255
H163	H	0.465068	-0.404345	-0.310646
H164	H	0.965068	0.095655	0.189354
H165	H	0.803022	-0.742327	-0.310732
H166	H	1.303022	-0.242327	0.189268
F167	F	0.271474	-0.384759	-0.384442
F168	F	0.771474	0.115241	0.115558
H169	H	0.832691	-0.659159	-0.374480
H170	H	1.332691	-0.159159	0.125520
F171	F	0.988129	-0.532216	-0.219183
F172	F	1.488129	-0.032216	0.280817
F173	F	0.822746	-0.384463	-0.936419
F174	F	1.322746	0.115537	-0.436419
F175	F	0.473329	-0.185362	-0.291877
F176	F	0.973329	0.314638	0.208123
F177	F	0.271466	-0.219098	-0.219301
F178	F	0.771466	0.280902	0.280699
F179	F	0.915792	-0.185249	-0.869715
F180	F	1.415792	0.314751	-0.369715
F181	F	0.540040	-0.384742	-0.384428
F182	F	1.040040	0.115258	0.115572
F183	F	0.822740	-0.384554	-0.667853
F184	F	1.322740	0.115446	-0.167853
H185	H	0.666924	-0.229104	-0.229275
H186	H	1.166924	0.270896	0.270725
F187	F	0.338168	-0.418470	-0.311863
F188	F	0.838168	0.081530	0.188137
H189	H	0.832647	-0.540444	-0.374468
H190	H	1.332647	-0.040444	0.125532
H191	H	0.346438	-0.199487	-0.293079
H192	H	0.846438	0.300513	0.206921
F193	F	0.988291	-0.219054	-0.936492
F194	F	1.488291	0.280946	-0.436492
F195	F	1.022037	-0.869033	-0.291786
F196	F	1.522037	-0.369033	0.208214
F197	F	0.136391	-0.219108	-0.219302
F198	F	0.636391	0.280892	0.280698
H199	H	0.666928	-0.374708	-0.374408
H200	H	1.166928	0.125292	0.125592
H201	H	0.978152	-0.659107	-0.229216
H202	H	1.478152	-0.159107	0.270784
F203	F	0.915790	-0.185297	-0.734642
F204	F	1.415790	0.314703	-0.234642
F205	F	0.988271	-0.219137	-0.667926
F206	F	1.488271	0.280863	-0.167926
F207	F	0.988295	-0.219011	-1.071562
F208	F	1.488295	0.280989	-0.571562
F209	F	0.822821	-1.070977	-0.384567
F210	F	1.322821	-0.570977	0.115433
F211	F	0.822746	-0.384415	-1.071490
F212	F	1.322746	0.115585	-0.571490
H213	H	0.548214	-0.229110	-0.229284
H214	H	1.048214	0.270890	0.270716
F215	F	0.895250	-0.418318	-0.869695
F216	F	1.395250	0.081682	-0.369695
F217	F	1.021985	-0.733960	-0.291764
F218	F	1.521985	-0.233960	0.208236
H219	H	0.896320	-0.404233	-0.742810
H220	H	1.396320	0.095767	-0.242810
F221	F	0.988275	-0.935851	-0.219248
F222	F	1.488275	-0.435851	0.280752
F223	F	0.822729	-0.384598	-0.532779
F224	F	1.322729	0.115402	-0.032779
F225	F	0.988337	-1.070921	-0.219286
F226	F	1.488337	-0.570921	0.280714
