data_functionalizedCrystal
_audit_creation_method	'MofGen! by Chris Wilmer'
_symmetry_space_group_name_H-M	'P1'
_symmetry_Int_Tables_number	1
_symmetry_cell_setting	triclinic
loop_
_symmetry_equiv_pos_as_xyz
  x,y,z
_cell_length_a	21.395364
_cell_length_b	21.395362
_cell_length_c	17.077396
_cell_angle_alpha	89.967711
_cell_angle_beta	89.980400
_cell_angle_gamma	90.044742
loop_
_atom_site_label
_atom_site_type_symbol
_atom_site_fract_x
_atom_site_fract_y
_atom_site_fract_z
Zn1	Zn	0.957833	-0.249189	-0.443824
Zn2	Zn	1.457833	0.250811	0.056176
Zn3	Zn	0.957746	-0.353970	-0.312549
Zn4	Zn	1.457746	0.146030	0.187451
Zn5	Zn	0.853057	-0.249238	-0.312572
Zn6	Zn	1.353057	0.250762	0.187428
Zn7	Zn	0.853018	-0.353960	-0.443773
Zn8	Zn	1.353018	0.146040	0.056227
O9	O	0.905413	-0.301589	-0.378180
O10	O	1.405413	0.198411	0.121820
O11	O	1.045499	-0.263072	-0.426422
O12	O	1.545499	0.236928	0.073578
O13	O	0.943838	-0.340102	-0.202705
O14	O	1.443838	0.159898	0.297295
O15	O	0.867008	-0.161553	-0.330014
O16	O	1.367008	0.338447	0.169986
O17	O	1.045435	-0.340054	-0.329975
O18	O	1.545435	0.159946	0.170025
O19	O	0.943986	-0.161517	-0.426444
O20	O	1.443986	0.338483	0.073556
O21	O	0.866924	-0.263155	-0.202722
O22	O	1.366924	0.236845	0.297278
O23	O	0.765374	-0.263145	-0.329964
O24	O	1.265374	0.236855	0.170036
O25	O	0.866943	-0.340037	-0.553627
O26	O	1.366943	0.159963	-0.053627
O27	O	0.765346	-0.340084	-0.426357
O28	O	1.265346	0.159916	0.073643
O29	O	0.943949	-0.263062	-0.553664
O30	O	1.443949	0.236938	-0.053664
O31	O	0.943801	-0.441646	-0.329926
O32	O	1.443801	0.058354	0.170074
O33	O	0.866858	-0.441639	-0.426335
O34	O	1.366858	0.058361	0.073665
C35	C	0.742626	-0.301619	-0.378158
C36	C	1.242626	0.198381	0.121842
C37	C	0.672985	-0.301648	-0.378167
C38	C	1.172985	0.198352	0.121833
C39	C	0.640327	-0.261628	-0.428464
C40	C	1.140327	0.238372	0.071536
C41	C	0.574892	-0.261612	-0.428467
C42	C	1.074892	0.238388	0.071533
C43	C	0.542116	-0.301625	-0.378181
C44	C	1.042116	0.198375	0.121819
C45	C	0.574782	-0.341647	-0.327874
C46	C	1.074782	0.158353	0.172126
C47	C	0.640216	-0.341658	-0.327867
C48	C	1.140216	0.158342	0.172133
C49	C	0.438393	-0.358051	-0.371867
C50	C	0.938393	0.141949	0.128133
C51	C	0.372960	-0.358041	-0.371880
C52	C	0.872960	0.141959	0.128120
C53	C	0.340295	-0.301591	-0.378198
C54	C	0.840295	0.198409	0.121802
C55	C	0.373072	-0.245149	-0.384521
C56	C	0.873072	0.254851	0.115479
C57	C	0.438506	-0.245160	-0.384514
C58	C	0.938506	0.254840	0.115486
C59	C	0.471164	-0.301618	-0.378183
C60	C	0.971164	0.198382	0.121817
C61	C	0.236685	-0.261550	-0.428502
C62	C	0.736685	0.238450	0.071498
C63	C	0.171249	-0.261533	-0.428500
C64	C	0.671249	0.238467	0.071500
C65	C	0.171140	-0.341574	-0.327910
C66	C	0.671140	0.158426	0.172090
C67	C	0.236575	-0.341586	-0.327908
C68	C	0.736575	0.158414	0.172092
C69	C	0.269344	-0.301575	-0.378209
C70	C	0.769344	0.198425	0.121791
C71	C	0.905333	-0.464377	-0.378139
C72	C	1.405333	0.035623	0.121861
C73	C	0.905356	-0.534018	-0.378148
C74	C	1.405356	-0.034018	0.121852
C75	C	0.945416	-0.566655	-0.428395
C76	C	1.445416	-0.066655	0.071605
C77	C	0.945438	-0.632091	-0.428415
C78	C	1.445438	-0.132091	0.071585
C79	C	0.905407	-0.664886	-0.378173
C80	C	1.405407	-0.164886	0.121827
C81	C	0.865339	-0.632241	-0.327922
C82	C	1.365339	-0.132241	0.172078
C83	C	0.865314	-0.566807	-0.327910
C84	C	1.365314	-0.066807	0.172090
C85	C	0.900535	-0.768599	-0.307464
C86	C	1.400535	-0.268599	0.192536
C87	C	0.900564	-0.834032	-0.307474
C88	C	1.400564	-0.334032	0.192526
C89	C	0.905481	-0.866707	-0.378211
C90	C	1.405481	-0.366707	0.121789
C91	C	0.910382	-0.833940	-0.448938
C92	C	1.410382	-0.333940	0.051062
C93	C	0.910356	-0.768506	-0.448926
C94	C	1.410356	-0.268506	0.051074
C95	C	0.905430	-0.735838	-0.378181
C96	C	1.405430	-0.235838	0.121819
C97	C	0.945567	-0.970297	-0.428483
C98	C	1.445567	-0.470297	0.071517
C99	C	0.945585	-1.035733	-0.428503
C100	C	1.445585	-0.535733	0.071497
C101	C	0.865489	-1.035882	-0.328004
C102	C	1.365489	-0.535882	0.171996
C103	C	0.865468	-0.970447	-0.327990
C104	C	1.365468	-0.470447	0.172010
C105	C	0.905511	-0.937658	-0.378229
C106	C	1.405511	-0.437658	0.121771
C107	C	1.068837	-0.301559	-0.378202
C108	C	1.568837	0.198441	0.121798
C109	C	1.138478	-0.301546	-0.378212
C110	C	1.638478	0.198454	0.121788
C111	C	0.905451	-0.301543	-0.582924
C112	C	1.405451	0.198457	-0.082924
C113	C	0.905467	-0.301523	-0.670174
C114	C	1.405467	0.198477	-0.170174
C115	C	0.905511	-0.138166	-0.378237
C116	C	1.405511	0.361834	0.121763
C117	C	0.905552	-0.068524	-0.378262
C118	C	1.405552	0.431476	0.121738
C119	C	0.945566	-0.261439	-0.711185
C120	C	1.445566	0.238561	-0.211185
C121	C	0.945574	-0.261418	-0.793165
C122	C	1.445574	0.238582	-0.293165
C123	C	0.905485	-0.301485	-0.834133
C124	C	1.405485	0.198515	-0.334133
C125	C	0.865382	-0.341571	-0.793116
C126	C	1.365382	0.158429	-0.293116
C127	C	0.865372	-0.341588	-0.711137
C128	C	1.365372	0.158412	-0.211137
C129	C	0.865407	-0.341533	-0.963987
C130	C	1.365407	0.158467	-0.463987
C131	C	0.865418	-0.341517	-1.045971
C132	C	1.365418	0.158483	-0.545971
C133	C	0.945609	-0.261363	-1.046015
C134	C	1.445609	0.238637	-0.546015
C135	C	0.945599	-0.261380	-0.964036
C136	C	1.445599	0.238620	-0.464036
C137	C	0.905496	-0.301467	-0.923024
C138	C	1.405496	0.198533	-0.423024
C139	C	0.905412	-0.301590	-0.174232
C140	C	1.405412	0.198410	0.325768
C141	C	0.905517	-0.301433	-0.086982
C142	C	1.405517	0.198567	0.413018
H143	H	0.548297	-0.229020	-0.469424
H144	H	1.048297	0.270980	0.030576
F145	F	0.271562	-0.218964	-0.482030
F146	F	0.771562	0.281036	0.017970
H147	H	0.832744	-0.658947	-0.287016
H148	H	1.332744	-0.158947	0.212984
H149	H	0.978228	-0.228779	-0.826553
H150	H	1.478228	0.271221	-0.326553
H151	H	0.144660	-0.228940	-0.469457
H152	H	0.644660	0.271060	0.030543
F153	F	0.895354	-0.868898	-0.232201
F154	F	1.395354	-0.368898	0.267799
H155	H	0.832742	-0.374166	-0.930598
H156	H	1.332742	0.125834	-0.430598
F157	F	0.473151	-0.418137	-0.365133
F158	F	0.973151	0.081863	0.134867
H159	H	0.832739	-0.374192	-0.826479
H160	H	1.332739	0.125808	-0.326479
H161	H	0.346279	-0.403999	-0.366735
H162	H	0.846279	0.096001	0.133265
H163	H	0.978261	-0.228722	-1.079410
H164	H	1.478261	0.271278	-0.579410
H165	H	0.667003	-0.229048	-0.469422
H166	H	1.167003	0.270952	0.030578
H167	H	0.832713	-0.374222	-0.677747
H168	H	1.332713	0.125778	-0.177747
F169	F	0.473386	-0.185092	-0.391240
F170	F	0.973386	0.314908	0.108760
H171	H	0.978246	-0.228758	-0.930682
H172	H	1.478246	0.271242	-0.430682
F173	F	0.822746	-0.384155	-1.089571
F174	F	1.322746	0.115845	-0.589571
F175	F	0.822831	-0.935710	-0.274509
F176	F	1.322831	-0.435710	0.225491
F177	F	0.988181	-0.935398	-0.481953
F178	F	1.488181	-0.435398	0.018047
H179	H	0.346478	-0.199182	-0.389666
H180	H	0.846478	0.300818	0.110334
F181	F	0.988238	-0.218797	-0.667591
F182	F	1.488238	0.281203	-0.167591
H183	H	0.548092	-0.374226	-0.286930
H184	H	1.048092	0.125774	0.213070
F185	F	0.674973	-0.384253	-0.274329
F186	F	1.174973	0.115747	0.225671
F187	F	0.988218	-1.070469	-0.481994
F188	F	1.488218	-0.570469	0.018006
F189	F	0.988030	-0.531763	-0.481868
F190	F	1.488030	-0.031763	0.018132
H191	H	0.978054	-0.658669	-0.469341
H192	H	1.478054	-0.158669	0.030659
H193	H	0.144455	-0.374154	-0.286966
H194	H	0.644455	0.125846	0.213034
H195	H	0.832891	-1.062583	-0.287101
H196	H	1.332891	-0.562583	0.212899
H197	H	0.914345	-0.741829	-0.506514
H198	H	1.414345	-0.241829	-0.006514
F199	F	0.915617	-0.868710	-0.524227
F200	F	1.415617	-0.368710	-0.024227
F201	F	0.822674	-0.532070	-0.274428
F202	F	1.322674	-0.032070	0.225572
H203	H	0.896528	-0.742001	-0.249858
H204	H	1.396528	-0.242001	0.250142
F205	F	0.271333	-0.384178	-0.274372
F206	F	0.771333	0.115822	0.225628
