data_functionalizedCrystal
_audit_creation_method	'MofGen! by Chris Wilmer'
_symmetry_space_group_name_H-M	'P1'
_symmetry_Int_Tables_number	1
_symmetry_cell_setting	triclinic
loop_
_symmetry_equiv_pos_as_xyz
  x,y,z
_cell_length_a	12.759401
_cell_length_b	12.759399
_cell_length_c	12.759393
_cell_angle_alpha	90.030906
_cell_angle_beta	90.020938
_cell_angle_gamma	90.016641
loop_
_atom_site_label
_atom_site_type_symbol
_atom_site_fract_x
_atom_site_fract_y
_atom_site_fract_z
Zn1	Zn	1.606263	-0.418173	0.594017
Zn2	Zn	1.606153	-0.593888	0.418336
Zn3	Zn	1.430562	-0.418229	0.418352
Zn4	Zn	1.430553	-0.593815	0.593973
O5	O	1.518383	-0.506026	0.506170
O6	O	1.753270	-0.441489	0.570724
O7	O	1.582818	-0.570641	0.271317
O8	O	1.453919	-0.271200	0.441680
O9	O	1.753189	-0.570587	0.441652
O10	O	1.583006	-0.271159	0.570740
O11	O	1.453812	-0.441584	0.271329
O12	O	1.283540	-0.441513	0.441637
O13	O	1.453903	-0.570461	0.741000
O14	O	1.283533	-0.570516	0.570665
O15	O	1.582997	-0.441418	0.741032
O16	O	1.582809	-0.740900	0.441609
O17	O	1.453796	-0.740846	0.570649
C18	C	1.245415	-0.506013	0.506149
C19	C	1.128639	-0.506033	0.506165
C20	C	1.073801	-0.573307	0.573244
C21	C	0.964077	-0.573311	0.573265
C22	C	0.964038	-0.438764	0.439118
C23	C	1.073760	-0.438756	0.439104
C24	C	1.518318	-0.778994	0.506146
C25	C	1.518387	-0.895770	0.506171
C26	C	1.585641	-0.950625	0.439056
C27	C	1.585708	-1.060349	0.439091
C28	C	1.451259	-1.060353	0.573359
C29	C	1.451198	-0.950631	0.573328
C30	C	1.792416	-0.506040	0.506191
C31	C	1.909193	-0.506046	0.506200
C32	C	1.518461	-0.505925	0.780203
C33	C	1.518495	-0.505882	0.896980
C34	C	1.518476	-0.231993	0.506217
C35	C	1.518516	-0.115216	0.506237
C36	C	1.518365	-0.506051	0.233202
C37	C	1.518535	-0.505798	0.116426
C38	C	1.585719	-0.438679	0.951860
C39	C	1.585737	-0.438633	1.061584
C40	C	1.451303	-0.573004	1.061538
C41	C	1.451281	-0.573044	0.951816
H42	H	1.118479	-0.628086	0.627852
C43	C	1.378268	-1.119730	0.646378
C44	C	1.319378	-1.048202	0.705170
C45	C	1.252135	-1.102858	0.772456
H46	H	1.332441	-1.162608	0.606279
H47	H	1.418436	-1.162439	0.692258
H48	H	1.279213	-1.005511	0.659296
H49	H	1.365177	-1.005321	0.745291
H50	H	1.292303	-1.145567	0.818336
H51	H	1.206315	-1.145734	0.732348
H52	H	1.212177	-1.054334	0.812361
C53	C	1.658765	-1.119717	0.366105
C54	C	1.717570	-1.048183	0.307271
C55	C	1.784874	-1.102833	0.240014
H56	H	1.704642	-1.162449	0.406227
H57	H	1.618645	-1.162571	0.320251
H58	H	1.757687	-1.005347	0.353120
H59	H	1.671720	-1.005448	0.267127
H60	H	1.744754	-1.145687	0.194160
H61	H	1.830745	-1.145563	0.280145
H62	H	1.824775	-1.054306	0.200080
C63	C	0.904728	-0.646470	0.646132
C64	C	0.976277	-0.705399	0.704836
C65	C	0.921644	-0.772815	0.771966
H66	H	0.861955	-0.606457	0.692081
H67	H	0.861915	-0.692256	0.605891
H68	H	1.019071	-0.659619	0.745074
H69	H	1.019052	-0.745433	0.658914
H70	H	0.878832	-0.818602	0.731725
H71	H	0.878873	-0.732795	0.817908
H72	H	0.970181	-0.812814	0.811797
C73	C	1.658606	-0.365705	1.121358
C74	C	1.644220	-0.380016	1.229186
C75	C	1.711318	-0.312835	1.284282
H76	H	1.729233	-0.381023	1.103517
H77	H	1.643239	-0.295099	1.103440
H78	H	1.659595	-0.450605	1.247097
H79	H	1.573608	-0.364690	1.247058
H80	H	1.695950	-0.242229	1.266363
H81	H	1.781940	-0.328159	1.266432
H82	H	1.701559	-0.322529	1.357448
C83	C	0.904512	-0.365554	0.366434
C84	C	0.931216	-0.261629	0.389508
C85	C	0.876395	-0.194158	0.322578
H86	H	0.922414	-0.380704	0.295778
H87	H	0.831301	-0.375121	0.376053
H88	H	1.004411	-0.252066	0.379880
H89	H	0.913311	-0.246446	0.460152
H90	H	0.803183	-0.203726	0.332197
H91	H	0.894301	-0.209318	0.251926
H92	H	0.894498	-0.123638	0.338231
C93	C	1.378252	-0.646130	0.892412
C94	C	1.319421	-0.704965	0.963917
C95	C	1.252147	-0.772306	0.909233
H96	H	1.332390	-0.606067	0.849606
H97	H	1.418396	-0.691979	0.849630
H98	H	1.279280	-0.659121	1.006681
H99	H	1.365255	-0.745049	1.006726
H100	H	1.292291	-0.818155	0.866451
H101	H	1.206292	-0.732235	0.866428
H102	H	1.212229	-0.812240	0.957740
H103	H	1.118411	-0.383967	0.384480
H104	H	1.640352	-0.905960	0.384374
C105	C	1.658809	-0.365927	0.892265
C106	C	1.726136	-0.425435	0.829292
C107	C	1.793487	-0.358448	0.774391
H108	H	1.618744	-0.320145	0.849380
H109	H	1.698907	-0.325911	0.940634
H110	H	1.686042	-0.465433	0.780929
H111	H	1.766224	-0.471215	0.872151
H112	H	1.833585	-0.318432	0.822760
H113	H	1.753414	-0.312669	0.731512
H114	H	1.839183	-0.398815	0.731665
C115	C	1.378452	-0.645886	1.121266
C116	C	1.392879	-0.631490	1.229104
C117	C	1.325797	-0.698623	1.284155
H118	H	1.307820	-0.630577	1.103404
H119	H	1.393809	-0.716507	1.103333
H120	H	1.377515	-0.560885	1.247029
H121	H	1.463496	-0.646806	1.246997
H122	H	1.341153	-0.769244	1.266222
H123	H	1.255169	-0.683309	1.266284
H124	H	1.335583	-0.688872	1.357328
C125	C	1.378289	-0.890876	0.646160
C126	C	1.392641	-0.783045	0.631780
C127	C	1.325513	-0.727966	0.698864
H128	H	1.307671	-0.908800	0.630798
H129	H	1.393651	-0.908726	0.716792
H130	H	1.377271	-0.765203	0.561164
H131	H	1.463244	-0.765091	0.647150
H132	H	1.340875	-0.745816	0.769496
H133	H	1.254900	-0.745898	0.683496
H134	H	1.335248	-0.654798	0.689123
