data_functionalizedCrystal
_audit_creation_method	'MofGen! by Chris Wilmer'
_symmetry_space_group_name_H-M	'P1'
_symmetry_Int_Tables_number	1
_symmetry_cell_setting	triclinic
loop_
_symmetry_equiv_pos_as_xyz
  x,y,z
_cell_length_a	17.077404
_cell_length_b	17.077402
_cell_length_c	17.077396
_cell_angle_alpha	90.029784
_cell_angle_beta	90.018362
_cell_angle_gamma	90.020853
loop_
_atom_site_label
_atom_site_type_symbol
_atom_site_fract_x
_atom_site_fract_y
_atom_site_fract_z
Zn1	Zn	1.200055	-0.312551	0.443812
Zn2	Zn	1.700055	0.187449	0.943812
Zn3	Zn	1.199962	-0.443826	0.312543
Zn4	Zn	1.699962	0.056174	0.812543
Zn5	Zn	1.068786	-0.312573	0.312562
Zn6	Zn	1.568786	0.187427	0.812562
Zn7	Zn	1.068754	-0.443774	0.443769
Zn8	Zn	1.568754	0.056226	0.943769
O9	O	1.134389	-0.378181	0.378171
O10	O	1.634389	0.121819	0.878171
O11	O	1.309889	-0.329977	0.426408
O12	O	1.809889	0.170023	0.926408
O13	O	1.182536	-0.426446	0.202698
O14	O	1.682536	0.073554	0.702698
O15	O	1.086252	-0.202723	0.329999
O16	O	1.586252	0.297277	0.829999
O17	O	1.309821	-0.426424	0.329966
O18	O	1.809821	0.073576	0.829966
O19	O	1.182694	-0.202707	0.426427
O20	O	1.682694	0.297293	0.926427
O21	O	1.086162	-0.330015	0.202713
O22	O	1.586162	0.169985	0.702713
O23	O	0.958935	-0.329965	0.329957
O24	O	1.458935	0.170035	0.829957
O25	O	1.086197	-0.426336	0.553622
O26	O	1.586197	0.073664	1.053622
O27	O	0.958912	-0.426357	0.426354
O28	O	1.458912	0.073643	0.926354
O29	O	1.182663	-0.329927	0.553653
O30	O	1.682663	0.170073	1.053653
O31	O	1.182504	-0.553666	0.329924
O32	O	1.682504	-0.053666	0.829924
O33	O	1.086107	-0.553628	0.426335
O34	O	1.586107	-0.053628	0.926335
C35	C	0.930441	-0.378159	0.378154
C36	C	1.430441	0.121841	0.878154
C37	C	0.843192	-0.378168	0.378165
C38	C	1.343192	0.121832	0.878165
C39	C	0.802238	-0.328037	0.428459
C40	C	1.302238	0.171963	0.928459
C41	C	0.720257	-0.328042	0.428463
C42	C	1.220257	0.171958	0.928463
C43	C	0.679232	-0.378183	0.378176
C44	C	1.179232	0.121817	0.878176
C45	C	0.720192	-0.428315	0.327876
C46	C	1.220192	0.071685	0.827876
C47	C	0.802171	-0.428306	0.327869
C48	C	1.302171	0.071694	0.827869
C49	C	0.549322	-0.428333	0.327895
C50	C	1.049322	0.071667	0.827895
C51	C	0.467337	-0.428344	0.327903
C52	C	0.967337	0.071656	0.827903
C53	C	0.467408	-0.328070	0.428489
C54	C	0.967408	0.171930	0.928489
C55	C	0.549387	-0.328060	0.428482
C56	C	1.049387	0.171940	0.928482
C57	C	0.590341	-0.378194	0.378183
C58	C	1.090341	0.121806	0.878183
C59	C	1.134314	-0.582129	0.378140
C60	C	1.634314	-0.082129	0.878140
C61	C	1.134353	-0.669378	0.378153
C62	C	1.634353	-0.169378	0.878153
C63	C	1.184598	-0.710362	0.328005
C64	C	1.684598	-0.210362	0.828005
C65	C	1.184637	-0.792343	0.328025
C66	C	1.684637	-0.292343	0.828025
C67	C	1.134425	-0.833338	0.378190
C68	C	1.634425	-0.333338	0.878190
C69	C	1.084178	-0.792348	0.428343
C70	C	1.584178	-0.292348	0.928343
C71	C	1.084144	-0.710369	0.428326
C72	C	1.584144	-0.210369	0.928326
C73	C	1.084250	-0.963218	0.428372
C74	C	1.584250	-0.463218	0.928372
C75	C	1.084283	-1.045203	0.428388
C76	C	1.584283	-0.545203	0.928388
C77	C	1.184743	-1.045192	0.328072
C78	C	1.684743	-0.545192	0.828072
C79	C	1.184709	-0.963213	0.328055
C80	C	1.684709	-0.463213	0.828055
C81	C	1.134461	-0.922229	0.378207
C82	C	1.634461	-0.422229	0.878207
C83	C	1.339134	-0.378204	0.378190
C84	C	1.839134	0.121796	0.878190
C85	C	1.426383	-0.378213	0.378197
C86	C	1.926383	0.121787	0.878197
C87	C	1.134437	-0.378123	0.582916
C88	C	1.634437	0.121877	1.082916
C89	C	1.134457	-0.378098	0.670166
C90	C	1.634457	0.121902	1.170166
C91	C	1.134487	-0.173436	0.378220
C92	C	1.634487	0.326564	0.878220
C93	C	1.134528	-0.086187	0.378241
C94	C	1.634528	0.413813	0.878241
C95	C	1.134387	-0.378182	0.174224
C96	C	1.634387	0.121818	0.674224
C97	C	1.134519	-0.377985	0.086974
C98	C	1.634519	0.122015	0.586974
C99	C	1.184689	-0.327894	0.711173
C100	C	1.684689	0.172106	1.211173
C101	C	1.184698	-0.327868	0.793154
C102	C	1.684698	0.172132	1.293154
C103	C	1.134479	-0.378051	0.834125
C104	C	1.634479	0.121949	1.334125
C105	C	1.084242	-0.428257	0.793112
C106	C	1.584242	0.071743	1.293112
C107	C	1.084229	-0.428279	0.711133
C108	C	1.584229	0.071721	1.211133
C109	C	1.084274	-0.428210	0.963982
C110	C	1.584274	0.071790	1.463982
C111	C	1.084288	-0.428190	1.045966
C112	C	1.584288	0.071810	1.545966
C113	C	1.184742	-0.327799	1.046003
C114	C	1.684742	0.172201	1.546003
C115	C	1.184730	-0.327821	0.964024
C116	C	1.684730	0.172179	1.464024
C117	C	1.134493	-0.378028	0.923016
C118	C	1.634493	0.121972	1.423016
H119	H	0.582664	-0.469156	0.286934
H120	H	1.082664	0.030844	0.786934
H121	H	0.433937	-0.469173	0.286955
H122	H	0.933937	0.030827	0.786955
C123	C	1.239030	-0.665716	0.273569
C124	C	1.739030	-0.165716	0.773569
C125	C	1.228233	-0.585149	0.284270
C126	C	1.728233	-0.085149	0.784270
C127	C	1.278357	-0.543999	0.234130
C128	C	1.778357	-0.043999	0.734130
H129	H	1.291802	-0.679007	0.285059
H130	H	1.791802	-0.179007	0.785059
H131	H	1.227570	-0.679154	0.220803
H132	H	1.727570	-0.179154	0.720803
H133	H	1.239698	-0.571716	0.337025
H134	H	1.739698	-0.071716	0.837025
H135	H	1.175471	-0.571834	0.272775
H136	H	1.675471	-0.071834	0.772775
H137	H	1.266898	-0.557437	0.181364
H138	H	1.766898	-0.057437	0.681364
H139	H	1.331127	-0.557297	0.245624
H140	H	1.831127	-0.057297	0.745624
H141	H	1.271034	-0.489331	0.241379
H142	H	1.771034	0.010669	0.741379
H143	H	0.686783	-0.469137	0.286927
H144	H	1.186783	0.030863	0.786927
H145	H	1.043393	-0.469051	1.079323
H146	H	1.543393	0.030949	1.579323
H147	H	1.225591	-0.929835	0.287204
H148	H	1.725591	-0.429835	0.787204
C149	C	1.029718	-0.482823	0.919599
C150	C	1.529718	0.017177	1.419599
C151	C	0.985764	-0.526790	0.973024
C152	C	1.485764	-0.026790	1.473024
C153	C	0.935519	-0.577123	0.932167
C154	C	1.435519	-0.077123	1.432167
H155	H	0.995450	-0.452904	0.887609
H156	H	1.495450	0.047096	1.387609
H157	H	1.059724	-0.517073	0.887641
H158	H	1.559724	-0.017073	1.387641
H159	H	0.955760	-0.492545	1.004968
H160	H	1.455760	0.007455	1.504968
H161	H	1.020012	-0.556726	1.005015
H162	H	1.520012	-0.056726	1.505015
H163	H	0.965524	-0.611373	0.900209
H164	H	1.465524	-0.111373	1.400209
H165	H	0.901255	-0.547198	0.900178
H166	H	1.401255	-0.047198	1.400178
H167	H	0.905695	-0.606966	0.968409
H168	H	1.405695	-0.106966	1.468409
H169	H	0.686916	-0.287222	0.469419
H170	H	1.186916	0.212778	0.969419
H171	H	0.582788	-0.287236	0.469435
H172	H	1.082788	0.212764	0.969435
C173	C	0.846497	-0.482824	0.273236
C174	C	1.346497	0.017176	0.773236
C175	C	0.793025	-0.526753	0.229213
C176	C	1.293025	-0.026753	0.729213
C177	C	0.833827	-0.576990	0.178882
C178	C	1.333827	-0.076990	0.678882
H179	H	0.878473	-0.452837	0.239015
H180	H	1.378473	0.047163	0.739015
H181	H	0.878463	-0.517102	0.303184
H182	H	1.378463	-0.017102	0.803184
H183	H	0.761071	-0.492479	0.199268
H184	H	1.261071	0.007521	0.699268
H185	H	0.761046	-0.556756	0.263414
H186	H	1.261046	-0.056756	0.763414
H187	H	0.865794	-0.611268	0.208830
H188	H	1.365794	-0.111268	0.708830
H189	H	0.865803	-0.546997	0.144666
H190	H	1.365803	-0.046997	0.644666
H191	H	0.797553	-0.606807	0.149012
H192	H	1.297553	-0.106807	0.649012
H193	H	1.043298	-0.825733	0.469191
H194	H	1.543298	-0.325733	0.969191
C195	C	1.239371	-1.089826	0.273806
C196	C	1.739371	-0.589826	0.773806
C197	C	1.228718	-1.170393	0.284616
C198	C	1.728718	-0.670393	0.784616
C199	C	1.279073	-1.211537	0.234690
C200	C	1.779073	-0.711537	0.734690
H201	H	1.228049	-1.076586	0.220986
H202	H	1.728049	-0.576586	0.720986
H203	H	1.292083	-1.076331	0.285438
H204	H	1.792083	-0.576331	0.785438
H205	H	1.176017	-1.183882	0.272979
H206	H	1.676017	-0.683882	0.772979
H207	H	1.240046	-1.183656	0.337426
H208	H	1.740046	-0.683656	0.837426
H209	H	1.331785	-1.198043	0.246322
H210	H	1.831785	-0.698043	0.746322
H211	H	1.267746	-1.198291	0.181874
H212	H	1.767746	-0.698291	0.681874
H213	H	1.271857	-1.266206	0.242024
H214	H	1.771857	-0.766206	0.742024
C215	C	1.029648	-0.918623	0.482697
C216	C	1.529648	-0.418623	0.982697
C217	C	0.979354	-0.871615	0.438199
C218	C	1.479354	-0.371615	0.938199
C219	C	0.929049	-0.830516	0.488212
C220	C	1.429049	-0.330516	0.988212
H221	H	0.999673	-0.954690	0.512591
H222	H	1.499673	-0.454690	1.012591
H223	H	1.059620	-0.886550	0.516910
H224	H	1.559620	-0.386550	1.016910
H225	H	0.949385	-0.903685	0.404000
H226	H	1.449385	-0.403685	0.904000
H227	H	1.009307	-0.835533	0.408307
H228	H	1.509307	-0.335533	0.908307
H229	H	0.959021	-0.798443	0.522425
H230	H	1.459021	-0.298443	1.022425
H231	H	0.899080	-0.866589	0.518103
H232	H	1.399080	-0.366589	1.018103
H233	H	0.894924	-0.798611	0.458028
H234	H	1.394924	-0.298611	0.958028
H235	H	1.225551	-0.825708	0.287190
H236	H	1.725551	-0.325708	0.787190
C237	C	1.029747	-1.089572	0.482947
C238	C	1.529747	-0.589572	0.982947
C239	C	0.985756	-1.036136	0.526886
C240	C	1.485756	-0.536136	1.026886
C241	C	0.935520	-1.076981	0.577163
C242	C	1.435520	-0.576981	1.077163
H243	H	0.995502	-1.121605	0.452988
H244	H	1.495502	-0.621605	0.952988
H245	H	1.059762	-1.121486	0.517217
H246	H	1.559762	-0.621486	1.017217
H247	H	0.955744	-1.004236	0.492621
H248	H	1.455744	-0.504236	0.992621
H249	H	1.019980	-1.004102	0.556860
H250	H	1.519980	-0.504102	1.056860
H251	H	0.965534	-1.108894	0.611434
H252	H	1.465534	-0.608894	1.111434
H253	H	0.901280	-1.109012	0.547199
H254	H	1.401280	-0.609012	1.047199
H255	H	0.905671	-1.040731	0.606988
H256	H	1.405671	-0.540731	1.106988
H257	H	1.043230	-0.677001	0.469162
H258	H	1.543230	-0.177001	0.969162
H259	H	1.225585	-0.287032	0.677821
H260	H	1.725585	0.212968	1.177821
H261	H	1.225603	-0.286988	0.826539
H262	H	1.725603	0.213012	1.326539
H263	H	1.225626	-0.286962	0.930668
H264	H	1.725626	0.213038	1.430668
H265	H	1.225645	-0.286917	1.079396
H266	H	1.725645	0.213083	1.579396
H267	H	1.043350	-0.469114	0.826477
H268	H	1.543350	0.030886	1.326477
C269	C	0.422850	-0.273762	0.483146
C270	C	0.922850	0.226238	0.983146
C271	C	0.375778	-0.318278	0.533367
C272	C	0.875778	0.181722	1.033367
C273	C	0.334710	-0.268282	0.583722
C274	C	0.834710	0.231718	1.083722
H275	H	0.458936	-0.243886	0.513171
H276	H	0.958936	0.256114	1.013171
H277	H	0.390823	-0.239533	0.453207
H278	H	0.890823	0.260467	0.953207
H279	H	0.407803	-0.352493	0.563302
H280	H	0.907803	0.147507	1.063302
H281	H	0.339678	-0.348152	0.503363
H282	H	0.839678	0.151848	1.003363
H283	H	0.302683	-0.234053	0.553783
H284	H	0.802683	0.265947	1.053783
H285	H	0.370802	-0.238408	0.613741
H286	H	0.870802	0.261592	1.113741
H287	H	0.302762	-0.298478	0.617797
H288	H	0.802762	0.201522	1.117797
C289	C	0.846676	-0.273645	0.483187
C290	C	1.346676	0.226355	0.983187
C291	C	0.826745	-0.290825	0.560823
C292	C	1.326745	0.209175	1.060823
C293	C	0.867656	-0.240726	0.611259
C294	C	1.367656	0.259274	1.111259
H295	H	0.901378	-0.280769	0.476089
H296	H	1.401378	0.219231	0.976089
H297	H	0.833233	-0.220876	0.471841
H298	H	1.333233	0.279124	0.971841
H299	H	0.840194	-0.343581	0.572165
H300	H	1.340194	0.156419	1.072165
H301	H	0.772051	-0.283696	0.567946
H302	H	1.272051	0.216304	1.067946
H303	H	0.854213	-0.187958	0.599913
H304	H	1.354213	0.312042	1.099913
H305	H	0.922356	-0.247854	0.604154
H306	H	1.422356	0.252146	1.104154
H307	H	0.854134	-0.252371	0.663940
H308	H	1.354134	0.247629	1.163940
C309	C	1.029673	-0.482885	0.666748
C310	C	1.529673	0.017115	1.166748
C311	C	0.985716	-0.526848	0.720173
C312	C	1.485716	-0.026848	1.220173
C313	C	0.935459	-0.577170	0.679316
C314	C	1.435459	-0.077170	1.179316
H315	H	0.995408	-0.452957	0.634763
H316	H	1.495408	0.047043	1.134763
H317	H	1.059671	-0.517138	0.634786
H318	H	1.559671	-0.017138	1.134786
H319	H	0.955720	-0.492600	0.752122
H320	H	1.455720	0.007400	1.252122
H321	H	1.019961	-0.556792	0.752160
H322	H	1.519961	-0.056792	1.252160
H323	H	0.965457	-0.611423	0.647354
H324	H	1.465457	-0.111423	1.147354
H325	H	0.901199	-0.547236	0.647332
H326	H	1.401199	-0.047236	1.147332
H327	H	0.905633	-0.607010	0.715558
H328	H	1.405633	-0.107010	1.215558
