data_functionalizedCrystal
_audit_creation_method	'MofGen! by Chris Wilmer'
_symmetry_space_group_name_H-M	'P1'
_symmetry_Int_Tables_number	1
_symmetry_cell_setting	triclinic
loop_
_symmetry_equiv_pos_as_xyz
  x,y,z
_cell_length_a	12.759401
_cell_length_b	12.759400
_cell_length_c	12.759393
_cell_angle_alpha	90.030930
_cell_angle_beta	90.018575
_cell_angle_gamma	90.015071
loop_
_atom_site_label
_atom_site_type_symbol
_atom_site_fract_x
_atom_site_fract_y
_atom_site_fract_z
Zn1	Zn	1.606255	-0.418192	0.593990
Zn2	Zn	2.106255	0.081808	1.093990
Zn3	Zn	1.606150	-0.593911	0.418312
Zn4	Zn	2.106150	-0.093911	0.918312
Zn5	Zn	1.430557	-0.418248	0.418329
Zn6	Zn	1.930557	0.081752	0.918329
Zn7	Zn	1.430546	-0.593831	0.593953
Zn8	Zn	1.930546	-0.093831	1.093953
O9	O	1.518377	-0.506045	0.506146
O10	O	2.018377	-0.006045	1.006146
O11	O	1.753262	-0.441512	0.570694
O12	O	2.253262	0.058488	1.070694
O13	O	1.582818	-0.570666	0.271293
O14	O	2.082818	-0.070666	0.771293
O15	O	1.453913	-0.271219	0.441653
O16	O	1.953913	0.228781	0.941653
O17	O	1.753185	-0.570612	0.441624
O18	O	2.253185	-0.070612	0.941624
O19	O	1.582997	-0.271178	0.570710
O20	O	2.082997	0.228822	1.070710
O21	O	1.453811	-0.441607	0.271305
O22	O	1.953811	0.058393	0.771305
O23	O	1.283535	-0.441529	0.441617
O24	O	1.783535	0.058471	0.941617
O25	O	1.453894	-0.570475	0.740979
O26	O	1.953894	-0.070475	1.240979
O27	O	1.283527	-0.570529	0.570648
O28	O	1.783527	-0.070529	1.070648
O29	O	1.582986	-0.441434	0.741006
O30	O	2.082986	0.058566	1.241006
O31	O	1.582807	-0.740921	0.441589
O32	O	2.082807	-0.240921	0.941589
O33	O	1.453792	-0.740862	0.570632
O34	O	1.953792	-0.240862	1.070632
C35	C	1.245410	-0.506027	0.506131
C36	C	1.745410	-0.006027	1.006131
C37	C	1.128633	-0.506045	0.506150
C38	C	1.628633	-0.006045	1.006150
C39	C	1.073812	-0.438944	0.573460
C40	C	1.573812	0.061056	1.073460
C41	C	0.964088	-0.438955	0.573467
C42	C	1.464088	0.061045	1.073467
C43	C	0.964016	-0.573176	0.438850
C44	C	1.464016	-0.073176	0.938850
C45	C	1.073738	-0.573159	0.438839
C46	C	1.573738	-0.073159	0.938839
C47	C	1.518315	-0.779013	0.506127
C48	C	2.018315	-0.279013	1.006127
C49	C	1.518385	-0.895789	0.506154
C50	C	2.018385	-0.395789	1.006154
C51	C	1.585570	-0.950540	0.573412
C52	C	2.085570	-0.450540	1.073412
C53	C	1.585629	-1.060264	0.573440
C54	C	2.085629	-0.560264	1.073440
C55	C	1.451315	-1.060477	0.438945
C56	C	1.951315	-0.560477	0.938945
C57	C	1.451251	-0.950755	0.438923
C58	C	1.951251	-0.450755	0.938923
C59	C	1.792410	-0.506064	0.506161
C60	C	2.292410	-0.006064	1.006161
C61	C	1.909187	-0.506072	0.506168
C62	C	2.409187	-0.006072	1.006168
C63	C	1.518451	-0.505939	0.780179
C64	C	2.018451	-0.005939	1.280179
C65	C	1.518482	-0.505894	0.896956
C66	C	2.018482	-0.005894	1.396956
C67	C	1.518468	-0.232012	0.506188
C68	C	2.018468	0.267988	1.006188
C69	C	1.518507	-0.115235	0.506205
C70	C	2.018507	0.384765	1.006205
C71	C	1.518365	-0.506075	0.233179
C72	C	2.018365	-0.006075	0.733179
C73	C	1.518537	-0.505825	0.116402
C74	C	2.018537	-0.005825	0.616402
C75	C	1.451332	-0.438681	0.951824
C76	C	1.951332	0.061319	1.451824
C77	C	1.451356	-0.438648	1.061548
C78	C	1.951356	0.061352	1.561548
C79	C	1.585690	-0.573045	1.061527
C80	C	2.085690	-0.073045	1.561527
C81	C	1.585659	-0.573082	0.951805
C82	C	2.085659	-0.073082	1.451805
H83	H	0.919307	-0.627819	0.384049
H84	H	1.419307	-0.127819	0.884049
F85	F	0.905748	-0.367535	0.645106
F86	F	1.405748	0.132465	1.145106
F87	F	1.657182	-0.644546	1.119910
F88	F	2.157182	-0.144546	1.619910
F89	F	1.132086	-0.644572	0.367186
F90	F	1.632086	-0.144572	0.867186
F91	F	1.132232	-0.367512	0.645095
F92	F	1.632232	0.132488	1.145095
F93	F	1.379869	-1.118985	0.367398
F94	F	1.879869	-0.618985	0.867398
H95	H	1.640232	-0.905789	0.628157
H96	H	2.140232	-0.405789	1.128157
F97	F	1.657132	-1.118529	0.645030
F98	F	2.157132	-0.618529	1.145030
F99	F	1.379733	-0.892482	0.367341
F100	F	1.879733	-0.392482	0.867341
H101	H	1.396632	-0.383972	0.907170
H102	H	1.896632	0.116028	1.407170
F103	F	1.379875	-0.367122	1.119938
F104	F	1.879875	0.132878	1.619938
F105	F	1.657129	-0.644627	0.893407
F106	F	2.157129	-0.144627	1.393407
