data_functionalizedCrystal
_audit_creation_method	'MofGen! by Chris Wilmer'
_symmetry_space_group_name_H-M	'P1'
_symmetry_Int_Tables_number	1
_symmetry_cell_setting	triclinic
loop_
_symmetry_equiv_pos_as_xyz
  x,y,z
_cell_length_a	21.395364
_cell_length_b	21.395361
_cell_length_c	21.395355
_cell_angle_alpha	89.978489
_cell_angle_beta	89.975273
_cell_angle_gamma	90.029041
loop_
_atom_site_label
_atom_site_type_symbol
_atom_site_fract_x
_atom_site_fract_y
_atom_site_fract_z
Zn1	Zn	0.957859	-0.249539	-0.354251
Zn2	Zn	0.957762	-0.354299	-0.249468
Zn3	Zn	0.853074	-0.249536	-0.249488
Zn4	Zn	0.853043	-0.354280	-0.354208
O5	O	0.905434	-0.301913	-0.301854
O6	O	1.045524	-0.263445	-0.340362
O7	O	0.943847	-0.340409	-0.161793
O8	O	0.867028	-0.161859	-0.263411
O9	O	1.045452	-0.340411	-0.263378
O10	O	0.944013	-0.161861	-0.340380
O11	O	0.866933	-0.263440	-0.161807
O12	O	0.765392	-0.263421	-0.263369
O13	O	0.866975	-0.340379	-0.441892
O14	O	0.765369	-0.340376	-0.340307
O15	O	0.943983	-0.263426	-0.441923
O16	O	0.943817	-0.441974	-0.263336
O17	O	0.866881	-0.441960	-0.340288
C18	C	0.742647	-0.301897	-0.301836
C19	C	0.673006	-0.301905	-0.301843
C20	C	0.905352	-0.464701	-0.301819
C21	C	0.905374	-0.534342	-0.301825
C22	C	0.171214	-0.342057	-0.341877
C23	C	0.236649	-0.342057	-0.341870
C24	C	0.269367	-0.301927	-0.301874
C25	C	0.236644	-0.261805	-0.261870
C26	C	0.171210	-0.261811	-0.261873
C27	C	0.373056	-0.245462	-0.297025
C28	C	0.438489	-0.245455	-0.297027
C29	C	0.471188	-0.301911	-0.301860
C30	C	0.438446	-0.358374	-0.306705
C31	C	0.373012	-0.358380	-0.306709
C32	C	0.340320	-0.301917	-0.301865
C33	C	0.574856	-0.342033	-0.341851
C34	C	0.640292	-0.342034	-0.341840
C35	C	0.640286	-0.261777	-0.261843
C36	C	0.574850	-0.261781	-0.261851
C37	C	0.542139	-0.301909	-0.301858
C38	C	0.945470	-0.567042	-0.261797
C39	C	0.945499	-0.632477	-0.261811
C40	C	0.905421	-0.665211	-0.301847
C41	C	0.865322	-0.632503	-0.341882
C42	C	0.865298	-0.567069	-0.341871
C43	C	0.849006	-0.768924	-0.306756
C44	C	0.849029	-0.834357	-0.306763
C45	C	0.905494	-0.867031	-0.301883
C46	C	0.961938	-0.834265	-0.296984
C47	C	0.961915	-0.768830	-0.296974
C48	C	0.905442	-0.736163	-0.301863
C49	C	0.945625	-0.970683	-0.261868
C50	C	0.945655	-1.036120	-0.261887
C51	C	0.865472	-1.036144	-0.341955
C52	C	0.865448	-0.970709	-0.341939
C53	C	0.905523	-0.937983	-0.301893
C54	C	1.068858	-0.301931	-0.301872
C55	C	1.138499	-0.301938	-0.301880
C56	C	0.905486	-0.301901	-0.465277
C57	C	0.905509	-0.301895	-0.534918
C58	C	0.905535	-0.138490	-0.301903
C59	C	0.905577	-0.068849	-0.301923
C60	C	0.945605	-0.261824	-0.567649
C61	C	0.945604	-0.261797	-0.633085
C62	C	0.905513	-0.301853	-0.665787
C63	C	0.865409	-0.341926	-0.633048
C64	C	0.865407	-0.341948	-0.567614
C65	C	0.900538	-0.358268	-0.769449
C66	C	0.900544	-0.358247	-0.834882
C67	C	0.905517	-0.301786	-0.867608
C68	C	0.910497	-0.245344	-0.834892
C69	C	0.910494	-0.245365	-0.769458
C70	C	0.905511	-0.301834	-0.736739
C71	C	0.945615	-0.261683	-0.971291
C72	C	0.945610	-0.261655	-1.036728
C73	C	0.865418	-0.341789	-1.036690
C74	C	0.865420	-0.341812	-0.971255
C75	C	0.905522	-0.301759	-0.938559
C76	C	0.905419	-0.301881	-0.139066
C77	C	0.905518	-0.301710	-0.069425
H78	H	0.144585	-0.374734	-0.374452
H79	H	0.803022	-0.742327	-0.310732
Cl80	Cl	0.479546	-0.429352	-0.312780
Cl81	Cl	0.996024	-0.211329	-0.930185
H82	H	0.896494	-0.404206	-0.861515
Cl83	Cl	0.996071	-1.077229	-0.211566
H84	H	0.666928	-0.374708	-0.374408
H85	H	0.832773	-0.374446	-0.944605
H86	H	0.978258	-0.229210	-0.541032
Cl87	Cl	1.032928	-0.875333	-0.290843
H88	H	0.548221	-0.374708	-0.374427
H89	H	0.548214	-0.229110	-0.229284
Cl90	Cl	0.814887	-0.525958	-0.392196
H91	H	0.832766	-0.374537	-0.659679
Cl92	Cl	0.894304	-0.429256	-0.728316
Cl93	Cl	0.814941	-0.673652	-0.392215
Cl94	Cl	0.996002	-0.211406	-0.674240
Cl95	Cl	0.916751	-0.174359	-0.876025
Cl96	Cl	0.681411	-0.211333	-0.211556
Cl97	Cl	0.277786	-0.392496	-0.392156
Cl98	Cl	0.479644	-0.174473	-0.290944
H99	H	0.346356	-0.404354	-0.310653
H100	H	0.914547	-0.199408	-0.742823
H101	H	0.978260	-0.229021	-1.063376
Cl102	Cl	0.815092	-1.077289	-0.392290
H103	H	0.832770	-0.374397	-1.063316
H104	H	0.144574	-0.229139	-0.229303
Cl105	Cl	0.331956	-0.174483	-0.290941
Cl106	Cl	0.814997	-0.392327	-0.526465
H107	H	0.978103	-0.540398	-0.229191
Cl108	Cl	0.277774	-0.211358	-0.211586
Cl109	Cl	0.995908	-0.673594	-0.211485
H110	H	0.978259	-0.944036	-0.229262
Cl111	Cl	1.032870	-0.727640	-0.290821
Cl112	Cl	0.815035	-0.929599	-0.392260
Cl113	Cl	0.778071	-0.875543	-0.312920
