data_functionalizedCrystal
_audit_creation_method	'MofGen! by Chris Wilmer'
_symmetry_space_group_name_H-M	'P1'
_symmetry_Int_Tables_number	1
_symmetry_cell_setting	triclinic
loop_
_symmetry_equiv_pos_as_xyz
  x,y,z
_cell_length_a	12.759399
_cell_length_b	12.759401
_cell_length_c	12.759393
_cell_angle_alpha	90.020459
_cell_angle_beta	89.969730
_cell_angle_gamma	89.983359
loop_
_atom_site_label
_atom_site_type_symbol
_atom_site_fract_x
_atom_site_fract_y
_atom_site_fract_z
Zn1	Zn	-0.418179	-1.606258	-0.594017
Zn2	Zn	0.081821	-1.106258	-0.094017
Zn3	Zn	-0.593893	-1.606150	-0.418336
Zn4	Zn	-0.093893	-1.106150	0.081664
Zn5	Zn	-0.418233	-1.430559	-0.418352
Zn6	Zn	0.081767	-0.930559	0.081648
Zn7	Zn	-0.593821	-1.430548	-0.593973
Zn8	Zn	-0.093821	-0.930548	-0.093973
O9	O	-0.506032	-1.518379	-0.506170
O10	O	-0.006032	-1.018379	-0.006170
O11	O	-0.441495	-1.753265	-0.570724
O12	O	0.058505	-1.253265	-0.070724
O13	O	-0.570644	-1.582816	-0.271317
O14	O	-0.070644	-1.082816	0.228683
O15	O	-0.271205	-1.453916	-0.441680
O16	O	0.228795	-0.953916	0.058320
O17	O	-0.570591	-1.753185	-0.441652
O18	O	-0.070591	-1.253185	0.058348
O19	O	-0.271165	-1.583001	-0.570740
O20	O	0.228835	-1.083001	-0.070740
O21	O	-0.441587	-1.453810	-0.271329
O22	O	0.058413	-0.953810	0.228671
O23	O	-0.441518	-1.283536	-0.441637
O24	O	0.058482	-0.783536	0.058363
O25	O	-0.570470	-1.453897	-0.741000
O26	O	-0.070470	-0.953897	-0.241000
O27	O	-0.570522	-1.283528	-0.570665
O28	O	-0.070522	-0.783528	-0.070665
O29	O	-0.441426	-1.582991	-0.741032
O30	O	0.058574	-1.082991	-0.241032
O31	O	-0.740904	-1.582806	-0.441609
O32	O	-0.240904	-1.082806	0.058391
O33	O	-0.740852	-1.453792	-0.570649
O34	O	-0.240852	-0.953792	-0.070649
C35	C	-0.778999	-1.518314	-0.506146
C36	C	-0.278999	-1.018314	-0.006146
C37	C	-0.895776	-1.518383	-0.506171
C38	C	-0.395776	-1.018383	-0.006171
C39	C	-0.506019	-1.245411	-0.506149
C40	C	-0.006019	-0.745411	-0.006149
C41	C	-0.506039	-1.128635	-0.506165
C42	C	-0.006039	-0.628635	-0.006165
C43	C	-0.505934	-1.518455	-0.780203
C44	C	-0.005934	-1.018455	-0.280203
C45	C	-0.505892	-1.518487	-0.896980
C46	C	-0.005892	-1.018487	-0.396980
C47	C	-0.950630	-1.585637	-0.439056
C48	C	-0.450630	-1.085637	0.060944
C49	C	-1.060354	-1.585704	-0.439091
C50	C	-0.560354	-1.085704	0.060909
C51	C	-1.060360	-1.451254	-0.573359
C52	C	-0.560360	-0.951254	-0.073359
C53	C	-0.950638	-1.451193	-0.573328
C54	C	-0.450638	-0.951193	-0.073328
C55	C	-0.231998	-1.518472	-0.506217
C56	C	0.268002	-1.018472	-0.006217
C57	C	-0.115222	-1.518512	-0.506237
C58	C	0.384778	-1.018512	-0.006237
C59	C	-0.506045	-1.792412	-0.506191
C60	C	-0.006045	-1.292412	-0.006191
C61	C	-0.506051	-1.909188	-0.506200
C62	C	-0.006051	-1.409188	-0.006200
C63	C	-0.573313	-1.073796	-0.573244
C64	C	-0.073313	-0.573796	-0.073244
C65	C	-0.573317	-0.964072	-0.573265
C66	C	-0.073317	-0.464072	-0.073265
C67	C	-0.438769	-0.964035	-0.439118
C68	C	0.061231	-0.464035	0.060882
C69	C	-0.438761	-1.073757	-0.439104
C70	C	0.061239	-0.573757	0.060896
C71	C	-0.573014	-1.585689	-1.061571
C72	C	-0.073014	-1.085689	-0.561571
C73	C	-0.573064	-1.585663	-0.951847
C74	C	-0.073064	-1.085663	-0.451847
C75	C	-0.438674	-1.451325	-0.951843
C76	C	0.061326	-0.951325	-0.451843
C77	C	-0.438631	-1.451346	-1.061565
C78	C	0.061369	-0.951346	-0.561565
C79	C	-0.506053	-1.518363	-0.233202
C80	C	-0.006053	-1.018363	0.266798
C81	C	-0.505799	-1.518534	-0.116426
C82	C	-0.005799	-1.018534	0.383574
H83	H	-0.905964	-1.640348	-0.384374
H84	H	-0.405964	-1.140348	0.115626
H85	H	-1.105012	-1.640471	-0.384441
H86	H	-0.605012	-1.140471	0.115559
C87	C	-1.120718	-1.377338	-0.647216
C88	C	-0.620718	-0.877338	-0.147216
N89	N	-1.166179	-1.321658	-0.702843
N90	N	-0.666179	-0.821658	-0.202843
H91	H	-0.628097	-0.919427	-0.627889
H92	H	-0.128097	-0.419427	-0.127889
H93	H	-0.383971	-1.118408	-0.384480
H94	H	0.116029	-0.618408	0.115520
H95	H	-0.905972	-1.396426	-0.627986
H96	H	-0.405972	-0.896426	-0.127986
H97	H	-0.628093	-1.118474	-0.627852
H98	H	-0.128093	-0.618474	-0.127852
H99	H	-0.627708	-1.640396	-1.106236
H100	H	-0.127708	-1.140396	-0.606236
C101	C	-0.646983	-1.659561	-0.891511
C102	C	-0.146983	-1.159561	-0.391511
N103	N	-0.702655	-1.715231	-0.846067
N104	N	-0.202655	-1.215231	-0.346067
C105	C	-0.364773	-0.903659	-0.365349
C106	C	0.135227	-0.403659	0.134651
N107	N	-0.309040	-0.858185	-0.309782
N108	N	0.190960	-0.358185	0.190218
H109	H	-0.383987	-1.396625	-0.907161
H110	H	0.116013	-0.896625	-0.407161
C111	C	-0.364682	-1.377471	-1.121909
C112	C	0.135318	-0.877471	-0.621909
N113	N	-0.308986	-1.321830	-1.167360
N114	N	0.191014	-0.821830	-0.667360
