data_functionalizedCrystal
_audit_creation_method	'MofGen! by Chris Wilmer'
_symmetry_space_group_name_H-M	'P1'
_symmetry_Int_Tables_number	1
_symmetry_cell_setting	triclinic
loop_
_symmetry_equiv_pos_as_xyz
  x,y,z
_cell_length_a	17.077404
_cell_length_b	17.077402
_cell_length_c	17.077396
_cell_angle_alpha	89.970216
_cell_angle_beta	89.980499
_cell_angle_gamma	90.023108
loop_
_atom_site_label
_atom_site_type_symbol
_atom_site_fract_x
_atom_site_fract_y
_atom_site_fract_z
Zn1	Zn	1.200055	-0.312503	-0.443836
Zn2	Zn	1.199962	-0.443778	-0.312567
Zn3	Zn	1.068786	-0.312531	-0.312584
Zn4	Zn	1.068754	-0.443732	-0.443790
O5	O	1.134389	-0.378136	-0.378194
O6	O	1.309889	-0.329925	-0.426434
O7	O	1.182536	-0.426399	-0.202722
O8	O	1.086252	-0.202680	-0.330021
O9	O	1.309821	-0.426372	-0.329992
O10	O	1.182694	-0.202660	-0.426451
O11	O	1.086162	-0.329972	-0.202734
O12	O	0.958935	-0.329927	-0.329976
O13	O	1.086197	-0.426293	-0.553643
O14	O	0.958912	-0.426320	-0.426373
O15	O	1.182663	-0.329880	-0.553677
O16	O	1.182505	-0.553619	-0.329948
O17	O	1.086107	-0.553585	-0.426357
C18	C	1.134314	-0.582084	-0.378163
C19	C	1.134353	-0.669334	-0.378176
C20	C	0.930441	-0.378122	-0.378172
C21	C	0.843192	-0.378135	-0.378182
C22	C	1.184598	-0.710316	-0.328029
C23	C	1.184637	-0.792296	-0.328049
C24	C	1.134425	-0.833293	-0.378212
C25	C	1.084178	-0.792305	-0.428364
C26	C	1.084144	-0.710327	-0.428348
C27	C	1.084250	-0.963175	-0.428394
C28	C	1.084283	-1.045160	-0.428410
C29	C	1.184743	-1.045145	-0.328096
C30	C	1.184709	-0.963166	-0.328079
C31	C	1.134461	-0.922184	-0.378230
C32	C	0.802210	-0.428402	-0.428295
C33	C	0.720229	-0.428404	-0.428308
C34	C	0.679232	-0.378141	-0.378202
C35	C	0.720220	-0.327869	-0.328087
C36	C	0.802199	-0.327863	-0.328079
C37	C	0.549350	-0.327884	-0.328106
C38	C	0.467365	-0.327890	-0.328112
C39	C	0.467380	-0.428424	-0.428335
C40	C	0.549359	-0.428419	-0.428327
C41	C	0.590341	-0.378147	-0.378210
C42	C	1.339134	-0.378151	-0.378216
C43	C	1.426383	-0.378157	-0.378226
C44	C	1.134437	-0.378078	-0.582938
C45	C	1.134457	-0.378054	-0.670188
C46	C	1.134487	-0.173392	-0.378243
C47	C	1.134528	-0.086142	-0.378263
C48	C	1.184689	-0.327847	-0.711197
C49	C	1.184698	-0.327821	-0.793178
C50	C	1.134479	-0.378006	-0.834148
C51	C	1.084242	-0.428214	-0.793133
C52	C	1.084229	-0.428236	-0.711154
C53	C	1.084274	-0.428167	-0.964003
C54	C	1.084288	-0.428147	-1.045988
C55	C	1.184742	-0.327752	-1.046027
C56	C	1.184730	-0.327774	-0.964048
C57	C	1.134493	-0.377984	-0.923039
C58	C	1.134387	-0.378137	-0.174246
C59	C	1.134519	-0.377941	-0.086997
H60	H	1.225551	-0.825660	-0.287214
O61	O	0.589270	-0.477134	-0.477038
C62	C	0.681835	-0.487811	-0.583022
C63	C	0.636700	-0.432557	-0.527890
H64	H	0.720180	-0.451793	-0.624160
H65	H	0.720240	-0.528795	-0.546950
H66	H	0.638447	-0.523757	-0.618808
H67	H	0.680031	-0.396560	-0.492092
H68	H	0.598283	-0.391625	-0.564007
O69	O	1.233458	-0.278940	-0.832921
C70	C	1.271605	-0.145407	-0.858059
C71	C	1.216346	-0.200682	-0.812991
H72	H	1.257779	-0.082122	-0.841975
H73	H	1.334903	-0.159141	-0.841931
H74	H	1.263006	-0.154040	-0.923686
H75	H	1.224876	-0.192079	-0.747353
H76	H	1.153069	-0.186934	-0.829184
O77	O	1.233262	-0.670459	-0.279215
C78	C	1.243849	-0.577936	-0.173256
C79	C	1.188645	-0.623036	-0.228475
H80	H	1.207799	-0.539571	-0.132230
H81	H	1.279755	-0.621276	-0.137362
H82	H	1.284872	-0.539530	-0.209342
H83	H	1.147574	-0.661442	-0.192450
H84	H	1.152794	-0.579653	-0.264372
H85	H	1.043393	-0.469010	-1.079344
O86	O	0.427608	-0.477370	-0.476935
C87	C	0.402527	-0.610947	-0.514819
C88	C	0.447610	-0.555604	-0.459727
H89	H	0.418695	-0.674209	-0.500936
H90	H	0.336884	-0.602383	-0.506216
H91	H	0.418669	-0.597208	-0.578134
H92	H	0.431534	-0.569308	-0.396390
H93	H	0.513242	-0.564178	-0.468397
H94	H	1.043350	-0.469073	-0.826498
O95	O	0.427660	-0.278988	-0.279420
C96	C	0.436292	-0.179294	-0.179989
C97	C	0.481354	-0.234623	-0.235105
H98	H	0.479683	-0.143422	-0.144134
H99	H	0.397961	-0.138252	-0.216074
H100	H	0.397861	-0.215295	-0.138914
H101	H	0.519828	-0.198686	-0.276191
H102	H	0.519636	-0.275667	-0.198971
H103	H	1.043230	-0.676960	-0.469183
O104	O	0.842099	-0.279146	-0.279358
C105	C	0.934581	-0.268448	-0.173359
C106	C	0.889458	-0.323712	-0.228496
H107	H	0.972869	-0.304459	-0.132213
H108	H	0.973044	-0.227460	-0.209427
H109	H	0.891187	-0.232507	-0.137582
H110	H	0.932796	-0.359704	-0.264285
H111	H	0.850983	-0.364649	-0.192384
O112	O	0.589250	-0.279162	-0.279383
C113	C	0.681730	-0.268478	-0.173382
C114	C	0.636605	-0.323735	-0.228524
H115	H	0.720015	-0.304494	-0.132237
H116	H	0.720195	-0.227488	-0.209445
H117	H	0.638337	-0.232538	-0.137602
H118	H	0.679942	-0.359726	-0.264315
H119	H	0.598128	-0.364673	-0.192416
O120	O	1.233361	-0.279056	-0.671317
C121	C	1.243950	-0.173062	-0.578833
C122	C	1.188742	-0.228287	-0.623930
H123	H	1.207897	-0.131990	-0.540522
H124	H	1.284963	-0.209065	-0.540397
H125	H	1.279867	-0.137209	-0.622245
H126	H	1.152774	-0.264151	-0.580574
H127	H	1.147781	-0.192238	-0.662378
O128	O	1.233558	-0.923461	-0.279326
C129	C	1.333175	-0.932093	-0.179800
C130	C	1.277905	-0.977155	-0.234983
H131	H	1.369032	-0.975485	-0.143922
H132	H	1.374233	-0.893675	-0.215835
H133	H	1.297129	-0.893749	-0.138750
H134	H	1.313887	-1.015542	-0.276043
H135	H	1.236844	-1.015524	-0.198899
O136	O	0.680435	-0.278929	-0.279498
C137	C	0.655422	-0.145359	-0.241603
C138	C	0.700508	-0.200692	-0.296695
H139	H	0.671647	-0.082093	-0.255477
H140	H	0.589779	-0.153927	-0.250215
H141	H	0.671502	-0.159102	-0.178287
H142	H	0.684494	-0.186983	-0.360032
H143	H	0.766140	-0.192114	-0.288015
O144	O	1.233581	-0.279131	-0.924205
C145	C	1.339489	-0.268578	-0.831601
C146	C	1.284238	-0.323764	-0.876693
H147	H	1.380448	-0.304641	-0.793164
H148	H	1.375453	-0.232690	-0.874946
H149	H	1.303423	-0.227538	-0.793267
H150	H	1.320243	-0.364851	-0.915028
H151	H	1.248271	-0.359597	-0.833305
O152	O	1.035400	-0.923281	-0.477003
C153	C	0.929339	-0.830845	-0.487447
C154	C	0.984626	-0.875961	-0.432314
H155	H	0.888264	-0.792588	-0.451337
H156	H	0.965293	-0.792353	-0.528507
H157	H	0.893493	-0.874245	-0.523317
H158	H	1.020484	-0.832617	-0.396393
H159	H	0.948627	-0.914465	-0.391305
O160	O	1.233459	-0.278992	-1.085980
C161	C	1.278016	-0.234477	-1.212290
C162	C	1.222796	-0.289722	-1.167138
H163	H	1.269426	-0.243144	-1.277914
H164	H	1.264252	-0.171170	-1.196235
H165	H	1.341297	-0.248256	-1.196140
H166	H	1.159497	-0.276013	-1.183264
H167	H	1.236628	-0.353012	-1.183197
O168	O	1.035571	-0.477060	-0.924195
C169	C	0.997409	-0.610597	-0.899097
C170	C	1.052611	-0.555310	-0.944219
H171	H	1.011155	-0.673873	-0.915283
H172	H	1.006039	-0.602058	-0.833460
H173	H	0.934120	-0.596780	-0.915185
H174	H	1.115921	-0.569093	-0.928197
H175	H	1.043913	-0.563860	-1.009845
O176	O	1.035491	-1.084865	-0.477219
C177	C	0.935830	-1.076234	-0.576701
C178	C	0.991056	-1.031171	-0.521475
H179	H	0.899878	-1.032842	-0.612485
H180	H	0.971835	-1.114532	-0.617830
H181	H	0.894851	-1.114697	-0.540626
H182	H	1.032046	-0.992665	-0.557487
H183	H	0.955003	-0.992922	-0.480343
O184	O	1.035487	-0.832093	-0.477206
C185	C	0.997286	-0.857079	-0.610699
C186	C	1.052492	-0.811987	-0.555477
H187	H	1.011004	-0.840827	-0.673991
H188	H	1.005943	-0.922721	-0.602164
H189	H	0.933997	-0.841031	-0.596814
H190	H	1.115803	-0.827969	-0.569327
H191	H	1.043768	-0.746356	-0.564022
O192	O	0.842066	-0.477311	-0.476857
C193	C	0.934624	-0.583268	-0.487227
C194	C	0.889526	-0.527942	-0.432138
H195	H	0.973020	-0.624207	-0.451095
H196	H	0.891283	-0.619251	-0.523034
H197	H	0.973000	-0.547261	-0.528348
H198	H	0.851150	-0.563889	-0.390970
H199	H	0.932910	-0.491957	-0.396386
H200	H	0.686866	-0.469337	-0.469114
H201	H	1.225660	-1.078516	-0.287263
H202	H	1.043318	-0.469111	-0.677766
