data_functionalizedCrystal
_audit_creation_method	'MofGen! by Chris Wilmer'
_symmetry_space_group_name_H-M	'P1'
_symmetry_Int_Tables_number	1
_symmetry_cell_setting	triclinic
loop_
_symmetry_equiv_pos_as_xyz
  x,y,z
_cell_length_a	21.395364
_cell_length_b	21.395362
_cell_length_c	21.395356
_cell_angle_alpha	89.970281
_cell_angle_beta	89.976411
_cell_angle_gamma	90.044742
loop_
_atom_site_label
_atom_site_type_symbol
_atom_site_fract_x
_atom_site_fract_y
_atom_site_fract_z
Zn1	Zn	0.957857	-0.249204	-0.354253
Zn2	Zn	1.457857	0.250796	0.145747
Zn3	Zn	0.957763	-0.353981	-0.249471
Zn4	Zn	1.457763	0.146019	0.250529
Zn5	Zn	0.853074	-0.249249	-0.249489
Zn6	Zn	1.353074	0.250751	0.250511
Zn7	Zn	0.853043	-0.353975	-0.354212
Zn8	Zn	1.353043	0.146025	0.145788
O9	O	0.905434	-0.301602	-0.301856
O10	O	1.405434	0.198398	0.198144
O11	O	1.045523	-0.263087	-0.340363
O12	O	1.545523	0.236913	0.159637
O13	O	0.943850	-0.340109	-0.161796
O14	O	1.443850	0.159891	0.338204
O15	O	0.867026	-0.161565	-0.263411
O16	O	1.367026	0.338435	0.236589
O17	O	1.045454	-0.340066	-0.263381
O18	O	1.545454	0.159934	0.236619
O19	O	0.944010	-0.161532	-0.340380
O20	O	1.444010	0.338468	0.159620
O21	O	0.866935	-0.263163	-0.161809
O22	O	1.366935	0.236837	0.338191
O23	O	0.765392	-0.263157	-0.263371
O24	O	1.265392	0.236843	0.236629
O25	O	0.866973	-0.340057	-0.441895
O26	O	1.366973	0.159943	0.058105
O27	O	0.765369	-0.340099	-0.340310
O28	O	1.265369	0.159901	0.159690
O29	O	0.943980	-0.263082	-0.441925
O30	O	1.443980	0.236918	0.058075
O31	O	0.943820	-0.441658	-0.263341
O32	O	1.443820	0.058342	0.236659
O33	O	0.866882	-0.441654	-0.340293
O34	O	1.366882	0.058346	0.159707
C35	C	0.742647	-0.301633	-0.301839
C36	C	1.242647	0.198367	0.198161
C37	C	0.673006	-0.301661	-0.301846
C38	C	1.173006	0.198339	0.198154
C39	C	0.905354	-0.464390	-0.301824
C40	C	1.405354	0.035610	0.198176
C41	C	0.905377	-0.534031	-0.301831
C42	C	1.405377	-0.034031	0.198169
C43	C	0.640351	-0.261644	-0.341993
C44	C	1.140351	0.238356	0.158007
C45	C	0.574915	-0.261627	-0.341995
C46	C	1.074915	0.238373	0.158005
C47	C	0.542137	-0.301639	-0.301857
C48	C	1.042137	0.198361	0.198143
C49	C	0.574800	-0.341659	-0.261703
C50	C	1.074800	0.158341	0.238297
C51	C	0.640234	-0.341670	-0.261697
C52	C	1.140234	0.158330	0.238303
C53	C	0.438414	-0.358064	-0.296818
C54	C	0.938414	0.141936	0.203182
C55	C	0.372981	-0.358054	-0.296828
C56	C	0.872981	0.141946	0.203172
C57	C	0.340316	-0.301604	-0.301871
C58	C	0.840316	0.198396	0.198129
C59	C	0.373093	-0.245163	-0.306918
C60	C	0.873093	0.254837	0.193082
C61	C	0.438527	-0.245174	-0.306912
C62	C	0.938527	0.254826	0.193088
C63	C	0.471185	-0.301631	-0.301859
C64	C	0.971185	0.198369	0.198141
C65	C	0.236709	-0.261566	-0.342023
C66	C	0.736709	0.238434	0.157977
C67	C	0.171273	-0.261548	-0.342021
C68	C	0.671273	0.238452	0.157979
C69	C	0.171158	-0.341585	-0.261732
C70	C	0.671158	0.158415	0.238268
C71	C	0.236594	-0.341598	-0.261731
C72	C	0.736594	0.158402	0.238269
C73	C	0.269365	-0.301589	-0.301879
C74	C	0.769365	0.198411	0.198121
C75	C	0.945440	-0.566671	-0.341938
C76	C	1.445440	-0.066671	0.158062
C77	C	0.945462	-0.632106	-0.341953
C78	C	1.445462	-0.132106	0.158047
C79	C	0.905428	-0.664900	-0.301851
C80	C	1.405428	-0.164900	0.198149
C81	C	0.865358	-0.632252	-0.261742
C82	C	1.365358	-0.132252	0.238258
C83	C	0.865332	-0.566818	-0.261732
C84	C	1.365332	-0.066818	0.238268
C85	C	0.900552	-0.768610	-0.245412
C86	C	1.400552	-0.268610	0.254588
C87	C	0.900582	-0.834043	-0.245421
C88	C	1.400582	-0.334043	0.254579
C89	C	0.905502	-0.866720	-0.301881
C90	C	1.405502	-0.366720	0.198119
C91	C	0.910407	-0.833956	-0.358334
C92	C	1.410407	-0.333956	0.141666
C93	C	0.910381	-0.768522	-0.358325
C94	C	1.410381	-0.268522	0.141675
C95	C	0.905451	-0.735852	-0.301857
C96	C	1.405451	-0.235852	0.198143
C97	C	0.945591	-0.970312	-0.342007
C98	C	1.445591	-0.470312	0.157993
C99	C	0.945608	-1.035749	-0.342024
C100	C	1.445608	-0.535749	0.157976
C101	C	0.865508	-1.035894	-0.261807
C102	C	1.365508	-0.535894	0.238193
C103	C	0.865487	-0.970459	-0.261796
C104	C	1.365487	-0.470459	0.238204
C105	C	0.905532	-0.937672	-0.301895
C106	C	1.405532	-0.437672	0.198105
C107	C	1.068858	-0.301572	-0.301874
C108	C	1.568858	0.198428	0.198126
C109	C	1.138499	-0.301559	-0.301882
C110	C	1.638499	0.198441	0.198118
C111	C	0.905484	-0.301564	-0.465280
C112	C	1.405484	0.198436	0.034720
C113	C	0.905505	-0.301547	-0.534921
C114	C	1.405505	0.198453	-0.034921
C115	C	0.905532	-0.138179	-0.301902
C116	C	1.405532	0.361821	0.198098
C117	C	0.905573	-0.068538	-0.301922
C118	C	1.405573	0.431462	0.198078
C119	C	0.865466	-0.261477	-0.567631
C120	C	1.365466	0.238523	-0.067631
C121	C	0.865464	-0.261465	-0.633066
C122	C	1.365464	0.238535	-0.133066
C123	C	0.905512	-0.301517	-0.665789
C124	C	1.405512	0.198483	-0.165789
C125	C	0.945553	-0.341596	-0.633071
C126	C	1.445553	0.158404	-0.133071
C127	C	0.945550	-0.341610	-0.567637
C128	C	1.445550	0.158390	-0.067637
C129	C	0.961964	-0.306428	-0.769475
C130	C	1.461964	0.193572	-0.269475
C131	C	0.961968	-0.306409	-0.834908
C132	C	1.461968	0.193591	-0.334908
C133	C	0.905522	-0.301475	-0.867610
C134	C	1.405522	0.198525	-0.367610
C135	C	0.849069	-0.296547	-0.834871
C136	C	1.349069	0.203453	-0.334871
C137	C	0.849066	-0.296562	-0.769437
C138	C	1.349066	0.203438	-0.269437
C139	C	0.905520	-0.301506	-0.736742
C140	C	1.405520	0.198494	-0.236742
C141	C	0.865477	-0.261390	-0.971273
C142	C	1.365477	0.238610	-0.471273
C143	C	0.865474	-0.261382	-1.036709
C144	C	1.365474	0.238618	-0.536709
C145	C	0.945569	-0.341510	-1.036713
C146	C	1.445569	0.158490	-0.536713
C147	C	0.945567	-0.341520	-0.971278
C148	C	1.445567	0.158480	-0.471278
C149	C	0.905522	-0.301457	-0.938561
C150	C	1.405522	0.198543	-0.438561
C151	C	0.905421	-0.301596	-0.139069
C152	C	1.405421	0.198404	0.360931
C153	C	0.905522	-0.301436	-0.069428
C154	C	1.405522	0.198564	0.430572
H155	H	0.667029	-0.229065	-0.374684
H156	H	1.167029	0.270935	0.125316
H157	H	0.666821	-0.374258	-0.229004
H158	H	1.166821	0.125742	0.270996
H159	H	0.465211	-0.199217	-0.311019
H160	H	0.965211	0.300783	0.188981
H161	H	0.978232	-1.062323	-0.374686
H162	H	1.478232	-0.562323	0.125314
O163	O	0.895682	-0.736937	-0.190532
O164	O	1.395682	-0.236937	0.309468
C165	C	0.839057	-0.753000	-0.160841
C166	C	1.339057	-0.253000	0.339159
H167	H	0.822592	-0.800519	-0.178445
H168	H	1.322592	-0.300519	0.321555
H169	H	0.846626	-0.755260	-0.108149
H170	H	1.346626	-0.255260	0.391851
H171	H	0.802164	-0.716211	-0.171918
H172	H	1.302164	-0.216211	0.328082
O173	O	0.984545	-0.380325	-1.068517
O174	O	1.484545	0.119675	-0.568517
C175	C	1.025025	-0.344635	-1.106401
C176	C	1.525025	0.155365	-0.606401
H177	H	1.028915	-0.295290	-1.086699
H178	H	1.528915	0.204710	-0.586699
H179	H	1.073232	-0.367281	-1.107148
H180	H	1.573232	0.132719	-0.607148
H181	H	1.005661	-0.342474	-1.155988
H182	H	1.505661	0.157526	-0.655988
O183	O	0.794207	-0.291891	-0.737662
O184	O	1.294207	0.208109	-0.237662
C185	C	0.755137	-0.342516	-0.753633
C186	C	1.255137	0.157484	-0.253633
H187	H	0.784865	-0.382881	-0.771624
H188	H	1.284865	0.117119	-0.271624
H189	H	0.727948	-0.358296	-0.710585
H190	H	1.227948	0.141704	-0.210585
H191	H	0.721006	-0.327308	-0.791604
H192	H	1.221006	0.172692	-0.291604
H193	H	0.144686	-0.228957	-0.374712
H194	H	0.644686	0.271043	0.125288
H195	H	0.346499	-0.199196	-0.311025
H196	H	0.846499	0.300804	0.188975
O197	O	0.341242	-0.412932	-0.291892
O198	O	0.841242	0.087068	0.208108
C199	C	0.384101	-0.462759	-0.287444
C200	C	0.884101	0.037241	0.212556
H201	H	0.430753	-0.444475	-0.269318
H202	H	0.930753	0.055525	0.230682
H203	H	0.365143	-0.499557	-0.253852
H204	H	0.865143	0.000443	0.246148
H205	H	0.391064	-0.484536	-0.335564
H206	H	0.891064	0.015464	0.164436
O207	O	0.826556	-0.938846	-0.222771
O208	O	1.326556	-0.438846	0.277229
C209	C	0.791213	-0.981819	-0.187389
C210	C	1.291213	-0.481819	0.312611
H211	H	0.816895	-1.028435	-0.185251
H212	H	1.316895	-0.528435	0.314749
H213	H	0.784550	-0.962954	-0.138014
H214	H	1.284550	-0.462954	0.361986
H215	H	0.743618	-0.988817	-0.210288
H216	H	1.243618	-0.488817	0.289712
O217	O	0.984544	-0.380470	-0.664786
O218	O	1.484544	0.119530	-0.164786
C219	C	1.046998	-0.366760	-0.648832
C220	C	1.546998	0.133240	-0.148832
H221	H	1.048307	-0.342686	-0.601329
H222	H	1.548307	0.157314	-0.101329
H223	H	1.075065	-0.411975	-0.646590
H224	H	1.575065	0.088025	-0.146590
H225	H	1.068124	-0.334535	-0.685675
H226	H	1.568124	0.165465	-0.185675
O227	O	0.268451	-0.222642	-0.381039
O228	O	0.768451	0.277358	0.118961
C229	C	0.225594	-0.187324	-0.416483
C230	C	0.725594	0.312676	0.083517
H231	H	0.178941	-0.185108	-0.390825
H232	H	0.678941	0.314892	0.109175
H233	H	0.244553	-0.137973	-0.423260
H234	H	0.744553	0.362027	0.076740
H235	H	0.218631	-0.210332	-0.464025
H236	H	0.718631	0.289668	0.035975
O237	O	0.139299	-0.380522	-0.222831
O238	O	0.639299	0.119478	0.277169
C239	C	0.101416	-0.421019	-0.258431
C240	C	0.601416	0.078981	0.241569
H241	H	0.121154	-0.424956	-0.307770
H242	H	0.621154	0.075044	0.192230
H243	H	0.100618	-0.469208	-0.235682
H244	H	0.600618	0.030792	0.264318
H245	H	0.051844	-0.401642	-0.260626
H246	H	0.551844	0.098358	0.239374
O247	O	0.268221	-0.380535	-0.222717
O248	O	0.768221	0.119465	0.277283
C249	C	0.225262	-0.415837	-0.187278
C250	C	0.725262	0.084163	0.312722
H251	H	0.178628	-0.418032	-0.212941
H252	H	0.678628	0.081968	0.287059
H253	H	0.244118	-0.465196	-0.180502
H254	H	0.744118	0.034804	0.319498
H255	H	0.218301	-0.392829	-0.139735
H256	H	0.718301	0.107171	0.360265
H257	H	0.896592	-0.860714	-0.199453
H258	H	1.396592	-0.360714	0.300547
H259	H	0.978157	-0.374240	-0.541005
H260	H	1.478157	0.125760	-0.041005
O261	O	0.826583	-1.067808	-0.222940
O262	O	1.326583	-0.567808	0.277060
C263	C	0.786101	-1.105665	-0.258585
C264	C	1.286101	-0.605665	0.241415
H265	H	0.808181	-1.115412	-0.306087
H266	H	1.308181	-0.615412	0.193913
H267	H	0.777728	-1.151705	-0.233064
H268	H	1.277728	-0.651705	0.266936
H269	H	0.739659	-1.080492	-0.265426
H270	H	1.239659	-0.580492	0.234574
H271	H	0.978172	-0.374149	-0.944645
H272	H	1.478172	0.125851	-0.444645
H273	H	0.465004	-0.404036	-0.292710
H274	H	0.965004	0.095964	0.207290
O275	O	0.826500	-0.664036	-0.222699
O276	O	1.326500	-0.164036	0.277301
C277	C	0.840227	-0.648083	-0.160262
C278	C	1.340227	-0.148083	0.339738
H279	H	0.864293	-0.600546	-0.158978
H280	H	1.364293	-0.100546	0.341022
H281	H	0.795020	-0.645917	-0.132127
H282	H	1.295020	-0.145917	0.367873
H283	H	0.872464	-0.684886	-0.139192
H284	H	1.372464	-0.184886	0.360808
H285	H	0.832865	-0.228754	-1.063341
H286	H	1.332865	0.271246	-0.563341
H287	H	0.832708	-0.540243	-0.229072
H288	H	1.332708	-0.040243	0.270928
O289	O	0.915103	-0.865623	-0.413231
O290	O	1.415103	-0.365623	0.086769
C291	C	0.864440	-0.849674	-0.452210
C292	C	1.364440	-0.349674	0.047790
H293	H	0.845149	-0.802194	-0.437698
H294	H	1.345149	-0.302194	0.062302
H295	H	0.880993	-0.847385	-0.502813
H296	H	1.380993	-0.347385	-0.002813
H297	H	0.826212	-0.886545	-0.447639
H298	H	1.326212	-0.386545	0.052361
H299	H	0.548108	-0.374236	-0.229022
H300	H	1.048108	0.125764	0.270978
O301	O	1.016856	-0.311228	-0.866611
O302	O	1.516856	0.188772	-0.366611
C303	C	1.066677	-0.315581	-0.823719
C304	C	1.566677	0.184419	-0.323719
H305	H	1.048396	-0.333752	-0.777064
H306	H	1.548396	0.166248	-0.277064
H307	H	1.103505	-0.349094	-0.842629
H308	H	1.603505	0.150906	-0.342629
H309	H	1.088416	-0.267418	-0.816780
H310	H	1.588416	0.232582	-0.316780
O311	O	0.984500	-0.938555	-0.381026
O312	O	1.484500	-0.438555	0.118974
C313	C	1.019870	-0.981399	-0.416425
C314	C	1.519870	-0.481399	0.083575
H315	H	0.994224	-1.028071	-0.418574
H316	H	1.494224	-0.528071	0.081426
H317	H	1.026514	-0.962452	-0.465795
H318	H	1.526514	-0.462452	0.034205
H319	H	1.067474	-0.988317	-0.393533
H320	H	1.567474	-0.488317	0.106467
O321	O	0.826530	-0.222652	-0.535784
O322	O	1.326530	0.277348	-0.035784
C323	C	0.786026	-0.258341	-0.497925
C324	C	1.286026	0.241659	0.002075
H325	H	0.808095	-0.305820	-0.488113
H326	H	1.308095	0.194180	0.011887
H327	H	0.777637	-0.232831	-0.451917
H328	H	1.277637	0.267169	0.048083
H329	H	0.739594	-0.265229	-0.523128
H330	H	1.239594	0.234771	-0.023128
H331	H	0.548323	-0.229037	-0.374686
H332	H	1.048323	0.270963	0.125314
O333	O	0.826551	-0.222477	-0.664753
O334	O	1.326551	0.277523	-0.164753
C335	C	0.791193	-0.187133	-0.621846
C336	C	1.291193	0.312867	-0.121846
H337	H	0.816852	-0.184972	-0.575210
H338	H	1.316852	0.315028	-0.075210
H339	H	0.784548	-0.137764	-0.640765
H340	H	1.284548	0.362236	-0.140765
H341	H	0.743590	-0.210082	-0.614866
H342	H	1.243590	0.289918	-0.114866
H343	H	1.007933	-0.310441	-0.742855
H344	H	1.507933	0.189559	-0.242855
H345	H	0.978045	-0.539977	-0.374591
H346	H	1.478045	-0.039977	0.125409
O347	O	0.794228	-0.291647	-0.866605
O348	O	1.294228	0.208353	-0.366605
C349	C	0.764599	-0.235024	-0.850620
C350	C	1.264599	0.264976	-0.350620
H351	H	0.800925	-0.200420	-0.832656
H352	H	1.300925	0.299580	-0.332656
H353	H	0.740585	-0.214783	-0.893654
H354	H	1.240585	0.285217	-0.393654
H355	H	0.728328	-0.244083	-0.812625
H356	H	1.228328	0.255917	-0.312625
O357	O	0.826513	-0.222462	-0.939585
O358	O	1.326513	0.277538	-0.439585
C359	C	0.791177	-0.187086	-0.982491
C360	C	1.291177	0.312914	-0.482491
H361	H	0.788997	-0.212739	-1.029126
H362	H	1.288997	0.287261	-0.529126
H363	H	0.741814	-0.180421	-0.963569
H364	H	1.241814	0.319579	-0.463569
H365	H	0.814145	-0.139492	-0.989473
H366	H	1.314145	0.360508	-0.489473
H367	H	0.914373	-0.741848	-0.404290
H368	H	1.414373	-0.241848	0.095710
O369	O	0.984433	-0.663724	-0.380940
O370	O	1.484433	-0.163724	0.119060
C371	C	1.019755	-0.620754	-0.416347
C372	C	1.519755	-0.120754	0.083653
H373	H	1.021928	-0.574125	-0.390678
H374	H	1.521928	-0.074125	0.109322
H375	H	1.069121	-0.639604	-0.423086
H376	H	1.569121	-0.139604	0.076914
H377	H	0.996778	-0.613786	-0.463907
H378	H	1.496778	-0.113786	0.036093
