data_functionalizedCrystal
_audit_creation_method	'MofGen! by Chris Wilmer'
_symmetry_space_group_name_H-M	'P1'
_symmetry_Int_Tables_number	1
_symmetry_cell_setting	triclinic
loop_
_symmetry_equiv_pos_as_xyz
  x,y,z
_cell_length_a	21.395362
_cell_length_b	21.395361
_cell_length_c	21.395356
_cell_angle_alpha	90.031183
_cell_angle_beta	90.035878
_cell_angle_gamma	90.046585
loop_
_atom_site_label
_atom_site_type_symbol
_atom_site_fract_x
_atom_site_fract_y
_atom_site_fract_z
Zn1	Zn	0.957810	-0.249186	0.354573
Zn2	Zn	0.957727	-0.353963	0.249790
Zn3	Zn	0.853039	-0.249233	0.249774
Zn4	Zn	0.852994	-0.353959	0.354494
O5	O	0.905392	-0.301585	0.302158
O6	O	1.045477	-0.263067	0.340712
O7	O	0.943824	-0.340092	0.162110
O8	O	0.866991	-0.161548	0.263702
O9	O	1.045416	-0.340047	0.263729
O10	O	0.943965	-0.161514	0.340697
O11	O	0.866911	-0.263147	0.162098
O12	O	0.765355	-0.263142	0.263626
O13	O	0.866913	-0.340039	0.442183
O14	O	0.765322	-0.340084	0.340564
O15	O	0.943921	-0.263062	0.442240
O16	O	0.943780	-0.441641	0.263653
O17	O	0.866833	-0.441637	0.340579
C18	C	0.742605	-0.301618	0.302085
C19	C	0.672963	-0.301647	0.302069
C20	C	0.640249	-0.341764	0.342070
C21	C	0.574814	-0.341749	0.342098
C22	C	0.542095	-0.301623	0.302113
C23	C	0.574817	-0.261499	0.262109
C24	C	0.640251	-0.261511	0.262087
C25	C	0.438378	-0.296585	0.245708
C26	C	0.372945	-0.296578	0.245730
C27	C	0.340274	-0.301582	0.302182
C28	C	0.373045	-0.306608	0.358616
C29	C	0.438479	-0.306620	0.358594
C30	C	0.471143	-0.301605	0.302133
C31	C	0.236608	-0.341685	0.342218
C32	C	0.171171	-0.341665	0.342247
C33	C	0.171176	-0.261418	0.262252
C34	C	0.236611	-0.261435	0.262229
C35	C	0.269323	-0.301571	0.302211
C36	C	0.905310	-0.464373	0.302123
C37	C	0.905332	-0.534014	0.302129
C38	C	0.945433	-0.566708	0.262114
C39	C	0.945463	-0.632143	0.262128
C40	C	0.905379	-0.664882	0.302150
C41	C	0.865274	-0.632180	0.342172
C42	C	0.865251	-0.566746	0.342162
C43	C	0.848963	-0.768612	0.307041
C44	C	0.848986	-0.834045	0.307047
C45	C	0.905452	-0.866703	0.302187
C46	C	0.961897	-0.833920	0.297307
C47	C	0.961873	-0.768486	0.297296
C48	C	0.905400	-0.735835	0.302167
C49	C	0.945588	-0.970350	0.262186
C50	C	0.945619	-1.035786	0.262204
C51	C	0.865425	-1.035822	0.342245
C52	C	0.865400	-0.970386	0.342230
C53	C	0.905481	-0.937654	0.302197
C54	C	1.068816	-0.301552	0.302231
C55	C	1.138457	-0.301538	0.302262
C56	C	0.905421	-0.301545	0.465581
C57	C	0.905434	-0.301528	0.535222
C58	C	0.905493	-0.138162	0.302206
C59	C	0.905535	-0.068520	0.302227
C60	C	0.905400	-0.301580	0.139370
C61	C	0.905509	-0.301421	0.069729
C62	C	0.945591	-0.261346	1.037050
C63	C	0.945586	-0.261361	0.971614
C64	C	0.905488	-0.301444	0.938861
C65	C	0.865403	-0.341526	0.971548
C66	C	0.865413	-0.341514	1.036982
C67	C	0.849019	-0.306422	0.835165
C68	C	0.849007	-0.306429	0.769732
C69	C	0.905455	-0.301484	0.737040
C70	C	0.961917	-0.296519	0.769788
C71	C	0.961928	-0.296507	0.835223
C72	C	0.905472	-0.301462	0.867908
C73	C	0.945536	-0.261424	0.633408
C74	C	0.945532	-0.261444	0.567971
C75	C	0.865343	-0.341605	0.567906
C76	C	0.865352	-0.341589	0.633342
C77	C	0.905448	-0.301495	0.666089
H78	H	0.144536	-0.374331	0.374824
H79	H	0.832697	-0.374244	0.541239
Br80	Br	0.772383	-0.878530	0.313666
Br81	Br	0.281012	-0.206988	0.207938
H82	H	1.007877	-0.860508	0.293349
Br83	Br	0.530415	-0.207037	0.207849
H84	H	0.978183	-0.228777	0.660072
Br85	Br	1.038551	-0.289777	0.879666
Br86	Br	1.038473	-0.723995	0.290678
H87	H	0.978071	-0.540059	0.229519
Br88	Br	0.482711	-0.289793	0.169087
Br89	Br	0.126779	-0.206955	0.207992
H90	H	0.978227	-0.943698	0.229590
Br91	Br	0.810987	-0.395929	0.927099
H92	H	0.978278	-1.062405	0.229621
H93	H	0.346269	-0.292489	0.199778
Br94	Br	0.530406	-0.396195	0.396391
H95	H	0.465157	-0.310710	0.404543
H96	H	0.666887	-0.228841	0.229513
Br97	Br	0.999890	-0.676524	0.207819
H98	H	0.832790	-1.062477	0.374834
Br99	Br	0.810972	-0.926012	0.396537
Br100	Br	0.810952	-0.395979	0.677696
Br101	Br	0.772381	-0.313159	0.725294
Br102	Br	0.772324	-0.724298	0.313640
H103	H	0.978225	-0.228726	0.945001
H104	H	1.007883	-0.292490	0.743172
Br105	Br	0.810879	-0.676609	0.396493
H106	H	0.803048	-0.310449	0.861778
Br107	Br	0.328714	-0.313399	0.435237
Br108	Br	0.999939	-0.207058	0.523619
Br109	Br	0.281007	-0.396151	0.396480
H110	H	0.832594	-0.540126	0.374747
Br111	Br	1.000032	-0.206960	1.081489
H112	H	0.666879	-0.374445	0.374627
Br113	Br	0.811013	-0.395907	1.081337
