data_functionalizedCrystal
_audit_creation_method	'MofGen! by Chris Wilmer'
_symmetry_space_group_name_H-M	'P1'
_symmetry_Int_Tables_number	1
_symmetry_cell_setting	triclinic
loop_
_symmetry_equiv_pos_as_xyz
  x,y,z
_cell_length_a	12.759401
_cell_length_b	12.759399
_cell_length_c	12.759393
_cell_angle_alpha	89.968539
_cell_angle_beta	89.979527
_cell_angle_gamma	90.016641
loop_
_atom_site_label
_atom_site_type_symbol
_atom_site_fract_x
_atom_site_fract_y
_atom_site_fract_z
Zn1	Zn	1.606259	-0.418167	-0.594017
Zn2	Zn	1.606150	-0.593884	-0.418336
Zn3	Zn	1.430559	-0.418225	-0.418352
Zn4	Zn	1.430548	-0.593809	-0.593973
O5	O	1.518379	-0.506021	-0.506170
O6	O	1.753265	-0.441484	-0.570724
O7	O	1.582816	-0.570638	-0.271317
O8	O	1.453916	-0.271196	-0.441680
O9	O	1.753185	-0.570582	-0.441652
O10	O	1.583002	-0.271154	-0.570740
O11	O	1.453810	-0.441582	-0.271329
O12	O	1.283536	-0.441509	-0.441637
O13	O	1.453897	-0.570454	-0.741000
O14	O	1.283528	-0.570510	-0.570665
O15	O	1.582991	-0.441411	-0.741032
O16	O	1.582806	-0.740895	-0.441609
O17	O	1.453792	-0.740840	-0.570649
C18	C	1.245411	-0.506008	-0.506149
C19	C	1.128635	-0.506028	-0.506165
C20	C	1.073796	-0.573301	-0.573244
C21	C	0.964072	-0.573305	-0.573265
C22	C	0.964035	-0.438760	-0.439118
C23	C	1.073757	-0.438752	-0.439104
C24	C	1.518314	-0.778989	-0.506146
C25	C	1.518383	-0.895765	-0.506171
C26	C	1.585637	-0.950621	-0.439056
C27	C	1.585705	-1.060345	-0.439091
C28	C	1.451255	-1.060348	-0.573359
C29	C	1.451193	-0.950626	-0.573328
C30	C	1.792412	-0.506035	-0.506191
C31	C	1.909189	-0.506041	-0.506200
C32	C	1.518455	-0.505918	-0.780203
C33	C	1.518488	-0.505874	-0.896980
C34	C	1.518472	-0.231988	-0.506217
C35	C	1.518512	-0.115211	-0.506237
C36	C	1.585733	-0.438630	-1.061592
C37	C	1.585713	-0.438671	-0.951867
C38	C	1.451285	-0.573047	-0.951822
C39	C	1.451311	-0.573011	-1.061544
C40	C	1.518363	-0.506049	-0.233202
C41	C	1.518534	-0.505797	-0.116426
H42	H	0.919340	-0.383988	-0.384518
C43	C	1.636923	-0.260777	-0.918145
C44	C	1.659575	-0.364828	-0.891599
H45	H	1.682521	-0.215187	-0.880935
H46	H	1.646555	-0.251150	-0.991339
H47	H	1.566331	-0.245423	-0.900146
H48	H	1.730165	-0.380184	-0.909605
H49	H	1.649951	-0.374459	-0.818389
H50	H	1.640471	-1.105004	-0.384441
C51	C	1.391640	-1.228546	-0.633015
C52	C	1.377391	-1.120655	-0.647165
H53	H	1.346031	-1.265773	-0.678575
H54	H	1.462222	-1.246452	-0.648462
H55	H	1.376311	-1.246585	-0.562411
H56	H	1.392727	-1.102614	-0.717767
H57	H	1.306792	-1.102741	-0.631724
C58	C	1.600411	-0.297258	-1.185008
C59	C	1.659629	-0.364754	-1.121917
H60	H	1.646036	-0.251646	-1.222241
H61	H	1.560405	-0.337252	-1.233368
H62	H	1.554644	-0.257087	-1.142194
H63	H	1.705392	-0.404930	-1.164731
H64	H	1.699653	-0.324755	-1.073550
C65	C	1.318288	-0.961641	-0.706048
C66	C	1.377259	-0.890320	-0.647104
H67	H	1.272645	-0.924408	-0.751588
H68	H	1.364064	-1.004363	-0.746286
H69	H	1.278148	-1.004510	-0.660240
H70	H	1.417406	-0.847456	-0.692912
H71	H	1.331477	-0.847580	-0.606863
H72	H	1.640349	-0.905956	-0.384374
H73	H	1.396554	-0.627770	-0.907124
H74	H	1.396589	-0.627712	-1.106192
C75	C	1.197159	-0.714640	-0.587585
C76	C	1.134118	-0.647243	-0.646965
H77	H	1.234390	-0.760291	-0.633103
H78	H	1.245522	-0.674576	-0.547644
H79	H	1.154313	-0.754774	-0.541750
H80	H	1.176965	-0.607104	-0.692794
H81	H	1.085749	-0.687311	-0.686924
H82	H	1.118408	-0.383963	-0.384480
C83	C	0.975137	-0.706305	-0.705848
C84	C	0.903794	-0.647259	-0.646996
H85	H	0.937922	-0.751966	-0.751364
H86	H	1.017962	-0.660577	-0.746109
H87	H	1.017902	-0.746430	-0.659982
H88	H	0.861034	-0.607128	-0.692862
H89	H	0.860951	-0.692992	-0.606732
