data_functionalizedCrystal
_audit_creation_method	'MofGen! by Chris Wilmer'
_symmetry_space_group_name_H-M	'P1'
_symmetry_Int_Tables_number	1
_symmetry_cell_setting	triclinic
loop_
_symmetry_equiv_pos_as_xyz
  x,y,z
_cell_length_a	21.395362
_cell_length_b	21.395361
_cell_length_c	21.395355
_cell_angle_alpha	89.978489
_cell_angle_beta	89.956060
_cell_angle_gamma	90.046585
loop_
_atom_site_label
_atom_site_type_symbol
_atom_site_fract_x
_atom_site_fract_y
_atom_site_fract_z
Zn1	Zn	0.957859	-0.249246	-0.354573
Zn2	Zn	1.291193	0.084088	-0.021239
Zn3	Zn	1.624526	0.417421	0.312094
Zn4	Zn	0.957762	-0.354005	-0.249790
Zn5	Zn	1.291095	-0.020672	0.083544
Zn6	Zn	1.624429	0.312661	0.416877
Zn7	Zn	0.853074	-0.249275	-0.249774
Zn8	Zn	1.186408	0.084059	0.083559
Zn9	Zn	1.519741	0.417392	0.416893
Zn10	Zn	0.853044	-0.354018	-0.354494
Zn11	Zn	1.186377	-0.020685	-0.021161
Zn12	Zn	1.519710	0.312648	0.312172
O13	O	0.905435	-0.301636	-0.302158
O14	O	1.238768	0.031697	0.031176
O15	O	1.572102	0.365031	0.364509
O16	O	1.045524	-0.263125	-0.340712
O17	O	1.378858	0.070209	-0.007379
O18	O	1.712191	0.403542	0.325954
O19	O	0.943847	-0.340119	-0.162110
O20	O	1.277180	-0.006786	0.171224
O21	O	1.610514	0.326547	0.504557
O22	O	0.867028	-0.161593	-0.263702
O23	O	1.200361	0.171740	0.069632
O24	O	1.533695	0.505074	0.402965
O25	O	1.045453	-0.340091	-0.263729
O26	O	1.378786	-0.006758	0.069605
O27	O	1.712119	0.326575	0.402938
O28	O	0.944013	-0.161572	-0.340697
O29	O	1.277347	0.171762	-0.007364
O30	O	1.610680	0.505095	0.325970
O31	O	0.866934	-0.263174	-0.162098
O32	O	1.200267	0.070159	0.171235
O33	O	1.533600	0.403492	0.504569
O34	O	0.765392	-0.263187	-0.263626
O35	O	1.098726	0.070147	0.069707
O36	O	1.432059	0.403480	0.403041
O37	O	0.866976	-0.340113	-0.442183
O38	O	1.200309	-0.006780	-0.108849
O39	O	1.533642	0.326553	0.224484
O40	O	0.765370	-0.340141	-0.340564
O41	O	1.098703	-0.006808	-0.007230
O42	O	1.432036	0.326525	0.326103
O43	O	0.943983	-0.263137	-0.442240
O44	O	1.277317	0.070196	-0.108907
O45	O	1.610650	0.403530	0.224427
O46	O	0.943817	-0.441685	-0.263653
O47	O	1.277150	-0.108352	0.069681
O48	O	1.610484	0.224982	0.403014
O49	O	0.866881	-0.441695	-0.340579
O50	O	1.200214	-0.108361	-0.007246
O51	O	1.533548	0.224972	0.326088
C52	C	0.742647	-0.301669	-0.302085
C53	C	1.075981	0.031664	0.031248
C54	C	1.409314	0.364998	0.364582
C55	C	0.673006	-0.301698	-0.302069
C56	C	1.006339	0.031635	0.031265
C57	C	1.339673	0.364968	0.364598
C58	C	0.640297	-0.341822	-0.342070
C59	C	0.973631	-0.008488	-0.008737
C60	C	1.306964	0.324845	0.324597
C61	C	0.574862	-0.341806	-0.342098
C62	C	0.908195	-0.008473	-0.008765
C63	C	1.241529	0.324860	0.324569
C64	C	0.542138	-0.301674	-0.302113
C65	C	0.875471	0.031659	0.031220
C66	C	1.208804	0.364992	0.364553
C67	C	0.574854	-0.261543	-0.262109
C68	C	0.908187	0.071790	0.071224
C69	C	1.241521	0.405124	0.404558
C70	C	0.640288	-0.261555	-0.262087
C71	C	0.973622	0.071778	0.071247
C72	C	1.306955	0.405111	0.404580
C73	C	0.438413	-0.296627	-0.245708
C74	C	0.771746	0.036707	0.087625
C75	C	1.105080	0.370040	0.420958
C76	C	0.372980	-0.296619	-0.245730
C77	C	0.706313	0.036714	0.087604
C78	C	1.039647	0.370048	0.420937
C79	C	0.340317	-0.301633	-0.302182
C80	C	0.673650	0.031700	0.031151
C81	C	1.006984	0.365033	0.364484
C82	C	0.373095	-0.306668	-0.358616
C83	C	0.706428	0.026665	-0.025283
C84	C	1.039762	0.359998	0.308051
C85	C	0.438529	-0.306681	-0.358594
C86	C	0.771862	0.026653	-0.025260
C87	C	1.105196	0.359986	0.308073
C88	C	0.471185	-0.301656	-0.302133
C89	C	0.804519	0.031677	0.031200
C90	C	1.137852	0.365010	0.364533
C91	C	0.236656	-0.341742	-0.342218
C92	C	0.569989	-0.008409	-0.008884
C93	C	0.903323	0.324924	0.324449
C94	C	0.171219	-0.341723	-0.342247
C95	C	0.504553	-0.008389	-0.008913
C96	C	0.837886	0.324944	0.324420
C97	C	0.171213	-0.261462	-0.262252
C98	C	0.504546	0.071871	0.071081
C99	C	0.837879	0.405204	0.404415
C100	C	0.236648	-0.261479	-0.262229
C101	C	0.569981	0.071854	0.071105
C102	C	0.903315	0.405188	0.404438
C103	C	0.269366	-0.301622	-0.302211
C104	C	0.602699	0.031711	0.031123
C105	C	0.936032	0.365044	0.364456
C106	C	0.905352	-0.464424	-0.302123
C107	C	1.238685	-0.131090	0.031211
C108	C	1.572019	0.202243	0.364544
C109	C	0.905374	-0.534065	-0.302129
C110	C	1.238707	-0.200732	0.031205
C111	C	1.572041	0.132602	0.364538
C112	C	0.945470	-0.566752	-0.262114
C113	C	1.278804	-0.233419	0.071219
C114	C	1.612137	0.099914	0.404552
C115	C	0.945499	-0.632188	-0.262128
C116	C	1.278833	-0.298854	0.071205
C117	C	1.612166	0.034479	0.404538
C118	C	0.905421	-0.664933	-0.302150
C119	C	1.238755	-0.331600	0.031183
C120	C	1.572088	0.001733	0.364516
C121	C	0.865322	-0.632238	-0.342172
C122	C	1.198656	-0.298905	-0.008839
C123	C	1.531989	0.034429	0.324494
C124	C	0.865299	-0.566804	-0.342162
C125	C	1.198632	-0.233470	-0.008828
C126	C	1.531965	0.099863	0.324505
C127	C	0.849006	-0.768664	-0.307041
C128	C	1.182340	-0.435331	0.026292
C129	C	1.515673	-0.101997	0.359626
C130	C	0.849029	-0.834097	-0.307047
C131	C	1.182362	-0.500764	0.026286
C132	C	1.515696	-0.167430	0.359619
C133	C	0.905494	-0.866754	-0.302187
C134	C	1.238828	-0.533421	0.031146
C135	C	1.572161	-0.200087	0.364480
C136	C	0.961939	-0.833970	-0.297307
C137	C	1.295272	-0.500637	0.036026
C138	C	1.628605	-0.167303	0.369360
C139	C	0.961915	-0.768536	-0.297296
C140	C	1.295248	-0.435202	0.036037
C141	C	1.628582	-0.101869	0.369370
C142	C	0.905443	-0.735886	-0.302167
C143	C	1.238776	-0.402552	0.031167
C144	C	1.572109	-0.069219	0.364500
C145	C	0.945625	-0.970394	-0.262186
C146	C	1.278959	-0.637060	0.071148
C147	C	1.612292	-0.303727	0.404481
C148	C	0.945655	-1.035830	-0.262204
C149	C	1.278989	-0.702497	0.071129
C150	C	1.612322	-0.369164	0.404463
C151	C	0.865473	-1.035879	-0.342245
C152	C	1.198806	-0.702546	-0.008912
C153	C	1.532139	-0.369213	0.324422
C154	C	0.865448	-0.970444	-0.342230
C155	C	1.198782	-0.637111	-0.008896
C156	C	1.532115	-0.303777	0.324437
C157	C	0.905524	-0.937705	-0.302197
C158	C	1.238857	-0.604372	0.031137
C159	C	1.572190	-0.271039	0.364470
C160	C	1.068858	-0.301603	-0.302231
C161	C	1.402192	0.031730	0.031102
C162	C	1.735525	0.365063	0.364436
C163	C	1.138499	-0.301589	-0.302262
C164	C	1.471833	0.031744	0.031071
C165	C	1.805166	0.365077	0.364405
C166	C	0.905487	-0.301623	-0.465581
C167	C	1.238820	0.031710	-0.132248
C168	C	1.572154	0.365043	0.201086
C169	C	0.905509	-0.301618	-0.535222
C170	C	1.238842	0.031715	-0.201889
C171	C	1.572176	0.365049	0.131444
C172	C	0.905535	-0.138213	-0.302206
C173	C	1.238868	0.195121	0.031127
C174	C	1.572202	0.528454	0.364460
C175	C	0.905578	-0.068571	-0.302227
C176	C	1.238911	0.264762	0.031106
C177	C	1.572244	0.598095	0.364440
C178	C	0.945605	-0.261535	-0.567966
C179	C	1.278939	0.071799	-0.234633
C180	C	1.612272	0.405132	0.098700
C181	C	0.945604	-0.261508	-0.633402
C182	C	1.278938	0.071826	-0.300068
C183	C	1.612271	0.405159	0.033265
C184	C	0.905514	-0.301575	-0.666091
C185	C	1.238847	0.031758	-0.332757
C186	C	1.572181	0.365091	0.000576
C187	C	0.865410	-0.341661	-0.633339
C188	C	1.198743	-0.008328	-0.300005
C189	C	1.532077	0.325006	0.033328
C190	C	0.865407	-0.341682	-0.567904
C191	C	1.198741	-0.008349	-0.234571
C192	C	1.532074	0.324984	0.098762
C193	C	0.900538	-0.357992	-0.769752
C194	C	1.233871	-0.024659	-0.436418
C195	C	1.567205	0.308675	-0.103085
C196	C	0.900545	-0.357972	-0.835185
C197	C	1.233878	-0.024638	-0.501851
C198	C	1.567211	0.308695	-0.168518
C199	C	0.905518	-0.301509	-0.867911
C200	C	1.238851	0.031824	-0.534578
C201	C	1.572184	0.365158	-0.201245
C202	C	0.910497	-0.245065	-0.835197
C203	C	1.243830	0.088268	-0.501864
C204	C	1.577164	0.421602	-0.168531
C205	C	0.910495	-0.245086	-0.769763
C206	C	1.243828	0.088247	-0.436430
C207	C	1.577161	0.421580	-0.103097
C208	C	0.905512	-0.301556	-0.737043
C209	C	1.238845	0.031777	-0.403710
C210	C	1.572179	0.365110	-0.070376
C211	C	0.945615	-0.261393	-0.971608
C212	C	1.278949	0.071940	-0.638275
C213	C	1.612282	0.405273	-0.304941
C214	C	0.945610	-0.261365	-1.037045
C215	C	1.278943	0.071968	-0.703711
C216	C	1.612277	0.405301	-0.370378
C217	C	0.865419	-0.341524	-1.036980
C218	C	1.198752	-0.008191	-0.703647
C219	C	1.532085	0.325142	-0.370314
C220	C	0.865421	-0.341547	-0.971545
C221	C	1.198754	-0.008213	-0.638212
C222	C	1.532087	0.325120	-0.304878
C223	C	0.905522	-0.301482	-0.938863
C224	C	1.238856	0.031851	-0.605529
C225	C	1.572189	0.365185	-0.272196
C226	C	0.905419	-0.301603	-0.139370
C227	C	1.238752	0.031730	0.193963
C228	C	1.572086	0.365063	0.527297
C229	C	0.905518	-0.301432	-0.069729
C230	C	1.238852	0.031901	0.263604
C231	C	1.572185	0.365234	0.596938
H232	H	0.144589	-0.374395	-0.374824
H233	H	0.477922	-0.041061	-0.041491
H234	H	0.811256	0.292272	0.291842
F235	F	0.675100	-0.218848	-0.219510
F236	F	1.008433	0.114485	0.113823
F237	F	1.341767	0.447819	0.447157
H238	H	0.832691	-0.658904	-0.374760
H239	H	1.166025	-0.325570	-0.041426
H240	H	1.499358	0.007763	0.291907
F241	F	0.988176	-0.666983	-0.219537
F242	F	1.321510	-0.333650	0.113796
F243	F	1.654843	-0.000316	0.447129
H244	H	0.666932	-0.374509	-0.374627
H245	H	1.000265	-0.041175	-0.041294
H246	H	1.333599	0.292158	0.292039
H247	H	0.263280	-0.228809	-0.229652
H248	H	0.596613	0.104524	0.103681
H249	H	0.929946	0.437857	0.437015
H250	H	0.978103	-0.540098	-0.229519
H251	H	1.311437	-0.206765	0.103815
H252	H	1.644770	0.126568	0.437148
F253	F	0.988272	-0.218834	-0.668258
F254	F	1.321605	0.114499	-0.334924
F255	F	1.654938	0.447833	-0.001591
H256	H	0.346297	-0.292523	-0.199778
H257	H	0.679631	0.040810	0.133555
H258	H	1.012964	0.374144	0.466889
H259	H	0.914547	-0.199128	-0.743130
H260	H	1.247881	0.134206	-0.409797
H261	H	1.581214	0.467539	-0.076463
H262	H	0.832774	-0.374190	-0.944885
H263	H	1.166107	-0.040857	-0.611551
H264	H	1.499440	0.292476	-0.278218
H265	H	0.832770	-0.374141	-1.063595
H266	H	1.166103	-0.040808	-0.730262
H267	H	1.499437	0.292525	-0.396928
H268	H	0.803068	-0.860785	-0.311015
H269	H	1.136402	-0.527451	0.022319
H270	H	1.469735	-0.194118	0.355652
F271	F	0.915792	-0.184969	-0.870022
F272	F	1.249126	0.148365	-0.536689
F273	F	1.582459	0.481698	-0.203356
F274	F	0.136389	-0.218747	-0.219700
F275	F	0.469723	0.114586	0.113633
F276	F	0.803056	0.447920	0.446967
H277	H	0.978260	-0.228721	-1.063704
H278	H	1.311594	0.104612	-0.730371
H279	H	1.644927	0.437946	-0.397037
F280	F	0.822769	-0.935654	-0.384817
F281	F	1.156103	-0.602321	-0.051483
F282	F	1.489436	-0.268988	0.281850
H283	H	1.007873	-0.741844	-0.293325
H284	H	1.341207	-0.408511	0.040009
H285	H	1.674540	-0.075178	0.373342
H286	H	0.832647	-0.540189	-0.374747
H287	H	1.165980	-0.206856	-0.041414
H288	H	1.499314	0.126478	0.291920
H289	H	0.978259	-0.943737	-0.229590
H290	H	1.311593	-0.610403	0.103743
H291	H	1.644926	-0.277070	0.437076
H292	H	0.832843	-1.062540	-0.374834
H293	H	1.166176	-0.729207	-0.041501
H294	H	1.499510	-0.395873	0.291832
F295	F	0.988292	-0.218751	-0.936823
F296	F	1.321625	0.114582	-0.603490
F297	F	1.654958	0.447915	-0.270156
H298	H	0.465002	-0.292541	-0.199734
H299	H	0.798335	0.040792	0.133599
H300	H	1.131668	0.374126	0.466932
H301	H	0.896494	-0.403932	-0.861815
H302	H	1.229828	-0.070598	-0.528482
H303	H	1.563161	0.262735	-0.195149
F304	F	0.540026	-0.218829	-0.219557
F305	F	0.873359	0.114504	0.113776
F306	F	1.206692	0.447838	0.447110
F307	F	0.473411	-0.312037	-0.418652
F308	F	0.806745	0.021297	-0.085319
F309	F	1.140078	0.354630	0.248015
H310	H	1.007918	-0.860558	-0.293349
H311	H	1.341251	-0.527224	0.039984
H312	H	1.674585	-0.193891	0.373317
H313	H	0.803022	-0.742081	-0.311001
H314	H	1.136355	-0.408748	0.022332
H315	H	1.469689	-0.075414	0.355665
H316	H	0.896321	-0.403959	-0.743111
H317	H	1.229654	-0.070626	-0.409777
H318	H	1.562987	0.262708	-0.076444
F319	F	0.988338	-1.070619	-0.219617
F320	F	1.321671	-0.737285	0.113716
F321	F	1.655004	-0.403952	0.447050
F322	F	0.822741	-0.384302	-0.668129
F323	F	1.156074	-0.050968	-0.334796
F324	F	1.489408	0.282365	-0.001463
H325	H	0.832753	-0.374322	-0.541245
H326	H	1.166087	-0.040989	-0.207911
H327	H	1.499420	0.292344	0.125422
F328	F	0.540044	-0.384513	-0.384675
F329	F	0.873377	-0.051179	-0.051342
F330	F	1.206711	0.282154	0.281992
F331	F	0.271479	-0.384463	-0.384772
F332	F	0.604812	-0.051129	-0.051439
F333	F	0.938145	0.282204	0.281895
F334	F	0.338338	-0.312003	-0.418702
F335	F	0.671671	0.021331	-0.085369
F336	F	1.005005	0.354664	0.247964
F337	F	0.988283	-0.218892	-0.533187
F338	F	1.321616	0.114442	-0.199854
F339	F	1.654949	0.447775	0.133479
