data_functionalizedCrystal
_audit_creation_method	'MofGen! by Chris Wilmer'
_symmetry_space_group_name_H-M	'P1'
_symmetry_Int_Tables_number	1
_symmetry_cell_setting	triclinic
loop_
_symmetry_equiv_pos_as_xyz
  x,y,z
_cell_length_a	21.395362
_cell_length_b	21.395361
_cell_length_c	21.395355
_cell_angle_alpha	89.978489
_cell_angle_beta	89.956060
_cell_angle_gamma	90.046585
loop_
_atom_site_label
_atom_site_type_symbol
_atom_site_fract_x
_atom_site_fract_y
_atom_site_fract_z
Zn1	Zn	0.957859	-0.249246	-0.354573
Zn2	Zn	1.457859	0.250754	0.145427
Zn3	Zn	0.957762	-0.354005	-0.249790
Zn4	Zn	1.457762	0.145995	0.250210
Zn5	Zn	0.853074	-0.249275	-0.249774
Zn6	Zn	1.353074	0.250725	0.250226
Zn7	Zn	0.853044	-0.354018	-0.354494
Zn8	Zn	1.353044	0.145982	0.145506
O9	O	0.905435	-0.301636	-0.302158
O10	O	1.405435	0.198364	0.197842
O11	O	1.045524	-0.263125	-0.340712
O12	O	1.545524	0.236875	0.159288
O13	O	0.943847	-0.340119	-0.162110
O14	O	1.443847	0.159881	0.337890
O15	O	0.867028	-0.161593	-0.263702
O16	O	1.367028	0.338407	0.236298
O17	O	1.045453	-0.340091	-0.263729
O18	O	1.545453	0.159909	0.236271
O19	O	0.944013	-0.161572	-0.340697
O20	O	1.444013	0.338428	0.159303
O21	O	0.866934	-0.263174	-0.162098
O22	O	1.366934	0.236826	0.337902
O23	O	0.765392	-0.263187	-0.263626
O24	O	1.265392	0.236813	0.236374
O25	O	0.866976	-0.340113	-0.442183
O26	O	1.366976	0.159887	0.057817
O27	O	0.765370	-0.340141	-0.340564
O28	O	1.265370	0.159859	0.159436
O29	O	0.943983	-0.263137	-0.442240
O30	O	1.443983	0.236863	0.057760
O31	O	0.943817	-0.441685	-0.263653
O32	O	1.443817	0.058315	0.236347
O33	O	0.866881	-0.441695	-0.340579
O34	O	1.366881	0.058305	0.159421
C35	C	0.742647	-0.301669	-0.302085
C36	C	1.242647	0.198331	0.197915
C37	C	0.673006	-0.301698	-0.302069
C38	C	1.173006	0.198302	0.197931
C39	C	0.905352	-0.464424	-0.302123
C40	C	1.405352	0.035576	0.197877
C41	C	0.905374	-0.534065	-0.302129
C42	C	1.405374	-0.034065	0.197871
C43	C	0.640297	-0.341822	-0.342070
C44	C	1.140297	0.158178	0.157930
C45	C	0.574862	-0.341806	-0.342098
C46	C	1.074862	0.158194	0.157902
C47	C	0.542138	-0.301674	-0.302113
C48	C	1.042138	0.198326	0.197887
C49	C	0.574854	-0.261543	-0.262109
C50	C	1.074854	0.238457	0.237891
C51	C	0.640288	-0.261555	-0.262087
C52	C	1.140288	0.238445	0.237913
C53	C	0.438413	-0.296627	-0.245708
C54	C	0.938413	0.203373	0.254292
C55	C	0.372980	-0.296619	-0.245730
C56	C	0.872980	0.203381	0.254270
C57	C	0.340317	-0.301633	-0.302182
C58	C	0.840317	0.198367	0.197818
C59	C	0.373095	-0.306668	-0.358616
C60	C	0.873095	0.193332	0.141384
C61	C	0.438529	-0.306681	-0.358594
C62	C	0.938529	0.193319	0.141406
C63	C	0.471185	-0.301656	-0.302133
C64	C	0.971185	0.198344	0.197867
C65	C	0.236656	-0.341742	-0.342218
C66	C	0.736656	0.158258	0.157782
C67	C	0.171219	-0.341723	-0.342247
C68	C	0.671219	0.158277	0.157753
C69	C	0.171213	-0.261462	-0.262252
C70	C	0.671213	0.238538	0.237748
C71	C	0.236648	-0.261479	-0.262229
C72	C	0.736648	0.238521	0.237771
C73	C	0.269366	-0.301622	-0.302211
C74	C	0.769366	0.198378	0.197789
C75	C	0.945470	-0.566752	-0.262114
C76	C	1.445470	-0.066752	0.237886
C77	C	0.945499	-0.632188	-0.262128
C78	C	1.445499	-0.132188	0.237872
C79	C	0.905421	-0.664933	-0.302150
C80	C	1.405421	-0.164933	0.197850
C81	C	0.865322	-0.632238	-0.342172
C82	C	1.365322	-0.132238	0.157828
C83	C	0.865299	-0.566804	-0.342162
C84	C	1.365299	-0.066804	0.157838
C85	C	0.849006	-0.768664	-0.307041
C86	C	1.349006	-0.268664	0.192959
C87	C	0.849029	-0.834097	-0.307047
C88	C	1.349029	-0.334097	0.192953
C89	C	0.905494	-0.866754	-0.302187
C90	C	1.405494	-0.366754	0.197813
C91	C	0.961939	-0.833970	-0.297307
C92	C	1.461939	-0.333970	0.202693
C93	C	0.961915	-0.768536	-0.297296
C94	C	1.461915	-0.268536	0.202704
C95	C	0.905443	-0.735886	-0.302167
C96	C	1.405443	-0.235886	0.197833
C97	C	0.945625	-0.970394	-0.262186
C98	C	1.445625	-0.470394	0.237814
C99	C	0.945655	-1.035830	-0.262204
C100	C	1.445655	-0.535830	0.237796
C101	C	0.865473	-1.035879	-0.342245
C102	C	1.365473	-0.535879	0.157755
C103	C	0.865448	-0.970444	-0.342230
C104	C	1.365448	-0.470444	0.157770
C105	C	0.905524	-0.937705	-0.302197
C106	C	1.405524	-0.437705	0.197803
C107	C	1.068858	-0.301603	-0.302231
C108	C	1.568858	0.198397	0.197769
C109	C	1.138499	-0.301589	-0.302262
C110	C	1.638499	0.198411	0.197738
C111	C	0.905487	-0.301623	-0.465581
C112	C	1.405487	0.198377	0.034419
C113	C	0.905509	-0.301618	-0.535222
C114	C	1.405509	0.198382	-0.035222
C115	C	0.905535	-0.138213	-0.302206
C116	C	1.405535	0.361787	0.197794
C117	C	0.905578	-0.068571	-0.302227
C118	C	1.405578	0.431429	0.197773
C119	C	0.945605	-0.261535	-0.567966
C120	C	1.445605	0.238465	-0.067966
C121	C	0.945604	-0.261508	-0.633402
C122	C	1.445604	0.238492	-0.133402
C123	C	0.905514	-0.301575	-0.666091
C124	C	1.405514	0.198425	-0.166091
C125	C	0.865410	-0.341661	-0.633339
C126	C	1.365410	0.158339	-0.133339
C127	C	0.865407	-0.341682	-0.567904
C128	C	1.365407	0.158318	-0.067904
C129	C	0.900538	-0.357992	-0.769752
C130	C	1.400538	0.142008	-0.269752
C131	C	0.900545	-0.357972	-0.835185
C132	C	1.400545	0.142028	-0.335185
C133	C	0.905518	-0.301509	-0.867911
C134	C	1.405518	0.198491	-0.367911
C135	C	0.910497	-0.245065	-0.835197
C136	C	1.410497	0.254935	-0.335197
C137	C	0.910495	-0.245086	-0.769763
C138	C	1.410495	0.254914	-0.269763
C139	C	0.905512	-0.301556	-0.737043
C140	C	1.405512	0.198444	-0.237043
C141	C	0.945615	-0.261393	-0.971608
C142	C	1.445615	0.238607	-0.471608
C143	C	0.945610	-0.261365	-1.037045
C144	C	1.445610	0.238635	-0.537045
C145	C	0.865419	-0.341524	-1.036980
C146	C	1.365419	0.158476	-0.536980
C147	C	0.865421	-0.341547	-0.971545
C148	C	1.365421	0.158453	-0.471545
C149	C	0.905522	-0.301482	-0.938863
C150	C	1.405522	0.198518	-0.438863
C151	C	0.905419	-0.301603	-0.139370
C152	C	1.405419	0.198397	0.360630
C153	C	0.905518	-0.301432	-0.069729
C154	C	1.405518	0.198568	0.430271
H155	H	0.666932	-0.374509	-0.374627
H156	H	1.166932	0.125491	0.125373
H157	H	0.832774	-0.374190	-0.944885
H158	H	1.332774	0.125810	-0.444885
H159	H	1.007918	-0.860558	-0.293349
H160	H	1.507918	-0.360558	0.206651
Br161	Br	0.530462	-0.396262	-0.396391
Br162	Br	1.030462	0.103738	0.103609
Br163	Br	0.810997	-0.396034	-0.677700
Br164	Br	1.310997	0.103966	-0.177700
Br165	Br	0.810935	-0.676676	-0.396493
Br166	Br	1.310935	-0.176676	0.103507
Br167	Br	0.483012	-0.313511	-0.435177
Br168	Br	0.983012	0.186489	0.064823
H169	H	0.144569	-0.228783	-0.229699
H170	H	0.644569	0.271217	0.270301
H171	H	0.978265	-0.228767	-0.944997
H172	H	1.478265	0.271233	-0.444997
Br173	Br	0.893796	-0.434573	-0.879576
Br174	Br	1.393796	0.065427	-0.379576
Br175	Br	0.772427	-0.878583	-0.313666
Br176	Br	1.272427	-0.378583	0.186334
Br177	Br	0.328775	-0.313472	-0.435237
Br178	Br	0.828775	0.186528	0.064763
H179	H	0.263280	-0.228809	-0.229652
H180	H	0.763280	0.271191	0.270348
Br181	Br	0.917252	-0.168432	-0.879604
Br182	Br	1.417252	0.331568	-0.379604
H183	H	0.263296	-0.374426	-0.374776
H184	H	0.763296	0.125574	0.125224
Br185	Br	1.038514	-0.724045	-0.290678
Br186	Br	1.538514	-0.224045	0.209322
H187	H	0.548206	-0.228866	-0.229554
H188	H	1.048206	0.271134	0.270446
Br189	Br	0.893807	-0.434628	-0.725343
Br190	Br	1.393807	0.065372	-0.225343
H191	H	0.978259	-0.943737	-0.229590
H192	H	1.478259	-0.443737	0.270410
H193	H	0.832647	-0.540189	-0.374747
H194	H	1.332647	-0.040189	0.125253
Br195	Br	0.917249	-0.168488	-0.725367
Br196	Br	1.417249	0.331512	-0.225367
Br197	Br	1.000041	-0.206971	-1.081485
Br198	Br	1.500041	0.293029	-0.581485
Br199	Br	0.999920	-0.676559	-0.207820
Br200	Br	1.499920	-0.176559	0.292180
Br201	Br	1.000083	-1.080193	-0.207900
Br202	Br	1.500083	-0.580193	0.292100
Br203	Br	0.328502	-0.289787	-0.169143
Br204	Br	0.828502	0.210213	0.330857
H205	H	0.978103	-0.540098	-0.229519
H206	H	1.478103	-0.040098	0.270481
Br207	Br	0.126828	-0.396175	-0.396545
Br208	Br	0.626828	0.103825	0.103455
H209	H	0.465002	-0.292541	-0.199734
H210	H	0.965002	0.207459	0.300266
Br211	Br	0.684682	-0.207096	-0.207796
Br212	Br	1.184682	0.292904	0.292204
Br213	Br	0.811086	-1.080313	-0.396568
Br214	Br	1.311086	-0.580313	0.103432
Br215	Br	0.811001	-0.395895	-1.081337
Br216	Br	1.311001	0.104105	-0.581337
H217	H	0.803022	-0.742081	-0.311001
H218	H	1.303022	-0.242081	0.188999
Br219	Br	1.000026	-0.207159	-0.523615
Br220	Br	1.500026	0.292841	-0.023615
H221	H	0.832795	-0.943828	-0.374811
H222	H	1.332795	-0.443828	0.125189
Br223	Br	1.000009	-0.207090	-0.677850
Br224	Br	1.500009	0.292910	-0.177850
H225	H	0.832753	-0.374322	-0.541245
H226	H	1.332753	0.125678	-0.041245
