data_functionalizedCrystal
_audit_creation_method	'MofGen! by Chris Wilmer'
_symmetry_space_group_name_H-M	'P1'
_symmetry_Int_Tables_number	1
_symmetry_cell_setting	triclinic
loop_
_symmetry_equiv_pos_as_xyz
  x,y,z
_cell_length_a	12.759401
_cell_length_b	12.759400
_cell_length_c	12.759393
_cell_angle_alpha	90.031905
_cell_angle_beta	90.019719
_cell_angle_gamma	90.016209
loop_
_atom_site_label
_atom_site_type_symbol
_atom_site_fract_x
_atom_site_fract_y
_atom_site_fract_z
Zn1	Zn	1.606254	-0.418158	0.594020
Zn2	Zn	1.606149	-0.593878	0.418340
Zn3	Zn	1.430556	-0.418218	0.418355
Zn4	Zn	1.430545	-0.593800	0.593978
O5	O	1.518376	-0.506014	0.506173
O6	O	1.753261	-0.441475	0.570727
O7	O	1.582817	-0.570634	0.271321
O8	O	1.453912	-0.271189	0.441682
O9	O	1.753184	-0.570576	0.441656
O10	O	1.582996	-0.271145	0.570742
O11	O	1.453810	-0.441578	0.271332
O12	O	1.283534	-0.441502	0.441640
O13	O	1.453892	-0.570443	0.741004
O14	O	1.283525	-0.570502	0.570669
O15	O	1.582985	-0.441400	0.741036
O16	O	1.582806	-0.740889	0.441615
O17	O	1.453790	-0.740832	0.570655
C18	C	1.245408	-0.506001	0.506152
C19	C	1.128632	-0.506021	0.506168
C20	C	1.073793	-0.573293	0.573248
C21	C	0.964069	-0.573297	0.573269
C22	C	0.964032	-0.438754	0.439122
C23	C	1.073754	-0.438745	0.439107
C24	C	1.518314	-0.778981	0.506151
C25	C	1.518383	-0.895758	0.506177
C26	C	1.585636	-0.950614	0.439060
C27	C	1.585700	-1.060338	0.439093
C28	C	1.451250	-1.060339	0.573362
C29	C	1.451192	-0.950617	0.573334
C30	C	1.663257	-0.950615	0.361538
C31	C	1.663321	-1.060339	0.361570
C32	C	1.792409	-0.506027	0.506195
C33	C	1.909186	-0.506033	0.506204
C34	C	1.518449	-0.505906	0.780207
C35	C	1.518480	-0.505860	0.896984
C36	C	1.518467	-0.231980	0.506218
C37	C	1.518506	-0.115204	0.506238
C38	C	1.518364	-0.506045	0.233206
C39	C	1.518536	-0.505795	0.116430
C40	C	1.451354	-0.438621	1.061584
C41	C	1.451328	-0.438651	0.951860
C42	C	1.585670	-0.573037	0.951837
C43	C	1.585700	-0.573001	1.061559
C44	C	1.373789	-0.361038	1.061596
C45	C	1.373763	-0.361068	0.951872
H46	H	1.118471	-0.628070	0.627857
H47	H	1.292375	-0.382859	0.922082
F48	F	0.905619	-0.367160	0.367752
F49	F	1.657214	-0.644487	1.119927
F50	F	1.132122	-0.367135	0.367713
F51	F	0.905710	-0.644895	0.644666
F52	F	1.764354	-1.104710	0.399769
H53	H	1.396546	-1.105019	0.628039
F54	F	1.379626	-0.892238	0.644782
F55	F	1.769575	-0.911581	0.390102
H56	H	1.634132	-0.916669	0.284211
F57	F	1.634911	-1.099378	0.255202
F58	F	1.657148	-0.644556	0.893431
H59	H	1.395609	-0.279658	1.091392
F60	F	1.272769	-0.399129	1.106069
H61	H	1.402923	-0.283781	0.917862
