data_functionalizedCrystal
_audit_creation_method	'MofGen! by Chris Wilmer'
_symmetry_space_group_name_H-M	'P1'
_symmetry_Int_Tables_number	1
_symmetry_cell_setting	triclinic
loop_
_symmetry_equiv_pos_as_xyz
  x,y,z
_cell_length_a	12.759401
_cell_length_b	12.759400
_cell_length_c	12.759393
_cell_angle_alpha	89.969510
_cell_angle_beta	89.979062
_cell_angle_gamma	90.016209
loop_
_atom_site_label
_atom_site_type_symbol
_atom_site_fract_x
_atom_site_fract_y
_atom_site_fract_z
Zn1	Zn	1.606266	-0.418173	-0.594020
Zn2	Zn	1.606158	-0.593888	-0.418340
Zn3	Zn	1.430565	-0.418229	-0.418355
Zn4	Zn	1.430557	-0.593815	-0.593978
O5	O	1.518387	-0.506026	-0.506173
O6	O	1.753273	-0.441489	-0.570727
O7	O	1.582823	-0.570641	-0.271321
O8	O	1.453921	-0.271200	-0.441682
O9	O	1.753193	-0.570587	-0.441656
O10	O	1.583008	-0.271159	-0.570742
O11	O	1.453816	-0.441584	-0.271332
O12	O	1.283543	-0.441513	-0.441640
O13	O	1.453908	-0.570461	-0.741004
O14	O	1.283537	-0.570516	-0.570669
O15	O	1.583000	-0.441418	-0.741036
O16	O	1.582815	-0.740900	-0.441615
O17	O	1.453802	-0.740846	-0.570655
C18	C	1.245419	-0.506013	-0.506152
C19	C	1.128643	-0.506033	-0.506168
C20	C	1.073805	-0.573307	-0.573248
C21	C	0.964081	-0.573311	-0.573269
C22	C	0.964042	-0.438764	-0.439122
C23	C	1.073764	-0.438756	-0.439107
C24	C	1.518324	-0.778994	-0.506151
C25	C	1.518394	-0.895770	-0.506177
C26	C	1.585645	-0.950625	-0.439060
C27	C	1.585710	-1.060349	-0.439093
C28	C	1.451262	-1.060353	-0.573362
C29	C	1.451204	-0.950631	-0.573334
C30	C	1.663264	-0.950624	-0.361538
C31	C	1.663329	-1.060348	-0.361570
C32	C	1.792420	-0.506040	-0.506195
C33	C	1.909197	-0.506046	-0.506204
C34	C	1.518465	-0.505925	-0.780207
C35	C	1.518499	-0.505882	-0.896984
C36	C	1.518478	-0.231993	-0.506218
C37	C	1.518517	-0.115216	-0.506238
C38	C	1.585722	-0.438679	-0.951864
C39	C	1.585740	-0.438633	-1.061588
C40	C	1.451308	-0.573004	-1.061542
C41	C	1.451285	-0.573044	-0.951820
C42	C	1.518369	-0.506051	-0.233206
C43	C	1.518539	-0.505798	-0.116430
H44	H	1.396452	-0.905969	-0.627995
H45	H	1.118484	-0.628086	-0.627857
H46	H	0.919346	-0.383991	-0.384521
O47	O	0.910975	-0.638762	-0.638461
C48	C	0.922600	-0.772171	-0.771557
C49	C	0.982872	-0.698117	-0.697758
H50	H	0.980703	-0.820163	-0.819533
H51	H	0.871221	-0.827120	-0.723285
H52	H	0.871244	-0.723989	-0.826542
H53	H	1.034286	-0.746214	-0.642758
H54	H	1.034185	-0.643165	-0.746096
O55	O	1.126877	-0.373369	-0.373841
C56	C	1.115269	-0.239873	-0.240832
C57	C	1.054987	-0.313885	-0.314665
H58	H	1.057172	-0.191745	-0.192984
H59	H	1.166574	-0.287988	-0.185737
H60	H	1.166701	-0.185040	-0.289177
H61	H	1.003499	-0.368734	-0.266404
H62	H	1.003749	-0.265705	-0.369762
O63	O	1.386028	-1.113810	-0.638492
C64	C	1.326583	-1.282844	-0.698095
C65	C	1.400499	-1.222439	-0.624264
H66	H	1.338273	-1.370680	-0.686633
H67	H	1.241840	-1.261437	-0.679566
H68	H	1.344968	-1.261121	-0.782809
H69	H	1.382208	-1.244129	-0.539525
H70	H	1.485220	-1.243851	-0.642883
H71	H	1.396587	-0.627687	-1.106203
H72	H	1.634138	-0.916676	-0.284211
O73	O	1.386094	-0.638482	-0.898549
C74	C	1.334982	-0.817197	-0.864973
C75	C	1.408890	-0.743218	-0.925349
H76	H	1.353372	-0.901890	-0.886635
H77	H	1.346515	-0.805775	-0.777120
H78	H	1.250283	-0.798680	-0.886521
H79	H	1.493618	-0.761689	-0.903888
H80	H	1.397266	-0.754654	-1.013187
O81	O	1.650993	-0.373206	-1.114779
C82	C	1.702026	-0.194481	-1.148422
C83	C	1.628077	-0.268465	-1.088102
H84	H	1.683510	-0.109781	-1.126892
H85	H	1.786747	-0.212862	-1.126839
H86	H	1.690517	-0.206034	-1.236259
H87	H	1.639491	-0.256953	-1.000251
H88	H	1.543382	-0.250065	-1.109772
O89	O	1.760349	-0.915169	-0.387673
C90	C	1.937340	-0.960805	-0.435183
C91	C	1.827439	-1.001100	-0.405623
H92	H	1.991618	-1.030259	-0.449682
H93	H	1.932037	-0.911153	-0.509300
H94	H	1.969744	-0.911158	-0.368370
H95	H	1.794971	-1.050790	-0.472367
H96	H	1.832808	-1.050695	-0.331474
O97	O	1.755462	-1.100899	-0.396591
C98	C	1.841222	-1.208967	-0.525513
C99	C	1.736819	-1.163093	-0.485974
H100	H	1.826182	-1.259278	-0.597771
H101	H	1.896996	-1.142409	-0.546659
H102	H	1.877778	-1.259234	-0.461321
H103	H	1.700172	-1.112838	-0.550118
H104	H	1.681118	-1.229700	-0.464797
O105	O	1.650855	-0.373379	-0.898481
C106	C	1.665001	-0.231526	-0.774687
C107	C	1.591123	-0.305436	-0.835052
H108	H	1.616736	-0.176561	-0.723407
H109	H	1.719898	-0.279717	-0.723245
H110	H	1.713069	-0.183533	-0.832786
H111	H	1.542987	-0.353444	-0.777029
H112	H	1.536295	-0.257184	-0.886509
H113	H	1.641590	-1.090209	-0.280189
