data_functionalizedCrystal
_audit_creation_method	'MofGen! by Chris Wilmer'
_symmetry_space_group_name_H-M	'P1'
_symmetry_Int_Tables_number	1
_symmetry_cell_setting	triclinic
loop_
_symmetry_equiv_pos_as_xyz
  x,y,z
_cell_length_a	21.395362
_cell_length_b	12.759400
_cell_length_c	21.395355
_cell_angle_alpha	90.013847
_cell_angle_beta	90.043940
_cell_angle_gamma	90.030564
loop_
_atom_site_label
_atom_site_type_symbol
_atom_site_fract_x
_atom_site_fract_y
_atom_site_fract_z
Zn1	Zn	0.957929	-0.417943	0.354606
Zn2	Zn	1.457929	0.082057	0.854606
Zn3	Zn	0.957861	-0.593607	0.249837
Zn4	Zn	1.457861	-0.093607	0.749837
Zn5	Zn	0.853144	-0.417992	0.249807
Zn6	Zn	1.353144	0.082008	0.749807
Zn7	Zn	0.853143	-0.593629	0.354542
Zn8	Zn	1.353143	-0.093629	0.854542
O9	O	0.905519	-0.505793	0.302198
O10	O	1.405519	-0.005793	0.802198
O11	O	1.045598	-0.441215	0.340747
O12	O	1.545598	0.058785	0.840747
O13	O	0.943942	-0.570323	0.162155
O14	O	1.443942	-0.070323	0.662155
O15	O	0.867073	-0.270964	0.263723
O16	O	1.367073	0.229036	0.763723
O17	O	1.045548	-0.570275	0.263774
O18	O	1.545548	-0.070275	0.763774
O19	O	0.944058	-0.270928	0.340719
O20	O	1.444058	0.229072	0.840719
O21	O	0.867007	-0.441299	0.162133
O22	O	1.367007	0.058701	0.662133
O23	O	0.765466	-0.441320	0.263661
O24	O	1.265466	0.058680	0.763661
O25	O	0.867071	-0.570312	0.442228
O26	O	1.367071	-0.070312	0.942228
O27	O	0.765465	-0.570360	0.340609
O28	O	1.265465	-0.070360	0.840609
O29	O	0.944057	-0.441236	0.442275
O30	O	1.444057	0.058764	0.942275
O31	O	0.943941	-0.740631	0.263712
O32	O	1.443941	-0.240631	0.763712
O33	O	0.867005	-0.740647	0.340638
O34	O	1.367005	-0.240647	0.840638
C35	C	0.742732	-0.505848	0.302125
C36	C	1.242732	-0.005848	0.802125
C37	C	0.673090	-0.505897	0.302109
C38	C	1.173090	-0.005897	0.802109
C39	C	0.640393	-0.573177	0.342116
C40	C	1.140393	-0.073177	0.842116
C41	C	0.574958	-0.573152	0.342144
C42	C	1.074958	-0.073152	0.842144
C43	C	0.542222	-0.505857	0.302154
C44	C	1.042222	-0.005857	0.802154
C45	C	0.574927	-0.438564	0.262144
C46	C	1.074927	0.061436	0.762144
C47	C	0.640361	-0.438584	0.262122
C48	C	1.140361	0.061416	0.762122
C49	C	0.438496	-0.497393	0.245748
C50	C	0.938496	0.002607	0.745748
C51	C	0.373063	-0.497380	0.245769
C52	C	0.873063	0.002620	0.745769
C53	C	0.340401	-0.505788	0.302223
C54	C	0.840401	-0.005788	0.802223
C55	C	0.373181	-0.514231	0.358657
C56	C	0.873181	-0.014231	0.858657
C57	C	0.438615	-0.514251	0.358635
C58	C	0.938615	-0.014251	0.858635
C59	C	0.471270	-0.505827	0.302174
C60	C	0.971270	-0.005827	0.802174
C61	C	0.236752	-0.573044	0.342263
C62	C	0.736752	-0.073044	0.842263
C63	C	0.171315	-0.573011	0.342292
C64	C	0.671315	-0.073011	0.842292
C65	C	0.171286	-0.438428	0.262287
C66	C	0.671286	0.061572	0.762287
C67	C	0.236721	-0.438456	0.262264
C68	C	0.736721	0.061544	0.762264
C69	C	0.269450	-0.505769	0.302251
C70	C	0.769450	-0.005769	0.802251
C71	C	0.905482	-0.778760	0.302185
C72	C	1.405482	-0.278760	0.802185
C73	C	0.905523	-0.895537	0.302200
C74	C	1.405523	-0.395537	0.802200
C75	C	0.945629	-0.950355	0.262189
C76	C	1.445629	-0.450355	0.762189
C77	C	0.945667	-1.060079	0.262209
C78	C	1.445667	-0.560079	0.762209
C79	C	0.865490	-1.060156	0.342252
C80	C	1.365490	-0.560156	0.842252
C81	C	0.865455	-0.950434	0.342235
C82	C	1.365455	-0.450434	0.842235
C83	C	0.991916	-0.950312	0.215975
C84	C	1.491916	-0.450312	0.715975
C85	C	0.991955	-1.060036	0.215994
C86	C	1.491955	-0.560036	0.715994
C87	C	1.068943	-0.505738	0.302271
C88	C	1.568943	-0.005738	0.802271
C89	C	1.138584	-0.505714	0.302303
C90	C	1.638584	-0.005714	0.802303
C91	C	0.905571	-0.505771	0.465621
C92	C	1.405571	-0.005771	0.965621
C93	C	0.905593	-0.505762	0.535263
C94	C	1.405593	-0.005762	1.035263
C95	C	0.905574	-0.231759	0.302225
C96	C	1.405574	0.268241	0.802225
C97	C	0.905597	-0.114983	0.302236
C98	C	1.405597	0.385017	0.802236
C99	C	0.905503	-0.505738	0.139410
C100	C	1.405503	-0.005738	0.639410
C101	C	0.905603	-0.505451	0.069770
C102	C	1.405603	-0.005451	0.569770
C103	C	0.945678	-0.438550	0.568001
C104	C	1.445678	0.061450	1.068001
C105	C	0.945678	-0.438504	0.633437
C106	C	1.445678	0.061496	1.133437
C107	C	0.905598	-0.505691	0.666131
C108	C	1.405598	-0.005691	1.166131
C109	C	0.865505	-0.572908	0.633384
C110	C	1.365505	-0.072908	1.133384
C111	C	0.865503	-0.572944	0.567950
C112	C	1.365503	-0.072944	1.067950
C113	C	0.900638	-0.600292	0.769799
C114	C	1.400638	-0.100292	1.269799
C115	C	0.900645	-0.600258	0.835232
C116	C	1.400645	-0.100258	1.335232
C117	C	0.905602	-0.505580	0.867952
C118	C	1.405602	-0.005580	1.367952
C119	C	0.910566	-0.410932	0.835230
C120	C	1.410566	0.089068	1.335230
C121	C	0.910563	-0.410968	0.769796
C122	C	1.410563	0.089032	1.269796
C123	C	0.905596	-0.505659	0.737083
C124	C	1.405596	-0.005659	1.237083
C125	C	0.945688	-0.438312	0.971643
C126	C	1.445688	0.061688	1.471643
C127	C	0.945683	-0.438265	1.037080
C128	C	1.445683	0.061735	1.537080
C129	C	0.865514	-0.572678	1.037026
C130	C	1.365514	-0.072678	1.537026
C131	C	0.865516	-0.572716	0.971591
C132	C	1.365516	-0.072716	1.471591
C133	C	0.905607	-0.505534	0.938903
C134	C	1.405607	-0.005534	1.438903
H135	H	0.144694	-0.627796	0.374875
H136	H	0.644694	-0.127796	0.874875
O137	O	0.915903	-0.308796	0.870503
O138	O	1.415903	0.191204	1.370503
H139	H	0.873926	-0.298069	0.900271
H140	H	1.373926	0.201931	1.400271
O141	O	0.968907	-0.905317	0.154883
O142	O	1.468907	-0.405317	0.654883
H143	H	0.969823	-0.818440	0.157390
H144	H	1.469823	-0.318440	0.657390
H145	H	0.978329	-0.383603	0.945027
H146	H	1.478329	0.116397	1.445027
H147	H	0.832875	-0.627372	1.063645
H148	H	1.332875	-0.127372	1.563645
H149	H	1.038057	-1.093969	0.233433
H150	H	1.538057	-0.593969	0.733433
H151	H	0.346589	-0.521076	0.404627
H152	H	0.846589	-0.021076	0.904627
O153	O	0.822197	-0.891321	0.385395
O154	O	1.322197	-0.391321	0.885395
H155	H	0.850207	-0.841262	0.417305
H156	H	1.350207	-0.341262	0.917305
O157	O	0.974788	-1.099585	0.151704
O158	O	1.474788	-0.599585	0.651704
H159	H	0.931783	-1.147996	0.154787
H160	H	1.431783	-0.647996	0.654787
H161	H	0.832871	-0.627608	0.660008
H162	H	1.332871	-0.127608	1.160008
H163	H	1.040427	-0.920439	0.229025
H164	H	1.540427	-0.420439	0.729025
O165	O	0.822253	-0.645417	0.532633
O166	O	1.322253	-0.145417	1.032633
H167	H	0.794377	-0.692123	0.566357
H168	H	1.294377	-0.192123	1.066357
H169	H	0.978322	-0.383844	0.541391
H170	H	1.478322	0.116156	1.041391
O171	O	0.988921	-0.365770	1.072396
O172	O	1.488921	0.134230	1.572396
H173	H	1.016800	-0.319072	1.038670
H174	H	1.516800	0.180928	1.538670
H175	H	0.667037	-0.627988	0.374678
H176	H	1.167037	-0.127988	0.874678
O177	O	0.271984	-0.365898	0.219100
O178	O	0.771984	0.134102	0.719100
H179	H	0.301847	-0.312511	0.247182
H180	H	0.801847	0.187489	0.747182
H181	H	0.978318	-0.383766	0.660098
H182	H	1.478318	0.116234	1.160098
H183	H	0.465084	-0.490542	0.199774
H184	H	0.965084	0.009458	0.699774
O185	O	0.539679	-0.645761	0.385271
O186	O	1.039679	-0.145761	0.885271
H187	H	0.573430	-0.692587	0.413062
H188	H	1.073430	-0.192587	0.913062
H189	H	0.346379	-0.490512	0.199817
H190	H	0.846379	0.009488	0.699817
H191	H	0.832878	-0.627454	0.944935
H192	H	1.332878	-0.127454	1.444935
H193	H	0.914603	-0.333903	0.743157
H194	H	1.414603	0.166097	1.243157
H195	H	0.548270	-0.383770	0.229585
H196	H	1.048270	0.116230	0.729585
H197	H	0.832868	-1.104867	0.374847
H198	H	1.332868	-0.604867	0.874847
O199	O	0.895285	-0.702333	0.870524
O200	O	1.395285	-0.202333	1.370524
H201	H	0.891822	-0.768173	0.836781
H202	H	1.391822	-0.268173	1.336781
H203	H	0.465301	-0.521123	0.404585
H204	H	0.965301	-0.021123	0.904585
O205	O	0.272060	-0.645627	0.385398
O206	O	0.772060	-0.145627	0.885398
H207	H	0.238327	-0.692395	0.413231
H208	H	0.738327	-0.192395	0.913231
O209	O	0.675634	-0.366035	0.218958
O210	O	1.175634	0.133965	0.718958
H211	H	0.641881	-0.319242	0.191149
H212	H	1.141881	0.180758	0.691149
H213	H	0.144633	-0.383631	0.229729
H214	H	0.644633	0.116369	0.729729
H215	H	0.896434	-0.677371	0.743165
H216	H	1.396434	-0.177371	1.243165
