data_functionalizedCrystal
_audit_creation_method	'MofGen! by Chris Wilmer'
_symmetry_space_group_name_H-M	'P1'
_symmetry_Int_Tables_number	1
_symmetry_cell_setting	triclinic
loop_
_symmetry_equiv_pos_as_xyz
  x,y,z
_cell_length_a	12.759401
_cell_length_b	11.169416
_cell_length_c	12.759393
_cell_angle_alpha	89.971939
_cell_angle_beta	89.980324
_cell_angle_gamma	90.010575
loop_
_atom_site_label
_atom_site_type_symbol
_atom_site_fract_x
_atom_site_fract_y
_atom_site_fract_z
Zn1	Zn	1.606300	-0.477735	-0.594003
Zn2	Zn	1.606205	-0.678464	-0.418330
Zn3	Zn	1.430598	-0.477795	-0.418342
Zn4	Zn	1.430604	-0.678377	-0.593971
O5	O	1.518427	-0.578093	-0.506161
O6	O	1.753308	-0.504374	-0.570708
O7	O	1.582868	-0.651907	-0.271310
O8	O	1.453943	-0.309838	-0.441661
O9	O	1.753238	-0.651849	-0.441642
O10	O	1.583030	-0.309794	-0.570719
O11	O	1.453851	-0.504476	-0.271319
O12	O	1.283578	-0.504391	-0.441631
O13	O	1.453953	-0.651699	-0.740996
O14	O	1.283582	-0.651758	-0.570665
O15	O	1.583035	-0.504289	-0.741019
O16	O	1.582874	-0.846402	-0.441611
O17	O	1.453861	-0.846338	-0.570654
C18	C	1.245459	-0.578072	-0.506146
C19	C	1.128683	-0.578092	-0.506165
C20	C	1.073858	-0.501441	-0.573473
C21	C	0.964134	-0.501453	-0.573480
C22	C	0.964069	-0.654778	-0.438868
C23	C	1.073791	-0.654759	-0.438856
C24	C	1.518386	-0.889918	-0.506151
C25	C	1.518465	-1.023318	-0.506182
C26	C	1.792460	-0.578115	-0.506177
C27	C	1.909237	-0.578124	-0.506183
C28	C	1.518505	-0.577978	-0.780195
C29	C	1.518539	-0.577929	-0.896972
C30	C	1.518496	-0.265051	-0.506195
C31	C	1.518526	-0.131651	-0.506209
C32	C	1.585757	-0.501160	-0.951847
C33	C	1.585775	-0.501108	-1.061571
C34	C	1.451353	-0.654604	-1.061534
C35	C	1.451331	-0.654649	-0.951812
C36	C	1.518409	-0.578121	-0.233194
C37	C	1.518579	-0.577832	-0.116418
H38	H	1.118547	-0.439010	-0.628277
F39	F	0.905641	-0.736371	-0.367240
F40	F	0.905790	-0.419869	-0.645118
F41	F	1.657325	-0.419408	-1.119969
F42	F	1.379779	-0.736356	-0.893406
F43	F	1.132144	-0.736337	-0.367205
F44	F	1.657283	-0.419504	-0.893485
H45	H	1.396637	-0.717070	-1.106199
