data_functionalizedCrystal
_audit_creation_method	'MofGen! by Chris Wilmer'
_symmetry_space_group_name_H-M	'P1'
_symmetry_Int_Tables_number	1
_symmetry_cell_setting	triclinic
loop_
_symmetry_equiv_pos_as_xyz
  x,y,z
_cell_length_a	12.759400
_cell_length_b	17.077404
_cell_length_c	12.759393
_cell_angle_alpha	90.024604
_cell_angle_beta	89.970195
_cell_angle_gamma	89.986252
loop_
_atom_site_label
_atom_site_type_symbol
_atom_site_fract_x
_atom_site_fract_y
_atom_site_fract_z
Zn1	Zn	-0.418241	-1.200124	-0.594128
Zn2	Zn	-0.084907	-0.866791	-0.260795
Zn3	Zn	0.248426	-0.533457	0.072539
Zn4	Zn	-0.593956	-1.200043	-0.418450
Zn5	Zn	-0.260623	-0.866709	-0.085117
Zn6	Zn	0.072711	-0.533376	0.248217
Zn7	Zn	-0.418289	-1.068849	-0.418452
Zn8	Zn	-0.084956	-0.735515	-0.085118
Zn9	Zn	0.248378	-0.402182	0.248215
Zn10	Zn	-0.593875	-1.068843	-0.594076
Zn11	Zn	-0.260542	-0.735509	-0.260743
Zn12	Zn	0.072791	-0.402176	0.072591
O13	O	-0.506090	-1.134464	-0.506276
O14	O	-0.172757	-0.801131	-0.172943
O15	O	0.160576	-0.467798	0.160390
O16	O	-0.441563	-1.309960	-0.570845
O17	O	-0.108230	-0.976627	-0.237511
O18	O	0.225104	-0.643293	0.095822
O19	O	-0.570708	-1.182608	-0.271429
O20	O	-0.237374	-0.849275	0.061904
O21	O	0.095959	-0.515941	0.395237
O22	O	-0.271262	-1.086299	-0.441778
O23	O	0.062072	-0.752966	-0.108445
O24	O	0.395405	-0.419632	0.224889
O25	O	-0.570661	-1.309900	-0.441775
O26	O	-0.237327	-0.976567	-0.108442
O27	O	0.096006	-0.643234	0.224892
O28	O	-0.271226	-1.182747	-0.570846
O29	O	0.062107	-0.849413	-0.237513
O30	O	0.395441	-0.516080	0.095820
O31	O	-0.441646	-1.086220	-0.271430
O32	O	-0.108312	-0.752887	0.061903
O33	O	0.225021	-0.419554	0.395236
O34	O	-0.441567	-0.959001	-0.441728
O35	O	-0.108234	-0.625668	-0.108394
O36	O	0.225099	-0.292334	0.224939
O37	O	-0.570523	-1.086289	-0.741104
O38	O	-0.237189	-0.752956	-0.407771
O39	O	0.096144	-0.419622	-0.074437
O40	O	-0.570570	-0.958997	-0.570758
O41	O	-0.237237	-0.625663	-0.237425
O42	O	0.096097	-0.292330	0.095908
O43	O	-0.441485	-1.182741	-0.741142
O44	O	-0.108151	-0.849407	-0.407809
O45	O	0.225182	-0.516074	-0.074475
O46	O	-0.740966	-1.182602	-0.441725
O47	O	-0.407633	-0.849269	-0.108392
O48	O	-0.074300	-0.515936	0.224942
O49	O	-0.740907	-1.086210	-0.570757
O50	O	-0.407574	-0.752877	-0.237423
O51	O	-0.074240	-0.419543	0.095910
C52	C	-0.779058	-1.134418	-0.506258
C53	C	-0.445724	-0.801085	-0.172925
C54	C	-0.112391	-0.467751	0.160409
C55	C	-0.895834	-1.134470	-0.506285
C56	C	-0.562501	-0.801137	-0.172952
C57	C	-0.229168	-0.467803	0.160382
C58	C	-0.506066	-0.930517	-0.506238
C59	C	-0.172733	-0.597183	-0.172905
C60	C	0.160601	-0.263850	0.160428
C61	C	-0.506081	-0.843267	-0.506247
C62	C	-0.172747	-0.509933	-0.172913
C63	C	0.160586	-0.176600	0.160420
C64	C	-0.950588	-1.184668	-0.573548
C65	C	-0.617254	-0.851335	-0.240215
C66	C	-0.283921	-0.518002	0.093119
C67	C	-1.060312	-1.184712	-0.573577
C68	C	-0.726978	-0.851379	-0.240243
C69	C	-0.393645	-0.518046	0.093090
C70	C	-1.060519	-1.084358	-0.439070
C71	C	-0.727186	-0.751024	-0.105737
C72	C	-0.393852	-0.417691	0.227597
C73	C	-0.950797	-1.084310	-0.439047
C74	C	-0.617464	-0.750977	-0.105714
C75	C	-0.284130	-0.417644	0.227619
C76	C	-0.573353	-0.802295	-0.573323
C77	C	-0.240019	-0.468962	-0.239990
C78	C	0.093314	-0.135628	0.093343
C79	C	-0.573353	-0.720315	-0.573336
C80	C	-0.240019	-0.386981	-0.240003
C81	C	0.093314	-0.053648	0.093330
C82	C	-0.506085	-0.679307	-0.506267
C83	C	-0.172752	-0.345974	-0.172933
C84	C	0.160581	-0.012641	0.160400
C85	C	-0.438806	-0.720285	-0.439187
C86	C	-0.105473	-0.386952	-0.105854
C87	C	0.227860	-0.053618	0.227479
C88	C	-0.438802	-0.802264	-0.439180
C89	C	-0.105468	-0.468931	-0.105847
C90	C	0.227865	-0.135597	0.227486
C91	C	-0.438822	-0.549415	-0.439205
C92	C	-0.105489	-0.216082	-0.105871
C93	C	0.227844	0.117252	0.227462
C94	C	-0.438828	-0.467430	-0.439210
C95	C	-0.105495	-0.134097	-0.105877
C96	C	0.227839	0.199236	0.227457
C97	C	-0.573374	-0.467466	-0.573361
C98	C	-0.240040	-0.134132	-0.240027
C99	C	0.093293	0.199201	0.093306
C100	C	-0.573369	-0.549444	-0.573354
C101	C	-0.240036	-0.216111	-0.240020
C102	C	0.093298	0.117222	0.093313
C103	C	-0.506091	-0.590416	-0.506273
C104	C	-0.172757	-0.257083	-0.172939
C105	C	0.160576	0.076250	0.160394
C106	C	-0.232057	-1.134532	-0.506318
C107	C	0.101276	-0.801199	-0.172985
C108	C	0.434610	-0.467866	0.160348
C109	C	-0.115280	-1.134561	-0.506336
C110	C	0.218053	-0.801228	-0.173003
C111	C	0.551386	-0.467895	0.160331
C112	C	-0.505989	-1.134523	-0.780310
C113	C	-0.172656	-0.801190	-0.446977
C114	C	0.160677	-0.467857	-0.113643
C115	C	-0.505946	-1.134548	-0.897087
C116	C	-0.172613	-0.801215	-0.563753
C117	C	0.160720	-0.467882	-0.230420
C118	C	-0.506109	-0.339209	-0.506304
C119	C	-0.172776	-0.005875	-0.172971
C120	C	0.160558	0.327458	0.160363
C121	C	-0.506100	-0.426459	-0.506287
C122	C	-0.172767	-0.093125	-0.172953
C123	C	0.160567	0.240208	0.160380
C124	C	-0.438746	-1.184774	-0.951970
C125	C	-0.105412	-0.851441	-0.618637
C126	C	0.227921	-0.518108	-0.285303
C127	C	-0.438700	-1.184788	-1.061694
C128	C	-0.105367	-0.851454	-0.728361
C129	C	0.227966	-0.518121	-0.395028
C130	C	-0.573066	-1.084346	-1.061642
C131	C	-0.239732	-0.751013	-0.728309
C132	C	0.093601	-0.417680	-0.394975
C133	C	-0.573105	-1.084330	-0.951920
C134	C	-0.239772	-0.750996	-0.618586
C135	C	0.093562	-0.417663	-0.285253
C136	C	-0.506115	-1.134451	-0.233309
C137	C	-0.172782	-0.801118	0.100024
C138	C	0.160552	-0.467784	0.433358
C139	C	-0.505862	-1.134578	-0.116533
C140	C	-0.172529	-0.801245	0.216800
C141	C	0.160805	-0.467912	0.550134
H142	H	-0.905840	-1.225510	-0.628299
H143	H	-0.572506	-0.892177	-0.294965
H144	H	-0.239173	-0.558844	0.038368
H145	H	-0.628151	-0.434102	-0.627984
H146	H	-0.294818	-0.100769	-0.294650
H147	H	0.038516	0.232564	0.038683
H148	H	-0.384058	-1.225663	-0.907328
H149	H	-0.050724	-0.892330	-0.573995
H150	H	0.282609	-0.558997	-0.240662
H151	H	-0.384041	-0.434045	-0.384609
H152	H	-0.050707	-0.100711	-0.051275
H153	H	0.282626	0.232622	0.282058
Cl154	Cl	-0.354243	-0.600921	-0.354873
Cl155	Cl	-0.020909	-0.267588	-0.021539
Cl156	Cl	0.312424	0.065745	0.311794
H157	H	-0.627746	-1.043462	-1.106300
H158	H	-0.294413	-0.710129	-0.772967
H159	H	0.038921	-0.376795	-0.439634
Cl160	Cl	-1.129623	-1.021302	-0.354549
Cl161	Cl	-0.796289	-0.687969	-0.021215
Cl162	Cl	-0.462956	-0.354636	0.312118
Cl163	Cl	-0.354234	-0.668733	-0.354878
Cl164	Cl	-0.020901	-0.335400	-0.021544
Cl165	Cl	0.312433	-0.002066	0.311789
Cl166	Cl	-0.354224	-1.247939	-1.130686
Cl167	Cl	-0.020891	-0.914606	-0.797353
Cl168	Cl	0.312442	-0.581273	-0.464019
Cl169	Cl	-0.881959	-1.021192	-0.354489
Cl170	Cl	-0.548625	-0.687859	-0.021156
Cl171	Cl	-0.215292	-0.354526	0.312178
Cl172	Cl	-0.657927	-0.853839	-0.657639
Cl173	Cl	-0.324594	-0.520505	-0.324306
Cl174	Cl	0.008739	-0.187172	0.009027
H175	H	-1.104887	-1.225587	-0.628351
H176	H	-0.771554	-0.892254	-0.295018
H177	H	-0.438221	-0.558920	0.038315
Cl178	Cl	-0.657927	-0.668810	-0.657665
Cl179	Cl	-0.324594	-0.335477	-0.324332
Cl180	Cl	0.008739	-0.002144	0.009002
H181	H	-0.384016	-0.835622	-0.384565
H182	H	-0.050683	-0.502289	-0.051232
H183	H	0.282650	-0.168956	0.282101
H184	H	-0.627827	-1.043424	-0.907232
H185	H	-0.294494	-0.710091	-0.573899
H186	H	0.038840	-0.376757	-0.240566
H187	H	-0.628150	-0.582830	-0.627962
H188	H	-0.294816	-0.249497	-0.294629
H189	H	0.038517	0.083836	0.038705
