data_functionalizedCrystal
_audit_creation_method	'MofGen! by Chris Wilmer'
_symmetry_space_group_name_H-M	'P1'
_symmetry_Int_Tables_number	1
_symmetry_cell_setting	triclinic
loop_
_symmetry_equiv_pos_as_xyz
  x,y,z
_cell_length_a	21.395362
_cell_length_b	21.395361
_cell_length_c	21.395355
_cell_angle_alpha	90.021511
_cell_angle_beta	90.043940
_cell_angle_gamma	90.046585
loop_
_atom_site_label
_atom_site_type_symbol
_atom_site_fract_x
_atom_site_fract_y
_atom_site_fract_z
Zn1	Zn	0.957859	-0.249246	0.354573
Zn2	Zn	1.291193	0.084088	0.687906
Zn3	Zn	1.624526	0.417421	1.021239
Zn4	Zn	0.957762	-0.354005	0.249790
Zn5	Zn	1.291095	-0.020672	0.583123
Zn6	Zn	1.624429	0.312661	0.916456
Zn7	Zn	0.853074	-0.249275	0.249774
Zn8	Zn	1.186408	0.084059	0.583107
Zn9	Zn	1.519741	0.417392	0.916441
Zn10	Zn	0.853044	-0.354018	0.354494
Zn11	Zn	1.186377	-0.020685	0.687828
Zn12	Zn	1.519710	0.312648	1.021161
O13	O	0.905435	-0.301636	0.302158
O14	O	1.238768	0.031697	0.635491
O15	O	1.572102	0.365031	0.968824
O16	O	1.045524	-0.263125	0.340712
O17	O	1.378858	0.070209	0.674046
O18	O	1.712191	0.403542	1.007379
O19	O	0.943847	-0.340119	0.162110
O20	O	1.277180	-0.006786	0.495443
O21	O	1.610514	0.326547	0.828776
O22	O	0.867028	-0.161593	0.263702
O23	O	1.200361	0.171740	0.597035
O24	O	1.533695	0.505074	0.930368
O25	O	1.045453	-0.340091	0.263729
O26	O	1.378786	-0.006758	0.597062
O27	O	1.712119	0.326575	0.930395
O28	O	0.944013	-0.161572	0.340697
O29	O	1.277347	0.171762	0.674030
O30	O	1.610680	0.505095	1.007364
O31	O	0.866934	-0.263174	0.162098
O32	O	1.200267	0.070159	0.495431
O33	O	1.533600	0.403492	0.828765
O34	O	0.765392	-0.263187	0.263626
O35	O	1.098726	0.070147	0.596959
O36	O	1.432059	0.403480	0.930293
O37	O	0.866976	-0.340113	0.442183
O38	O	1.200309	-0.006780	0.775516
O39	O	1.533642	0.326553	1.108849
O40	O	0.765370	-0.340141	0.340564
O41	O	1.098703	-0.006808	0.673897
O42	O	1.432036	0.326525	1.007230
O43	O	0.943983	-0.263137	0.442240
O44	O	1.277317	0.070196	0.775573
O45	O	1.610650	0.403530	1.108907
O46	O	0.943817	-0.441685	0.263653
O47	O	1.277150	-0.108352	0.596986
O48	O	1.610484	0.224982	0.930319
O49	O	0.866881	-0.441695	0.340579
O50	O	1.200214	-0.108361	0.673912
O51	O	1.533548	0.224972	1.007246
C52	C	0.742647	-0.301669	0.302085
C53	C	1.075981	0.031664	0.635418
C54	C	1.409314	0.364998	0.968752
C55	C	0.673006	-0.301698	0.302069
C56	C	1.006339	0.031635	0.635402
C57	C	1.339673	0.364968	0.968735
C58	C	0.905352	-0.464424	0.302123
C59	C	1.238685	-0.131090	0.635456
C60	C	1.572019	0.202243	0.968789
C61	C	0.905374	-0.534065	0.302129
C62	C	1.238707	-0.200732	0.635462
C63	C	1.572041	0.132602	0.968795
C64	C	0.640297	-0.341822	0.342070
C65	C	0.973631	-0.008488	0.675403
C66	C	1.306964	0.324845	1.008737
C67	C	0.574862	-0.341806	0.342098
C68	C	0.908195	-0.008473	0.675431
C69	C	1.241529	0.324860	1.008765
C70	C	0.542138	-0.301674	0.302113
C71	C	0.875471	0.031659	0.635447
C72	C	1.208804	0.364992	0.968780
C73	C	0.574854	-0.261543	0.262109
C74	C	0.908187	0.071790	0.595442
C75	C	1.241521	0.405124	0.928776
C76	C	0.640288	-0.261555	0.262087
C77	C	0.973622	0.071778	0.595420
C78	C	1.306955	0.405111	0.928753
C79	C	0.438413	-0.296627	0.245708
C80	C	0.771746	0.036707	0.579042
C81	C	1.105080	0.370040	0.912375
C82	C	0.372980	-0.296619	0.245730
C83	C	0.706313	0.036714	0.579063
C84	C	1.039647	0.370048	0.912396
C85	C	0.340317	-0.301633	0.302182
C86	C	0.673650	0.031700	0.635516
C87	C	1.006984	0.365033	0.968849
C88	C	0.373095	-0.306668	0.358616
C89	C	0.706428	0.026665	0.691949
C90	C	1.039762	0.359998	1.025283
C91	C	0.438529	-0.306681	0.358594
C92	C	0.771862	0.026653	0.691927
C93	C	1.105196	0.359986	1.025260
C94	C	0.471185	-0.301656	0.302133
C95	C	0.804519	0.031677	0.635467
C96	C	1.137852	0.365010	0.968800
C97	C	0.236656	-0.341742	0.342218
C98	C	0.569989	-0.008409	0.675551
C99	C	0.903323	0.324924	1.008884
C100	C	0.171219	-0.341723	0.342247
C101	C	0.504553	-0.008389	0.675580
C102	C	0.837886	0.324944	1.008913
C103	C	0.171213	-0.261462	0.262252
C104	C	0.504546	0.071871	0.595585
C105	C	0.837879	0.405204	0.928919
C106	C	0.236648	-0.261479	0.262229
C107	C	0.569981	0.071854	0.595562
C108	C	0.903315	0.405188	0.928895
C109	C	0.269366	-0.301622	0.302211
C110	C	0.602699	0.031711	0.635544
C111	C	0.936032	0.365044	0.968877
C112	C	0.945470	-0.566752	0.262114
C113	C	1.278804	-0.233419	0.595448
C114	C	1.612137	0.099914	0.928781
C115	C	0.945499	-0.632188	0.262128
C116	C	1.278833	-0.298854	0.595462
C117	C	1.612166	0.034479	0.928795
C118	C	0.905421	-0.664933	0.302150
C119	C	1.238755	-0.331600	0.635484
C120	C	1.572088	0.001733	0.968817
C121	C	0.865322	-0.632238	0.342172
C122	C	1.198656	-0.298905	0.675506
C123	C	1.531989	0.034429	1.008839
C124	C	0.865299	-0.566804	0.342162
C125	C	1.198632	-0.233470	0.675495
C126	C	1.531965	0.099863	1.008828
C127	C	0.849006	-0.768664	0.307041
C128	C	1.182340	-0.435331	0.640374
C129	C	1.515673	-0.101997	0.973708
C130	C	0.849029	-0.834097	0.307047
C131	C	1.182362	-0.500764	0.640381
C132	C	1.515696	-0.167430	0.973714
C133	C	0.905494	-0.866754	0.302187
C134	C	1.238828	-0.533421	0.635520
C135	C	1.572161	-0.200087	0.968854
C136	C	0.961939	-0.833970	0.297307
C137	C	1.295272	-0.500637	0.630640
C138	C	1.628605	-0.167303	0.963974
C139	C	0.961915	-0.768536	0.297296
C140	C	1.295248	-0.435202	0.630630
C141	C	1.628582	-0.101869	0.963963
C142	C	0.905443	-0.735886	0.302167
C143	C	1.238776	-0.402552	0.635500
C144	C	1.572109	-0.069219	0.968833
C145	C	0.945625	-0.970394	0.262186
C146	C	1.278959	-0.637060	0.595519
C147	C	1.612292	-0.303727	0.928852
C148	C	0.945655	-1.035830	0.262204
C149	C	1.278989	-0.702497	0.595537
C150	C	1.612322	-0.369164	0.928871
C151	C	0.865473	-1.035879	0.342245
C152	C	1.198806	-0.702546	0.675578
C153	C	1.532139	-0.369213	1.008912
C154	C	0.865448	-0.970444	0.342230
C155	C	1.198782	-0.637111	0.675563
C156	C	1.532115	-0.303777	1.008896
C157	C	0.905524	-0.937705	0.302197
C158	C	1.238857	-0.604372	0.635530
C159	C	1.572190	-0.271039	0.968863
C160	C	1.068858	-0.301603	0.302231
C161	C	1.402192	0.031730	0.635564
C162	C	1.735525	0.365063	0.968898
C163	C	1.138499	-0.301589	0.302262
C164	C	1.471833	0.031744	0.635595
C165	C	1.805166	0.365077	0.968929
C166	C	0.905487	-0.301623	0.465581
C167	C	1.238820	0.031710	0.798914
C168	C	1.572154	0.365043	1.132248
C169	C	0.905509	-0.301618	0.535222
C170	C	1.238842	0.031715	0.868556
C171	C	1.572176	0.365049	1.201889
C172	C	0.905535	-0.138213	0.302206
C173	C	1.238868	0.195121	0.635540
C174	C	1.572202	0.528454	0.968873
C175	C	0.905578	-0.068571	0.302227
C176	C	1.238911	0.264762	0.635560
C177	C	1.572244	0.598095	0.968894
C178	C	0.905419	-0.301603	0.139370
C179	C	1.238752	0.031730	0.472703
C180	C	1.572086	0.365063	0.806037
C181	C	0.905518	-0.301432	0.069729
C182	C	1.238852	0.031901	0.403062
C183	C	1.572185	0.365234	0.736396
C184	C	0.945605	-0.261535	0.567966
C185	C	1.278939	0.071799	0.901300
C186	C	1.612272	0.405132	1.234633
C187	C	0.945604	-0.261508	0.633402
C188	C	1.278938	0.071826	0.966735
C189	C	1.612271	0.405159	1.300068
C190	C	0.905514	-0.301575	0.666091
C191	C	1.238847	0.031758	0.999424
C192	C	1.572181	0.365091	1.332757
C193	C	0.865410	-0.341661	0.633339
C194	C	1.198743	-0.008328	0.966672
C195	C	1.532077	0.325006	1.300005
C196	C	0.865407	-0.341682	0.567904
C197	C	1.198741	-0.008349	0.901238
C198	C	1.532074	0.324984	1.234571
C199	C	0.900538	-0.357992	0.769752
C200	C	1.233871	-0.024659	1.103085
C201	C	1.567205	0.308675	1.436418
C202	C	0.900545	-0.357972	0.835185
C203	C	1.233878	-0.024638	1.168518
C204	C	1.567211	0.308695	1.501851
C205	C	0.905518	-0.301509	0.867911
C206	C	1.238851	0.031824	1.201245
C207	C	1.572184	0.365158	1.534578
C208	C	0.910497	-0.245065	0.835197
C209	C	1.243830	0.088268	1.168531
C210	C	1.577164	0.421602	1.501864
C211	C	0.910495	-0.245086	0.769763
C212	C	1.243828	0.088247	1.103097
C213	C	1.577161	0.421580	1.436430
C214	C	0.905512	-0.301556	0.737043
C215	C	1.238845	0.031777	1.070376
C216	C	1.572179	0.365110	1.403710
C217	C	0.945615	-0.261393	0.971608
C218	C	1.278949	0.071940	1.304941
C219	C	1.612282	0.405273	1.638275
C220	C	0.945610	-0.261365	1.037045
C221	C	1.278943	0.071968	1.370378
C222	C	1.612277	0.405301	1.703711
C223	C	0.865419	-0.341524	1.036980
C224	C	1.198752	-0.008191	1.370314
C225	C	1.532085	0.325142	1.703647
C226	C	0.865421	-0.341547	0.971545
C227	C	1.198754	-0.008213	1.304878
C228	C	1.532087	0.325120	1.638212
C229	C	0.905522	-0.301482	0.938863
C230	C	1.238856	0.031851	1.272196
C231	C	1.572189	0.365185	1.605529
H232	H	0.666932	-0.374509	0.374627
H233	H	1.000265	-0.041175	0.707961
H234	H	1.333599	0.292158	1.041294
N235	N	0.988862	-0.218126	1.072355
N236	N	1.322195	0.115208	1.405689
N237	N	1.655529	0.448541	1.739022
H238	H	1.017881	-0.243572	1.099527
H239	H	1.351214	0.089761	1.432861
H240	H	1.684548	0.423095	1.766194
H241	H	0.963377	-0.189088	1.099447
H242	H	1.296710	0.144245	1.432780
H243	H	1.630044	0.477578	1.766114
H244	H	1.007918	-0.860558	0.293349
H245	H	1.341251	-0.527224	0.626683
H246	H	1.674585	-0.193891	0.960016
H247	H	0.346297	-0.292523	0.199778
H248	H	0.679631	0.040810	0.533111
H249	H	1.012964	0.374144	0.866445
N250	N	0.539575	-0.385093	0.385237
N251	N	0.872908	-0.051759	0.718570
N252	N	1.206242	0.281574	1.051903
H253	H	0.493158	-0.378995	0.379181
H254	H	0.826491	-0.045661	0.712515
H255	H	1.159825	0.287672	1.045848
H256	H	0.551067	-0.375418	0.430001
H257	H	0.884401	-0.042084	0.763335
H258	H	1.217734	0.291249	1.096668
N259	N	0.135931	-0.218172	0.219125
N260	N	0.469264	0.115161	0.552458
N261	N	0.802597	0.448494	0.885791
H262	H	0.108840	-0.189169	0.244651
H263	H	0.442174	0.144164	0.577984
H264	H	0.775507	0.477497	0.911317
H265	H	0.108759	-0.243629	0.190058
H266	H	0.442093	0.089704	0.523392
H267	H	0.775426	0.423038	0.856725
H268	H	0.263296	-0.374426	0.374776
H269	H	0.596629	-0.041093	0.708110
H270	H	0.929963	0.292241	1.041443
H271	H	0.978265	-0.228767	0.944997
H272	H	1.311598	0.104567	1.278330
H273	H	1.644932	0.437900	1.611664
N274	N	0.988848	-0.218308	0.532726
N275	N	1.322181	0.115025	0.866060
N276	N	1.655514	0.448359	1.199393
H277	H	0.963398	-0.189285	0.505565
H278	H	1.296731	0.144048	0.838899
H279	H	1.630065	0.477381	1.172232
H280	H	1.017863	-0.243807	0.505630
H281	H	1.351197	0.089526	0.838963
H282	H	1.684530	0.422859	1.172296
H283	H	0.548206	-0.228866	0.229554
H284	H	0.881539	0.104467	0.562888
H285	H	1.214872	0.437801	0.896221
N286	N	0.822172	-0.384736	1.072228
N287	N	1.155505	-0.051402	1.405561
N288	N	1.488839	0.281931	1.738895
H289	H	0.828255	-0.378639	1.118650
H290	H	1.161589	-0.045306	1.451983
H291	H	1.494922	0.288027	1.785316
H292	H	0.831894	-0.429486	1.060797
H293	H	1.165228	-0.096153	1.394130
H294	H	1.498561	0.237181	1.727464
H295	H	0.914547	-0.199128	0.743130
H296	H	1.247881	0.134206	1.076463
H297	H	1.581214	0.467539	1.409797
N298	N	0.895174	-0.418846	0.870467
N299	N	1.228507	-0.085513	1.203800
N300	N	1.561840	0.247821	1.537134
H301	H	0.933341	-0.424710	0.897640
H302	H	1.266675	-0.091377	1.230974
H303	H	1.600008	0.241957	1.564307
H304	H	0.891995	-0.454580	0.839768
H305	H	1.225328	-0.121246	1.173101
H306	H	1.558662	0.212087	1.506435
N307	N	0.675571	-0.218273	0.218945
N308	N	1.008905	0.115060	0.552279
N309	N	1.342238	0.448394	0.885612
H310	H	0.644914	-0.192843	0.193621
H311	H	0.978248	0.140491	0.526955
H312	H	1.311581	0.473824	0.860288
H313	H	0.702664	-0.243736	0.189891
H314	H	1.035997	0.089598	0.523224
H315	H	1.369330	0.422931	0.856558
H316	H	0.832647	-0.540189	0.374747
H317	H	1.165980	-0.206856	0.708080
H318	H	1.499314	0.126478	1.041414
N319	N	0.822150	-0.384915	0.532592
N320	N	1.155483	-0.051581	0.865925
N321	N	1.488817	0.281752	1.199259
H322	H	0.831847	-0.429677	0.543985
H323	H	1.165181	-0.096344	0.877318
H324	H	1.498514	0.236989	1.210652
H325	H	0.828246	-0.378799	0.486190
H326	H	1.161580	-0.045466	0.819524
H327	H	1.494913	0.287867	1.152857
H328	H	1.007873	-0.741844	0.293325
H329	H	1.341207	-0.408511	0.626658
H330	H	1.674540	-0.075178	0.959991
H331	H	0.832691	-0.658904	0.374760
H332	H	1.166025	-0.325570	0.708093
H333	H	1.499358	0.007763	1.041426
N334	N	0.788099	-0.733446	0.312273
N335	N	1.121432	-0.400113	0.645606
N336	N	1.454765	-0.066780	0.978940
H337	H	0.796647	-0.687020	0.311526
H338	H	1.129981	-0.353687	0.644859
H339	H	1.463314	-0.020353	0.978192
H340	H	0.766785	-0.744884	0.352793
H341	H	1.100118	-0.411551	0.686127
H342	H	1.433451	-0.078218	1.019460
H343	H	0.978254	-0.228864	0.660067
H344	H	1.311588	0.104469	0.993400
H345	H	1.644921	0.437803	1.326734
H346	H	0.465002	-0.292541	0.199734
H347	H	0.798335	0.040792	0.533068
H348	H	1.131668	0.374126	0.866401
N349	N	0.473884	-0.312110	0.419455
N350	N	0.807217	0.021224	0.752788
N351	N	1.140550	0.354557	1.086121
H352	H	0.443268	-0.315285	0.455224
H353	H	0.776601	0.018048	0.788557
H354	H	1.109934	0.351381	1.121890
H355	H	0.501077	-0.273948	0.425332
H356	H	0.834411	0.059386	0.758665
H357	H	1.167744	0.392719	1.091999
H358	H	0.832774	-0.374190	0.944885
H359	H	1.166107	-0.040857	1.278218
H360	H	1.499440	0.292476	1.611551
N361	N	0.988701	-0.531441	0.218947
N362	N	1.322035	-0.198108	0.552281
N363	N	1.655368	0.135226	0.885614
H364	H	1.014110	-0.562082	0.193603
H365	H	1.347443	-0.228748	0.526936
H366	H	1.680777	0.104585	0.860270
H367	H	1.017673	-0.504250	0.244490
H368	H	1.351007	-0.170916	0.577824
H369	H	1.684340	0.162417	0.911157
N370	N	0.988748	-0.667454	0.218969
N371	N	1.322081	-0.334121	0.552303
N372	N	1.655415	-0.000788	0.885636
H373	H	1.014132	-0.636785	0.193609
H374	H	1.347466	-0.303452	0.526942
H375	H	1.680799	0.029882	0.860275
H376	H	0.963263	-0.694648	0.189950
H377	H	1.296596	-0.361315	0.523283
H378	H	1.629930	-0.027981	0.856617
H379	H	0.978259	-0.943737	0.229590
H380	H	1.311593	-0.610403	0.562924
H381	H	1.644926	-0.277070	0.896257
N382	N	0.915867	-0.184160	0.870485
N383	N	1.249201	0.149173	1.203818
N384	N	1.582534	0.482506	1.537151
H385	H	0.915111	-0.192709	0.916901
H386	H	1.248445	0.140625	1.250234
H387	H	1.581778	0.473958	1.583568
H388	H	0.879653	-0.156158	0.859020
H389	H	1.212987	0.177175	1.192353
H390	H	1.546320	0.510508	1.525687
N391	N	0.337877	-0.312081	0.419510
N392	N	0.671210	0.021253	0.752843
N393	N	1.004543	0.354586	1.086177
H394	H	0.291451	-0.311306	0.410964
H395	H	0.624784	0.022027	0.744297
H396	H	0.958117	0.355360	1.077631
H397	H	0.349385	-0.275892	0.447585
H398	H	0.682718	0.057441	0.780918
H399	H	1.016051	0.390774	1.114251
H400	H	0.144589	-0.374395	0.374824
H401	H	0.477922	-0.041061	0.708158
H402	H	0.811256	0.292272	1.041491
H403	H	0.978310	-1.062443	0.229621
H404	H	1.311644	-0.729110	0.562954
H405	H	1.644977	-0.395777	0.896287
N406	N	0.822249	-1.071188	0.385417
N407	N	1.155583	-0.737855	0.718751
N408	N	1.488916	-0.404521	1.052084
H409	H	0.828349	-1.117601	0.379355
H410	H	1.161682	-0.784268	0.712688
H411	H	1.495016	-0.450934	1.046021
H412	H	0.777502	-1.059810	0.375609
H413	H	1.110835	-0.726477	0.708942
H414	H	1.444168	-0.393143	1.042275
H415	H	0.896321	-0.403959	0.743111
H416	H	1.229654	-0.070626	1.076444
H417	H	1.562987	0.262708	1.409777
N418	N	0.271932	-0.218199	0.219088
N419	N	0.605265	0.115135	0.552421
N420	N	0.938598	0.448468	0.885755
H421	H	0.241274	-0.192770	0.193763
H422	H	0.574607	0.140563	0.527096
H423	H	0.907940	0.473897	0.860430
H424	H	0.299027	-0.243659	0.190034
H425	H	0.632360	0.089674	0.523367
H426	H	0.965693	0.423008	0.856701
H427	H	0.832766	-0.374282	0.659958
H428	H	1.166099	-0.040949	0.993291
H429	H	1.499433	0.292384	1.326625
H430	H	0.803068	-0.860785	0.311015
H431	H	1.136402	-0.527451	0.644348
H432	H	1.469735	-0.194118	0.977681
N433	N	0.822197	-0.935183	0.385384
N434	N	1.155530	-0.601850	0.718717
N435	N	1.488863	-0.268517	1.052050
H436	H	0.796810	-0.965855	0.410740
H437	H	1.130143	-0.632521	0.744073
H438	H	1.463477	-0.299188	1.077406
H439	H	0.793205	-0.908083	0.359836
H440	H	1.126539	-0.574750	0.693169
H441	H	1.459872	-0.241417	1.026503
