data_functionalizedCrystal
_audit_creation_method	'MofGen! by Chris Wilmer'
_symmetry_space_group_name_H-M	'P1'
_symmetry_Int_Tables_number	1
_symmetry_cell_setting	triclinic
loop_
_symmetry_equiv_pos_as_xyz
  x,y,z
_cell_length_a	17.077404
_cell_length_b	21.395361
_cell_length_c	17.077396
_cell_angle_alpha	89.966749
_cell_angle_beta	89.980499
_cell_angle_gamma	90.030933
loop_
_atom_site_label
_atom_site_type_symbol
_atom_site_fract_x
_atom_site_fract_y
_atom_site_fract_z
Zn1	Zn	1.200012	-0.249435	-0.443817
Zn2	Zn	1.450012	0.000565	-0.193817
Zn3	Zn	1.700012	0.250565	0.056183
Zn4	Zn	1.950012	0.500565	0.306183
Zn5	Zn	1.199901	-0.354216	-0.312540
Zn6	Zn	1.449901	-0.104216	-0.062540
Zn7	Zn	1.699901	0.145784	0.187460
Zn8	Zn	1.949901	0.395784	0.437460
Zn9	Zn	1.068744	-0.249457	-0.312565
Zn10	Zn	1.318744	0.000543	-0.062565
Zn11	Zn	1.568744	0.250543	0.187435
Zn12	Zn	1.818744	0.500543	0.437435
Zn13	Zn	1.068694	-0.354179	-0.443763
Zn14	Zn	1.318694	-0.104179	-0.193763
Zn15	Zn	1.568694	0.145821	0.056237
Zn16	Zn	1.818694	0.395821	0.306237
O17	O	1.134338	-0.301822	-0.378171
O18	O	1.384338	-0.051822	-0.128171
O19	O	1.634338	0.198178	0.121829
O20	O	1.884338	0.448178	0.371829
O21	O	1.309844	-0.263341	-0.426414
O22	O	1.559844	-0.013341	-0.176414
O23	O	1.809844	0.236659	0.073586
O24	O	2.059844	0.486659	0.323586
O25	O	1.182477	-0.340344	-0.202696
O26	O	1.432477	-0.090344	0.047304
O27	O	1.682477	0.159656	0.297304
O28	O	1.932477	0.409656	0.547304
O29	O	1.086224	-0.161776	-0.330008
O30	O	1.336224	0.088224	-0.080008
O31	O	1.586224	0.338224	0.169992
O32	O	1.836224	0.588224	0.419992
O33	O	1.309763	-0.340323	-0.329966
O34	O	1.559763	-0.090323	-0.079966
O35	O	1.809763	0.159677	0.170034
O36	O	2.059763	0.409677	0.420034
O37	O	1.182666	-0.161760	-0.426439
O38	O	1.432666	0.088240	-0.176439
O39	O	1.682666	0.338240	0.073561
O40	O	1.932666	0.588240	0.323561
O41	O	1.086117	-0.263378	-0.202714
O42	O	1.336117	-0.013378	0.047286
O43	O	1.586117	0.236622	0.297286
O44	O	1.836117	0.486622	0.547286
O45	O	0.958890	-0.263342	-0.329957
O46	O	1.208890	-0.013342	-0.079957
O47	O	1.458890	0.236658	0.170043
O48	O	1.708890	0.486658	0.420043
O49	O	1.086139	-0.340260	-0.553617
O50	O	1.336139	-0.090260	-0.303617
O51	O	1.586139	0.159740	-0.053617
O52	O	1.836139	0.409740	0.196383
O53	O	0.958854	-0.340281	-0.426348
O54	O	1.208854	-0.090281	-0.176348
O55	O	1.458854	0.159719	0.073652
O56	O	1.708854	0.409719	0.323652
O57	O	1.182618	-0.263305	-0.553657
O58	O	1.432618	-0.013305	-0.303657
O59	O	1.682618	0.236695	-0.053657
O60	O	1.932618	0.486695	0.196343
O61	O	1.182429	-0.441889	-0.329914
O62	O	1.432429	-0.191889	-0.079914
O63	O	1.682429	0.058111	0.170086
O64	O	1.932429	0.308111	0.420086
O65	O	1.086031	-0.441862	-0.426324
O66	O	1.336031	-0.191862	-0.176324
O67	O	1.586031	0.058138	0.073676
O68	O	1.836031	0.308138	0.323676
C69	C	0.930390	-0.301810	-0.378149
C70	C	1.180390	-0.051810	-0.128149
C71	C	1.430390	0.198190	0.121851
C72	C	1.680390	0.448190	0.371851
C73	C	0.843140	-0.301821	-0.378159
C74	C	1.093140	-0.051821	-0.128159
C75	C	1.343140	0.198179	0.121841
C76	C	1.593140	0.448179	0.371841
C77	C	0.802151	-0.341943	-0.428269
C78	C	1.052151	-0.091943	-0.178269
C79	C	1.302151	0.158057	0.071731
C80	C	1.552151	0.408057	0.321731
C81	C	0.720171	-0.341944	-0.428282
C82	C	0.970171	-0.091944	-0.178282
C83	C	1.220171	0.158056	0.071718
C84	C	1.470171	0.408056	0.321718
C85	C	0.679181	-0.301826	-0.378179
C86	C	0.929181	-0.051826	-0.128179
C87	C	1.179181	0.198174	0.121821
C88	C	1.429181	0.448174	0.371821
C89	C	0.720175	-0.261699	-0.328067
C90	C	0.970175	-0.011699	-0.078067
C91	C	1.220175	0.238301	0.171933
C92	C	1.470175	0.488301	0.421933
C93	C	0.802154	-0.261695	-0.328059
C94	C	1.052154	-0.011695	-0.078059
C95	C	1.302154	0.238305	0.171941
C96	C	1.552154	0.488305	0.421941
C97	C	0.549305	-0.261711	-0.328086
C98	C	0.799305	-0.011711	-0.078086
C99	C	1.049305	0.238289	0.171914
C100	C	1.299305	0.488289	0.421914
C101	C	0.467320	-0.261716	-0.328092
C102	C	0.717320	-0.011716	-0.078092
C103	C	0.967320	0.238284	0.171908
C104	C	1.217320	0.488284	0.421908
C105	C	0.467322	-0.341961	-0.428309
C106	C	0.717322	-0.091961	-0.178309
C107	C	0.967322	0.158039	0.071691
C108	C	1.217322	0.408039	0.321691
C109	C	0.549301	-0.341957	-0.428301
C110	C	0.799301	-0.091957	-0.178301
C111	C	1.049301	0.158043	0.071699
C112	C	1.299301	0.408043	0.321699
C113	C	0.590290	-0.301830	-0.378187
C114	C	0.840290	-0.051830	-0.128187
C115	C	1.090290	0.198170	0.121813
C116	C	1.340290	0.448170	0.371813
C117	C	1.134234	-0.464609	-0.378127
C118	C	1.384234	-0.214609	-0.128127
C119	C	1.634234	0.035391	0.121873
C120	C	1.884234	0.285391	0.371873
C121	C	1.134262	-0.534251	-0.378135
C122	C	1.384262	-0.284251	-0.128135
C123	C	1.634262	-0.034251	0.121865
C124	C	1.884262	0.215749	0.371865
C125	C	1.184500	-0.566957	-0.327986
C126	C	1.434500	-0.316957	-0.077986
C127	C	1.684500	-0.066957	0.172014
C128	C	1.934500	0.183043	0.422014
C129	C	1.184537	-0.632392	-0.328004
C130	C	1.434537	-0.382392	-0.078004
C131	C	1.684537	-0.132392	0.171996
C132	C	1.934537	0.117608	0.421996
C133	C	1.134321	-0.665119	-0.378162
C134	C	1.384321	-0.415119	-0.128162
C135	C	1.634321	-0.165119	0.121838
C136	C	1.884321	0.084881	0.371838
C137	C	1.084078	-0.632404	-0.428321
C138	C	1.334078	-0.382404	-0.178321
C139	C	1.584078	-0.132404	0.071679
C140	C	1.834078	0.117596	0.321679
C141	C	1.084049	-0.566970	-0.428307
C142	C	1.334049	-0.316970	-0.178307
C143	C	1.584049	-0.066970	0.071693
C144	C	1.834049	0.183030	0.321693
C145	C	1.063641	-0.768833	-0.384313
C146	C	1.313641	-0.518833	-0.134313
C147	C	1.563641	-0.268833	0.115687
C148	C	1.813641	-0.018833	0.365687
C149	C	1.063669	-0.834266	-0.384321
C150	C	1.313669	-0.584266	-0.134321
C151	C	1.563669	-0.334266	0.115679
C152	C	1.813669	-0.084266	0.365679
C153	C	1.134412	-0.866940	-0.378208
C154	C	1.384412	-0.616940	-0.128208
C155	C	1.634412	-0.366940	0.121792
C156	C	1.884412	-0.116940	0.371792
C157	C	1.205129	-0.834172	-0.372070
C158	C	1.455129	-0.584172	-0.122070
C159	C	1.705129	-0.334172	0.127930
C160	C	1.955129	-0.084172	0.377930
C161	C	1.205099	-0.768738	-0.372057
C162	C	1.455099	-0.518738	-0.122057
C163	C	1.705099	-0.268738	0.127943
C164	C	1.955099	-0.018738	0.377943
C165	C	1.134347	-0.736071	-0.378182
C166	C	1.384347	-0.486071	-0.128182
C167	C	1.634347	-0.236071	0.121818
C168	C	1.884347	0.013929	0.371818
C169	C	1.184694	-0.970599	-0.328075
C170	C	1.434694	-0.720599	-0.078075
C171	C	1.684694	-0.470599	0.171925
C172	C	1.934694	-0.220599	0.421925
C173	C	1.184732	-1.036035	-0.328098
C174	C	1.434732	-0.786035	-0.078098
C175	C	1.684732	-0.536035	0.171902
C176	C	1.934732	-0.286035	0.421902
C177	C	1.084267	-1.036046	-0.428411
C178	C	1.334267	-0.786046	-0.178411
C179	C	1.584267	-0.536046	0.071589
C180	C	1.834267	-0.286046	0.321589
C181	C	1.084236	-0.970611	-0.428392
C182	C	1.334236	-0.720611	-0.178392
C183	C	1.584236	-0.470611	0.071608
C184	C	1.834236	-0.220611	0.321608
C185	C	1.134449	-0.937891	-0.378220
C186	C	1.384449	-0.687891	-0.128220
C187	C	1.634449	-0.437891	0.121780
C188	C	1.884449	-0.187891	0.371780
C189	C	1.339082	-0.301833	-0.378193
C190	C	1.589082	-0.051833	-0.128193
C191	C	1.839082	0.198167	0.121807
C192	C	2.089082	0.448167	0.371807
C193	C	1.426332	-0.301839	-0.378203
C194	C	1.676332	-0.051839	-0.128203
C195	C	1.926332	0.198161	0.121797
C196	C	2.176332	0.448161	0.371797
C197	C	1.134385	-0.301775	-0.582915
C198	C	1.384385	-0.051775	-0.332915
C199	C	1.634385	0.198225	-0.082915
C200	C	1.884385	0.448225	0.167085
C201	C	1.134405	-0.301756	-0.670165
C202	C	1.384405	-0.051756	-0.420165
C203	C	1.634405	0.198244	-0.170165
C204	C	1.884405	0.448244	0.079835
C205	C	1.134463	-0.138398	-0.378232
C206	C	1.384463	0.111602	-0.128232
C207	C	1.634463	0.361602	0.121768
C208	C	1.884463	0.611602	0.371768
C209	C	1.134517	-0.068757	-0.378258
C210	C	1.384517	0.181243	-0.128258
C211	C	1.634517	0.431243	0.121742
C212	C	1.884517	0.681243	0.371742
C213	C	1.184644	-0.261682	-0.711177
C214	C	1.434644	-0.011682	-0.461177
C215	C	1.684644	0.238318	-0.211177
C216	C	1.934644	0.488318	0.038823
C217	C	1.184653	-0.261661	-0.793158
C218	C	1.434653	-0.011661	-0.543158
C219	C	1.684653	0.238339	-0.293158
C220	C	1.934653	0.488339	-0.043158
C221	C	1.134428	-0.301718	-0.834125
C222	C	1.384428	-0.051718	-0.584125
C223	C	1.634428	0.198282	-0.334125
C224	C	1.884428	0.448282	-0.084125
C225	C	1.084184	-0.341793	-0.793107
C226	C	1.334184	-0.091793	-0.543107
C227	C	1.584184	0.158207	-0.293107
C228	C	1.834184	0.408207	-0.043107
C229	C	1.084171	-0.341811	-0.711128
C230	C	1.334171	-0.091811	-0.461128
C231	C	1.584171	0.158189	-0.211128
C232	C	1.834171	0.408189	0.038872
C233	C	1.084215	-0.341756	-0.963977
C234	C	1.334215	-0.091756	-0.713977
C235	C	1.584215	0.158244	-0.463977
C236	C	1.834215	0.408244	-0.213977
C237	C	1.084229	-0.341739	-1.045962
C238	C	1.334229	-0.091739	-0.795962
C239	C	1.584229	0.158261	-0.545962
C240	C	1.834229	0.408261	-0.295962
C241	C	1.184698	-0.261606	-1.046007
C242	C	1.434698	-0.011606	-0.796007
C243	C	1.684698	0.238394	-0.546007
C244	C	1.934698	0.488394	-0.296007
C245	C	1.184685	-0.261623	-0.964028
C246	C	1.434685	-0.011623	-0.714028
C247	C	1.684685	0.238377	-0.464028
C248	C	1.934685	0.488377	-0.214028
C249	C	1.134442	-0.301700	-0.923016
C250	C	1.384442	-0.051700	-0.673016
C251	C	1.634442	0.198300	-0.423016
C252	C	1.884442	0.448300	-0.173016
C253	C	1.134336	-0.301822	-0.174223
C254	C	1.384336	-0.051822	0.075777
C255	C	1.634336	0.198178	0.325777
C256	C	1.884336	0.448178	0.575777
C257	C	1.134467	-0.301666	-0.086974
C258	C	1.384467	-0.051666	0.163026
C259	C	1.634467	0.198334	0.413026
C260	C	1.884467	0.448334	0.663026
H261	H	0.582673	-0.374628	-0.469094
H262	H	0.832673	-0.124628	-0.219094
H263	H	1.082673	0.125372	0.030906
H264	H	1.332673	0.375372	0.280906
H265	H	1.262678	-0.742060	-0.367061
H266	H	1.512678	-0.492060	-0.117061
H267	H	1.762678	-0.242060	0.132939
H268	H	2.012678	0.007940	0.382939
H269	H	0.686801	-0.374617	-0.469086
H270	H	0.936801	-0.124617	-0.219086
H271	H	1.186801	0.125383	0.030914
H272	H	1.436801	0.375383	0.280914
H273	H	0.835520	-0.374614	-0.469066
H274	H	1.085520	-0.124614	-0.219066
H275	H	1.335520	0.125386	0.030934
H276	H	1.585520	0.375386	0.280934
H277	H	1.262734	-0.860773	-0.367092
H278	H	1.512734	-0.610773	-0.117092
H279	H	1.762734	-0.360773	0.132908
H280	H	2.012734	-0.110773	0.382908
H281	H	1.225564	-0.229030	-0.826546
H282	H	1.475564	0.020970	-0.576546
H283	H	1.725564	0.270970	-0.326546
H284	H	1.975564	0.520970	-0.076546
H285	H	1.225606	-0.228973	-1.079403
H286	H	1.475606	0.021027	-0.829403
H287	H	1.725606	0.271027	-0.579403
H288	H	1.975606	0.521027	-0.329403
H289	H	1.225587	-0.229009	-0.930675
H290	H	1.475587	0.020991	-0.680675
H291	H	1.725587	0.270991	-0.430675
H292	H	1.975587	0.520991	-0.180675
H293	H	0.433945	-0.374631	-0.469115
H294	H	0.683945	-0.124631	-0.219115
H295	H	0.933945	0.125369	0.030885
H296	H	1.183945	0.375369	0.280885
H297	H	0.433948	-0.229041	-0.287304
H298	H	0.683948	0.020959	-0.037304
H299	H	0.933948	0.270959	0.212696
H300	H	1.183948	0.520959	0.462696
H301	H	0.582676	-0.229031	-0.287285
H302	H	0.832676	0.020969	-0.037285
H303	H	1.082676	0.270969	0.212715
H304	H	1.332676	0.520969	0.462715
H305	H	1.225388	-0.540319	-0.287135
H306	H	1.475388	-0.290319	-0.037135
H307	H	1.725388	-0.040319	0.212865
H308	H	1.975388	0.209681	0.462865
H309	H	1.043329	-0.374356	-1.079315
H310	H	1.293329	-0.124356	-0.829315
H311	H	1.543329	0.125644	-0.579315
H312	H	1.793329	0.375644	-0.329315
H313	H	0.686794	-0.229031	-0.287276
H314	H	0.936794	0.020969	-0.037276
H315	H	1.186794	0.270969	0.212724
H316	H	1.436794	0.520969	0.462724
H317	H	1.043324	-0.943979	-0.469225
H318	H	1.293324	-0.693979	-0.219225
H319	H	1.543324	-0.443979	0.030775
H320	H	1.793324	-0.193979	0.280775
H321	H	1.043290	-0.374380	-0.930588
H322	H	1.293290	-0.124380	-0.680588
H323	H	1.543290	0.125620	-0.430588
H324	H	1.793290	0.375620	-0.180588
H325	H	1.043286	-0.374406	-0.826469
H326	H	1.293286	-0.124406	-0.576469
H327	H	1.543286	0.125594	-0.326469
H328	H	1.793286	0.375594	-0.076469
H329	H	1.006087	-0.860941	-0.389311
H330	H	1.256087	-0.610941	-0.139311
H331	H	1.506087	-0.360941	0.110689
H332	H	1.756087	-0.110941	0.360689
H333	H	0.835526	-0.229020	-0.287258
H334	H	1.085526	0.020980	-0.037258
H335	H	1.335526	0.270980	0.212742
H336	H	1.585526	0.520980	0.462742
H337	H	1.225450	-0.659027	-0.287166
H338	H	1.475450	-0.409027	-0.037166
H339	H	1.725450	-0.159027	0.212834
H340	H	1.975450	0.090973	0.462834
H341	H	1.043254	-0.374436	-0.677737
H342	H	1.293254	-0.124436	-0.427737
H343	H	1.543254	0.125564	-0.177737
H344	H	1.793254	0.375564	0.072263
H345	H	1.225583	-0.943957	-0.287224
H346	H	1.475583	-0.693957	-0.037224
H347	H	1.725583	-0.443957	0.212776
H348	H	1.975583	-0.193957	0.462776
H349	H	1.043383	-1.062691	-0.469255
H350	H	1.293383	-0.812691	-0.219255
H351	H	1.543383	-0.562691	0.030745
H352	H	1.793383	-0.312691	0.280745
H353	H	1.225647	-1.062664	-0.287263
H354	H	1.475647	-0.812664	-0.037263
H355	H	1.725647	-0.562664	0.212737
H356	H	1.975647	-0.312664	0.462737
H357	H	1.006029	-0.742237	-0.389295
H358	H	1.256029	-0.492237	-0.139295
H359	H	1.506029	-0.242237	0.110705
H360	H	1.756029	0.007763	0.360705
H361	H	1.043194	-0.659054	-0.469161
H362	H	1.293194	-0.409054	-0.219161
H363	H	1.543194	-0.159054	0.030839
H364	H	1.793194	0.090946	0.280839
H365	H	1.043138	-0.540340	-0.469145
H366	H	1.293138	-0.290340	-0.219145
H367	H	1.543138	-0.040340	0.030855
H368	H	1.793138	0.209660	0.280855
H369	H	1.225546	-0.229065	-0.677828
H370	H	1.475546	0.020935	-0.427828
H371	H	1.725546	0.270935	-0.177828
H372	H	1.975546	0.520935	0.072172
