data_functionalizedCrystal
_audit_creation_method	'MofGen! by Chris Wilmer'
_symmetry_space_group_name_H-M	'P1'
_symmetry_Int_Tables_number	1
_symmetry_cell_setting	triclinic
loop_
_symmetry_equiv_pos_as_xyz
  x,y,z
_cell_length_a	12.759401
_cell_length_b	12.759400
_cell_length_c	12.759393
_cell_angle_alpha	89.969510
_cell_angle_beta	89.980375
_cell_angle_gamma	90.013728
loop_
_atom_site_label
_atom_site_type_symbol
_atom_site_fract_x
_atom_site_fract_y
_atom_site_fract_z
Zn1	Zn	1.606266	-0.418242	-0.593983
Zn2	Zn	1.606158	-0.593958	-0.418303
Zn3	Zn	1.430565	-0.418291	-0.418323
Zn4	Zn	1.430557	-0.593877	-0.593945
O5	O	1.518387	-0.506092	-0.506138
O6	O	1.753273	-0.441565	-0.570687
O7	O	1.582823	-0.570709	-0.271285
O8	O	1.453921	-0.271263	-0.441648
O9	O	1.753193	-0.570662	-0.441616
O10	O	1.583008	-0.271228	-0.570706
O11	O	1.453816	-0.441647	-0.271299
O12	O	1.283543	-0.441569	-0.441611
O13	O	1.453908	-0.570524	-0.740971
O14	O	1.283537	-0.570571	-0.570640
O15	O	1.583000	-0.441486	-0.740999
O16	O	1.582815	-0.740968	-0.441579
O17	O	1.453802	-0.740909	-0.570621
C18	C	1.245419	-0.506067	-0.506124
C19	C	1.128643	-0.506082	-0.506143
C20	C	1.073815	-0.438988	-0.573454
C21	C	0.964091	-0.439008	-0.573461
C22	C	0.964031	-0.573225	-0.438841
C23	C	1.073754	-0.573199	-0.438830
C24	C	1.073849	-0.361501	-0.651179
C25	C	0.964125	-0.361521	-0.651185
C26	C	1.518324	-0.779059	-0.506117
C27	C	1.518394	-0.895836	-0.506142
C28	C	1.585645	-0.950694	-0.439024
C29	C	1.585710	-1.060418	-0.439056
C30	C	1.451262	-1.060416	-0.573328
C31	C	1.451204	-0.950694	-0.573301
C32	C	1.663264	-0.950696	-0.361500
C33	C	1.663329	-1.060420	-0.361532
C34	C	1.792420	-0.506117	-0.506154
C35	C	1.909196	-0.506128	-0.506160
C36	C	1.518465	-0.505991	-0.780172
C37	C	1.518499	-0.505948	-0.896949
C38	C	1.518478	-0.232059	-0.506183
C39	C	1.518517	-0.115282	-0.506203
C40	C	1.585722	-0.438747	-0.951827
C41	C	1.585740	-0.438702	-1.061551
C42	C	1.451308	-0.573067	-1.061509
C43	C	1.451285	-0.573107	-0.951787
C44	C	1.518369	-0.506117	-0.233171
C45	C	1.518539	-0.505864	-0.116395
H46	H	1.107916	-0.390735	-0.728417
F47	F	1.764363	-1.104796	-0.399729
H48	H	1.396587	-0.627748	-1.106171
H49	H	1.103615	-0.280098	-0.629525
F50	F	1.379728	-0.644630	-0.893378
F51	F	1.634917	-1.099455	-0.255165
H52	H	1.640449	-0.384060	-0.907181
F53	F	1.657296	-0.367184	-1.119952
H54	H	1.118390	-0.627824	-0.384009
F55	F	0.919624	-0.260452	-0.613278
F56	F	1.379640	-0.892314	-0.644751
H57	H	0.919327	-0.627870	-0.384038
F58	F	0.925243	-0.390144	-0.757493
H59	H	1.396559	-1.105095	-0.628007
H60	H	1.744608	-0.920840	-0.383351
F61	F	1.625175	-0.906316	-0.260438
