data_functionalizedCrystal
_audit_creation_method	'MofGen! by Chris Wilmer'
_symmetry_space_group_name_H-M	'P1'
_symmetry_Int_Tables_number	1
_symmetry_cell_setting	triclinic
loop_
_symmetry_equiv_pos_as_xyz
  x,y,z
_cell_length_a	17.077402
_cell_length_b	17.077404
_cell_length_c	12.759393
_cell_angle_alpha	90.024591
_cell_angle_beta	90.034688
_cell_angle_gamma	90.021130
loop_
_atom_site_label
_atom_site_type_symbol
_atom_site_fract_x
_atom_site_fract_y
_atom_site_fract_z
Zn1	Zn	-0.312507	1.200079	0.594092
Zn2	Zn	-0.443793	1.199979	0.418399
Zn3	Zn	-0.312541	1.068804	0.418416
Zn4	Zn	-0.443731	1.068779	0.594025
O5	O	-0.378143	1.134410	0.506233
O6	O	-0.329934	1.309913	0.570807
O7	O	-0.426423	1.182547	0.271380
O8	O	-0.202690	1.086270	0.441755
O9	O	-0.426389	1.309839	0.441726
O10	O	-0.202664	1.182717	0.570823
O11	O	-0.329992	1.086173	0.271392
O12	O	-0.329932	0.958953	0.441690
O13	O	-0.426283	1.086228	0.741055
O14	O	-0.426316	0.958935	0.570709
O15	O	-0.329874	1.182693	0.741104
O16	O	-0.553632	1.182523	0.441661
O17	O	-0.553586	1.086131	0.570693
C18	C	-0.378122	0.930462	0.506195
C19	C	-0.378131	0.843212	0.506203
C20	C	-0.328030	0.467433	0.573591
C21	C	-0.328025	0.549414	0.573579
C22	C	-0.378159	0.590364	0.506259
C23	C	-0.428309	0.549329	0.438954
C24	C	-0.428318	0.467350	0.438972
C25	C	-0.428285	0.720199	0.438920
C26	C	-0.428275	0.802183	0.438901
C27	C	-0.327992	0.802263	0.573528
C28	C	-0.328001	0.720284	0.573546
C29	C	-0.378149	0.679255	0.506239
C30	C	-0.582091	1.134334	0.506191
C31	C	-0.669341	1.134374	0.506208
C32	C	-0.710328	1.184616	0.439094
C33	C	-0.792309	1.184655	0.439120
C34	C	-0.833300	1.134446	0.506257
C35	C	-0.792306	1.084201	0.573379
C36	C	-0.710327	1.084167	0.573357
C37	C	-0.963176	1.084274	0.573419
C38	C	-1.045161	1.084306	0.573440
C39	C	-1.045158	1.184761	0.439183
C40	C	-0.963179	1.184728	0.439160
C41	C	-0.922191	1.134481	0.506281
C42	C	-0.173399	1.134508	0.506298
C43	C	-0.086149	1.134549	0.506326
C44	C	-0.378067	1.134469	0.780266
C45	C	-0.378035	1.134494	0.897043
C46	C	-0.378165	1.339154	0.506272
C47	C	-0.378174	1.426404	0.506289
C48	C	-0.378161	1.134397	0.233266
C49	C	-0.377972	1.134524	0.116490
C50	C	-0.327827	1.184727	0.951932
C51	C	-0.327793	1.184741	1.061657
C52	C	-0.428183	1.084285	1.061593
C53	C	-0.428212	1.084268	0.951870
H54	H	-0.287174	0.686945	0.628359
Br55	Br	-0.496356	0.664516	0.347590
Br56	Br	-0.259976	0.605094	0.664931
Br57	Br	-0.496280	1.016128	1.136008
Br58	Br	-0.654700	1.015983	0.664452
H59	H	-0.469132	0.582676	0.384145
Br60	Br	-0.259926	0.857944	0.664864
Br61	Br	-0.259729	1.252889	0.877527
H62	H	-1.078533	1.043437	0.628129
H63	H	-0.825678	1.225567	0.384468
H64	H	-0.469097	1.043357	0.907179
H65	H	-0.825688	1.043324	0.628048
Br66	Br	-0.259980	0.411867	0.664950
Br67	Br	-0.654706	1.252754	0.347964
Br68	Br	-0.496338	0.857758	0.347568
H69	H	-0.469151	0.433945	0.384169
H70	H	-0.929806	1.043361	0.628080
H71	H	-0.929804	1.225607	0.384487
Br72	Br	-1.100783	1.252942	0.348075
H73	H	-0.286907	1.225644	1.106342
