data_functionalizedCrystal
_audit_creation_method	'MofGen! by Chris Wilmer'
_symmetry_space_group_name_H-M	'P1'
_symmetry_Int_Tables_number	1
_symmetry_cell_setting	triclinic
loop_
_symmetry_equiv_pos_as_xyz
  x,y,z
_cell_length_a	17.077395
_cell_length_b	17.077404
_cell_length_c	17.077402
_cell_angle_alpha	90.023108
_cell_angle_beta	90.028524
_cell_angle_gamma	90.015641
loop_
_atom_site_label
_atom_site_type_symbol
_atom_site_fract_x
_atom_site_fract_y
_atom_site_fract_z
Zn1	Zn	-0.443836	-1.200025	0.312513
Zn2	Zn	0.056164	-0.700025	0.812513
Zn3	Zn	-0.312567	-1.199941	0.443785
Zn4	Zn	0.187433	-0.699941	0.943785
Zn5	Zn	-0.312584	-1.068765	0.312538
Zn6	Zn	0.187416	-0.568765	0.812538
Zn7	Zn	-0.443790	-1.068725	0.443741
Zn8	Zn	0.056210	-0.568725	0.943741
O9	O	-0.378194	-1.134364	0.378144
O10	O	0.121806	-0.634364	0.878144
O11	O	-0.426434	-1.309860	0.329935
O12	O	0.073566	-0.809860	0.829935
O13	O	-0.202722	-1.182522	0.426404
O14	O	0.297278	-0.682522	0.926404
O15	O	-0.330021	-1.086230	0.202688
O16	O	0.169979	-0.586230	0.702688
O17	O	-0.329992	-1.309799	0.426380
O18	O	0.170008	-0.809799	0.926380
O19	O	-0.426451	-1.182665	0.202670
O20	O	0.073549	-0.682665	0.702670
O21	O	-0.202734	-1.086148	0.329977
O22	O	0.297266	-0.586148	0.829977
O23	O	-0.329976	-0.958913	0.329934
O24	O	0.170024	-0.458913	0.829934
O25	O	-0.553643	-1.086160	0.426305
O26	O	-0.053643	-0.586160	0.926305
O27	O	-0.426373	-0.958883	0.426329
O28	O	0.073627	-0.458883	0.926329
O29	O	-0.553677	-1.182626	0.329892
O30	O	-0.053677	-0.682626	0.829892
O31	O	-0.329948	-1.182482	0.553626
O32	O	0.170052	-0.682482	1.053626
O33	O	-0.426357	-1.086078	0.553594
O34	O	0.073643	-0.586078	1.053594
C35	C	-0.378172	-0.930416	0.378130
C36	C	0.121828	-0.430416	0.878130
C37	C	-0.378182	-0.843166	0.378143
C38	C	0.121818	-0.343166	0.878143
C39	C	-0.582938	-1.134398	0.378091
C40	C	-0.082938	-0.634398	0.878091
C41	C	-0.670188	-1.134412	0.378068
C42	C	-0.170188	-0.634412	0.878068
C43	C	-1.046021	-1.184729	0.327760
C44	C	-0.546021	-0.684729	0.827760
C45	C	-0.964041	-1.184713	0.327787
C46	C	-0.464041	-0.684713	0.827787
C47	C	-0.923037	-1.134477	0.377994
C48	C	-0.423037	-0.634477	0.877994
C49	C	-0.964018	-1.084259	0.428182
C50	C	-0.464018	-0.584259	0.928182
C51	C	-1.045997	-1.084279	0.428158
C52	C	-0.545997	-0.584279	0.928158
C53	C	-0.793148	-1.084218	0.428228
C54	C	-0.293148	-0.584218	0.928228
C55	C	-0.711164	-1.084196	0.428251
C56	C	-0.211164	-0.584196	0.928251
C57	C	-0.711192	-1.184651	0.327857
C58	C	-0.211192	-0.684651	0.827857
C59	C	-0.793171	-1.184672	0.327833
C60	C	-0.293171	-0.684672	0.827833
C61	C	-0.834146	-1.134453	0.378020
C62	C	-0.334146	-0.634453	0.878020
C63	C	-0.378163	-1.134288	0.582092
C64	C	0.121837	-0.634288	1.082092
C65	C	-0.378176	-1.134327	0.669342
C66	C	0.121824	-0.634327	1.169342
C67	C	-0.174246	-1.134375	0.378141
C68	C	0.325754	-0.634375	0.878141
C69	C	-0.086997	-1.134513	0.377942
C70	C	0.413003	-0.634513	0.877942
C71	C	-0.378216	-1.339108	0.378159
C72	C	0.121784	-0.839108	0.878159
C73	C	-0.378226	-1.426358	0.378166
C74	C	0.121774	-0.926358	0.878166
C75	C	-0.428295	-0.802181	0.428411
C76	C	0.071705	-0.302181	0.928411
C77	C	-0.428308	-0.720200	0.428413
C78	C	0.071692	-0.220200	0.928413
C79	C	-0.378202	-0.679207	0.378150
C80	C	0.121798	-0.179207	0.878150
C81	C	-0.328087	-0.720198	0.327876
C82	C	0.171913	-0.220198	0.827876
C83	C	-0.328079	-0.802177	0.327871
C84	C	0.171921	-0.302177	0.827871
C85	C	-0.328106	-0.549328	0.327891
C86	C	0.171894	-0.049328	0.827891
C87	C	-0.328112	-0.467343	0.327897
C88	C	0.171888	0.032657	0.827897
C89	C	-0.428335	-0.467352	0.428434
C90	C	0.071665	0.032648	0.928434
C91	C	-0.428326	-0.549330	0.428429
C92	C	0.071674	-0.049330	0.928429
C93	C	-0.378210	-0.590316	0.378155
C94	C	0.121790	-0.090316	0.878155
C95	C	-0.378243	-1.134461	0.173400
C96	C	0.121757	-0.634461	0.673400
C97	C	-0.378263	-1.134503	0.086150
C98	C	0.121737	-0.634503	0.586150
C99	C	-0.328029	-1.184576	0.710323
C100	C	0.171971	-0.684576	1.210323
C101	C	-0.328049	-1.184615	0.792303
C102	C	0.171951	-0.684615	1.292303
C103	C	-0.378212	-1.134400	0.833301
C104	C	0.121788	-0.634400	1.333301
C105	C	-0.428364	-1.084149	0.792315
C106	C	0.071636	-0.584149	1.292315
C107	C	-0.428348	-1.084115	0.710336
C108	C	0.071652	-0.584115	1.210336
C109	C	-0.428394	-1.084221	0.963185
C110	C	0.071606	-0.584221	1.463185
C111	C	-0.428410	-1.084254	1.045170
C112	C	0.071590	-0.584254	1.545170
C113	C	-0.328096	-1.184721	1.045152
C114	C	0.171904	-0.684721	1.545152
C115	C	-0.328079	-1.184687	0.963173
C116	C	0.171921	-0.684687	1.463173
C117	C	-0.378230	-1.134435	0.922192
C118	C	0.121770	-0.634435	1.422192
H119	H	-1.079401	-1.225632	0.286870
H120	H	-0.579401	-0.725632	0.786870
C121	C	-0.838219	-1.028973	0.483435
C122	C	-0.338219	-0.528973	0.983435
N123	N	-0.872167	-0.987359	0.525013
N124	N	-0.372167	-0.487359	1.025013
H125	H	-0.930627	-1.043359	0.469065
H126	H	-0.430627	-0.543359	0.969065
C127	C	-0.272972	-0.594410	0.272590
C128	C	0.227028	-0.094410	0.772590
N129	N	-0.231443	-0.628365	0.230941
N130	N	0.268557	-0.128365	0.730941
C131	C	-0.483513	-1.028838	0.665258
C132	C	0.016487	-0.528838	1.165258
N133	N	-0.525068	-0.987203	0.631305
N134	N	-0.025068	-0.487203	1.131305
H135	H	-0.287228	-1.225572	0.929793
H136	H	0.212772	-0.725572	1.429793
C137	C	-0.918972	-1.239947	0.272575
C138	C	-0.418972	-0.739947	0.772575
N139	N	-0.885026	-1.281550	0.230985
N140	N	-0.385026	-0.781550	0.730985
C141	C	-1.091070	-1.029037	0.483362
C142	C	-0.591070	-0.529037	0.983362
N143	N	-1.125017	-0.987427	0.524944
N144	N	-0.625017	-0.487427	1.024944
C145	C	-0.483421	-0.675120	0.483728
C146	C	0.016579	-0.175120	0.983728
N147	N	-0.524931	-0.641167	0.525398
N148	N	-0.024931	-0.141167	1.025398
C149	C	-0.483467	-0.422266	0.483731
C150	C	0.016533	0.077734	0.983731
N151	N	-0.524991	-0.388304	0.525381
N152	N	-0.024991	0.111696	1.025381
C153	C	-0.666117	-1.239898	0.272655
C154	C	-0.166117	-0.739898	0.772655
N155	N	-0.632164	-1.281507	0.231077
N156	N	-0.132164	-0.781507	0.731077
H157	H	-0.287214	-1.225532	0.825666
H158	H	0.212786	-0.725532	1.325666
H159	H	-0.287263	-1.225641	1.078523
H160	H	0.212737	-0.725641	1.578523
C161	C	-0.272843	-1.239816	0.665233
C162	C	0.227157	-0.739816	1.165233
N163	N	-0.231277	-1.281426	0.631273
N164	N	0.268723	-0.781426	1.131273
H165	H	-0.469272	-1.043379	1.078548
H166	H	0.030728	-0.543379	1.578548
C167	C	-0.666061	-1.028946	0.483493
C168	C	-0.166061	-0.528946	0.983493
N169	N	-0.632090	-0.987333	0.525105
N170	N	-0.132090	-0.487333	1.025105
C171	C	-0.483416	-0.847266	0.483706
C172	C	0.016584	-0.347266	0.983706
N173	N	-0.524937	-0.881223	0.525354
N174	N	-0.024937	-0.381223	1.025354
C175	C	-0.483557	-1.028934	0.918108
C176	C	0.016443	-0.528934	1.418108
N177	N	-0.525099	-0.987288	0.884156
N178	N	-0.025099	-0.487288	1.384156
C179	C	-0.272948	-0.847260	0.272573
C180	C	0.227052	-0.347260	0.772573
N181	N	-0.231424	-0.881216	0.230920
N182	N	0.268576	-0.381216	0.730920
H183	H	-0.469122	-0.582705	0.469362
H184	H	0.030878	-0.082705	0.969362
H185	H	-0.287293	-0.686814	0.286947
H186	H	0.212707	-0.186814	0.786947
H187	H	-0.287321	-0.433968	0.286959
H188	H	0.212679	0.066032	0.786959
H189	H	-0.826554	-1.225575	0.286946
H190	H	-0.326554	-0.725575	0.786946
H191	H	-0.469211	-1.043266	0.825702
H192	H	0.030789	-0.543266	1.325702
