data_functionalizedCrystal
_audit_creation_method	'MofGen! by Chris Wilmer'
_symmetry_space_group_name_H-M	'P1'
_symmetry_Int_Tables_number	1
_symmetry_cell_setting	triclinic
loop_
_symmetry_equiv_pos_as_xyz
  x,y,z
_cell_length_a	12.759399
_cell_length_b	12.759401
_cell_length_c	12.759393
_cell_angle_alpha	90.020938
_cell_angle_beta	90.030906
_cell_angle_gamma	90.016641
loop_
_atom_site_label
_atom_site_type_symbol
_atom_site_fract_x
_atom_site_fract_y
_atom_site_fract_z
Zn1	Zn	-0.418173	1.606263	0.594017
Zn2	Zn	-0.593888	1.606153	0.418336
Zn3	Zn	-0.418229	1.430562	0.418352
Zn4	Zn	-0.593815	1.430553	0.593973
O5	O	-0.506026	1.518383	0.506170
O6	O	-0.441489	1.753270	0.570724
O7	O	-0.570641	1.582818	0.271317
O8	O	-0.271200	1.453919	0.441680
O9	O	-0.570587	1.753189	0.441652
O10	O	-0.271159	1.583006	0.570740
O11	O	-0.441584	1.453812	0.271329
O12	O	-0.441513	1.283540	0.441637
O13	O	-0.570461	1.453903	0.741000
O14	O	-0.570516	1.283533	0.570665
O15	O	-0.441418	1.582997	0.741032
O16	O	-0.740900	1.582809	0.441609
O17	O	-0.740846	1.453796	0.570649
C18	C	-0.778994	1.518318	0.506146
C19	C	-0.895770	1.518387	0.506171
C20	C	-0.506013	1.245415	0.506149
C21	C	-0.506033	1.128639	0.506165
C22	C	-0.950625	1.585641	0.439056
C23	C	-1.060349	1.585708	0.439091
C24	C	-1.060353	1.451259	0.573359
C25	C	-0.950631	1.451198	0.573328
C26	C	-0.573307	1.073801	0.573244
C27	C	-0.573311	0.964077	0.573265
C28	C	-0.438764	0.964038	0.439118
C29	C	-0.438756	1.073760	0.439104
C30	C	-0.231993	1.518476	0.506217
C31	C	-0.115216	1.518516	0.506237
C32	C	-0.505925	1.518461	0.780203
C33	C	-0.505882	1.518495	0.896980
C34	C	-0.506040	1.792416	0.506191
C35	C	-0.506046	1.909193	0.506200
C36	C	-0.506051	1.518365	0.233202
C37	C	-0.505798	1.518535	0.116426
C38	C	-0.438679	1.585719	0.951860
C39	C	-0.438633	1.585737	1.061584
C40	C	-0.573004	1.451303	1.061538
C41	C	-0.573044	1.451281	0.951816
H42	H	-0.905960	1.640352	0.384374
C43	C	-0.364795	1.659644	0.891540
C44	C	-0.410348	1.742102	0.816117
C45	C	-0.336460	1.816027	0.755801
C46	C	-0.217019	1.807495	0.770907
C47	C	-0.171459	1.725033	0.846334
C48	C	-0.245347	1.651108	0.906650
H49	H	-0.498772	1.748422	0.804931
H50	H	-0.370187	1.877071	0.699965
H51	H	-0.162322	1.862218	0.726258
H52	H	-0.083036	1.718714	0.857519
H53	H	-0.211620	1.590065	0.962486
C54	C	-0.647301	1.134169	0.647018
C55	C	-0.729729	1.209558	0.601344
C56	C	-0.803722	1.269922	0.675123
C57	C	-0.795286	1.254898	0.794575
C58	C	-0.712854	1.179506	0.840255
C59	C	-0.638861	1.119141	0.766476
H60	H	-0.735977	1.220682	0.512912
H61	H	-0.864743	1.325733	0.641307
H62	H	-0.850060	1.299584	0.849191
H63	H	-0.706607	1.168381	0.928686
H64	H	-0.577840	1.063331	0.800292
C65	C	-1.120703	1.377345	0.647220
C66	C	-1.060361	1.303367	0.721047
C67	C	-1.120708	1.229448	0.794907
C68	C	-1.241398	1.229506	0.794939
C69	C	-1.301747	1.303486	0.721110
C70	C	-1.241400	1.377405	0.647250
H71	H	-0.971013	1.303322	0.721025
H72	H	-1.076033	1.174683	0.849560
H73	H	-1.286071	1.174786	0.849615
H74	H	-1.391095	1.303531	0.721131
H75	H	-1.286075	1.432170	0.592596
H76	H	-1.105007	1.640474	0.384441
H77	H	-0.383908	1.640476	1.106263
H78	H	-0.905965	1.396432	0.627986
H79	H	-0.627687	1.396583	1.106199
C80	C	-0.647316	0.903755	0.647051
C81	C	-0.721313	0.964123	0.720813
C82	C	-0.795320	0.903802	0.794605
C83	C	-0.795329	0.783112	0.794633
C84	C	-0.721330	0.722737	0.720868
C85	C	-0.647323	0.783058	0.647077
H86	H	-0.721308	1.053471	0.720795
H87	H	-0.850099	0.948496	0.849211
H88	H	-0.850114	0.738458	0.849258
H89	H	-0.721334	0.633389	0.720886
H90	H	-0.592543	0.738364	0.592471
C91	C	-0.364771	0.903669	0.365345
C92	C	-0.364781	0.782980	0.365352
C93	C	-0.290789	0.722613	0.291574
C94	C	-0.216787	0.782937	0.217789
C95	C	-0.216774	0.903634	0.217779
C96	C	-0.290766	0.964000	0.291557
H97	H	-0.419565	0.738318	0.419974
H98	H	-0.290799	0.633265	0.291581
H99	H	-0.162013	0.738251	0.163174
H100	H	-0.161990	0.948295	0.163157
H101	H	-0.290756	1.053348	0.291550
C102	C	-0.364753	1.134088	0.365306
C103	C	-0.245328	1.119033	0.374084
C104	C	-0.171327	1.179360	0.300292
C105	C	-0.216750	1.254743	0.217722
C106	C	-0.336182	1.269801	0.208941
C107	C	-0.410183	1.209474	0.282733
H108	H	-0.211697	1.063228	0.435210
H109	H	-0.082915	1.168213	0.306793
H110	H	-0.161970	1.299400	0.163097
H111	H	-0.369813	1.325607	0.147815
H112	H	-0.498594	1.220622	0.276232
H113	H	-0.627768	1.396532	0.907131
