data_functionalizedCrystal
_audit_creation_method	'MofGen! by Chris Wilmer'
_symmetry_space_group_name_H-M	'P1'
_symmetry_Int_Tables_number	1
_symmetry_cell_setting	triclinic
loop_
_symmetry_equiv_pos_as_xyz
  x,y,z
_cell_length_a	12.759401
_cell_length_b	12.759400
_cell_length_c	12.759393
_cell_angle_alpha	90.029373
_cell_angle_beta	90.020938
_cell_angle_gamma	90.014690
loop_
_atom_site_label
_atom_site_type_symbol
_atom_site_fract_x
_atom_site_fract_y
_atom_site_fract_z
Zn1	Zn	1.606278	-0.418173	0.594028
Zn2	Zn	1.606173	-0.593888	0.418352
Zn3	Zn	1.430576	-0.418229	0.418363
Zn4	Zn	1.430573	-0.593815	0.593989
O5	O	1.518400	-0.506026	0.506183
O6	O	1.753285	-0.441489	0.570736
O7	O	1.582838	-0.570641	0.271332
O8	O	1.453928	-0.271200	0.441687
O9	O	1.753208	-0.570587	0.441667
O10	O	1.583015	-0.271159	0.570747
O11	O	1.453827	-0.441584	0.271341
O12	O	1.283555	-0.441513	0.441649
O13	O	1.453923	-0.570461	0.741015
O14	O	1.283552	-0.570516	0.570680
O15	O	1.583012	-0.441418	0.741044
O16	O	1.582835	-0.740900	0.441629
O17	O	1.453822	-0.740846	0.570669
C18	C	1.245433	-0.506013	0.506162
C19	C	1.128656	-0.506033	0.506178
C20	C	1.518345	-0.778993	0.506167
C21	C	1.518417	-0.895770	0.506195
C22	C	1.073820	-0.573307	0.573259
C23	C	0.964096	-0.573311	0.573280
C24	C	0.964053	-0.438764	0.439130
C25	C	1.073775	-0.438756	0.439115
C26	C	1.585599	-0.950531	0.573451
C27	C	1.585648	-1.060255	0.573477
C28	C	1.451330	-1.060448	0.438980
C29	C	1.451277	-0.950726	0.438961
C30	C	1.663150	-0.950421	0.651099
C31	C	1.663199	-1.060145	0.651124
C32	C	1.792433	-0.506040	0.506205
C33	C	1.909210	-0.506046	0.506214
C34	C	1.518479	-0.505925	0.780217
C35	C	1.518512	-0.505882	0.896993
C36	C	1.518484	-0.231993	0.506223
C37	C	1.518520	-0.115216	0.506240
C38	C	1.518382	-0.506051	0.233216
C39	C	1.518552	-0.505798	0.116440
C40	C	1.585734	-0.438679	0.951872
C41	C	1.585752	-0.438633	1.061596
C42	C	1.451323	-0.573004	1.061553
C43	C	1.451301	-0.573044	0.951831
H44	H	0.919454	-0.628090	0.627906
H45	H	1.640459	-0.383989	0.907226
C46	C	0.903682	-0.364762	0.365364
C47	C	0.964003	-0.290754	0.291583
C48	C	0.903635	-0.216748	0.217816
C49	C	0.782945	-0.216752	0.217829
C50	C	0.722616	-0.290764	0.291613
C51	C	0.782985	-0.364769	0.365380
H52	H	1.053351	-0.290748	0.291571
H53	H	0.948294	-0.161960	0.163197
H54	H	0.738256	-0.161969	0.163222
H55	H	0.633269	-0.290769	0.291625
H56	H	0.738326	-0.419557	0.419999
H57	H	1.118424	-0.383967	0.384490
C58	C	1.377417	-0.646896	1.121886
C59	C	1.385968	-0.766336	1.106778
C60	C	1.312070	-0.840236	1.167112
C61	C	1.229622	-0.794697	1.242555
C62	C	1.221068	-0.675251	1.257667
C63	C	1.294966	-0.601350	1.197332
H64	H	1.447004	-0.800053	1.050928
H65	H	1.318403	-0.928659	1.155925
H66	H	1.174919	-0.849402	1.287218
H67	H	1.160032	-0.641534	1.313517
H68	H	1.288633	-0.512928	1.208520
C69	C	1.623784	-1.106074	0.755518
C70	C	1.526449	-1.177438	0.757078
C71	C	1.487022	-1.223364	0.861465
C72	C	1.544930	-1.197926	0.964292
C73	C	1.642271	-1.126558	0.962736
C74	C	1.681698	-1.080632	0.858349
H75	H	1.483577	-1.196272	0.680956
H76	H	1.414963	-1.276195	0.862617
H77	H	1.515744	-1.231923	1.041566
H78	H	1.685144	-1.107724	1.038858
H79	H	1.753757	-1.027801	0.857197
C80	C	1.377348	-0.646973	0.891461
C81	C	1.257919	-0.638382	0.906534
C82	C	1.183965	-0.712305	0.846166
C83	C	1.229441	-0.794818	0.770724
C84	C	1.348876	-0.803413	0.755647
C85	C	1.422830	-0.729490	0.816015
H86	H	1.224250	-0.577298	0.962384
H87	H	1.095551	-0.705942	0.857327
H88	H	1.174696	-0.849540	0.726035
H89	H	1.382546	-0.864497	0.699797
H90	H	1.511244	-0.735853	0.804854
H91	H	1.118501	-0.628086	0.627869
C92	C	1.377484	-1.120902	0.365021
C93	C	1.423084	-1.196359	0.282591
C94	C	1.349238	-1.256812	0.208629
C95	C	1.229790	-1.241807	0.217097
C96	C	1.184184	-1.166346	0.299531
C97	C	1.258030	-1.105894	0.373493
H98	H	1.511512	-1.207470	0.276319
H99	H	1.382999	-1.312673	0.147606
H100	H	1.175124	-1.286557	0.162346
H101	H	1.095756	-1.155236	0.305802
H102	H	1.224269	-1.050033	0.434515
H103	H	1.396563	-0.906140	0.384205
C104	C	1.633634	-0.910131	0.760986
C105	C	1.526959	-0.939325	0.809264
C106	C	1.497444	-0.899035	0.919149
C107	C	1.574603	-0.829553	0.980755
C108	C	1.681284	-0.800356	0.932478
C109	C	1.710800	-0.840645	0.822594
H110	H	1.469835	-0.990763	0.763659
H111	H	1.418471	-0.920649	0.954886
H112	H	1.552754	-0.799729	1.062098
H113	H	1.738408	-0.748918	0.978083
H114	H	1.789773	-0.819031	0.786856
H115	H	1.740441	-0.916351	0.622012
H116	H	1.744596	-1.089879	0.629412
H117	H	1.640489	-0.383908	1.106274
