data_functionalizedCrystal
_audit_creation_method	'MofGen! by Chris Wilmer'
_symmetry_space_group_name_H-M	'P1'
_symmetry_Int_Tables_number	1
_symmetry_cell_setting	triclinic
loop_
_symmetry_equiv_pos_as_xyz
  x,y,z
_cell_length_a	12.759401
_cell_length_b	12.759400
_cell_length_c	12.759393
_cell_angle_alpha	89.969503
_cell_angle_beta	89.980163
_cell_angle_gamma	90.014690
loop_
_atom_site_label
_atom_site_type_symbol
_atom_site_fract_x
_atom_site_fract_y
_atom_site_fract_z
Zn1	Zn	1.606266	-0.418161	-0.594028
Zn2	Zn	1.606165	-0.593880	-0.418352
Zn3	Zn	1.430568	-0.418220	-0.418363
Zn4	Zn	1.430561	-0.593803	-0.593989
O5	O	1.518390	-0.506016	-0.506183
O6	O	1.753274	-0.441478	-0.570736
O7	O	1.582833	-0.570635	-0.271332
O8	O	1.453920	-0.271191	-0.441687
O9	O	1.753200	-0.570578	-0.441667
O10	O	1.583004	-0.271148	-0.570747
O11	O	1.453822	-0.441579	-0.271341
O12	O	1.283546	-0.441504	-0.441649
O13	O	1.453908	-0.570447	-0.741015
O14	O	1.283541	-0.570504	-0.570680
O15	O	1.582998	-0.441403	-0.741044
O16	O	1.582826	-0.740891	-0.441629
O17	O	1.453811	-0.740834	-0.570669
C18	C	1.245423	-0.506003	-0.506162
C19	C	1.128646	-0.506023	-0.506178
C20	C	1.518335	-0.778984	-0.506167
C21	C	1.518408	-0.895760	-0.506195
C22	C	1.073809	-0.573296	-0.573259
C23	C	0.964085	-0.573300	-0.573280
C24	C	0.964045	-0.438756	-0.439130
C25	C	1.073767	-0.438747	-0.439115
C26	C	1.585588	-0.950520	-0.573451
C27	C	1.585637	-1.060244	-0.573477
C28	C	1.451322	-1.060439	-0.438980
C29	C	1.451269	-0.950717	-0.438961
C30	C	1.663138	-0.950408	-0.651099
C31	C	1.663187	-1.060132	-0.651124
C32	C	1.792424	-0.506030	-0.506205
C33	C	1.909200	-0.506036	-0.506214
C34	C	1.518464	-0.505910	-0.780217
C35	C	1.518495	-0.505865	-0.896993
C36	C	1.518474	-0.231983	-0.506223
C37	C	1.518510	-0.115206	-0.506240
C38	C	1.451343	-0.438653	-0.951859
C39	C	1.451368	-0.438620	-1.061584
C40	C	1.585705	-0.573015	-1.061566
C41	C	1.585674	-0.573052	-0.951844
C42	C	1.518378	-0.506046	-0.233216
C43	C	1.518550	-0.505795	-0.116440
H44	H	1.118489	-0.628073	-0.627869
H45	H	1.396685	-0.383891	-1.106251
H46	H	1.640400	-0.627715	-1.106239
C47	C	1.107488	-0.387357	-0.261289
C48	C	1.134055	-0.364799	-0.365372
H49	H	1.144714	-0.341709	-0.215769
H50	H	1.034298	-0.377728	-0.251702
H51	H	1.125454	-0.457931	-0.245804
H52	H	1.116082	-0.294227	-0.380859
H53	H	1.207261	-0.374419	-0.374963
C54	C	1.718476	-0.705890	-0.962839
C55	C	1.659495	-0.646935	-0.891527
H56	H	1.764049	-0.751496	-0.925599
H57	H	1.672702	-0.746059	-1.005622
H58	H	1.758691	-0.660094	-1.005648
H59	H	1.619274	-0.692731	-0.848723
H60	H	1.705275	-0.606763	-0.848726
C61	C	0.930394	-0.624702	-0.751096
C62	C	0.903810	-0.647252	-0.647015
H63	H	0.893187	-0.670364	-0.796618
H64	H	0.912428	-0.554142	-0.766592
H65	H	1.003598	-0.634327	-0.760667
H66	H	0.830608	-0.637620	-0.637443
H67	H	0.921770	-0.717830	-0.631514
C68	C	0.795830	-0.379027	-0.379587
C69	C	0.903717	-0.364813	-0.365413
H70	H	0.758590	-0.333381	-0.334070
H71	H	0.777891	-0.363738	-0.450199
H72	H	0.777838	-0.449603	-0.364086
H73	H	0.921710	-0.294238	-0.380921
H74	H	0.921663	-0.380095	-0.294785
H75	H	1.396555	-0.906133	-0.384205
C76	C	1.391649	-0.379028	-0.783671
C77	C	1.377495	-0.364809	-0.891565
H78	H	1.346059	-0.333435	-0.746452
H79	H	1.376245	-0.449615	-0.765679
H80	H	1.462242	-0.363659	-0.765708
H81	H	1.306904	-0.380186	-0.909530
H82	H	1.392892	-0.294206	-0.909564
C83	C	1.391761	-1.228723	-0.379293
C84	C	1.377530	-1.120851	-0.365074
H85	H	1.346208	-1.266015	-0.333659
H86	H	1.376354	-1.246657	-0.449866
H87	H	1.462371	-1.246655	-0.363980
H88	H	1.306922	-1.102918	-0.380395
H89	H	1.392930	-1.102910	-0.294485
H90	H	1.633997	-1.094128	-0.728396
H91	H	1.641290	-0.920591	-0.732445
H92	H	1.740429	-0.916339	-0.622012
H93	H	1.744584	-1.089867	-0.629412
