data_functionalizedCrystal
_audit_creation_method	'MofGen! by Chris Wilmer'
_symmetry_space_group_name_H-M	'P1'
_symmetry_Int_Tables_number	1
_symmetry_cell_setting	triclinic
loop_
_symmetry_equiv_pos_as_xyz
  x,y,z
_cell_length_a	17.077404
_cell_length_b	17.077402
_cell_length_c	17.077396
_cell_angle_alpha	89.970216
_cell_angle_beta	89.980499
_cell_angle_gamma	90.023108
loop_
_atom_site_label
_atom_site_type_symbol
_atom_site_fract_x
_atom_site_fract_y
_atom_site_fract_z
Zn1	Zn	1.200055	-0.312503	-0.443836
Zn2	Zn	1.199962	-0.443778	-0.312567
Zn3	Zn	1.068786	-0.312531	-0.312584
Zn4	Zn	1.068754	-0.443732	-0.443790
O5	O	1.134389	-0.378136	-0.378194
O6	O	1.309889	-0.329925	-0.426434
O7	O	1.182536	-0.426399	-0.202722
O8	O	1.086252	-0.202680	-0.330021
O9	O	1.309821	-0.426372	-0.329992
O10	O	1.182694	-0.202660	-0.426451
O11	O	1.086162	-0.329972	-0.202734
O12	O	0.958935	-0.329927	-0.329976
O13	O	1.086197	-0.426293	-0.553643
O14	O	0.958912	-0.426320	-0.426373
O15	O	1.182663	-0.329880	-0.553677
O16	O	1.182505	-0.553619	-0.329948
O17	O	1.086107	-0.553585	-0.426357
C18	C	0.930441	-0.378122	-0.378172
C19	C	0.843192	-0.378135	-0.378182
C20	C	0.802210	-0.428402	-0.428295
C21	C	0.720229	-0.428404	-0.428308
C22	C	0.679232	-0.378141	-0.378202
C23	C	0.720220	-0.327869	-0.328087
C24	C	0.802199	-0.327863	-0.328079
C25	C	0.549350	-0.327884	-0.328106
C26	C	0.467365	-0.327890	-0.328112
C27	C	0.467380	-0.428424	-0.428335
C28	C	0.549359	-0.428419	-0.428327
C29	C	0.590341	-0.378147	-0.378210
C30	C	1.134314	-0.582084	-0.378163
C31	C	1.134353	-0.669334	-0.378176
C32	C	1.184598	-0.710316	-0.328029
C33	C	1.184637	-0.792296	-0.328049
C34	C	1.134425	-0.833293	-0.378212
C35	C	1.084178	-0.792305	-0.428364
C36	C	1.084144	-0.710327	-0.428348
C37	C	1.084250	-0.963175	-0.428394
C38	C	1.084283	-1.045160	-0.428410
C39	C	1.184743	-1.045145	-0.328096
C40	C	1.184709	-0.963166	-0.328079
C41	C	1.134461	-0.922184	-0.378230
C42	C	1.339134	-0.378151	-0.378216
C43	C	1.426383	-0.378157	-0.378226
C44	C	1.134437	-0.378078	-0.582938
C45	C	1.134457	-0.378054	-0.670188
C46	C	1.134487	-0.173392	-0.378243
C47	C	1.134528	-0.086142	-0.378263
C48	C	1.184689	-0.327847	-0.711197
C49	C	1.184698	-0.327821	-0.793178
C50	C	1.134479	-0.378006	-0.834148
C51	C	1.084242	-0.428214	-0.793133
C52	C	1.084229	-0.428236	-0.711154
C53	C	1.084274	-0.428167	-0.964003
C54	C	1.084288	-0.428147	-1.045988
C55	C	1.184742	-0.327752	-1.046027
C56	C	1.184730	-0.327774	-0.964048
C57	C	1.134493	-0.377984	-0.923039
C58	C	1.134387	-0.378137	-0.174246
C59	C	1.134519	-0.377941	-0.086997
H60	H	0.433988	-0.286953	-0.287321
C61	C	1.239912	-0.837371	-0.272887
C62	C	1.233554	-0.826171	-0.183642
C63	C	1.288836	-0.871243	-0.128480
C64	C	1.350477	-0.927516	-0.162563
C65	C	1.356838	-0.938720	-0.251813
C66	C	1.301556	-0.893647	-0.306975
H67	H	1.187921	-0.784512	-0.158408
H68	H	1.284127	-0.862949	-0.062412
H69	H	1.391400	-0.960882	-0.121729
H70	H	1.402470	-0.980379	-0.277048
H71	H	1.306265	-0.901941	-0.373044
H72	H	0.434009	-0.469355	-0.469144
C73	C	0.594435	-0.272583	-0.272981
C74	C	0.583198	-0.183355	-0.279549
C75	C	0.628285	-0.128058	-0.224426
C76	C	0.684610	-0.161989	-0.162736
C77	C	0.695850	-0.251222	-0.156165
C78	C	0.650763	-0.306519	-0.211288
H79	H	0.541500	-0.158234	-0.325219
H80	H	0.619964	-0.062002	-0.229291
H81	H	0.717986	-0.121055	-0.121931
H82	H	0.737548	-0.276344	-0.110496
H83	H	0.659084	-0.372575	-0.206424
C84	C	0.594456	-0.483710	-0.483441
C85	C	0.650778	-0.545290	-0.449307
C86	C	0.695875	-0.600581	-0.504423
C87	C	0.684650	-0.594291	-0.593673
C88	C	0.628325	-0.532708	-0.627811
C89	C	0.583229	-0.477418	-0.572695
H90	H	0.659090	-0.549948	-0.383234
H91	H	0.737570	-0.646168	-0.479151
H92	H	0.718033	-0.635220	-0.634473
H93	H	0.620014	-0.528050	-0.693884
H94	H	0.541534	-0.431830	-0.597968
H95	H	1.043411	-1.078538	-0.469272
H96	H	1.225645	-0.286868	-1.079420
H97	H	1.043335	-0.929811	-0.469235
H98	H	1.043350	-0.469073	-0.826498
C99	C	0.847284	-0.272569	-0.272954
C100	C	0.836043	-0.183341	-0.279525
C101	C	0.881128	-0.128041	-0.224404
C102	C	0.937454	-0.161968	-0.162711
C103	C	0.948697	-0.251200	-0.156138
C104	C	0.903612	-0.306500	-0.211260
H105	H	0.794345	-0.158222	-0.325196
H106	H	0.872804	-0.061985	-0.229270
H107	H	0.970828	-0.121031	-0.121907
H108	H	0.990395	-0.276318	-0.110467
H109	H	0.911936	-0.372555	-0.206393
H110	H	0.835584	-0.469334	-0.469094
C111	C	1.239932	-0.272642	-0.666134
C112	C	1.301538	-0.306674	-0.609780
C113	C	1.356781	-0.251465	-0.564720
C114	C	1.350417	-0.162225	-0.576014
C115	C	1.288808	-0.128189	-0.632370
C116	C	1.233565	-0.183398	-0.677430
H117	H	1.306251	-0.372739	-0.601418
H118	H	1.402388	-0.276661	-0.523002
H119	H	1.391311	-0.121356	-0.542657
H120	H	1.284095	-0.062124	-0.640732
H121	H	1.187958	-0.158201	-0.719148
H122	H	0.686866	-0.469337	-0.469114
C123	C	1.028871	-0.665242	-0.483507
C124	C	0.939642	-0.676587	-0.477021
C125	C	0.884370	-0.631503	-0.532184
C126	C	0.918326	-0.575074	-0.593832
C127	C	1.007560	-0.563727	-0.600321
C128	C	1.062832	-0.608811	-0.545158
H129	H	0.914501	-0.718362	-0.431382
H130	H	0.818313	-0.639904	-0.527380
H131	H	0.877411	-0.541701	-0.634667
H132	H	1.032701	-0.521952	-0.645959
H133	H	1.128889	-0.600410	-0.549961
H134	H	1.043393	-0.469010	-1.079344
H135	H	1.225603	-0.286940	-0.826563
H136	H	0.686834	-0.286941	-0.287293
H137	H	1.225627	-0.286913	-0.930692
C138	C	1.029021	-0.483400	-0.918885
C139	C	0.939787	-0.476996	-0.930133
C140	C	0.884542	-0.532230	-0.885011
C141	C	0.918531	-0.593868	-0.828643
C142	C	1.007770	-0.600274	-0.817393
C143	C	1.063015	-0.545040	-0.862514
H144	H	0.914622	-0.431366	-0.971862
H145	H	0.818482	-0.527488	-0.893339
H146	H	0.877636	-0.634756	-0.795241
H147	H	1.032935	-0.645905	-0.775663
H148	H	1.129075	-0.549783	-0.854186
C149	C	1.239833	-0.665222	-0.272848
C150	C	1.233488	-0.676565	-0.183608
C151	C	1.288726	-0.631474	-0.128427
C152	C	1.350310	-0.575040	-0.162488
C153	C	1.356658	-0.563694	-0.251733
C154	C	1.301419	-0.608785	-0.306913
H155	H	1.187897	-0.718344	-0.158390
H156	H	1.284026	-0.639874	-0.062362
H157	H	1.391200	-0.541660	-0.121640
H158	H	1.402248	-0.521915	-0.276950
H159	H	1.306119	-0.600386	-0.372978
C160	C	1.240021	-1.090221	-0.272930
C161	C	1.240066	-1.180395	-0.272947
C162	C	1.295338	-1.225475	-0.217780
C163	C	1.350564	-1.180381	-0.162596
C164	C	1.350520	-1.090202	-0.162577
C165	C	1.295249	-1.045122	-0.217744
H166	H	1.199183	-1.213780	-0.313800
H167	H	1.295370	-1.292231	-0.217795
H168	H	1.391479	-1.213752	-0.121758
H169	H	1.391403	-1.056816	-0.121724
H170	H	1.295217	-0.978366	-0.217729
H171	H	1.225591	-0.929786	-0.287228
C172	C	1.028946	-0.837402	-0.483546
C173	C	0.967359	-0.893834	-0.449488
C174	C	0.912126	-0.938929	-0.504670
C175	C	0.918480	-0.927592	-0.593911
C176	C	0.980069	-0.871157	-0.627974
C177	C	1.035303	-0.826062	-0.572792
H178	H	0.962654	-0.902228	-0.383423
H179	H	0.866533	-0.980705	-0.479454
H180	H	0.877593	-0.960974	-0.634760
H181	H	0.984775	-0.862762	-0.694039
H182	H	1.080895	-0.784285	-0.598008
H183	H	1.043318	-0.469111	-0.677766
