data_functionalizedCrystal
_audit_creation_method	'MofGen! by Chris Wilmer'
_symmetry_space_group_name_H-M	'P1'
_symmetry_Int_Tables_number	1
_symmetry_cell_setting	triclinic
loop_
_symmetry_equiv_pos_as_xyz
  x,y,z
_cell_length_a	12.759401
_cell_length_b	17.077402
_cell_length_c	17.077396
_cell_angle_alpha	90.028267
_cell_angle_beta	89.985850
_cell_angle_gamma	89.975506
loop_
_atom_site_label
_atom_site_type_symbol
_atom_site_fract_x
_atom_site_fract_y
_atom_site_fract_z
Zn1	Zn	1.606140	0.312498	-0.443784
Zn2	Zn	1.606018	0.443775	-0.312520
Zn3	Zn	1.430455	0.312528	-0.312539
Zn4	Zn	1.430401	0.443726	-0.443751
O5	O	1.518254	0.378132	-0.378148
O6	O	1.753145	0.329921	-0.426377
O7	O	1.582701	0.426397	-0.202676
O8	O	1.453834	0.202677	-0.329970
O9	O	1.753055	0.426369	-0.329938
O10	O	1.582909	0.202655	-0.426395
O11	O	1.453716	0.329971	-0.202689
O12	O	1.283427	0.329923	-0.329938
O13	O	1.453742	0.426286	-0.553602
O14	O	1.283387	0.426315	-0.426339
O15	O	1.582856	0.329873	-0.553626
O16	O	1.582648	0.553616	-0.329906
O17	O	1.453623	0.553580	-0.426321
C18	C	1.245286	0.378117	-0.378138
C19	C	1.128510	0.378130	-0.378152
C20	C	1.518145	0.582080	-0.378125
C21	C	1.518195	0.669330	-0.378142
C22	C	1.518306	0.378071	-0.582893
C23	C	1.518329	0.378045	-0.670142
C24	C	1.073654	0.428401	-0.428265
C25	C	0.963930	0.428411	-0.428273
C26	C	0.963926	0.327877	-0.328049
C27	C	1.073649	0.327863	-0.328045
C28	C	1.073656	0.486447	-0.486126
C29	C	0.963932	0.486457	-0.486134
C30	C	1.792287	0.378147	-0.378159
C31	C	1.909063	0.378153	-0.378164
C32	C	1.585446	0.710312	-0.327994
C33	C	1.585494	0.792293	-0.328018
C34	C	1.518286	0.833289	-0.378185
C35	C	1.451033	0.792300	-0.428338
C36	C	1.450990	0.710322	-0.428318
C37	C	1.451124	0.963170	-0.428375
C38	C	1.451165	1.045155	-0.428394
C39	C	1.585628	1.045142	-0.328074
C40	C	1.585586	0.963163	-0.328054
C41	C	1.518331	0.922180	-0.378207
C42	C	1.518382	1.173388	-0.378199
C43	C	1.518416	1.086138	-0.378247
C44	C	1.451187	0.327830	-0.711139
C45	C	1.451204	0.327812	-0.793120
C46	C	1.518369	0.378006	-0.834102
C47	C	1.585514	0.428227	-0.793100
C48	C	1.585491	0.428248	-0.711121
C49	C	1.585560	0.428178	-0.963970
C50	C	1.585585	0.428156	-1.045954
C51	C	1.451273	0.327742	-1.045969
C52	C	1.451249	0.327763	-0.963990
C53	C	1.518396	0.377983	-0.922993
C54	C	1.518261	0.378136	-0.174200
C55	C	1.518443	0.377941	-0.086951
H56	H	1.118308	0.286922	-0.287243
H57	H	1.396600	0.286849	-1.079352
Br58	Br	1.676682	0.496340	-0.908332
Br59	Br	1.359725	0.654701	-0.496383
Br60	Br	1.360036	0.259699	-0.655528
Br61	Br	1.359853	0.907551	-0.496443
Br62	Br	0.889466	0.259658	-0.260053
H63	H	0.929933	0.464762	-0.543929
H64	H	1.107659	0.544164	-0.464244
Br65	Br	0.914240	0.587747	-0.458793
Br66	Br	1.360105	0.259634	-0.908371
H67	H	1.640277	0.469029	-1.079320
Br68	Br	1.676659	0.496356	-0.848717
H69	H	1.640173	0.469133	-0.677742
H70	H	1.640170	0.676938	-0.287139
H71	H	1.640256	0.825657	-0.287182
H72	H	1.640306	0.929784	-0.287200
Br73	Br	1.123345	0.459438	-0.587499
Br74	Br	1.359938	1.100793	-0.496468
Br75	Br	1.676889	1.100760	-0.260000
H76	H	1.396315	0.825686	-0.469189
H77	H	1.396526	0.286924	-0.826496
