data_functionalizedCrystal
_audit_creation_method	'MofGen! by Chris Wilmer'
_symmetry_space_group_name_H-M	'P1'
_symmetry_Int_Tables_number	1
_symmetry_cell_setting	triclinic
loop_
_symmetry_equiv_pos_as_xyz
  x,y,z
_cell_length_a	21.395362
_cell_length_b	21.395364
_cell_length_c	21.395355
_cell_angle_alpha	89.974323
_cell_angle_beta	90.020549
_cell_angle_gamma	89.976177
loop_
_atom_site_label
_atom_site_type_symbol
_atom_site_fract_x
_atom_site_fract_y
_atom_site_fract_z
Zn1	Zn	-0.249611	-0.957863	0.354271
Zn2	Zn	0.250389	-0.457863	0.854271
Zn3	Zn	-0.354371	-0.957767	0.249490
Zn4	Zn	0.145629	-0.457767	0.749490
Zn5	Zn	-0.249600	-0.853078	0.249506
Zn6	Zn	0.250400	-0.353078	0.749506
Zn7	Zn	-0.354344	-0.853049	0.354228
Zn8	Zn	0.145656	-0.353049	0.854228
O9	O	-0.301981	-0.905439	0.301874
O10	O	0.198019	-0.405439	0.801874
O11	O	-0.263523	-1.045528	0.340383
O12	O	0.236477	-0.545528	0.840383
O13	O	-0.340479	-0.943852	0.161814
O14	O	0.159521	-0.443852	0.661814
O15	O	-0.161924	-0.867030	0.263428
O16	O	0.338076	-0.367030	0.763428
O17	O	-0.340490	-1.045458	0.263401
O18	O	0.159510	-0.545458	0.763401
O19	O	-0.161932	-0.944015	0.340399
O20	O	0.338068	-0.444015	0.840399
O21	O	-0.263505	-0.866937	0.161826
O22	O	0.236495	-0.366937	0.661826
O23	O	-0.263479	-0.765396	0.263386
O24	O	0.236521	-0.265396	0.763386
O25	O	-0.340444	-0.866981	0.441912
O26	O	0.159556	-0.366981	0.941912
O27	O	-0.340433	-0.765375	0.340325
O28	O	0.159567	-0.265375	0.840325
O29	O	-0.263497	-0.943987	0.441944
O30	O	0.236503	-0.443987	0.941944
O31	O	-0.442045	-0.943824	0.263359
O32	O	0.057955	-0.443824	0.763359
O33	O	-0.442025	-0.866888	0.340310
O34	O	0.057975	-0.366888	0.840310
C35	C	-0.301952	-0.742652	0.301853
C36	C	0.198048	-0.242652	0.801853
C37	C	-0.301955	-0.673010	0.301859
C38	C	0.198045	-0.173010	0.801859
C39	C	-0.464769	-0.905359	0.301842
C40	C	0.035231	-0.405359	0.801842
C41	C	-0.534410	-0.905382	0.301849
C42	C	-0.034410	-0.405382	0.801849
C43	C	-0.261977	-0.171250	0.342018
C44	C	0.238023	0.328750	0.842018
C45	C	-0.261975	-0.236686	0.342019
C46	C	0.238025	0.263314	0.842019
C47	C	-0.301981	-0.269372	0.301875
C48	C	0.198019	0.230628	0.801875
C49	C	-0.342005	-0.236618	0.261738
C50	C	0.157995	0.263382	0.761738
C51	C	-0.342011	-0.171184	0.261743
C52	C	0.157989	0.328816	0.761743
C53	C	-0.306836	-0.373009	0.245410
C54	C	0.193164	0.126991	0.745410
C55	C	-0.306826	-0.438442	0.245404
C56	C	0.193174	0.061558	0.745404
C57	C	-0.301966	-0.471193	0.301862
C58	C	0.198034	0.028807	0.801862
C59	C	-0.297104	-0.438503	0.358327
C60	C	0.202896	0.061497	0.858327
C61	C	-0.297110	-0.373069	0.358331
C62	C	0.202890	0.126931	0.858331
C63	C	-0.301980	-0.340324	0.301866
C64	C	0.198020	0.159676	0.801866
C65	C	-0.261945	-0.574892	0.342000
C66	C	0.238055	-0.074892	0.842000
C67	C	-0.261947	-0.640328	0.342003
C68	C	0.238053	-0.140328	0.842003
C69	C	-0.341974	-0.640259	0.261716
C70	C	0.158026	-0.140259	0.761716
C71	C	-0.341976	-0.574824	0.261720
C72	C	0.158024	-0.074824	0.761720
C73	C	-0.301958	-0.542144	0.301861
C74	C	0.198042	-0.042144	0.801861
C75	C	-0.567071	-0.945445	0.341956
C76	C	-0.067071	-0.445445	0.841956
C77	C	-0.632506	-0.945467	0.341971
C78	C	-0.132506	-0.445467	0.841971
C79	C	-0.665278	-0.905433	0.301868
C80	C	-0.165278	-0.405433	0.801868
C81	C	-0.632610	-0.865362	0.261758
C82	C	-0.132610	-0.365362	0.761758
C83	C	-0.567176	-0.865337	0.261749
C84	C	-0.067176	-0.365337	0.761749
C85	C	-0.768978	-0.900556	0.245430
C86	C	-0.268978	-0.400556	0.745430
C87	C	-0.834411	-0.900585	0.245438
C88	C	-0.334411	-0.400585	0.745438
C89	C	-0.867099	-0.905507	0.301899
C90	C	-0.367099	-0.405507	0.801899
C91	C	-0.834346	-0.910412	0.358352
C92	C	-0.334346	-0.410412	0.858352
C93	C	-0.768912	-0.910387	0.358343
C94	C	-0.268912	-0.410387	0.858343
C95	C	-0.736231	-0.905455	0.301875
C96	C	-0.236231	-0.405455	0.801875
C97	C	-0.970712	-0.945596	0.342026
C98	C	-0.470712	-0.445596	0.842026
C99	C	-1.036149	-0.945614	0.342042
C100	C	-0.536149	-0.445614	0.842042
C101	C	-1.036252	-0.865512	0.261824
C102	C	-0.536252	-0.365512	0.761824
C103	C	-0.970816	-0.865491	0.261813
C104	C	-0.470816	-0.365491	0.761813
C105	C	-0.938050	-0.905537	0.301913
C106	C	-0.438050	-0.405537	0.801913
C107	C	-0.138558	-0.905537	0.301920
C108	C	0.361442	-0.405537	0.801920
C109	C	-0.068917	-0.905578	0.301939
C110	C	0.431083	-0.405578	0.801939
C111	C	-0.301969	-0.905491	0.465297
C112	C	0.198031	-0.405491	0.965297
C113	C	-0.301963	-0.905513	0.534939
C114	C	0.198037	-0.405513	1.034939
C115	C	-0.302003	-0.068862	0.301890
C116	C	0.197997	0.431138	0.801890
C117	C	-0.301993	-0.138504	0.301884
C118	C	0.198007	0.361496	0.801884
C119	C	-0.301949	-0.905423	0.139086
C120	C	0.198051	-0.405423	0.639086
C121	C	-0.301778	-0.905523	0.069445
C122	C	0.198222	-0.405523	0.569445
C123	C	-0.261895	-0.945609	0.567669
C124	C	0.238105	-0.445609	1.067669
C125	C	-0.261868	-0.945608	0.633105
C126	C	0.238132	-0.445608	1.133105
C127	C	-0.301921	-0.905518	0.665807
C128	C	0.198079	-0.405518	1.165807
C129	C	-0.341991	-0.865415	0.633068
C130	C	0.158009	-0.365415	1.133068
C131	C	-0.342013	-0.865413	0.567634
C132	C	0.157987	-0.365413	1.067634
C133	C	-0.358335	-0.900543	0.769470
C134	C	0.141665	-0.400543	1.269470
C135	C	-0.358315	-0.900550	0.834903
C136	C	0.141685	-0.400550	1.334903
C137	C	-0.301854	-0.905522	0.867628
C138	C	0.198146	-0.405522	1.367628
C139	C	-0.245412	-0.910501	0.834911
C140	C	0.254588	-0.410501	1.334911
C141	C	-0.245434	-0.910498	0.769477
C142	C	0.254566	-0.410498	1.269477
C143	C	-0.301902	-0.905516	0.736759
C144	C	0.198098	-0.405516	1.236759
C145	C	-0.261754	-0.945619	0.971311
C146	C	0.238246	-0.445619	1.471311
C147	C	-0.261726	-0.945614	1.036748
C148	C	0.238274	-0.445614	1.536748
C149	C	-0.341854	-0.865424	1.036710
C150	C	0.158146	-0.365424	1.536710
C151	C	-0.341877	-0.865426	0.971275
C152	C	0.158123	-0.365426	1.471275
C153	C	-0.301827	-0.905527	0.938579
C154	C	0.198173	-0.405527	1.438579
H155	H	-0.229386	-0.263353	0.374700
H156	H	0.270614	0.236647	0.874700
O157	O	-0.218643	-0.988842	0.668426
O158	O	0.281357	-0.488842	1.168426
H159	H	-0.246680	-1.020696	0.698260
H160	H	0.253320	-0.520696	1.198260
H161	H	-0.199476	-0.914550	0.742842
H162	H	0.300524	-0.414550	1.242842
H163	H	-0.229283	-0.978262	0.541052
H164	H	0.270717	-0.478262	1.041052
H165	H	-0.540394	-0.978051	0.374610
H166	H	-0.040394	-0.478051	0.874610
O167	O	-0.184506	-0.915847	0.870195
O168	O	0.315494	-0.415847	1.370195
H169	H	-0.193969	-0.914999	0.921191
H170	H	0.306031	-0.414999	1.421191
O171	O	-0.218554	-0.988860	0.936039
O172	O	0.281446	-0.488860	1.436039
H173	H	-0.190679	-1.016734	0.969795
H174	H	0.309321	-0.516734	1.469795
O175	O	-1.071375	-0.988828	0.385306
O176	O	-0.571375	-0.488828	0.885306
H177	H	-1.101186	-0.960781	0.417168
H178	H	-0.601186	-0.460781	0.917168
O179	O	-0.869594	-0.915720	0.419255
O180	O	-0.369594	-0.415720	0.919255
H181	H	-0.857042	-0.875864	0.449979
H182	H	-0.357042	-0.375864	0.949979
O183	O	-0.869734	-0.895300	0.184552
O184	O	-0.369734	-0.395300	0.684552
H185	H	-0.899586	-0.852871	0.185514
H186	H	-0.399586	-0.352871	0.685514
O187	O	-0.935591	-0.822285	0.218543
O188	O	-0.435591	-0.322285	0.718543
H189	H	-0.905793	-0.790376	0.246548
H190	H	-0.405793	-0.290376	0.746548
H191	H	-0.229094	-0.978263	1.063396
H192	H	0.270906	-0.478263	1.563396
H193	H	-0.404301	-0.896327	0.742832
H194	H	0.095699	-0.396327	1.242832
H195	H	-0.374600	-0.832772	0.659699
H196	H	0.125400	-0.332772	1.159699
O197	O	-0.218821	-0.136001	0.385314
O198	O	0.281179	0.363999	0.885314
H199	H	-0.190997	-0.169770	0.413225
H200	H	0.309003	0.330230	0.913225
H201	H	-0.374640	-0.832759	0.540985
H202	H	0.125360	-0.332759	1.040985
O203	O	-0.385055	-0.822181	1.071971
O204	O	0.114945	-0.322181	1.571971
H205	H	-0.378311	-0.828920	1.122971
H206	H	0.121689	-0.328920	1.622971
O207	O	-0.385076	-0.822163	0.935966
O208	O	0.114924	-0.322163	1.435966
H209	H	-0.412918	-0.794280	0.969697
H210	H	0.087082	-0.294280	1.469697
O211	O	-0.385132	-0.539499	0.218427
O212	O	0.114868	-0.039499	0.718427
H213	H	-0.357044	-0.509677	0.186607
H214	H	0.142956	-0.009677	0.686607
O215	O	-0.291869	-0.337808	0.419226
O216	O	0.208131	0.162192	0.919226
H217	H	-0.288491	-0.371569	0.458487
H218	H	0.211509	0.128431	0.958487
O219	O	-0.291868	-0.473815	0.419228
O220	O	0.208132	0.026185	0.919228
H221	H	-0.292690	-0.524808	0.409743
H222	H	0.207310	-0.024808	0.909743
H223	H	-0.374580	-0.263235	0.229055
H224	H	0.125420	0.236765	0.729055
H225	H	-0.404274	-0.896500	0.861536
H226	H	0.095726	-0.396500	1.361536
H227	H	-0.229361	-0.548283	0.374686
H228	H	0.270639	-0.048283	0.874686
H229	H	-0.374554	-0.666872	0.229035
H230	H	0.125446	-0.166872	0.729035
O231	O	-0.218778	-0.675648	0.385289
O232	O	0.281222	-0.175648	0.885289
H233	H	-0.229583	-0.663105	0.434446
H234	H	0.270417	-0.163105	0.934446
O235	O	-0.312072	-0.473699	0.184508
O236	O	0.187928	0.026301	0.684508
H237	H	-0.315466	-0.439934	0.145251
H238	H	0.184534	0.060066	0.645251
O239	O	-0.312073	-0.337685	0.184513
O240	O	0.187927	0.162315	0.684513
H241	H	-0.315441	-0.371407	0.145249
H242	H	0.184559	0.128593	0.645249
H243	H	-0.742246	-0.914379	0.404308
H244	H	-0.242246	-0.414379	0.904308
O245	O	-0.385165	-0.135858	0.218447
O246	O	0.114835	0.364142	0.718447
H247	H	-0.412982	-0.169577	0.190528
H248	H	0.087018	0.330423	0.690528
O249	O	-1.071588	-0.822333	0.218564
O250	O	-0.571588	-0.322333	0.718564
H251	H	-1.122577	-0.829083	0.225305
H252	H	-0.622577	-0.329083	0.725305
H253	H	-0.944033	-0.978202	0.374680
H254	H	-0.444033	-0.478202	0.874680
O255	O	-0.667748	-0.988680	0.385229
O256	O	-0.167748	-0.488680	0.885229
H257	H	-0.655161	-1.037854	0.374520
H258	H	-0.155161	-0.537854	0.874520
O259	O	-0.733723	-0.895251	0.184529
O260	O	-0.233723	-0.395251	0.684529
H261	H	-0.767489	-0.891856	0.145276
H262	H	-0.267489	-0.391856	0.645276
H263	H	-0.659298	-0.832764	0.229108
H264	H	-0.159298	-0.332764	0.729108
H265	H	-0.540583	-0.832712	0.229088
H266	H	-0.040583	-0.332712	0.729088
