data_functionalizedCrystal
_audit_creation_method	'MofGen! by Chris Wilmer'
_symmetry_space_group_name_H-M	'P1'
_symmetry_Int_Tables_number	1
_symmetry_cell_setting	triclinic
loop_
_symmetry_equiv_pos_as_xyz
  x,y,z
_cell_length_a	17.077404
_cell_length_b	21.395362
_cell_length_c	17.077396
_cell_angle_alpha	89.967711
_cell_angle_beta	89.981638
_cell_angle_gamma	90.027761
loop_
_atom_site_label
_atom_site_type_symbol
_atom_site_fract_x
_atom_site_fract_y
_atom_site_fract_z
Zn1	Zn	1.200017	-0.249472	-0.443798
Zn2	Zn	1.700017	0.250528	0.056202
Zn3	Zn	1.199908	-0.354254	-0.312523
Zn4	Zn	1.699908	0.145746	0.187477
Zn5	Zn	1.068749	-0.249490	-0.312549
Zn6	Zn	1.568749	0.250510	0.187451
Zn7	Zn	1.068701	-0.354212	-0.443750
Zn8	Zn	1.568701	0.145788	0.056250
O9	O	1.134344	-0.301857	-0.378155
O10	O	1.634344	0.198143	0.121845
O11	O	1.309849	-0.263382	-0.426394
O12	O	1.809849	0.236618	0.073606
O13	O	1.182484	-0.340381	-0.202680
O14	O	1.682484	0.159619	0.297320
O15	O	1.086227	-0.161810	-0.329990
O16	O	1.586227	0.338190	0.170010
O17	O	1.309770	-0.340364	-0.329947
O18	O	1.809770	0.159636	0.170053
O19	O	1.182669	-0.161797	-0.426418
O20	O	1.682669	0.338203	0.073582
O21	O	1.086122	-0.263412	-0.202698
O22	O	1.586122	0.236588	0.297302
O23	O	0.958895	-0.263372	-0.329943
O24	O	1.458895	0.236628	0.170057
O25	O	1.086146	-0.340294	-0.553603
O26	O	1.586146	0.159706	-0.053603
O27	O	0.958860	-0.340311	-0.426336
O28	O	1.458860	0.159689	0.073664
O29	O	1.182623	-0.263342	-0.553639
O30	O	1.682623	0.236658	-0.053639
O31	O	1.182438	-0.441926	-0.329900
O32	O	1.682438	0.058074	0.170100
O33	O	1.086040	-0.441896	-0.426311
O34	O	1.586040	0.058104	0.073689
C35	C	0.930396	-0.301839	-0.378137
C36	C	1.430396	0.198161	0.121863
C37	C	0.843146	-0.301847	-0.378148
C38	C	1.343146	0.198153	0.121852
C39	C	1.134243	-0.464645	-0.378115
C40	C	1.634243	0.035355	0.121885
C41	C	1.134272	-0.534286	-0.378124
C42	C	1.634272	-0.034286	0.121876
C43	C	0.802198	-0.261834	-0.428445
C44	C	1.302198	0.238166	0.071555
C45	C	0.720218	-0.261838	-0.428449
C46	C	1.220218	0.238162	0.071551
C47	C	0.679187	-0.301859	-0.378159
C48	C	1.179187	0.198141	0.121841
C49	C	0.720140	-0.341874	-0.327857
C50	C	1.220140	0.158126	0.172143
C51	C	0.802119	-0.341866	-0.327850
C52	C	1.302119	0.158134	0.172150
C53	C	0.549270	-0.341888	-0.327876
C54	C	1.049270	0.158112	0.172124
C55	C	0.467286	-0.341897	-0.327884
C56	C	0.967286	0.158103	0.172116
C57	C	0.467369	-0.261859	-0.428475
C58	C	0.967369	0.238141	0.071525
C59	C	0.549348	-0.261852	-0.428468
C60	C	1.049348	0.238148	0.071532
C61	C	0.590296	-0.301868	-0.378167
C62	C	1.090296	0.198132	0.121833
C63	C	1.184461	-0.566936	-0.428370
C64	C	1.684461	-0.066936	0.071630
C65	C	1.184488	-0.632371	-0.428389
C66	C	1.684488	-0.132371	0.071611
C67	C	1.134336	-0.665154	-0.378148
C68	C	1.634336	-0.165154	0.121852
C69	C	1.084137	-0.632497	-0.327898
C70	C	1.584137	-0.132497	0.172102
C71	C	1.084106	-0.567063	-0.327886
C72	C	1.584106	-0.067063	0.172114
C73	C	1.128232	-0.768866	-0.307439
C74	C	1.628232	-0.268866	0.192561
C75	C	1.128269	-0.834299	-0.307450
C76	C	1.628269	-0.334299	0.192550
C77	C	1.134429	-0.866975	-0.378186
C78	C	1.634429	-0.366975	0.121814
C79	C	1.140568	-0.834210	-0.448913
C80	C	1.640568	-0.334210	0.051087
C81	C	1.140536	-0.768776	-0.448901
C82	C	1.640536	-0.268776	0.051099
C83	C	1.134364	-0.736107	-0.378156
C84	C	1.634364	-0.236107	0.121844
C85	C	1.184650	-0.970577	-0.428457
C86	C	1.684650	-0.470577	0.071543
C87	C	1.184672	-1.036014	-0.428477
C88	C	1.684672	-0.536014	0.071523
C89	C	1.084325	-1.036139	-0.327980
C90	C	1.584325	-0.536139	0.172020
C91	C	1.084299	-0.970703	-0.327967
C92	C	1.584299	-0.470703	0.172033
C93	C	1.134466	-0.937926	-0.378204
C94	C	1.634466	-0.437926	0.121796
C95	C	1.339088	-0.301876	-0.378173
C96	C	1.839088	0.198124	0.121827
C97	C	1.426338	-0.301883	-0.378181
C98	C	1.926338	0.198117	0.121819
C99	C	1.134391	-0.301811	-0.582899
C100	C	1.634391	0.198189	-0.082899
C101	C	1.134411	-0.301791	-0.670149
C102	C	1.634411	0.198209	-0.170149
C103	C	1.134466	-0.138434	-0.378212
C104	C	1.634466	0.361566	0.121788
C105	C	1.134518	-0.068793	-0.378237
C106	C	1.634518	0.431207	0.121763
C107	C	1.184649	-0.261719	-0.711159
C108	C	1.684649	0.238281	-0.211159
C109	C	1.184658	-0.261698	-0.793140
C110	C	1.684658	0.238302	-0.293140
C111	C	1.134434	-0.301753	-0.834109
C112	C	1.634434	0.198247	-0.334109
C113	C	1.084191	-0.341827	-0.793093
C114	C	1.584191	0.158173	-0.293093
C115	C	1.084178	-0.341845	-0.711114
C116	C	1.584178	0.158155	-0.211114
C117	C	1.084222	-0.341790	-0.963963
C118	C	1.584222	0.158210	-0.463963
C119	C	1.084236	-0.341773	-1.045948
C120	C	1.584236	0.158227	-0.545948
C121	C	1.184703	-0.261643	-1.045989
C122	C	1.684703	0.238357	-0.545989
C123	C	1.184690	-0.261661	-0.964010
C124	C	1.684690	0.238339	-0.464010
C125	C	1.134448	-0.301736	-0.923000
C126	C	1.634448	0.198264	-0.423000
C127	C	1.134342	-0.301858	-0.174207
C128	C	1.634342	0.198142	0.325793
C129	C	1.134473	-0.301701	-0.086958
C130	C	1.634473	0.198299	0.413042
H131	H	0.835600	-0.229245	-0.469399
H132	H	1.335600	0.270755	0.030601
H133	H	1.043337	-0.374388	-1.079302
H134	H	1.543337	0.125612	-0.579302
H135	H	1.043485	-1.062830	-0.287078
H136	H	1.543485	-0.562830	0.212922
H137	H	1.123212	-0.742267	-0.249833
H138	H	1.623212	-0.242267	0.250167
H139	H	0.582607	-0.374472	-0.286914
H140	H	1.082607	0.125528	0.213086
H141	H	1.043261	-0.374469	-0.677725
H142	H	1.543261	0.125531	-0.177725
H143	H	0.433880	-0.374486	-0.286934
H144	H	0.933880	0.125514	0.213066
H145	H	1.225550	-0.229104	-0.677808
H146	H	1.725550	0.270896	-0.177808
C147	C	1.239936	-0.217602	-0.918945
C148	C	1.739936	0.282398	-0.418945
H149	H	1.269855	-0.193728	-0.955109
H150	H	1.769855	0.306272	-0.455109
H151	H	1.274113	-0.241580	-0.886960
H152	H	1.774113	0.258420	-0.386960
H153	H	1.209917	-0.190305	-0.886972
H154	H	1.709917	0.309695	-0.386972
C155	C	0.675012	-0.385898	-0.272538
C156	C	1.175012	0.114102	0.227462
H157	H	0.711142	-0.409724	-0.242578
H158	H	1.211142	0.090276	0.257422
H159	H	0.643032	-0.413231	-0.302506
H160	H	1.143032	0.086769	0.197494
H161	H	0.643029	-0.361895	-0.238391
H162	H	1.143029	0.138105	0.261609
C163	C	1.239882	-1.071931	-0.483749
C164	C	1.739882	-0.571931	0.016251
H165	H	1.232712	-1.115596	-0.476568
H166	H	1.732712	-0.615596	0.023432
H167	H	1.292624	-1.061179	-0.472300
H168	H	1.792624	-0.561179	0.027700
H169	H	1.228360	-1.061184	-0.536482
H170	H	1.728360	-0.561184	-0.036482
H171	H	1.225611	-0.229012	-1.079383
H172	H	1.725611	0.270988	-0.579383
C173	C	0.422330	-0.217841	-0.483804
C174	C	0.922330	0.282159	0.016196
H175	H	0.367630	-0.223571	-0.476601
H176	H	0.867630	0.276429	0.023399
H177	H	0.435781	-0.227066	-0.536522
H178	H	0.935781	0.272934	-0.036522
H179	H	0.435782	-0.175728	-0.472410
H180	H	0.935782	0.324272	0.027590
H181	H	1.225496	-0.943889	-0.469366
H182	H	1.725496	-0.443889	0.030634
H183	H	1.043297	-0.374413	-0.930575
H184	H	1.543297	0.125587	-0.430575
C185	C	0.675178	-0.217824	-0.483776
C186	C	1.175178	0.282176	0.016224
H187	H	0.711356	-0.193994	-0.513732
H188	H	1.211356	0.306006	-0.013732
H189	H	0.643200	-0.190495	-0.453817
H190	H	1.143200	0.309505	0.046183
H191	H	0.643201	-0.241834	-0.517927
H192	H	1.143201	0.258166	-0.017927
H193	H	0.835458	-0.374449	-0.286893
H194	H	1.335458	0.125551	0.213107
C195	C	1.239641	-0.530884	-0.483629
C196	C	1.739641	-0.030884	0.016371
H197	H	1.269533	-0.559705	-0.513560
H198	H	1.769533	-0.059705	-0.013560
H199	H	1.273846	-0.505352	-0.453624
H200	H	1.773846	-0.005352	0.046376
H201	H	1.209582	-0.505360	-0.517807
H202	H	1.709582	-0.005360	-0.017807
H203	H	1.225351	-0.658959	-0.469314
H204	H	1.725351	-0.158959	0.030686
H205	H	1.145533	-0.742100	-0.506489
H206	H	1.645533	-0.242100	-0.006489
H207	H	1.145586	-0.860814	-0.506513
H208	H	1.645586	-0.360814	-0.006513
C209	C	1.028972	-0.668556	-0.272634
C210	C	1.528972	-0.168556	0.227366
H211	H	1.036184	-0.712203	-0.279831
H212	H	1.536184	-0.212203	0.220169
H213	H	0.976218	-0.657864	-0.284072
H214	H	1.476218	-0.157864	0.215928
H215	H	1.040490	-0.657853	-0.219898
H216	H	1.540490	-0.157853	0.280102
C217	C	1.028943	-0.385888	-0.838153
C218	C	1.528943	0.114112	-0.338153
H219	H	0.999016	-0.409752	-0.801985
H220	H	1.499016	0.090248	-0.301985
H221	H	1.058955	-0.413184	-0.870127
H222	H	1.558955	0.086816	-0.370127
H223	H	0.994761	-0.361907	-0.870136
H224	H	1.494761	0.138093	-0.370136
H225	H	1.043434	-0.944118	-0.287048
H226	H	1.543434	-0.444118	0.212952
H227	H	1.043235	-0.540479	-0.286969
H228	H	1.543235	-0.040479	0.213031
C229	C	1.121516	-0.870335	-0.229655
C230	C	1.621516	-0.370335	0.270345
H231	H	1.117828	-0.841504	-0.187527
H232	H	1.617828	-0.341504	0.312473
H233	H	1.166518	-0.895833	-0.222794
H234	H	1.666518	-0.395833	0.277206
H235	H	1.076021	-0.895891	-0.230645
H236	H	1.576021	-0.395891	0.269355
H237	H	1.225569	-0.229069	-0.826526
H238	H	1.725569	0.270931	-0.326526
H239	H	0.582753	-0.229267	-0.469423
H240	H	1.082753	0.270733	0.030577
