data_functionalizedCrystal
_audit_creation_method	'MofGen! by Chris Wilmer'
_symmetry_space_group_name_H-M	'P1'
_symmetry_Int_Tables_number	1
_symmetry_cell_setting	triclinic
loop_
_symmetry_equiv_pos_as_xyz
  x,y,z
_cell_length_a	17.077404
_cell_length_b	17.077402
_cell_length_c	17.077404
_cell_angle_alpha	90.011995
_cell_angle_beta	90.003452
_cell_angle_gamma	90.023108
loop_
_atom_site_label
_atom_site_type_symbol
_atom_site_fract_x
_atom_site_fract_y
_atom_site_fract_z
Zn1	Zn	1.199930	-0.312641	0.443835
Zn2	Zn	1.699930	0.187359	0.943835
Zn3	Zn	1.199874	-0.443875	0.312566
Zn4	Zn	1.699874	0.056125	0.812566
Zn5	Zn	1.068699	-0.312628	0.312583
Zn6	Zn	1.568699	0.187372	0.812583
Zn7	Zn	1.068630	-0.443870	0.443790
Zn8	Zn	1.568630	0.056130	0.943790
O9	O	1.134283	-0.378254	0.378194
O10	O	1.634283	0.121746	0.878194
O11	O	1.309770	-0.330058	0.426434
O12	O	1.809770	0.169942	0.926434
O13	O	1.182479	-0.426462	0.202722
O14	O	1.682479	0.073538	0.702722
O15	O	1.086159	-0.202783	0.330020
O16	O	1.586159	0.297217	0.830020
O17	O	1.309728	-0.426475	0.329991
O18	O	1.809728	0.073525	0.829991
O19	O	1.182574	-0.202793	0.426451
O20	O	1.682574	0.297207	0.926451
O21	O	1.086105	-0.330035	0.202734
O22	O	1.586105	0.169965	0.702734
O23	O	0.958843	-0.330030	0.329976
O24	O	1.458843	0.169970	0.829976
O25	O	1.086042	-0.426465	0.553643
O26	O	1.586042	0.073535	1.053643
O27	O	0.958792	-0.426452	0.426373
O28	O	1.458792	0.073548	0.926373
O29	O	1.182508	-0.330052	0.553676
O30	O	1.682508	0.169948	1.053676
O31	O	1.182412	-0.553722	0.329947
O32	O	1.682412	-0.053722	0.829947
O33	O	1.085988	-0.553717	0.426357
O34	O	1.585988	-0.053717	0.926357
C35	C	0.930335	-0.378239	0.378172
C36	C	1.430335	0.121761	0.878172
C37	C	0.843086	-0.378252	0.378181
C38	C	1.343086	0.121748	0.878181
C39	C	1.134208	-0.582201	0.378162
C40	C	1.634208	-0.082201	0.878162
C41	C	1.134247	-0.669451	0.378175
C42	C	1.634247	-0.169451	0.878175
C43	C	0.802090	-0.428535	0.428295
C44	C	1.302090	0.071465	0.928295
C45	C	0.720109	-0.428537	0.428307
C46	C	1.220109	0.071463	0.928307
C47	C	0.679126	-0.378259	0.378202
C48	C	1.179126	0.121741	0.878202
C49	C	0.720128	-0.327970	0.328086
C50	C	1.220128	0.172030	0.828086
C51	C	0.802107	-0.327965	0.328078
C52	C	1.302107	0.172035	0.828078
C53	C	0.549258	-0.327986	0.328105
C54	C	1.049258	0.172014	0.828105
C55	C	0.467273	-0.327992	0.328112
C56	C	0.967273	0.172008	0.828112
C57	C	0.467260	-0.428557	0.428334
C58	C	0.967260	0.071443	0.928334
C59	C	0.549239	-0.428552	0.428326
C60	C	1.049239	0.071448	0.928326
C61	C	0.590235	-0.378265	0.378209
C62	C	1.090235	0.121735	0.878209
C63	C	1.184506	-0.710418	0.328029
C64	C	1.684506	-0.210418	0.828029
C65	C	1.184545	-0.792398	0.328049
C66	C	1.684545	-0.292398	0.828049
C67	C	1.134319	-0.833411	0.378212
C68	C	1.634319	-0.333411	0.878212
C69	C	1.084058	-0.792439	0.428364
C70	C	1.584058	-0.292439	0.928364
C71	C	1.084024	-0.710460	0.428347
C72	C	1.584024	-0.210460	0.928347
C73	C	1.084130	-0.963309	0.428394
C74	C	1.584130	-0.463309	0.928394
C75	C	1.084163	-1.045293	0.428410
C76	C	1.584163	-0.545293	0.928410
C77	C	1.184651	-1.045247	0.328095
C78	C	1.684651	-0.545247	0.828095
C79	C	1.184618	-0.963268	0.328079
C80	C	1.684618	-0.463268	0.828079
C81	C	1.134355	-0.922302	0.378230
C82	C	1.634355	-0.422302	0.878230
C83	C	1.339028	-0.378268	0.378216
C84	C	1.839028	0.121732	0.878216
C85	C	1.426277	-0.378275	0.378225
C86	C	1.926277	0.121725	0.878225
C87	C	1.134273	-0.378259	0.582938
C88	C	1.634273	0.121741	1.082938
C89	C	1.134269	-0.378262	0.670188
C90	C	1.634269	0.121738	1.170188
C91	C	1.134381	-0.173509	0.378242
C92	C	1.634381	0.326491	0.878242
C93	C	1.134422	-0.086259	0.378263
C94	C	1.634422	0.413741	0.878263
C95	C	1.184506	-0.328062	1.046021
C96	C	1.684506	0.171938	1.546021
C97	C	1.184507	-0.328065	0.964040
C98	C	1.684507	0.171935	1.464040
C99	C	1.134280	-0.378260	0.923037
C100	C	1.634280	0.121740	1.423037
C101	C	1.084054	-0.428461	0.964018
C102	C	1.584054	0.071539	1.464018
C103	C	1.084057	-0.428460	1.045997
C104	C	1.584057	0.071540	1.545997
C105	C	1.084049	-0.428457	0.793148
C106	C	1.584049	0.071543	1.293148
C107	C	1.084045	-0.428456	0.711163
C108	C	1.584045	0.071544	1.211163
C109	C	1.184500	-0.328062	0.711191
C110	C	1.684500	0.171938	1.211191
C111	C	1.184503	-0.328061	0.793170
C112	C	1.684503	0.171939	1.293170
C113	C	1.134275	-0.378261	0.834146
C114	C	1.634275	0.121739	1.334146
C115	C	1.134285	-0.378264	1.174246
C116	C	1.634285	0.121736	1.674246
C117	C	1.134282	-0.378256	1.086996
C118	C	1.634282	0.121744	1.586996
H119	H	0.835452	-0.469480	0.469094
H120	H	1.335452	0.030520	0.969094
Br121	Br	1.015890	-0.496587	0.908371
Br122	Br	1.515890	0.003413	1.408371
Br123	Br	1.252666	-0.654765	0.259939
Br124	Br	1.752666	-0.154765	0.759939
Br125	Br	1.252674	-0.259943	0.908434
Br126	Br	1.752674	0.240057	1.408434
Br127	Br	1.252683	-0.259952	0.848818
Br128	Br	1.752683	0.240048	1.348818
H129	H	1.043203	-0.929956	0.469235
H130	H	1.543203	-0.429956	0.969235
Br131	Br	1.252762	-0.847992	0.259995
Br132	Br	1.752762	-0.347992	0.759995
H133	H	0.582605	-0.469497	0.469122
H134	H	1.082605	0.030503	0.969122
Br135	Br	1.252689	-0.259957	0.655583
Br136	Br	1.752689	0.240043	1.155583
Br137	Br	0.604895	-0.259736	0.260091
Br138	Br	1.104895	0.240264	0.760091
H139	H	0.433877	-0.469501	0.469143
H140	H	0.933877	0.030499	0.969143
Br141	Br	1.252780	-0.907608	0.259998
Br142	Br	1.752780	-0.407608	0.759998
Br143	Br	0.664509	-0.259728	0.260093
Br144	Br	1.164509	0.240272	0.760093
Br145	Br	1.015900	-0.848098	0.496450
Br146	Br	1.515900	-0.348098	0.996450
H147	H	0.835485	-0.287016	0.287275
H148	H	1.335485	0.212984	0.787275
H149	H	1.225580	-1.078606	0.287263
H150	H	1.725580	-0.578606	0.787263
H151	H	1.043279	-1.078683	0.469271
H152	H	1.543279	-0.578683	0.969271
H153	H	1.043098	-0.677106	0.469183
H154	H	1.543098	-0.177106	0.969183
Br155	Br	1.252665	-0.259925	1.101661
Br156	Br	1.752665	0.240075	1.601661
H157	H	1.043127	-0.469312	0.677780
H158	H	1.543127	0.030688	1.177780
Br159	Br	0.411653	-0.259763	0.260105
Br160	Br	0.911653	0.240237	0.760105
Br161	Br	1.015884	-0.496586	0.848757
Br162	Br	1.515884	0.003414	1.348757
H163	H	0.686734	-0.469483	0.469114
H164	H	1.186734	0.030517	0.969114
Br165	Br	1.015897	-0.496588	1.101607
Br166	Br	1.515897	0.003412	1.601607
