data_functionalizedCrystal
_audit_creation_method	'MofGen! by Chris Wilmer'
_symmetry_space_group_name_H-M	'P1'
_symmetry_Int_Tables_number	1
_symmetry_cell_setting	triclinic
loop_
_symmetry_equiv_pos_as_xyz
  x,y,z
_cell_length_a	12.759401
_cell_length_b	21.395361
_cell_length_c	21.395355
_cell_angle_alpha	90.021511
_cell_angle_beta	89.975978
_cell_angle_gamma	89.967559
loop_
_atom_site_label
_atom_site_type_symbol
_atom_site_fract_x
_atom_site_fract_y
_atom_site_fract_z
Zn1	Zn	1.606168	0.249482	-0.354240
Zn2	Zn	1.606005	0.354242	-0.249457
Zn3	Zn	1.430461	0.249485	-0.249477
Zn4	Zn	1.430410	0.354229	-0.354198
O5	O	1.518261	0.301860	-0.301843
O6	O	1.753167	0.263383	-0.340349
O7	O	1.582672	0.340353	-0.161781
O8	O	1.453859	0.161807	-0.263400
O9	O	1.753047	0.340349	-0.263365
O10	O	1.582950	0.161805	-0.340369
O11	O	1.453701	0.263388	-0.161797
O12	O	1.283433	0.263376	-0.263360
O13	O	1.453771	0.340327	-0.441881
O14	O	1.283395	0.340330	-0.340297
O15	O	1.582900	0.263370	-0.441912
O16	O	1.582622	0.441918	-0.263325
O17	O	1.453613	0.441909	-0.340277
C18	C	1.518122	0.464647	-0.301808
C19	C	1.518159	0.534289	-0.301814
C20	C	1.245294	0.301853	-0.301827
C21	C	1.128517	0.301865	-0.301835
C22	C	1.518348	0.301847	-0.465266
C23	C	1.518385	0.301842	-0.534907
C24	C	0.963938	0.341995	-0.341854
C25	C	1.073662	0.341994	-0.341837
C26	C	1.073642	0.261738	-0.261842
C27	C	0.963920	0.261743	-0.261857
C28	C	0.963950	0.388329	-0.388041
C29	C	1.073674	0.388328	-0.388024
C30	C	1.792294	0.301867	-0.301859
C31	C	1.909071	0.301870	-0.301866
C32	C	1.518429	0.138436	-0.301891
C33	C	1.518500	0.068795	-0.301912
C34	C	1.585393	0.566986	-0.261786
C35	C	1.585442	0.632421	-0.261800
C36	C	1.518238	0.665157	-0.301835
C37	C	1.450999	0.632452	-0.341872
C38	C	1.450959	0.567018	-0.341861
C39	C	1.423640	0.768874	-0.306746
C40	C	1.423678	0.834307	-0.306752
C41	C	1.518360	0.866978	-0.301872
C42	C	1.613008	0.834207	-0.296973
C43	C	1.612969	0.768773	-0.296962
C44	C	1.518274	0.736109	-0.301852
C45	C	1.585653	0.970627	-0.261857
C46	C	1.585704	1.036064	-0.261875
C47	C	1.451251	1.036093	-0.341944
C48	C	1.451210	0.970658	-0.341929
C49	C	1.518410	0.937929	-0.301882
C50	C	1.585620	0.261768	-0.567637
C51	C	1.585618	0.261741	-0.633073
C52	C	1.518394	0.301799	-0.665776
C53	C	1.451146	0.341875	-0.633038
C54	C	1.451142	0.341896	-0.567604
C55	C	1.510050	0.358214	-0.769438
C56	C	1.510061	0.358194	-0.834871
C57	C	1.518400	0.301733	-0.867597
C58	C	1.526749	0.245290	-0.834881
C59	C	1.526745	0.245311	-0.769447
C60	C	1.518390	0.301780	-0.736728
C61	C	1.585637	0.261627	-0.971279
C62	C	1.585628	0.261599	-1.036716
C63	C	1.451161	0.341738	-1.036680
C64	C	1.451164	0.341760	-0.971244
C65	C	1.518408	0.301706	-0.938548
C66	C	1.518235	0.301827	-0.139055
C67	C	1.518401	0.301656	-0.069414
H68	H	0.919252	0.229076	-0.229287
C69	C	1.319564	0.870347	-0.312140
N70	N	1.241142	0.897492	-0.316199
C71	C	1.119575	0.450567	-0.364424
N72	N	1.154148	0.497444	-0.346648
C73	C	1.659596	0.217561	-0.935311
N74	N	1.715301	0.184369	-0.908222
C75	C	1.113995	0.370841	-0.453599
N76	N	1.144364	0.357662	-0.502987
H77	H	0.929981	0.371016	-0.434172
C78	C	1.659403	0.668395	-0.217760
N79	N	1.715108	0.695489	-0.184588
C80	C	1.659304	0.530988	-0.217726
N81	N	1.714970	0.503873	-0.184537
H82	H	1.396208	0.540395	-0.374457
C83	C	1.659593	0.217511	-1.072719
N84	N	1.715307	0.184305	-1.099837
C85	C	1.717079	0.732729	-0.291572
N86	N	1.795496	0.705580	-0.287514
C87	C	1.717169	0.870140	-0.291609
N88	N	1.795619	0.897208	-0.287570
C89	C	1.377204	0.385847	-0.935240
N90	N	1.321491	0.419054	-0.908121
H91	H	1.396457	0.944034	-0.374521
H92	H	1.640375	0.943978	-0.229250
C93	C	1.659671	1.072031	-0.217838
N94	N	1.715381	1.099122	-0.184667
C95	C	1.377327	1.072099	-0.385985
N96	N	1.321647	1.099221	-0.419159
H97	H	1.533541	0.199314	-0.861524
H98	H	1.346532	0.742279	-0.310722
H99	H	0.934120	0.436838	-0.374961
C100	C	1.133987	0.217594	-0.217840
N101	N	1.179437	0.184341	-0.184698
H102	H	1.396414	0.374347	-1.063306
C103	C	1.377070	0.668462	-0.385909
N104	N	1.321386	0.695585	-0.419080
H105	H	1.640374	0.229152	-0.541020
H106	H	1.533541	0.199354	-0.742812
C107	C	1.659591	0.217660	-0.669083
N108	N	1.715310	0.184459	-0.696205
H109	H	1.503269	0.404153	-0.861504
H110	H	1.502978	0.404180	-0.742799
H111	H	1.396408	0.374488	-0.659669
H112	H	1.396386	0.374528	-0.540955
