data_functionalizedCrystal
_audit_creation_method	'MofGen! by Chris Wilmer'
_symmetry_space_group_name_H-M	'P1'
_symmetry_Int_Tables_number	1
_symmetry_cell_setting	triclinic
loop_
_symmetry_equiv_pos_as_xyz
  x,y,z
_cell_length_a	12.759401
_cell_length_b	12.759400
_cell_length_c	12.759386
_cell_angle_alpha	90.062338
_cell_angle_beta	89.954706
_cell_angle_gamma	89.985368
loop_
_atom_site_label
_atom_site_type_symbol
_atom_site_fract_x
_atom_site_fract_y
_atom_site_fract_z
Zn1	Zn	1.606506	0.417887	-0.594058
Zn2	Zn	1.606326	0.593700	-0.418377
Zn3	Zn	1.430734	0.418035	-0.418389
Zn4	Zn	1.430796	0.593524	-0.594011
O5	O	1.518590	0.505786	-0.506209
O6	O	1.753503	0.441220	-0.570768
O7	O	1.582932	0.570533	-0.271358
O8	O	1.454099	0.270995	-0.441716
O9	O	1.753371	0.570389	-0.441697
O10	O	1.583238	0.270885	-0.570779
O11	O	1.453925	0.441473	-0.271366
O12	O	1.283721	0.441303	-0.441670
O13	O	1.454206	0.570089	-0.741038
O14	O	1.283767	0.570234	-0.570699
O15	O	1.583299	0.441049	-0.741073
O16	O	1.582993	0.740698	-0.441652
O17	O	1.454032	0.740568	-0.570689
C18	C	1.518528	0.778754	-0.506187
C19	C	1.518597	0.895530	-0.506212
C20	C	1.245623	0.505766	-0.506182
C21	C	1.128846	0.505783	-0.506195
C22	C	1.518779	0.505533	-0.780242
C23	C	1.518860	0.505425	-0.897019
C24	C	0.964182	0.572957	-0.438933
C25	C	1.073906	0.572938	-0.438904
C26	C	1.074057	0.438635	-0.573513
C27	C	0.964335	0.438650	-0.573536
C28	C	0.964095	0.650499	-0.361221
C29	C	1.073819	0.650480	-0.361191
C30	C	1.792624	0.505808	-0.506236
C31	C	1.909400	0.505817	-0.506248
C32	C	1.518682	0.231753	-0.506254
C33	C	1.518720	0.114976	-0.506273
C34	C	1.585822	0.950425	-0.439097
C35	C	1.585886	1.060149	-0.439130
C36	C	1.451493	1.060074	-0.573396
C37	C	1.451434	0.950352	-0.573368
C38	C	1.663410	0.950469	-0.361576
C39	C	1.663474	1.060193	-0.361609
C40	C	1.518463	0.505963	-0.233241
C41	C	1.518586	0.505775	-0.116465
C42	C	1.585515	0.437846	0.047806
C43	C	1.585376	0.438017	-0.061918
C44	C	1.451923	0.573358	-0.061282
C45	C	1.452058	0.573180	0.048440
C46	C	1.662566	0.359711	0.047438
C47	C	1.662427	0.359883	-0.062286
H48	H	0.919736	0.383969	-0.628343
N49	N	1.765882	1.105164	-0.400288
H50	H	1.798246	1.149779	-0.343456
H51	H	1.752590	1.149607	-0.464368
H52	H	1.744762	0.920599	-0.383432
N53	N	1.133309	0.366209	-0.646100
H54	H	1.211130	0.376389	-0.635875
H55	H	1.114197	0.382626	-0.721105
N56	N	1.624803	0.905543	-0.259148
H57	H	1.560710	0.861012	-0.272311
H58	H	1.606250	0.964597	-0.209730
H59	H	1.641703	1.090099	-0.280227
H60	H	1.397777	0.628206	0.093359
N61	N	1.379043	1.119200	-0.645815
H62	H	1.395341	1.099989	-0.720891
H63	H	1.389311	1.197020	-0.635563
N64	N	1.113290	0.758271	-0.389866
H65	H	1.087008	0.777679	-0.461925
H66	H	1.192444	0.758224	-0.389789
H67	H	0.934240	0.628662	-0.279894
N68	N	1.770353	0.388057	-0.101873
H69	H	1.766079	0.453804	-0.145674
H70	H	1.798618	0.328679	-0.146022
N71	N	1.623087	0.257840	-0.107568
H72	H	1.624426	0.261693	-0.186617
H73	H	1.548949	0.245004	-0.082956
N74	N	1.379861	0.646419	-0.120108
H75	H	1.389883	0.636272	-0.197990
H76	H	1.396742	0.721309	-0.100771
H77	H	1.640250	0.278450	0.077039
H78	H	1.740099	0.388251	0.081391
N79	N	0.919026	0.752909	-0.399651
H80	H	0.943521	0.766324	-0.473722
H81	H	0.943410	0.811771	-0.352645
N82	N	1.118810	0.611794	-0.258869
H83	H	1.059846	0.593121	-0.209448
H84	H	1.163353	0.668653	-0.226483
H85	H	1.396705	0.905658	-0.628028
