data_functionalizedCrystal
_audit_creation_method	'MofGen! by Chris Wilmer'
_symmetry_space_group_name_H-M	'P1'
_symmetry_Int_Tables_number	1
_symmetry_cell_setting	triclinic
loop_
_symmetry_equiv_pos_as_xyz
  x,y,z
_cell_length_a	12.759400
_cell_length_b	21.395362
_cell_length_c	12.759386
_cell_angle_alpha	90.062959
_cell_angle_beta	89.936066
_cell_angle_gamma	89.969436
loop_
_atom_site_label
_atom_site_type_symbol
_atom_site_fract_x
_atom_site_fract_y
_atom_site_fract_z
Zn1	Zn	-0.417423	-0.958047	-0.594615
Zn2	Zn	0.082577	-0.458047	-0.094615
Zn3	Zn	-0.593241	-0.957944	-0.418935
Zn4	Zn	-0.093241	-0.457944	0.081065
Zn5	Zn	-0.417625	-0.853227	-0.418885
Zn6	Zn	0.082375	-0.353227	0.081115
Zn7	Zn	-0.593109	-0.853260	-0.594508
Zn8	Zn	-0.093109	-0.353260	-0.094508
O9	O	-0.505350	-0.905620	-0.506736
O10	O	-0.005350	-0.405620	-0.006736
O11	O	-0.440716	-1.045711	-0.571377
O12	O	0.059284	-0.545711	-0.071377
O13	O	-0.570085	-0.943996	-0.271907
O14	O	-0.070085	-0.443996	0.228093
O15	O	-0.270577	-0.867161	-0.442220
O16	O	0.229423	-0.367161	0.057780
O17	O	-0.569889	-1.045636	-0.442306
O18	O	-0.069889	-0.545636	0.057694
O19	O	-0.270429	-0.944172	-0.571329
O20	O	0.229571	-0.444172	-0.071329
O21	O	-0.441061	-0.867061	-0.271871
O22	O	0.058939	-0.367061	0.228129
O23	O	-0.440933	-0.765554	-0.442116
O24	O	0.059067	-0.265554	0.057884
O25	O	-0.569664	-0.867218	-0.741543
O26	O	-0.069664	-0.367218	-0.241543
O27	O	-0.569860	-0.765578	-0.571145
O28	O	-0.069860	-0.265578	-0.071145
O29	O	-0.440588	-0.944204	-0.741622
O30	O	0.059412	-0.444204	-0.241622
O31	O	-0.740245	-0.944028	-0.442201
O32	O	-0.240245	-0.444028	0.057799
O33	O	-0.740148	-0.867118	-0.571193
O34	O	-0.240148	-0.367118	-0.071193
C35	C	-0.505405	-0.742832	-0.506614
C36	C	-0.005405	-0.242832	-0.006614
C37	C	-0.505454	-0.673191	-0.506587
C38	C	-0.005454	-0.173191	-0.006587
C39	C	-0.778317	-0.905583	-0.506714
C40	C	-0.278317	-0.405583	-0.006714
C41	C	-0.895094	-0.905624	-0.506740
C42	C	-0.395094	-0.405624	-0.006740
C43	C	-0.505089	-0.905726	-0.780770
C44	C	-0.005089	-0.405726	-0.280770
C45	C	-0.504977	-0.905771	-0.897547
C46	C	-0.004977	-0.405771	-0.397547
C47	C	-0.949971	-0.945716	-0.439648
C48	C	-0.449971	-0.445716	0.060352
C49	C	-1.059695	-0.945754	-0.439680
C50	C	-0.559695	-0.445754	0.060320
C51	C	-1.059654	-0.865604	-0.573900
C52	C	-0.559654	-0.365604	-0.073900
C53	C	-0.949932	-0.865569	-0.573872
C54	C	-0.449932	-0.365569	-0.073872
C55	C	-0.949995	-0.991988	-0.362154
C56	C	-0.449995	-0.491988	0.137846
C57	C	-1.059719	-0.992027	-0.362186
C58	C	-0.559719	-0.492027	0.137814
C59	C	-0.231316	-0.905674	-0.506781
C60	C	0.268684	-0.405674	-0.006781
C61	C	-0.114539	-0.905697	-0.506800
C62	C	0.385461	-0.405697	-0.006800
C63	C	-0.505294	-1.069043	-0.506859
C64	C	-0.005294	-0.569043	-0.006859
C65	C	-0.505271	-1.138684	-0.506911
C66	C	-0.005271	-0.638684	-0.006911
C67	C	-0.572676	-0.640507	-0.573672
C68	C	-0.072676	-0.140507	-0.073672
C69	C	-0.572650	-0.575071	-0.573718
C70	C	-0.072650	-0.075071	-0.073718
C71	C	-0.505414	-0.542322	-0.506662
C72	C	-0.005414	-0.042322	-0.006662
C73	C	-0.438179	-0.575014	-0.439572
C74	C	0.061821	-0.075014	0.060428
C75	C	-0.438199	-0.640448	-0.439535
C76	C	0.061801	-0.140448	0.060465
C77	C	-0.497033	-0.438578	-0.412079
C78	C	0.002967	0.061422	0.087921
C79	C	-0.497020	-0.373145	-0.412114
C80	C	0.002980	0.126855	0.087886
C81	C	-0.505345	-0.340502	-0.506778
C82	C	-0.005345	0.159498	-0.006778
C83	C	-0.513705	-0.373300	-0.601408
C84	C	-0.013705	0.126700	-0.101408
C85	C	-0.513726	-0.438734	-0.601371
C86	C	-0.013726	0.061266	-0.101371
C87	C	-0.505384	-0.471370	-0.506695
C88	C	-0.005384	0.028630	-0.006695
C89	C	-0.572542	-0.236865	-0.573919
C90	C	-0.072542	0.263135	-0.073919
C91	C	-0.572509	-0.171429	-0.573967
C92	C	-0.072509	0.328571	-0.073967
C93	C	-0.438044	-0.171373	-0.439812
C94	C	0.061956	0.328627	0.060188
C95	C	-0.438071	-0.236808	-0.439773
C96	C	0.061929	0.263192	0.060227
C97	C	-0.505326	-0.269551	-0.506825
C98	C	-0.005326	0.230449	-0.006825
C99	C	-0.505534	-0.905550	-0.233768
C100	C	-0.005534	-0.405550	0.266232
C101	C	-0.505349	-0.905626	-0.116992
C102	C	-0.005349	-0.405626	0.383008
C103	C	-0.571938	-0.946010	-0.062097
C104	C	-0.071938	-0.446010	0.437903
C105	C	-0.571755	-0.946081	0.047627
C106	C	-0.071755	-0.446081	0.547627
C107	C	-0.438385	-0.865383	0.047550
C108	C	0.061615	-0.365383	0.547550
C109	C	-0.438574	-0.865309	-0.062171
C110	C	0.061426	-0.365309	0.437829
C111	C	-0.648935	-0.992602	-0.062052
C112	C	-0.148935	-0.492602	0.437948
C113	C	-0.648752	-0.992673	0.047672
C114	C	-0.148752	-0.492673	0.547672
H115	H	-0.905252	-0.832929	-0.628513
H116	H	-0.405252	-0.332929	-0.128513
H117	H	-0.619269	-1.038552	-0.096340
H118	H	-0.119269	-0.538552	0.403660
H119	H	-0.520530	-0.465436	-0.678422
H120	H	-0.020530	0.034564	-0.178422
H121	H	-0.627300	-0.263525	-0.628522
H122	H	-0.127300	0.236475	-0.128522
H123	H	-0.384020	-0.832558	0.092199
H124	H	0.115980	-0.332558	0.592199
H125	H	-0.383294	-0.144709	-0.385218
H126	H	0.116706	0.355291	0.114782
H127	H	-0.726217	-0.975651	0.081985
H128	H	-0.226217	-0.475651	0.581985
H129	H	-0.627438	-0.667161	-0.628272
H130	H	-0.127438	-0.167161	-0.128272
H131	H	-0.627247	-0.144819	-0.628603
H132	H	-0.127247	0.355181	-0.128603
H133	H	-0.384362	-0.832418	-0.106863
H134	H	0.115638	-0.332418	0.393137
H135	H	-0.626292	-1.041127	0.077207
H136	H	-0.126292	-0.541127	0.577207
H137	H	-1.089634	-0.979045	-0.280797
H138	H	-0.589634	-0.479045	0.219203
H139	H	-0.730518	-0.979925	-0.091549
H140	H	-0.230518	-0.479925	0.408451
H141	H	-0.627389	-0.548455	-0.628351
H142	H	-0.127389	-0.048455	-0.128351
H143	H	-1.104317	-0.832993	-0.628557
H144	H	-0.604317	-0.332993	-0.128557
H145	H	-0.920103	-1.040503	-0.384037
H146	H	-0.420103	-0.540503	0.115963
H147	H	-0.520483	-0.346724	-0.678492
H148	H	-0.020483	0.153276	-0.178492
H149	H	-0.383338	-0.263420	-0.385140
H150	H	0.116662	0.236580	0.114860
H151	H	-0.490219	-0.346445	-0.335060
H152	H	0.009781	0.153555	0.164940
H153	H	-1.093626	-1.038134	-0.391429
H154	H	-0.593626	-0.538134	0.108571
H155	H	-0.916100	-0.974601	-0.284816
H156	H	-0.416100	-0.474601	0.215184
H157	H	-0.383433	-0.548346	-0.384976
H158	H	0.116567	-0.048346	0.115024
H159	H	-0.490249	-0.465150	-0.334987
H160	H	0.009751	0.034850	0.165013
H161	H	-0.383456	-0.667059	-0.384906
H162	H	0.116544	-0.167059	0.115094
