data_functionalizedCrystal
_audit_creation_method	'MofGen! by Chris Wilmer'
_symmetry_space_group_name_H-M	'P1'
_symmetry_Int_Tables_number	1
_symmetry_cell_setting	triclinic
loop_
_symmetry_equiv_pos_as_xyz
  x,y,z
_cell_length_a	11.169417
_cell_length_b	11.169416
_cell_length_c	12.759393
_cell_angle_alpha	89.972430
_cell_angle_beta	89.980914
_cell_angle_gamma	90.011589
loop_
_atom_site_label
_atom_site_type_symbol
_atom_site_fract_x
_atom_site_fract_y
_atom_site_fract_z
Zn1	Zn	1.834957	-0.477709	-0.593990
Zn2	Zn	2.334957	0.022291	-0.093990
Zn3	Zn	1.834848	-0.678438	-0.418319
Zn4	Zn	2.334848	-0.178438	0.081681
Zn5	Zn	1.634245	-0.477772	-0.418330
Zn6	Zn	2.134245	0.022228	0.081670
Zn7	Zn	1.634251	-0.678353	-0.593962
Zn8	Zn	2.134251	-0.178353	-0.093962
O9	O	1.734575	-0.578068	-0.506150
O10	O	2.234575	-0.078068	-0.006150
O11	O	2.002892	-0.504345	-0.570693
O12	O	2.502892	-0.004345	-0.070693
O13	O	1.808189	-0.651881	-0.271299
O14	O	2.308189	-0.151881	0.228701
O15	O	1.660913	-0.309814	-0.441649
O16	O	2.160913	0.190186	0.058351
O17	O	2.002812	-0.651820	-0.441629
O18	O	2.502812	-0.151820	0.058371
O19	O	1.808375	-0.309768	-0.570705
O20	O	2.308375	0.190232	-0.070705
O21	O	1.660807	-0.504453	-0.271308
O22	O	2.160807	-0.004453	0.228692
O23	O	1.466296	-0.504370	-0.441621
O24	O	1.966296	-0.004370	0.058379
O25	O	1.660923	-0.651676	-0.740986
O26	O	2.160923	-0.151676	-0.240986
O27	O	1.466300	-0.651736	-0.570657
O28	O	1.966300	-0.151736	-0.070657
O29	O	1.808381	-0.504263	-0.741007
O30	O	2.308381	-0.004263	-0.241007
O31	O	1.808195	-0.846376	-0.441601
O32	O	2.308195	-0.346376	0.058399
O33	O	1.660817	-0.846314	-0.570645
O34	O	2.160817	-0.346314	-0.070645
C35	C	1.422750	-0.578052	-0.506138
C36	C	1.922750	-0.078052	-0.006138
C37	C	1.289350	-0.578074	-0.506158
C38	C	1.789350	-0.078074	-0.006158
C39	C	1.734528	-0.889893	-0.506142
C40	C	2.234528	-0.389893	-0.006142
C41	C	1.734617	-1.023293	-0.506174
C42	C	2.234617	-0.523293	-0.006174
C43	C	2.047617	-0.578085	-0.506163
C44	C	2.547617	-0.078085	-0.006163
C45	C	2.181017	-0.578092	-0.506168
C46	C	2.681017	-0.078092	-0.006168
C47	C	1.734665	-0.577953	-0.780183
C48	C	2.234665	-0.077953	-0.280183
C49	C	1.734703	-0.577904	-0.896960
C50	C	2.234703	-0.077904	-0.396960
C51	C	1.734656	-0.265026	-0.506181
C52	C	2.234656	0.234974	-0.006181
C53	C	1.734690	-0.131626	-0.506194
C54	C	2.234690	0.368374	-0.006194
C55	C	1.811490	-0.501134	-0.951835
C56	C	2.311490	-0.001134	-0.451835
C57	C	1.811511	-0.501082	-1.061559
C58	C	2.311511	-0.001082	-0.561559
C59	C	1.657953	-0.654581	-1.061524
C60	C	2.157953	-0.154581	-0.561524
C61	C	1.657928	-0.654625	-0.951802
C62	C	2.157928	-0.154625	-0.451802
C63	C	1.734555	-0.578096	-0.233183
C64	C	2.234555	-0.078096	0.266817
C65	C	1.734749	-0.577807	-0.116407
C66	C	2.234749	-0.077807	0.383593
H67	H	1.874003	-0.438659	-0.907185
H68	H	2.374003	0.061341	-0.407185
F69	F	1.893246	-0.419381	-1.119955
F70	F	2.393246	0.080619	-0.619955
H71	H	1.595390	-0.717140	-0.907122
H72	H	2.095390	-0.217140	-0.407122
F73	F	1.576252	-0.736233	-1.119900
F74	F	2.076252	-0.236233	-0.619900
