data_functionalizedCrystal
_audit_creation_method	'MofGen! by Chris Wilmer'
_symmetry_space_group_name_H-M	'P1'
_symmetry_Int_Tables_number	1
_symmetry_cell_setting	triclinic
loop_
_symmetry_equiv_pos_as_xyz
  x,y,z
_cell_length_a	17.077402
_cell_length_b	17.077404
_cell_length_c	17.077396
_cell_angle_alpha	89.976781
_cell_angle_beta	90.029038
_cell_angle_gamma	89.978358
loop_
_atom_site_label
_atom_site_type_symbol
_atom_site_fract_x
_atom_site_fract_y
_atom_site_fract_z
Zn1	Zn	-0.312583	-1.200042	0.443918
Zn2	Zn	0.187417	-0.700042	0.943918
Zn3	Zn	-0.443858	-1.199944	0.312650
Zn4	Zn	0.056142	-0.699944	0.812650
Zn5	Zn	-0.312602	-1.068774	0.312657
Zn6	Zn	0.187398	-0.568774	0.812657
Zn7	Zn	-0.443803	-1.068736	0.443865
Zn8	Zn	0.056197	-0.568736	0.943865
O9	O	-0.378212	-1.134374	0.378272
O10	O	0.121788	-0.634374	0.878272
O11	O	-0.330012	-1.309876	0.426524
O12	O	0.169988	-0.809876	0.926524
O13	O	-0.426478	-1.182518	0.202804
O14	O	0.073522	-0.682518	0.702804
O15	O	-0.202753	-1.086243	0.330094
O16	O	0.297247	-0.586243	0.830094
O17	O	-0.426459	-1.309804	0.330082
O18	O	0.073541	-0.809804	0.830082
O19	O	-0.202739	-1.182686	0.426530
O20	O	0.297261	-0.682686	0.926530
O21	O	-0.330044	-1.086148	0.202809
O22	O	0.169956	-0.586148	0.702809
O23	O	-0.329991	-0.958922	0.330043
O24	O	0.170009	-0.458922	0.830043
O25	O	-0.426365	-1.086180	0.553719
O26	O	0.073635	-0.586180	1.053719
O27	O	-0.426383	-0.958894	0.426441
O28	O	0.073617	-0.458894	0.926441
O29	O	-0.329959	-1.182649	0.553758
O30	O	0.170041	-0.682649	1.053758
O31	O	-0.553698	-1.182482	0.330032
O32	O	-0.053698	-0.682482	0.830032
O33	O	-0.553657	-1.086084	0.426435
O34	O	-0.053657	-0.586084	0.926435
C35	C	-0.378184	-0.930426	0.378238
C36	C	0.121816	-0.430426	0.878238
C37	C	-0.378191	-0.843176	0.378241
C38	C	0.121809	-0.343176	0.878241
C39	C	-0.328082	-0.467396	0.428578
C40	C	0.171918	0.032604	0.928578
C41	C	-0.328079	-0.549377	0.428572
C42	C	0.171921	-0.049377	0.928572
C43	C	-0.378211	-0.590327	0.378275
C44	C	0.121789	-0.090327	0.878275
C45	C	-0.428354	-0.549293	0.327988
C46	C	0.071646	-0.049293	0.827988
C47	C	-0.428361	-0.467314	0.327998
C48	C	0.071639	0.032686	0.827998
C49	C	-0.428336	-0.720163	0.327968
C50	C	0.071664	-0.220163	0.827968
C51	C	-0.428329	-0.802148	0.327956
C52	C	0.071671	-0.302148	0.827956
C53	C	-0.328054	-0.802226	0.428541
C54	C	0.171946	-0.302226	0.928541
C55	C	-0.328061	-0.720247	0.428552
C56	C	0.171939	-0.220247	0.928552
C57	C	-0.378204	-0.679218	0.378263
C58	C	0.121796	-0.179218	0.878263
C59	C	-0.582159	-1.134290	0.378244
C60	C	-0.082159	-0.634290	0.878244
C61	C	-0.669409	-1.134326	0.378258
C62	C	-0.169409	-0.634326	0.878258
C63	C	-1.045153	-1.184677	0.428579
C64	C	-0.545153	-0.684677	0.928579
C65	C	-0.963172	-1.184642	0.428560
C66	C	-0.463172	-0.684642	0.928560
C67	C	-0.922258	-1.134450	0.378304
C68	C	-0.422258	-0.634450	0.878304
C69	C	-0.963329	-1.084295	0.328058
C70	C	-0.463329	-0.584295	0.828058
C71	C	-1.045307	-1.084335	0.328073
C72	C	-0.545307	-0.584335	0.828073
C73	C	-0.792459	-1.084214	0.328032
C74	C	-0.292459	-0.584214	0.828032
C75	C	-0.710474	-1.084173	0.328017
C76	C	-0.210474	-0.584173	0.828017
C77	C	-0.710323	-1.184521	0.428518
C78	C	-0.210323	-0.684521	0.928518
C79	C	-0.792302	-1.184561	0.428533
C80	C	-0.292302	-0.684561	0.928533
C81	C	-0.833367	-1.134405	0.378288
C82	C	-0.333367	-0.634405	0.878288
C83	C	-0.173467	-1.134480	0.378318
C84	C	0.326533	-0.634480	0.878318
C85	C	-0.086217	-1.134525	0.378338
C86	C	0.413783	-0.634525	0.878338
C87	C	-0.378154	-1.134421	0.583017
C88	C	0.121846	-0.634421	1.083017
C89	C	-0.378129	-1.134442	0.670267
C90	C	0.121871	-0.634442	1.170267
C91	C	-0.378232	-0.339118	0.378300
C92	C	0.121768	0.160882	0.878300
C93	C	-0.378220	-0.426368	0.378292
C94	C	0.121780	0.073632	0.878292
C95	C	-0.378212	-1.134372	0.174325
C96	C	0.121788	-0.634372	0.674325
C97	C	-0.378016	-1.134504	0.087075
C98	C	0.121984	-0.634504	0.587075
C99	C	-0.327926	-1.184675	0.711278
C100	C	0.172074	-0.684675	1.211278
C101	C	-0.327900	-1.184685	0.793259
C102	C	0.172100	-0.684685	1.293259
C103	C	-0.378081	-1.134464	0.834226
C104	C	0.121919	-0.634464	1.334226
C105	C	-0.428287	-1.084225	0.793209
C106	C	0.071713	-0.584225	1.293209
C107	C	-0.428308	-1.084212	0.711230
C108	C	0.071692	-0.584212	1.211230
C109	C	-0.428239	-1.084256	0.964079
C110	C	0.071761	-0.584256	1.464079
C111	C	-0.428219	-1.084270	1.046064
C112	C	0.071781	-0.584270	1.546064
C113	C	-0.327831	-1.184729	1.046108
C114	C	0.172169	-0.684729	1.546108
C115	C	-0.327853	-1.184716	0.964129
C116	C	0.172147	-0.684716	1.464129
C117	C	-0.378059	-1.134478	0.923117
C118	C	0.121941	-0.634478	1.423117
H119	H	-0.287225	-0.835635	0.469487
H120	H	0.212775	-0.335635	0.969487
H121	H	-0.287065	-1.225573	0.677928
H122	H	0.212935	-0.725573	1.177928
C123	C	-0.918320	-1.029082	0.272777
C124	C	-0.418320	-0.529082	0.772777
N125	N	-0.884420	-0.987491	0.231141
N126	N	-0.384420	-0.487491	0.731141
C127	C	-0.483496	-0.594341	0.272658
C128	C	0.016504	-0.094341	0.772658
N129	N	-0.525027	-0.628271	0.230979
N130	N	-0.025027	-0.128271	0.730979
H131	H	-1.078741	-1.043495	0.287162
H132	H	-0.578741	-0.543495	0.787162
C133	C	-0.272674	-1.239947	0.838367
C134	C	0.227326	-0.739947	1.338367
N135	N	-0.231075	-1.281573	0.872343
N136	N	0.268925	-0.781573	1.372343
H137	H	-0.825891	-1.043373	0.287115
H138	H	-0.325891	-0.543373	0.787115
H139	H	-0.676884	-1.225360	0.469429
H140	H	-0.176884	-0.725360	0.969429
H141	H	-0.469171	-0.686760	0.287020
H142	H	0.030829	-0.186760	0.787020
C143	C	-0.665470	-1.028980	0.272712
C144	C	-0.165470	-0.528980	0.772712
N145	N	-0.631573	-0.987415	0.231049
N146	N	-0.131573	-0.487415	0.731049
H147	H	-0.469181	-1.043299	0.677840
H148	H	0.030819	-0.543299	1.177840
H149	H	-0.469079	-1.043374	1.079418
H150	H	0.030921	-0.543374	1.579418
H151	H	-0.287236	-0.686907	0.469504
H152	H	0.212764	-0.186907	0.969504
H153	H	-0.825612	-1.225430	0.469458
H154	H	-0.325612	-0.725430	0.969458
C155	C	-0.272933	-0.422359	0.483909
C156	C	0.227067	0.077641	0.983909
N157	N	-0.231395	-0.388438	0.525589
N158	N	0.268605	0.111562	1.025589
H159	H	-0.469190	-0.433910	0.287052
H160	H	0.030810	0.066090	0.787052
H161	H	-0.469153	-0.835487	0.287002
H162	H	0.030847	-0.335487	0.787002
H163	H	-0.286995	-1.225615	0.930775
H164	H	0.213005	-0.725615	1.430775
H165	H	-0.287254	-0.582779	0.469522
H166	H	0.212746	-0.082779	0.969522
C167	C	-0.483472	-1.028994	0.918969
C168	C	0.016528	-0.528994	1.418969
N169	N	-0.525077	-0.987375	0.884991
N170	N	-0.025077	-0.487375	1.384991
C171	C	-1.090151	-1.239895	0.483864
C172	C	-0.590151	-0.739895	0.983864
N173	N	-1.124041	-1.281490	0.525504
N174	N	-0.624041	-0.781490	1.025504
H175	H	-0.286950	-1.225634	1.079503
H176	H	0.213050	-0.725634	1.579503
H177	H	-0.929738	-1.225481	0.469469
H178	H	-0.429738	-0.725481	0.969469
H179	H	-0.469142	-1.043331	0.826571
H180	H	0.030858	-0.543331	1.326571
