data_functionalizedCrystal
_audit_creation_method	'MofGen! by Chris Wilmer'
_symmetry_space_group_name_H-M	'P1'
_symmetry_Int_Tables_number	1
_symmetry_cell_setting	triclinic
loop_
_symmetry_equiv_pos_as_xyz
  x,y,z
_cell_length_a	21.395364
_cell_length_b	21.395362
_cell_length_c	21.395356
_cell_angle_alpha	89.970924
_cell_angle_beta	89.976411
_cell_angle_gamma	90.042450
loop_
_atom_site_label
_atom_site_type_symbol
_atom_site_fract_x
_atom_site_fract_y
_atom_site_fract_z
Zn1	Zn	0.957867	-0.249204	-0.354255
Zn2	Zn	1.457867	0.250796	0.145745
Zn3	Zn	0.957777	-0.353981	-0.249475
Zn4	Zn	1.457777	0.146019	0.250525
Zn5	Zn	0.853084	-0.249249	-0.249492
Zn6	Zn	1.353084	0.250751	0.250508
Zn7	Zn	0.853057	-0.353975	-0.354216
Zn8	Zn	1.353057	0.146025	0.145784
O9	O	0.905446	-0.301602	-0.301860
O10	O	1.405446	0.198398	0.198140
O11	O	1.045533	-0.263087	-0.340366
O12	O	1.545533	0.236913	0.159634
O13	O	0.943863	-0.340109	-0.161800
O14	O	1.443863	0.159891	0.338200
O15	O	0.867033	-0.161565	-0.263413
O16	O	1.367033	0.338435	0.236587
O17	O	1.045467	-0.340066	-0.263384
O18	O	1.545467	0.159934	0.236616
O19	O	0.944016	-0.161532	-0.340382
O20	O	1.444016	0.338468	0.159618
O21	O	0.866945	-0.263162	-0.161812
O22	O	1.366945	0.236838	0.338188
O23	O	0.765403	-0.263157	-0.263374
O24	O	1.265403	0.236843	0.236626
O25	O	0.866987	-0.340057	-0.441899
O26	O	1.366987	0.159943	0.058101
O27	O	0.765383	-0.340099	-0.340314
O28	O	1.265383	0.159901	0.159686
O29	O	0.943990	-0.263082	-0.441928
O30	O	1.443990	0.236918	0.058072
O31	O	0.943837	-0.441658	-0.263346
O32	O	1.443837	0.058342	0.236654
O33	O	0.866900	-0.441654	-0.340298
O34	O	1.366900	0.058346	0.159702
C35	C	0.742659	-0.301633	-0.301842
C36	C	1.242659	0.198367	0.198158
C37	C	0.673018	-0.301661	-0.301849
C38	C	1.173018	0.198339	0.198151
C39	C	0.640361	-0.261644	-0.341996
C40	C	1.140361	0.238356	0.158004
C41	C	0.574926	-0.261627	-0.341998
C42	C	1.074926	0.238373	0.158002
C43	C	0.542149	-0.301639	-0.301861
C44	C	1.042149	0.198361	0.198139
C45	C	0.574814	-0.341659	-0.261707
C46	C	1.074814	0.158341	0.238293
C47	C	0.640248	-0.341670	-0.261701
C48	C	1.140248	0.158330	0.238299
C49	C	0.438428	-0.358064	-0.296822
C50	C	0.938428	0.141936	0.203178
C51	C	0.372995	-0.358054	-0.296832
C52	C	0.872995	0.141946	0.203168
C53	C	0.340329	-0.301604	-0.301875
C54	C	0.840329	0.198396	0.198125
C55	C	0.373103	-0.245163	-0.306921
C56	C	0.873103	0.254837	0.193079
C57	C	0.438537	-0.245174	-0.306915
C58	C	0.938537	0.254826	0.193085
C59	C	0.471197	-0.301631	-0.301862
C60	C	0.971197	0.198369	0.198138
C61	C	0.236720	-0.261566	-0.342026
C62	C	0.736720	0.238434	0.157974
C63	C	0.171283	-0.261548	-0.342024
C64	C	0.671283	0.238452	0.157976
C65	C	0.171172	-0.341585	-0.261736
C66	C	0.671172	0.158415	0.238264
C67	C	0.236607	-0.341598	-0.261735
C68	C	0.736607	0.158402	0.238265
C69	C	0.269377	-0.301589	-0.301883
C70	C	0.769377	0.198411	0.198117
C71	C	0.905373	-0.464390	-0.301829
C72	C	1.405373	0.035610	0.198171
C73	C	0.905399	-0.534031	-0.301837
C74	C	1.405399	-0.034031	0.198163
C75	C	0.945659	-1.035809	-0.261892
C76	C	1.445659	-0.535809	0.238108
C77	C	0.945635	-0.970373	-0.261878
C78	C	1.445635	-0.470373	0.238122
C79	C	0.905535	-0.937670	-0.301904
C80	C	1.405535	-0.437670	0.198096
C81	C	0.865445	-0.970407	-0.341937
C82	C	1.365445	-0.470407	0.158063
C83	C	0.865466	-1.035841	-0.341947
C84	C	1.365466	-0.535841	0.158053
C85	C	0.900526	-0.833971	-0.358335
C86	C	1.400526	-0.333971	0.141665
C87	C	0.900510	-0.768538	-0.358327
C88	C	1.400510	-0.268538	0.141673
C89	C	0.905469	-0.735849	-0.301876
C90	C	1.405469	-0.235849	0.198124
C91	C	0.910456	-0.768600	-0.245432
C92	C	1.410456	-0.268600	0.254568
C93	C	0.910477	-0.834035	-0.245441
C94	C	1.410477	-0.334035	0.254559
C95	C	0.905508	-0.866717	-0.301899
C96	C	1.405508	-0.366717	0.198101
C97	C	0.945528	-0.632167	-0.261827
C98	C	1.445528	-0.132167	0.238173
C99	C	0.945499	-0.566731	-0.261811
C100	C	1.445499	-0.066731	0.238189
C101	C	0.865313	-0.566765	-0.341876
C102	C	1.365313	-0.066765	0.158124
C103	C	0.865338	-0.632200	-0.341886
C104	C	1.365338	-0.132200	0.158114
C105	C	0.905448	-0.664898	-0.301862
C106	C	1.405448	-0.164898	0.198138
C107	C	1.068870	-0.301572	-0.301878
C108	C	1.568870	0.198428	0.198122
C109	C	1.138511	-0.301559	-0.301885
C110	C	1.638511	0.198441	0.198115
C111	C	0.905496	-0.301564	-0.465283
C112	C	1.405496	0.198436	0.034717
C113	C	0.905517	-0.301547	-0.534924
C114	C	1.405517	0.198453	-0.034924
C115	C	0.905537	-0.138179	-0.301904
C116	C	1.405537	0.361821	0.198096
C117	C	0.905576	-0.068538	-0.301923
C118	C	1.405576	0.431462	0.198077
C119	C	0.865476	-0.261476	-0.567634
C120	C	1.365476	0.238524	-0.067634
C121	C	0.865474	-0.261465	-0.633069
C122	C	1.365474	0.238535	-0.133069
C123	C	0.905524	-0.301517	-0.665793
C124	C	1.405524	0.198483	-0.165793
C125	C	0.945567	-0.341596	-0.633075
C126	C	1.445567	0.158404	-0.133075
C127	C	0.945563	-0.341610	-0.567641
C128	C	1.445563	0.158390	-0.067641
C129	C	0.961976	-0.306428	-0.769479
C130	C	1.461976	0.193572	-0.269479
C131	C	0.961980	-0.306409	-0.834912
C132	C	1.461980	0.193591	-0.334912
C133	C	0.905534	-0.301475	-0.867614
C134	C	1.405534	0.198525	-0.367614
C135	C	0.849081	-0.296547	-0.834874
C136	C	1.349081	0.203453	-0.334874
C137	C	0.849078	-0.296562	-0.769440
C138	C	1.349078	0.203438	-0.269440
C139	C	0.905532	-0.301506	-0.736745
C140	C	1.405532	0.198494	-0.236745
C141	C	0.865488	-0.261390	-0.971276
C142	C	1.365488	0.238610	-0.471276
C143	C	0.865485	-0.261382	-1.036712
C144	C	1.365485	0.238618	-0.536712
C145	C	0.945583	-0.341510	-1.036717
C146	C	1.445583	0.158490	-0.536717
C147	C	0.945581	-0.341520	-0.971282
C148	C	1.445581	0.158480	-0.471282
C149	C	0.905534	-0.301457	-0.938565
C150	C	1.405534	0.198543	-0.438565
C151	C	0.905433	-0.301596	-0.139072
C152	C	1.405433	0.198404	0.360928
C153	C	0.905534	-0.301436	-0.069431
C154	C	1.405534	0.198564	0.430569
H155	H	0.666836	-0.374258	-0.229008
H156	H	1.166836	0.125742	0.270992
H157	H	0.914536	-0.860698	-0.199482
H158	H	1.414536	-0.360698	0.300518
C159	C	0.135126	-0.385601	-0.217588
C160	C	0.635126	0.114399	0.282412
H161	H	0.091478	-0.379867	-0.223344
H162	H	0.591478	0.120133	0.276656
H163	H	0.145836	-0.376382	-0.175506
H164	H	0.645836	0.123618	0.324494
H165	H	0.145817	-0.427713	-0.226688
H166	H	0.645817	0.072287	0.273312
C167	C	0.337182	-0.183063	-0.312466
C168	C	0.837182	0.316937	0.187534
H169	H	0.366072	-0.149453	-0.315474
H170	H	0.866072	0.350547	0.184526
H171	H	0.311645	-0.177503	-0.276569
H172	H	0.811645	0.322497	0.223431
H173	H	0.311672	-0.183920	-0.348788
H174	H	0.811672	0.316080	0.151212
H175	H	0.832879	-0.228768	-0.944636
H176	H	1.332879	0.271232	-0.444636
C177	C	0.989624	-0.385650	-0.669065
C178	C	1.489624	0.114350	-0.169065
H179	H	1.013469	-0.409520	-0.640210
H180	H	1.513469	0.090480	-0.140210
H181	H	1.016939	-0.361670	-0.694606
H182	H	1.516939	0.138330	-0.194606
H183	H	0.965641	-0.412950	-0.694576
H184	H	1.465641	0.087050	-0.194576
C185	C	0.474590	-0.183095	-0.312460
C186	C	0.974590	0.316905	0.187540
H187	H	0.518237	-0.191190	-0.311738
H188	H	1.018237	0.308810	0.188262
H189	H	0.463875	-0.156692	-0.278426
H190	H	0.963875	0.343308	0.221574
H191	H	0.463905	-0.163110	-0.350645
H192	H	0.963905	0.336890	0.149355
C193	C	0.989772	-1.071772	-0.217861
C194	C	1.489772	-0.571772	0.282139
H195	H	1.013636	-1.042904	-0.194014
H196	H	1.513636	-0.542904	0.305986
H197	H	1.017066	-1.097256	-0.241856
H198	H	1.517066	-0.597256	0.258144
H199	H	0.965822	-1.097337	-0.190538
H200	H	1.465822	-0.597337	0.309462
C201	C	0.915900	-0.732651	-0.183332
C202	C	1.415900	-0.232651	0.316668
H203	H	0.915164	-0.688991	-0.191407
H204	H	1.415164	-0.188991	0.308593
H205	H	0.954056	-0.743343	-0.163329
H206	H	1.454056	-0.243343	0.336671
H207	H	0.881828	-0.743435	-0.156952
H208	H	1.381828	-0.243435	0.343048
H209	H	0.978137	-0.540082	-0.229210
H210	H	1.478137	-0.040082	0.270790
H211	H	0.263402	-0.228984	-0.374713
H212	H	0.763402	0.271016	0.125287
H213	H	0.263197	-0.374187	-0.229046
H214	H	0.763197	0.125813	0.270954
C215	C	0.135361	-0.217527	-0.386187
C216	C	0.635361	0.282473	0.113813
H217	H	0.164251	-0.193706	-0.410099
H218	H	0.664251	0.306294	0.089901
H219	H	0.109849	-0.190188	-0.362274
H220	H	0.609849	0.309812	0.137726
H221	H	0.109826	-0.241532	-0.413444
H222	H	0.609826	0.258468	0.086556
C223	C	0.821425	-0.217318	-1.072696
C224	C	1.321425	0.282682	-0.572696
H225	H	0.827152	-0.223056	-1.116353
H226	H	1.327152	0.276944	-0.616353
H227	H	0.830607	-0.175217	-1.061997
H228	H	1.330607	0.324783	-0.561997
H229	H	0.779323	-0.226511	-1.061945
H230	H	1.279323	0.273489	-0.561945
C231	C	0.786985	-0.291152	-0.733429
C232	C	1.286985	0.208848	-0.233429
H233	H	0.753365	-0.288216	-0.762272
H234	H	1.253365	0.211784	-0.262272
H235	H	0.787815	-0.254841	-0.707910
H236	H	1.287815	0.245159	-0.207910
H237	H	0.781463	-0.327074	-0.707894
H238	H	1.281463	0.172926	-0.207894
H239	H	0.978187	-0.658790	-0.229236
H240	H	1.478187	-0.158790	0.270764
H241	H	0.832794	-0.943776	-0.374527
H242	H	1.332794	-0.443776	0.125473
H243	H	0.346315	-0.404013	-0.292726
H244	H	0.846315	0.095987	0.207274
H245	H	0.896453	-0.741874	-0.404286
H246	H	1.396453	-0.241874	0.095714
H247	H	0.465020	-0.404036	-0.292715
H248	H	0.965020	0.095964	0.207285
C249	C	0.821378	-1.071844	-0.385986
C250	C	1.321378	-0.571844	0.114014
H251	H	0.797494	-1.042998	-0.409826
H252	H	1.297494	-0.542998	0.090174
H253	H	0.794101	-1.097418	-0.361999
H254	H	1.294101	-0.597418	0.138001
H255	H	0.845345	-1.097323	-0.413316
H256	H	1.345345	-0.597323	0.086684
C257	C	0.538762	-0.385673	-0.217560
C258	C	1.038762	0.114327	0.282440
H259	H	0.495114	-0.379941	-0.223318
H260	H	0.995114	0.120059	0.276682
H261	H	0.549471	-0.376452	-0.175477
H262	H	1.049471	0.123548	0.324523
H263	H	0.549454	-0.427786	-0.226657
H264	H	1.049454	0.072214	0.273343
H265	H	0.978276	-0.943720	-0.229279
H266	H	1.478276	-0.443720	0.270721
C267	C	0.821423	-0.217415	-0.531646
C268	C	1.321423	0.282585	-0.031646
H269	H	0.827156	-0.223159	-0.487990
H270	H	1.327156	0.276841	0.012010
H271	H	0.779321	-0.226589	-0.542354
H272	H	1.279321	0.273411	-0.042354
H273	H	0.830621	-0.175311	-0.542384
H274	H	1.330621	0.324689	-0.042384
H275	H	0.832661	-0.540138	-0.374464
H276	H	1.332661	-0.040138	0.125536
H277	H	0.896602	-0.860581	-0.404317
H278	H	1.396602	-0.360581	0.095683
H279	H	0.832700	-0.658849	-0.374485
H280	H	1.332700	-0.158849	0.125515
C281	C	0.821434	-0.217382	-0.669061
C282	C	1.321434	0.282618	-0.169061
H283	H	0.827171	-0.223114	-0.712716
H284	H	1.327171	0.276886	-0.212716
H285	H	0.830632	-0.175287	-0.658351
H286	H	1.330632	0.324713	-0.158351
H287	H	0.779326	-0.226559	-0.658323
H288	H	1.279326	0.273441	-0.158323
H289	H	0.803118	-0.292525	-0.861498
H290	H	1.303118	0.207475	-0.361498
H291	H	0.978193	-0.374120	-1.063360
H292	H	1.478193	0.125880	-0.563360
H293	H	0.978187	-0.374149	-0.944649
H294	H	1.478187	0.125851	-0.444649
C295	C	1.024075	-0.311828	-0.870919
C296	C	1.524075	0.188172	-0.370919
H297	H	1.057691	-0.314780	-0.842073
H298	H	1.557691	0.185220	-0.342073
H299	H	1.029607	-0.275913	-0.896456
H300	H	1.529607	0.224087	-0.396456
H301	H	1.023238	-0.348145	-0.896435
H302	H	1.523238	0.151855	-0.396435
C303	C	0.676405	-0.217628	-0.386149
C304	C	1.176405	0.282372	0.113851
H305	H	0.647580	-0.193788	-0.410055
H306	H	1.147580	0.306212	0.089945
H307	H	0.701926	-0.241631	-0.413403
H308	H	1.201926	0.258369	0.086597
H309	H	0.701939	-0.190298	-0.362223
H310	H	1.201939	0.309702	0.137777
C311	C	1.024069	-0.311862	-0.733510
C312	C	1.524069	0.188138	-0.233510
H313	H	1.015982	-0.311173	-0.689852
H314	H	1.515982	0.188827	-0.189852
H315	H	1.050447	-0.277774	-0.744250
H316	H	1.550447	0.222226	-0.244250
H317	H	1.044078	-0.350005	-0.744233
H318	H	1.544078	0.149995	-0.244233
C319	C	0.989613	-0.385686	-0.531659
C320	C	1.489613	0.114314	-0.031659
H321	H	1.013468	-0.409537	-0.560517
H322	H	1.513468	0.090463	-0.060517
H323	H	0.965631	-0.412994	-0.506113
H324	H	1.465631	0.087006	-0.006113
H325	H	1.016928	-0.361713	-0.506153
H326	H	1.516928	0.138287	-0.006153
H327	H	0.548332	-0.229037	-0.374689
H328	H	1.048332	0.270963	0.125311
