data_functionalizedCrystal
_audit_creation_method	'MofGen! by Chris Wilmer'
_symmetry_space_group_name_H-M	'P1'
_symmetry_Int_Tables_number	1
_symmetry_cell_setting	triclinic
loop_
_symmetry_equiv_pos_as_xyz
  x,y,z
_cell_length_a	12.759401
_cell_length_b	12.759399
_cell_length_c	12.759393
_cell_angle_alpha	90.027929
_cell_angle_beta	89.981547
_cell_angle_gamma	89.985589
loop_
_atom_site_label
_atom_site_type_symbol
_atom_site_fract_x
_atom_site_fract_y
_atom_site_fract_z
Zn1	Zn	1.606258	0.418199	-0.594008
Zn2	Zn	1.606154	0.593918	-0.418340
Zn3	Zn	1.430560	0.418254	-0.418348
Zn4	Zn	1.430550	0.593837	-0.593981
O5	O	1.518381	0.506052	-0.506169
O6	O	1.753265	0.441520	-0.570713
O7	O	1.582822	0.570673	-0.271320
O8	O	1.453915	0.271226	-0.441664
O9	O	1.753189	0.570620	-0.441651
O10	O	1.582999	0.271186	-0.570721
O11	O	1.453814	0.441614	-0.271325
O12	O	1.283538	0.441535	-0.441638
O13	O	1.453898	0.570482	-0.741006
O14	O	1.283531	0.570535	-0.570675
O15	O	1.582990	0.441441	-0.741026
O16	O	1.582812	0.740929	-0.441624
O17	O	1.453797	0.740869	-0.570667
C18	C	1.245413	0.506033	-0.506155
C19	C	1.128637	0.506050	-0.506174
C20	C	1.518320	0.779020	-0.506165
C21	C	1.518391	0.895796	-0.506198
C22	C	1.518454	0.505946	-0.780203
C23	C	1.518485	0.505901	-0.896979
C24	C	1.073798	0.573328	-0.573252
C25	C	0.964074	0.573341	-0.573264
C26	C	0.964037	0.438796	-0.439109
C27	C	1.073759	0.438778	-0.439104
C28	C	1.073819	0.651010	-0.650702
C29	C	0.964095	0.651023	-0.650714
C30	C	1.792414	0.506073	-0.506184
C31	C	1.909191	0.506081	-0.506190
C32	C	1.585647	0.950654	-0.439086
C33	C	1.585716	1.060378	-0.439129
C34	C	1.451264	1.060377	-0.573400
C35	C	1.451201	0.950655	-0.573361
C36	C	1.518474	1.232019	-0.506215
C37	C	1.518523	1.115242	-0.506280
C38	C	1.451335	0.438687	-0.951844
C39	C	1.451359	0.438655	-1.061568
C40	C	1.585694	0.573053	-1.061553
C41	C	1.585663	0.573089	-0.951831
C42	C	1.518368	0.506082	-0.233202
C43	C	1.518540	0.505832	-0.116426
H44	H	1.118404	0.383987	-0.384489
O45	O	1.658148	0.645518	-1.120715
H46	H	1.740605	0.627524	-1.099654
O47	O	1.378945	0.366146	-1.120743
H48	H	1.325477	0.413137	-1.170718
H49	H	1.103627	0.629310	-0.732108
O50	O	1.118882	0.753337	-0.611920
H51	H	1.205757	0.749102	-0.613505
O52	O	1.658105	0.645575	-0.892643
H53	H	1.704838	0.692274	-0.949217
O54	O	1.378656	0.891483	-0.645755
H55	H	1.389912	0.805970	-0.634452
H56	H	1.640484	1.105039	-0.384481
H57	H	1.396634	0.383978	-0.907187
O58	O	1.378795	1.119552	-0.645829
H59	H	1.332024	1.062969	-0.692498
O60	O	0.919044	0.612546	-0.753163
H61	H	0.983893	0.592143	-0.807474
H62	H	0.934300	0.732373	-0.628787
O63	O	0.904849	0.366266	-0.366744
H64	H	0.819338	0.377590	-0.378005
H65	H	1.640358	0.905991	-0.384399
