data_functionalizedCrystal
_audit_creation_method	'MofGen! by Chris Wilmer'
_symmetry_space_group_name_H-M	'P1'
_symmetry_Int_Tables_number	1
_symmetry_cell_setting	triclinic
loop_
_symmetry_equiv_pos_as_xyz
  x,y,z
_cell_length_a	17.077402
_cell_length_b	17.077404
_cell_length_c	12.759393
_cell_angle_alpha	90.024591
_cell_angle_beta	90.034688
_cell_angle_gamma	90.021130
loop_
_atom_site_label
_atom_site_type_symbol
_atom_site_fract_x
_atom_site_fract_y
_atom_site_fract_z
Zn1	Zn	-0.312507	1.200079	0.594092
Zn2	Zn	0.187493	1.700079	1.094092
Zn3	Zn	-0.443793	1.199979	0.418399
Zn4	Zn	0.056207	1.699979	0.918399
Zn5	Zn	-0.312541	1.068804	0.418416
Zn6	Zn	0.187459	1.568804	0.918416
Zn7	Zn	-0.443731	1.068779	0.594025
Zn8	Zn	0.056269	1.568779	1.094025
O9	O	-0.378143	1.134410	0.506233
O10	O	0.121857	1.634410	1.006233
O11	O	-0.329934	1.309913	0.570807
O12	O	0.170066	1.809913	1.070807
O13	O	-0.426423	1.182547	0.271380
O14	O	0.073577	1.682547	0.771380
O15	O	-0.202690	1.086270	0.441755
O16	O	0.297310	1.586270	0.941755
O17	O	-0.426389	1.309839	0.441726
O18	O	0.073611	1.809839	0.941726
O19	O	-0.202664	1.182717	0.570823
O20	O	0.297336	1.682717	1.070823
O21	O	-0.329992	1.086173	0.271392
O22	O	0.170008	1.586173	0.771392
O23	O	-0.329932	0.958953	0.441690
O24	O	0.170068	1.458953	0.941690
O25	O	-0.426283	1.086228	0.741055
O26	O	0.073717	1.586228	1.241055
O27	O	-0.426316	0.958935	0.570709
O28	O	0.073684	1.458935	1.070709
O29	O	-0.329874	1.182693	0.741104
O30	O	0.170126	1.682693	1.241104
O31	O	-0.553632	1.182523	0.441661
O32	O	-0.053632	1.682523	0.941661
O33	O	-0.553586	1.086131	0.570693
O34	O	-0.053586	1.586131	1.070693
C35	C	-0.378122	0.930462	0.506195
C36	C	0.121878	1.430462	1.006195
C37	C	-0.378131	0.843212	0.506203
C38	C	0.121869	1.343212	1.006203
C39	C	-0.328030	0.467433	0.573591
C40	C	0.171970	0.967433	1.073591
C41	C	-0.328025	0.549414	0.573579
C42	C	0.171975	1.049414	1.073579
C43	C	-0.378159	0.590364	0.506259
C44	C	0.121841	1.090364	1.006259
C45	C	-0.428309	0.549329	0.438954
C46	C	0.071691	1.049329	0.938954
C47	C	-0.428318	0.467350	0.438972
C48	C	0.071682	0.967350	0.938972
C49	C	-0.428285	0.720199	0.438920
C50	C	0.071715	1.220199	0.938920
C51	C	-0.428275	0.802183	0.438901
C52	C	0.071725	1.302183	0.938901
C53	C	-0.327992	0.802263	0.573528
C54	C	0.172008	1.302263	1.073528
C55	C	-0.328001	0.720284	0.573546
C56	C	0.171999	1.220284	1.073546
C57	C	-0.378149	0.679255	0.506239
C58	C	0.121851	1.179255	1.006239
C59	C	-0.582091	1.134334	0.506191
C60	C	-0.082091	1.634334	1.006191
C61	C	-0.669341	1.134374	0.506208
C62	C	-0.169341	1.634374	1.006208
C63	C	-0.710328	1.184616	0.439094
C64	C	-0.210328	1.684616	0.939094
C65	C	-0.792309	1.184655	0.439120
C66	C	-0.292309	1.684655	0.939120
C67	C	-0.833300	1.134446	0.506257
C68	C	-0.333300	1.634446	1.006257
C69	C	-0.792306	1.084201	0.573379
C70	C	-0.292306	1.584201	1.073379
C71	C	-0.710327	1.084167	0.573357
C72	C	-0.210327	1.584167	1.073357
C73	C	-0.963176	1.084274	0.573419
C74	C	-0.463176	1.584274	1.073419
C75	C	-1.045161	1.084306	0.573440
C76	C	-0.545161	1.584306	1.073440
C77	C	-1.045158	1.184761	0.439183
C78	C	-0.545158	1.684761	0.939183
C79	C	-0.963179	1.184728	0.439160
C80	C	-0.463179	1.684728	0.939160
C81	C	-0.922191	1.134481	0.506281
C82	C	-0.422191	1.634481	1.006281
C83	C	-0.173399	1.134508	0.506298
C84	C	0.326601	1.634508	1.006298
C85	C	-0.086149	1.134549	0.506326
C86	C	0.413851	1.634549	1.006326
C87	C	-0.378067	1.134469	0.780266
C88	C	0.121933	1.634469	1.280266
C89	C	-0.378035	1.134494	0.897043
C90	C	0.121965	1.634494	1.397043
C91	C	-0.378165	1.339154	0.506272
C92	C	0.121835	1.839154	1.006272
C93	C	-0.378174	1.426404	0.506289
C94	C	0.121826	1.926404	1.006289
C95	C	-0.378161	1.134397	0.233266
C96	C	0.121839	1.634397	0.733266
C97	C	-0.377972	1.134524	0.116490
C98	C	0.122028	1.634524	0.616490
C99	C	-0.327827	1.184727	0.951932
C100	C	0.172173	1.684727	1.451932
C101	C	-0.327793	1.184741	1.061657
C102	C	0.172207	1.684741	1.561657
C103	C	-0.428183	1.084285	1.061593
C104	C	0.071817	1.584285	1.561593
C105	C	-0.428212	1.084268	0.951870
C106	C	0.071788	1.584268	1.451870
H107	H	-0.287174	0.686945	0.628359
H108	H	0.212826	1.186945	1.128359
Br109	Br	-0.496356	0.664516	0.347590
Br110	Br	0.003644	1.164516	0.847590
Br111	Br	-0.259976	0.605094	0.664931
Br112	Br	0.240024	1.105094	1.164931
Br113	Br	-0.496280	1.016128	1.136008
Br114	Br	0.003720	1.516128	1.636008
Br115	Br	-0.654700	1.015983	0.664452
Br116	Br	-0.154700	1.515983	1.164452
H117	H	-0.469132	0.582676	0.384145
H118	H	0.030868	1.082676	0.884145
Br119	Br	-0.259926	0.857944	0.664864
Br120	Br	0.240074	1.357944	1.164864
Br121	Br	-0.259729	1.252889	0.877527
Br122	Br	0.240271	1.752889	1.377527
H123	H	-1.078533	1.043437	0.628129
H124	H	-0.578533	1.543437	1.128129
H125	H	-0.825678	1.225567	0.384468
H126	H	-0.325678	1.725567	0.884468
H127	H	-0.469097	1.043357	0.907179
H128	H	0.030903	1.543357	1.407179
H129	H	-0.825688	1.043324	0.628048
H130	H	-0.325688	1.543324	1.128048
Br131	Br	-0.259980	0.411867	0.664950
Br132	Br	0.240020	0.911867	1.164950
Br133	Br	-0.654706	1.252754	0.347964
Br134	Br	-0.154706	1.752754	0.847964
Br135	Br	-0.496338	0.857758	0.347568
Br136	Br	0.003662	1.357758	0.847568
H137	H	-0.469151	0.433945	0.384169
H138	H	0.030849	0.933945	0.884169
H139	H	-0.929806	1.043361	0.628080
H140	H	-0.429806	1.543361	1.128080
H141	H	-0.929804	1.225607	0.384487
H142	H	-0.429804	1.725607	0.884487
Br143	Br	-1.100783	1.252942	0.348075
Br144	Br	-0.600783	1.752942	0.848075
H145	H	-0.286907	1.225644	1.106342
H146	H	0.213093	1.725644	1.606342
