data_functionalizedCrystal
_audit_creation_method	'MofGen! by Chris Wilmer'
_symmetry_space_group_name_H-M	'P1'
_symmetry_Int_Tables_number	1
_symmetry_cell_setting	triclinic
loop_
_symmetry_equiv_pos_as_xyz
  x,y,z
_cell_length_a	12.759401
_cell_length_b	12.759400
_cell_length_c	12.759386
_cell_angle_alpha	89.934994
_cell_angle_beta	90.042857
_cell_angle_gamma	89.984606
loop_
_atom_site_label
_atom_site_type_symbol
_atom_site_fract_x
_atom_site_fract_y
_atom_site_fract_z
Zn1	Zn	-1.606479	-0.417834	-0.594065
Zn2	Zn	-1.606308	-0.593656	-0.418385
Zn3	Zn	-1.430715	-0.417994	-0.418395
Zn4	Zn	-1.430769	-0.593474	-0.594018
O5	O	-1.518568	-0.505739	-0.506216
O6	O	-1.753477	-0.441166	-0.570776
O7	O	-1.582920	-0.570496	-0.271365
O8	O	-1.454079	-0.270952	-0.441722
O9	O	-1.753351	-0.570342	-0.441705
O10	O	-1.583212	-0.270834	-0.570786
O11	O	-1.453913	-0.441438	-0.271372
O12	O	-1.283701	-0.441262	-0.441676
O13	O	-1.454172	-0.570032	-0.741045
O14	O	-1.283741	-0.570187	-0.570705
O15	O	-1.583265	-0.440990	-0.741080
O16	O	-1.582973	-0.740653	-0.441659
O17	O	-1.454006	-0.740519	-0.570695
C18	C	-1.245600	-0.505723	-0.506187
C19	C	-1.128824	-0.505742	-0.506200
C20	C	-1.074010	-0.572974	-0.573278
C21	C	-0.964286	-0.572977	-0.573296
C22	C	-0.964199	-0.438511	-0.439149
C23	C	-1.073921	-0.438504	-0.439137
C24	C	-1.518506	-0.778707	-0.506194
C25	C	-1.518575	-0.895483	-0.506220
C26	C	-0.792601	-0.505753	-0.506238
C27	C	-0.909377	-0.505751	-0.506230
C28	C	-1.585867	-1.060111	-0.439138
C29	C	-1.585804	-0.950387	-0.439105
C30	C	-1.451398	-0.950310	-0.573364
C31	C	-1.451456	-1.060032	-0.573391
C32	C	-1.518744	-0.505473	-0.780249
C33	C	-1.518819	-0.505360	-0.897026
C34	C	-1.518658	-0.231706	-0.506260
C35	C	-1.518697	-0.114929	-0.506280
C36	C	-1.518453	-0.505929	-0.233248
C37	C	-1.518581	-0.505746	-0.116472
C38	C	-1.452036	-0.573125	0.048434
C39	C	-1.451919	-0.573321	-0.061290
C40	C	-1.585372	-0.437978	-0.061924
C41	C	-1.585493	-0.437788	0.047797
C42	C	-1.374985	-0.651260	0.048800
C43	C	-1.374868	-0.651457	-0.060924
H44	H	-0.919483	-0.383771	-0.384546
H45	H	-1.397385	-0.732417	0.078767
O46	O	-0.911203	-0.638388	-0.638487
C47	C	-0.983195	-0.697707	-0.697692
H48	H	-1.061369	-0.701314	-0.654640
H49	H	-0.994945	-0.659283	-0.777551
C50	C	-0.844347	-0.805107	-0.765522
C51	C	-0.940359	-0.809544	-0.712640
H52	H	-0.817924	-0.874091	-0.774747
H53	H	-0.795844	-0.765140	-0.725637
H54	H	-0.854152	-0.773082	-0.832065
H55	H	-0.930551	-0.841555	-0.646093
H56	H	-0.988860	-0.849518	-0.752513
O57	O	-1.386170	-1.113127	-0.638716
C58	C	-1.326797	-1.041147	-0.697932
H59	H	-1.369785	-0.962893	-0.701596
H60	H	-1.247005	-1.029595	-0.659382
C61	C	-1.258858	-1.179948	-0.805244
C62	C	-1.311662	-1.083837	-0.809751
H63	H	-1.249517	-1.206282	-0.874218
H64	H	-1.298856	-1.228443	-0.765347
H65	H	-1.192371	-1.170308	-0.773114
H66	H	-1.378153	-1.093480	-0.841868
H67	H	-1.271675	-1.035344	-0.849656
H68	H	-1.404509	-0.728603	-0.094787
O69	O	-1.651329	-1.113314	-0.373994
C70	C	-1.756019	-1.086392	-0.397068
H71	H	-1.758133	-1.006673	-0.437446
H72	H	-1.791438	-1.148041	-0.451125
C73	C	-1.817079	-1.179304	-0.245111
C74	C	-1.819676	-1.081387	-0.294696
H75	H	-1.856348	-1.176221	-0.181965
H76	H	-1.746548	-1.197446	-0.229568
H77	H	-1.846593	-1.230668	-0.290170
H78	H	-1.790151	-1.030027	-0.249643
H79	H	-1.890204	-1.063236	-0.310230
H80	H	-1.639884	-0.382618	0.092199
H81	H	-1.639655	-0.382964	-0.106862
O82	O	-1.650906	-0.897091	-0.373774
C83	C	-1.591071	-0.833749	-0.305858
H84	H	-1.508343	-0.866891	-0.299299
H85	H	-1.587400	-0.750549	-0.338313
C86	C	-1.744027	-0.791474	-0.204741
C87	C	-1.642422	-0.832185	-0.196680
H88	H	-1.775704	-0.790504	-0.137396
H89	H	-1.784340	-0.834144	-0.250500
H90	H	-1.740955	-0.722144	-0.231791
H91	H	-1.645497	-0.901517	-0.169643
H92	H	-1.602110	-0.789525	-0.150914
O93	O	-1.127221	-0.373080	-0.374121
C94	C	-1.190773	-0.305275	-0.434050
H95	H	-1.157775	-0.298836	-0.516810
H96	H	-1.273924	-0.337758	-0.437608
C97	C	-1.232972	-0.203933	-0.281265
C98	C	-1.192438	-0.196018	-0.382910
H99	H	-1.234004	-0.136539	-0.249718
H100	H	-1.190159	-0.249617	-0.240888
H101	H	-1.302261	-0.231007	-0.284244
H102	H	-1.123146	-0.168957	-0.379928
H103	H	-1.235240	-0.150326	-0.423285
H104	H	-1.293317	-0.630296	-0.090613
O105	O	-1.386244	-0.896929	-0.638672
C106	C	-1.446021	-0.833304	-0.706547
H107	H	-1.528782	-0.866301	-0.713117
H108	H	-1.449606	-0.750190	-0.674045
C109	C	-1.293031	-0.790977	-0.807653
C110	C	-1.394678	-0.831509	-0.815729
H111	H	-1.261359	-0.789865	-0.875000
H112	H	-1.252757	-0.833839	-0.761922
H113	H	-1.296033	-0.721719	-0.780564
H114	H	-1.391674	-0.900770	-0.842805
H115	H	-1.434951	-0.788659	-0.861467
H116	H	-1.118709	-0.627721	-0.627888
O117	O	-1.282668	-0.616922	0.089535
C118	C	-1.300845	-0.527276	0.151426
H119	H	-1.376913	-0.488131	0.125530
H120	H	-1.307292	-0.551230	0.237284
C121	C	-1.115808	-0.497953	0.169838
C122	C	-1.209231	-0.449868	0.138026
H123	H	-1.059295	-0.450205	0.161578
H124	H	-1.103561	-0.558351	0.128145
H125	H	-1.121195	-0.517912	0.241385
H126	H	-1.203848	-0.429921	0.066478
H127	H	-1.221475	-0.389464	0.179708
