data_functionalizedCrystal
_audit_creation_method	'MofGen! by Chris Wilmer'
_symmetry_space_group_name_H-M	'P1'
_symmetry_Int_Tables_number	1
_symmetry_cell_setting	triclinic
loop_
_symmetry_equiv_pos_as_xyz
  x,y,z
_cell_length_a	21.395362
_cell_length_b	12.759400
_cell_length_c	21.395355
_cell_angle_alpha	89.986153
_cell_angle_beta	89.956060
_cell_angle_gamma	90.030564
loop_
_atom_site_label
_atom_site_type_symbol
_atom_site_fract_x
_atom_site_fract_y
_atom_site_fract_z
Zn1	Zn	0.957929	-0.417943	-0.354606
Zn2	Zn	1.457929	0.082057	0.145394
Zn3	Zn	0.957861	-0.593607	-0.249837
Zn4	Zn	1.457861	-0.093607	0.250163
Zn5	Zn	0.853144	-0.417992	-0.249807
Zn6	Zn	1.353144	0.082008	0.250193
Zn7	Zn	0.853143	-0.593629	-0.354542
Zn8	Zn	1.353143	-0.093629	0.145458
O9	O	0.905519	-0.505793	-0.302198
O10	O	1.405519	-0.005793	0.197802
O11	O	1.045598	-0.441215	-0.340747
O12	O	1.545598	0.058785	0.159253
O13	O	0.943942	-0.570323	-0.162155
O14	O	1.443942	-0.070323	0.337845
O15	O	0.867073	-0.270964	-0.263723
O16	O	1.367073	0.229036	0.236277
O17	O	1.045548	-0.570275	-0.263774
O18	O	1.545548	-0.070275	0.236226
O19	O	0.944058	-0.270928	-0.340719
O20	O	1.444058	0.229072	0.159281
O21	O	0.867007	-0.441299	-0.162133
O22	O	1.367007	0.058701	0.337867
O23	O	0.765466	-0.441320	-0.263661
O24	O	1.265466	0.058680	0.236339
O25	O	0.867071	-0.570312	-0.442228
O26	O	1.367071	-0.070312	0.057772
O27	O	0.765465	-0.570360	-0.340609
O28	O	1.265465	-0.070360	0.159391
O29	O	0.944057	-0.441236	-0.442275
O30	O	1.444057	0.058764	0.057725
O31	O	0.943941	-0.740631	-0.263712
O32	O	1.443941	-0.240631	0.236288
O33	O	0.867005	-0.740647	-0.340638
O34	O	1.367005	-0.240647	0.159362
C35	C	0.742732	-0.505848	-0.302125
C36	C	1.242732	-0.005848	0.197875
C37	C	0.673090	-0.505897	-0.302109
C38	C	1.173090	-0.005897	0.197891
C39	C	0.640393	-0.573177	-0.342116
C40	C	1.140393	-0.073177	0.157884
C41	C	0.574958	-0.573152	-0.342144
C42	C	1.074958	-0.073152	0.157856
C43	C	0.542222	-0.505857	-0.302154
C44	C	1.042222	-0.005857	0.197846
C45	C	0.574927	-0.438564	-0.262144
C46	C	1.074927	0.061436	0.237856
C47	C	0.640361	-0.438584	-0.262122
C48	C	1.140361	0.061416	0.237878
C49	C	0.438496	-0.497393	-0.245748
C50	C	0.938496	0.002607	0.254252
C51	C	0.373063	-0.497380	-0.245769
C52	C	0.873063	0.002620	0.254231
C53	C	0.340401	-0.505788	-0.302223
C54	C	0.840401	-0.005788	0.197777
C55	C	0.373181	-0.514231	-0.358657
C56	C	0.873181	-0.014231	0.141343
C57	C	0.438615	-0.514251	-0.358635
C58	C	0.938615	-0.014251	0.141365
C59	C	0.471270	-0.505827	-0.302174
C60	C	0.971270	-0.005827	0.197826
C61	C	0.236752	-0.573044	-0.342263
C62	C	0.736752	-0.073044	0.157737
C63	C	0.171315	-0.573011	-0.342292
C64	C	0.671315	-0.073011	0.157708
C65	C	0.171286	-0.438428	-0.262287
C66	C	0.671286	0.061572	0.237713
C67	C	0.236721	-0.438456	-0.262264
C68	C	0.736721	0.061544	0.237736
C69	C	0.269450	-0.505769	-0.302251
C70	C	0.769450	-0.005769	0.197749
C71	C	0.905482	-0.778760	-0.302185
C72	C	1.405482	-0.278760	0.197815
C73	C	0.905523	-0.895537	-0.302200
C74	C	1.405523	-0.395537	0.197800
C75	C	0.945629	-0.950355	-0.262189
C76	C	1.445629	-0.450355	0.237811
C77	C	0.945667	-1.060079	-0.262209
C78	C	1.445667	-0.560079	0.237791
C79	C	0.865490	-1.060156	-0.342252
C80	C	1.365490	-0.560156	0.157748
C81	C	0.865455	-0.950434	-0.342235
C82	C	1.365455	-0.450434	0.157765
C83	C	0.991916	-0.950312	-0.215975
C84	C	1.491916	-0.450312	0.284025
C85	C	0.991955	-1.060036	-0.215994
C86	C	1.491955	-0.560036	0.284006
C87	C	1.068943	-0.505738	-0.302271
C88	C	1.568943	-0.005738	0.197729
C89	C	1.138584	-0.505714	-0.302303
C90	C	1.638584	-0.005714	0.197697
C91	C	0.905571	-0.505771	-0.465621
C92	C	1.405571	-0.005771	0.034379
C93	C	0.905593	-0.505762	-0.535263
C94	C	1.405593	-0.005762	-0.035263
C95	C	0.905574	-0.231759	-0.302225
C96	C	1.405574	0.268241	0.197775
C97	C	0.905597	-0.114983	-0.302236
C98	C	1.405597	0.385017	0.197764
C99	C	0.945678	-0.438550	-0.568001
C100	C	1.445678	0.061450	-0.068001
C101	C	0.945678	-0.438504	-0.633437
C102	C	1.445678	0.061496	-0.133437
C103	C	0.905598	-0.505691	-0.666131
C104	C	1.405598	-0.005691	-0.166131
C105	C	0.865505	-0.572908	-0.633384
C106	C	1.365505	-0.072908	-0.133384
C107	C	0.865503	-0.572944	-0.567950
C108	C	1.365503	-0.072944	-0.067950
C109	C	0.900638	-0.600292	-0.769799
C110	C	1.400638	-0.100292	-0.269799
C111	C	0.900645	-0.600258	-0.835232
C112	C	1.400645	-0.100258	-0.335232
C113	C	0.905602	-0.505580	-0.867952
C114	C	1.405602	-0.005580	-0.367952
C115	C	0.910566	-0.410932	-0.835230
C116	C	1.410566	0.089068	-0.335230
C117	C	0.910563	-0.410968	-0.769796
C118	C	1.410563	0.089032	-0.269796
C119	C	0.905596	-0.505659	-0.737083
C120	C	1.405596	-0.005659	-0.237083
C121	C	0.945688	-0.438312	-0.971643
C122	C	1.445688	0.061688	-0.471643
C123	C	0.945683	-0.438265	-1.037080
C124	C	1.445683	0.061735	-0.537080
C125	C	0.865514	-0.572678	-1.037026
C126	C	1.365514	-0.072678	-0.537026
C127	C	0.865516	-0.572716	-0.971591
C128	C	1.365516	-0.072716	-0.471591
C129	C	0.905607	-0.505534	-0.938903
C130	C	1.405607	-0.005534	-0.438903
C131	C	0.905503	-0.505738	-0.139410
C132	C	1.405503	-0.005738	0.360590
C133	C	0.905603	-0.505451	-0.069770
C134	C	1.405603	-0.005451	0.430230
H135	H	0.144694	-0.627796	-0.374875
H136	H	0.644694	-0.127796	0.125125
C137	C	1.057444	-0.909942	-0.233608
C138	C	1.557444	-0.409942	0.266392
H139	H	1.057418	-0.835484	-0.233589
H140	H	1.557418	-0.335484	0.266411
H141	H	1.068274	-0.934698	-0.274058
H142	H	1.568274	-0.434698	0.225942
H143	H	1.087066	-0.934726	-0.204043
H144	H	1.587066	-0.434726	0.295957
H145	H	0.263401	-0.627849	-0.374827
H146	H	0.763401	-0.127849	0.125173
C147	C	0.989771	-0.364645	-0.532048
C148	C	1.489771	0.135355	-0.032048
H149	H	1.013641	-0.324602	-0.560922
H150	H	1.513641	0.175398	-0.060922
H151	H	1.017061	-0.404836	-0.506543
H152	H	1.517061	0.095164	-0.006543
H153	H	0.965808	-0.318883	-0.506505
H154	H	1.465808	0.181117	-0.006505
H155	H	0.548330	-0.627939	-0.374725
H156	H	1.048330	-0.127939	0.125275
C157	C	0.135288	-0.364400	-0.218299
C158	C	0.635288	0.135600	0.281701
H159	H	0.164136	-0.324329	-0.194470
H160	H	0.664136	0.175671	0.305530
H161	H	0.109712	-0.404509	-0.190968
H162	H	0.609712	0.095491	0.309032
H163	H	0.109811	-0.318670	-0.242328
H164	H	0.609811	0.181330	0.257672
C165	C	0.676333	-0.364578	-0.218112
C166	C	1.176333	0.135422	0.281888
H167	H	0.719991	-0.374226	-0.223828
H168	H	1.219991	0.125774	0.276172
H169	H	0.665555	-0.379840	-0.176002
H170	H	1.165555	0.120160	0.323998
H171	H	0.665652	-0.294003	-0.227364
H172	H	1.165652	0.205997	0.272636
H173	H	0.974545	-0.916349	-0.169854
H174	H	1.474545	-0.416349	0.330146
C175	C	0.974439	-1.100365	-0.150430
C176	C	1.474439	-0.600365	0.349570
H177	H	0.974473	-1.174823	-0.150444
H178	H	1.474473	-0.674823	0.349556
H179	H	0.934002	-1.075642	-0.139536
H180	H	1.434002	-0.575642	0.360464
H181	H	1.004048	-1.075522	-0.120861
H182	H	1.504048	-0.575522	0.379139
C183	C	0.821416	-1.120542	-0.386287
C184	C	1.321416	-0.620542	0.113713
H185	H	0.797529	-1.072176	-0.410117
H186	H	1.297529	-0.572176	0.089883
H187	H	0.794142	-1.163419	-0.362296
H188	H	1.294142	-0.663419	0.137704
H189	H	0.845392	-1.163272	-0.413625
H190	H	1.345392	-0.663272	0.086375
C191	C	0.474417	-0.488086	-0.183648
C192	C	0.974417	0.011914	0.316352
H193	H	0.445525	-0.483053	-0.150043
H194	H	0.945525	0.016947	0.349957
H195	H	0.499958	-0.427182	-0.184537
H196	H	0.999958	0.072818	0.315463
H197	H	0.499923	-0.548279	-0.178051
H198	H	0.999923	-0.048279	0.321949
C199	C	0.272690	-0.364460	-0.218248
C200	C	0.772690	0.135540	0.281752
H201	H	0.243824	-0.324384	-0.194430
H202	H	0.743824	0.175616	0.305570
H203	H	0.298264	-0.318750	-0.242250
H204	H	0.798264	0.181250	0.257750
H205	H	0.298165	-0.404602	-0.190897
H206	H	0.798165	0.095398	0.309103
H207	H	1.038057	-1.093969	-0.233433
H208	H	1.538057	-0.593969	0.266567
C209	C	0.821427	-0.646659	-0.935576
C210	C	1.321427	-0.146659	-0.435576
H211	H	0.797559	-0.686672	-0.964418
H212	H	1.297559	-0.186672	-0.464418
H213	H	0.794135	-0.606493	-0.910028
H214	H	1.294135	-0.106493	-0.410028
H215	H	0.845388	-0.692446	-0.910072
H216	H	1.345388	-0.192446	-0.410072
C217	C	0.989778	-0.364576	-0.669457
C218	C	1.489778	0.135424	-0.169457
H219	H	1.013656	-0.324577	-0.640618
H220	H	1.513656	0.175423	-0.140618
H221	H	0.965826	-0.318791	-0.694967
H222	H	1.465826	0.181209	-0.194967
H223	H	1.017068	-0.404762	-0.695001
H224	H	1.517068	0.095238	-0.195001
H225	H	0.832804	-0.905801	-0.374821
H226	H	1.332804	-0.405801	0.125179
C227	C	0.916015	-0.306868	-0.733801
C228	C	1.416015	0.193132	-0.233801
H229	H	0.915307	-0.320455	-0.690146
H230	H	1.415307	0.179545	-0.190146
H231	H	0.881941	-0.262681	-0.744497
H232	H	1.381941	0.237319	-0.244497
H233	H	0.954169	-0.273254	-0.744548
H234	H	1.454169	0.226746	-0.244548
H235	H	0.346379	-0.490512	-0.199817
H236	H	0.846379	0.009488	0.300183
C237	C	0.895193	-0.704362	-0.871223
C238	C	1.395193	-0.204362	-0.371223
H239	H	0.895915	-0.690784	-0.914879
H240	H	1.395915	-0.190784	-0.414879
H241	H	0.857043	-0.737977	-0.860477
H242	H	1.357043	-0.237977	-0.360477
H243	H	0.929272	-0.748546	-0.860523
H244	H	1.429272	-0.248546	-0.360523
C245	C	0.989774	-0.364400	-0.935684
C246	C	1.489774	0.135600	-0.435684
H247	H	1.013640	-0.324349	-0.964557
H248	H	1.513640	0.175651	-0.464557
H249	H	1.017068	-0.404586	-0.910179
H250	H	1.517068	0.095414	-0.410179
H251	H	0.965806	-0.318647	-0.910140
H252	H	1.465806	0.181353	-0.410140
C253	C	0.916426	-0.306843	-0.871212
C254	C	1.416426	0.193157	-0.371212
H255	H	0.915834	-0.320391	-0.914868
H256	H	1.415834	0.179609	-0.414868
H257	H	0.954676	-0.273702	-0.860363
H258	H	1.454676	0.226298	-0.360363
H259	H	0.882496	-0.262245	-0.860611
H260	H	1.382496	0.237755	-0.360611
C261	C	0.895048	-0.704424	-0.733814
C262	C	1.395048	-0.204424	-0.233814
H263	H	0.892061	-0.760780	-0.762672
H264	H	1.392061	-0.260780	-0.262672
H265	H	0.858696	-0.702935	-0.708312
H266	H	1.358696	-0.202935	-0.208312
H267	H	0.930909	-0.713800	-0.708265
H268	H	1.430909	-0.213800	-0.208265
C269	C	0.989779	-0.364328	-1.073093
C270	C	1.489779	0.135672	-0.573093
H271	H	1.013658	-0.324333	-1.044251
H272	H	1.513658	0.175667	-0.544251
H273	H	0.965825	-0.318540	-1.098598
H274	H	1.465825	0.181460	-0.598598
H275	H	1.017071	-0.404506	-1.098641
H276	H	1.517071	0.095494	-0.598641
C277	C	0.821432	-0.646589	-1.072982
C278	C	1.321432	-0.146589	-0.572982
H279	H	0.827177	-0.636948	-1.116642
H280	H	1.327177	-0.136948	-0.616642
H281	H	0.779336	-0.631243	-1.062228
H282	H	1.279336	-0.131243	-0.562228
H283	H	0.830596	-0.717184	-1.062267
H284	H	1.330596	-0.217184	-0.562267
H285	H	0.548270	-0.383770	-0.229585
H286	H	1.048270	0.116230	0.270415
C287	C	0.821422	-0.646816	-0.669345
C288	C	1.321422	-0.146816	-0.169345
H289	H	0.827170	-0.637177	-0.713005
H290	H	1.327170	-0.137177	-0.213005
H291	H	0.779327	-0.631463	-0.658593
H292	H	1.279327	-0.131463	-0.158593
H293	H	0.830583	-0.717412	-0.658629
H294	H	1.330583	-0.217412	-0.158629
C295	C	0.821417	-0.646896	-0.531936
C296	C	1.321417	-0.146896	-0.031936
H297	H	0.797549	-0.686911	-0.560777
H298	H	1.297549	-0.186911	-0.060777
H299	H	0.794124	-0.606740	-0.506382
H300	H	1.294124	-0.106740	-0.006382
H301	H	0.845385	-0.692681	-0.506437
H302	H	1.345385	-0.192681	-0.006437
H303	H	0.465301	-0.521123	-0.404585
H304	H	0.965301	-0.021123	0.095415
C305	C	0.676394	-0.647238	-0.386087
C306	C	1.176394	-0.147238	0.113913
H307	H	0.720048	-0.637630	-0.380337
H308	H	1.220048	-0.137630	0.119663
H309	H	0.665731	-0.631993	-0.428209
H310	H	1.165731	-0.131993	0.071791
H311	H	0.665621	-0.717796	-0.376826
H312	H	1.165621	-0.217796	0.123174
C313	C	0.337262	-0.523477	-0.420759
C314	C	0.837262	-0.023477	0.079241
H315	H	0.293598	-0.522243	-0.412693
H316	H	0.793598	-0.022243	0.087307
H317	H	0.347978	-0.587489	-0.440726
H318	H	0.847978	-0.087489	0.059274
H319	H	0.348043	-0.466386	-0.447168
H320	H	0.848043	0.033614	0.052832
