data_functionalizedCrystal
_audit_creation_method	'MofGen! by Chris Wilmer'
_symmetry_space_group_name_H-M	'P1'
_symmetry_Int_Tables_number	1
_symmetry_cell_setting	triclinic
loop_
_symmetry_equiv_pos_as_xyz
  x,y,z
_cell_length_a	21.395364
_cell_length_b	21.395361
_cell_length_c	12.759393
_cell_angle_alpha	89.964307
_cell_angle_beta	90.022716
_cell_angle_gamma	89.973702
loop_
_atom_site_label
_atom_site_type_symbol
_atom_site_fract_x
_atom_site_fract_y
_atom_site_fract_z
Zn1	Zn	0.957849	0.249479	0.594032
Zn2	Zn	0.957755	0.354269	0.418336
Zn3	Zn	0.853067	0.249502	0.418362
Zn4	Zn	0.853033	0.354215	0.593968
O5	O	0.905426	0.301866	0.506174
O6	O	1.045514	0.263393	0.570742
O7	O	0.943843	0.340404	0.271318
O8	O	0.867020	0.161821	0.441702
O9	O	1.045445	0.340382	0.441659
O10	O	0.944003	0.161804	0.570766
O11	O	0.866929	0.263432	0.271337
O12	O	0.765385	0.263379	0.441640
O13	O	0.866962	0.340289	0.740997
O14	O	0.765360	0.340311	0.570657
O15	O	0.943970	0.263340	0.741045
O16	O	0.943810	0.441940	0.441596
O17	O	0.866871	0.441900	0.570632
C18	C	0.742638	0.301842	0.506145
C19	C	0.672997	0.301847	0.506157
C20	C	0.171236	0.261873	0.573512
C21	C	0.236672	0.261868	0.573512
C22	C	0.269359	0.301885	0.506198
C23	C	0.236605	0.341922	0.438898
C24	C	0.171171	0.341930	0.438908
C25	C	0.372997	0.306754	0.411512
C26	C	0.438430	0.306741	0.411500
C27	C	0.471179	0.301865	0.506169
C28	C	0.438488	0.296987	0.600852
C29	C	0.373054	0.296995	0.600861
C30	C	0.340311	0.301882	0.506181
C31	C	0.574878	0.261829	0.573469
C32	C	0.640314	0.261829	0.573471
C33	C	0.640247	0.341879	0.438848
C34	C	0.574811	0.341883	0.438856
C35	C	0.542131	0.301854	0.506165
C36	C	0.905344	0.464654	0.506128
C37	C	0.905366	0.534295	0.506143
C38	C	0.945463	0.567008	0.439025
C39	C	0.945493	0.632444	0.439053
C40	C	0.905413	0.665163	0.506188
C41	C	0.865313	0.632442	0.573319
C42	C	0.865289	0.567008	0.573296
C43	C	0.848999	0.768873	0.514429
C44	C	0.849022	0.834306	0.514444
C45	C	0.905487	0.866984	0.506264
C46	C	0.961931	0.834221	0.498047
C47	C	0.961908	0.768787	0.498024
C48	C	0.905435	0.736116	0.506221
C49	C	0.945620	0.970650	0.439174
C50	C	0.945650	1.036086	0.439209
C51	C	0.865465	1.036084	0.573470
C52	C	0.865440	0.970649	0.573439
C53	C	0.905517	0.937935	0.506286
C54	C	1.068849	0.301891	0.506204
C55	C	1.138490	0.301901	0.506217
C56	C	0.905473	0.301806	0.780208
C57	C	0.905493	0.301780	0.896985
C58	C	0.905526	1.138443	0.506262
C59	C	0.905571	1.068802	0.506346
C60	C	0.905415	0.301881	0.233207
C61	C	0.905517	0.301730	0.116431
C62	C	0.945594	0.261707	0.951873
C63	C	0.945604	0.261680	1.061597
C64	C	0.865411	0.341806	1.061535
C65	C	0.865398	0.341829	0.951813
H66	H	0.465151	0.293013	0.677939
C67	C	0.821379	1.072065	0.647322
H68	H	0.797496	1.043207	0.687296
H69	H	0.794101	1.097636	0.607104
H70	H	0.845347	1.097545	0.693150
C71	C	0.135291	0.217849	0.647558
H72	H	0.164169	0.194012	0.687643
H73	H	0.109761	0.190525	0.607457
H74	H	0.109773	0.241854	0.693275
H75	H	0.832739	0.374461	0.907122
H76	H	0.263223	0.374506	0.384093
H77	H	0.346439	0.293025	0.677955
H78	H	0.263338	0.229269	0.628310
H79	H	0.978147	0.659084	0.384398
C80	C	0.135149	0.385959	0.364873
H81	H	0.163986	0.409790	0.324778
H82	H	0.109622	0.413287	0.404982
H83	H	0.109622	0.361957	0.319166
H84	H	0.803061	0.860976	0.521125
C85	C	0.786883	0.732933	0.523435
H86	H	0.753272	0.761815	0.528318
H87	H	0.787670	0.707377	0.584328
H88	H	0.781385	0.707441	0.463200
C89	C	0.538927	0.217810	0.647521
H90	H	0.567803	0.193977	0.687614
H91	H	0.513398	0.190483	0.607424
H92	H	0.513407	0.241820	0.693230
H93	H	0.666860	0.374467	0.384048
C94	C	1.023991	0.732750	0.489002
H95	H	1.057626	0.761579	0.484142
H96	H	1.023190	0.707252	0.428096
H97	H	1.029464	0.707193	0.549225
C98	C	0.989531	0.531024	0.365139
H99	H	0.983767	0.487368	0.374722
H100	H	1.031634	0.541698	0.380552
H101	H	0.980365	0.541800	0.294545
H102	H	0.666975	0.229234	0.628278
H103	H	0.548149	0.374476	0.384052
H104	H	1.007911	0.860826	0.491387
H105	H	0.978254	0.944014	0.384496
H106	H	0.465042	0.310709	0.334404
C107	C	0.821315	0.385861	1.121845
H108	H	0.797426	0.409727	1.073437
H109	H	0.845271	0.413156	1.164642
H110	H	0.794033	0.361877	1.164649
C111	C	0.336979	0.312116	0.307370
H112	H	0.365818	0.315010	0.250980
H113	H	0.311439	0.348438	0.308625
H114	H	0.311464	0.276199	0.298250
C115	C	0.989759	1.072071	0.365375
H116	H	1.013618	1.043214	0.325374
H117	H	1.017059	1.097554	0.405610
H118	H	0.965808	1.097640	0.319572
H119	H	0.832786	0.944012	0.628089
C120	C	0.821177	0.531022	0.647123
H121	H	0.797308	0.559878	0.687110
H122	H	0.845119	0.505451	0.692925
H123	H	0.793877	0.505543	0.606873
C124	C	0.821226	0.668431	0.647163
H125	H	0.826978	0.712087	0.637557
H126	H	0.830369	0.657667	0.717765
H127	H	0.779127	0.657748	0.631712
C128	C	0.989690	0.217652	0.891560
H129	H	0.983944	0.223408	0.818351
H130	H	0.980549	0.175550	0.909558
H131	H	1.031786	0.226829	0.909553
C132	C	0.989718	0.217602	1.121970
H133	H	1.013596	0.193759	1.073598
H134	H	0.965776	0.190286	1.164776
H135	H	1.017008	0.241570	1.164770
