data_functionalizedCrystal
_audit_creation_method	'MofGen! by Chris Wilmer'
_symmetry_space_group_name_H-M	'P1'
_symmetry_Int_Tables_number	1
_symmetry_cell_setting	triclinic
loop_
_symmetry_equiv_pos_as_xyz
  x,y,z
_cell_length_a	12.759401
_cell_length_b	17.077402
_cell_length_c	12.759393
_cell_angle_alpha	90.032432
_cell_angle_beta	90.019676
_cell_angle_gamma	90.023919
loop_
_atom_site_label
_atom_site_type_symbol
_atom_site_fract_x
_atom_site_fract_y
_atom_site_fract_z
Zn1	Zn	1.606202	-0.312461	0.593971
Zn2	Zn	1.606066	-0.443747	0.418285
Zn3	Zn	1.430501	-0.312500	0.418310
Zn4	Zn	1.430466	-0.443690	0.593926
O5	O	1.518309	-0.378100	0.506123
O6	O	1.753205	-0.329884	0.570674
O7	O	1.582735	-0.426378	0.271267
O8	O	1.453880	-0.202648	0.441641
O9	O	1.753105	-0.426340	0.441598
O10	O	1.582967	-0.202620	0.570698
O11	O	1.453748	-0.329951	0.271285
O12	O	1.283475	-0.329895	0.441597
O13	O	1.453820	-0.426242	0.740953
O14	O	1.283449	-0.426280	0.570622
O15	O	1.582933	-0.329829	0.740986
O16	O	1.582701	-0.553587	0.441555
O17	O	1.453688	-0.553545	0.570598
C18	C	1.245341	-0.378086	0.506108
C19	C	1.128565	-0.378099	0.506126
C20	C	1.073755	-0.327966	0.573440
C21	C	0.964031	-0.327974	0.573447
C22	C	0.963936	-0.428256	0.438824
C23	C	1.073658	-0.428243	0.438813
C24	C	1.518204	-0.582048	0.506092
C25	C	1.518256	-0.669297	0.506113
C26	C	1.585435	-0.710205	0.573368
C27	C	1.585479	-0.792185	0.573390
C28	C	1.518349	-0.833257	0.506152
C29	C	1.451162	-0.792343	0.438895
C30	C	1.451114	-0.710365	0.438878
C31	C	1.451270	-0.963213	0.438931
C32	C	1.451320	-1.045198	0.438946
C33	C	1.585636	-1.045034	0.573443
C34	C	1.585587	-0.963055	0.573427
C35	C	1.518402	-0.922148	0.506168
C36	C	1.792342	-0.378114	0.506138
C37	C	1.909119	-0.378120	0.506145
C38	C	1.518387	-0.378024	0.780156
C39	C	1.518421	-0.377992	0.896933
C40	C	1.518442	-0.173355	0.506177
C41	C	1.518499	-0.086106	0.506200
C42	C	1.518291	-0.378118	0.233155
C43	C	1.518461	-0.377929	0.116379
C44	C	1.585655	-0.327782	0.951814
C45	C	1.585673	-0.327748	1.061538
C46	C	1.451220	-0.428142	1.061491
C47	C	1.451197	-0.428171	0.951769
H48	H	1.118457	-0.287133	0.628248
H49	H	1.396557	-0.929909	0.384166
C50	C	1.659536	-1.090032	0.647431
C51	C	1.650905	-1.078700	0.766858
C52	C	1.724806	-1.123703	0.840837
C53	C	1.807339	-1.180038	0.795390
C54	C	1.815974	-1.191372	0.675957
C55	C	1.742072	-1.146369	0.601977
H56	H	1.589806	-1.036996	0.800506
H57	H	1.718414	-1.115313	0.929250
H58	H	1.862045	-1.213352	0.850154
H59	H	1.877073	-1.233076	0.642308
H60	H	1.748465	-1.154760	0.513565
C61	C	1.377216	-0.665364	0.364896
C62	C	1.294672	-0.609038	0.410344
C63	C	1.220767	-0.564039	0.336364
C64	C	1.229405	-0.575365	0.216937
C65	C	1.311953	-0.631693	0.171483
C66	C	1.385858	-0.676693	0.245463
H67	H	1.288274	-0.600652	0.498757
H68	H	1.159660	-0.522341	0.370013
H69	H	1.174696	-0.542054	0.162173
H70	H	1.318351	-0.640080	0.083070
H71	H	1.446965	-0.718390	0.211814
C72	C	1.377481	-1.090384	0.364987
C73	C	1.386105	-1.079174	0.245555
C74	C	1.312270	-1.124363	0.171593
C75	C	1.229812	-1.180762	0.217063
C76	C	1.221186	-1.191975	0.336501
C77	C	1.295021	-1.146786	0.410463
H78	H	1.447148	-1.037422	0.211889
H79	H	1.318656	-1.116063	0.083177
H80	H	1.175156	-1.214214	0.162312
H81	H	1.160143	-1.233727	0.370167
H82	H	1.288634	-1.155086	0.498879
H83	H	0.919217	-0.469082	0.384021
H84	H	0.919410	-0.287149	0.628258
H85	H	1.640191	-0.825489	0.628147
C86	C	1.659282	-0.665030	0.647331
C87	C	1.733173	-0.710032	0.721313
C88	C	1.807021	-0.664860	0.795281
C89	C	1.806976	-0.574686	0.795266
C90	C	1.733082	-0.529680	0.721281
C91	C	1.659235	-0.574852	0.647314
H92	H	1.733209	-0.776788	0.721326
H93	H	1.861722	-0.698177	0.850049
H94	H	1.861642	-0.541247	0.850021
H95	H	1.733046	-0.462923	0.721268
H96	H	1.604533	-0.541534	0.592545
C97	C	1.659428	-0.917877	0.647392
C98	C	1.778877	-0.929073	0.638933
C99	C	1.852715	-0.883896	0.712904
C100	C	1.807105	-0.827523	0.795333
C101	C	1.687650	-0.816325	0.803796
C102	C	1.613812	-0.861502	0.729825
H103	H	1.812645	-0.970806	0.577911
H104	H	1.941143	-0.892186	0.706639
H105	H	1.861765	-0.794080	0.850091
H106	H	1.653881	-0.774592	0.864818
H107	H	1.525383	-0.853212	0.736090
H108	H	1.118285	-0.469069	0.383992
H109	H	1.396499	-0.825790	0.384153
H110	H	1.396491	-0.468997	1.106151
C111	C	1.659633	-0.272517	1.121907
C112	C	1.733571	-0.217323	1.061585
C113	C	1.807532	-0.162088	1.121954
C114	C	1.807557	-0.162046	1.242644
C115	C	1.733616	-0.217242	1.302972
C116	C	1.659655	-0.272477	1.242604
H117	H	1.733555	-0.217352	0.972237
H118	H	1.862268	-0.121228	1.077294
H119	H	1.862308	-0.121158	1.287332
H120	H	1.733632	-0.217212	1.392320
H121	H	1.604919	-0.313336	1.287263
C122	C	1.377227	-0.483403	0.891396
C123	C	1.294750	-0.449394	0.815972
C124	C	1.220776	-0.504619	0.755601
C125	C	1.229280	-0.593853	0.770654
C126	C	1.311761	-0.627868	0.846082
C127	C	1.385734	-0.572643	0.906453
H128	H	1.288452	-0.383332	0.804825
H129	H	1.159719	-0.479438	0.699764
H130	H	1.174520	-0.634734	0.725964
H131	H	1.318058	-0.693929	0.857228
H132	H	1.446792	-0.597823	0.962289
H133	H	1.640390	-0.286921	0.907170
