data_functionalizedCrystal
_audit_creation_method	'MofGen! by Chris Wilmer'
_symmetry_space_group_name_H-M	'P1'
_symmetry_Int_Tables_number	1
_symmetry_cell_setting	triclinic
loop_
_symmetry_equiv_pos_as_xyz
  x,y,z
_cell_length_a	21.395362
_cell_length_b	12.759400
_cell_length_c	21.395355
_cell_angle_alpha	89.986153
_cell_angle_beta	89.956060
_cell_angle_gamma	90.030564
loop_
_atom_site_label
_atom_site_type_symbol
_atom_site_fract_x
_atom_site_fract_y
_atom_site_fract_z
Zn1	Zn	0.957929	-0.417943	-0.354606
Zn2	Zn	0.957861	-0.593607	-0.249837
Zn3	Zn	0.853144	-0.417992	-0.249807
Zn4	Zn	0.853143	-0.593629	-0.354542
O5	O	0.905519	-0.505793	-0.302198
O6	O	1.045598	-0.441215	-0.340747
O7	O	0.943942	-0.570323	-0.162155
O8	O	0.867073	-0.270964	-0.263723
O9	O	1.045548	-0.570275	-0.263774
O10	O	0.944058	-0.270928	-0.340719
O11	O	0.867007	-0.441299	-0.162133
O12	O	0.765466	-0.441320	-0.263661
O13	O	0.867071	-0.570312	-0.442228
O14	O	0.765465	-0.570360	-0.340609
O15	O	0.944057	-0.441236	-0.442275
O16	O	0.943941	-0.740631	-0.263712
O17	O	0.867005	-0.740647	-0.340638
C18	C	0.742732	-0.505848	-0.302125
C19	C	0.673090	-0.505897	-0.302109
C20	C	0.640393	-0.573177	-0.342116
C21	C	0.574958	-0.573152	-0.342144
C22	C	0.542222	-0.505857	-0.302154
C23	C	0.574927	-0.438564	-0.262144
C24	C	0.640361	-0.438584	-0.262122
C25	C	0.438496	-0.497393	-0.245748
C26	C	0.373063	-0.497380	-0.245769
C27	C	0.340401	-0.505788	-0.302223
C28	C	0.373181	-0.514231	-0.358657
C29	C	0.438615	-0.514251	-0.358635
C30	C	0.471270	-0.505827	-0.302174
C31	C	0.236752	-0.573044	-0.342263
C32	C	0.171315	-0.573011	-0.342292
C33	C	0.171286	-0.438428	-0.262287
C34	C	0.236721	-0.438456	-0.262264
C35	C	0.269450	-0.505769	-0.302251
C36	C	0.905482	-0.778760	-0.302185
C37	C	0.905523	-0.895537	-0.302200
C38	C	0.945629	-0.950355	-0.262189
C39	C	0.945667	-1.060079	-0.262209
C40	C	0.865490	-1.060156	-0.342252
C41	C	0.865455	-0.950434	-0.342235
C42	C	0.991916	-0.950312	-0.215975
C43	C	0.991955	-1.060036	-0.215994
C44	C	1.068943	-0.505738	-0.302271
C45	C	1.138584	-0.505714	-0.302303
C46	C	0.905571	-0.505771	-0.465621
C47	C	0.905593	-0.505762	-0.535263
C48	C	0.905574	-0.231759	-0.302225
C49	C	0.905597	-0.114983	-0.302236
C50	C	0.945678	-0.438550	-0.568001
C51	C	0.945678	-0.438504	-0.633437
C52	C	0.905598	-0.505691	-0.666131
C53	C	0.865505	-0.572908	-0.633384
C54	C	0.865503	-0.572944	-0.567950
C55	C	0.900638	-0.600292	-0.769799
C56	C	0.900645	-0.600258	-0.835232
C57	C	0.905602	-0.505580	-0.867952
C58	C	0.910566	-0.410932	-0.835230
C59	C	0.910563	-0.410968	-0.769796
C60	C	0.905596	-0.505659	-0.737083
C61	C	0.945688	-0.438312	-0.971643
C62	C	0.945683	-0.438265	-1.037080
C63	C	0.865514	-0.572678	-1.037026
C64	C	0.865516	-0.572716	-0.971591
C65	C	0.905607	-0.505534	-0.938903
C66	C	0.905503	-0.505738	-0.139410
C67	C	0.905603	-0.505451	-0.069770
H68	H	0.144694	-0.627796	-0.374875
C69	C	1.057444	-0.909942	-0.233608
H70	H	1.057418	-0.835484	-0.233589
H71	H	1.068274	-0.934698	-0.274058
H72	H	1.087066	-0.934726	-0.204043
H73	H	0.263401	-0.627849	-0.374827
C74	C	0.989771	-0.364645	-0.532048
H75	H	1.013641	-0.324602	-0.560922
H76	H	1.017061	-0.404836	-0.506543
H77	H	0.965808	-0.318883	-0.506505
H78	H	0.548330	-0.627939	-0.374725
C79	C	0.135288	-0.364400	-0.218299
H80	H	0.164136	-0.324329	-0.194470
H81	H	0.109712	-0.404509	-0.190968
H82	H	0.109811	-0.318670	-0.242328
C83	C	0.676333	-0.364578	-0.218112
H84	H	0.719991	-0.374226	-0.223828
H85	H	0.665555	-0.379840	-0.176002
H86	H	0.665652	-0.294003	-0.227364
H87	H	0.974545	-0.916349	-0.169854
C88	C	0.974439	-1.100365	-0.150430
H89	H	0.974473	-1.174823	-0.150444
H90	H	0.934002	-1.075642	-0.139536
H91	H	1.004048	-1.075522	-0.120861
C92	C	0.821416	-1.120542	-0.386287
H93	H	0.797529	-1.072176	-0.410117
H94	H	0.794142	-1.163419	-0.362296
H95	H	0.845392	-1.163272	-0.413625
C96	C	0.474417	-0.488086	-0.183648
H97	H	0.445525	-0.483053	-0.150043
H98	H	0.499958	-0.427182	-0.184537
H99	H	0.499923	-0.548279	-0.178051
C100	C	0.272690	-0.364460	-0.218248
H101	H	0.243824	-0.324384	-0.194430
H102	H	0.298264	-0.318750	-0.242250
H103	H	0.298165	-0.404602	-0.190897
H104	H	1.038057	-1.093969	-0.233433
C105	C	0.821427	-0.646659	-0.935576
H106	H	0.797559	-0.686672	-0.964418
H107	H	0.794135	-0.606493	-0.910028
H108	H	0.845388	-0.692446	-0.910072
C109	C	0.989778	-0.364576	-0.669457
H110	H	1.013656	-0.324577	-0.640618
H111	H	0.965826	-0.318791	-0.694967
H112	H	1.017068	-0.404762	-0.695001
H113	H	0.832804	-0.905801	-0.374821
C114	C	0.916015	-0.306868	-0.733801
H115	H	0.915307	-0.320455	-0.690146
H116	H	0.881941	-0.262681	-0.744497
H117	H	0.954169	-0.273254	-0.744548
H118	H	0.346379	-0.490512	-0.199817
C119	C	0.895193	-0.704362	-0.871223
H120	H	0.895915	-0.690784	-0.914879
H121	H	0.857043	-0.737977	-0.860477
H122	H	0.929272	-0.748546	-0.860523
C123	C	0.989774	-0.364400	-0.935684
H124	H	1.013640	-0.324349	-0.964557
H125	H	1.017068	-0.404586	-0.910179
H126	H	0.965806	-0.318647	-0.910140
C127	C	0.916426	-0.306843	-0.871212
H128	H	0.915834	-0.320391	-0.914868
H129	H	0.954676	-0.273702	-0.860363
H130	H	0.882496	-0.262245	-0.860611
C131	C	0.895048	-0.704424	-0.733814
H132	H	0.892061	-0.760780	-0.762672
H133	H	0.858696	-0.702935	-0.708312
H134	H	0.930909	-0.713800	-0.708265
C135	C	0.989779	-0.364328	-1.073093
H136	H	1.013658	-0.324333	-1.044251
H137	H	0.965825	-0.318540	-1.098598
H138	H	1.017071	-0.404506	-1.098641
C139	C	0.821432	-0.646589	-1.072982
H140	H	0.827177	-0.636948	-1.116642
H141	H	0.779336	-0.631243	-1.062228
H142	H	0.830596	-0.717184	-1.062267
H143	H	0.548270	-0.383770	-0.229585
C144	C	0.821422	-0.646816	-0.669345
H145	H	0.827170	-0.637177	-0.713005
H146	H	0.779327	-0.631463	-0.658593
H147	H	0.830583	-0.717412	-0.658629
C148	C	0.821417	-0.646896	-0.531936
H149	H	0.797549	-0.686911	-0.560777
H150	H	0.794124	-0.606740	-0.506382
H151	H	0.845385	-0.692681	-0.506437
H152	H	0.465301	-0.521123	-0.404585
C153	C	0.676394	-0.647238	-0.386087
H154	H	0.720048	-0.637630	-0.380337
H155	H	0.665731	-0.631993	-0.428209
H156	H	0.665621	-0.717796	-0.376826
C157	C	0.337262	-0.523477	-0.420759
H158	H	0.293598	-0.522243	-0.412693
H159	H	0.347978	-0.587489	-0.440726
H160	H	0.348043	-0.466386	-0.447168
