data_functionalizedCrystal
_audit_creation_method	'MofGen! by Chris Wilmer'
_symmetry_space_group_name_H-M	'P1'
_symmetry_Int_Tables_number	1
_symmetry_cell_setting	triclinic
loop_
_symmetry_equiv_pos_as_xyz
  x,y,z
_cell_length_a	12.759401
_cell_length_b	12.759399
_cell_length_c	12.759393
_cell_angle_alpha	90.031461
_cell_angle_beta	90.020473
_cell_angle_gamma	90.016641
loop_
_atom_site_label
_atom_site_type_symbol
_atom_site_fract_x
_atom_site_fract_y
_atom_site_fract_z
Zn1	Zn	1.606259	-0.418167	0.594017
Zn2	Zn	1.606150	-0.593884	0.418336
Zn3	Zn	1.430559	-0.418225	0.418352
Zn4	Zn	1.430548	-0.593809	0.593973
O5	O	1.518379	-0.506021	0.506170
O6	O	1.753265	-0.441484	0.570724
O7	O	1.582816	-0.570638	0.271317
O8	O	1.453916	-0.271196	0.441680
O9	O	1.753185	-0.570582	0.441652
O10	O	1.583002	-0.271154	0.570740
O11	O	1.453810	-0.441582	0.271329
O12	O	1.283536	-0.441509	0.441637
O13	O	1.453897	-0.570454	0.741000
O14	O	1.283528	-0.570510	0.570665
O15	O	1.582991	-0.441411	0.741032
O16	O	1.582806	-0.740895	0.441609
O17	O	1.453792	-0.740840	0.570649
C18	C	1.245411	-0.506008	0.506149
C19	C	1.128635	-0.506028	0.506165
C20	C	1.518314	-0.778989	0.506146
C21	C	1.518383	-0.895765	0.506171
C22	C	1.073796	-0.573301	0.573244
C23	C	0.964072	-0.573305	0.573265
C24	C	0.964035	-0.438760	0.439118
C25	C	1.073757	-0.438752	0.439104
C26	C	1.585637	-0.950621	0.439056
C27	C	1.585705	-1.060345	0.439091
C28	C	1.451255	-1.060348	0.573359
C29	C	1.451193	-0.950626	0.573328
C30	C	1.792412	-0.506035	0.506191
C31	C	1.909189	-0.506041	0.506200
C32	C	1.518455	-0.505918	0.780203
C33	C	1.518488	-0.505874	0.896980
C34	C	1.518472	-0.231988	0.506217
C35	C	1.518512	-0.115211	0.506237
C36	C	1.518363	-0.506049	0.233202
C37	C	1.518534	-0.505797	0.116426
C38	C	1.585733	-0.438630	1.061592
C39	C	1.585713	-0.438671	0.951867
C40	C	1.451285	-0.573047	0.951822
C41	C	1.451311	-0.573011	1.061544
H42	H	1.118474	-0.628080	0.627852
O43	O	0.910965	-0.638756	0.638457
C44	C	0.922588	-0.772163	0.771551
C45	C	0.982861	-0.698111	0.697753
H46	H	0.980690	-0.820155	0.819527
H47	H	0.871209	-0.827113	0.723279
H48	H	0.871232	-0.723981	0.826537
H49	H	1.034275	-0.746208	0.642753
H50	H	1.034175	-0.643158	0.746091
O51	O	1.126987	-0.373512	0.373787
C52	C	1.160445	-0.322252	0.195165
C53	C	1.100116	-0.396216	0.269006
H54	H	1.138726	-0.340567	0.110436
H55	H	1.248305	-0.333805	0.206587
H56	H	1.138913	-0.237566	0.213819
H57	H	1.121561	-0.480930	0.250397
H58	H	1.012271	-0.384572	0.257571
O59	O	1.650919	-1.113779	0.373900
C60	C	1.665302	-1.237819	0.232160
C61	C	1.591304	-1.177370	0.305903
H62	H	1.617133	-1.289230	0.177151
H63	H	1.720188	-1.289137	0.280480
H64	H	1.713377	-1.179775	0.184206
H65	H	1.543161	-1.235338	0.353872
H66	H	1.536488	-1.126036	0.257522
O67	O	0.910774	-0.373266	0.374084
C68	C	0.877270	-0.194498	0.323355
C69	C	0.937628	-0.268549	0.397093
H70	H	0.898976	-0.109820	0.341917
H71	H	0.789415	-0.205966	0.334885
H72	H	0.898790	-0.212900	0.238612
H73	H	0.916196	-0.250193	0.481864
H74	H	1.025469	-0.257067	0.385472
H75	H	1.640435	-0.383978	0.907226
O76	O	1.651006	-0.897491	0.373793
C77	C	1.784325	-0.909074	0.240579
C78	C	1.710363	-0.969370	0.314453
H79	H	1.832319	-0.967162	0.192567
H80	H	1.839278	-0.857645	0.288795
H81	H	1.736071	-0.857765	0.185630
H82	H	1.758532	-1.020736	0.369416
H83	H	1.655407	-1.020733	0.266171
O84	O	1.386016	-1.113804	0.638486
C85	C	1.326561	-1.282837	0.698078
C86	C	1.400484	-1.222433	0.624254
H87	H	1.338248	-1.370674	0.686613
H88	H	1.241820	-1.261427	0.679545
H89	H	1.344942	-1.261117	0.782794
H90	H	1.382197	-1.244120	0.539513
H91	H	1.485202	-1.243848	0.642877
O92	O	1.385759	-0.897494	0.638561
C93	C	1.252456	-0.909067	0.771787
C94	C	1.326480	-0.969368	0.697948
H95	H	1.204526	-0.967150	0.819837
H96	H	1.197448	-0.857810	0.723541
H97	H	1.300657	-0.857584	0.826702
H98	H	1.278363	-1.020907	0.643019
H99	H	1.381491	-1.020558	0.746260
O100	O	1.386015	-0.638230	0.898345
C101	C	1.326436	-0.697881	0.729293
C102	C	1.400394	-0.623992	0.789721
H103	H	1.338051	-0.686411	0.641460
H104	H	1.241709	-0.679416	0.750785
H105	H	1.344849	-0.782580	0.750911
H106	H	1.382076	-0.539268	0.768135
H107	H	1.485099	-0.642547	0.768224
O108	O	1.385930	-0.638294	1.114655
C109	C	1.252639	-0.771628	1.103041
C110	C	1.326603	-0.697733	1.042762
H111	H	1.204669	-0.819719	1.044942
H112	H	1.197664	-0.723423	1.154387
H113	H	1.300889	-0.826501	1.154431
H114	H	1.278437	-0.642845	0.991316
H115	H	1.381581	-0.746003	0.991482
H116	H	1.640470	-0.383899	1.106273
