data_functionalizedCrystal
_audit_creation_method	'MofGen! by Chris Wilmer'
_symmetry_space_group_name_H-M	'P1'
_symmetry_Int_Tables_number	1
_symmetry_cell_setting	triclinic
loop_
_symmetry_equiv_pos_as_xyz
  x,y,z
_cell_length_a	17.077404
_cell_length_b	17.077402
_cell_length_c	17.077396
_cell_angle_alpha	89.970216
_cell_angle_beta	89.980499
_cell_angle_gamma	90.023108
loop_
_atom_site_label
_atom_site_type_symbol
_atom_site_fract_x
_atom_site_fract_y
_atom_site_fract_z
Zn1	Zn	1.200055	-0.312503	-0.443836
Zn2	Zn	1.700055	0.187497	0.056164
Zn3	Zn	1.199962	-0.443778	-0.312567
Zn4	Zn	1.699962	0.056222	0.187433
Zn5	Zn	1.068786	-0.312531	-0.312584
Zn6	Zn	1.568786	0.187469	0.187416
Zn7	Zn	1.068754	-0.443732	-0.443790
Zn8	Zn	1.568754	0.056268	0.056210
O9	O	1.134389	-0.378136	-0.378194
O10	O	1.634389	0.121864	0.121806
O11	O	1.309889	-0.329925	-0.426434
O12	O	1.809889	0.170075	0.073566
O13	O	1.182536	-0.426399	-0.202722
O14	O	1.682536	0.073601	0.297278
O15	O	1.086252	-0.202680	-0.330021
O16	O	1.586252	0.297320	0.169979
O17	O	1.309821	-0.426372	-0.329992
O18	O	1.809821	0.073628	0.170008
O19	O	1.182694	-0.202660	-0.426451
O20	O	1.682694	0.297340	0.073549
O21	O	1.086162	-0.329972	-0.202734
O22	O	1.586162	0.170028	0.297266
O23	O	0.958935	-0.329927	-0.329976
O24	O	1.458935	0.170073	0.170024
O25	O	1.086197	-0.426293	-0.553643
O26	O	1.586197	0.073707	-0.053643
O27	O	0.958912	-0.426320	-0.426373
O28	O	1.458912	0.073680	0.073627
O29	O	1.182663	-0.329880	-0.553677
O30	O	1.682663	0.170120	-0.053677
O31	O	1.182505	-0.553619	-0.329948
O32	O	1.682505	-0.053619	0.170052
O33	O	1.086107	-0.553585	-0.426357
O34	O	1.586107	-0.053585	0.073643
C35	C	0.930441	-0.378122	-0.378172
C36	C	1.430441	0.121878	0.121828
C37	C	0.843192	-0.378135	-0.378182
C38	C	1.343192	0.121865	0.121818
C39	C	1.134314	-0.582084	-0.378163
C40	C	1.634314	-0.082084	0.121837
C41	C	1.134353	-0.669334	-0.378176
C42	C	1.634353	-0.169334	0.121824
C43	C	0.802210	-0.428402	-0.428295
C44	C	1.302210	0.071598	0.071705
C45	C	0.720229	-0.428404	-0.428308
C46	C	1.220229	0.071596	0.071692
C47	C	0.679232	-0.378141	-0.378202
C48	C	1.179232	0.121859	0.121798
C49	C	0.720220	-0.327869	-0.328087
C50	C	1.220220	0.172131	0.171913
C51	C	0.802199	-0.327863	-0.328079
C52	C	1.302199	0.172137	0.171921
C53	C	0.549350	-0.327884	-0.328106
C54	C	1.049350	0.172116	0.171894
C55	C	0.467365	-0.327890	-0.328112
C56	C	0.967365	0.172110	0.171888
C57	C	0.467380	-0.428424	-0.428335
C58	C	0.967380	0.071576	0.071665
C59	C	0.549359	-0.428419	-0.428327
C60	C	1.049359	0.071581	0.071673
C61	C	0.590341	-0.378147	-0.378210
C62	C	1.090341	0.121853	0.121790
C63	C	1.184598	-0.710316	-0.328029
C64	C	1.684598	-0.210316	0.171971
C65	C	1.184637	-0.792296	-0.328049
C66	C	1.684637	-0.292296	0.171951
C67	C	1.134425	-0.833293	-0.378212
C68	C	1.634425	-0.333293	0.121788
C69	C	1.084178	-0.792305	-0.428364
C70	C	1.584178	-0.292305	0.071636
C71	C	1.084144	-0.710327	-0.428348
C72	C	1.584144	-0.210327	0.071652
C73	C	1.084250	-0.963175	-0.428394
C74	C	1.584250	-0.463175	0.071606
C75	C	1.084283	-1.045160	-0.428410
C76	C	1.584283	-0.545160	0.071590
C77	C	1.184743	-1.045145	-0.328096
C78	C	1.684743	-0.545145	0.171904
C79	C	1.184709	-0.963166	-0.328079
C80	C	1.684709	-0.463166	0.171921
C81	C	1.134461	-0.922184	-0.378230
C82	C	1.634461	-0.422184	0.121770
C83	C	1.339134	-0.378151	-0.378216
C84	C	1.839134	0.121849	0.121784
C85	C	1.426383	-0.378157	-0.378226
C86	C	1.926383	0.121843	0.121774
C87	C	1.134437	-0.378078	-0.582938
C88	C	1.634437	0.121922	-0.082938
C89	C	1.134457	-0.378054	-0.670188
C90	C	1.634457	0.121946	-0.170188
C91	C	1.134487	-0.173392	-0.378243
C92	C	1.634487	0.326608	0.121757
C93	C	1.134528	-0.086142	-0.378263
C94	C	1.634528	0.413858	0.121737
C95	C	1.184689	-0.327847	-0.711197
C96	C	1.684689	0.172153	-0.211197
C97	C	1.184698	-0.327821	-0.793178
C98	C	1.684698	0.172179	-0.293178
C99	C	1.134479	-0.378006	-0.834148
C100	C	1.634479	0.121994	-0.334148
C101	C	1.084242	-0.428214	-0.793133
C102	C	1.584242	0.071786	-0.293133
C103	C	1.084229	-0.428236	-0.711154
C104	C	1.584229	0.071764	-0.211154
C105	C	1.084274	-0.428167	-0.964003
C106	C	1.584274	0.071833	-0.464003
C107	C	1.084288	-0.428147	-1.045988
C108	C	1.584288	0.071853	-0.545988
C109	C	1.184742	-0.327752	-1.046027
C110	C	1.684742	0.172248	-0.546027
C111	C	1.184730	-0.327774	-0.964048
C112	C	1.684730	0.172226	-0.464048
C113	C	1.134493	-0.377984	-0.923039
C114	C	1.634493	0.122016	-0.423039
C115	C	1.134387	-0.378137	-0.174246
C116	C	1.634387	0.121863	0.325754
C117	C	1.134519	-0.377941	-0.086997
C118	C	1.634519	0.122059	0.413003
H119	H	0.835584	-0.469334	-0.469094
H120	H	1.335584	0.030666	0.030906
Br121	Br	0.664614	-0.496625	-0.496324
Br122	Br	1.164614	0.003375	0.003676
H123	H	1.043335	-0.929811	-0.469235
H124	H	1.543335	-0.429811	0.030765
H125	H	1.225660	-1.078516	-0.287263
H126	H	1.725660	-0.578516	0.212737
H127	H	1.043411	-1.078538	-0.469272
H128	H	1.543411	-0.578538	0.030728
Br129	Br	1.252891	-0.259672	-0.908445
Br130	Br	1.752891	0.240328	-0.408445
H131	H	0.582737	-0.469352	-0.469122
H132	H	1.082737	0.030648	0.030878
H133	H	1.225551	-0.825660	-0.287214
H134	H	1.725551	-0.325660	0.212786
H135	H	0.434009	-0.469355	-0.469144
H136	H	0.934009	0.030645	0.030856
Br137	Br	1.015956	-0.654707	-0.496411
Br138	Br	1.515956	-0.154707	0.003589
H139	H	1.043318	-0.469111	-0.677766
H140	H	1.543318	0.030889	-0.177766
Br141	Br	1.252852	-0.259742	-0.655602
Br142	Br	1.752852	0.240258	-0.155602
H143	H	0.433988	-0.286953	-0.287321
H144	H	0.933988	0.213047	0.212679
H145	H	1.225591	-0.929786	-0.287228
H146	H	1.725591	-0.429786	0.212772
H147	H	1.043298	-0.825692	-0.469211
H148	H	1.543298	-0.325692	0.030789
H149	H	0.582715	-0.286940	-0.287302
H150	H	1.082715	0.213060	0.212698
Br151	Br	0.857818	-0.259637	-0.260069
Br152	Br	1.357818	0.240363	0.239931
H153	H	1.225603	-0.286940	-0.826563
H154	H	1.725603	0.213060	-0.326563
H155	H	1.225645	-0.286868	-1.079420
H156	H	1.725645	0.213132	-0.579420
Br157	Br	1.016125	-0.496248	-1.101591
Br158	Br	1.516125	0.003752	-0.601591
H159	H	0.686834	-0.286941	-0.287293
H160	H	1.186834	0.213059	0.212707
H161	H	1.043350	-0.469073	-0.826498
H162	H	1.543350	0.030927	-0.326498
H163	H	1.043354	-0.469041	-0.930616
H164	H	1.543354	0.030959	-0.430616
Br165	Br	1.252739	-0.654685	-0.259939
Br166	Br	1.752739	-0.154685	0.240061
