data_functionalizedCrystal
_audit_creation_method	'MofGen! by Chris Wilmer'
_symmetry_space_group_name_H-M	'P1'
_symmetry_Int_Tables_number	1
_symmetry_cell_setting	triclinic
loop_
_symmetry_equiv_pos_as_xyz
  x,y,z
_cell_length_a	12.759401
_cell_length_b	12.759400
_cell_length_c	12.759393
_cell_angle_alpha	90.030651
_cell_angle_beta	90.017451
_cell_angle_gamma	90.012209
loop_
_atom_site_label
_atom_site_type_symbol
_atom_site_fract_x
_atom_site_fract_y
_atom_site_fract_z
Zn1	Zn	1.606255	-0.418229	0.593991
Zn2	Zn	1.606157	-0.593948	0.418315
Zn3	Zn	1.430560	-0.418281	0.418331
Zn4	Zn	1.430550	-0.593864	0.593956
O5	O	1.518381	-0.506081	0.506148
O6	O	1.753263	-0.441552	0.570696
O7	O	1.582828	-0.570703	0.271296
O8	O	1.453912	-0.271253	0.441654
O9	O	1.753191	-0.570653	0.441627
O10	O	1.582994	-0.271215	0.570711
O11	O	1.453817	-0.441641	0.271307
O12	O	1.283538	-0.441559	0.441620
O13	O	1.453895	-0.570508	0.740982
O14	O	1.283531	-0.570558	0.570651
O15	O	1.582984	-0.441470	0.741008
O16	O	1.582818	-0.740958	0.441593
O17	O	1.453800	-0.740896	0.570636
C18	C	1.245413	-0.506056	0.506134
C19	C	1.128637	-0.506071	0.506152
C20	C	1.073805	-0.438975	0.573463
C21	C	0.964081	-0.438995	0.573469
C22	C	0.964030	-0.573216	0.438853
C23	C	1.073752	-0.573189	0.438841
C24	C	1.073834	-0.361487	0.651186
C25	C	0.964110	-0.361507	0.651193
C26	C	1.518326	-0.779048	0.506132
C27	C	1.518398	-0.895825	0.506160
C28	C	1.585578	-0.950587	0.573415
C29	C	1.585627	-1.060311	0.573441
C30	C	1.451314	-1.060501	0.438947
C31	C	1.451260	-0.950779	0.438927
C32	C	1.663125	-0.950478	0.651061
C33	C	1.663174	-1.060202	0.651086
C34	C	1.792414	-0.506106	0.506164
C35	C	1.909191	-0.506117	0.506170
C36	C	1.518449	-0.505974	0.780182
C37	C	1.518478	-0.505928	0.896959
C38	C	1.518465	-0.232047	0.506188
C39	C	1.518501	-0.115271	0.506205
C40	C	1.518373	-0.506111	0.233181
C41	C	1.518548	-0.505861	0.116405
C42	C	1.451331	-0.438713	0.951833
C43	C	1.451363	-0.438682	1.061557
C44	C	1.585698	-0.573083	1.061523
C45	C	1.585660	-0.573119	0.951801
C46	C	1.373776	-0.361114	0.951853
C47	C	1.373808	-0.361083	1.061577
H48	H	0.930067	-0.284179	0.622191
Br49	Br	1.676776	-0.664359	0.877331
Br50	Br	1.409995	-0.225402	1.111249
H51	H	1.118392	-0.627815	0.384021
Br52	Br	1.676866	-0.664270	1.135959
Br53	Br	0.914521	-0.397999	0.786752
H54	H	1.633983	-1.094197	0.728358
H55	H	1.740417	-0.916412	0.621972
Br56	Br	1.360057	-0.876460	0.347677
H57	H	0.919330	-0.627862	0.384051
Br58	Br	1.238129	-0.397429	0.902212
Br59	Br	1.422385	-0.232317	0.895144
H60	H	1.296512	-0.390207	1.095603
Br61	Br	1.123455	-0.225814	0.615100
Br62	Br	1.360198	-1.135087	0.347712
Br63	Br	1.130621	-0.410214	0.779916
Br64	Br	1.626713	-0.900768	0.786640
Br65	Br	1.798833	-1.109778	0.614884
