data_functionalizedCrystal
_audit_creation_method	'MofGen! by Chris Wilmer'
_symmetry_space_group_name_H-M	'P1'
_symmetry_Int_Tables_number	1
_symmetry_cell_setting	triclinic
loop_
_symmetry_equiv_pos_as_xyz
  x,y,z
_cell_length_a	12.759401
_cell_length_b	12.759400
_cell_length_c	12.759393
_cell_angle_alpha	90.030452
_cell_angle_beta	90.019676
_cell_angle_gamma	90.014999
loop_
_atom_site_label
_atom_site_type_symbol
_atom_site_fract_x
_atom_site_fract_y
_atom_site_fract_z
Zn1	Zn	1.606267	-0.418204	0.593985
Zn2	Zn	1.606159	-0.593919	0.418305
Zn3	Zn	1.430566	-0.418256	0.418324
Zn4	Zn	1.430558	-0.593842	0.593946
O5	O	1.518388	-0.506055	0.506140
O6	O	1.753274	-0.441523	0.570689
O7	O	1.582824	-0.570671	0.271287
O8	O	1.453922	-0.271228	0.441650
O9	O	1.753194	-0.570620	0.441618
O10	O	1.583009	-0.271189	0.570707
O11	O	1.453817	-0.441612	0.271300
O12	O	1.283544	-0.441538	0.441612
O13	O	1.453909	-0.570489	0.740973
O14	O	1.283538	-0.570540	0.570641
O15	O	1.583001	-0.441448	0.741001
O16	O	1.582816	-0.740930	0.441580
O17	O	1.453803	-0.740874	0.570623
C18	C	1.245420	-0.506037	0.506125
C19	C	1.128644	-0.506055	0.506144
C20	C	1.073824	-0.438955	0.573455
C21	C	0.964100	-0.438966	0.573462
C22	C	0.964025	-0.573185	0.438844
C23	C	1.073747	-0.573168	0.438832
C24	C	1.518326	-0.779023	0.506118
C25	C	1.518395	-0.895799	0.506144
C26	C	1.585711	-1.060387	0.439060
C27	C	1.585648	-0.950663	0.439027
C28	C	1.451194	-0.950665	0.573292
C29	C	1.451252	-1.060387	0.573319
C30	C	1.792421	-0.506074	0.506156
C31	C	1.909197	-0.506082	0.506162
C32	C	1.518466	-0.505954	0.780174
C33	C	1.518500	-0.505911	0.896950
C34	C	1.518478	-0.232022	0.506185
C35	C	1.518517	-0.115245	0.506204
C36	C	1.518370	-0.506080	0.233173
C37	C	1.518540	-0.505827	0.116397
C38	C	1.585723	-0.438709	0.951829
C39	C	1.585741	-0.438664	1.061553
C40	C	1.451309	-0.573032	1.061511
C41	C	1.451287	-0.573072	0.951788
H42	H	0.919315	-0.627827	0.384042
H43	H	1.118517	-0.384304	0.628261
N44	N	0.904971	-0.366583	0.646049
H45	H	0.956401	-0.324064	0.688682
H46	H	0.859455	-0.409404	0.694601
H47	H	1.640479	-0.383939	1.106230
N48	N	1.378831	-0.645464	1.120677
H49	H	1.395113	-0.720542	1.101576
H50	H	1.303793	-0.629057	1.101559
N51	N	1.132884	-0.645535	0.366222
H52	H	1.081460	-0.688058	0.323586
H53	H	1.178426	-0.694200	0.408895
N54	N	1.378756	-0.645536	0.892588
H55	H	1.336180	-0.688076	0.943975
H56	H	1.421479	-0.694181	0.847050
N57	N	1.658246	-1.119566	0.366671
H58	H	1.733295	-1.100399	0.383043
H59	H	1.641864	-1.100521	0.291615
N60	N	1.658125	-0.891493	0.366610
H61	H	1.700744	-0.942898	0.324102
H62	H	1.706694	-0.845896	0.409413
H63	H	1.396430	-0.905989	0.627937
N64	N	1.378766	-1.119566	0.645733
H65	H	1.336149	-1.068166	0.688250
H66	H	1.421527	-1.165023	0.694401
N67	N	1.658212	-0.366275	0.892680
H68	H	1.700799	-0.323695	0.944099
H69	H	1.615455	-0.317667	0.847156
