data_functionalizedCrystal
_audit_creation_method	'MofGen! by Chris Wilmer'
_symmetry_space_group_name_H-M	'P1'
_symmetry_Int_Tables_number	1
_symmetry_cell_setting	triclinic
loop_
_symmetry_equiv_pos_as_xyz
  x,y,z
_cell_length_a	12.759401
_cell_length_b	12.759400
_cell_length_c	12.759401
_cell_angle_alpha	90.006787
_cell_angle_beta	90.005677
_cell_angle_gamma	90.013592
loop_
_atom_site_label
_atom_site_type_symbol
_atom_site_fract_x
_atom_site_fract_y
_atom_site_fract_z
Zn1	Zn	1.606132	-0.418438	0.593992
Zn2	Zn	1.606071	-0.594084	0.418316
Zn3	Zn	1.430474	-0.418421	0.418332
Zn4	Zn	1.430428	-0.594076	0.593957
O5	O	1.518276	-0.506255	0.506149
O6	O	1.753145	-0.441748	0.570697
O7	O	1.582772	-0.570778	0.271297
O8	O	1.453821	-0.271402	0.441655
O9	O	1.753100	-0.570794	0.441628
O10	O	1.582876	-0.271414	0.570712
O11	O	1.453761	-0.441719	0.271309
O12	O	1.283447	-0.441712	0.441620
O13	O	1.453742	-0.570781	0.740983
O14	O	1.283413	-0.570765	0.570652
O15	O	1.582831	-0.441740	0.741009
O16	O	1.582727	-0.741104	0.441594
O17	O	1.453682	-0.741098	0.570637
C18	C	1.245309	-0.506237	0.506134
C19	C	1.128532	-0.506254	0.506153
C20	C	1.073694	-0.439181	0.573463
C21	C	0.963970	-0.439192	0.573470
C22	C	0.963932	-0.573358	0.438854
C23	C	1.073654	-0.573341	0.438843
C24	C	1.518221	-0.779222	0.506133
C25	C	1.518294	-0.895999	0.506161
C26	C	1.585459	-0.950787	0.573416
C27	C	1.585508	-1.060512	0.573441
C28	C	1.451223	-1.060648	0.438948
C29	C	1.451170	-0.950926	0.438928
C30	C	1.662991	-0.950709	0.651062
C31	C	1.663040	-1.060433	0.651087
C32	C	1.792310	-0.506274	0.506165
C33	C	1.909086	-0.506282	0.506171
C34	C	1.518288	-0.506262	0.780183
C35	C	1.518293	-0.506265	0.896959
C36	C	1.518360	-0.232222	0.506189
C37	C	1.518396	-0.115445	0.506206
C38	C	1.585501	-0.439084	0.951836
C39	C	1.585492	-0.439082	1.061560
C40	C	1.451063	-0.573451	1.061521
C41	C	1.451068	-0.573447	0.951798
C42	C	1.518264	-0.506271	1.233182
C43	C	1.518279	-0.506267	1.116405
H44	H	0.919326	-0.384573	0.628278
H45	H	1.633833	-1.094461	0.728359
H46	H	1.396334	-0.628150	1.106184
H47	H	1.640219	-0.384375	1.106237
C48	C	0.795717	-0.632964	0.379107
C49	C	0.903605	-0.647107	0.364879
H50	H	0.758478	-0.678502	0.333442
H51	H	0.777742	-0.562362	0.363850
H52	H	0.777762	-0.648456	0.449677
H53	H	0.921562	-0.631607	0.294311
H54	H	0.921588	-0.717726	0.380129
C55	C	1.726838	-0.424485	0.828468
C56	C	1.659383	-0.365229	0.891555
H57	H	1.772451	-0.378884	0.791260
H58	H	1.686814	-0.464486	0.780084
H59	H	1.767010	-0.470258	0.871280
H60	H	1.619205	-0.319461	0.848741
H61	H	1.699411	-0.325210	0.939944
C62	C	1.107425	-0.751164	0.387357
C63	C	1.133942	-0.647076	0.364854
H64	H	1.144651	-0.796679	0.341683
H65	H	1.034234	-0.760772	0.377725
H66	H	1.125424	-0.766635	0.457922
H67	H	1.115936	-0.631602	0.294291
H68	H	1.207149	-0.637463	0.374477
H69	H	1.396469	-0.906318	0.384173
C70	C	1.772952	-1.210318	0.621786
C71	C	1.772918	-1.100576	0.621753
H72	H	1.840784	-1.235098	0.603679
H73	H	1.723364	-1.235173	0.572126
H74	H	1.754746	-1.235107	0.689583
H75	H	1.791117	-1.075787	0.553953
H76	H	1.822522	-1.075711	0.671415
H77	H	1.396331	-0.628153	0.907116
C78	C	1.391676	-1.228906	0.379262
C79	C	1.377448	-1.121029	0.365043
H80	H	1.346133	-1.266179	0.333629
H81	H	1.376253	-1.246869	0.449835
H82	H	1.462289	-1.246834	0.363947
H83	H	1.306837	-1.103100	0.380366
H84	H	1.392863	-1.103059	0.294454
H85	H	1.740289	-0.916629	0.621973
C86	C	1.062708	-0.306561	0.706519
C87	C	1.134018	-0.365433	0.647441
H88	H	1.099949	-0.261026	0.752185
H89	H	1.019918	-0.352406	0.746629
H90	H	1.019905	-0.266310	0.660804
H91	H	1.176816	-0.405690	0.693156
H92	H	1.176825	-0.319582	0.607327
C93	C	1.615606	-0.995844	0.827490
C94	C	1.633467	-0.910491	0.760870
H95	H	1.597373	-0.971012	0.895277
H96	H	1.677363	-1.037150	0.831974
H97	H	1.559955	-1.037244	0.800408
H98	H	1.689124	-0.869094	0.787949
H99	H	1.571703	-0.869167	0.756390
