data_functionalizedCrystal
_audit_creation_method	'MofGen! by Chris Wilmer'
_symmetry_space_group_name_H-M	'P1'
_symmetry_Int_Tables_number	1
_symmetry_cell_setting	triclinic
loop_
_symmetry_equiv_pos_as_xyz
  x,y,z
_cell_length_a	12.759401
_cell_length_b	17.077402
_cell_length_c	12.759393
_cell_angle_alpha	89.966010
_cell_angle_beta	90.020938
_cell_angle_gamma	89.967223
loop_
_atom_site_label
_atom_site_type_symbol
_atom_site_fract_x
_atom_site_fract_y
_atom_site_fract_z
Zn1	Zn	1.606146	0.312438	0.593995
Zn2	Zn	2.106146	0.812438	1.093995
Zn3	Zn	1.605986	0.443724	0.418304
Zn4	Zn	2.105986	0.943724	0.918304
Zn5	Zn	1.430444	0.312480	0.418330
Zn6	Zn	1.930444	0.812480	0.918330
Zn7	Zn	1.430385	0.443670	0.593941
Zn8	Zn	1.930385	0.943670	1.093941
O9	O	1.518240	0.378078	0.506142
O10	O	2.018240	0.878078	1.006142
O11	O	1.753145	0.329859	0.570700
O12	O	2.253145	0.829859	1.070700
O13	O	1.582658	0.426355	0.271286
O14	O	2.082658	0.926355	0.771286
O15	O	1.453843	0.202628	0.441665
O16	O	1.953843	0.702628	0.941665
O17	O	1.753028	0.426314	0.441621
O18	O	2.253028	0.926314	0.941621
O19	O	1.582930	0.202597	0.570725
O20	O	2.082930	0.702597	1.070725
O21	O	1.453688	0.329930	0.271305
O22	O	1.953688	0.829930	0.771305
O23	O	1.283415	0.329877	0.441613
O24	O	1.783415	0.829877	0.941613
O25	O	1.453743	0.426221	0.740969
O26	O	1.953743	0.926221	1.240969
O27	O	1.283372	0.426261	0.570634
O28	O	1.783372	0.926261	1.070634
O29	O	1.582873	0.329806	0.741009
O30	O	2.082873	0.829806	1.241009
O31	O	1.582601	0.553564	0.441569
O32	O	2.082601	1.053564	0.941569
O33	O	1.453588	0.553524	0.570609
O34	O	1.953588	1.053524	1.070609
C35	C	1.245273	0.378068	0.506122
C36	C	1.745273	0.878068	1.006122
C37	C	1.128496	0.378083	0.506138
C38	C	1.628496	0.878083	1.006138
C39	C	1.073639	0.428347	0.573213
C40	C	1.573639	0.928347	1.073213
C41	C	0.963915	0.428350	0.573234
C42	C	1.463915	0.928350	1.073234
C43	C	0.963915	0.327823	0.439095
C44	C	1.463915	0.827823	0.939095
C45	C	1.073637	0.327817	0.439080
C46	C	1.573637	0.827817	0.939080
C47	C	1.518099	0.582026	0.506104
C48	C	2.018099	1.082026	1.006104
C49	C	1.518135	0.669276	0.506122
C50	C	2.018135	1.169276	1.006122
C51	C	1.585306	0.710182	0.573377
C52	C	2.085306	1.210182	1.073377
C53	C	1.585335	0.792163	0.573396
C54	C	2.085335	1.292163	1.073396
C55	C	1.518198	0.833235	0.506155
C56	C	2.018198	1.333235	1.006155
C57	C	1.451019	0.792323	0.438898
C58	C	1.951019	1.292323	0.938898
C59	C	1.450985	0.710344	0.438884
C60	C	1.950985	1.210344	0.938884
C61	C	1.451096	0.963193	0.438928
C62	C	1.951096	1.463193	0.938928
C63	C	1.451131	1.045177	0.438940
C64	C	1.951131	1.545177	0.938940
C65	C	1.585446	1.045012	0.573440
C66	C	2.085446	1.545012	1.073440
C67	C	1.585412	0.963033	0.573426
C68	C	2.085412	1.463033	1.073426
C69	C	1.518235	0.922126	0.506168
C70	C	2.018235	1.422126	1.006168
C71	C	1.792274	0.378088	0.506164
C72	C	2.292274	0.878088	1.006164
C73	C	1.909050	0.378093	0.506173
C74	C	2.409050	0.878093	1.006173
C75	C	1.518319	0.378003	0.780176
C76	C	2.018319	0.878003	1.280176
C77	C	1.518352	0.377971	0.896953
C78	C	2.018352	0.877971	1.396953
C79	C	1.518365	1.173334	0.506195
C80	C	2.018365	1.673334	1.006195
C81	C	1.518302	1.086084	0.506194
C82	C	2.018302	1.586084	1.006194
C83	C	1.518222	0.378096	0.233175
C84	C	2.018222	0.878096	0.733175
C85	C	1.518393	0.377907	0.116399
C86	C	2.018393	0.877907	0.616399
C87	C	1.585596	0.327759	0.951837
C88	C	2.085596	0.827759	1.451837
C89	C	1.585613	0.327725	1.061561
C90	C	2.085613	0.827725	1.561561
C91	C	1.451142	0.428121	1.061507
C92	C	1.951142	0.928121	1.561507
C93	C	1.451120	0.428150	0.951785
C94	C	1.951120	0.928150	1.451785
H95	H	0.919256	0.469279	0.627855
H96	H	1.419256	0.969279	1.127855
H97	H	1.118303	0.286881	0.384459
H98	H	1.618303	0.786881	0.884459
H99	H	1.640144	1.078322	0.628205
H100	H	2.140144	1.578322	1.128205
H101	H	1.396406	0.468977	1.106165
H102	H	1.896406	0.968977	1.606165
H103	H	1.640041	0.825465	0.628153
H104	H	2.140041	1.325465	1.128153
H105	H	1.640086	0.929592	0.628174
H106	H	2.140086	1.429592	1.128174
H107	H	1.640368	0.286837	1.106243
H108	H	2.140368	0.786837	1.606243
H109	H	1.396457	1.078616	0.384191
H110	H	1.896457	1.578616	0.884191
H111	H	1.396389	0.929889	0.384162
H112	H	1.896389	1.429889	0.884162
Cl113	Cl	1.366572	0.491274	0.882782
Cl114	Cl	1.866572	0.991274	1.382782
Cl115	Cl	0.894941	0.264637	0.354796
Cl116	Cl	1.394941	0.764637	0.854796
Cl117	Cl	1.669719	0.658557	0.657908
Cl118	Cl	2.169719	1.158557	1.157908
Cl119	Cl	1.366606	0.843957	0.354376
Cl120	Cl	1.866606	1.343957	0.854376
Cl121	Cl	1.366536	0.658918	0.354334
Cl122	Cl	1.866536	1.158918	0.854334
Cl123	Cl	1.142602	0.491535	0.657518
Cl124	Cl	1.642602	0.991535	1.157518
Cl125	Cl	1.670112	0.264673	0.882908
Cl126	Cl	2.170112	0.764673	1.382908
