data_functionalizedCrystal
_audit_creation_method	'MofGen! by Chris Wilmer'
_symmetry_space_group_name_H-M	'P1'
_symmetry_Int_Tables_number	1
_symmetry_cell_setting	triclinic
loop_
_symmetry_equiv_pos_as_xyz
  x,y,z
_cell_length_a	12.759401
_cell_length_b	12.759393
_cell_length_c	12.759400
_cell_angle_alpha	89.968474
_cell_angle_beta	90.016097
_cell_angle_gamma	89.980119
loop_
_atom_site_label
_atom_site_type_symbol
_atom_site_fract_x
_atom_site_fract_y
_atom_site_fract_z
Zn1	Zn	1.606256	-0.594020	-0.418162
Zn2	Zn	2.106256	-0.094020	0.081838
Zn3	Zn	1.606151	-0.418341	-0.593880
Zn4	Zn	2.106151	0.081659	-0.093880
Zn5	Zn	1.430558	-0.418356	-0.418221
Zn6	Zn	1.930558	0.081644	0.081779
Zn7	Zn	1.430547	-0.593978	-0.593804
Zn8	Zn	1.930547	-0.093978	-0.093804
O9	O	1.518378	-0.506174	-0.506017
O10	O	2.018378	-0.006174	-0.006017
O11	O	1.753263	-0.570728	-0.441478
O12	O	2.253263	-0.070728	0.058522
O13	O	1.582819	-0.271322	-0.570636
O14	O	2.082819	0.228678	-0.070636
O15	O	1.453914	-0.441682	-0.271192
O16	O	1.953914	0.058318	0.228808
O17	O	1.753186	-0.441657	-0.570578
O18	O	2.253186	0.058343	-0.070578
O19	O	1.582998	-0.570742	-0.271148
O20	O	2.082998	-0.070742	0.228852
O21	O	1.453812	-0.271333	-0.441579
O22	O	1.953812	0.228667	0.058421
O23	O	1.283536	-0.441641	-0.441505
O24	O	1.783536	0.058359	0.058495
O25	O	1.453895	-0.741005	-0.570448
O26	O	1.953895	-0.241005	-0.070448
O27	O	1.283528	-0.570670	-0.570505
O28	O	1.783528	-0.070670	-0.070505
O29	O	1.582988	-0.741036	-0.441404
O30	O	2.082988	-0.241036	0.058596
O31	O	1.582808	-0.441615	-0.740891
O32	O	2.082808	0.058385	-0.240891
O33	O	1.453793	-0.570655	-0.740835
O34	O	1.953793	-0.070655	-0.240835
C35	C	1.245411	-0.506153	-0.506004
C36	C	1.745411	-0.006153	-0.006004
C37	C	1.128634	-0.506169	-0.506024
C38	C	1.628634	-0.006169	-0.006024
C39	C	1.518452	-0.780207	-0.505911
C40	C	2.018452	-0.280207	-0.005911
C41	C	1.518483	-0.896984	-0.505865
C42	C	2.018483	-0.396984	-0.005865
C43	C	1.073796	-0.573248	-0.573296
C44	C	1.573796	-0.073248	-0.073296
C45	C	0.964072	-0.573269	-0.573300
C46	C	1.464072	-0.073269	-0.073300
C47	C	0.964034	-0.439122	-0.438756
C48	C	1.464034	0.060878	0.061244
C49	C	1.073757	-0.439107	-0.438748
C50	C	1.573757	0.060893	0.061252
C51	C	1.585711	-0.951864	-0.438666
C52	C	2.085711	-0.451864	0.061334
C53	C	1.585736	-1.061588	-0.438628
C54	C	2.085736	-0.561588	0.061372
C55	C	1.451302	-1.061542	-0.572998
C56	C	1.951302	-0.561542	-0.072998
C57	C	1.451273	-0.951820	-0.573030
C58	C	1.951273	-0.451820	-0.073030
C59	C	1.663328	-0.951891	-0.361092
C60	C	2.163328	-0.451891	0.138908
C61	C	1.663353	-1.061615	-0.361054
C62	C	2.163353	-0.561615	0.138946
C63	C	1.792412	-0.506195	-0.506030
C64	C	2.292412	-0.006195	-0.006030
C65	C	1.909188	-0.506204	-0.506036
C66	C	2.409188	-0.006204	-0.006036
C67	C	1.518316	-0.506152	-0.778984
C68	C	2.018316	-0.006152	-0.278984
C69	C	1.518386	-0.506178	-0.895761
C70	C	2.018386	-0.006178	-0.395761
C71	C	1.518365	-0.233206	-0.506046
C72	C	2.018365	0.266794	-0.006046
C73	C	1.518538	-0.116430	-0.505796
C74	C	2.018538	0.383570	-0.005796
C75	C	1.585703	-0.439095	-1.060348
C76	C	2.085703	0.060905	-0.560348
C77	C	1.585640	-0.439062	-0.950624
C78	C	2.085640	0.060938	-0.450624
C79	C	1.451183	-0.573324	-0.950627
C80	C	1.951183	-0.073324	-0.450627
C81	C	1.451242	-0.573351	-1.060349
C82	C	1.951242	-0.073351	-0.560349
C83	C	1.518469	-0.506218	-0.231983
C84	C	2.018469	-0.006218	0.268017
C85	C	1.518508	-0.506238	-0.115207
C86	C	2.018508	-0.006238	0.384793
H87	H	1.118474	-0.627857	-0.628074
H88	H	1.618474	-0.127857	-0.128074
Cl89	Cl	1.142702	-0.354778	-0.354163
Cl90	Cl	1.642702	0.145222	0.145837
H91	H	1.634240	-1.095662	-0.283745
H92	H	2.134240	-0.595662	0.216255
Cl93	Cl	0.895136	-0.657604	-0.657873
Cl94	Cl	1.395136	-0.157604	-0.157873
H95	H	1.744724	-1.091396	-0.382844
H96	H	2.244724	-0.591396	0.117156
Cl97	Cl	1.670119	-0.354650	-0.881664
Cl98	Cl	2.170119	0.145350	-0.381664
Cl99	Cl	1.366758	-0.657764	-1.129319
Cl100	Cl	1.866758	-0.157764	-0.629319
Cl101	Cl	1.366635	-0.657699	-0.881655
Cl102	Cl	1.866635	-0.157699	-0.381655
H103	H	1.396526	-0.907141	-0.627746
H104	H	1.896526	-0.407141	-0.127746
Cl105	Cl	0.895038	-0.354818	-0.354188
Cl106	Cl	1.395038	0.145182	0.145812
H107	H	1.396580	-1.106204	-0.627678
H108	H	1.896580	-0.606204	-0.127678
H109	H	1.641560	-0.922135	-0.279728
H110	H	2.141560	-0.422135	0.220272
H111	H	1.740600	-0.917857	-0.390258
H112	H	2.240600	-0.417857	0.109742
Cl113	Cl	1.670261	-0.354720	-1.129308
Cl114	Cl	2.170261	0.145280	-0.629308
