data_functionalizedCrystal
_audit_creation_method	'MofGen! by Chris Wilmer'
_symmetry_space_group_name_H-M	'P1'
_symmetry_Int_Tables_number	1
_symmetry_cell_setting	triclinic
loop_
_symmetry_equiv_pos_as_xyz
  x,y,z
_cell_length_a	12.759401
_cell_length_b	21.395362
_cell_length_c	21.395355
_cell_angle_alpha	89.979451
_cell_angle_beta	89.977260
_cell_angle_gamma	90.031316
loop_
_atom_site_label
_atom_site_type_symbol
_atom_site_fract_x
_atom_site_fract_y
_atom_site_fract_z
Zn1	Zn	1.606175	-0.249486	-0.354222
Zn2	Zn	2.106175	0.250514	0.145778
Zn3	Zn	1.606014	-0.354245	-0.249441
Zn4	Zn	2.106014	0.145755	0.250559
Zn5	Zn	1.430468	-0.249489	-0.249462
Zn6	Zn	1.930468	0.250511	0.250538
Zn7	Zn	1.430419	-0.354232	-0.354185
Zn8	Zn	1.930419	0.145768	0.145815
O9	O	1.518269	-0.301863	-0.301828
O10	O	2.018269	0.198137	0.198172
O11	O	1.753174	-0.263387	-0.340330
O12	O	2.253174	0.236613	0.159670
O13	O	1.582681	-0.340356	-0.161766
O14	O	2.082681	0.159644	0.338234
O15	O	1.453864	-0.161810	-0.263384
O16	O	1.953864	0.338190	0.236616
O17	O	1.753056	-0.340353	-0.263347
O18	O	2.253056	0.159647	0.236653
O19	O	1.582955	-0.161808	-0.340350
O20	O	2.082955	0.338192	0.159650
O21	O	1.453708	-0.263392	-0.161782
O22	O	1.953708	0.236608	0.338218
O23	O	1.283441	-0.263379	-0.263347
O24	O	1.783441	0.236621	0.236653
O25	O	1.453780	-0.340330	-0.441867
O26	O	1.953780	0.159670	0.058133
O27	O	1.283405	-0.340333	-0.340286
O28	O	1.783405	0.159667	0.159714
O29	O	1.582907	-0.263374	-0.441895
O30	O	2.082907	0.236626	0.058105
O31	O	1.582633	-0.441922	-0.263311
O32	O	2.082633	0.058078	0.236689
O33	O	1.453624	-0.441912	-0.340265
O34	O	1.953624	0.058088	0.159735
C35	C	1.245302	-0.301855	-0.301815
C36	C	1.745302	0.198145	0.198185
C37	C	1.128525	-0.301867	-0.301825
C38	C	1.628525	0.198133	0.198175
C39	C	1.073672	-0.341998	-0.341824
C40	C	1.573672	0.158002	0.158176
C41	C	0.963948	-0.342001	-0.341836
C42	C	1.463948	0.157999	0.158164
C43	C	0.963940	-0.261739	-0.261845
C44	C	1.463940	0.238261	0.238155
C45	C	1.073662	-0.261734	-0.261836
C46	C	1.573662	0.238266	0.238164
C47	C	1.518135	-0.464651	-0.301795
C48	C	2.018135	0.035349	0.198205
C49	C	1.518173	-0.534292	-0.301803
C50	C	2.018173	-0.034292	0.198197
C51	C	1.585352	-0.566947	-0.341908
C52	C	2.085352	-0.066947	0.158092
C53	C	1.585389	-0.632382	-0.341923
C54	C	2.085389	-0.132382	0.158077
C55	C	1.518258	-0.665160	-0.301822
C56	C	2.018258	-0.165160	0.198178
C57	C	1.451066	-0.632497	-0.261714
C58	C	1.951066	-0.132497	0.238286
C59	C	1.451024	-0.567063	-0.261704
C60	C	1.951024	-0.067063	0.238296
C61	C	1.510080	-0.768861	-0.245383
C62	C	2.010080	-0.268861	0.254617
C63	C	1.510130	-0.834293	-0.245392
C64	C	2.010130	-0.334293	0.254608
C65	C	1.518383	-0.866981	-0.301852
C66	C	2.018383	-0.366981	0.198148
C67	C	1.526608	-0.834227	-0.358306
C68	C	2.026608	-0.334227	0.141694
C69	C	1.526566	-0.768793	-0.358296
C70	C	2.026566	-0.268793	0.141704
C71	C	1.518296	-0.736112	-0.301828
C72	C	2.018296	-0.236112	0.198172
C73	C	1.585606	-0.970588	-0.341977
C74	C	2.085606	-0.470588	0.158023
C75	C	1.585635	-1.036025	-0.341994
C76	C	2.085635	-0.536025	0.158006
C77	C	1.451317	-1.036139	-0.261779
C78	C	1.951317	-0.536139	0.238221
C79	C	1.451282	-0.970703	-0.261769
C80	C	1.951282	-0.470703	0.238231
C81	C	1.518432	-0.937932	-0.301867
C82	C	2.018432	-0.437932	0.198133
C83	C	1.792302	-0.301871	-0.301840
C84	C	2.292302	0.198129	0.198160
C85	C	1.909079	-0.301875	-0.301846
C86	C	2.409079	0.198125	0.198154
C87	C	1.518356	-0.301850	-0.465251
C88	C	2.018356	0.198150	0.034749
C89	C	1.518393	-0.301845	-0.534892
C90	C	2.018393	0.198155	-0.034892
C91	C	1.518432	-0.138440	-0.301874
C92	C	2.018432	0.361560	0.198126
C93	C	1.518502	-0.068798	-0.301893
C94	C	2.018502	0.431202	0.198107
C95	C	1.585627	-0.261772	-0.567621
C96	C	2.085627	0.238228	-0.067621
C97	C	1.585625	-0.261745	-0.633056
C98	C	2.085625	0.238255	-0.133056
C99	C	1.518402	-0.301802	-0.665761
C100	C	2.018402	0.198198	-0.165761
C101	C	1.451155	-0.341878	-0.633024
C102	C	1.951155	0.158122	-0.133024
C103	C	1.451151	-0.341899	-0.567590
C104	C	1.951151	0.158101	-0.067590
C105	C	1.510059	-0.358218	-0.769424
C106	C	2.010059	0.141782	-0.269424
C107	C	1.510071	-0.358197	-0.834857
C108	C	2.010071	0.141803	-0.334857
C109	C	1.518408	-0.301736	-0.867581
C110	C	2.018408	0.198264	-0.367581
C111	C	1.526756	-0.245293	-0.834865
C112	C	2.026756	0.254707	-0.334865
C113	C	1.526752	-0.245314	-0.769430
C114	C	2.026752	0.254686	-0.269430
C115	C	1.518398	-0.301783	-0.736713
C116	C	2.018398	0.198217	-0.236713
C117	C	1.585644	-0.261630	-0.971263
C118	C	2.085644	0.238370	-0.471263
C119	C	1.585635	-0.261602	-1.036699
C120	C	2.085635	0.238398	-0.536699
C121	C	1.451170	-0.341741	-1.036666
C122	C	1.951170	0.158259	-0.536666
C123	C	1.451173	-0.341763	-0.971231
C124	C	1.951173	0.158237	-0.471231
C125	C	1.518416	-0.301709	-0.938533
C126	C	2.018416	0.198291	-0.438533
C127	C	1.518243	-0.301830	-0.139040
C128	C	2.018243	0.198170	0.360960
C129	C	1.518409	-0.301659	-0.069399
C130	C	2.018409	0.198341	0.430601
H131	H	0.919257	-0.229065	-0.229287
H132	H	1.419257	0.270935	0.270713
H133	H	1.640391	-0.229012	-0.944639
H134	H	2.140391	0.270988	-0.444639
H135	H	1.396418	-0.374491	-0.659656
H136	H	1.896418	0.125509	-0.159656
H137	H	1.396651	-1.062826	-0.229132
H138	H	1.896651	-0.562826	0.270868
H139	H	1.396431	-0.374399	-0.944583
H140	H	1.896431	0.125601	-0.444583
C141	C	1.134004	-0.217588	-0.217834
C142	C	1.634004	0.282412	0.282166
H143	H	1.085617	-0.193693	-0.194014
H144	H	1.585617	0.306307	0.305986
H145	H	1.176850	-0.190324	-0.241850
H146	H	1.676850	0.309676	0.258150
H147	H	1.176763	-0.241518	-0.190485
H148	H	1.676763	0.258482	0.309515
H149	H	1.533546	-0.199357	-0.742795
H150	H	2.033546	0.300643	-0.242795
C151	C	1.134023	-0.386141	-0.385808
C152	C	1.634023	0.113859	0.114192
H153	H	1.207226	-0.380397	-0.380071
H154	H	1.707226	0.119603	0.119929
H155	H	1.116089	-0.377038	-0.427925
H156	H	1.616089	0.122962	0.072075
H157	H	1.115995	-0.428226	-0.376555
H158	H	1.615995	0.071774	0.123445
H159	H	1.533547	-0.199317	-0.861507
H160	H	2.033547	0.300683	-0.361507
C161	C	1.501083	-0.870317	-0.183297
C162	C	2.001083	-0.370317	0.316703
H163	H	1.496142	-0.841479	-0.149671
H164	H	1.996142	-0.341479	0.350329
H165	H	1.561314	-0.895811	-0.177821
H166	H	2.061314	-0.395811	0.322179
H167	H	1.440192	-0.895876	-0.184088
H168	H	1.940192	-0.395876	0.315912
H169	H	1.640086	-0.658975	-0.374589
H170	H	2.140086	-0.158975	0.125411
C171	C	1.377197	-0.385983	-0.531584
C172	C	1.877197	0.114017	-0.031584
H173	H	1.386821	-0.380257	-0.487931
H174	H	1.886821	0.119743	0.012069
H175	H	1.392527	-0.428078	-0.542311
H176	H	1.892527	0.071922	-0.042311
H177	H	1.306612	-0.376802	-0.542290
H178	H	1.806612	0.123198	-0.042290
C179	C	1.659213	-0.530902	-0.386014
C180	C	2.159213	-0.030902	0.113986
H181	H	1.699225	-0.559726	-0.409904
H182	H	2.199225	-0.059726	0.090096
H183	H	1.704990	-0.505363	-0.362065
H184	H	2.204990	-0.005363	0.137935
H185	H	1.618986	-0.505385	-0.413295
H186	H	2.118986	-0.005385	0.086705
H187	H	1.503280	-0.404156	-0.861490
H188	H	2.003280	0.095844	-0.361490
H189	H	1.502989	-0.404183	-0.742786
H190	H	2.002989	0.095817	-0.242786
C191	C	1.535600	-0.732766	-0.420389
C192	C	2.035600	-0.232766	0.079611
H193	H	1.540514	-0.761601	-0.454019
H194	H	2.040514	-0.261601	0.045981
H195	H	1.596481	-0.707205	-0.419605
H196	H	2.096481	-0.207205	0.080395
H197	H	1.475357	-0.707273	-0.425856
H198	H	1.975357	-0.207273	0.074144
H199	H	1.533330	-0.860840	-0.404281
H200	H	2.033330	-0.360840	0.095719
C201	C	0.903614	-0.386144	-0.385837
C202	C	1.403614	0.113856	0.114163
H203	H	0.952006	-0.410045	-0.409647
H204	H	1.452006	0.089955	0.090353
H205	H	0.860859	-0.362218	-0.413185
H206	H	1.360859	0.137782	0.086815
H207	H	0.860765	-0.413412	-0.361821
H208	H	1.360765	0.086588	0.138179
C209	C	1.659433	-0.934538	-0.386102
C210	C	2.159433	-0.434538	0.113898
H211	H	1.699432	-0.963360	-0.410001
H212	H	2.199432	-0.463360	0.089999
H213	H	1.705224	-0.908993	-0.362168
H214	H	2.205224	-0.408993	0.137832
H215	H	1.619176	-0.909027	-0.413372
H216	H	2.119176	-0.409027	0.086628
C217	C	1.659596	-0.217520	-1.072701
C218	C	2.159596	0.282480	-0.572701
H219	H	1.699647	-0.193674	-1.043853
H220	H	2.199647	0.306326	-0.543853
H221	H	1.619442	-0.190207	-1.098218
H222	H	2.119442	0.309793	-0.598218
H223	H	1.705349	-0.241487	-1.098236
H224	H	2.205349	0.258513	-0.598236
C225	C	1.659537	-1.071946	-0.386112
C226	C	2.159537	-0.571946	0.113888
H227	H	1.699526	-1.043054	-0.409985
H228	H	2.199526	-0.543054	0.090015
H229	H	1.619346	-1.097479	-0.413397
H230	H	2.119346	-0.597479	0.086603
H231	H	1.705348	-1.097459	-0.362166
H232	H	2.205348	-0.597459	0.137834
C233	C	1.377232	-0.385808	-1.072633
C234	C	1.877232	0.114192	-0.572633
H235	H	1.386868	-0.380060	-1.116291
H236	H	1.886868	0.119940	-0.616291
H237	H	1.306647	-0.376645	-1.061895
H238	H	1.806647	0.123355	-0.561895
H239	H	1.392580	-0.427910	-1.061909
H240	H	1.892580	0.072090	-0.561909
C241	C	1.377392	-0.934778	-0.217650
C242	C	1.877392	-0.434778	0.282350
H243	H	1.386975	-0.891114	-0.223391
H244	H	1.886975	-0.391114	0.276609
H245	H	1.392805	-0.945513	-0.175562
H246	H	1.892805	-0.445513	0.324438
H247	H	1.306798	-0.945537	-0.226790
H248	H	1.806798	-0.445537	0.273210
C249	C	1.501001	-0.732911	-0.183273
C250	C	2.001001	-0.232911	0.316727
H251	H	1.496124	-0.761787	-0.149654
H252	H	1.996124	-0.261787	0.350346
H253	H	1.440084	-0.707418	-0.184049
H254	H	1.940084	-0.207418	0.315951
H255	H	1.561209	-0.707355	-0.177796
H256	H	2.061209	-0.207355	0.322204
H257	H	1.396405	-0.659189	-0.229065
H258	H	1.896405	-0.159189	0.270935
C259	C	1.377130	-0.531141	-0.217583
C260	C	1.877130	-0.031141	0.282417
H261	H	1.337156	-0.560031	-0.193699
H262	H	1.837156	-0.060031	0.306301
H263	H	1.331320	-0.505625	-0.241520
H264	H	1.831320	-0.005625	0.258480
H265	H	1.417336	-0.505610	-0.190298
H266	H	1.917336	-0.005610	0.309702
H267	H	1.640380	-0.229155	-0.541002
H268	H	2.140380	0.270845	-0.041002
H269	H	1.640373	-0.229109	-0.659709
H270	H	2.140373	0.270891	-0.159709
