data_functionalizedCrystal
_audit_creation_method	'MofGen! by Chris Wilmer'
_symmetry_space_group_name_H-M	'P1'
_symmetry_Int_Tables_number	1
_symmetry_cell_setting	triclinic
loop_
_symmetry_equiv_pos_as_xyz
  x,y,z
_cell_length_a	17.077404
_cell_length_b	17.077402
_cell_length_c	17.077396
_cell_angle_alpha	89.970216
_cell_angle_beta	89.980499
_cell_angle_gamma	90.023108
loop_
_atom_site_label
_atom_site_type_symbol
_atom_site_fract_x
_atom_site_fract_y
_atom_site_fract_z
Zn1	Zn	1.200055	-0.312503	-0.443836
Zn2	Zn	1.700055	0.187497	0.056164
Zn3	Zn	1.199962	-0.443778	-0.312567
Zn4	Zn	1.699962	0.056222	0.187433
Zn5	Zn	1.068786	-0.312531	-0.312584
Zn6	Zn	1.568786	0.187469	0.187416
Zn7	Zn	1.068754	-0.443732	-0.443790
Zn8	Zn	1.568754	0.056268	0.056210
O9	O	1.134389	-0.378136	-0.378194
O10	O	1.634389	0.121864	0.121806
O11	O	1.309889	-0.329925	-0.426434
O12	O	1.809889	0.170075	0.073566
O13	O	1.182536	-0.426399	-0.202722
O14	O	1.682536	0.073601	0.297278
O15	O	1.086252	-0.202680	-0.330021
O16	O	1.586252	0.297320	0.169979
O17	O	1.309821	-0.426372	-0.329992
O18	O	1.809821	0.073628	0.170008
O19	O	1.182694	-0.202660	-0.426451
O20	O	1.682694	0.297340	0.073549
O21	O	1.086162	-0.329972	-0.202734
O22	O	1.586162	0.170028	0.297266
O23	O	0.958935	-0.329927	-0.329976
O24	O	1.458935	0.170073	0.170024
O25	O	1.086197	-0.426293	-0.553643
O26	O	1.586197	0.073707	-0.053643
O27	O	0.958912	-0.426320	-0.426373
O28	O	1.458912	0.073680	0.073627
O29	O	1.182663	-0.329880	-0.553677
O30	O	1.682663	0.170120	-0.053677
O31	O	1.182505	-0.553619	-0.329948
O32	O	1.682505	-0.053619	0.170052
O33	O	1.086107	-0.553585	-0.426357
O34	O	1.586107	-0.053585	0.073643
C35	C	0.930441	-0.378122	-0.378172
C36	C	1.430441	0.121878	0.121828
C37	C	0.843192	-0.378135	-0.378182
C38	C	1.343192	0.121865	0.121818
C39	C	0.802210	-0.428402	-0.428295
C40	C	1.302210	0.071598	0.071705
C41	C	0.720229	-0.428404	-0.428308
C42	C	1.220229	0.071596	0.071692
C43	C	0.679232	-0.378141	-0.378202
C44	C	1.179232	0.121859	0.121798
C45	C	0.720220	-0.327869	-0.328087
C46	C	1.220220	0.172131	0.171913
C47	C	0.802199	-0.327863	-0.328079
C48	C	1.302199	0.172137	0.171921
C49	C	0.549350	-0.327884	-0.328106
C50	C	1.049350	0.172116	0.171894
C51	C	0.467365	-0.327890	-0.328112
C52	C	0.967365	0.172110	0.171888
C53	C	0.467380	-0.428424	-0.428335
C54	C	0.967380	0.071576	0.071665
C55	C	0.549359	-0.428419	-0.428327
C56	C	1.049359	0.071581	0.071673
C57	C	0.590341	-0.378147	-0.378210
C58	C	1.090341	0.121853	0.121790
C59	C	1.134314	-0.582084	-0.378163
C60	C	1.634314	-0.082084	0.121837
C61	C	1.134353	-0.669334	-0.378176
C62	C	1.634353	-0.169334	0.121824
C63	C	1.184598	-0.710316	-0.328029
C64	C	1.684598	-0.210316	0.171971
C65	C	1.184637	-0.792296	-0.328049
C66	C	1.684637	-0.292296	0.171951
C67	C	1.134425	-0.833293	-0.378212
C68	C	1.634425	-0.333293	0.121788
C69	C	1.084178	-0.792305	-0.428364
C70	C	1.584178	-0.292305	0.071636
C71	C	1.084144	-0.710327	-0.428348
C72	C	1.584144	-0.210327	0.071652
C73	C	1.084250	-0.963175	-0.428394
C74	C	1.584250	-0.463175	0.071606
C75	C	1.084283	-1.045160	-0.428410
C76	C	1.584283	-0.545160	0.071590
C77	C	1.184743	-1.045145	-0.328096
C78	C	1.684743	-0.545145	0.171904
C79	C	1.184709	-0.963166	-0.328079
C80	C	1.684709	-0.463166	0.171921
C81	C	1.134461	-0.922184	-0.378230
C82	C	1.634461	-0.422184	0.121770
C83	C	1.339134	-0.378151	-0.378216
C84	C	1.839134	0.121849	0.121784
C85	C	1.426383	-0.378157	-0.378226
C86	C	1.926383	0.121843	0.121774
C87	C	1.134437	-0.378078	-0.582938
C88	C	1.634437	0.121922	-0.082938
C89	C	1.134457	-0.378054	-0.670188
C90	C	1.634457	0.121946	-0.170188
C91	C	1.134487	-0.173392	-0.378243
C92	C	1.634487	0.326608	0.121757
C93	C	1.134528	-0.086142	-0.378263
C94	C	1.634528	0.413858	0.121737
C95	C	1.184689	-0.327847	-0.711197
C96	C	1.684689	0.172153	-0.211197
C97	C	1.184698	-0.327821	-0.793178
C98	C	1.684698	0.172179	-0.293178
C99	C	1.134479	-0.378006	-0.834148
C100	C	1.634479	0.121994	-0.334148
C101	C	1.084242	-0.428214	-0.793133
C102	C	1.584242	0.071786	-0.293133
C103	C	1.084229	-0.428236	-0.711154
C104	C	1.584229	0.071764	-0.211154
C105	C	1.084274	-0.428167	-0.964003
C106	C	1.584274	0.071833	-0.464003
C107	C	1.084288	-0.428147	-1.045988
C108	C	1.584288	0.071853	-0.545988
C109	C	1.184742	-0.327752	-1.046027
C110	C	1.684742	0.172248	-0.546027
C111	C	1.184730	-0.327774	-0.964048
C112	C	1.684730	0.172226	-0.464048
C113	C	1.134493	-0.377984	-0.923039
C114	C	1.634493	0.122016	-0.423039
C115	C	1.134387	-0.378137	-0.174246
C116	C	1.634387	0.121863	0.325754
C117	C	1.134519	-0.377941	-0.086997
C118	C	1.634519	0.122059	0.413003
H119	H	0.835565	-0.286927	-0.287275
H120	H	1.335565	0.213073	0.212725
C121	C	1.239834	-0.665226	-0.272843
C122	C	1.739834	-0.165226	0.227157
N123	N	1.281441	-0.631268	-0.231277
N124	N	1.781441	-0.131268	0.268723
C125	C	0.675120	-0.272577	-0.272972
C126	C	1.175120	0.227423	0.227028
N127	N	0.641152	-0.230933	-0.231457
N128	N	1.141152	0.269067	0.268543
H129	H	1.225660	-1.078516	-0.287263
H130	H	1.725660	-0.578516	0.212737
H131	H	0.835584	-0.469334	-0.469094
H132	H	1.335584	0.030666	0.030906
C133	C	1.239906	-0.837372	-0.272879
C134	C	1.739906	-0.337372	0.227121
N135	N	1.281536	-0.871324	-0.231321
N136	N	1.781536	-0.371324	0.268679
H137	H	1.225591	-0.929786	-0.287228
H138	H	1.725591	-0.429786	0.212772
C139	C	1.029056	-1.090255	-0.483600
C140	C	1.529056	-0.590255	0.016400
N141	N	0.987460	-1.124221	-0.525173
N142	N	1.487460	-0.624221	-0.025173
H143	H	1.043335	-0.929811	-0.469235
H144	H	1.543335	-0.429811	0.030765
H145	H	1.043298	-0.825692	-0.469211
H146	H	1.543298	-0.325692	0.030789
C147	C	0.422270	-0.272596	-0.272997
C148	C	0.922270	0.227404	0.227003
N149	N	0.388304	-0.230947	-0.231483
N150	N	0.888304	0.269053	0.268517
C151	C	1.028870	-0.665247	-0.483513
C152	C	1.528870	-0.165247	0.016487
N153	N	0.987239	-0.631294	-0.525068
N154	N	1.487239	-0.131294	-0.025068
C155	C	0.675153	-0.483717	-0.483421
C156	C	1.175153	0.016283	0.016579
N157	N	0.641202	-0.525386	-0.524931
N158	N	1.141202	-0.025386	-0.024931
C159	C	1.239933	-0.272638	-0.666137
C160	C	1.739933	0.227362	-0.166137
N161	N	1.281543	-0.231050	-0.632201
N162	N	1.781543	0.268950	-0.132201
C163	C	1.239958	-0.272591	-0.838283
C164	C	1.739958	0.227409	-0.338283
N165	N	1.281582	-0.230990	-0.872257
N166	N	1.781582	0.269010	-0.372257
C167	C	1.240002	-0.272520	-1.091138
C168	C	1.740002	0.227480	-0.591138
N169	N	1.281625	-0.230924	-1.125119
N170	N	1.781625	0.269076	-0.625119
C171	C	1.029040	-0.483348	-1.091054
C172	C	1.529040	0.016652	-0.591054
N173	N	0.987425	-0.524925	-1.124997
N174	N	1.487425	-0.024925	-0.624997
C175	C	1.029014	-0.483404	-0.918896
C176	C	1.529014	0.016596	-0.418896
N177	N	0.987397	-0.525011	-0.884920
N178	N	1.487397	-0.025011	-0.384920
H179	H	0.434009	-0.469355	-0.469144
H180	H	0.934009	0.030645	0.030856
C181	C	1.028972	-0.483468	-0.666045
C182	C	1.528972	0.016532	-0.166045
N183	N	0.987349	-0.525070	-0.632070
N184	N	1.487349	-0.025070	-0.132070
H185	H	1.225627	-0.286913	-0.930692
H186	H	1.725627	0.213087	-0.430692
H187	H	0.582737	-0.469352	-0.469122
H188	H	1.082737	0.030648	0.030878
H189	H	0.582715	-0.286940	-0.287302
H190	H	1.082715	0.213060	0.212698
H191	H	1.043350	-0.469073	-0.826498
H192	H	1.543350	0.030927	-0.326498
