data_functionalizedCrystal
_audit_creation_method	'MofGen! by Chris Wilmer'
_symmetry_space_group_name_H-M	'P1'
_symmetry_Int_Tables_number	1
_symmetry_cell_setting	triclinic
loop_
_symmetry_equiv_pos_as_xyz
  x,y,z
_cell_length_a	12.759401
_cell_length_b	12.759400
_cell_length_c	12.759393
_cell_angle_alpha	90.027853
_cell_angle_beta	90.019625
_cell_angle_gamma	90.013328
loop_
_atom_site_label
_atom_site_type_symbol
_atom_site_fract_x
_atom_site_fract_y
_atom_site_fract_z
Zn1	Zn	1.606269	-0.418242	0.594003
Zn2	Zn	2.106269	0.081758	1.094003
Zn3	Zn	1.606162	-0.593958	0.418331
Zn4	Zn	2.106162	-0.093958	0.918331
Zn5	Zn	1.430568	-0.418291	0.418342
Zn6	Zn	1.930568	0.081709	0.918342
Zn7	Zn	1.430561	-0.593877	0.593972
Zn8	Zn	1.930561	-0.093877	1.093972
O9	O	1.518390	-0.506092	0.506162
O10	O	2.018390	-0.006092	1.006162
O11	O	1.753276	-0.441565	0.570708
O12	O	2.253276	0.058435	1.070708
O13	O	1.582827	-0.570709	0.271311
O14	O	2.082827	-0.070709	0.771311
O15	O	1.453923	-0.271263	0.441661
O16	O	1.953923	0.228737	0.941661
O17	O	1.753197	-0.570662	0.441642
O18	O	2.253197	-0.070662	0.941642
O19	O	1.583010	-0.271228	0.570718
O20	O	2.083010	0.228772	1.070718
O21	O	1.453819	-0.441647	0.271319
O22	O	1.953819	0.058353	0.771319
O23	O	1.283546	-0.441569	0.441631
O24	O	1.783546	0.058431	0.941631
O25	O	1.453912	-0.570524	0.740997
O26	O	1.953912	-0.070524	1.240997
O27	O	1.283541	-0.570571	0.570666
O28	O	1.783541	-0.070571	1.070666
O29	O	1.583004	-0.441486	0.741020
O30	O	2.083004	0.058514	1.241020
O31	O	1.582820	-0.740968	0.441613
O32	O	2.082820	-0.240968	0.941613
O33	O	1.453807	-0.740909	0.570655
O34	O	1.953807	-0.240909	1.070655
C35	C	1.245423	-0.506067	0.506147
C36	C	1.745423	-0.006067	1.006147
C37	C	1.128646	-0.506082	0.506166
C38	C	1.628646	-0.006082	1.006166
C39	C	1.073818	-0.438988	0.573474
C40	C	1.573818	0.061012	1.073474
C41	C	0.964094	-0.439008	0.573481
C42	C	1.464094	0.060992	1.073481
C43	C	0.964035	-0.573225	0.438868
C44	C	1.464035	-0.073225	0.938868
C45	C	1.073758	-0.573199	0.438857
C46	C	1.573758	-0.073199	0.938857
C47	C	1.073851	-0.361501	0.651195
C48	C	1.573851	0.138499	1.151195
C49	C	0.964127	-0.361521	0.651202
C50	C	1.464127	0.138479	1.151202
C51	C	1.518330	-0.779059	0.506152
C52	C	2.018330	-0.279059	1.006152
C53	C	1.518400	-0.895836	0.506184
C54	C	2.018400	-0.395836	1.006184
C55	C	1.451209	-0.950705	0.573323
C56	C	1.951209	-0.450705	1.073323
C57	C	1.451264	-1.060429	0.573333
C58	C	1.951264	-0.560429	1.073333
C59	C	1.585712	-1.060405	0.439061
C60	C	2.085712	-0.560405	0.939061
C61	C	1.585650	-0.950683	0.439047
C62	C	2.085650	-0.450683	0.939047
C63	C	1.373589	-0.950720	0.650847
C64	C	1.873589	-0.450720	1.150847
C65	C	1.373645	-1.060444	0.650857
C66	C	1.873645	-0.560444	1.150857
C67	C	1.792423	-0.506117	0.506177
C68	C	2.292423	-0.006117	1.006177
C69	C	1.909200	-0.506128	0.506184
C70	C	2.409200	-0.006128	1.006184
C71	C	1.518469	-0.505991	0.780195
C72	C	2.018469	-0.005991	1.280195
C73	C	1.518502	-0.505948	0.896972
C74	C	2.018502	-0.005948	1.396972
C75	C	1.518479	-0.232059	0.506194
C76	C	2.018479	0.267941	1.006194
C77	C	1.518517	-0.115282	0.506208
C78	C	2.018517	0.384718	1.006208
C79	C	1.518372	-0.506117	0.233194
C80	C	2.018372	-0.006117	0.733194
C81	C	1.518542	-0.505864	0.116418
C82	C	2.018542	-0.005864	0.616418
C83	C	1.585725	-0.438747	0.951847
C84	C	2.085725	0.061253	1.451847
C85	C	1.585743	-0.438702	1.061571
C86	C	2.085743	0.061298	1.561571
C87	C	1.451312	-0.573067	1.061535
C88	C	1.951312	-0.073067	1.561535
C89	C	1.451289	-0.573107	0.951813
C90	C	1.951289	-0.073107	1.451813
H91	H	0.930085	-0.284193	0.622199
H92	H	1.430085	0.215807	1.122199
O93	O	1.412048	-0.905574	0.753297
O94	O	1.912048	-0.405574	1.253297
H95	H	1.493475	-0.932405	0.768010
H96	H	1.993475	-0.432405	1.268010
H97	H	1.292213	-0.921022	0.628984
H98	H	1.792213	-0.421022	1.128984
H99	H	1.103617	-0.280098	0.629538
H100	H	1.603617	0.219902	1.129538
H101	H	1.396592	-0.627748	1.106200
H102	H	1.896592	-0.127748	1.606200
H103	H	1.640452	-0.384060	0.907199
H104	H	2.140452	0.115940	1.407199
H105	H	1.296381	-1.094553	0.621650
H106	H	1.796381	-0.594553	1.121650
O107	O	1.378778	-0.645580	0.892606
O108	O	1.878778	-0.145580	1.392606
H109	H	1.325339	-0.598545	0.842628
H110	H	1.825339	-0.098545	1.342628
O111	O	1.658253	-0.366228	1.120763
O112	O	2.158253	0.133772	1.620763
H113	H	1.704989	-0.319544	1.064191
H114	H	2.204989	0.180456	1.564191
H115	H	1.395356	-1.090156	0.732265
H116	H	1.895356	-0.590156	1.232265
O117	O	0.924713	-0.390537	0.758931
O118	O	1.424713	0.109463	1.258931
H119	H	0.992434	-0.404738	0.811665
H120	H	1.492434	0.095262	1.311665
O121	O	1.132899	-0.645548	0.366245
O122	O	1.632899	-0.145548	0.866245
H123	H	1.076295	-0.692224	0.319449
H124	H	1.576295	-0.192224	0.819449
O125	O	0.904836	-0.645614	0.366270
O126	O	1.404836	-0.145614	0.866270
H127	H	0.854869	-0.699142	0.413201
H128	H	1.354869	-0.199142	0.913201
O129	O	1.118987	-0.400207	0.753510
O130	O	1.618987	0.099793	1.253510
H131	H	1.092086	-0.481658	0.767969
H132	H	1.592086	0.018342	1.267969
O133	O	1.658117	-0.891497	0.366630
O134	O	2.158117	-0.391497	0.866630
H135	H	1.704896	-0.948072	0.319959
H136	H	2.204896	-0.448072	0.819959
H137	H	1.640464	-1.105075	0.384400
H138	H	2.140464	-0.605075	0.884400
