data_functionalizedCrystal
_audit_creation_method	'MofGen! by Chris Wilmer'
_symmetry_space_group_name_H-M	'P1'
_symmetry_Int_Tables_number	1
_symmetry_cell_setting	triclinic
loop_
_symmetry_equiv_pos_as_xyz
  x,y,z
_cell_length_a	21.395362
_cell_length_b	21.395362
_cell_length_c	21.395355
_cell_angle_alpha	90.020549
_cell_angle_beta	90.043940
_cell_angle_gamma	90.045668
loop_
_atom_site_label
_atom_site_type_symbol
_atom_site_fract_x
_atom_site_fract_y
_atom_site_fract_z
Zn1	Zn	0.957863	-0.249246	0.354577
Zn2	Zn	1.457863	0.250754	0.854577
Zn3	Zn	0.957768	-0.354005	0.249796
Zn4	Zn	1.457768	0.145995	0.749796
Zn5	Zn	0.853078	-0.249275	0.249778
Zn6	Zn	1.353078	0.250725	0.749778
Zn7	Zn	0.853049	-0.354018	0.354500
Zn8	Zn	1.353049	0.145982	0.854500
O9	O	0.905440	-0.301636	0.302163
O10	O	1.405440	0.198364	0.802163
O11	O	1.045529	-0.263125	0.340717
O12	O	1.545529	0.236875	0.840717
O13	O	0.943852	-0.340119	0.162115
O14	O	1.443852	0.159881	0.662115
O15	O	0.867031	-0.161593	0.263704
O16	O	1.367031	0.338407	0.763704
O17	O	1.045458	-0.340091	0.263734
O18	O	1.545458	0.159909	0.763734
O19	O	0.944016	-0.161572	0.340700
O20	O	1.444016	0.338428	0.840700
O21	O	0.866938	-0.263174	0.162102
O22	O	1.366938	0.236826	0.662102
O23	O	0.765397	-0.263187	0.263630
O24	O	1.265397	0.236813	0.763630
O25	O	0.866981	-0.340113	0.442188
O26	O	1.366981	0.159887	0.942188
O27	O	0.765375	-0.340141	0.340569
O28	O	1.265375	0.159859	0.840569
O29	O	0.943988	-0.263137	0.442245
O30	O	1.443988	0.236863	0.942245
O31	O	0.943824	-0.441685	0.263660
O32	O	1.443824	0.058315	0.763660
O33	O	0.866888	-0.441695	0.340586
O34	O	1.366888	0.058305	0.840586
C35	C	0.742652	-0.301669	0.302090
C36	C	1.242652	0.198331	0.802090
C37	C	0.673011	-0.301698	0.302074
C38	C	1.173011	0.198302	0.802074
C39	C	0.640303	-0.341822	0.342076
C40	C	1.140303	0.158178	0.842076
C41	C	0.574867	-0.341806	0.342104
C42	C	1.074867	0.158194	0.842104
C43	C	0.542142	-0.301674	0.302118
C44	C	1.042142	0.198326	0.802118
C45	C	0.574858	-0.261543	0.262113
C46	C	1.074858	0.238457	0.762113
C47	C	0.640292	-0.261555	0.262091
C48	C	1.140292	0.238445	0.762091
C49	C	0.438418	-0.296627	0.245713
C50	C	0.938418	0.203373	0.745713
C51	C	0.372985	-0.296619	0.245735
C52	C	0.872985	0.203381	0.745735
C53	C	0.340322	-0.301633	0.302188
C54	C	0.840322	0.198367	0.802188
C55	C	0.373100	-0.306668	0.358621
C56	C	0.873100	0.193332	0.858621
C57	C	0.438534	-0.306681	0.358599
C58	C	0.938534	0.193319	0.858599
C59	C	0.471190	-0.301656	0.302138
C60	C	0.971190	0.198344	0.802138
C61	C	0.236661	-0.341742	0.342223
C62	C	0.736661	0.158258	0.842223
C63	C	0.171225	-0.341723	0.342252
C64	C	0.671225	0.158277	0.842252
C65	C	0.171217	-0.261462	0.262256
C66	C	0.671217	0.238538	0.762256
C67	C	0.236652	-0.261479	0.262233
C68	C	0.736652	0.238521	0.762233
C69	C	0.269371	-0.301622	0.302216
C70	C	0.769371	0.198378	0.802216
C71	C	0.905360	-0.464424	0.302130
C72	C	1.405360	0.035576	0.802130
C73	C	0.905383	-0.534065	0.302138
C74	C	1.405383	-0.034065	0.802138
C75	C	0.945446	-0.566710	0.342258
C76	C	1.445446	-0.066710	0.842258
C77	C	0.945468	-0.632145	0.342273
C78	C	1.445468	-0.132145	0.842273
C79	C	0.905433	-0.664933	0.302157
C80	C	1.405433	-0.164933	0.802157
C81	C	0.865362	-0.632280	0.262034
C82	C	1.365362	-0.132280	0.762034
C83	C	0.865337	-0.566846	0.262025
C84	C	1.365337	-0.066846	0.762025
C85	C	0.900556	-0.768635	0.245717
C86	C	1.400556	-0.268635	0.745717
C87	C	0.900586	-0.834068	0.245725
C88	C	1.400586	-0.334068	0.745725
C89	C	0.905508	-0.866754	0.302187
C90	C	1.405508	-0.366754	0.802187
C91	C	0.910413	-0.833999	0.358643
C92	C	1.410413	-0.333999	0.858643
C93	C	0.910388	-0.768565	0.358633
C94	C	1.410388	-0.268565	0.858633
C95	C	0.905456	-0.735886	0.302163
C96	C	1.405456	-0.235886	0.802163
C97	C	0.945597	-0.970351	0.342327
C98	C	1.445597	-0.470351	0.842327
C99	C	0.945614	-1.035788	0.342344
C100	C	1.445614	-0.535788	0.842344
C101	C	0.865512	-1.035922	0.262100
C102	C	1.365512	-0.535922	0.762100
C103	C	0.865491	-0.970486	0.262089
C104	C	1.365491	-0.470486	0.762089
C105	C	0.905537	-0.937705	0.302202
C106	C	1.405537	-0.437705	0.802202
C107	C	1.068863	-0.301603	0.302236
C108	C	1.568863	0.198397	0.802236
C109	C	1.138504	-0.301589	0.302267
C110	C	1.638504	0.198411	0.802267
C111	C	0.905492	-0.301623	0.465586
C112	C	1.405492	0.198377	0.965586
C113	C	0.905514	-0.301618	0.535227
C114	C	1.405514	0.198382	1.035227
C115	C	0.905537	-0.138213	0.302209
C116	C	1.405537	0.361787	0.802209
C117	C	0.905579	-0.068571	0.302228
C118	C	1.405579	0.431429	0.802228
C119	C	0.905424	-0.301603	0.139375
C120	C	1.405424	0.198397	0.639375
C121	C	0.905523	-0.301432	0.069734
C122	C	1.405523	0.198568	0.569734
C123	C	0.945609	-0.261535	0.567971
C124	C	1.445609	0.238465	1.067971
C125	C	0.945609	-0.261508	0.633406
C126	C	1.445609	0.238492	1.133406
C127	C	0.905519	-0.301575	0.666096
C128	C	1.405519	0.198425	1.166096
C129	C	0.865415	-0.341661	0.633344
C130	C	1.365415	0.158339	1.133344
C131	C	0.865413	-0.341682	0.567910
C132	C	1.365413	0.158318	1.067910
C133	C	0.900544	-0.357992	0.769758
C134	C	1.400544	0.142008	1.269758
C135	C	0.900551	-0.357972	0.835191
C136	C	1.400551	0.142028	1.335191
C137	C	0.905523	-0.301509	0.867917
C138	C	1.405523	0.198491	1.367917
C139	C	0.910501	-0.245065	0.835202
C140	C	1.410501	0.254935	1.335202
C141	C	0.910499	-0.245086	0.769767
C142	C	1.410499	0.254914	1.269767
C143	C	0.905517	-0.301556	0.737048
C144	C	1.405517	0.198444	1.237048
C145	C	0.945619	-0.261393	0.971613
C146	C	1.445619	0.238607	1.471613
C147	C	0.945614	-0.261365	1.037049
C148	C	1.445614	0.238635	1.537049
C149	C	0.865424	-0.341524	1.036986
C150	C	1.365424	0.158476	1.536986
C151	C	0.865426	-0.341547	0.971551
C152	C	1.365426	0.158453	1.471551
C153	C	0.905527	-0.301482	0.938868
C154	C	1.405527	0.198518	1.438868
H155	H	0.263283	-0.228809	0.229656
H156	H	0.763283	0.271191	0.729656
F157	F	0.988286	-0.218892	0.533191
F158	F	1.488286	0.281108	1.033191
F159	F	0.988113	-0.666896	0.384973
F160	F	1.488113	-0.166896	0.884973
F161	F	0.540029	-0.218829	0.219561
F162	F	1.040029	0.281171	0.719561
F163	F	0.338106	-0.291261	0.185674
F164	F	0.838106	0.208739	0.685674
F165	F	0.915605	-0.733707	0.418715
F166	F	1.415605	-0.233707	0.918715
F167	F	0.473174	-0.291291	0.185624
F168	F	0.973174	0.208709	0.685624
H169	H	0.548232	-0.374479	0.374681
H170	H	1.048232	0.125521	0.874681
H171	H	0.832759	-0.374322	0.541251
H172	H	1.332759	0.125678	1.041251
F173	F	0.895370	-0.868922	0.185641
F174	F	1.395370	-0.368922	0.685641
F175	F	0.915654	-0.868780	0.418738
F176	F	1.415654	-0.368780	0.918738
H177	H	0.978258	-0.228864	0.660071
H178	H	1.478258	0.271136	1.160071
F179	F	0.988295	-0.218751	0.936827
F180	F	1.488295	0.281249	1.436827
H181	H	0.832780	-0.374190	0.944891
H182	H	1.332780	0.125810	1.444891
F183	F	0.675104	-0.218848	0.219514
F184	F	1.175104	0.281152	0.719514
H185	H	0.978052	-0.540021	0.374922
H186	H	1.478052	-0.040021	0.874922
F187	F	0.822747	-0.384302	0.668136
F188	F	1.322747	0.115698	1.168136
F189	F	0.473416	-0.312037	0.418657
F190	F	0.973416	0.187963	0.918657
H191	H	0.978264	-0.228721	1.063708
H192	H	1.478264	0.271279	1.563708
H193	H	0.978239	-1.062367	0.375017
H194	H	1.478239	-0.562367	0.875017
F195	F	0.675120	-0.384544	0.384631
F196	F	1.175120	0.115456	0.884631
F197	F	0.915795	-0.184969	0.870025
F198	F	1.415795	0.315031	1.370025
F199	F	0.915794	-0.185016	0.734952
F200	F	1.415794	0.314984	1.234952
F201	F	0.338343	-0.312003	0.418708
F202	F	0.838343	0.187997	0.918708
F203	F	0.136393	-0.218747	0.219704
F204	F	0.636393	0.281253	0.719704
H205	H	0.978203	-0.943660	0.374992
H206	H	1.478203	-0.443660	0.874992
H207	H	0.832911	-1.062617	0.229440
H208	H	1.332911	-0.562617	0.729440
F209	F	0.895258	-0.418044	0.870002
F210	F	1.395258	0.081956	1.370002
H211	H	0.263302	-0.374426	0.374783
H212	H	0.763302	0.125574	0.874783
H213	H	0.144595	-0.374395	0.374831
H214	H	0.644595	0.125605	0.874831
H215	H	0.832871	-0.943905	0.229417
H216	H	1.332871	-0.443905	0.729417
F217	F	0.895381	-0.733854	0.185613
F218	F	1.395381	-0.233854	0.685613
H219	H	0.832764	-0.658980	0.229373
H220	H	1.332764	-0.158980	0.729373
H221	H	0.832712	-0.540266	0.229354
H222	H	1.332712	-0.040266	0.729354
F223	F	0.822753	-0.384163	1.071772
F224	F	1.322753	0.115837	1.571772
H225	H	0.896327	-0.403959	0.743118
H226	H	1.396327	0.096041	1.243118
