data_functionalizedCrystal
_audit_creation_method	'MofGen! by Chris Wilmer'
_symmetry_space_group_name_H-M	'P1'
_symmetry_Int_Tables_number	1
_symmetry_cell_setting	triclinic
loop_
_symmetry_equiv_pos_as_xyz
  x,y,z
_cell_length_a	12.759401
_cell_length_b	21.395361
_cell_length_c	12.759393
_cell_angle_alpha	89.961845
_cell_angle_beta	89.979062
_cell_angle_gamma	90.032233
loop_
_atom_site_label
_atom_site_type_symbol
_atom_site_fract_x
_atom_site_fract_y
_atom_site_fract_z
Zn1	Zn	1.606150	-0.249383	-0.593964
Zn2	Zn	1.939483	0.083951	-0.260631
Zn3	Zn	2.272816	0.417284	0.072702
Zn4	Zn	1.605992	-0.354173	-0.418261
Zn5	Zn	1.939325	-0.020840	-0.084927
Zn6	Zn	2.272658	0.312494	0.248406
Zn7	Zn	1.430448	-0.249416	-0.418299
Zn8	Zn	1.763782	0.083917	-0.084966
Zn9	Zn	2.097115	0.417251	0.248367
Zn10	Zn	1.430391	-0.354129	-0.593898
Zn11	Zn	1.763724	-0.020796	-0.260565
Zn12	Zn	2.097058	0.312537	0.072769
O13	O	1.518245	-0.301775	-0.506106
O14	O	1.851578	0.031558	-0.172772
O15	O	2.184912	0.364891	0.160561
O16	O	1.753150	-0.263288	-0.570668
O17	O	2.086483	0.070046	-0.237335
O18	O	2.419816	0.403379	0.095998
O19	O	1.582663	-0.340309	-0.271245
O20	O	1.915996	-0.006976	0.062089
O21	O	2.249330	0.326358	0.395422
O22	O	1.453845	-0.161734	-0.441645
O23	O	1.787179	0.171600	-0.108312
O24	O	2.120512	0.504933	0.225021
O25	O	1.753033	-0.340277	-0.441580
O26	O	2.086367	-0.006943	-0.108246
O27	O	2.419700	0.326390	0.225087
O28	O	1.582932	-0.161709	-0.570706
O29	O	1.916266	0.171624	-0.237372
O30	O	2.249599	0.504957	0.095961
O31	O	1.453692	-0.263345	-0.271273
O32	O	1.787026	0.069989	0.062060
O33	O	2.120359	0.403322	0.395394
O34	O	1.283420	-0.263302	-0.441581
O35	O	1.616753	0.070031	-0.108248
O36	O	1.950086	0.403365	0.225085
O37	O	1.453748	-0.340202	-0.740928
O38	O	1.787081	-0.006869	-0.407595
O39	O	2.120415	0.326465	-0.074261
O40	O	1.283378	-0.340234	-0.570593
O41	O	1.616711	-0.006901	-0.237260
O42	O	1.950044	0.326432	0.096074
O43	O	1.582877	-0.263245	-0.740977
O44	O	1.916210	0.070088	-0.407643
O45	O	2.249544	0.403421	-0.074310
O46	O	1.582608	-0.441845	-0.441516
O47	O	1.915941	-0.108512	-0.108182
O48	O	2.249274	0.224822	0.225151
O49	O	1.453595	-0.441813	-0.570556
O50	O	1.786928	-0.108480	-0.237222
O51	O	2.120261	0.224854	0.096111
C52	C	1.245278	-0.301768	-0.506085
C53	C	1.578611	0.031566	-0.172751
C54	C	1.911944	0.364899	0.160582
C55	C	1.128501	-0.301779	-0.506101
C56	C	1.461834	0.031554	-0.172767
C57	C	1.795168	0.364887	0.160566
C58	C	1.518106	-0.464563	-0.506047
C59	C	1.851440	-0.131230	-0.172714
C60	C	2.184773	0.202104	0.160620
C61	C	1.518143	-0.534204	-0.506057
C62	C	1.851476	-0.200871	-0.172724
C63	C	2.184810	0.132463	0.160609
C64	C	1.073645	-0.341899	-0.573171
C65	C	1.406978	-0.008566	-0.239838
C66	C	1.740311	0.324768	0.093495
C67	C	0.963921	-0.341901	-0.573192
C68	C	1.297254	-0.008568	-0.239859
C69	C	1.630587	0.324765	0.093475
C70	C	0.963919	-0.261663	-0.439063
C71	C	1.297252	0.071670	-0.105729
C72	C	1.630586	0.405004	0.227604
C73	C	1.073641	-0.261658	-0.439048
C74	C	1.406974	0.071676	-0.105715
C75	C	1.740308	0.405009	0.227619
C76	C	1.585380	-0.566913	-0.438935
C77	C	1.918713	-0.233580	-0.105602
C78	C	2.252046	0.099753	0.227732
C79	C	1.585429	-0.632349	-0.438958
C80	C	1.918762	-0.299015	-0.105625
C81	C	2.252095	0.034318	0.227708
C82	C	1.518222	-0.665072	-0.506093
C83	C	1.851555	-0.331739	-0.172760
C84	C	2.184889	0.001594	0.160573
C85	C	1.450981	-0.632355	-0.573229
C86	C	1.784314	-0.299022	-0.239895
C87	C	2.117648	0.034311	0.093438
C88	C	1.450941	-0.566921	-0.573211
C89	C	1.784275	-0.233588	-0.239877
C90	C	2.117608	0.099745	0.093456
C91	C	1.423624	-0.768788	-0.514329
C92	C	1.756957	-0.435454	-0.180996
C93	C	2.090291	-0.102121	0.152337
C94	C	1.423662	-0.834221	-0.514340
C95	C	1.756995	-0.500887	-0.181007
C96	C	2.090328	-0.167554	0.152327
C97	C	1.518345	-0.866893	-0.506155
C98	C	1.851678	-0.533560	-0.172822
C99	C	2.185011	-0.200226	0.160512
C100	C	1.612993	-0.834125	-0.497937
C101	C	1.946326	-0.500791	-0.164604
C102	C	2.279659	-0.167458	0.168730
C103	C	1.612953	-0.768691	-0.497919
C104	C	1.946286	-0.435357	-0.164586
C105	C	2.279620	-0.102024	0.168748
C106	C	1.518258	-0.736025	-0.506121
C107	C	1.851591	-0.402691	-0.172787
C108	C	2.184925	-0.069358	0.160546
C109	C	1.585640	-0.970555	-0.439054
C110	C	1.918973	-0.637221	-0.105721
C111	C	2.252306	-0.303888	0.227612
C112	C	1.585690	-1.035991	-0.439085
C113	C	1.919024	-0.702658	-0.105752
C114	C	2.252357	-0.369325	0.227581
C115	C	1.451233	-1.035997	-0.573350
C116	C	1.784567	-0.702664	-0.240017
C117	C	2.117900	-0.369330	0.093317
C118	C	1.451192	-0.970562	-0.573325
C119	C	1.784525	-0.637228	-0.239991
C120	C	2.117859	-0.303895	0.093342
C121	C	1.518394	-0.937844	-0.506171
C122	C	1.851727	-0.604511	-0.172838
C123	C	2.185060	-0.271178	0.160495
C124	C	1.792278	-0.301783	-0.506127
C125	C	2.125612	0.031550	-0.172794
C126	C	2.458945	0.364883	0.160540
C127	C	1.909055	-0.301787	-0.506136
C128	C	2.242388	0.031546	-0.172803
C129	C	2.575722	0.364880	0.160530
C130	C	1.518324	-0.301715	-0.780139
C131	C	1.851657	0.031618	-0.446806
C132	C	2.184990	0.364952	-0.113472
C133	C	1.518357	-0.301689	-0.896916
C134	C	1.851691	0.031644	-0.563582
C135	C	2.185024	0.364977	-0.230249
C136	C	1.518413	-0.138352	-0.506187
C137	C	1.851746	0.194981	-0.172854
C138	C	2.185080	0.528315	0.160479
C139	C	1.518484	-0.068711	-0.506222
C140	C	1.851818	0.264623	-0.172889
C141	C	2.185151	0.597956	0.160445
C142	C	1.585600	-0.261612	-0.951805
C143	C	1.918933	0.071722	-0.618471
C144	C	2.252266	0.405055	-0.285138
C145	C	1.585617	-0.261585	-1.061529
C146	C	1.918951	0.071749	-0.728196
C147	C	2.252284	0.405082	-0.394862
C148	C	1.451147	-0.341719	-1.061465
C149	C	1.784481	-0.008385	-0.728132
C150	C	2.117814	0.324948	-0.394799
C151	C	1.451125	-0.341742	-0.951743
C152	C	1.784458	-0.008409	-0.618410
C153	C	2.117792	0.324925	-0.285077
C154	C	1.518227	-0.301790	-0.233138
C155	C	1.851561	0.031543	0.100195
C156	C	2.184894	0.364877	0.433528
C157	C	1.518397	-0.301639	-0.116362
C158	C	1.851731	0.031694	0.216971
C159	C	2.185064	0.365028	0.550305
H160	H	1.118309	-0.374567	-0.627773
H161	H	1.451642	-0.041234	-0.294439
H162	H	1.784975	0.292100	0.038894
H163	H	1.640371	-0.228948	-1.106215
H164	H	1.973705	0.104385	-0.772881
H165	H	2.307038	0.437718	-0.439548
Br166	Br	1.741499	-0.878457	-0.486812
Br167	Br	2.074832	-0.545124	-0.153478
Br168	Br	2.408166	-0.211790	0.179855
Br169	Br	1.295114	-0.724453	-0.525443
Br170	Br	1.628448	-0.391120	-0.192109
Br171	Br	1.961781	-0.057786	0.141224
H172	H	1.346593	-0.860896	-0.521021
H173	H	1.679926	-0.527562	-0.187688
H174	H	2.013260	-0.194229	0.145646
Br175	Br	1.148096	-0.207200	-0.348027
Br176	Br	1.481429	0.126134	-0.014694
Br177	Br	1.814763	0.459467	0.318640
Br178	Br	1.359851	-0.396132	-0.877244
Br179	Br	1.693185	-0.062798	-0.543911
Br180	Br	2.026518	0.270535	-0.210577
Br181	Br	1.676840	-0.207254	-0.877399
Br182	Br	2.010174	0.126080	-0.544066
Br183	Br	2.343507	0.459413	-0.210732
Br184	Br	1.676959	-1.080384	-0.347993
Br185	Br	2.010293	-0.747050	-0.014660
Br186	Br	2.343626	-0.413717	0.318673
Br187	Br	0.889476	-0.396349	-0.664226
Br188	Br	1.222810	-0.063016	-0.330892
Br189	Br	1.556143	0.270318	0.002441
H190	H	0.919239	-0.228998	-0.384469
H191	H	1.252572	0.104335	-0.051136
H192	H	1.585905	0.437668	0.282197
H193	H	1.396517	-1.062640	-0.628017
H194	H	1.729850	-0.729307	-0.294684
H195	H	2.063184	-0.395973	0.038650
H196	H	1.396412	-0.374329	-1.106119
H197	H	1.729745	-0.040996	-0.772786
H198	H	2.063078	0.292337	-0.439453
Br199	Br	1.676596	-0.522514	-0.347813
Br200	Br	2.009929	-0.189181	-0.014480
Br201	Br	2.343263	0.144153	0.318853
Br202	Br	1.741397	-0.724220	-0.486775
Br203	Br	2.074730	-0.390887	-0.153441
Br204	Br	2.408063	-0.057554	0.179892
H205	H	1.640184	-0.658986	-0.384300
H206	H	1.973518	-0.325652	-0.050966
H207	H	2.306851	0.007681	0.282367
H208	H	1.396188	-0.540289	-0.627871
H209	H	1.729522	-0.206956	-0.294538
H210	H	2.062855	0.126378	0.038796
H211	H	1.640363	-0.943915	-0.384377
H212	H	1.973696	-0.610582	-0.051044
H213	H	2.307030	-0.277249	0.282289
H214	H	1.396437	-0.943928	-0.627978
H215	H	1.729771	-0.610595	-0.294644
H216	H	2.063104	-0.277261	0.038689
Br217	Br	1.359779	-0.676764	-0.664349
Br218	Br	1.693113	-0.343431	-0.331016
Br219	Br	2.026446	-0.010098	0.002317
