data_functionalizedCrystal
_audit_creation_method	'MofGen! by Chris Wilmer'
_symmetry_space_group_name_H-M	'P1'
_symmetry_Int_Tables_number	1
_symmetry_cell_setting	triclinic
loop_
_symmetry_equiv_pos_as_xyz
  x,y,z
_cell_length_a	17.077404
_cell_length_b	21.395361
_cell_length_c	17.077396
_cell_angle_alpha	89.965145
_cell_angle_beta	89.982940
_cell_angle_gamma	90.030933
loop_
_atom_site_label
_atom_site_type_symbol
_atom_site_fract_x
_atom_site_fract_y
_atom_site_fract_z
Zn1	Zn	1.199993	-0.249425	-0.443817
Zn2	Zn	1.199888	-0.354209	-0.312540
Zn3	Zn	1.068730	-0.249450	-0.312565
Zn4	Zn	1.068675	-0.354169	-0.443763
O5	O	1.134322	-0.301813	-0.378171
O6	O	1.309826	-0.263331	-0.426414
O7	O	1.182469	-0.340340	-0.202696
O8	O	1.086210	-0.161769	-0.330008
O9	O	1.309749	-0.340316	-0.329966
O10	O	1.182648	-0.161750	-0.426439
O11	O	1.086108	-0.263374	-0.202714
O12	O	0.958876	-0.263335	-0.329957
O13	O	1.086115	-0.340247	-0.553617
O14	O	0.958835	-0.340271	-0.426348
O15	O	1.182594	-0.263292	-0.553657
O16	O	1.182415	-0.441882	-0.329914
O17	O	1.086013	-0.441852	-0.426324
C18	C	0.930374	-0.301802	-0.378149
C19	C	0.843124	-0.301812	-0.378159
C20	C	0.802133	-0.341933	-0.428269
C21	C	0.720153	-0.341935	-0.428282
C22	C	0.679164	-0.301817	-0.378179
C23	C	0.720161	-0.261692	-0.328067
C24	C	0.802140	-0.261688	-0.328059
C25	C	0.549291	-0.261704	-0.328086
C26	C	0.467306	-0.261709	-0.328092
C27	C	0.467304	-0.341951	-0.428309
C28	C	0.549283	-0.341947	-0.428301
C29	C	0.590273	-0.301822	-0.378187
C30	C	1.134218	-0.464601	-0.378127
C31	C	1.134245	-0.534242	-0.378135
C32	C	1.184486	-0.566950	-0.327986
C33	C	1.184523	-0.632385	-0.328004
C34	C	1.134304	-0.665110	-0.378162
C35	C	1.084060	-0.632395	-0.428321
C36	C	1.084031	-0.566961	-0.428307
C37	C	1.063625	-0.768825	-0.384313
C38	C	1.063653	-0.834258	-0.384321
C39	C	1.134396	-0.866931	-0.378208
C40	C	1.205113	-0.834164	-0.372070
C41	C	1.205083	-0.768729	-0.372057
C42	C	1.134331	-0.736063	-0.378182
C43	C	1.184680	-0.970591	-0.328075
C44	C	1.184718	-1.036028	-0.328098
C45	C	1.084249	-1.036036	-0.428411
C46	C	1.084218	-0.970601	-0.428392
C47	C	1.134433	-0.937882	-0.378220
C48	C	1.339066	-0.301825	-0.378193
C49	C	1.426316	-0.301830	-0.378203
C50	C	1.134360	-0.301762	-0.582915
C51	C	1.134377	-0.301741	-0.670165
C52	C	1.134447	-0.138390	-0.378232
C53	C	1.134500	-0.068749	-0.378258
C54	C	1.184623	-0.341744	-1.045973
C55	C	1.184603	-0.341762	-0.963992
C56	C	1.134427	-0.301697	-0.923014
C57	C	1.084262	-0.261614	-0.964021
C58	C	1.084279	-0.261600	-1.046000
C59	C	1.084233	-0.261647	-0.793151
C60	C	1.084217	-0.261660	-0.711166
C61	C	1.184558	-0.341809	-0.711143
C62	C	1.184574	-0.341795	-0.793122
C63	C	1.134410	-0.301711	-0.834123
C64	C	1.134328	-0.301819	-0.174223
C65	C	1.134464	-0.301664	-0.086974
H66	H	0.686782	-0.229025	-0.287276
H67	H	1.225486	-0.374368	-1.079331
H68	H	1.043362	-0.229033	-0.677804
H69	H	0.835514	-0.229013	-0.287258
C70	C	0.422945	-0.385586	-0.482748
C71	C	0.476387	-0.420734	-0.526603
C72	C	0.435549	-0.460945	-0.576745
H73	H	0.390989	-0.361729	-0.517083
H74	H	0.390954	-0.412888	-0.452672
H75	H	0.508364	-0.393435	-0.556676
H76	H	0.508344	-0.444604	-0.492288
H77	H	0.403558	-0.488247	-0.546670
H78	H	0.403595	-0.437082	-0.611075
H79	H	0.471803	-0.484801	-0.606502
H80	H	1.225571	-0.943951	-0.287224
C81	C	1.239099	-0.531540	-0.273494
C82	C	1.283122	-0.574196	-0.229595
C83	C	1.333449	-0.541598	-0.179400
H84	H	1.209173	-0.506052	-0.239189
H85	H	1.273314	-0.505988	-0.303534
H86	H	1.248911	-0.599737	-0.199558
H87	H	1.313064	-0.599685	-0.263880
H88	H	1.367664	-0.516045	-0.209440
H89	H	1.303517	-0.516111	-0.145100
H90	H	1.363330	-0.570534	-0.149614
H91	H	1.006071	-0.860932	-0.389311
H92	H	1.043174	-0.659044	-0.469161
H93	H	1.225403	-0.374447	-0.677756
C94	C	1.239157	-0.385296	-0.919618
C95	C	1.283123	-0.420364	-0.973051
C96	C	1.333398	-0.460468	-0.932203
H97	H	1.209196	-0.412659	-0.887618
H98	H	1.273411	-0.361346	-0.887672
H99	H	1.248874	-0.444312	-1.004985
H100	H	1.313101	-0.393018	-1.005054
H101	H	1.367651	-0.436518	-0.900257
H102	H	1.303430	-0.487826	-0.900204
H103	H	1.363240	-0.484262	-0.968451
H104	H	1.043363	-1.062681	-0.469255
C105	C	1.029574	-0.935198	-0.482862
C106	C	0.985587	-0.977860	-0.526779
C107	C	0.935233	-0.945271	-0.576960
H108	H	1.059479	-0.909626	-0.517157
H109	H	0.995338	-0.909731	-0.452812
H110	H	1.019819	-1.003318	-0.556827
H111	H	0.955666	-1.003434	-0.492505
H112	H	0.900996	-0.919803	-0.546910
H113	H	0.965144	-0.919700	-0.611250
H114	H	0.905376	-0.974212	-0.606759
C115	C	1.029675	-0.218231	-0.837711
C116	C	0.979327	-0.253691	-0.884740
C117	C	0.929056	-0.213717	-0.925792
H118	H	1.059644	-0.190917	-0.869770
H119	H	0.999745	-0.194379	-0.801592
H120	H	1.009254	-0.277532	-0.920854
H121	H	0.949341	-0.281003	-0.852700
H122	H	0.899126	-0.189866	-0.889672
H123	H	0.959032	-0.186406	-0.957846
H124	H	0.894885	-0.237771	-0.957700
H125	H	1.225437	-0.659021	-0.287166
H126	H	1.225635	-1.062657	-0.287263
H127	H	1.225436	-0.374417	-0.826484
C128	C	0.593901	-0.218244	-0.273630
C129	C	0.640937	-0.253673	-0.223248
C130	C	0.682052	-0.213664	-0.173078
H131	H	0.557843	-0.194338	-0.243712
H132	H	0.625956	-0.190983	-0.303695
H133	H	0.608885	-0.280923	-0.193186
H134	H	0.677009	-0.277578	-0.253143
H135	H	0.714107	-0.186402	-0.203143
H136	H	0.645988	-0.189760	-0.143166
H137	H	0.713976	-0.237696	-0.138893
H138	H	1.006013	-0.742228	-0.389295
C139	C	1.029607	-0.531412	-0.482851
C140	C	1.074006	-0.493792	-0.533207
C141	C	1.023898	-0.461041	-0.583470
H142	H	0.995396	-0.505880	-0.452877
H143	H	0.999718	-0.560251	-0.512776
H144	H	1.103882	-0.464957	-0.503286
H145	H	1.108216	-0.519309	-0.563199
H146	H	0.994009	-0.489881	-0.613394
H147	H	0.989689	-0.435513	-0.553489
H148	H	1.054015	-0.435517	-0.617646
H149	H	1.043405	-0.228995	-0.930650
H150	H	1.043435	-0.228961	-1.079382
H151	H	0.835500	-0.374604	-0.469066
C152	C	1.281941	-0.733266	-0.365435
C153	C	1.343908	-0.775878	-0.360103
C154	C	1.414722	-0.743232	-0.354016
H155	H	1.281051	-0.707765	-0.319932
H156	H	1.288839	-0.707722	-0.410440
H157	H	1.337011	-0.801411	-0.315103
H158	H	1.344823	-0.801381	-0.405601
H159	H	1.421620	-0.717688	-0.399021
H160	H	1.413824	-0.717732	-0.308513
H161	H	1.456775	-0.772139	-0.350405
C162	C	0.675790	-0.385573	-0.482707
C163	C	0.729232	-0.420723	-0.526560
C164	C	0.688394	-0.460939	-0.576695
H165	H	0.643832	-0.361720	-0.517044
H166	H	0.643801	-0.412874	-0.452626
H167	H	0.761206	-0.393425	-0.556638
H168	H	0.761191	-0.444589	-0.492243
H169	H	0.656406	-0.488240	-0.546615
H170	H	0.656437	-0.437080	-0.611027
H171	H	0.724648	-0.484797	-0.606450
H172	H	0.582653	-0.374618	-0.469094
H173	H	0.433936	-0.229034	-0.287304
H174	H	1.262719	-0.860765	-0.367092
