data_functionalizedCrystal
_audit_creation_method	'MofGen! by Chris Wilmer'
_symmetry_space_group_name_H-M	'P1'
_symmetry_Int_Tables_number	1
_symmetry_cell_setting	triclinic
loop_
_symmetry_equiv_pos_as_xyz
  x,y,z
_cell_length_a	17.077404
_cell_length_b	17.077402
_cell_length_c	17.077396
_cell_angle_alpha	89.972568
_cell_angle_beta	90.019501
_cell_angle_gamma	89.975442
loop_
_atom_site_label
_atom_site_type_symbol
_atom_site_fract_x
_atom_site_fract_y
_atom_site_fract_z
Zn1	Zn	1.200047	0.312503	0.443848
Zn2	Zn	1.700047	0.812503	0.943848
Zn3	Zn	1.199951	0.443778	0.312585
Zn4	Zn	1.699951	0.943778	0.812585
Zn5	Zn	1.068779	0.312531	0.312596
Zn6	Zn	1.568779	0.812531	0.812596
Zn7	Zn	1.068743	0.443732	0.443808
Zn8	Zn	1.568743	0.943732	0.943808
O9	O	1.134380	0.378136	0.378210
O10	O	1.634380	0.878136	0.878210
O11	O	1.309881	0.329925	0.426448
O12	O	1.809881	0.829925	0.926448
O13	O	1.182525	0.426399	0.202739
O14	O	1.682525	0.926399	0.702739
O15	O	1.086247	0.202680	0.330029
O16	O	1.586247	0.702680	0.830029
O17	O	1.309810	0.426372	0.330009
O18	O	1.809810	0.926372	0.830009
O19	O	1.182689	0.202660	0.426459
O20	O	1.682689	0.702660	0.926459
O21	O	1.086153	0.329972	0.202748
O22	O	1.586153	0.829972	0.702748
O23	O	0.958927	0.329927	0.329990
O24	O	1.458927	0.829927	0.829990
O25	O	1.086186	0.426293	0.553661
O26	O	1.586186	0.926293	1.053661
O27	O	0.958901	0.426320	0.426391
O28	O	1.458901	0.926320	0.926391
O29	O	1.182655	0.329880	0.553690
O30	O	1.682655	0.829880	1.053690
O31	O	1.182491	0.553619	0.329970
O32	O	1.682491	1.053619	0.829970
O33	O	1.086093	0.553585	0.426380
O34	O	1.586093	1.053585	0.926380
C35	C	0.930432	0.378122	0.378188
C36	C	1.430432	0.878122	0.878188
C37	C	0.843182	0.378135	0.378197
C38	C	1.343182	0.878135	0.878197
C39	C	0.802199	0.428402	0.428313
C40	C	1.302199	0.928402	0.928313
C41	C	0.720219	0.428404	0.428325
C42	C	1.220219	0.928404	0.928325
C43	C	0.679223	0.378141	0.378218
C44	C	1.179223	0.878141	0.878218
C45	C	0.720212	0.327869	0.328100
C46	C	1.220212	0.827869	0.828100
C47	C	0.802191	0.327863	0.328092
C48	C	1.302191	0.827863	0.828092
C49	C	0.549342	0.327884	0.328119
C50	C	1.049342	0.827884	0.828119
C51	C	0.467357	0.327890	0.328126
C52	C	0.967357	0.827890	0.828126
C53	C	0.467370	0.428424	0.428352
C54	C	0.967370	0.928424	0.928352
C55	C	0.549348	0.428419	0.428344
C56	C	1.049348	0.928419	0.928344
C57	C	0.590332	0.378147	0.378225
C58	C	1.090332	0.878147	0.878225
C59	C	1.134299	0.582084	0.378187
C60	C	1.634299	1.082084	0.878187
C61	C	1.134336	0.669334	0.378203
C62	C	1.634336	1.169334	0.878203
C63	C	1.184580	0.710316	0.328058
C64	C	1.684580	1.210316	0.828058
C65	C	1.184617	0.792296	0.328082
C66	C	1.684617	1.292296	0.828082
C67	C	1.134404	0.833293	0.378246
C68	C	1.634404	1.333293	0.878246
C69	C	1.084158	0.792305	0.428397
C70	C	1.584158	1.292305	0.928397
C71	C	1.084126	0.710327	0.428377
C72	C	1.584126	1.210327	0.928377
C73	C	1.084226	0.963175	0.428434
C74	C	1.584226	1.463175	0.928434
C75	C	1.084256	1.045160	0.428453
C76	C	1.584256	1.545160	0.928453
C77	C	1.184717	1.045145	0.328138
C78	C	1.684717	1.545145	0.828138
C79	C	1.184685	0.963166	0.328118
C80	C	1.684685	1.463166	0.828118
C81	C	1.134437	0.922184	0.378268
C82	C	1.634437	1.422184	0.878268
C83	C	1.339124	0.378151	0.378232
C84	C	1.839124	0.878151	0.878232
C85	C	1.426374	0.378157	0.378241
C86	C	1.926374	0.878157	0.878241
C87	C	1.134427	0.378078	0.582954
C88	C	1.634427	0.878078	1.082954
C89	C	1.134447	0.378054	0.670204
C90	C	1.634447	0.878054	1.170204
C91	C	1.134476	1.173392	0.378260
C92	C	1.634476	1.673392	0.878260
C93	C	1.134501	1.086142	0.378308
C94	C	1.634501	1.586142	0.878308
C95	C	1.134378	0.378137	0.174262
C96	C	1.634378	0.878137	0.674262
C97	C	1.134509	0.377941	0.087012
C98	C	1.634509	0.877941	0.587012
C99	C	1.184680	0.327847	0.711210
C100	C	1.684680	0.827847	1.211210
C101	C	1.184690	0.327821	0.793191
C102	C	1.684690	0.827821	1.293191
C103	C	1.134470	0.378006	0.834163
C104	C	1.634470	0.878006	1.334163
C105	C	1.084231	0.428214	0.793151
C106	C	1.584231	0.928214	1.293151
C107	C	1.084219	0.428236	0.711172
C108	C	1.584219	0.928236	1.211172
C109	C	1.084263	0.428167	0.964021
C110	C	1.584263	0.928167	1.464021
C111	C	1.084277	0.428147	1.046006
C112	C	1.584277	0.928147	1.546006
C113	C	1.184734	0.327752	1.046040
C114	C	1.684734	0.827752	1.546040
C115	C	1.184721	0.327774	0.964061
C116	C	1.684721	0.827774	1.464061
C117	C	1.134484	0.377984	0.923054
C118	C	1.634484	0.877984	1.423054
H119	H	0.686826	0.286941	0.287305
H120	H	1.186826	0.786941	0.787305
H121	H	1.043311	0.929811	0.469273
H122	H	1.543311	1.429811	0.969273
C123	C	1.028920	0.837405	0.483576
C124	C	1.528920	1.337405	0.983576
N125	N	0.987311	0.871374	0.525135
N126	N	1.487311	1.371374	1.025135
H127	H	1.225596	0.286940	0.826575
H128	H	1.725596	0.786940	1.326575
C129	C	1.239997	1.090227	0.272980
C130	C	1.739997	1.590227	0.772980
N131	N	1.281632	1.124186	0.231436
N132	N	1.781632	1.624186	0.731436
C133	C	1.028981	0.483411	0.838223
C134	C	1.528981	0.983411	1.338223
N135	N	0.987365	0.524985	0.872171
N136	N	1.487365	1.024985	1.372171
C137	C	1.028960	0.483468	0.666065
C138	C	1.528960	0.983468	1.166065
N139	N	0.987336	0.525070	0.632091
N140	N	1.487336	1.025070	1.132091
H141	H	1.043384	1.078538	0.469316
H142	H	1.543384	1.578538	0.969316
H143	H	1.043381	0.469010	1.079363
H144	H	1.543381	0.969010	1.579363
C145	C	1.028853	0.665247	0.483540
C146	C	1.528853	1.165247	0.983540
N147	N	0.987223	0.631294	0.525093
N148	N	1.487223	1.131294	1.025093
C149	C	0.847287	0.483696	0.483435
C150	C	1.347287	0.983696	0.983435
N151	N	0.881245	0.525343	0.524958
N152	N	1.381245	1.025343	1.024958
H153	H	0.686854	0.469337	0.469133
H154	H	1.186854	0.969337	0.969133
H155	H	0.433980	0.286953	0.287333
H156	H	0.933980	0.786953	0.787333
C157	C	1.239964	0.272566	0.918993
C158	C	1.739964	0.772566	1.418993
N159	N	1.281571	0.230980	0.885048
N160	N	1.781571	0.730980	1.385048
C161	C	0.422286	0.483720	0.483487
C162	C	0.922286	0.983720	0.983487
N163	N	0.388326	0.525369	0.525012
N164	N	0.888326	1.025369	1.025012
C165	C	0.594442	0.483714	0.483461
C166	C	1.094442	0.983714	0.983461
N167	N	0.628407	0.525363	0.524976
N168	N	1.128407	1.025363	1.024976
H169	H	1.225578	0.286983	0.677857
H170	H	1.725578	0.786983	1.177857
C171	C	1.239995	0.272520	1.091149
C172	C	1.739995	0.772520	1.591149
N173	N	1.281619	0.230924	1.125129
N174	N	1.781619	0.730924	1.625129
C175	C	0.594421	0.272584	0.272983
C176	C	1.094421	0.772584	0.772983
N177	N	0.628375	0.230936	0.231452
N178	N	1.128375	0.730936	0.731452
C179	C	0.847271	0.272567	0.272959
C180	C	1.347271	0.772567	0.772959
N181	N	0.881226	0.230915	0.231433
N182	N	1.381226	0.730915	0.731433
H183	H	1.043342	0.469041	0.930636
H184	H	1.543342	0.969041	1.430636
C185	C	1.239817	0.665226	0.272870
C186	C	1.739817	1.165226	0.772870
N187	N	1.281426	0.631268	0.231302
N188	N	1.781426	1.131268	0.731302
C189	C	1.239909	0.918071	0.272922
C190	C	1.739909	1.418071	0.772922
N191	N	1.281502	0.884105	0.231345
N192	N	1.781502	1.384105	0.731345
H193	H	1.225530	0.825660	0.287248
H194	H	1.725530	1.325660	0.787248
