data_functionalizedCrystal
_audit_creation_method	'MofGen! by Chris Wilmer'
_symmetry_space_group_name_H-M	'P1'
_symmetry_Int_Tables_number	1
_symmetry_cell_setting	triclinic
loop_
_symmetry_equiv_pos_as_xyz
  x,y,z
_cell_length_a	21.395361
_cell_length_b	12.759401
_cell_length_c	21.395355
_cell_angle_alpha	90.021356
_cell_angle_beta	90.021511
_cell_angle_gamma	90.030869
loop_
_atom_site_label
_atom_site_type_symbol
_atom_site_fract_x
_atom_site_fract_y
_atom_site_fract_z
Zn1	Zn	-0.249508	1.606168	0.354195
Zn2	Zn	-0.354268	1.606005	0.249412
Zn3	Zn	-0.249509	1.430461	0.249437
Zn4	Zn	-0.354252	1.430410	0.354158
O5	O	-0.301884	1.518261	0.301801
O6	O	-0.263412	1.753167	0.340300
O7	O	-0.340378	1.582672	0.161737
O8	O	-0.161831	1.453859	0.263360
O9	O	-0.340378	1.753047	0.263316
O10	O	-0.161831	1.582950	0.340325
O11	O	-0.263412	1.453701	0.161756
O12	O	-0.263397	1.283433	0.263324
O13	O	-0.340351	1.453771	0.441841
O14	O	-0.340351	1.283395	0.340262
O15	O	-0.263396	1.582900	0.441868
O16	O	-0.441944	1.582621	0.263281
O17	O	-0.441932	1.453613	0.340237
C18	C	-0.301873	1.245294	0.301792
C19	C	-0.301883	1.128517	0.301803
C20	C	-0.342018	1.073663	0.341798
C21	C	-0.342025	0.963938	0.341805
C22	C	-0.261763	0.963933	0.261816
C23	C	-0.261752	1.073655	0.261813
C24	C	-0.388358	1.073665	0.387978
C25	C	-0.388366	0.963941	0.387984
C26	C	-0.464672	1.518122	0.301766
C27	C	-0.534313	1.518159	0.301772
C28	C	-0.567012	1.585393	0.261742
C29	C	-0.632447	1.585442	0.261756
C30	C	-0.665182	1.518238	0.301793
C31	C	-0.632475	1.450999	0.341831
C32	C	-0.567041	1.450959	0.341820
C33	C	-0.768897	1.423640	0.306706
C34	C	-0.834330	1.423678	0.306713
C35	C	-0.867002	1.518360	0.301830
C36	C	-0.834234	1.613008	0.296928
C37	C	-0.768800	1.612969	0.296917
C38	C	-0.736134	1.518274	0.301810
C39	C	-0.970653	1.585653	0.261813
C40	C	-1.036090	1.585704	0.261831
C41	C	-1.036117	1.451251	0.341904
C42	C	-0.970682	1.451210	0.341888
C43	C	-0.937954	1.518410	0.301840
C44	C	-0.138461	1.518429	0.301849
C45	C	-0.068820	1.518500	0.301870
C46	C	-0.301872	1.518348	0.465224
C47	C	-0.301866	1.518385	0.534865
C48	C	-0.301897	1.792294	0.301809
C49	C	-0.301902	1.909071	0.301813
C50	C	-0.301852	1.518234	0.139013
C51	C	-0.301681	1.518401	0.069372
C52	C	-0.261794	1.585620	0.567593
C53	C	-0.261767	1.585618	0.633029
C54	C	-0.301824	1.518393	0.665734
C55	C	-0.341899	1.451146	0.632997
C56	C	-0.341920	1.451142	0.567563
C57	C	-0.358239	1.510050	0.769396
C58	C	-0.358219	1.510061	0.834829
C59	C	-0.301757	1.518400	0.867554
C60	C	-0.245315	1.526749	0.834838
C61	C	-0.245336	1.526745	0.769404
C62	C	-0.301805	1.518390	0.736686
C63	C	-0.261653	1.585637	0.971235
C64	C	-0.261625	1.585628	1.036672
C65	C	-0.341762	1.451161	1.036639
C66	C	-0.341784	1.451164	0.971204
C67	C	-0.301730	1.518408	0.938506
H68	H	-0.434423	1.107656	0.370507
H69	H	-1.062712	1.640461	0.229235
C70	C	-0.420301	1.500890	0.870814
H71	H	-0.412204	1.502104	0.914471
H72	H	-0.440337	1.436909	0.860081
H73	H	-0.446660	1.558022	0.860096
H74	H	-0.944057	1.396457	0.374482
H75	H	-0.374551	1.396386	0.540916
C76	C	-0.183256	1.535916	0.733416
H77	H	-0.191359	1.534725	0.689760
H78	H	-0.156895	1.478792	0.744128
H79	H	-0.163220	1.599904	0.744150
C80	C	-0.364988	0.918020	0.450301
H81	H	-0.354575	0.973497	0.478050
H82	H	-0.329045	0.876135	0.442926
H83	H	-0.396929	0.876109	0.468377
H84	H	-1.062769	1.396537	0.374506
C85	C	-0.370898	1.113961	0.453559
H86	H	-0.370899	1.188418	0.453555
H87	H	-0.330484	1.089186	0.464479
H88	H	-0.400551	1.089149	0.483102
C89	C	-0.453894	0.923649	0.370303
H90	H	-0.480836	0.981537	0.363020
H91	H	-0.470070	0.882305	0.403486
H92	H	-0.451200	0.882260	0.333485
H93	H	-0.944005	1.640375	0.229205
H94	H	-0.374419	1.396420	0.944556
H95	H	-0.404205	1.502978	0.742757
H96	H	-0.861005	1.346609	0.310698
C97	C	-0.732963	1.319483	0.312082
H98	H	-0.761849	1.263122	0.314995
H99	H	-0.707418	1.320804	0.348397
H100	H	-0.707462	1.310261	0.276162
C101	C	-0.531072	1.376993	0.385852
H102	H	-0.559936	1.336970	0.409698
H103	H	-0.505506	1.417142	0.413166
H104	H	-0.505587	1.331214	0.361851
C105	C	-0.668480	1.377074	0.385870
H106	H	-0.712134	1.386719	0.380139
H107	H	-0.657728	1.392408	0.427974
H108	H	-0.657798	1.306481	0.376658
C109	C	-0.385961	1.377199	0.668967
H110	H	-0.409828	1.337149	0.640101
H111	H	-0.413255	1.417361	0.694499
H112	H	-0.361979	1.331447	0.694485
H113	H	-0.540367	1.640114	0.229133
C114	C	-0.217732	1.659576	0.531629
H115	H	-0.193859	1.699613	0.560497
H116	H	-0.241709	1.705325	0.506109
H117	H	-0.190435	1.619407	0.506099
H118	H	-0.659075	1.640196	0.229158
H119	H	-0.229132	1.640367	0.659681
H120	H	-0.199339	1.533541	0.861482
H121	H	-0.742121	1.690033	0.292927
C122	C	-0.217586	1.659582	0.935265
H123	H	-0.193708	1.699612	0.964131
H124	H	-0.241559	1.705338	0.909746
H125	H	-0.190294	1.619404	0.909734
H126	H	-0.374370	1.396414	1.063267
C127	C	-0.217603	1.133991	0.217820
H128	H	-0.193710	1.085601	0.194001
H129	H	-0.190337	1.176831	0.241837
H130	H	-0.241529	1.176755	0.190470
C131	C	-0.217623	0.903586	0.217828
H132	H	-0.193716	0.951973	0.194011
H133	H	-0.241550	0.860744	0.190486
H134	H	-0.190360	0.860824	0.241855
C135	C	-0.870164	1.717165	0.291562
H136	H	-0.913827	1.703639	0.292278
H137	H	-0.859447	1.750790	0.253435
H138	H	-0.859394	1.761318	0.325672
C139	C	-0.217544	1.659591	1.072673
H140	H	-0.193698	1.699641	1.043825
H141	H	-0.190230	1.619436	1.098192
H142	H	-0.241512	1.705342	1.098207
