data_functionalizedCrystal
_audit_creation_method	'MofGen! by Chris Wilmer'
_symmetry_space_group_name_H-M	'P1'
_symmetry_Int_Tables_number	1
_symmetry_cell_setting	triclinic
loop_
_symmetry_equiv_pos_as_xyz
  x,y,z
_cell_length_a	17.077402
_cell_length_b	12.759401
_cell_length_c	12.759393
_cell_angle_alpha	89.977503
_cell_angle_beta	90.034688
_cell_angle_gamma	89.976295
loop_
_atom_site_label
_atom_site_type_symbol
_atom_site_fract_x
_atom_site_fract_y
_atom_site_fract_z
Zn1	Zn	-0.312453	-1.606207	0.594033
Zn2	Zn	0.020880	-1.272873	0.927367
Zn3	Zn	0.354214	-0.939540	1.260700
Zn4	Zn	-0.443739	-1.606073	0.418340
Zn5	Zn	-0.110406	-1.272739	0.751674
Zn6	Zn	0.222928	-0.939406	1.085007
Zn7	Zn	-0.312493	-1.430505	0.418364
Zn8	Zn	0.020840	-1.097172	0.751697
Zn9	Zn	0.354174	-0.763839	1.085030
Zn10	Zn	-0.443683	-1.430472	0.593973
Zn11	Zn	-0.110349	-1.097139	0.927306
Zn12	Zn	0.222984	-0.763805	1.260640
O13	O	-0.378092	-1.518314	0.506178
O14	O	-0.044759	-1.184981	0.839511
O15	O	0.288575	-0.851648	1.172844
O16	O	-0.329875	-1.753210	0.570743
O17	O	0.003458	-1.419877	0.904076
O18	O	0.336792	-1.086543	1.237409
O19	O	-0.426369	-1.582741	0.271322
O20	O	-0.093036	-1.249408	0.604656
O21	O	0.240297	-0.916074	0.937989
O22	O	-0.202641	-1.453882	0.441701
O23	O	0.130693	-1.120549	0.775035
O24	O	0.464026	-0.787216	1.108368
O25	O	-0.426330	-1.753111	0.441662
O26	O	-0.092997	-1.419778	0.774995
O27	O	0.240336	-1.086445	1.108329
O28	O	-0.202611	-1.582969	0.570765
O29	O	0.130722	-1.249636	0.904098
O30	O	0.464055	-0.916303	1.237432
O31	O	-0.329944	-1.453753	0.271339
O32	O	0.003390	-1.120419	0.604673
O33	O	0.336723	-0.787086	0.938006
O34	O	-0.329889	-1.283480	0.441643
O35	O	0.003444	-0.950147	0.774976
O36	O	0.336778	-0.616813	1.108310
O37	O	-0.426234	-1.453826	0.741002
O38	O	-0.092901	-1.120493	1.074335
O39	O	0.240432	-0.787159	1.407669
O40	O	-0.426273	-1.283456	0.570662
O41	O	-0.092940	-0.950122	0.903996
O42	O	0.240393	-0.616789	1.237329
O43	O	-0.329820	-1.582937	0.741046
O44	O	0.003513	-1.249604	1.074380
O45	O	0.336846	-0.916271	1.407713
O46	O	-0.553578	-1.582709	0.441604
O47	O	-0.220245	-1.249376	0.774937
O48	O	0.113088	-0.916042	1.108270
O49	O	-0.553537	-1.453696	0.570640
O50	O	-0.220204	-1.120363	0.903973
O51	O	0.113130	-0.787029	1.237307
C52	C	-0.378080	-1.245347	0.506149
C53	C	-0.044746	-0.912014	0.839483
C54	C	0.288587	-0.578680	1.172816
C55	C	-0.378094	-1.128570	0.506162
C56	C	-0.044760	-0.795237	0.839495
C57	C	0.288573	-0.461904	1.172829
C58	C	-0.582040	-1.518213	0.506136
C59	C	-0.248706	-1.184879	0.839469
C60	C	0.084627	-0.851546	1.172802
C61	C	-0.669290	-1.518266	0.506153
C62	C	-0.335956	-1.184932	0.839486
C63	C	-0.002623	-0.851599	1.172819
C64	C	-0.428357	-1.073723	0.573235
C65	C	-0.095023	-0.740390	0.906569
C66	C	0.238310	-0.407056	1.239902
C67	C	-0.428359	-0.963999	0.573253
C68	C	-0.095025	-0.630666	0.906586
C69	C	0.238308	-0.297332	1.239920
C70	C	-0.327832	-0.963979	0.439116
C71	C	0.005501	-0.630646	0.772449
C72	C	0.338835	-0.297312	1.105782
C73	C	-0.327827	-1.073701	0.439104
C74	C	0.005507	-0.740368	0.772437
C75	C	0.338840	-0.407034	1.105770
C76	C	-0.710275	-1.585511	0.439036
C77	C	-0.376942	-1.252178	0.772369
C78	C	-0.043609	-0.918845	1.105702
C79	C	-0.792256	-1.585563	0.439062
C80	C	-0.458922	-1.252229	0.772396
C81	C	-0.125589	-0.918896	1.105729
C82	C	-0.833249	-1.518362	0.506202
C83	C	-0.499916	-1.185029	0.839535
C84	C	-0.166582	-0.851696	1.172869
C85	C	-0.792258	-1.451114	0.573326
C86	C	-0.458924	-1.117780	0.906660
C87	C	-0.125591	-0.784447	1.239993
C88	C	-0.710279	-1.451068	0.573304
C89	C	-0.376945	-1.117735	0.906637
C90	C	-0.043612	-0.784402	1.239971
C91	C	-0.963128	-1.451211	0.573366
C92	C	-0.629794	-1.117878	0.906700
C93	C	-0.296461	-0.784544	1.240033
C94	C	-1.045112	-1.451255	0.573387
C95	C	-0.711779	-1.117921	0.906721
C96	C	-0.378445	-0.784588	1.240054
C97	C	-1.045105	-1.585705	0.439125
C98	C	-0.711771	-1.252372	0.772458
C99	C	-0.378438	-0.919039	1.105791
C100	C	-0.963126	-1.585660	0.439102
C101	C	-0.629792	-1.252327	0.772436
C102	C	-0.296459	-0.918993	1.105769
C103	C	-0.922140	-1.518410	0.506226
C104	C	-0.588807	-1.185076	0.839559
C105	C	-0.255473	-0.851743	1.172892
C106	C	-0.173348	-1.518445	0.506243
C107	C	0.159986	-1.185111	0.839576
C108	C	0.493319	-0.851778	1.172909
C109	C	-0.086098	-1.518500	0.506270
C110	C	0.247236	-1.185167	0.839604
C111	C	0.580569	-0.851834	1.172937
C112	C	-0.378017	-1.518393	0.780211
C113	C	-0.044683	-1.185059	1.113544
C114	C	0.288650	-0.851726	1.446878
C115	C	-0.377984	-1.518426	0.896988
C116	C	-0.044651	-1.185093	1.230321
C117	C	0.288682	-0.851760	1.563654
C118	C	-0.378102	-0.792347	0.506200
C119	C	-0.044769	-0.459014	0.839533
C120	C	0.288564	-0.125681	1.172866
C121	C	-0.378101	-0.909124	0.506192
C122	C	-0.044768	-0.575791	0.839525
C123	C	0.288566	-0.242457	1.172858
C124	C	-0.378110	-1.518296	0.233210
C125	C	-0.044777	-1.184963	0.566543
C126	C	0.288556	-0.851630	0.899877
C127	C	-0.377921	-1.518466	0.116434
C128	C	-0.044588	-1.185133	0.449767
C129	C	0.288745	-0.851800	0.783101
C130	C	-0.327774	-1.585660	0.951874
C131	C	0.005560	-1.252326	1.285208
C132	C	0.338893	-0.918993	1.618541
C133	C	-0.327740	-1.585677	1.061599
C134	C	0.005593	-1.252344	1.394932
C135	C	0.338927	-0.919011	1.728265
C136	C	-0.428134	-1.451226	1.061540
C137	C	-0.094801	-1.117892	1.394873
C138	C	0.238532	-0.784559	1.728206
C139	C	-0.428164	-1.451203	0.951817
C140	C	-0.094830	-1.117870	1.285151
C141	C	0.238503	-0.784537	1.618484
H142	H	-0.469285	-1.118394	0.627841
H143	H	-0.135952	-0.785061	0.961174
H144	H	0.197381	-0.451728	1.294508
H145	H	-0.468990	-1.396498	1.106195
H146	H	-0.135657	-1.063164	1.439529
H147	H	0.197677	-0.729831	1.772862
N148	N	-0.482574	-0.904841	0.645591
N149	N	-0.149241	-0.571508	0.978925
N150	N	0.184092	-0.238174	1.312258
H151	H	-0.514416	-0.956253	0.688065
H152	H	-0.181083	-0.622920	1.021399
H153	H	0.152250	-0.289587	1.354732
H154	H	-0.518861	-0.859279	0.602735
H155	H	-0.185528	-0.525946	0.936069
H156	H	0.147806	-0.192612	1.269402
H157	H	-0.469051	-1.396447	0.907127
H158	H	-0.135717	-1.063113	1.240461
H159	H	0.197616	-0.729780	1.573794
N160	N	-0.273639	-0.904798	0.366764
N161	N	0.059695	-0.571465	0.700097
N162	N	0.393028	-0.238132	1.033430
H163	H	-0.281276	-0.826967	0.376937
H164	H	0.052057	-0.493633	0.710270
H165	H	0.385391	-0.160300	1.043603
H166	H	-0.285808	-0.923951	0.291708
H167	H	0.047526	-0.590618	0.625041
H168	H	0.380859	-0.257284	0.958375
H169	H	-0.286892	-1.118359	0.384485
H170	H	0.046442	-0.785025	0.717818
H171	H	0.379775	-0.451692	1.051151
N172	N	-0.273658	-1.658165	0.892734
N173	N	0.059675	-1.324831	1.226068
N174	N	0.393009	-0.991498	1.559401
H175	H	-0.237291	-1.615492	0.847205
H176	H	0.096042	-1.282159	1.180538
H177	H	0.429375	-0.948826	1.513872
H178	H	-0.305640	-1.706803	0.847278
H179	H	0.027693	-1.373470	1.180611
H180	H	0.361026	-1.040136	1.513945
H181	H	-0.286852	-1.640424	1.106283
H182	H	0.046481	-1.307090	1.439616
H183	H	0.379815	-0.973757	1.772949
H184	H	-0.825623	-1.640320	0.384408
H185	H	-0.492289	-1.306987	0.717742
H186	H	-0.158956	-0.973653	1.051075
N187	N	-0.666064	-1.657989	0.366617
N188	N	-0.332730	-1.324655	0.699950
N189	N	0.000603	-0.991322	1.033283
H190	H	-0.704471	-1.700598	0.324105
H191	H	-0.371138	-1.367265	0.657439
H192	H	-0.037804	-1.033931	0.990772
H193	H	-0.631995	-1.706567	0.409420
H194	H	-0.298661	-1.373234	0.742753
H195	H	0.034672	-1.039900	1.076087
H196	H	-0.929749	-1.640374	0.384427
H197	H	-0.596416	-1.307041	0.717761
H198	H	-0.263082	-0.973707	1.051094
H199	H	-1.078479	-1.640466	0.384474
H200	H	-0.745146	-1.307133	0.717807
H201	H	-0.411812	-0.973800	1.051140
H202	H	-1.078487	-1.396554	0.628078
H203	H	-0.745153	-1.063220	0.961411
H204	H	-0.411820	-0.729887	1.294745
H205	H	-0.676909	-1.396311	0.627959
H206	H	-0.343575	-1.062978	0.961292
H207	H	-0.010242	-0.729645	1.294626
N208	N	-0.918919	-1.378683	0.645767
N209	N	-0.585585	-1.045350	0.979100
N210	N	-0.252252	-0.712017	1.312433
H211	H	-0.957326	-1.336116	0.688301
H212	H	-0.623992	-1.002782	1.021634
H213	H	-0.290659	-0.669449	1.354967
H214	H	-0.884961	-1.330068	0.602945
H215	H	-0.551628	-0.996734	0.936279
H216	H	-0.218294	-0.663401	1.269612
H217	H	-0.825641	-1.396402	0.627997
H218	H	-0.492307	-1.063069	0.961330
H219	H	-0.158974	-0.729736	1.294664
