data_functionalizedCrystal
_audit_creation_method	'MofGen! by Chris Wilmer'
_symmetry_space_group_name_H-M	'P1'
_symmetry_Int_Tables_number	1
_symmetry_cell_setting	triclinic
loop_
_symmetry_equiv_pos_as_xyz
  x,y,z
_cell_length_a	12.759401
_cell_length_b	17.077402
_cell_length_c	12.759393
_cell_angle_alpha	89.966694
_cell_angle_beta	89.979541
_cell_angle_gamma	90.026753
loop_
_atom_site_label
_atom_site_type_symbol
_atom_site_fract_x
_atom_site_fract_y
_atom_site_fract_z
Zn1	Zn	1.606185	-0.312443	-0.593995
Zn2	Zn	1.606045	-0.443728	-0.418304
Zn3	Zn	1.430485	-0.312483	-0.418330
Zn4	Zn	1.430443	-0.443674	-0.593942
O5	O	1.518289	-0.378082	-0.506143
O6	O	1.753187	-0.329864	-0.570701
O7	O	1.582715	-0.426357	-0.271287
O8	O	1.453868	-0.202631	-0.441665
O9	O	1.753084	-0.426318	-0.441622
O10	O	1.582954	-0.202602	-0.570726
O11	O	1.453732	-0.329933	-0.271306
O12	O	1.283458	-0.329881	-0.441614
O13	O	1.453796	-0.426227	-0.740970
O14	O	1.283427	-0.426266	-0.570635
O15	O	1.582913	-0.329812	-0.741009
O16	O	1.582675	-0.553568	-0.441570
O17	O	1.453661	-0.553528	-0.570610
C18	C	1.245322	-0.378073	-0.506122
C19	C	1.128545	-0.378087	-0.506138
C20	C	1.518177	-0.582030	-0.506104
C21	C	1.518225	-0.669280	-0.506123
C22	C	1.073695	-0.428352	-0.573213
C23	C	0.963971	-0.428355	-0.573234
C24	C	0.963957	-0.327827	-0.439095
C25	C	1.073679	-0.327821	-0.439080
C26	C	1.585620	-1.045015	-0.573467
C27	C	1.585572	-0.963035	-0.573442
C28	C	1.518391	-0.922129	-0.506185
C29	C	1.451259	-0.963207	-0.438942
C30	C	1.451313	-1.045186	-0.438962
C31	C	1.451151	-0.792337	-0.438906
C32	C	1.451096	-0.710353	-0.438887
C33	C	1.585411	-0.710186	-0.573386
C34	C	1.585464	-0.792165	-0.573407
C35	C	1.518331	-0.833238	-0.506164
C36	C	1.792322	-0.378092	-0.506164
C37	C	1.909099	-0.378097	-0.506174
C38	C	1.518366	-0.378009	-0.780176
C39	C	1.518398	-0.377978	-0.896953
C40	C	1.518431	-0.173338	-0.506204
C41	C	1.518491	-0.086088	-0.506231
C42	C	1.585587	-0.428128	-1.061541
C43	C	1.585562	-0.428165	-0.951817
C44	C	1.451248	-0.327756	-0.951819
C45	C	1.451269	-0.327724	-1.061541
C46	C	1.518274	-0.378098	-0.233175
C47	C	1.518445	-0.377908	-0.116399
H48	H	1.118363	-0.469280	-0.627819
O49	O	1.385925	-0.279051	-1.114881
C50	C	1.318069	-0.323727	-1.178340
H51	H	1.311540	-0.385560	-1.145254
H52	H	1.350564	-0.326409	-1.261503
C53	C	1.216892	-0.209436	-1.220652
C54	C	1.208865	-0.285379	-1.180009
H55	H	1.149531	-0.185780	-1.221687
H56	H	1.262610	-0.179336	-1.177902
H57	H	1.243975	-0.211681	-1.289951
H58	H	1.181796	-0.283132	-1.110708
H59	H	1.163140	-0.315478	-1.222748
H60	H	1.640073	-0.676739	-0.628137
H61	H	0.919316	-0.469284	-0.627855
O62	O	1.650671	-0.923175	-0.638908
C63	C	1.627685	-0.943178	-0.743603
H64	H	1.543761	-0.965762	-0.748842
H65	H	1.684022	-0.990713	-0.771125
C66	C	1.742918	-0.842567	-0.807281
C67	C	1.639838	-0.870300	-0.813716
H68	H	1.750419	-0.797615	-0.850532
H69	H	1.758407	-0.829093	-0.736746
H70	H	1.789854	-0.882187	-0.830214
H71	H	1.592906	-0.830685	-0.790772
H72	H	1.624341	-0.883767	-0.884250
H73	H	1.640316	-1.078315	-0.628246
H74	H	1.396391	-0.677051	-0.384118
O75	O	0.910496	-0.279076	-0.373991
C76	C	0.801890	-0.289844	-0.388404
H77	H	0.786888	-0.350457	-0.422663
H78	H	0.770807	-0.243338	-0.444474
C79	C	0.763933	-0.208105	-0.240051
C80	C	0.745507	-0.282553	-0.282120
H81	H	0.729152	-0.203604	-0.174492
H82	H	0.837103	-0.200847	-0.230342
H83	H	0.738030	-0.169359	-0.286786
H84	H	0.771421	-0.321297	-0.235392
H85	H	0.672340	-0.289817	-0.291819
H86	H	1.118340	-0.286885	-0.384459
H87	H	1.396487	-0.825777	-0.384147
H88	H	1.640167	-0.825468	-0.628176
H89	H	1.396563	-0.929897	-0.384174
O90	O	1.650866	-0.476954	-1.114668
C91	C	1.710139	-0.521273	-1.042714
H92	H	1.667087	-0.524011	-0.964493
H93	H	1.789950	-0.492537	-1.031064
C94	C	1.778106	-0.601444	-1.181588
C95	C	1.725224	-0.604812	-1.085519
H96	H	1.787416	-0.652974	-1.207993
H97	H	1.738176	-0.571584	-1.230066
H98	H	1.844610	-0.577494	-1.171867
H99	H	1.658717	-0.628754	-1.095244
H100	H	1.765143	-0.634679	-1.037043
O101	O	1.650636	-0.477031	-0.898481
C102	C	1.590777	-0.527738	-0.834975
H103	H	1.508033	-0.532574	-0.868027
H104	H	1.587157	-0.503495	-0.751822
C105	C	1.743678	-0.603402	-0.792689
C106	C	1.642053	-0.609347	-0.833289
H107	H	1.775309	-0.653742	-0.791643
H108	H	1.784008	-0.569238	-0.835470
H109	H	1.740647	-0.583197	-0.723398
H110	H	1.645086	-0.629543	-0.902582
H111	H	1.601725	-0.643517	-0.790519
O112	O	1.385953	-0.279114	-0.898410
C113	C	1.318036	-0.323821	-0.834937
H114	H	1.355045	-0.383316	-0.818493
H115	H	1.240178	-0.332429	-0.877205
C116	C	1.253575	-0.207589	-0.750916
C117	C	1.299033	-0.280659	-0.730712
H118	H	1.241848	-0.180964	-0.686627
H119	H	1.299328	-0.177468	-0.793682
H120	H	1.188698	-0.214773	-0.786142
H121	H	1.363915	-0.273475	-0.695499
H122	H	1.253290	-0.310778	-0.687938
H123	H	1.396650	-1.078627	-0.384211
