data_functionalizedCrystal
_audit_creation_method	'MofGen! by Chris Wilmer'
_symmetry_space_group_name_H-M	'P1'
_symmetry_Int_Tables_number	1
_symmetry_cell_setting	triclinic
loop_
_symmetry_equiv_pos_as_xyz
  x,y,z
_cell_length_a	12.759401
_cell_length_b	12.759399
_cell_length_c	12.759393
_cell_angle_alpha	89.969730
_cell_angle_beta	89.980677
_cell_angle_gamma	90.014202
loop_
_atom_site_label
_atom_site_type_symbol
_atom_site_fract_x
_atom_site_fract_y
_atom_site_fract_z
Zn1	Zn	1.606258	-0.418248	-0.593985
Zn2	Zn	1.939592	-0.084914	-0.260652
Zn3	Zn	2.272925	0.248419	0.072681
Zn4	Zn	1.606150	-0.593961	-0.418304
Zn5	Zn	1.939483	-0.260628	-0.084971
Zn6	Zn	2.272816	0.072705	0.248363
Zn7	Zn	1.430559	-0.418294	-0.418324
Zn8	Zn	1.763892	-0.084961	-0.084991
Zn9	Zn	2.097225	0.248372	0.248343
Zn10	Zn	1.430548	-0.593882	-0.593945
Zn11	Zn	1.763881	-0.260549	-0.260611
Zn12	Zn	2.097214	0.072784	0.072722
O13	O	1.518379	-0.506096	-0.506140
O14	O	1.851712	-0.172763	-0.172806
O15	O	2.185045	0.160570	0.160527
O16	O	1.753265	-0.441570	-0.570689
O17	O	2.086598	-0.108237	-0.237356
O18	O	2.419932	0.225097	0.095977
O19	O	1.582816	-0.570711	-0.271286
O20	O	1.916149	-0.237378	0.062048
O21	O	2.249483	0.095955	0.395381
O22	O	1.453916	-0.271267	-0.441651
O23	O	1.787249	0.062066	-0.108318
O24	O	2.120582	0.395400	0.225016
O25	O	1.753185	-0.570666	-0.441617
O26	O	2.086518	-0.237333	-0.108284
O27	O	2.419852	0.096001	0.225049
O28	O	1.583001	-0.271233	-0.570709
O29	O	1.916335	0.062101	-0.237375
O30	O	2.249668	0.395434	0.095958
O31	O	1.453810	-0.441649	-0.271300
O32	O	1.787143	-0.108316	0.062033
O33	O	2.120477	0.225017	0.395367
O34	O	1.283536	-0.441573	-0.441612
O35	O	1.616869	-0.108239	-0.108278
O36	O	1.950203	0.225094	0.225055
O37	O	1.453897	-0.570532	-0.740971
O38	O	1.787230	-0.237198	-0.407638
O39	O	2.120564	0.096135	-0.074305
O40	O	1.283528	-0.570577	-0.570640
O41	O	1.616861	-0.237243	-0.237306
O42	O	1.950195	0.096090	0.096027
O43	O	1.582991	-0.441494	-0.741001
O44	O	1.916324	-0.108160	-0.407668
O45	O	2.249658	0.225173	-0.074334
O46	O	1.582806	-0.740972	-0.441578
O47	O	1.916139	-0.407639	-0.108245
O48	O	2.249472	-0.074305	0.225089
O49	O	1.453792	-0.740914	-0.570620
O50	O	1.787125	-0.407581	-0.237287
O51	O	2.120458	-0.074247	0.096046
C52	C	1.245411	-0.506072	-0.506124
C53	C	1.578745	-0.172739	-0.172791
C54	C	1.912078	0.160595	0.160543
C55	C	1.128635	-0.506087	-0.506142
C56	C	1.461968	-0.172753	-0.172809
C57	C	1.795301	0.160580	0.160524
C58	C	0.964078	-0.439012	-0.573461
C59	C	1.297411	-0.105679	-0.240128
C60	C	1.630744	0.227654	0.093205
C61	C	1.073802	-0.438992	-0.573454
C62	C	1.407135	-0.105658	-0.240121
C63	C	1.740468	0.227675	0.093212
C64	C	1.073738	-0.573214	-0.438841
C65	C	1.407071	-0.239881	-0.105507
C66	C	1.740404	0.093452	0.227826
C67	C	0.964016	-0.573240	-0.438854
C68	C	1.297349	-0.239906	-0.105520
C69	C	1.630682	0.093427	0.227813
C70	C	1.518314	-0.779064	-0.506116
C71	C	1.851647	-0.445730	-0.172782
C72	C	2.184981	-0.112397	0.160551
C73	C	1.518383	-0.895840	-0.506141
C74	C	1.851716	-0.562507	-0.172807
C75	C	2.185049	-0.229174	0.160526
C76	C	1.585637	-0.950698	-0.439024
C77	C	1.918970	-0.617364	-0.105691
C78	C	2.252304	-0.284031	0.227642
C79	C	1.585704	-1.060422	-0.439060
C80	C	1.919038	-0.727088	-0.105726
C81	C	2.252371	-0.393755	0.227607
C82	C	1.451254	-1.060422	-0.573330
C83	C	1.784588	-0.727088	-0.239997
C84	C	2.117921	-0.393755	0.093337
C85	C	1.451193	-0.950699	-0.573299
C86	C	1.784526	-0.617366	-0.239966
C87	C	2.117860	-0.284033	0.093367
C88	C	1.792412	-0.506122	-0.506156
C89	C	2.125745	-0.172788	-0.172822
C90	C	2.459078	0.160545	0.160511
C91	C	1.909188	-0.506133	-0.506162
C92	C	2.242522	-0.172799	-0.172829
C93	C	2.575855	0.160534	0.160504
C94	C	1.518455	-0.505999	-0.780173
C95	C	1.851788	-0.172665	-0.446840
C96	C	2.185122	0.160668	-0.113506
C97	C	1.518487	-0.505957	-0.896950
C98	C	1.851821	-0.172624	-0.563616
C99	C	2.185154	0.160710	-0.230283
C100	C	1.518472	-0.232063	-0.506186
C101	C	1.851805	0.101270	-0.172853
C102	C	2.185138	0.434604	0.160480
C103	C	1.518512	-0.115286	-0.506207
C104	C	1.851845	0.218047	-0.172873
C105	C	2.185178	0.551380	0.160460
C106	C	1.585688	-0.573081	-1.061540
C107	C	1.919022	-0.239748	-0.728206
C108	C	2.252355	0.093585	-0.394873
C109	C	1.585663	-0.573131	-0.951816
C110	C	1.918996	-0.239798	-0.618482
C111	C	2.252330	0.093536	-0.285149
C112	C	1.451325	-0.438736	-0.951814
C113	C	1.784659	-0.105403	-0.618480
C114	C	2.117992	0.227930	-0.285147
C115	C	1.451346	-0.438693	-1.061536
C116	C	1.784680	-0.105359	-0.728203
C117	C	2.118013	0.227974	-0.394869
C118	C	1.518363	-0.506118	-0.233172
C119	C	1.851696	-0.172785	0.100161
C120	C	2.185030	0.160549	0.433495
C121	C	1.518534	-0.505864	-0.116396
C122	C	1.851867	-0.172530	0.216937
C123	C	2.185201	0.160803	0.550271
H124	H	0.919441	-0.384369	-0.628268
H125	H	1.252774	-0.051036	-0.294935
H126	H	1.586107	0.282298	0.038399
Br127	Br	1.360181	-0.347482	-1.135991
Br128	Br	1.693514	-0.014149	-0.802658
Br129	Br	2.026847	0.319184	-0.469324
Br130	Br	0.889516	-0.664341	-0.347515
Br131	Br	1.222849	-0.331007	-0.014182
Br132	Br	1.556182	0.002326	0.319152
H133	H	1.118488	-0.384337	-0.628257
H134	H	1.451821	-0.051003	-0.294923
H135	H	1.785154	0.282330	0.038410
H136	H	1.640348	-0.906034	-0.384341
H137	H	1.973682	-0.572701	-0.051008
H138	H	2.307015	-0.239367	0.282325
Br139	Br	1.676801	-0.664363	-0.877371
Br140	Br	2.010134	-0.331030	-0.544038
Br141	Br	2.343468	0.002303	-0.210704
H142	H	1.396625	-0.384047	-0.907133
H143	H	1.729958	-0.050713	-0.573800
H144	H	2.063292	0.282620	-0.240467
H145	H	1.640471	-1.105082	-0.384409
H146	H	1.973804	-0.771748	-0.051075
H147	H	2.307138	-0.438415	0.282258
H148	H	1.396549	-1.105101	-0.628007
H149	H	1.729883	-0.771768	-0.294673
H150	H	2.063216	-0.438434	0.038660
H151	H	1.396426	-0.906032	-0.627958
H152	H	1.729760	-0.572698	-0.294625
H153	H	2.063093	-0.239365	0.038708
H154	H	1.640396	-0.627778	-1.106204
H155	H	1.973729	-0.294444	-0.772870
H156	H	2.307062	0.038889	-0.439537
H157	H	1.118391	-0.627849	-0.384038
H158	H	1.451725	-0.294515	-0.050705
H159	H	1.785058	0.038818	0.282628
