data_functionalizedCrystal
_audit_creation_method	'MofGen! by Chris Wilmer'
_symmetry_space_group_name_H-M	'P1'
_symmetry_Int_Tables_number	1
_symmetry_cell_setting	triclinic
loop_
_symmetry_equiv_pos_as_xyz
  x,y,z
_cell_length_a	17.077404
_cell_length_b	17.077402
_cell_length_c	17.077396
_cell_angle_alpha	89.972472
_cell_angle_beta	89.980499
_cell_angle_gamma	90.023718
loop_
_atom_site_label
_atom_site_type_symbol
_atom_site_fract_x
_atom_site_fract_y
_atom_site_fract_z
Zn1	Zn	1.200051	-0.312503	-0.443848
Zn2	Zn	1.700051	0.187497	0.056152
Zn3	Zn	1.199957	-0.443778	-0.312584
Zn4	Zn	1.699957	0.056222	0.187416
Zn5	Zn	1.068783	-0.312531	-0.312596
Zn6	Zn	1.568783	0.187469	0.187404
Zn7	Zn	1.068750	-0.443732	-0.443808
Zn8	Zn	1.568750	0.056268	0.056192
O9	O	1.134385	-0.378136	-0.378209
O10	O	1.634385	0.121864	0.121791
O11	O	1.309886	-0.329925	-0.426447
O12	O	1.809886	0.170075	0.073553
O13	O	1.182531	-0.426399	-0.202739
O14	O	1.682531	0.073601	0.297261
O15	O	1.086250	-0.202680	-0.330028
O16	O	1.586250	0.297320	0.169972
O17	O	1.309816	-0.426372	-0.330008
O18	O	1.809816	0.073628	0.169992
O19	O	1.182692	-0.202660	-0.426459
O20	O	1.682692	0.297340	0.073541
O21	O	1.086158	-0.329972	-0.202747
O22	O	1.586158	0.170028	0.297253
O23	O	0.958932	-0.329927	-0.329989
O24	O	1.458932	0.170073	0.170011
O25	O	1.086193	-0.426293	-0.553660
O26	O	1.586193	0.073707	-0.053660
O27	O	0.958907	-0.426320	-0.426390
O28	O	1.458907	0.073680	0.073610
O29	O	1.182659	-0.329880	-0.553690
O30	O	1.682659	0.170120	-0.053690
O31	O	1.182499	-0.553619	-0.329969
O32	O	1.682499	-0.053619	0.170031
O33	O	1.086101	-0.553585	-0.426379
O34	O	1.586101	-0.053585	0.073621
C35	C	0.930437	-0.378122	-0.378187
C36	C	1.430437	0.121878	0.121813
C37	C	0.843188	-0.378135	-0.378197
C38	C	1.343188	0.121865	0.121803
C39	C	0.802205	-0.428402	-0.428312
C40	C	1.302205	0.071598	0.071688
C41	C	0.720225	-0.428404	-0.428324
C42	C	1.220225	0.071596	0.071676
C43	C	0.679228	-0.378141	-0.378217
C44	C	1.179228	0.121859	0.121783
C45	C	0.720216	-0.327869	-0.328100
C46	C	1.220216	0.172131	0.171900
C47	C	0.802195	-0.327863	-0.328092
C48	C	1.302195	0.172137	0.171908
C49	C	0.549346	-0.327884	-0.328118
C50	C	1.049346	0.172116	0.171882
C51	C	0.467362	-0.327890	-0.328125
C52	C	0.967362	0.172110	0.171875
C53	C	0.467376	-0.428424	-0.428351
C54	C	0.967376	0.071576	0.071649
C55	C	0.549355	-0.428419	-0.428343
C56	C	1.049355	0.071581	0.071657
C57	C	0.590337	-0.378147	-0.378225
C58	C	1.090337	0.121853	0.121775
C59	C	1.134307	-0.582084	-0.378186
C60	C	1.634307	-0.082084	0.121814
C61	C	1.134346	-0.669334	-0.378202
C62	C	1.634346	-0.169334	0.121798
C63	C	1.184536	-0.710246	-0.428454
C64	C	1.684536	-0.210246	0.071546
C65	C	1.184569	-0.792226	-0.428470
C66	C	1.684569	-0.292226	0.071530
C67	C	1.134415	-0.833293	-0.378231
C68	C	1.634415	-0.333293	0.121769
C69	C	1.084220	-0.792375	-0.327977
C70	C	1.584220	-0.292375	0.172023
C71	C	1.084183	-0.710396	-0.327965
C72	C	1.584183	-0.210396	0.172035
C73	C	1.084300	-0.963245	-0.328004
C74	C	1.584300	-0.463245	0.171996
C75	C	1.084337	-1.045230	-0.328015
C76	C	1.584337	-0.545230	0.171985
C77	C	1.184686	-1.045075	-0.428510
C78	C	1.684686	-0.545075	0.071490
C79	C	1.184649	-0.963096	-0.428498
C80	C	1.684649	-0.463096	0.071502
C81	C	1.134455	-0.922184	-0.378243
C82	C	1.634455	-0.422184	0.121757
C83	C	1.339130	-0.378151	-0.378231
C84	C	1.839130	0.121849	0.121769
C85	C	1.426379	-0.378157	-0.378241
C86	C	1.926379	0.121843	0.121759
C87	C	1.134433	-0.378078	-0.582953
C88	C	1.634433	0.121922	-0.082953
C89	C	1.134453	-0.378054	-0.670203
C90	C	1.634453	0.121946	-0.170203
C91	C	1.134485	-0.173392	-0.378249
C92	C	1.634485	0.326608	0.121751
C93	C	1.134527	-0.086142	-0.378267
C94	C	1.634527	0.413858	0.121733
C95	C	1.184685	-0.327847	-0.711210
C96	C	1.684685	0.172153	-0.211210
C97	C	1.184695	-0.327821	-0.793190
C98	C	1.684695	0.172179	-0.293190
C99	C	1.134475	-0.378006	-0.834163
C100	C	1.634475	0.121994	-0.334163
C101	C	1.084238	-0.428214	-0.793150
C102	C	1.584238	0.071786	-0.293150
C103	C	1.084225	-0.428236	-0.711171
C104	C	1.584225	0.071764	-0.211171
C105	C	1.084269	-0.428167	-0.964020
C106	C	1.584269	0.071833	-0.464020
C107	C	1.084283	-0.428147	-1.046005
C108	C	1.584283	0.071853	-0.546005
C109	C	1.184739	-0.327752	-1.046040
C110	C	1.684739	0.172248	-0.546040
C111	C	1.184726	-0.327774	-0.964061
C112	C	1.684726	0.172226	-0.464061
C113	C	1.134489	-0.377984	-0.923054
C114	C	1.634489	0.122016	-0.423054
C115	C	1.134383	-0.378137	-0.174261
C116	C	1.634383	0.121863	0.325739
C117	C	1.134515	-0.377941	-0.087012
C118	C	1.634515	0.122059	0.412988
H119	H	0.686830	-0.286941	-0.287305
H120	H	1.186830	0.213059	0.212695
C121	C	1.028971	-0.665394	-0.272683
C122	C	1.528971	-0.165394	0.227317
N123	N	0.987381	-0.631498	-0.231045
N124	N	1.487381	-0.131498	0.268955
C125	C	1.239897	-1.090080	-0.483795
C126	C	1.739897	-0.590080	0.016205
N127	N	1.281481	-1.123981	-0.525433
N128	N	1.781481	-0.623981	-0.025433
C129	C	1.029160	-1.090402	-0.272755
C130	C	1.529160	-0.590402	0.227245
N131	N	0.987598	-1.124425	-0.231133
N132	N	1.487598	-0.624425	0.268867
C133	C	0.594425	-0.272584	-0.272983
C134	C	1.094425	0.227416	0.227017
N135	N	0.628378	-0.230936	-0.231452
N136	N	1.128378	0.269064	0.268548
C137	C	1.239968	-0.272566	-0.918993
C138	C	1.739968	0.227434	-0.418993
N139	N	1.281574	-0.230980	-0.885048
N140	N	1.781574	0.269020	-0.385048
C141	C	1.029087	-0.918244	-0.272716
C142	C	1.529087	-0.418244	0.227284
N143	N	0.987506	-0.884349	-0.231070
N144	N	1.487506	-0.384349	0.268930
C145	C	1.239792	-0.837226	-0.483741
C146	C	1.739792	-0.337226	0.016259
N147	N	1.281392	-0.871119	-0.525370
N148	N	1.781392	-0.371119	-0.025370
H149	H	1.225492	-0.929660	-0.469402
H150	H	1.725492	-0.429660	0.030598
C151	C	0.422267	-0.272596	-0.273008
C152	C	0.922267	0.227404	0.226992
N153	N	0.388302	-0.230947	-0.231492
N154	N	0.888302	0.269053	0.268508
C155	C	1.239930	-0.272638	-0.666148
C156	C	1.739930	0.227362	-0.166148
N157	N	1.281540	-0.231050	-0.632210
N158	N	1.781540	0.268950	-0.132210
H159	H	1.043349	-0.469041	-0.930635
H160	H	1.543349	0.030959	-0.430635
C161	C	0.847294	-0.483696	-0.483435
C162	C	1.347294	0.016304	0.016565
N163	N	0.881252	-0.525343	-0.524957
N164	N	1.381252	-0.025343	-0.024957
C165	C	1.239999	-0.272520	-1.091149
C166	C	1.739999	0.227480	-0.591149
N167	N	1.281623	-0.230924	-1.125128
N168	N	1.781623	0.269076	-0.625128
C169	C	0.422294	-0.483720	-0.483487
C170	C	0.922294	0.016280	0.016513
N171	N	0.388334	-0.525369	-0.525011
N172	N	0.888334	-0.025369	-0.025011
C173	C	1.239711	-0.665080	-0.483721
C174	C	1.739711	-0.165080	0.016279
N175	N	1.281269	-0.631063	-0.525352
N176	N	1.781269	-0.131063	-0.025352
H177	H	1.043346	-0.469073	-0.826516
H178	H	1.543346	0.030927	-0.326516
C179	C	0.847275	-0.272567	-0.272959
C180	C	1.347275	0.227433	0.227041
N181	N	0.881229	-0.230915	-0.231433
N182	N	1.381229	0.269085	0.268567
C183	C	1.029035	-0.483348	-1.091073
C184	C	1.529035	0.016652	-0.591073
N185	N	0.987419	-0.524925	-1.125018
N186	N	1.487419	-0.024925	-0.625018
C187	C	1.028967	-0.483468	-0.666064
C188	C	1.528967	0.016532	-0.166064
N189	N	0.987344	-0.525070	-0.632090
N190	N	1.487344	-0.025070	-0.132090
H191	H	0.582732	-0.469352	-0.469141
H192	H	1.082732	0.030648	0.030859
H193	H	0.686861	-0.469337	-0.469133
H194	H	1.186861	0.030663	0.030867
H195	H	1.043380	-0.825818	-0.287074
H196	H	1.543380	-0.325818	0.212926
H197	H	1.225600	-0.286940	-0.826575
H198	H	1.725600	0.213060	-0.326575
