data_functionalizedCrystal
_audit_creation_method	'MofGen! by Chris Wilmer'
_symmetry_space_group_name_H-M	'P1'
_symmetry_Int_Tables_number	1
_symmetry_cell_setting	triclinic
loop_
_symmetry_equiv_pos_as_xyz
  x,y,z
_cell_length_a	12.759400
_cell_length_b	12.759401
_cell_length_c	21.395355
_cell_angle_alpha	90.024005
_cell_angle_beta	89.986153
_cell_angle_gamma	89.988354
loop_
_atom_site_label
_atom_site_type_symbol
_atom_site_fract_x
_atom_site_fract_y
_atom_site_fract_z
Zn1	Zn	-0.418473	-1.606285	-0.354273
Zn2	Zn	0.081527	-1.106285	0.145727
Zn3	Zn	-0.594138	-1.606171	-0.249504
Zn4	Zn	-0.094138	-1.106171	0.250496
Zn5	Zn	-0.418464	-1.430578	-0.249510
Zn6	Zn	0.081536	-0.930578	0.250490
Zn7	Zn	-0.594101	-1.430576	-0.354245
Zn8	Zn	-0.094101	-0.930576	0.145755
O9	O	-0.506294	-1.518402	-0.301883
O10	O	-0.006294	-1.018402	0.198117
O11	O	-0.441794	-1.753291	-0.340384
O12	O	0.058206	-1.253291	0.159616
O13	O	-0.570846	-1.582831	-0.161827
O14	O	-0.070846	-1.082831	0.338173
O15	O	-0.271444	-1.453935	-0.263422
O16	O	0.228556	-0.953935	0.236578
O17	O	-0.570854	-1.753207	-0.263410
O18	O	-0.070854	-1.253207	0.236590
O19	O	-0.271451	-1.583026	-0.340390
O20	O	0.228549	-1.083026	0.159610
O21	O	-0.441779	-1.453824	-0.161832
O22	O	0.058221	-0.953824	0.338168
O23	O	-0.441744	-1.283557	-0.263395
O24	O	0.058256	-0.783557	0.236605
O25	O	-0.570792	-1.453931	-0.441926
O26	O	-0.070792	-0.953931	0.058074
O27	O	-0.570784	-1.283555	-0.340343
O28	O	-0.070784	-0.783555	0.159657
O29	O	-0.441759	-1.583024	-0.441947
O30	O	0.058241	-1.083024	0.058053
O31	O	-0.741154	-1.582829	-0.263383
O32	O	-0.241154	-1.082829	0.236617
O33	O	-0.741127	-1.453820	-0.340336
O34	O	-0.241127	-0.953820	0.159664
C35	C	-0.506259	-1.245435	-0.301867
C36	C	-0.006259	-0.745435	0.198133
C37	C	-0.506270	-1.128658	-0.301875
C38	C	-0.006270	-0.628658	0.198125
C39	C	-0.439002	-0.964042	-0.261883
C40	C	0.060998	-0.464042	0.238117
C41	C	-0.438987	-1.073766	-0.261878
C42	C	0.061013	-0.573766	0.238122
C43	C	-0.573564	-1.073821	-0.341884
C44	C	-0.073564	-0.573821	0.158116
C45	C	-0.573572	-0.964099	-0.341892
C46	C	-0.073572	-0.464099	0.158108
C47	C	-0.361308	-0.964011	-0.215691
C48	C	0.138692	-0.464011	0.284309
C49	C	-0.361294	-1.073735	-0.215685
C50	C	0.138706	-0.573735	0.284315
C51	C	-0.779261	-1.518340	-0.301870
C52	C	-0.279261	-1.018340	0.198130
C53	C	-0.896038	-1.518410	-0.301885
C54	C	-0.396038	-1.018410	0.198115
C55	C	-0.950879	-1.585659	-0.261860
C56	C	-0.450879	-1.085659	0.238140
C57	C	-1.060603	-1.585724	-0.261879
C58	C	-0.560603	-1.085724	0.238121
C59	C	-1.060635	-1.451280	-0.341951
C60	C	-0.560635	-0.951280	0.158049
C61	C	-0.950913	-1.451222	-0.341934
C62	C	-0.450913	-0.951222	0.158066
C63	C	-0.950861	-1.663276	-0.215630
C64	C	-0.450861	-1.163276	0.284370
C65	C	-1.060585	-1.663340	-0.215649
C66	C	-0.560585	-1.163340	0.284351
C67	C	-0.232261	-1.518494	-0.301910
C68	C	0.267739	-1.018494	0.198090
C69	C	-0.115484	-1.518533	-0.301921
C70	C	0.384516	-1.018533	0.198079
C71	C	-0.506273	-1.518490	-0.465306
C72	C	-0.006273	-1.018490	0.034694
C73	C	-0.506264	-1.518527	-0.534947
C74	C	-0.006264	-1.018527	-0.034947
C75	C	-0.506317	-0.792436	-0.301895
C76	C	-0.006317	-0.292436	0.198105
C77	C	-0.506293	-0.909212	-0.301888
C78	C	-0.006293	-0.409212	0.198112
C79	C	-0.439073	-1.585743	-0.567672
C80	C	0.060927	-1.085743	-0.067672
C81	C	-0.439028	-1.585741	-0.633108
C82	C	0.060972	-1.085741	-0.133108
C83	C	-0.506192	-1.518535	-0.665816
C84	C	-0.006192	-1.018535	-0.165816
C85	C	-0.573387	-1.451306	-0.633083
C86	C	-0.073387	-0.951306	-0.133083
C87	C	-0.573423	-1.451302	-0.567649
C88	C	-0.073423	-0.951302	-0.067649
C89	C	-0.600791	-1.510218	-0.769486
C90	C	-0.100791	-1.010218	-0.269486
C91	C	-0.600757	-1.510229	-0.834919
C92	C	-0.100757	-1.010229	-0.334919
C93	C	-0.506081	-1.518542	-0.867637
C94	C	-0.006081	-1.018542	-0.367637
C95	C	-0.411437	-1.526864	-0.834913
C96	C	0.088563	-1.026864	-0.334913
C97	C	-0.411473	-1.526860	-0.769479
C98	C	0.088527	-1.026860	-0.269479
C99	C	-0.506160	-1.518532	-0.736768
C100	C	-0.006160	-1.018532	-0.236768
C101	C	-0.438836	-1.585759	-0.971314
C102	C	0.061164	-1.085759	-0.471314
C103	C	-0.438789	-1.585751	-1.036751
C104	C	0.061211	-1.085751	-0.536751
C105	C	-0.573158	-1.451321	-1.036725
C106	C	-0.073158	-0.951321	-0.536725
C107	C	-0.573195	-1.451324	-0.971290
C108	C	-0.073195	-0.951324	-0.471290
C109	C	-0.506036	-1.518549	-0.938588
C110	C	-0.006036	-1.018549	-0.438588
C111	C	-0.506239	-1.518376	-0.139095
C112	C	-0.006239	-1.018376	0.360905
C113	C	-0.505953	-1.518542	-0.069454
C114	C	-0.005953	-1.018542	0.430546
H115	H	-0.382968	-1.103467	-0.167135
H116	H	0.117032	-0.603467	0.332865
H117	H	-0.384386	-1.640481	-0.541051
H118	H	0.115614	-1.140481	-0.041051
C119	C	-1.121008	-1.377371	-0.385998
C120	C	-0.621008	-0.877371	0.114002
N121	N	-1.166480	-1.321697	-0.419174
N122	N	-0.666480	-0.821697	0.080826
H123	H	-0.334343	-1.533635	-0.861551
H124	H	0.165657	-1.033635	-0.361551
C125	C	-0.890592	-1.377292	-0.385994
C126	C	-0.390592	-0.877292	0.114006
N127	N	-0.845158	-1.321620	-0.419191
N128	N	-0.345158	-0.821620	0.080809
C129	C	-0.365117	-1.659693	-0.669112
C130	C	0.134883	-1.159693	-0.169112
N131	N	-0.309449	-1.715397	-0.696229
N132	N	0.190551	-1.215397	-0.196229
H133	H	-0.921015	-1.744620	-0.228663
H134	H	-0.421015	-1.244620	0.271337
C135	C	-0.904960	-1.623901	-0.153336
C136	C	-0.404960	-1.123901	0.346664
N137	N	-0.870387	-1.594234	-0.106418
N138	N	-0.370387	-1.094234	0.393582
C139	C	-0.364951	-1.659698	-0.935340
C140	C	0.135049	-1.159698	-0.435340
N141	N	-0.309298	-1.715387	-0.908246
N142	N	0.190702	-1.215387	-0.408246
H143	H	-0.390345	-0.929932	-0.169569
H144	H	0.109655	-0.429932	0.330431
H145	H	-1.090421	-1.641599	-0.167116
H146	H	-0.590421	-1.141599	0.332884
H147	H	-0.284036	-1.107789	-0.233143
H148	H	0.215964	-0.607789	0.266857
H149	H	-0.334410	-1.533634	-0.742838
H150	H	0.165590	-1.033634	-0.242838
C151	C	-0.647116	-1.377385	-0.935291
C152	C	-0.147116	-0.877385	-0.435291
N153	N	-0.702793	-1.321688	-0.908177
N154	N	-0.202793	-0.821688	-0.408177
C155	C	-1.106467	-1.767776	-0.239184
C156	C	-0.606467	-1.267776	0.260816
N157	N	-1.141026	-1.846435	-0.256909
N158	N	-0.641026	-1.346435	0.243091
H159	H	-0.384068	-1.640484	-1.063394
H160	H	0.115932	-1.140484	-0.563394
H161	H	-0.627833	-1.396590	-1.063355
H162	H	-0.127833	-0.896590	-0.563355
C163	C	-0.647574	-1.134207	-0.385882
C164	C	-0.147574	-0.634207	0.114118
N165	N	-0.703322	-1.179689	-0.419021
N166	N	-0.203322	-0.679689	0.080979
C167	C	-0.647344	-1.377359	-0.531651
C168	C	-0.147344	-0.877359	-0.031651
N169	N	-0.703023	-1.321665	-0.504536
N170	N	-0.203023	-0.821665	-0.004536
H171	H	-0.677822	-1.503458	-0.861557
H172	H	-0.177822	-1.003458	-0.361557
C173	C	-0.647601	-0.903791	-0.385898
C174	C	-0.147601	-0.403791	0.114102
N175	N	-0.703368	-0.858367	-0.419042
N176	N	-0.203368	-0.358367	0.080958
H177	H	-0.677867	-1.503168	-0.742853
H178	H	-0.177867	-1.003168	-0.242853
C179	C	-0.647263	-1.377374	-0.669064
C180	C	-0.147263	-0.877374	-0.169064
N181	N	-0.702905	-1.321683	-0.696164
N182	N	-0.202905	-0.821683	-0.196164
H183	H	-0.279972	-0.934257	-0.228770
H184	H	0.220028	-0.434257	0.271230
