data_functionalizedCrystal
_audit_creation_method	'MofGen! by Chris Wilmer'
_symmetry_space_group_name_H-M	'P1'
_symmetry_Int_Tables_number	1
_symmetry_cell_setting	triclinic
loop_
_symmetry_equiv_pos_as_xyz
  x,y,z
_cell_length_a	21.395364
_cell_length_b	12.759400
_cell_length_c	21.395355
_cell_angle_alpha	90.012729
_cell_angle_beta	90.024552
_cell_angle_gamma	90.028117
loop_
_atom_site_label
_atom_site_type_symbol
_atom_site_fract_x
_atom_site_fract_y
_atom_site_fract_z
Zn1	Zn	0.957936	-0.417969	0.354287
Zn2	Zn	0.957870	-0.593633	0.249520
Zn3	Zn	0.853151	-0.418015	0.249523
Zn4	Zn	0.853152	-0.593652	0.354260
O5	O	0.905527	-0.505817	0.301897
O6	O	1.045605	-0.441244	0.340399
O7	O	0.943951	-0.570349	0.161842
O8	O	0.867077	-0.270988	0.263433
O9	O	1.045557	-0.570304	0.263427
O10	O	0.944062	-0.270954	0.340402
O11	O	0.867014	-0.441322	0.161845
O12	O	0.765473	-0.441341	0.263407
O13	O	0.867079	-0.570336	0.441941
O14	O	0.765474	-0.570381	0.340357
O15	O	0.944064	-0.441262	0.441961
O16	O	0.943952	-0.740657	0.263401
O17	O	0.867016	-0.740671	0.340353
C18	C	0.742739	-0.505868	0.301880
C19	C	0.673098	-0.505916	0.301887
C20	C	0.640432	-0.438824	0.342028
C21	C	0.574997	-0.438796	0.342031
C22	C	0.542230	-0.505878	0.301899
C23	C	0.574903	-0.572975	0.261750
C24	C	0.640338	-0.572993	0.261744
C25	C	0.438523	-0.600493	0.296867
C26	C	0.373090	-0.600476	0.296877
C27	C	0.340409	-0.505821	0.301913
C28	C	0.373169	-0.411179	0.306951
C29	C	0.438604	-0.411197	0.306946
C30	C	0.471277	-0.505865	0.301900
C31	C	0.236791	-0.438693	0.342058
C32	C	0.171354	-0.438663	0.342056
C33	C	0.171262	-0.572851	0.261779
C34	C	0.236697	-0.572872	0.261777
C35	C	0.269458	-0.505794	0.301921
C36	C	0.905494	-0.778785	0.301888
C37	C	0.905537	-0.895561	0.301904
C38	C	0.945603	-0.950326	0.342015
C39	C	0.945633	-1.060050	0.342030
C40	C	0.865528	-1.060235	0.261819
C41	C	0.865496	-0.950513	0.261807
C42	C	0.991853	-0.950220	0.388323
C43	C	0.991882	-1.059944	0.388338
C44	C	1.068950	-0.505767	0.301915
C45	C	1.138592	-0.505745	0.301923
C46	C	0.905579	-0.505796	0.465321
C47	C	0.905601	-0.505787	0.534962
C48	C	0.905577	-0.231784	0.301921
C49	C	0.905598	-0.115007	0.301931
C50	C	0.905511	-0.505763	0.139110
C51	C	0.905610	-0.505476	0.069469
C52	C	0.945685	-0.438575	0.567686
C53	C	0.945684	-0.438530	0.633122
C54	C	0.905606	-0.505715	0.665830
C55	C	0.865514	-0.572932	0.633098
C56	C	0.865512	-0.572967	0.567664
C57	C	0.900647	-0.600316	0.769502
C58	C	0.900654	-0.600282	0.834935
C59	C	0.905610	-0.505604	0.867651
C60	C	0.910572	-0.410957	0.834927
C61	C	0.910569	-0.410993	0.769493
C62	C	0.905604	-0.505684	0.736783
C63	C	0.945695	-0.438338	0.971328
C64	C	0.945690	-0.438291	1.036765
C65	C	0.865523	-0.572702	1.036740
C66	C	0.865525	-0.572739	0.971305
C67	C	0.905614	-0.505559	0.938603
H68	H	0.346562	-0.334101	0.311052
H69	H	0.978827	-0.920433	0.436834
H70	H	0.832868	-0.627698	0.541020
H71	H	0.832884	-0.627395	1.063371
H72	H	0.667102	-0.384203	0.374716
F73	F	0.271659	-0.367298	0.384778
H74	H	1.040424	-1.089653	0.375391
F75	F	0.988349	-0.367071	0.532886
H76	H	0.978324	-0.383793	0.659771
H77	H	1.037946	-0.916124	0.370978
H78	H	0.832927	-1.104990	0.229174
F79	F	0.473298	-0.701245	0.291500
H80	H	0.914608	-0.333928	0.742851
F81	F	0.822841	-0.892232	0.219128
H82	H	0.548220	-0.627593	0.229073
H83	H	0.666934	-0.627629	0.229055
F84	F	0.969165	-1.104426	0.448579
H85	H	0.832888	-0.627477	0.944660
H86	H	0.263294	-0.627509	0.229093
H87	H	0.978335	-0.383630	0.944701
H88	H	0.914608	-0.333861	0.861563
H89	H	0.896618	-0.677350	0.861574
F90	F	0.895387	-0.701095	0.734689
H91	H	0.465274	-0.334137	0.311046
F92	F	0.988362	-0.366763	1.071592
H93	H	0.144759	-0.384023	0.374743
F94	F	0.338230	-0.701202	0.291523
H95	H	0.832880	-0.627631	0.659734
H96	H	0.548395	-0.384157	0.374718
H97	H	0.144583	-0.627471	0.229102
