data_functionalizedCrystal
_audit_creation_method	'MofGen! by Chris Wilmer'
_symmetry_space_group_name_H-M	'P1'
_symmetry_Int_Tables_number	1
_symmetry_cell_setting	triclinic
loop_
_symmetry_equiv_pos_as_xyz
  x,y,z
_cell_length_a	12.759401
_cell_length_b	12.759399
_cell_length_c	17.077396
_cell_angle_alpha	89.974532
_cell_angle_beta	89.983522
_cell_angle_gamma	90.014698
loop_
_atom_site_label
_atom_site_type_symbol
_atom_site_fract_x
_atom_site_fract_y
_atom_site_fract_z
Zn1	Zn	1.606227	-0.418293	-0.443796
Zn2	Zn	1.606125	-0.593994	-0.312537
Zn3	Zn	1.430535	-0.418326	-0.312551
Zn4	Zn	1.430514	-0.593928	-0.443767
O5	O	1.518350	-0.506135	-0.378163
O6	O	1.753234	-0.441614	-0.426390
O7	O	1.582798	-0.570733	-0.202692
O8	O	1.453892	-0.271301	-0.329978
O9	O	1.753159	-0.570700	-0.329955
O10	O	1.582972	-0.271277	-0.426404
O11	O	1.453793	-0.441671	-0.202702
O12	O	1.283511	-0.441607	-0.329951
O13	O	1.453857	-0.570588	-0.553618
O14	O	1.283496	-0.570620	-0.426355
O15	O	1.582952	-0.441550	-0.553639
O16	O	1.582778	-0.741006	-0.329927
O17	O	1.453758	-0.740957	-0.426341
C18	C	1.245383	-0.506111	-0.378152
C19	C	1.128606	-0.506125	-0.378166
C20	C	1.518283	-0.779103	-0.378147
C21	C	1.518351	-0.895879	-0.378166
C22	C	1.585683	-1.060456	-0.328044
C23	C	1.585613	-0.950732	-0.328020
C24	C	1.451147	-0.950756	-0.428334
C25	C	1.451213	-1.060478	-0.428354
C26	C	1.663319	-1.060442	-0.270131
C27	C	1.663248	-0.950718	-0.270107
C28	C	1.073776	-0.439037	-0.428457
C29	C	0.964052	-0.439057	-0.428462
C30	C	0.963998	-0.573263	-0.327882
C31	C	1.073720	-0.573237	-0.327873
C32	C	1.073807	-0.361557	-0.486529
C33	C	0.964083	-0.361577	-0.486534
C34	C	1.792383	-0.506161	-0.378174
C35	C	1.909160	-0.506172	-0.378179
C36	C	1.518414	-0.506058	-0.582907
C37	C	1.518441	-0.506025	-0.670157
C38	C	1.518446	-0.232102	-0.378196
C39	C	1.518487	-0.115325	-0.378210
C40	C	1.585663	-0.438829	-0.711159
C41	C	1.585676	-0.438794	-0.793140
C42	C	1.518471	-0.505961	-0.834116
C43	C	1.451241	-0.573160	-0.793108
C44	C	1.451224	-0.573188	-0.711129
C45	C	1.451283	-0.573096	-0.963978
C46	C	1.451302	-0.573069	-1.045963
C47	C	1.585735	-0.438702	-1.045989
C48	C	1.585718	-0.438731	-0.964010
C49	C	1.518489	-0.505931	-0.923007
C50	C	1.518347	-0.506137	-0.174215
C51	C	1.518524	-0.505874	-0.086965
H52	H	1.396482	-1.105148	-0.469193
Cl53	Cl	1.366802	-0.657497	-1.097476
H54	H	1.396518	-0.627844	-0.826478
Cl55	Cl	0.911520	-0.242191	-0.453080
H56	H	1.641594	-1.090292	-0.209326
Cl57	Cl	1.670160	-0.354391	-0.659654
Cl58	Cl	1.670212	-0.354298	-0.912497
H59	H	1.634131	-0.916766	-0.212328
H60	H	1.396374	-0.906087	-0.469159
H61	H	1.744587	-0.920854	-0.286439
H62	H	1.118358	-0.627857	-0.286913
H63	H	1.640417	-0.384079	-0.826520
H64	H	1.640473	-0.383983	-1.079377
Cl65	Cl	1.366765	-0.657577	-0.912434
Cl66	Cl	1.782652	-1.112861	-0.303847
H67	H	0.919296	-0.627903	-0.286936
H68	H	1.107869	-0.390798	-0.544238
H69	H	1.103576	-0.280152	-0.470351
Cl70	Cl	1.366709	-0.657663	-0.659583
H71	H	0.934335	-0.383481	-0.547305
