data_functionalizedCrystal
_audit_creation_method	'MofGen! by Chris Wilmer'
_symmetry_space_group_name_H-M	'P1'
_symmetry_Int_Tables_number	1
_symmetry_cell_setting	triclinic
loop_
_symmetry_equiv_pos_as_xyz
  x,y,z
_cell_length_a	11.169416
_cell_length_b	12.759401
_cell_length_c	11.169417
_cell_angle_alpha	89.994747
_cell_angle_beta	89.998867
_cell_angle_gamma	90.014613
loop_
_atom_site_label
_atom_site_type_symbol
_atom_site_fract_x
_atom_site_fract_y
_atom_site_fract_z
Zn1	Zn	0.477980	-1.606115	0.678627
Zn2	Zn	0.678626	-1.606060	0.477960
Zn3	Zn	0.477961	-1.430462	0.477957
Zn4	Zn	0.678625	-1.430411	0.678599
O5	O	0.578298	-1.518262	0.578286
O6	O	0.504604	-1.753129	0.652022
O7	O	0.652000	-1.582764	0.310010
O8	O	0.310014	-1.453808	0.504587
O9	O	0.652018	-1.753088	0.504592
O10	O	0.310028	-1.582860	0.652019
O11	O	0.504572	-1.453754	0.310007
O12	O	0.504571	-1.283434	0.504559
O13	O	0.652016	-1.453721	0.846552
O14	O	0.651998	-1.283397	0.651970
O15	O	0.504603	-1.582810	0.846573
O16	O	0.846576	-1.582715	0.504564
O17	O	0.846575	-1.453666	0.651973
C18	C	0.890123	-1.518207	0.578292
C19	C	1.023523	-1.518280	0.578335
C20	C	0.578283	-1.245295	0.578262
C21	C	0.578306	-1.128518	0.578280
C22	C	0.578312	-1.518266	0.891328
C23	C	0.578317	-1.518267	1.024728
C24	C	1.265256	-1.518335	0.578318
C25	C	1.131856	-1.518339	0.578364
C26	C	0.578313	-1.792295	0.578310
C27	C	0.578320	-1.909072	0.578321
C28	C	0.655188	-1.073664	0.654916
C29	C	0.655192	-0.963940	0.654940
C30	C	0.501430	-0.963934	0.501681
C31	C	0.501420	-1.073656	0.501664
C32	C	0.578315	-1.518254	1.266461
C33	C	0.578322	-1.518263	1.133061
H34	H	0.717790	-1.118330	0.717305
H35	H	0.717796	-0.919283	0.717347
H36	H	0.438834	-0.919251	0.439302
C37	C	0.416847	-1.133999	0.417359
H38	H	0.371071	-1.085612	0.371720
H39	H	0.364628	-1.176820	0.463350
H40	H	0.462679	-1.176783	0.364981
