data_functionalizedCrystal
_audit_creation_method	'MofGen! by Chris Wilmer'
_symmetry_space_group_name_H-M	'P1'
_symmetry_Int_Tables_number	1
_symmetry_cell_setting	triclinic
loop_
_symmetry_equiv_pos_as_xyz
  x,y,z
_cell_length_a	12.759401
_cell_length_b	12.759400
_cell_length_c	12.759401
_cell_angle_alpha	90.010485
_cell_angle_beta	90.002178
_cell_angle_gamma	90.014845
loop_
_atom_site_label
_atom_site_type_symbol
_atom_site_fract_x
_atom_site_fract_y
_atom_site_fract_z
Zn1	Zn	1.606086	-0.418418	0.593981
Zn2	Zn	1.606031	-0.594073	0.418301
Zn3	Zn	1.430438	-0.418409	0.418320
Zn4	Zn	1.430377	-0.594056	0.593942
O5	O	1.518233	-0.506239	0.506136
O6	O	1.753100	-0.441730	0.570685
O7	O	1.582740	-0.570773	0.271283
O8	O	1.453787	-0.271389	0.441646
O9	O	1.753059	-0.570783	0.441613
O10	O	1.582835	-0.271396	0.570703
O11	O	1.453733	-0.441714	0.271297
O12	O	1.283409	-0.441698	0.441609
O13	O	1.453683	-0.570755	0.740969
O14	O	1.283364	-0.570746	0.570638
O15	O	1.582776	-0.441714	0.740997
O16	O	1.582681	-0.741091	0.441576
O17	O	1.453629	-0.741080	0.570619
C18	C	1.245266	-0.506220	0.506122
C19	C	1.128489	-0.506237	0.506141
C20	C	1.518171	-0.779206	0.506114
C21	C	1.518240	-0.895983	0.506140
C22	C	1.073631	-0.573539	0.573215
C23	C	0.963907	-0.573553	0.573226
C24	C	0.963909	-0.438958	0.439080
C25	C	1.073631	-0.438940	0.439075
C26	C	1.073629	-0.651250	0.650660
C27	C	0.963905	-0.651263	0.650671
C28	C	1.585512	-0.950816	0.439022
C29	C	1.585577	-1.060540	0.439054
C30	C	1.451088	-1.060588	0.573326
C31	C	1.451030	-0.950866	0.573298
C32	C	1.663155	-0.950790	0.361497
C33	C	1.663219	-1.060514	0.361530
C34	C	1.792266	-0.506259	0.506151
C35	C	1.909043	-0.506268	0.506158
C36	C	1.518229	-0.506234	0.780169
C37	C	1.518227	-0.506232	0.896946
C38	C	1.518324	-0.232206	0.506181
C39	C	1.518363	-0.115429	0.506200
C40	C	1.585439	-0.439054	0.951824
C41	C	1.585433	-0.439057	1.061549
C42	C	1.450999	-0.573423	1.061506
C43	C	1.451001	-0.573415	0.951784
C44	C	1.663057	-0.361482	0.951850
C45	C	1.663050	-0.361484	1.061574
C46	C	1.518226	-0.506261	1.233169
C47	C	1.518219	-0.506243	1.116392
H48	H	1.118292	-0.384129	0.384464
C49	C	1.377053	-0.647319	1.121838
N50	N	1.321355	-0.702979	1.167279
C51	C	1.377046	-0.647299	0.891422
N52	N	1.321338	-0.702950	0.845957
C53	C	1.113873	-0.622002	0.760641
N54	N	1.144184	-0.599982	0.843480
C55	C	1.377076	-0.890553	0.647183
N56	N	1.321385	-0.845126	0.702852
C57	C	1.633651	-0.251552	0.911646
N58	N	1.611501	-0.168756	0.881365
H59	H	0.934116	-0.732605	0.628739
H60	H	0.919229	-0.384166	0.384479
C61	C	1.772961	-0.390950	1.101808
N62	N	1.855742	-0.413146	1.132112
C63	C	1.767641	-1.106392	0.400989
N64	N	1.846291	-1.140948	0.430707
C65	C	1.119597	-0.755599	0.611102
N66	N	1.154221	-0.834196	0.581304
H67	H	1.396369	-1.105287	0.628005
H68	H	1.740338	-0.390638	0.917814
H69	H	0.929885	-0.622248	0.728023
C70	C	1.773035	-0.910459	0.391020
N71	N	1.855794	-0.880082	0.413257
C72	C	1.623756	-0.257044	1.107577
N73	N	1.594171	-0.178377	1.142227
H74	H	1.634052	-0.916814	0.284172
H75	H	1.641505	-1.090346	0.280149
