data_functionalizedCrystal
_audit_creation_method	'MofGen! by Chris Wilmer'
_symmetry_space_group_name_H-M	'P1'
_symmetry_Int_Tables_number	1
_symmetry_cell_setting	triclinic
loop_
_symmetry_equiv_pos_as_xyz
  x,y,z
_cell_length_a	21.395362
_cell_length_b	21.395362
_cell_length_c	21.395355
_cell_angle_alpha	90.048039
_cell_angle_beta	89.980094
_cell_angle_gamma	89.954240
loop_
_atom_site_label
_atom_site_type_symbol
_atom_site_fract_x
_atom_site_fract_y
_atom_site_fract_z
Zn1	Zn	-0.249206	-0.957874	-0.354648
Zn2	Zn	0.084128	-0.624540	-0.021315
Zn3	Zn	0.417461	-0.291207	0.312019
Zn4	Zn	-0.353966	-0.957782	-0.249868
Zn5	Zn	-0.020632	-0.624449	0.083465
Zn6	Zn	0.312701	-0.291115	0.416799
Zn7	Zn	-0.249239	-0.853088	-0.249842
Zn8	Zn	0.084094	-0.519755	0.083491
Zn9	Zn	0.417427	-0.186422	0.416825
Zn10	Zn	-0.353983	-0.853064	-0.354565
Zn11	Zn	-0.020649	-0.519730	-0.021232
Zn12	Zn	0.312684	-0.186397	0.312101
O13	O	-0.301598	-0.905452	-0.302231
O14	O	0.031735	-0.572119	0.031102
O15	O	0.365068	-0.238785	0.364436
O16	O	-0.263081	-1.045539	-0.340794
O17	O	0.070252	-0.712206	-0.007461
O18	O	0.403586	-0.378873	0.325872
O19	O	-0.340080	-0.943866	-0.162187
O20	O	-0.006747	-0.610533	0.171147
O21	O	0.326587	-0.277200	0.504480
O22	O	-0.161557	-0.867037	-0.263768
O23	O	0.171776	-0.533704	0.069565
O24	O	0.505110	-0.200371	0.402898
O25	O	-0.340048	-1.045472	-0.263813
O26	O	-0.006714	-0.712139	0.069520
O27	O	0.326619	-0.378805	0.402854
O28	O	-0.161532	-0.944022	-0.340769
O29	O	0.171801	-0.610689	-0.007436
O30	O	0.505134	-0.277356	0.325898
O31	O	-0.263138	-0.866948	-0.162167
O32	O	0.070195	-0.533615	0.171166
O33	O	0.403528	-0.200282	0.504499
O34	O	-0.263155	-0.765407	-0.263688
O35	O	0.070178	-0.432074	0.069645
O36	O	0.403512	-0.098741	0.402979
O37	O	-0.340077	-0.866995	-0.442254
O38	O	-0.006744	-0.533661	-0.108921
O39	O	0.326590	-0.200328	0.224412
O40	O	-0.340110	-0.765389	-0.340628
O41	O	-0.006776	-0.432056	-0.007295
O42	O	0.326557	-0.098722	0.326039
O43	O	-0.263098	-0.943998	-0.442315
O44	O	0.070236	-0.610665	-0.108982
O45	O	0.403569	-0.277331	0.224352
O46	O	-0.441646	-0.943842	-0.263733
O47	O	-0.108312	-0.610509	0.069601
O48	O	0.225021	-0.277175	0.402934
O49	O	-0.441658	-0.866906	-0.340653
O50	O	-0.108325	-0.533572	-0.007320
O51	O	0.225008	-0.200239	0.326013
C52	C	-0.301638	-0.742664	-0.302147
C53	C	0.031695	-0.409331	0.031187
C54	C	0.365028	-0.075997	0.364520
C55	C	-0.301670	-0.673023	-0.302125
C56	C	0.031663	-0.339690	0.031208
C57	C	0.364996	-0.006356	0.364541
C58	C	-0.464386	-0.905378	-0.302201
C59	C	-0.131053	-0.572045	0.031133
C60	C	0.202281	-0.238712	0.364466
C61	C	-0.534027	-0.905404	-0.302209
C62	C	-0.200694	-0.572071	0.031125
C63	C	0.132639	-0.238737	0.364458
C64	C	-0.341795	-0.640317	-0.342126
C65	C	-0.008462	-0.306983	-0.008792
C66	C	0.324872	0.026350	0.324541
C67	C	-0.341782	-0.574881	-0.342149
C68	C	-0.008449	-0.241548	-0.008815
C69	C	0.324884	0.091785	0.324518
C70	C	-0.301652	-0.542155	-0.302161
C71	C	0.031682	-0.208821	0.031173
C72	C	0.365015	0.124512	0.364506
C73	C	-0.261519	-0.574869	-0.262158
C74	C	0.071814	-0.241535	0.071176
C75	C	0.405148	0.091798	0.404509
C76	C	-0.261528	-0.640303	-0.262140
C77	C	0.071805	-0.306970	0.071193
C78	C	0.405138	0.026364	0.404527
C79	C	-0.296609	-0.438430	-0.245748
C80	C	0.036725	-0.105096	0.087585
C81	C	0.370058	0.228237	0.420919
C82	C	-0.296604	-0.372997	-0.245765
C83	C	0.036730	-0.039663	0.087569
C84	C	0.370063	0.293670	0.420902
C85	C	-0.301619	-0.340334	-0.302215
C86	C	0.031714	-0.007001	0.031118
C87	C	0.365047	0.326333	0.364451
C88	C	-0.306653	-0.373112	-0.358651
C89	C	0.026680	-0.039779	-0.025318
C90	C	0.360014	0.293555	0.308016
C91	C	-0.306662	-0.438546	-0.358634
C92	C	0.026671	-0.105213	-0.025300
C93	C	0.360004	0.228120	0.308033
C94	C	-0.301637	-0.471202	-0.302176
C95	C	0.031697	-0.137869	0.031158
C96	C	0.365030	0.195464	0.364491
C97	C	-0.341732	-0.236675	-0.342244
C98	C	-0.008399	0.096658	-0.008911
C99	C	0.324934	0.429992	0.324423
C100	C	-0.341715	-0.171239	-0.342268
C101	C	-0.008382	0.162095	-0.008935
C102	C	0.324951	0.495428	0.324398
C103	C	-0.261455	-0.171227	-0.262272
C104	C	0.071878	0.162106	0.071062
C105	C	0.405211	0.495439	0.404395
C106	C	-0.261469	-0.236663	-0.262253
C107	C	0.071864	0.096671	0.071080
C108	C	0.405198	0.430004	0.404414
C109	C	-0.301611	-0.269383	-0.302238
C110	C	0.031722	0.063951	0.031095
C111	C	0.365056	0.397284	0.364428
C112	C	-1.035796	-0.945663	-0.262280
C113	C	-0.702462	-0.612330	0.071053
C114	C	-0.369129	-0.278997	0.404387
C115	C	-0.970360	-0.945640	-0.262265
C116	C	-0.637027	-0.612306	0.071068
C117	C	-0.303694	-0.278973	0.404401
C118	C	-0.937665	-0.905541	-0.302276
C119	C	-0.604332	-0.572207	0.031058
C120	C	-0.270999	-0.238874	0.364391
C121	C	-0.970411	-0.865451	-0.342292
C122	C	-0.637078	-0.532118	-0.008959
C123	C	-0.303745	-0.198784	0.324374
C124	C	-1.035845	-0.865472	-0.342301
C125	C	-0.702512	-0.532138	-0.008968
C126	C	-0.369179	-0.198805	0.324365
C127	C	-0.833976	-0.900533	-0.358704
C128	C	-0.500643	-0.567199	-0.025371
C129	C	-0.167310	-0.233866	0.307963
C130	C	-0.768543	-0.900517	-0.358696
C131	C	-0.435210	-0.567183	-0.025363
C132	C	-0.101877	-0.233850	0.307971
C133	C	-0.735845	-0.905474	-0.302247
C134	C	-0.402511	-0.572141	0.031086
C135	C	-0.069178	-0.238807	0.364419
C136	C	-0.768587	-0.910461	-0.245805
C137	C	-0.435254	-0.577127	0.087528
C138	C	-0.101920	-0.243794	0.420862
C139	C	-0.834021	-0.910481	-0.245814
C140	C	-0.500688	-0.577148	0.087519
C141	C	-0.167355	-0.243814	0.420853
C142	C	-0.866713	-0.905514	-0.302270
C143	C	-0.533380	-0.572180	0.031063
C144	C	-0.200046	-0.238847	0.364397
C145	C	-0.632154	-0.945532	-0.262214
C146	C	-0.298821	-0.612199	0.071119
C147	C	0.034512	-0.278866	0.404452
C148	C	-0.566718	-0.945504	-0.262199
C149	C	-0.233384	-0.612171	0.071135
C150	C	0.099949	-0.278838	0.404468
C151	C	-0.566770	-0.865319	-0.342231
C152	C	-0.233436	-0.531986	-0.008898
C153	C	0.099897	-0.198652	0.324436
C154	C	-0.632205	-0.865344	-0.342241
C155	C	-0.298872	-0.532010	-0.008908
C156	C	0.034462	-0.198677	0.324426
C157	C	-0.664893	-0.905454	-0.302234
C158	C	-0.331560	-0.572120	0.031100
C159	C	0.001773	-0.238787	0.364433
C160	C	-0.138175	-0.905543	-0.302275
C161	C	0.195158	-0.572209	0.031058
C162	C	0.528492	-0.238876	0.364392
C163	C	-0.068534	-0.905582	-0.302294
C164	C	0.264800	-0.572248	0.031040
C165	C	0.598133	-0.238915	0.364373
C166	C	-0.301586	-0.905504	-0.465654
C167	C	0.031748	-0.572171	-0.132321
C168	C	0.365081	-0.238837	0.201012
C169	C	-0.301580	-0.905526	-0.535296
C170	C	0.031753	-0.572193	-0.201962
C171	C	0.365086	-0.238859	0.131371
C172	C	-0.301569	-0.068875	-0.302298
C173	C	0.031764	0.264458	0.031035
C174	C	0.365098	0.597791	0.364369
C175	C	-0.301583	-0.138516	-0.302281
C176	C	0.031750	0.194817	0.031053
C177	C	0.365083	0.528150	0.364386
C178	C	-0.261495	-0.945620	-0.568041
C179	C	0.071838	-0.612287	-0.234708
C180	C	0.405171	-0.278953	0.098625
C181	C	-0.261468	-0.945619	-0.633477
C182	C	0.071865	-0.612286	-0.300143
C183	C	0.405198	-0.278952	0.033190
C184	C	-0.301537	-0.905531	-0.666164
C185	C	0.031796	-0.572198	-0.332831
C186	C	0.365129	-0.238864	0.000503
C187	C	-0.341625	-0.865429	-0.633410
C188	C	-0.008292	-0.532096	-0.300077
C189	C	0.325042	-0.198762	0.033256
C190	C	-0.341646	-0.865427	-0.567976
C191	C	-0.008313	-0.532093	-0.234643
C192	C	0.325020	-0.198760	0.098691
C193	C	-0.357954	-0.900558	-0.769826
C194	C	-0.024621	-0.567225	-0.436493
C195	C	0.308712	-0.233891	-0.103159
C196	C	-0.357934	-0.900565	-0.835259
C197	C	-0.024601	-0.567232	-0.501926
C198	C	0.308733	-0.233898	-0.168592
C199	C	-0.301471	-0.905535	-0.867985
C200	C	0.031862	-0.572201	-0.534651
C201	C	0.365195	-0.238868	-0.201318
C202	C	-0.245027	-0.910511	-0.835269
C203	C	0.088306	-0.577178	-0.501936
C204	C	0.421640	-0.243844	-0.168603
C205	C	-0.245048	-0.910508	-0.769835
C206	C	0.088285	-0.577175	-0.436502
C207	C	0.421618	-0.243842	-0.103169
C208	C	-0.301519	-0.905529	-0.737116
C209	C	0.031815	-0.572195	-0.403783
C210	C	0.365148	-0.238862	-0.070450
C211	C	-0.261354	-0.945630	-0.971683
C212	C	0.071979	-0.612297	-0.638350
C213	C	0.405313	-0.278963	-0.305016
C214	C	-0.261326	-0.945625	-1.037120
C215	C	0.072007	-0.612291	-0.703786
C216	C	0.405341	-0.278958	-0.370453
C217	C	-0.341488	-0.865438	-1.037052
C218	C	-0.008155	-0.532105	-0.703719
C219	C	0.325179	-0.198771	-0.370385
C220	C	-0.341511	-0.865440	-0.971617
C221	C	-0.008177	-0.532107	-0.638283
C222	C	0.325156	-0.198773	-0.304950
C223	C	-0.301444	-0.905539	-0.938936
C224	C	0.031889	-0.572206	-0.605603
C225	C	0.365222	-0.238873	-0.272269
C226	C	-0.301566	-0.905436	-0.139443
C227	C	0.031768	-0.572103	0.193890
C228	C	0.365101	-0.238769	0.527223
C229	C	-0.301395	-0.905535	-0.069802
C230	C	0.031939	-0.572202	0.263531
C231	C	0.365272	-0.238869	0.596864
H232	H	-0.374457	-0.548247	-0.374724
H233	H	-0.041123	-0.214913	-0.041391
H234	H	0.292210	0.118420	0.291943
H235	H	-0.741964	-0.914498	-0.199840
H236	H	-0.408631	-0.581165	0.133494
H237	H	-0.075298	-0.247832	0.466827
H238	H	-0.310759	-0.465232	-0.404586
H239	H	0.022574	-0.131898	-0.071252
H240	H	0.355908	0.201435	0.262081
H241	H	-0.228726	-0.978278	-0.945073
H242	H	0.104607	-0.644944	-0.611740
H243	H	0.437941	-0.311611	-0.278407
H244	H	-0.374287	-0.832774	-0.541315
H245	H	-0.040954	-0.499441	-0.207981
H246	H	0.292379	-0.166108	0.125352
N247	N	-0.667415	-0.988777	-0.219051
N248	N	-0.334081	-0.655443	0.114283
N249	N	-0.000748	-0.322110	0.447616
H250	H	-0.713835	-0.982709	-0.225129
H251	H	-0.380502	-0.649376	0.108205
H252	H	-0.047168	-0.316043	0.441538
H253	H	-0.655924	-1.033518	-0.228854
H254	H	-0.322590	-0.700185	0.104479
H255	H	0.010743	-0.366851	0.437813
N256	N	-0.218242	-0.539572	-0.219021
N257	N	0.115091	-0.206239	0.114312
N258	N	0.448424	0.127094	0.447645
H259	H	-0.173489	-0.551006	-0.228828
H260	H	0.159844	-0.217673	0.104505
H261	H	0.493177	0.115661	0.437839
H262	H	-0.224384	-0.493169	-0.225122
H263	H	0.108949	-0.159835	0.108212
H264	H	0.442283	0.173498	0.441545
N265	N	-0.531513	-0.822070	-0.385386
N266	N	-0.198180	-0.488736	-0.052053
N267	N	0.135153	-0.155403	0.281281
H268	H	-0.562185	-0.796682	-0.410738
H269	H	-0.228852	-0.463348	-0.077405
H270	H	0.104482	-0.130015	0.255928
H271	H	-0.504411	-0.793080	-0.359836
H272	H	-0.171078	-0.459746	-0.026503
H273	H	0.162256	-0.126413	0.306831
H274	H	-0.374156	-0.832795	-0.944955
H275	H	-0.040822	-0.499461	-0.611621
H276	H	0.292511	-0.166128	-0.278288
N277	N	-0.531404	-0.988739	-0.219040
N278	N	-0.198071	-0.655405	0.114293
N279	N	0.135263	-0.322072	0.447627
H280	H	-0.562044	-1.014152	-0.193701
H281	H	-0.228710	-0.680818	0.139632
H282	H	0.104623	-0.347485	0.472965
H283	H	-0.504211	-1.017706	-0.244587
H284	H	-0.170877	-0.684373	0.088746
H285	H	0.162456	-0.351040	0.422080
N286	N	-1.071163	-0.822246	-0.385465
N287	N	-0.737830	-0.488912	-0.052132
N288	N	-0.404497	-0.155579	0.281202
H289	H	-1.098359	-0.793235	-0.359966
H290	H	-0.765025	-0.459901	-0.026632
H291	H	-0.431692	-0.126568	0.306701
H292	H	-1.040488	-0.796878	-0.410802
H293	H	-0.707154	-0.463544	-0.077469
H294	H	-0.373821	-0.130211	0.255865
H295	H	-0.658861	-0.832707	-0.374827
H296	H	-0.325527	-0.499373	-0.041493
H297	H	0.007806	-0.166040	0.291840
N298	N	-0.218245	-0.675584	-0.219000
N299	N	0.115089	-0.342250	0.114333
N300	N	0.448422	-0.008917	0.447667
H301	H	-0.192816	-0.644925	-0.193673
H302	H	0.140518	-0.311592	0.139661
H303	H	0.473851	0.021742	0.472994
H304	H	-0.243706	-0.702677	-0.189948
H305	H	0.089627	-0.369344	0.143385
H306	H	0.422960	-0.036011	0.476719
N307	N	-0.733231	-0.895140	-0.419569
N308	N	-0.399897	-0.561807	-0.086236
N309	N	-0.066564	-0.228474	0.247098
H310	H	-0.763873	-0.891994	-0.455330
H311	H	-0.430539	-0.558661	-0.121996
H312	H	-0.097206	-0.225327	0.211337
H313	H	-0.706125	-0.856527	-0.418605
H314	H	-0.372792	-0.523194	-0.085272
H315	H	-0.039458	-0.189860	0.248061
N316	N	-0.869241	-0.895184	-0.419591
N317	N	-0.535908	-0.561850	-0.086258
N318	N	-0.202575	-0.228517	0.247075
H319	H	-0.838572	-0.892028	-0.455345
H320	H	-0.505239	-0.558695	-0.122011
H321	H	-0.171905	-0.225361	0.211322
H322	H	-0.896344	-0.933365	-0.425464
H323	H	-0.563011	-0.600032	-0.092130
H324	H	-0.229678	-0.266699	0.241203
H325	H	-0.943788	-0.832801	-0.374868
H326	H	-0.610454	-0.499468	-0.041535
H327	H	-0.277121	-0.166134	0.291798
H328	H	-0.228870	-0.978271	-0.541437
H329	H	0.104464	-0.644938	-0.208104
H330	H	0.437797	-0.311605	0.125230
H331	H	-1.062407	-0.978322	-0.229701
H332	H	-0.729073	-0.644989	0.103633
H333	H	-0.395740	-0.311655	0.436966
N334	N	-0.312098	-0.337875	-0.419529
N335	N	0.021235	-0.004542	-0.086196
N336	N	0.354569	0.328791	0.247137
H337	H	-0.352692	-0.349250	-0.440748
H338	H	-0.019359	-0.015917	-0.107414
H339	H	0.313974	0.317417	0.225919
H340	H	-0.311308	-0.291465	-0.410908
H341	H	0.022025	0.041868	-0.077575
H342	H	0.355359	0.375202	0.255759
H343	H	-0.374248	-0.832787	-0.660028
H344	H	-0.040914	-0.499454	-0.326695
H345	H	0.292419	-0.166120	0.006638
H346	H	-0.943700	-0.978280	-0.229680
H347	H	-0.610367	-0.644947	0.103653
H348	H	-0.277034	-0.311613	0.436987
N349	N	-0.218201	-0.271950	-0.219104
N350	N	0.115132	0.061384	0.114229
N351	N	0.448465	0.394717	0.447562
H352	H	-0.189209	-0.299154	-0.244615
H353	H	0.144124	0.034180	0.088719
H354	H	0.477457	0.367513	0.422052
H355	H	-0.192815	-0.241256	-0.193780
H356	H	0.140518	0.092078	0.139553
H357	H	0.473851	0.425411	0.472887
N358	N	-0.218078	-0.988860	-1.072442
N359	N	0.115255	-0.655526	-0.739109
N360	N	0.448589	-0.322193	-0.405775
H361	H	-0.192700	-1.014258	-1.041807
H362	H	0.140633	-0.680925	-0.708474
H363	H	0.473967	-0.347592	-0.375141
H364	H	-0.243560	-1.017841	-1.099621
H365	H	0.089773	-0.684508	-0.766287
H366	H	0.423107	-0.351174	-0.432954
H367	H	-0.403894	-0.896517	-0.861891
H368	H	-0.070561	-0.563184	-0.528557
H369	H	0.262772	-0.229850	-0.195224
N370	N	-0.385023	-0.271972	-0.385370
N371	N	-0.051690	0.061362	-0.052037
N372	N	0.281643	0.394695	0.281297
H373	H	-0.410438	-0.241320	-0.410718
H374	H	-0.077104	0.092013	-0.077385
H375	H	0.256229	0.425346	0.255948
H376	H	-0.359567	-0.299180	-0.414403
H377	H	-0.026233	0.034153	-0.081069
H378	H	0.307100	0.367487	0.252264
H379	H	-0.228823	-0.978267	-0.660144
H380	H	0.104510	-0.644934	-0.326810
H381	H	0.437843	-0.311600	0.006523
N382	N	-0.184176	-0.915877	-0.734548
N383	N	0.149158	-0.582544	-0.401215
N384	N	0.482491	-0.249210	-0.067882
H385	H	-0.148401	-0.919028	-0.765204
H386	H	0.184933	-0.585694	-0.431871
H387	H	0.518266	-0.252361	-0.098537
H388	H	-0.178376	-0.877705	-0.707368
H389	H	0.154957	-0.544371	-0.374034
H390	H	0.488291	-0.211038	-0.040701
H391	H	-0.199050	-0.914559	-0.861913
H392	H	0.134284	-0.581226	-0.528580
H393	H	0.467617	-0.247892	-0.195247
H394	H	-0.292509	-0.346314	-0.199811
H395	H	0.040825	-0.012980	0.133522
H396	H	0.374158	0.320353	0.466856
N397	N	-0.384702	-0.822193	-1.072298
N398	N	-0.051368	-0.488860	-0.738964
N399	N	0.281965	-0.155527	-0.405631
H400	H	-0.378605	-0.828277	-1.118719
H401	H	-0.045271	-0.494943	-0.785386
H402	H	0.288062	-0.161610	-0.452053
H403	H	-0.429451	-0.831918	-1.060869
H404	H	-0.096118	-0.498585	-0.727535
H405	H	0.237215	-0.165252	-0.394202
H406	H	-0.374481	-0.666953	-0.374686
H407	H	-0.041148	-0.333620	-0.041352
H408	H	0.292186	-0.000286	0.291981
H409	H	-0.403921	-0.896343	-0.743186
H410	H	-0.070588	-0.563010	-0.409853
H411	H	0.262745	-0.229677	-0.076520
N412	N	-0.384997	-0.135959	-0.385411
N413	N	-0.051664	0.197374	-0.052078
N414	N	0.281670	0.530708	0.281255
H415	H	-0.410429	-0.166619	-0.410734
H416	H	-0.077096	0.166715	-0.077401
H417	H	0.256238	0.500048	0.255932
H418	H	-0.413945	-0.108755	-0.359854
H419	H	-0.080612	0.224578	-0.026521
H420	H	0.252722	0.557912	0.306813
H421	H	-0.228777	-0.144582	-0.229715
H422	H	0.104556	0.188751	0.103618
H423	H	0.437890	0.522085	0.436951
H424	H	-0.860677	-0.914540	-0.199857
H425	H	-0.527344	-0.581206	0.133477
H426	H	-0.194011	-0.247873	0.466810
N427	N	-0.291196	-0.473656	-0.184858
N428	N	0.042138	-0.140323	0.148475
N429	N	0.375471	0.193011	0.481808
H430	H	-0.288011	-0.442964	-0.149111
H431	H	0.045322	-0.109631	0.184223
H432	H	0.378655	0.223703	0.517556
H433	H	-0.329367	-0.500762	-0.178965
H434	H	0.003967	-0.167429	0.154368
H435	H	0.337300	0.165904	0.487702
