data_functionalizedCrystal
_audit_creation_method	'MofGen! by Chris Wilmer'
_symmetry_space_group_name_H-M	'P1'
_symmetry_Int_Tables_number	1
_symmetry_cell_setting	triclinic
loop_
_symmetry_equiv_pos_as_xyz
  x,y,z
_cell_length_a	17.077404
_cell_length_b	21.395361
_cell_length_c	17.077396
_cell_angle_alpha	89.965914
_cell_angle_beta	89.982756
_cell_angle_gamma	90.030933
loop_
_atom_site_label
_atom_site_type_symbol
_atom_site_fract_x
_atom_site_fract_y
_atom_site_fract_z
Zn1	Zn	1.199994	-0.249430	-0.443817
Zn2	Zn	1.699994	0.250570	0.056183
Zn3	Zn	1.199889	-0.354212	-0.312540
Zn4	Zn	1.699889	0.145788	0.187460
Zn5	Zn	1.068731	-0.249453	-0.312565
Zn6	Zn	1.568731	0.250547	0.187435
Zn7	Zn	1.068676	-0.354174	-0.443763
Zn8	Zn	1.568676	0.145826	0.056237
O9	O	1.134323	-0.301817	-0.378171
O10	O	1.634323	0.198183	0.121829
O11	O	1.309827	-0.263336	-0.426414
O12	O	1.809827	0.236664	0.073586
O13	O	1.182469	-0.340342	-0.202696
O14	O	1.682469	0.159658	0.297304
O15	O	1.086211	-0.161772	-0.330008
O16	O	1.586211	0.338228	0.169992
O17	O	1.309750	-0.340319	-0.329966
O18	O	1.809750	0.159681	0.170034
O19	O	1.182649	-0.161755	-0.426439
O20	O	1.682649	0.338245	0.073561
O21	O	1.086109	-0.263376	-0.202714
O22	O	1.586109	0.236624	0.297286
O23	O	0.958877	-0.263338	-0.329957
O24	O	1.458877	0.236662	0.170043
O25	O	1.086117	-0.340253	-0.553617
O26	O	1.586117	0.159747	-0.053617
O27	O	0.958837	-0.340276	-0.426348
O28	O	1.458837	0.159724	0.073652
O29	O	1.182596	-0.263298	-0.553657
O30	O	1.682596	0.236702	-0.053657
O31	O	1.182416	-0.441885	-0.329914
O32	O	1.682416	0.058115	0.170086
O33	O	1.086015	-0.441857	-0.426324
O34	O	1.586015	0.058143	0.073676
C35	C	0.930375	-0.301806	-0.378149
C36	C	1.430375	0.198194	0.121851
C37	C	0.843125	-0.301816	-0.378159
C38	C	1.343125	0.198184	0.121841
C39	C	0.802134	-0.341938	-0.428269
C40	C	1.302134	0.158062	0.071731
C41	C	0.720154	-0.341939	-0.428282
C42	C	1.220154	0.158061	0.071718
C43	C	0.679166	-0.301822	-0.378179
C44	C	1.179166	0.198178	0.121821
C45	C	0.720162	-0.261695	-0.328067
C46	C	1.220162	0.238305	0.171933
C47	C	0.802141	-0.261691	-0.328059
C48	C	1.302141	0.238309	0.171941
C49	C	0.549292	-0.261707	-0.328086
C50	C	1.049292	0.238293	0.171914
C51	C	0.467307	-0.261712	-0.328092
C52	C	0.967307	0.238288	0.171908
C53	C	0.467305	-0.341956	-0.428309
C54	C	0.967305	0.158044	0.071691
C55	C	0.549284	-0.341952	-0.428301
C56	C	1.049284	0.158048	0.071699
C57	C	0.590275	-0.301826	-0.378187
C58	C	1.090275	0.198174	0.121813
C59	C	1.134219	-0.464605	-0.378127
C60	C	1.634219	0.035395	0.121873
C61	C	1.134247	-0.534246	-0.378135
C62	C	1.634247	-0.034246	0.121865
C63	C	1.184487	-0.566953	-0.327986
C64	C	1.684487	-0.066953	0.172014
C65	C	1.184524	-0.632389	-0.328004
C66	C	1.684524	-0.132389	0.171996
C67	C	1.134306	-0.665114	-0.378162
C68	C	1.634306	-0.165114	0.121838
C69	C	1.084062	-0.632399	-0.428321
C70	C	1.584062	-0.132399	0.071679
C71	C	1.084032	-0.566965	-0.428307
C72	C	1.584032	-0.066965	0.071693
C73	C	1.063626	-0.768829	-0.384313
C74	C	1.563626	-0.268829	0.115687
C75	C	1.063654	-0.834262	-0.384321
C76	C	1.563654	-0.334262	0.115679
C77	C	1.134397	-0.866935	-0.378208
C78	C	1.634397	-0.366935	0.121792
C79	C	1.205114	-0.834168	-0.372070
C80	C	1.705114	-0.334168	0.127930
C81	C	1.205084	-0.768733	-0.372057
C82	C	1.705084	-0.268733	0.127943
C83	C	1.134332	-0.736067	-0.378182
C84	C	1.634332	-0.236067	0.121818
C85	C	1.184681	-0.970595	-0.328075
C86	C	1.684681	-0.470595	0.171925
C87	C	1.184719	-1.036031	-0.328098
C88	C	1.684719	-0.536031	0.171902
C89	C	1.084250	-1.036041	-0.428411
C90	C	1.584250	-0.536041	0.071589
C91	C	1.084219	-0.970606	-0.428392
C92	C	1.584219	-0.470606	0.071608
C93	C	1.134434	-0.937886	-0.378220
C94	C	1.634434	-0.437886	0.121780
C95	C	1.339067	-0.301829	-0.378193
C96	C	1.839067	0.198171	0.121807
C97	C	1.426317	-0.301834	-0.378203
C98	C	1.926317	0.198166	0.121797
C99	C	1.134362	-0.301769	-0.582915
C100	C	1.634362	0.198231	-0.082915
C101	C	1.134379	-0.301748	-0.670165
C102	C	1.634379	0.198252	-0.170165
C103	C	1.134448	-0.138394	-0.378232
C104	C	1.634448	0.361606	0.121768
C105	C	1.134502	-0.068753	-0.378258
C106	C	1.634502	0.431247	0.121742
C107	C	1.084219	-0.261667	-0.711164
C108	C	1.584219	0.238333	-0.211164
C109	C	1.084232	-0.261653	-0.793145
C110	C	1.584232	0.238347	-0.293145
C111	C	1.134409	-0.301717	-0.834125
C112	C	1.634409	0.198283	-0.334125
C113	C	1.184571	-0.341802	-0.793120
C114	C	1.684571	0.158198	-0.293120
C115	C	1.184554	-0.341819	-0.711141
C116	C	1.684554	0.158181	-0.211141
C117	C	1.184605	-0.341763	-0.963990
C118	C	1.684605	0.158237	-0.463990
C119	C	1.184624	-0.341746	-1.045975
C120	C	1.684624	0.158254	-0.545975
C121	C	1.084283	-0.261597	-1.045994
C122	C	1.584283	0.238403	-0.545994
C123	C	1.084266	-0.261614	-0.964015
C124	C	1.584266	0.238386	-0.464015
C125	C	1.134429	-0.301698	-0.923016
C126	C	1.634429	0.198302	-0.423016
C127	C	1.134329	-0.301820	-0.174223
C128	C	1.634329	0.198180	0.325777
C129	C	1.134464	-0.301665	-0.086974
C130	C	1.634464	0.198335	0.413026
H131	H	0.582664	-0.229027	-0.287285
H132	H	1.082664	0.270973	0.212715
C133	C	1.239729	-0.385909	-0.666042
C134	C	1.739729	0.114091	-0.166042
H135	H	1.269620	-0.409764	-0.702188
H136	H	1.769620	0.090236	-0.202188
H137	H	1.209671	-0.413212	-0.634049
H138	H	1.709671	0.086788	-0.134049
H139	H	1.273947	-0.361948	-0.634075
H140	H	1.773947	0.138052	-0.134075
C141	C	1.029074	-0.217543	-0.918938
C142	C	1.529074	0.282457	-0.418938
H143	H	0.999197	-0.193671	-0.955096
H144	H	1.499197	0.306329	-0.455096
H145	H	1.059118	-0.190254	-0.886971
H146	H	1.559118	0.309746	-0.386971
H147	H	0.994845	-0.241520	-0.886946
H148	H	1.494845	0.258480	-0.386946
C149	C	0.847235	-0.217558	-0.272939
C150	C	1.347235	0.282442	0.227061
H151	H	0.901928	-0.223297	-0.280115
H152	H	1.401928	0.276703	0.219885
H153	H	0.833775	-0.226672	-0.220176
H154	H	1.333775	0.273328	0.279824
H155	H	0.833827	-0.175472	-0.284534
H156	H	1.333827	0.324528	0.215466
H157	H	1.262720	-0.860769	-0.367092
H158	H	1.762720	-0.360769	0.132908
C159	C	1.239730	-0.530966	-0.272808
C160	C	1.739730	-0.030966	0.227192
H161	H	1.269662	-0.559820	-0.242948
H162	H	1.769662	-0.059820	0.257052
H163	H	1.209716	-0.505479	-0.238573
H164	H	1.709716	-0.005479	0.261427
H165	H	1.273906	-0.505401	-0.302869
H166	H	1.773906	-0.005401	0.197131
H167	H	1.043175	-0.659049	-0.469161
H168	H	1.543175	-0.159049	0.030839
H169	H	1.225422	-0.374427	-0.826492
H170	H	1.725422	0.125573	-0.326492
H171	H	1.043365	-1.062686	-0.469255
H172	H	1.543365	-0.562686	0.030745
H173	H	1.225438	-0.659024	-0.287166
H174	H	1.725438	-0.159024	0.212834
C175	C	0.422219	-0.386090	-0.483437
C176	C	0.922219	0.113910	0.016563
H177	H	0.367525	-0.380342	-0.476275
H178	H	0.867525	0.119658	0.023725
H179	H	0.435622	-0.428175	-0.471849
H180	H	0.935622	0.071825	0.028151
H181	H	0.435684	-0.376969	-0.536201
H182	H	0.935684	0.123031	-0.036201
C183	C	1.028764	-0.530983	-0.483469
C184	C	1.528764	-0.030983	0.016531
H185	H	1.035941	-0.487327	-0.476279
H186	H	1.535941	0.012673	0.023721
H187	H	0.976034	-0.541752	-0.471939
H188	H	1.476034	-0.041752	0.028061
H189	H	1.040232	-0.541664	-0.536227
H190	H	1.540232	-0.041664	-0.036227
C191	C	0.675081	-0.217564	-0.272956
C192	C	1.175081	0.282436	0.227044
H193	H	0.711237	-0.193664	-0.243116
H194	H	1.211237	0.306336	0.256884
H195	H	0.643073	-0.241497	-0.238700
H196	H	1.143073	0.258503	0.261300
H197	H	0.643130	-0.190294	-0.303056
H198	H	1.143130	0.309706	0.196944
C199	C	0.594370	-0.386080	-0.483412
C200	C	1.094370	0.113920	0.016588
H201	H	0.558218	-0.409973	-0.513265
H202	H	1.058218	0.090027	-0.013265
H203	H	0.626324	-0.413346	-0.453319
H204	H	1.126324	0.086654	0.046681
H205	H	0.626376	-0.362138	-0.517668
H206	H	1.126376	0.137862	-0.017668
C207	C	1.028944	-0.934626	-0.483547
C208	C	1.528944	-0.434626	0.016453
H209	H	0.999035	-0.963486	-0.513418
H210	H	1.499035	-0.463486	-0.013418
H211	H	1.058935	-0.909055	-0.517772
H212	H	1.558935	-0.409055	-0.017772
H213	H	0.994747	-0.909146	-0.453474
H214	H	1.494747	-0.409146	0.046526
C215	C	1.282867	-0.732691	-0.365318
C216	C	1.782867	-0.232691	0.134682
H217	H	1.325006	-0.761517	-0.361684
H218	H	1.825006	-0.261517	0.138316
H219	H	1.281867	-0.707191	-0.319813
H220	H	1.781867	-0.207191	0.180187
H221	H	1.289719	-0.707136	-0.410315
H222	H	1.789719	-0.207136	0.089685
C223	C	1.029081	-0.217523	-1.091089
C224	C	1.529081	0.282477	-0.591089
H225	H	1.036263	-0.223260	-1.145782
H226	H	1.536263	0.276740	-0.645782
H227	H	1.040581	-0.175424	-1.077686
H228	H	1.540581	0.324576	-0.577686
H229	H	0.976333	-0.226711	-1.077631
H230	H	1.476333	0.273289	-0.577631
H231	H	1.225572	-0.943954	-0.287224
H232	H	1.725572	-0.443954	0.212776
H233	H	0.835501	-0.374609	-0.469066
H234	H	1.335501	0.125391	0.030934
H235	H	0.433937	-0.229037	-0.287304
H236	H	0.933937	0.270963	0.212696
H237	H	0.686783	-0.374611	-0.469086
H238	H	1.186783	0.125389	0.030914
H239	H	1.006072	-0.860936	-0.389311
H240	H	1.506072	-0.360936	0.110689
H241	H	1.225636	-1.062660	-0.287263
H242	H	1.725636	-0.562660	0.212737
C243	C	1.239822	-0.385811	-1.091052
C244	C	1.739822	0.114189	-0.591052
H245	H	1.269690	-0.409691	-1.054894
H246	H	1.769690	0.090309	-0.554894
H247	H	1.274048	-0.361834	-1.123040
H248	H	1.774048	0.138166	-0.623040
H249	H	1.209778	-0.413102	-1.123023
H250	H	1.709778	0.086898	-0.623023
H251	H	1.006014	-0.742232	-0.389295
H252	H	1.506014	-0.242232	0.110705
C253	C	1.029017	-0.217601	-0.666094
C254	C	1.529017	0.282399	-0.166094
H255	H	0.999139	-0.193734	-0.702256
H256	H	1.499139	0.306266	-0.202256
H257	H	1.059051	-0.190307	-0.634124
H258	H	1.559051	0.309693	-0.134124
H259	H	0.994789	-0.241582	-0.634105
H260	H	1.494789	0.258418	-0.134105
C261	C	1.239782	-0.385857	-0.918893
C262	C	1.739782	0.114143	-0.418893
H263	H	1.269674	-0.409711	-0.955038
H264	H	1.769674	0.090289	-0.455038
H265	H	1.209727	-0.413161	-0.886898
H266	H	1.709727	0.086839	-0.386898
H267	H	1.273999	-0.361894	-0.886927
H268	H	1.773999	0.138106	-0.386927
H269	H	1.043384	-0.229017	-0.826523
H270	H	1.543384	0.270983	-0.326523
