data_functionalizedCrystal
_audit_creation_method	'MofGen! by Chris Wilmer'
_symmetry_space_group_name_H-M	'P1'
_symmetry_Int_Tables_number	1
_symmetry_cell_setting	triclinic
loop_
_symmetry_equiv_pos_as_xyz
  x,y,z
_cell_length_a	12.759401
_cell_length_b	12.759400
_cell_length_c	17.077396
_cell_angle_alpha	89.974414
_cell_angle_beta	89.983593
_cell_angle_gamma	90.014845
loop_
_atom_site_label
_atom_site_type_symbol
_atom_site_fract_x
_atom_site_fract_y
_atom_site_fract_z
Zn1	Zn	1.606234	-0.418262	-0.443794
Zn2	Zn	1.606135	-0.593962	-0.312534
Zn3	Zn	1.430542	-0.418298	-0.312549
Zn4	Zn	1.430524	-0.593900	-0.443765
O5	O	1.518359	-0.506106	-0.378160
O6	O	1.753242	-0.441580	-0.426388
O7	O	1.582808	-0.570702	-0.202689
O8	O	1.453897	-0.271273	-0.329977
O9	O	1.753169	-0.570666	-0.329952
O10	O	1.582977	-0.271246	-0.426402
O11	O	1.453801	-0.441642	-0.202700
O12	O	1.283519	-0.441582	-0.329949
O13	O	1.453867	-0.570560	-0.553616
O14	O	1.283506	-0.570595	-0.426353
O15	O	1.582960	-0.441519	-0.553637
O16	O	1.582791	-0.740975	-0.329924
O17	O	1.453771	-0.740929	-0.426339
C18	C	1.245391	-0.506086	-0.378150
C19	C	1.128615	-0.506103	-0.378164
C20	C	1.073773	-0.573388	-0.428278
C21	C	0.964049	-0.573401	-0.428287
C22	C	0.964018	-0.438842	-0.328060
C23	C	1.073740	-0.438824	-0.328056
C24	C	1.073791	-0.651078	-0.486142
C25	C	0.964067	-0.651092	-0.486150
C26	C	1.518296	-0.779073	-0.378144
C27	C	1.518366	-0.895850	-0.378163
C28	C	1.585621	-0.950701	-0.328016
C29	C	1.585686	-1.060425	-0.328040
C30	C	1.451231	-1.060437	-0.428362
C31	C	1.451172	-0.950715	-0.428341
C32	C	1.663245	-0.950694	-0.270093
C33	C	1.663309	-1.060419	-0.270118
C34	C	1.792392	-0.506126	-0.378172
C35	C	1.909169	-0.506134	-0.378176
C36	C	1.518422	-0.506028	-0.582905
C37	C	1.518449	-0.505995	-0.670155
C38	C	1.518450	-0.232072	-0.378194
C39	C	1.518489	-0.115296	-0.378208
C40	C	1.585671	-0.438798	-0.711157
C41	C	1.585683	-0.438763	-0.793138
C42	C	1.518479	-0.505931	-0.834114
C43	C	1.451251	-0.573131	-0.793106
C44	C	1.451234	-0.573160	-0.711127
C45	C	1.451293	-0.573068	-0.963976
C46	C	1.451311	-0.573041	-1.045961
C47	C	1.585743	-0.438671	-1.045987
C48	C	1.585725	-0.438700	-0.964008
C49	C	1.518498	-0.505902	-0.923005
C50	C	1.518356	-0.506107	-0.174213
C51	C	1.518532	-0.505844	-0.086963
H52	H	0.919325	-0.384065	-0.287264
N53	N	1.378786	-0.645463	-1.090140
H54	H	1.330130	-0.602725	-1.124145
H55	H	1.421509	-0.694151	-1.124113
H56	H	1.740612	-1.094366	-0.291943
N57	N	1.378780	-0.645543	-0.919749
H58	H	1.336211	-0.688092	-0.958146
H59	H	1.421524	-0.694177	-0.885733
H60	H	1.641575	-1.090272	-0.209314
N61	N	1.378721	-0.645626	-0.666899
H62	H	1.336149	-0.688172	-0.705295
H63	H	1.421455	-0.694265	-0.632878
N64	N	1.658162	-0.366359	-0.666964
H65	H	1.700747	-0.323784	-0.705381
H66	H	1.615407	-0.317747	-0.632951
H67	H	1.118387	-0.384028	-0.287253
N68	N	1.378770	-0.645569	-0.837312
H69	H	1.395052	-0.720644	-0.823040
H70	H	1.303733	-0.629159	-0.823029
H71	H	1.634122	-0.916739	-0.212319
N72	N	1.113285	-0.622343	-0.566703
H73	H	1.157268	-0.681565	-0.588122
H74	H	1.051714	-0.609509	-0.602598
N75	N	1.118861	-0.753395	-0.457156
H76	H	1.059935	-0.802846	-0.443157
H77	H	1.163455	-0.785739	-0.499617
N78	N	1.378749	-1.119617	-0.482468
H79	H	1.336132	-1.068216	-0.514232
H80	H	1.421511	-1.165072	-0.518833
N81	N	1.658216	-0.366265	-0.919808
H82	H	1.700806	-0.323688	-0.958221
H83	H	1.615458	-0.317655	-0.885796
H84	H	0.930066	-0.622056	-0.543944
H85	H	1.640424	-0.384047	-0.826518
H86	H	1.640480	-0.383951	-1.079375
N87	N	0.924591	-0.758833	-0.464427
H88	H	0.845434	-0.758885	-0.464425
H89	H	0.951041	-0.811650	-0.503776
N90	N	1.378641	-0.891549	-0.482431
H91	H	1.394931	-0.910579	-0.538530
H92	H	1.303621	-0.910738	-0.470133
N93	N	1.770985	-0.911134	-0.291717
H94	H	1.819107	-0.972622	-0.301388
H95	H	1.766169	-0.867087	-0.340736
