data_functionalizedCrystal
_audit_creation_method	'MofGen! by Chris Wilmer'
_symmetry_space_group_name_H-M	'P1'
_symmetry_Int_Tables_number	1
_symmetry_cell_setting	triclinic
loop_
_symmetry_equiv_pos_as_xyz
  x,y,z
_cell_length_a	21.395362
_cell_length_b	12.759400
_cell_length_c	21.395355
_cell_angle_alpha	90.012729
_cell_angle_beta	90.043940
_cell_angle_gamma	90.029045
loop_
_atom_site_label
_atom_site_type_symbol
_atom_site_fract_x
_atom_site_fract_y
_atom_site_fract_z
Zn1	Zn	0.957936	-0.417943	0.354611
Zn2	Zn	0.957870	-0.593607	0.249844
Zn3	Zn	0.853151	-0.417992	0.249812
Zn4	Zn	0.853152	-0.593629	0.354549
O5	O	0.905527	-0.505793	0.302204
O6	O	1.045605	-0.441215	0.340753
O7	O	0.943951	-0.570323	0.162162
O8	O	0.867078	-0.270964	0.263727
O9	O	1.045557	-0.570275	0.263781
O10	O	0.944063	-0.270928	0.340722
O11	O	0.867014	-0.441299	0.162138
O12	O	0.765473	-0.441320	0.263666
O13	O	0.867080	-0.570312	0.442235
O14	O	0.765474	-0.570360	0.340616
O15	O	0.944064	-0.441236	0.442281
O16	O	0.943952	-0.740631	0.263721
O17	O	0.867016	-0.740647	0.340647
C18	C	0.742740	-0.505848	0.302131
C19	C	0.673098	-0.505897	0.302115
C20	C	0.905494	-0.778760	0.302194
C21	C	0.905538	-0.895537	0.302211
C22	C	0.640402	-0.573177	0.342123
C23	C	0.574967	-0.573152	0.342150
C24	C	0.542230	-0.505857	0.302160
C25	C	0.574934	-0.438564	0.262149
C26	C	0.640368	-0.438584	0.262127
C27	C	0.438504	-0.497393	0.245754
C28	C	0.373071	-0.497380	0.245775
C29	C	0.340409	-0.505788	0.302229
C30	C	0.373189	-0.514231	0.358663
C31	C	0.438623	-0.514251	0.358641
C32	C	0.471278	-0.505827	0.302180
C33	C	0.236761	-0.573044	0.342270
C34	C	0.171324	-0.573011	0.342299
C35	C	0.171293	-0.438428	0.262292
C36	C	0.236728	-0.438456	0.262269
C37	C	0.269458	-0.505769	0.302257
C38	C	0.945604	-0.950300	0.342335
C39	C	0.945633	-1.060024	0.342350
C40	C	0.865528	-1.060211	0.262112
C41	C	0.865496	-0.950489	0.262100
C42	C	0.991854	-0.950193	0.388658
C43	C	0.991883	-1.059917	0.388673
C44	C	1.068951	-0.505738	0.302277
C45	C	1.138592	-0.505714	0.302308
C46	C	0.905579	-0.505771	0.465627
C47	C	0.905601	-0.505762	0.535269
C48	C	0.905577	-0.231759	0.302228
C49	C	0.905599	-0.114983	0.302238
C50	C	0.905511	-0.505738	0.139416
C51	C	0.905611	-0.505451	0.069775
C52	C	0.945685	-0.438550	0.568006
C53	C	0.945685	-0.438504	0.633442
C54	C	0.905606	-0.505691	0.666137
C55	C	0.865515	-0.572908	0.633391
C56	C	0.865512	-0.572944	0.567957
C57	C	0.900648	-0.600292	0.769806
C58	C	0.900654	-0.600258	0.835239
C59	C	0.905610	-0.505580	0.867958
C60	C	0.910572	-0.410932	0.835235
C61	C	0.910570	-0.410968	0.769801
C62	C	0.905604	-0.505659	0.737089
C63	C	0.945695	-0.438312	0.971648
C64	C	0.945690	-0.438265	1.037085
C65	C	0.865523	-0.572678	1.037033
C66	C	0.865525	-0.572716	0.971597
C67	C	0.905615	-0.505534	0.938909
H68	H	0.667047	-0.627988	0.374685
H69	H	0.832881	-0.627608	0.660016
H70	H	0.832868	-0.627675	0.541302
O71	O	0.984586	-0.373356	0.536157
C72	C	1.020046	-0.313724	0.435377
C73	C	0.975983	-0.387646	0.471369
H74	H	1.013096	-0.325237	0.382989
H75	H	1.070586	-0.332115	0.448220
H76	H	1.009044	-0.229031	0.448281
H77	H	0.986928	-0.472365	0.458483
H78	H	0.925455	-0.369165	0.458522
O79	O	0.139464	-0.638270	0.381146
C80	C	0.038674	-0.697927	0.416612
C81	C	0.074678	-0.623950	0.372597
H82	H	-0.013712	-0.686391	0.409706
H83	H	0.051559	-0.679614	0.467162
H84	H	0.051527	-0.782608	0.405521
H85	H	0.061844	-0.539244	0.383632
H86	H	0.061790	-0.642354	0.322060
H87	H	0.896444	-0.677371	0.743173
H88	H	0.548340	-0.627939	0.374732
H89	H	0.465309	-0.521123	0.404591
O90	O	0.895917	-0.692277	0.866949
C91	C	0.941109	-0.861920	0.887024
C92	C	0.946540	-0.757763	0.851069
H93	H	0.982038	-0.914886	0.874208
H94	H	0.895349	-0.902332	0.874115
H95	H	0.941937	-0.845617	0.939410
H96	H	0.945738	-0.773974	0.798675
H97	H	0.992294	-0.717382	0.864030
H98	H	0.346597	-0.521076	0.404633
O99	O	0.984689	-0.372937	1.068792
C100	C	1.064183	-0.239594	1.061935
C101	C	1.020059	-0.313542	1.025949
H102	H	1.092783	-0.191538	1.027312
H103	H	1.096975	-0.287754	1.092582
H104	H	1.035420	-0.184690	1.092560
H105	H	1.048772	-0.368461	0.995290
H106	H	0.987266	-0.265316	0.995341
O107	O	1.049740	-1.095490	0.373163
C108	C	1.111366	-1.197033	0.300974
C109	C	1.045810	-1.156841	0.318479
H110	H	1.108213	-1.246625	0.256754
H111	H	1.130730	-1.246675	0.340823
H112	H	1.143697	-1.127481	0.292365
H113	H	1.013431	-1.226330	0.327078
H114	H	1.026497	-1.107167	0.278621
O115	O	0.268462	-0.638451	0.381178
C116	C	0.261589	-0.771969	0.460513
C117	C	0.225612	-0.697934	0.416492
H118	H	0.226960	-0.820096	0.489067
H119	H	0.292264	-0.723872	0.493352
H120	H	0.292184	-0.826802	0.431673
H121	H	0.194982	-0.643086	0.445282
H122	H	0.194976	-0.746097	0.383651
O123	O	0.139403	-0.373181	0.223449
C124	C	0.038585	-0.313515	0.188019
C125	C	0.074625	-0.387466	0.232038
H126	H	-0.013795	-0.325023	0.194957
H127	H	0.051350	-0.331881	0.137467
H128	H	0.051525	-0.228829	0.199075
H129	H	0.061704	-0.472177	0.221039
H130	H	0.061856	-0.369010	0.282576
H131	H	0.832888	-0.627454	0.944942
H132	H	0.263350	-0.383674	0.229687
H133	H	0.978827	-0.920406	0.437165
H134	H	0.832866	-0.905902	0.229433
O135	O	0.984685	-0.373181	0.665156
C136	C	1.064181	-0.239839	0.658307
C137	C	1.020056	-0.313779	0.622316
H138	H	1.092780	-0.191778	0.623686
H139	H	1.096973	-0.288007	0.688950
H140	H	1.035419	-0.184940	0.688936
H141	H	1.048767	-0.368693	0.591653
H142	H	0.987262	-0.265546	0.591713
H143	H	0.346387	-0.490512	0.199823
H144	H	0.832927	-1.104967	0.229456
H145	H	0.548276	-0.383770	0.229589
O146	O	0.470131	-0.489275	0.190852
C147	C	0.463108	-0.472533	0.078886
C148	C	0.427214	-0.481739	0.141013
H149	H	0.428425	-0.466416	0.038577
H150	H	0.493684	-0.544801	0.072151
H151	H	0.493795	-0.399485	0.079945
H152	H	0.396493	-0.554744	0.139998
H153	H	0.396677	-0.409419	0.147724
O154	O	0.672036	-0.373197	0.223199
C155	C	0.665100	-0.239665	0.143874
C156	C	0.629157	-0.313676	0.187919
H157	H	0.630448	-0.191507	0.115348
H158	H	0.695658	-0.287782	0.111010
H159	H	0.695809	-0.184859	0.172694
H160	H	0.598414	-0.368497	0.159149
H161	H	0.598639	-0.265493	0.220784
H162	H	1.037946	-0.916095	0.371329
O163	O	0.971042	-1.100575	0.443594
C164	C	0.894235	-1.208924	0.494660
C165	C	0.917762	-1.162925	0.432425
H166	H	0.851162	-1.259362	0.485649
H167	H	0.881608	-1.142434	0.527930
H168	H	0.932551	-1.259091	0.516472
H169	H	0.879474	-1.112770	0.410559
H170	H	0.930407	-1.229465	0.399198
H171	H	0.914608	-0.333903	0.743161
O172	O	0.915265	-0.318958	0.867032
C173	C	0.867365	-0.201211	0.940875
C174	C	0.861968	-0.305382	0.904893
H175	H	0.824287	-0.190212	0.971505
H176	H	0.870868	-0.133535	0.906272
H177	H	0.910966	-0.202801	0.971522
H178	H	0.818369	-0.303895	0.874246
H179	H	0.858500	-0.373013	0.939531
H180	H	0.978335	-0.383603	0.945032
O181	O	0.826655	-0.637919	1.068882
C182	C	0.791112	-0.697405	1.169664
C183	C	0.835172	-0.623481	1.133670
H184	H	0.797974	-0.685742	1.222051
H185	H	0.802107	-0.782144	1.156856
H186	H	0.740598	-0.679003	1.156725
H187	H	0.885701	-0.641789	1.146589
H188	H	0.824124	-0.538764	1.146481
