data_functionalizedCrystal
_audit_creation_method	'MofGen! by Chris Wilmer'
_symmetry_space_group_name_H-M	'P1'
_symmetry_Int_Tables_number	1
_symmetry_cell_setting	triclinic
loop_
_symmetry_equiv_pos_as_xyz
  x,y,z
_cell_length_a	17.077402
_cell_length_b	12.759401
_cell_length_c	12.759393
_cell_angle_alpha	89.979062
_cell_angle_beta	90.034688
_cell_angle_gamma	89.975592
loop_
_atom_site_label
_atom_site_type_symbol
_atom_site_fract_x
_atom_site_fract_y
_atom_site_fract_z
Zn1	Zn	-0.312438	-1.606207	0.593990
Zn2	Zn	-0.443724	-1.606073	0.418297
Zn3	Zn	-0.312480	-1.430505	0.418325
Zn4	Zn	-0.443669	-1.430472	0.593934
O5	O	-0.378078	-1.518314	0.506136
O6	O	-0.329859	-1.753210	0.570695
O7	O	-0.426355	-1.582741	0.271279
O8	O	-0.202628	-1.453882	0.441662
O9	O	-0.426314	-1.753111	0.441614
O10	O	-0.202597	-1.582969	0.570722
O11	O	-0.329930	-1.453753	0.271300
O12	O	-0.329877	-1.283480	0.441608
O13	O	-0.426221	-1.453826	0.740962
O14	O	-0.426261	-1.283456	0.570627
O15	O	-0.329806	-1.582937	0.741003
O16	O	-0.553564	-1.582709	0.441560
O17	O	-0.553524	-1.453696	0.570600
C18	C	-0.378068	-1.245347	0.506115
C19	C	-0.378083	-1.128570	0.506131
C20	C	-0.582026	-1.518213	0.506094
C21	C	-0.669276	-1.518266	0.506111
C22	C	-0.378003	-1.518393	0.780170
C23	C	-0.377971	-1.518426	0.896946
C24	C	-0.710261	-1.585511	0.438993
C25	C	-0.792241	-1.585563	0.439019
C26	C	-0.833235	-1.518362	0.506161
C27	C	-0.792244	-1.451114	0.573287
C28	C	-0.710265	-1.451068	0.573265
C29	C	-0.963114	-1.451211	0.573327
C30	C	-1.045099	-1.451255	0.573348
C31	C	-1.045090	-1.585705	0.439082
C32	C	-0.963111	-1.585660	0.439059
C33	C	-0.922126	-1.518410	0.506184
C34	C	-0.173334	-1.518445	0.506201
C35	C	-0.086084	-1.518500	0.506229
C36	C	-0.378088	-1.792347	0.506158
C37	C	-0.378093	-1.909124	0.506167
C38	C	-0.428347	-1.073723	0.573206
C39	C	-0.428350	-0.963999	0.573227
C40	C	-0.327823	-0.963979	0.439089
C41	C	-0.327817	-1.073701	0.439075
C42	C	-0.378096	-1.518296	0.233169
C43	C	-0.377907	-1.518466	0.116393
C44	C	-0.327759	-1.585660	0.951831
C45	C	-0.327725	-1.585677	1.061555
C46	C	-0.428121	-1.451226	1.061500
C47	C	-0.428150	-1.451203	0.951778
H48	H	-0.676889	-1.640229	0.384314
O49	O	-0.476951	-1.386085	1.114814
C50	C	-0.527624	-1.445880	1.178293
H51	H	-0.532486	-1.528616	1.145237
H52	H	-0.588031	-1.407841	1.179512
H53	H	-0.503331	-1.449534	1.261458
H54	H	-0.469279	-0.919347	0.627847
H55	H	-0.469038	-1.396447	0.907090
O56	O	-0.477193	-1.126862	0.638449
C57	C	-0.521569	-1.054917	0.697638
H58	H	-0.489424	-0.976721	0.701360
H59	H	-0.530012	-1.086655	0.780392
H60	H	-0.581154	-1.043201	0.659025
H61	H	-0.286837	-1.640424	1.106238
O62	O	-1.084769	-1.651234	0.373934
C63	C	-1.064605	-1.755889	0.397059
H64	H	-1.005070	-1.757918	0.437472
H65	H	-1.061755	-1.803066	0.321298
H66	H	-1.110683	-1.791308	0.451103
O67	O	-0.831932	-1.650915	0.373717
C68	C	-0.778171	-1.710230	0.314466
H69	H	-0.719764	-1.667163	0.310777
H70	H	-0.801900	-1.721490	0.231704
H71	H	-0.769376	-1.790000	0.353002
O72	O	-0.279122	-1.651058	0.898518
C73	C	-0.323827	-1.718859	0.835024
H74	H	-0.385643	-1.725324	0.868068
H75	H	-0.295434	-1.799728	0.833800
H76	H	-0.326552	-1.686355	0.751862
O77	O	-0.923376	-1.650886	0.373693
C78	C	-0.943467	-1.627976	0.268963
H79	H	-1.003017	-1.587625	0.266761
H80	H	-0.946249	-1.703827	0.221922
H81	H	-0.897384	-1.573952	0.233518
O82	O	-1.084800	-1.385954	0.638677
C83	C	-1.031049	-1.326579	0.697910
H84	H	-0.972580	-1.369572	0.701565
H85	H	-1.054696	-1.315361	0.780685
H86	H	-1.022407	-1.246792	0.659381
H87	H	-0.929747	-1.396452	0.627991
O88	O	-0.832029	-1.385949	0.638660
C89	C	-0.811907	-1.408828	0.743386
H90	H	-0.789315	-1.492745	0.748759
H91	H	-0.865795	-1.399781	0.795296
H92	H	-0.764341	-1.352460	0.770789
H93	H	-0.286900	-0.919291	0.384493
H94	H	-0.676896	-1.396311	0.627921
O95	O	-0.278963	-1.126824	0.373814
C96	C	-0.234590	-1.054870	0.314643
H97	H	-0.266741	-0.976638	0.310932
H98	H	-0.226139	-1.086540	0.231884
H99	H	-0.175008	-1.043248	0.353263
