data_functionalizedCrystal
_audit_creation_method	'MofGen! by Chris Wilmer'
_symmetry_space_group_name_H-M	'P1'
_symmetry_Int_Tables_number	1
_symmetry_cell_setting	triclinic
loop_
_symmetry_equiv_pos_as_xyz
  x,y,z
_cell_length_a	21.395355
_cell_length_b	17.077404
_cell_length_c	17.077403
_cell_angle_alpha	89.999063
_cell_angle_beta	89.994146
_cell_angle_gamma	90.024450
loop_
_atom_site_label
_atom_site_type_symbol
_atom_site_fract_x
_atom_site_fract_y
_atom_site_fract_z
Zn1	Zn	-0.354315	-1.200214	-0.312594
Zn2	Zn	-0.249561	-1.200160	-0.443842
Zn3	Zn	-0.249552	-1.068934	-0.312595
Zn4	Zn	-0.354301	-1.068965	-0.443823
O5	O	-0.301932	-1.134568	-0.378213
O6	O	-0.340429	-1.310054	-0.330013
O7	O	-0.161882	-1.182718	-0.426441
O8	O	-0.263451	-1.086359	-0.202748
O9	O	-0.263466	-1.310014	-0.426440
O10	O	-0.340420	-1.182809	-0.202747
O11	O	-0.161875	-1.086307	-0.330014
O12	O	-0.263437	-0.959091	-0.329995
O13	O	-0.441981	-1.086410	-0.426406
O14	O	-0.340396	-0.959114	-0.426407
O15	O	-0.441991	-1.182838	-0.329993
O16	O	-0.263452	-1.182747	-0.553687
O17	O	-0.340405	-1.086358	-0.553672
C18	C	-0.301915	-0.930620	-0.378199
C19	C	-0.301922	-0.843371	-0.378212
C20	C	-0.465355	-1.134633	-0.378198
C21	C	-0.534997	-1.134661	-0.378191
C22	C	-0.301942	-1.134572	-0.582161
C23	C	-0.301967	-1.134645	-0.669411
C24	C	-0.567716	-1.184869	-0.327987
C25	C	-0.633152	-1.184868	-0.327953
C26	C	-0.665865	-1.134667	-0.378137
C27	C	-0.633138	-1.084449	-0.428345
C28	C	-0.567704	-1.084446	-0.428372
C29	C	-0.769543	-1.128470	-0.448817
C30	C	-0.834976	-1.128479	-0.448792
C31	C	-0.867686	-1.134672	-0.378054
C32	C	-0.834955	-1.140873	-0.307340
C33	C	-0.769521	-1.140870	-0.307367
C34	C	-0.736817	-1.134665	-0.378114
C35	C	-0.971358	-1.184882	-0.327809
C36	C	-1.036795	-1.184875	-0.327774
C37	C	-1.036779	-1.084461	-0.428174
C38	C	-0.971344	-1.084463	-0.428202
C39	C	-0.938637	-1.134678	-0.378021
C40	C	-0.139144	-1.134549	-0.378173
C41	C	-0.069504	-1.134673	-0.377958
C42	C	-0.301950	-1.339313	-0.378228
C43	C	-0.301957	-1.426562	-0.378235
C44	C	-0.341930	-0.802413	-0.428490
C45	C	-0.341940	-0.720432	-0.428491
C46	C	-0.301939	-0.679411	-0.378219
C47	C	-0.261929	-0.720375	-0.327936
C48	C	-0.261922	-0.802354	-0.327931
C49	C	-0.261944	-0.549505	-0.327951
C50	C	-0.261949	-0.467520	-0.327957
C51	C	-0.341962	-0.467583	-0.428512
C52	C	-0.341955	-0.549562	-0.428507
C53	C	-0.301945	-0.590520	-0.378225
C54	C	-0.301936	-1.134587	-0.173469
C55	C	-0.301938	-1.134594	-0.086219
C56	C	-0.261866	-1.084384	-0.045228
C57	C	-0.261874	-1.084390	0.036752
C58	C	-0.301951	-1.134611	0.077740
C59	C	-0.342027	-1.184823	0.036743
C60	C	-0.342022	-1.184812	-0.045236
C61	C	-0.342034	-1.184843	0.207613
C62	C	-0.342038	-1.184855	0.289598
C63	C	-0.261886	-1.084421	0.289601
C64	C	-0.261881	-1.084410	0.207622
C65	C	-0.301956	-1.134624	0.166631
H66	H	-0.541090	-1.225757	-0.287124
H67	H	-0.861586	-1.145918	-0.249739
Cl68	Cl	-0.392270	-0.416094	-0.491713
Cl69	Cl	-0.392400	-1.247935	-0.096768
Cl70	Cl	-0.876117	-1.120690	-0.537688
H71	H	-0.374502	-0.835806	-0.469430
Cl72	Cl	-0.930209	-1.021344	-0.491323
H73	H	-0.742916	-1.123217	-0.506405
H74	H	-0.659797	-1.225752	-0.287066
H75	H	-0.374518	-0.687088	-0.469433
Cl76	Cl	-0.728375	-1.148660	-0.218474
Cl77	Cl	-1.077928	-1.248012	-0.264666
Cl78	Cl	-0.211658	-0.415952	-0.264760
H79	H	-0.229368	-0.582851	-0.286999
Cl80	Cl	-1.077899	-1.021343	-0.491256
H81	H	-0.659777	-1.043573	-0.469203
Cl82	Cl	-0.211478	-1.021250	-0.096748
H83	H	-0.541064	-1.043557	-0.469253
H84	H	-0.374525	-0.582959	-0.469448
Cl85	Cl	-0.211644	-0.668806	-0.264730
H86	H	-0.944727	-1.225765	-0.286945
Cl87	Cl	-0.392416	-1.247950	0.088271
Cl88	Cl	-0.211626	-0.853844	-0.264720
H89	H	-0.229245	-1.043505	0.070127
H90	H	-0.229244	-1.043521	0.174252
H91	H	-0.229256	-1.043535	0.322981
H92	H	-0.374674	-1.225748	0.322966
Cl93	Cl	-0.392413	-1.247971	0.156083
