data_functionalizedCrystal
_audit_creation_method	'MofGen! by Chris Wilmer'
_symmetry_space_group_name_H-M	'P1'
_symmetry_Int_Tables_number	1
_symmetry_cell_setting	triclinic
loop_
_symmetry_equiv_pos_as_xyz
  x,y,z
_cell_length_a	21.395362
_cell_length_b	21.395361
_cell_length_c	21.395355
_cell_angle_alpha	89.978489
_cell_angle_beta	89.956060
_cell_angle_gamma	90.046585
loop_
_atom_site_label
_atom_site_type_symbol
_atom_site_fract_x
_atom_site_fract_y
_atom_site_fract_z
Zn1	Zn	0.957859	-0.249246	-0.354573
Zn2	Zn	0.957762	-0.354005	-0.249790
Zn3	Zn	0.853074	-0.249275	-0.249774
Zn4	Zn	0.853044	-0.354018	-0.354494
O5	O	0.905435	-0.301636	-0.302158
O6	O	1.045524	-0.263125	-0.340712
O7	O	0.943847	-0.340119	-0.162110
O8	O	0.867028	-0.161593	-0.263702
O9	O	1.045453	-0.340091	-0.263729
O10	O	0.944013	-0.161572	-0.340697
O11	O	0.866934	-0.263174	-0.162098
O12	O	0.765392	-0.263187	-0.263626
O13	O	0.866976	-0.340113	-0.442183
O14	O	0.765370	-0.340141	-0.340564
O15	O	0.943983	-0.263137	-0.442240
O16	O	0.943817	-0.441685	-0.263653
O17	O	0.866881	-0.441695	-0.340579
C18	C	0.742647	-0.301669	-0.302085
C19	C	0.673006	-0.301698	-0.302069
C20	C	0.905352	-0.464424	-0.302123
C21	C	0.905374	-0.534065	-0.302129
C22	C	0.640297	-0.341822	-0.342070
C23	C	0.574862	-0.341806	-0.342098
C24	C	0.542138	-0.301674	-0.302113
C25	C	0.574854	-0.261543	-0.262109
C26	C	0.640288	-0.261555	-0.262087
C27	C	0.438413	-0.296627	-0.245708
C28	C	0.372980	-0.296619	-0.245730
C29	C	0.340317	-0.301633	-0.302182
C30	C	0.373095	-0.306668	-0.358616
C31	C	0.438529	-0.306681	-0.358594
C32	C	0.471185	-0.301656	-0.302133
C33	C	0.236656	-0.341742	-0.342218
C34	C	0.171219	-0.341723	-0.342247
C35	C	0.171213	-0.261462	-0.262252
C36	C	0.236648	-0.261479	-0.262229
C37	C	0.269366	-0.301622	-0.302211
C38	C	0.945470	-0.566752	-0.262114
C39	C	0.945499	-0.632188	-0.262128
C40	C	0.905421	-0.664933	-0.302150
C41	C	0.865322	-0.632238	-0.342172
C42	C	0.865299	-0.566804	-0.342162
C43	C	0.849006	-0.768664	-0.307041
C44	C	0.849029	-0.834097	-0.307047
C45	C	0.905494	-0.866754	-0.302187
C46	C	0.961939	-0.833970	-0.297307
C47	C	0.961915	-0.768536	-0.297296
C48	C	0.905443	-0.735886	-0.302167
C49	C	0.945625	-0.970394	-0.262186
C50	C	0.945655	-1.035830	-0.262204
C51	C	0.865473	-1.035879	-0.342245
C52	C	0.865448	-0.970444	-0.342230
C53	C	0.905524	-0.937705	-0.302197
C54	C	1.068858	-0.301603	-0.302231
C55	C	1.138499	-0.301589	-0.302262
C56	C	0.905487	-0.301623	-0.465581
C57	C	0.905509	-0.301618	-0.535222
C58	C	0.905535	-0.138213	-0.302206
C59	C	0.905578	-0.068571	-0.302227
C60	C	0.945605	-0.261535	-0.567966
C61	C	0.945604	-0.261508	-0.633402
C62	C	0.905514	-0.301575	-0.666091
C63	C	0.865410	-0.341661	-0.633339
C64	C	0.865407	-0.341682	-0.567904
C65	C	0.900538	-0.357992	-0.769752
C66	C	0.900545	-0.357972	-0.835185
C67	C	0.905518	-0.301509	-0.867911
C68	C	0.910497	-0.245065	-0.835197
C69	C	0.910495	-0.245086	-0.769763
C70	C	0.905512	-0.301556	-0.737043
C71	C	0.945615	-0.261393	-0.971608
C72	C	0.945610	-0.261365	-1.037045
C73	C	0.865419	-0.341524	-1.036980
C74	C	0.865421	-0.341547	-0.971545
C75	C	0.905522	-0.301482	-0.938863
C76	C	0.905419	-0.301603	-0.139370
C77	C	0.905518	-0.301432	-0.069729
H78	H	0.666932	-0.374509	-0.374627
H79	H	0.832774	-0.374190	-0.944885
H80	H	1.007918	-0.860558	-0.293349
Br81	Br	0.530462	-0.396262	-0.396391
Br82	Br	0.810997	-0.396034	-0.677700
Br83	Br	0.810935	-0.676676	-0.396493
Br84	Br	0.483012	-0.313511	-0.435177
H85	H	0.144569	-0.228783	-0.229699
H86	H	0.978265	-0.228767	-0.944997
Br87	Br	0.893796	-0.434573	-0.879576
Br88	Br	0.772427	-0.878583	-0.313666
Br89	Br	0.328775	-0.313472	-0.435237
H90	H	0.263280	-0.228809	-0.229652
Br91	Br	0.917252	-0.168432	-0.879604
H92	H	0.263296	-0.374426	-0.374776
Br93	Br	1.038514	-0.724045	-0.290678
H94	H	0.548206	-0.228866	-0.229554
Br95	Br	0.893807	-0.434628	-0.725343
H96	H	0.978259	-0.943737	-0.229590
H97	H	0.832647	-0.540189	-0.374747
Br98	Br	0.917249	-0.168488	-0.725367
Br99	Br	1.000041	-0.206971	-1.081485
Br100	Br	0.999920	-0.676559	-0.207820
Br101	Br	1.000083	-1.080193	-0.207900
Br102	Br	0.328502	-0.289787	-0.169143
H103	H	0.978103	-0.540098	-0.229519
Br104	Br	0.126828	-0.396175	-0.396545
H105	H	0.465002	-0.292541	-0.199734
Br106	Br	0.684682	-0.207096	-0.207796
Br107	Br	0.811086	-1.080313	-0.396568
Br108	Br	0.811001	-0.395895	-1.081337
H109	H	0.803022	-0.742081	-0.311001
Br110	Br	1.000026	-0.207159	-0.523615
H111	H	0.832795	-0.943828	-0.374811
Br112	Br	1.000009	-0.207090	-0.677850
H113	H	0.832753	-0.374322	-0.541245
