data_functionalizedCrystal
_audit_creation_method	'MofGen! by Chris Wilmer'
_symmetry_space_group_name_H-M	'P1'
_symmetry_Int_Tables_number	1
_symmetry_cell_setting	triclinic
loop_
_symmetry_equiv_pos_as_xyz
  x,y,z
_cell_length_a	21.395364
_cell_length_b	21.395362
_cell_length_c	21.395355
_cell_angle_alpha	89.980094
_cell_angle_beta	89.975448
_cell_angle_gamma	90.042450
loop_
_atom_site_label
_atom_site_type_symbol
_atom_site_fract_x
_atom_site_fract_y
_atom_site_fract_z
Zn1	Zn	0.957873	-0.249261	-0.354255
Zn2	Zn	1.207873	0.000739	-0.104255
Zn3	Zn	1.457873	0.250739	0.145745
Zn4	Zn	1.707873	0.500739	0.395745
Zn5	Zn	0.957782	-0.354021	-0.249475
Zn6	Zn	1.207782	-0.104021	0.000525
Zn7	Zn	1.457782	0.145979	0.250525
Zn8	Zn	1.707782	0.395979	0.500525
Zn9	Zn	0.853088	-0.249289	-0.249492
Zn10	Zn	1.103088	0.000711	0.000508
Zn11	Zn	1.353088	0.250711	0.250508
Zn12	Zn	1.603088	0.500711	0.500508
Zn13	Zn	0.853063	-0.354032	-0.354216
Zn14	Zn	1.103063	-0.104032	-0.104216
Zn15	Zn	1.353063	0.145968	0.145784
Zn16	Zn	1.603063	0.395968	0.395784
O17	O	0.905452	-0.301651	-0.301860
O18	O	1.155452	-0.051651	-0.051860
O19	O	1.405452	0.198349	0.198140
O20	O	1.655452	0.448349	0.448140
O21	O	1.045539	-0.263142	-0.340366
O22	O	1.295539	-0.013142	-0.090366
O23	O	1.545539	0.236858	0.159634
O24	O	1.795539	0.486858	0.409634
O25	O	0.943866	-0.340135	-0.161800
O26	O	1.193866	-0.090135	0.088200
O27	O	1.443866	0.159865	0.338200
O28	O	1.693866	0.409865	0.588200
O29	O	0.867037	-0.161607	-0.263413
O30	O	1.117037	0.088393	-0.013413
O31	O	1.367037	0.338393	0.236587
O32	O	1.617037	0.588393	0.486587
O33	O	1.045472	-0.340108	-0.263384
O34	O	1.295472	-0.090108	-0.013384
O35	O	1.545472	0.159892	0.236616
O36	O	1.795472	0.409892	0.486616
O37	O	0.944022	-0.161587	-0.340382
O38	O	1.194022	0.088413	-0.090382
O39	O	1.444022	0.338413	0.159618
O40	O	1.694022	0.588413	0.409618
O41	O	0.866948	-0.263188	-0.161812
O42	O	1.116948	-0.013188	0.088188
O43	O	1.366948	0.236812	0.338188
O44	O	1.616948	0.486812	0.588188
O45	O	0.765407	-0.263199	-0.263374
O46	O	1.015407	-0.013199	-0.013374
O47	O	1.265407	0.236801	0.236626
O48	O	1.515407	0.486801	0.486626
O49	O	0.866994	-0.340127	-0.441899
O50	O	1.116994	-0.090127	-0.191899
O51	O	1.366994	0.159873	0.058101
O52	O	1.616994	0.409873	0.308101
O53	O	0.765389	-0.340154	-0.340314
O54	O	1.015389	-0.090154	-0.090314
O55	O	1.265389	0.159846	0.159686
O56	O	1.515389	0.409846	0.409686
O57	O	0.943998	-0.263152	-0.441928
O58	O	1.193998	-0.013152	-0.191928
O59	O	1.443998	0.236848	0.058072
O60	O	1.693998	0.486848	0.308072
O61	O	0.943842	-0.441700	-0.263346
O62	O	1.193842	-0.191700	-0.013346
O63	O	1.443842	0.058300	0.236654
O64	O	1.693842	0.308300	0.486654
O65	O	0.866906	-0.441709	-0.340298
O66	O	1.116906	-0.191709	-0.090298
O67	O	1.366906	0.058291	0.159702
O68	O	1.616906	0.308291	0.409702
C69	C	0.742664	-0.301681	-0.301842
C70	C	0.992664	-0.051681	-0.051842
C71	C	1.242664	0.198319	0.198158
C72	C	1.492664	0.448319	0.448158
C73	C	0.673023	-0.301709	-0.301849
C74	C	0.923023	-0.051709	-0.051849
C75	C	1.173023	0.198291	0.198151
C76	C	1.423023	0.448291	0.448151
C77	C	0.640367	-0.261698	-0.341996
C78	C	0.890367	-0.011698	-0.091996
C79	C	1.140367	0.238302	0.158004
C80	C	1.390367	0.488302	0.408004
C81	C	0.574932	-0.261682	-0.341998
C82	C	0.824932	-0.011682	-0.091998
C83	C	1.074932	0.238318	0.158002
C84	C	1.324932	0.488318	0.408002
C85	C	0.542154	-0.301687	-0.301861
C86	C	0.792154	-0.051687	-0.051861
C87	C	1.042154	0.198313	0.198139
C88	C	1.292154	0.448313	0.448139
C89	C	0.574818	-0.341701	-0.261707
C90	C	0.824818	-0.091701	-0.011707
C91	C	1.074818	0.158299	0.238293
C92	C	1.324818	0.408299	0.488293
C93	C	0.640252	-0.341712	-0.261701
C94	C	0.890252	-0.091712	-0.011701
C95	C	1.140252	0.158288	0.238299
C96	C	1.390252	0.408288	0.488299
C97	C	0.438433	-0.358112	-0.296822
C98	C	0.688433	-0.108112	-0.046822
C99	C	0.938433	0.141888	0.203178
C100	C	1.188433	0.391888	0.453178
C101	C	0.373000	-0.358102	-0.296832
C102	C	0.623000	-0.108102	-0.046832
C103	C	0.873000	0.141898	0.203168
C104	C	1.123000	0.391898	0.453168
C105	C	0.340334	-0.301653	-0.301875
C106	C	0.590334	-0.051653	-0.051875
C107	C	0.840334	0.198347	0.198125
C108	C	1.090334	0.448347	0.448125
C109	C	0.373108	-0.245212	-0.306921
C110	C	0.623108	0.004788	-0.056921
C111	C	0.873108	0.254788	0.193079
C112	C	1.123108	0.504788	0.443079
C113	C	0.438542	-0.245223	-0.306915
C114	C	0.688542	0.004777	-0.056915
C115	C	0.938542	0.254777	0.193085
C116	C	1.188542	0.504777	0.443085
C117	C	0.471202	-0.301679	-0.301862
C118	C	0.721202	-0.051679	-0.051862
C119	C	0.971202	0.198321	0.198138
C120	C	1.221202	0.448321	0.448138
C121	C	0.236725	-0.261620	-0.342026
C122	C	0.486725	-0.011620	-0.092026
C123	C	0.736725	0.238380	0.157974
C124	C	0.986725	0.488380	0.407974
C125	C	0.171289	-0.261603	-0.342024
C126	C	0.421289	-0.011603	-0.092024
C127	C	0.671289	0.238397	0.157976
C128	C	0.921289	0.488397	0.407976
C129	C	0.171176	-0.341627	-0.261736
C130	C	0.421176	-0.091627	-0.011736
C131	C	0.671176	0.158373	0.238264
C132	C	0.921176	0.408373	0.488264
C133	C	0.236612	-0.341639	-0.261735
C134	C	0.486612	-0.091639	-0.011735
C135	C	0.736612	0.158361	0.238265
C136	C	0.986612	0.408361	0.488265
C137	C	0.269382	-0.301637	-0.301883
C138	C	0.519382	-0.051637	-0.051883
C139	C	0.769382	0.198363	0.198117
C140	C	1.019382	0.448363	0.448117
C141	C	0.905378	-0.464438	-0.301829
C142	C	1.155378	-0.214438	-0.051829
C143	C	1.405378	0.035562	0.198171
C144	C	1.655378	0.285562	0.448171
C145	C	0.905404	-0.534080	-0.301837
C146	C	1.155404	-0.284080	-0.051837
C147	C	1.405404	-0.034080	0.198163
C148	C	1.655404	0.215920	0.448163
C149	C	0.945663	-1.035851	-0.261892
C150	C	1.195663	-0.785851	-0.011892
C151	C	1.445663	-0.535851	0.238108
C152	C	1.695663	-0.285851	0.488108
C153	C	0.945639	-0.970415	-0.261878
C154	C	1.195639	-0.720415	-0.011878
C155	C	1.445639	-0.470415	0.238122
C156	C	1.695639	-0.220415	0.488122
C157	C	0.905540	-0.937718	-0.301904
C158	C	1.155540	-0.687718	-0.051904
C159	C	1.405540	-0.437718	0.198096
C160	C	1.655540	-0.187718	0.448096
C161	C	0.865451	-0.970461	-0.341937
C162	C	1.115451	-0.720461	-0.091937
C163	C	1.365451	-0.470461	0.158063
C164	C	1.615451	-0.220461	0.408063
C165	C	0.865471	-1.035895	-0.341947
C166	C	1.115471	-0.785895	-0.091947
C167	C	1.365471	-0.535895	0.158053
C168	C	1.615471	-0.285895	0.408053
C169	C	0.900532	-0.834028	-0.358335
C170	C	1.150532	-0.584028	-0.108335
C171	C	1.400532	-0.334028	0.141665
C172	C	1.650532	-0.084028	0.391665
C173	C	0.900516	-0.768595	-0.358327
C174	C	1.150516	-0.518595	-0.108327
C175	C	1.400516	-0.268595	0.141673
C176	C	1.650516	-0.018595	0.391673
C177	C	0.905474	-0.735897	-0.301876
C178	C	1.155474	-0.485897	-0.051876
C179	C	1.405474	-0.235897	0.198124
C180	C	1.655474	0.014103	0.448124
C181	C	0.910460	-0.768640	-0.245432
C182	C	1.160460	-0.518640	0.004568
C183	C	1.410460	-0.268640	0.254568
C184	C	1.660460	-0.018640	0.504568
C185	C	0.910481	-0.834074	-0.245441
C186	C	1.160481	-0.584074	0.004559
C187	C	1.410481	-0.334074	0.254559
C188	C	1.660481	-0.084074	0.504559
C189	C	0.905513	-0.866765	-0.301899
C190	C	1.155513	-0.616765	-0.051899
C191	C	1.405513	-0.366765	0.198101
C192	C	1.655513	-0.116765	0.448101
C193	C	0.945532	-0.632209	-0.261827
C194	C	1.195532	-0.382209	-0.011827
C195	C	1.445532	-0.132209	0.238173
C196	C	1.695532	0.117791	0.488173
C197	C	0.945504	-0.566772	-0.261811
C198	C	1.195504	-0.316772	-0.011811
C199	C	1.445504	-0.066772	0.238189
C200	C	1.695504	0.183228	0.488189
C201	C	0.865319	-0.566820	-0.341876
C202	C	1.115319	-0.316820	-0.091876
C203	C	1.365319	-0.066820	0.158124
C204	C	1.615319	0.183180	0.408124
C205	C	0.865343	-0.632255	-0.341886
C206	C	1.115343	-0.382255	-0.091886
C207	C	1.365343	-0.132255	0.158114
C208	C	1.615343	0.117745	0.408114
C209	C	0.905453	-0.664946	-0.301862
C210	C	1.155453	-0.414946	-0.051862
C211	C	1.405453	-0.164946	0.198138
C212	C	1.655453	0.085054	0.448138
C213	C	1.068875	-0.301621	-0.301878
C214	C	1.318875	-0.051621	-0.051878
C215	C	1.568875	0.198379	0.198122
C216	C	1.818875	0.448379	0.448122
C217	C	1.138516	-0.301608	-0.301885
C218	C	1.388516	-0.051608	-0.051885
C219	C	1.638516	0.198392	0.198115
C220	C	1.888516	0.448392	0.448115
C221	C	0.905504	-0.301638	-0.465283
C222	C	1.155504	-0.051638	-0.215283
C223	C	1.405504	0.198362	0.034717
C224	C	1.655504	0.448362	0.284717
C225	C	0.905526	-0.301633	-0.534924
C226	C	1.155526	-0.051633	-0.284924
C227	C	1.405526	0.198367	-0.034924
C228	C	1.655526	0.448367	0.215076
C229	C	0.905542	-0.138227	-0.301904
C230	C	1.155542	0.111773	-0.051904
C231	C	1.405542	0.361773	0.198096
C232	C	1.655542	0.611773	0.448096
C233	C	0.905581	-0.068586	-0.301923
C234	C	1.155581	0.181414	-0.051923
C235	C	1.405581	0.431414	0.198077
C236	C	1.655581	0.681414	0.448077
C237	C	0.945620	-0.261550	-0.567654
C238	C	1.195620	-0.011550	-0.317654
C239	C	1.445620	0.238450	-0.067654
C240	C	1.695620	0.488450	0.182346
C241	C	0.945619	-0.261523	-0.633089
C242	C	1.195619	-0.011523	-0.383089
C243	C	1.445619	0.238477	-0.133089
C244	C	1.695619	0.488477	0.116911
C245	C	0.905531	-0.301590	-0.665793
C246	C	1.155531	-0.051590	-0.415793
C247	C	1.405531	0.198410	-0.165793
C248	C	1.655531	0.448410	0.084207
C249	C	0.865429	-0.341675	-0.633055
C250	C	1.115429	-0.091675	-0.383055
C251	C	1.365429	0.158325	-0.133055
C252	C	1.615429	0.408325	0.116945
C253	C	0.865426	-0.341697	-0.567621
C254	C	1.115426	-0.091697	-0.317621
C255	C	1.365426	0.158303	-0.067621
C256	C	1.615426	0.408303	0.182379
C257	C	0.900558	-0.358007	-0.769457
C258	C	1.150558	-0.108007	-0.519457
C259	C	1.400558	0.141993	-0.269457
C260	C	1.650558	0.391993	-0.019457
C261	C	0.900565	-0.357986	-0.834890
C262	C	1.150565	-0.107986	-0.584890
C263	C	1.400565	0.142014	-0.334890
C264	C	1.650565	0.392014	-0.084890
C265	C	0.905534	-0.301524	-0.867614
C266	C	1.155534	-0.051524	-0.617614
C267	C	1.405534	0.198476	-0.367614
C268	C	1.655534	0.448476	-0.117614
C269	C	0.910511	-0.245080	-0.834896
C270	C	1.160511	0.004920	-0.584896
C271	C	1.410511	0.254920	-0.334896
C272	C	1.660511	0.504920	-0.084896
C273	C	0.910508	-0.245101	-0.769462
C274	C	1.160508	0.004899	-0.519462
C275	C	1.410508	0.254899	-0.269462
C276	C	1.660508	0.504899	-0.019462
C277	C	0.905528	-0.301571	-0.736745
C278	C	1.155528	-0.051571	-0.486745
C279	C	1.405528	0.198429	-0.236745
C280	C	1.655528	0.448429	0.013255
C281	C	0.945630	-0.261409	-0.971295
C282	C	1.195630	-0.011409	-0.721295
C283	C	1.445630	0.238591	-0.471295
C284	C	1.695630	0.488591	-0.221295
C285	C	0.945624	-0.261381	-1.036732
C286	C	1.195624	-0.011381	-0.786732
C287	C	1.445624	0.238619	-0.536732
C288	C	1.695624	0.488619	-0.286732
C289	C	0.865438	-0.341538	-1.036697
C290	C	1.115438	-0.091538	-0.786697
C291	C	1.365438	0.158462	-0.536697
C292	C	1.615438	0.408462	-0.286697
C293	C	0.865440	-0.341561	-0.971262
C294	C	1.115440	-0.091561	-0.721262
C295	C	1.365440	0.158439	-0.471262
C296	C	1.615440	0.408439	-0.221262
C297	C	0.905539	-0.301497	-0.938565
C298	C	1.155539	-0.051497	-0.688565
C299	C	1.405539	0.198503	-0.438565
C300	C	1.655539	0.448503	-0.188565
C301	C	0.905436	-0.301618	-0.139072
C302	C	1.155436	-0.051618	0.110928
C303	C	1.405436	0.198382	0.360928
C304	C	1.655436	0.448382	0.610928
C305	C	0.905535	-0.301447	-0.069431
C306	C	1.155535	-0.051447	0.180569
C307	C	1.405535	0.198553	0.430569
C308	C	1.655535	0.448553	0.680569
H309	H	0.263409	-0.229044	-0.374713
H310	H	0.513409	0.020956	-0.124713
H311	H	0.763409	0.270956	0.125287
H312	H	1.013409	0.520956	0.375287
H313	H	0.832774	-0.374336	-0.540973
H314	H	1.082774	-0.124336	-0.290973
H315	H	1.332774	0.125664	-0.040973
H316	H	1.582774	0.375664	0.209027
O317	O	0.135830	-0.384771	-0.218440
O318	O	0.385830	-0.134771	0.031560
O319	O	0.635830	0.115229	0.281560
O320	O	0.885830	0.365229	0.531560
H321	H	0.169534	-0.412594	-0.190519
H322	H	0.419534	-0.162594	0.059481
H323	H	0.669534	0.087406	0.309481
H324	H	0.919534	0.337406	0.559481
H325	H	0.832801	-0.943836	-0.374527
H326	H	1.082801	-0.693836	-0.124527
H327	H	1.332801	-0.443836	0.125473
H328	H	1.582801	-0.193836	0.375473
H329	H	0.978191	-0.658827	-0.229236
H330	H	1.228191	-0.408827	0.020764
H331	H	1.478191	-0.158827	0.270764
H332	H	1.728191	0.091173	0.520764
O333	O	0.271840	-0.384797	-0.218436
O334	O	0.521840	-0.134797	0.031564
O335	O	0.771840	0.115203	0.281564
O336	O	1.021840	0.365203	0.531564
H337	H	0.238057	-0.412615	-0.190528
H338	H	0.488057	-0.162615	0.059472
H339	H	0.738057	0.087385	0.309472
H340	H	0.988057	0.337385	0.559472
O341	O	0.337651	-0.418972	-0.291378
O342	O	0.587651	-0.168972	-0.041378
O343	O	0.837651	0.081028	0.208622
O344	O	1.087651	0.331028	0.458622
H345	H	0.371358	-0.458225	-0.287853
H346	H	0.621358	-0.208225	-0.037853
H347	H	0.871358	0.041775	0.212147
H348	H	1.121358	0.291775	0.462147
O349	O	0.675476	-0.384872	-0.218400
O350	O	0.925476	-0.134872	0.031600
O351	O	1.175476	0.115128	0.281600
O352	O	1.425476	0.365128	0.531600
H353	H	0.705294	-0.356785	-0.186571
H354	H	0.955294	-0.106785	0.063429
H355	H	1.205294	0.143215	0.313429
H356	H	1.455294	0.393215	0.563429
H357	H	0.896517	-0.403946	-0.861523
H358	H	1.146517	-0.153946	-0.611523
H359	H	1.396517	0.096054	-0.361523
H360	H	1.646517	0.346054	-0.111523
H361	H	0.914558	-0.199142	-0.742826
H362	H	1.164558	0.050858	-0.492826
H363	H	1.414558	0.300858	-0.242826
H364	H	1.664558	0.550858	0.007174
O365	O	0.988866	-0.218335	-0.532391
O366	O	1.238866	0.031665	-0.282391
O367	O	1.488866	0.281665	-0.032391
O368	O	1.738866	0.531665	0.217609
H369	H	0.982134	-0.225085	-0.481391
H370	H	1.232134	0.024915	-0.231391
H371	H	1.482134	0.274915	0.018609
H372	H	1.732134	0.524915	0.268609
H373	H	0.896343	-0.403973	-0.742819
H374	H	1.146343	-0.153973	-0.492819
H375	H	1.396343	0.096027	-0.242819
H376	H	1.646343	0.346027	0.007181
O377	O	0.136067	-0.218441	-0.385325
O378	O	0.386067	0.031559	-0.135325
O379	O	0.636067	0.281559	0.114675
O380	O	0.886067	0.531559	0.364675
H381	H	0.085061	-0.225146	-0.378579
H382	H	0.335061	0.024854	-0.128579
H383	H	0.585061	0.274854	0.121421
H384	H	0.835061	0.524854	0.371421
O385	O	0.822179	-0.384776	-0.935954
O386	O	1.072179	-0.134776	-0.685954
O387	O	1.322179	0.115224	-0.435954
O388	O	1.572179	0.365224	-0.185954
H389	H	0.794297	-0.412628	-0.969686
H390	H	1.044297	-0.162628	-0.719686
H391	H	1.294297	0.087372	-0.469686
H392	H	1.544297	0.337372	-0.219686
H393	H	0.978141	-0.540119	-0.229210
H394	H	1.228141	-0.290119	0.020790
H395	H	1.478141	-0.040119	0.270790
H396	H	1.728141	0.209881	0.520790
H397	H	0.548338	-0.229097	-0.374689
H398	H	0.798338	0.020903	-0.124689
H399	H	1.048338	0.270903	0.125311
H400	H	1.298338	0.520903	0.375311
H401	H	0.914559	-0.199103	-0.861538
H402	H	1.164559	0.050897	-0.611538
H403	H	1.414559	0.300897	-0.361538
H404	H	1.664559	0.550897	-0.111538
H405	H	0.832706	-0.658909	-0.374485
H406	H	1.082706	-0.408909	-0.124485
H407	H	1.332706	-0.158909	0.125515
H408	H	1.582706	0.091091	0.375515
H409	H	0.667045	-0.229125	-0.374687
H410	H	0.917045	0.020875	-0.124687
H411	H	1.167045	0.270875	0.125313
H412	H	1.417045	0.520875	0.375313
O413	O	0.988891	-0.935100	-0.218716
O414	O	1.238891	-0.685100	0.031284
O415	O	1.488891	-0.435100	0.281284
O416	O	1.738891	-0.185100	0.531284
H417	H	0.982140	-0.884108	-0.225438
H418	H	1.232140	-0.634108	0.024562
H419	H	1.482140	-0.384108	0.274562
H420	H	1.732140	-0.134108	0.524562
H421	H	0.896609	-0.860646	-0.404317
H422	H	1.146609	-0.610646	-0.154317
H423	H	1.396609	-0.360646	0.095683
H424	H	1.646609	-0.110646	0.345683
O425	O	0.822243	-1.071210	-0.385128
O426	O	1.072243	-0.821210	-0.135128
O427	O	1.322243	-0.571210	0.114872
O428	O	1.572243	-0.321210	0.364872
H429	H	0.794356	-1.037483	-0.412962
H430	H	1.044356	-0.787483	-0.162962
H431	H	1.294356	-0.537483	0.087038
H432	H	1.544356	-0.287483	0.337038
H433	H	0.978277	-0.228783	-0.944672
H434	H	1.228277	0.021217	-0.694672
H435	H	1.478277	0.271217	-0.444672
H436	H	1.728277	0.521217	-0.194672
O437	O	0.915849	-0.869392	-0.184567
O438	O	1.165849	-0.619392	0.065433
O439	O	1.415849	-0.369392	0.315433
O440	O	1.665849	-0.119392	0.565433
H441	H	0.919288	-0.835667	-0.145308
H442	H	1.169288	-0.585667	0.104692
H443	H	1.419288	-0.335667	0.354692
H444	H	1.669288	-0.085667	0.604692
O445	O	0.988870	-0.218296	-0.668403
O446	O	1.238870	0.031704	-0.418403
O447	O	1.488870	0.281704	-0.168403
O448	O	1.738870	0.531704	0.081597
H449	H	1.016755	-0.190444	-0.634673
H450	H	1.266755	0.059556	-0.384673
H451	H	1.516755	0.309556	-0.134673
H452	H	1.766755	0.559556	0.115327
O453	O	0.473895	-0.184353	-0.312341
O454	O	0.723895	0.065647	-0.062341
O455	O	0.973895	0.315647	0.187659
O456	O	1.223895	0.565647	0.437659
H457	H	0.440192	-0.145094	-0.315841
H458	H	0.690192	0.104906	-0.065841
H459	H	0.940192	0.354906	0.184159
H460	H	1.190192	0.604906	0.434159
H461	H	0.978273	-0.228737	-1.063379
H462	H	1.228273	0.021263	-0.813379
H463	H	1.478273	0.271263	-0.563379
H464	H	1.728273	0.521263	-0.313379
H465	H	0.832791	-0.374155	-1.063324
H466	H	1.082791	-0.124155	-0.813324
H467	H	1.332791	0.125845	-0.563324
H468	H	1.582791	0.375845	-0.313324
O469	O	0.822188	-0.384890	-0.668323
O470	O	1.072188	-0.134890	-0.418323
O471	O	1.322188	0.115110	-0.168323
O472	O	1.572188	0.365110	0.081677
H473	H	0.828928	-0.378145	-0.719322
H474	H	1.078928	-0.128145	-0.469322
H475	H	1.328928	0.121855	-0.219322
H476	H	1.578928	0.371855	0.030678
O477	O	0.473665	-0.419000	-0.291387
O478	O	0.723665	-0.169000	-0.041387
O479	O	0.973665	0.081000	0.208613
O480	O	1.223665	0.331000	0.458613
H481	H	0.439884	-0.458244	-0.287891
H482	H	0.689884	-0.208244	-0.037891
H483	H	0.939884	0.041756	0.212109
H484	H	1.189884	0.291756	0.462109
H485	H	0.548127	-0.374273	-0.229026
H486	H	0.798127	-0.124273	0.020974
H487	H	1.048127	0.125727	0.270974
H488	H	1.298127	0.375727	0.520974
O489	O	0.337885	-0.184321	-0.312353
O490	O	0.587885	0.065679	-0.062353
O491	O	0.837885	0.315679	0.187647
O492	O	1.087885	0.565679	0.437647
H493	H	0.308086	-0.185370	-0.354793
H494	H	0.558086	0.064630	-0.104793
H495	H	0.808086	0.314630	0.145207
H496	H	1.058086	0.564630	0.395207
O497	O	0.988915	-1.071111	-0.218719
O498	O	1.238915	-0.821111	0.031281
O499	O	1.488915	-0.571111	0.281281
O500	O	1.738915	-0.321111	0.531281
H501	H	1.016778	-1.037351	-0.190876
H502	H	1.266778	-0.787351	0.059124
H503	H	1.516778	-0.537351	0.309124
H504	H	1.766778	-0.287351	0.559124
O505	O	0.915802	-0.733384	-0.184538
O506	O	1.165802	-0.483384	0.065462
O507	O	1.415802	-0.233384	0.315462
O508	O	1.665802	0.016616	0.565462
H509	H	0.914941	-0.682383	-0.194010
H510	H	1.164941	-0.432383	0.055990
H511	H	1.414941	-0.182383	0.305990
H512	H	1.664941	0.067617	0.555990
O513	O	0.822068	-0.531564	-0.385051
O514	O	1.072068	-0.281564	-0.135051
O515	O	1.322068	-0.031564	0.114949
O516	O	1.572068	0.218436	0.364949
H517	H	0.828789	-0.480563	-0.378323
H518	H	1.078789	-0.230563	-0.128323
H519	H	1.328789	0.019437	0.121677
H520	H	1.578789	0.269437	0.371677
H521	H	0.896460	-0.741939	-0.404286
H522	H	1.146460	-0.491939	-0.154286
H523	H	1.396460	-0.241939	0.095714
H524	H	1.646460	0.008061	0.345714
