data_functionalizedCrystal
_audit_creation_method	'MofGen! by Chris Wilmer'
_symmetry_space_group_name_H-M	'P1'
_symmetry_Int_Tables_number	1
_symmetry_cell_setting	triclinic
loop_
_symmetry_equiv_pos_as_xyz
  x,y,z
_cell_length_a	12.759401
_cell_length_b	12.759400
_cell_length_c	12.759393
_cell_angle_alpha	90.029805
_cell_angle_beta	90.020938
_cell_angle_gamma	90.016169
loop_
_atom_site_label
_atom_site_type_symbol
_atom_site_fract_x
_atom_site_fract_y
_atom_site_fract_z
Zn1	Zn	1.606267	-0.418173	0.594025
Zn2	Zn	1.939600	-0.084839	0.927359
Zn3	Zn	2.272933	0.248494	1.260692
Zn4	Zn	1.606158	-0.593888	0.418347
Zn5	Zn	1.939491	-0.260555	0.751681
Zn6	Zn	2.272825	0.072778	1.085014
Zn7	Zn	1.430565	-0.418229	0.418360
Zn8	Zn	1.763899	-0.084895	0.751694
Zn9	Zn	2.097232	0.248438	1.085027
Zn10	Zn	1.430558	-0.593815	0.593985
Zn11	Zn	1.763891	-0.260482	0.927318
Zn12	Zn	2.097224	0.072852	1.260651
O13	O	1.518387	-0.506026	0.506179
O14	O	1.851720	-0.172693	0.839513
O15	O	2.185054	0.160641	1.172846
O16	O	1.753273	-0.441489	0.570733
O17	O	2.086607	-0.108156	0.904066
O18	O	2.419940	0.225178	1.237399
O19	O	1.582823	-0.570641	0.271328
O20	O	1.916156	-0.237307	0.604661
O21	O	2.249490	0.096026	0.937995
O22	O	1.453921	-0.271200	0.441685
O23	O	1.787255	0.062133	0.775018
O24	O	2.120588	0.395467	1.108352
O25	O	1.753193	-0.570587	0.441663
O26	O	2.086527	-0.237253	0.774996
O27	O	2.419860	0.096080	1.108330
O28	O	1.583008	-0.271159	0.570745
O29	O	1.916342	0.062174	0.904079
O30	O	2.249675	0.395508	1.237412
O31	O	1.453816	-0.441584	0.271337
O32	O	1.787149	-0.108251	0.604671
O33	O	2.120483	0.225082	0.938004
O34	O	1.283543	-0.441513	0.441646
O35	O	1.616877	-0.108180	0.774979
O36	O	1.950210	0.225153	1.108312
O37	O	1.453908	-0.570461	0.741011
O38	O	1.787241	-0.237128	1.074344
O39	O	2.120575	0.096205	1.407678
O40	O	1.283538	-0.570516	0.570676
O41	O	1.616871	-0.237182	0.904009
O42	O	1.950204	0.096151	1.237343
O43	O	1.583001	-0.441418	0.741041
O44	O	1.916334	-0.108085	1.074374
O45	O	2.249667	0.225249	1.407708
O46	O	1.582815	-0.740900	0.441624
O47	O	1.916149	-0.407566	0.774957
O48	O	2.249482	-0.074233	1.108290
O49	O	1.453803	-0.740846	0.570664
O50	O	1.787136	-0.407512	0.903997
O51	O	2.120469	-0.074179	1.237330
C52	C	1.245420	-0.506013	0.506159
C53	C	1.578753	-0.172680	0.839492
C54	C	1.912086	0.160653	1.172825
C55	C	1.128643	-0.506033	0.506175
C56	C	1.461976	-0.172700	0.839508
C57	C	1.795310	0.160634	1.172841
C58	C	1.518325	-0.778994	0.506161
C59	C	1.851658	-0.445660	0.839494
C60	C	2.184991	-0.112327	1.172827
C61	C	1.518394	-0.895770	0.506188
C62	C	1.851728	-0.562437	0.839521
C63	C	2.185061	-0.229103	1.172855
C64	C	1.073805	-0.573307	0.573255
C65	C	1.407139	-0.239974	0.906588
C66	C	1.740472	0.093360	1.239922
C67	C	0.964081	-0.573311	0.573276
C68	C	1.297415	-0.239978	0.906609
C69	C	1.630748	0.093356	1.239942
C70	C	0.964042	-0.438764	0.439127
C71	C	1.297375	-0.105431	0.772460
C72	C	1.630709	0.227902	1.105793
C73	C	1.073764	-0.438756	0.439112
C74	C	1.407097	-0.105423	0.772445
C75	C	1.740431	0.227911	1.105779
C76	C	1.585581	-0.950521	0.573447
C77	C	1.918914	-0.617187	0.906780
C78	C	2.252247	-0.283854	1.240113
C79	C	1.585640	-1.060245	0.573475
C80	C	1.918973	-0.726911	0.906809
C81	C	2.252306	-0.393578	1.240142
C82	C	1.451323	-1.060458	0.438977
C83	C	1.784656	-0.727124	0.772310
C84	C	2.117990	-0.393791	1.105644
C85	C	1.451260	-0.950736	0.438955
C86	C	1.784593	-0.617402	0.772288
C87	C	2.117926	-0.284069	1.105621
C88	C	1.792420	-0.506040	0.506201
C89	C	2.125754	-0.172706	0.839534
C90	C	2.459087	0.160627	1.172868
C91	C	1.909197	-0.506046	0.506210
C92	C	2.242530	-0.172712	0.839543
C93	C	2.575864	0.160621	1.172877
C94	C	1.518466	-0.505925	0.780213
C95	C	1.851799	-0.172592	1.113546
C96	C	2.185132	0.160741	1.446880
C97	C	1.518499	-0.505882	0.896990
C98	C	1.851832	-0.172549	1.230323
C99	C	2.185166	0.160784	1.563656
C100	C	1.518478	-0.231993	0.506221
C101	C	1.851811	0.101341	0.839554
C102	C	2.185145	0.434674	1.172888
C103	C	1.518517	-0.115216	0.506239
C104	C	1.851850	0.218117	0.839572
C105	C	2.185183	0.551451	1.172906
C106	C	1.518369	-0.506051	0.233212
C107	C	1.851702	-0.172717	0.566545
C108	C	2.185036	0.160616	0.899879
C109	C	1.518539	-0.505798	0.116436
C110	C	1.851872	-0.172464	0.449769
C111	C	2.185206	0.160869	0.783103
C112	C	1.585723	-0.438679	0.951869
C113	C	1.919056	-0.105345	1.285202
C114	C	2.252389	0.227988	1.618535
C115	C	1.585740	-0.438633	1.061593
C116	C	1.919074	-0.105300	1.394926
C117	C	2.252407	0.228033	1.728260
C118	C	1.451308	-0.573004	1.061549
C119	C	1.784641	-0.239671	1.394882
C120	C	2.117975	0.093662	1.728216
C121	C	1.451286	-0.573044	0.951827
C122	C	1.784619	-0.239710	1.285160
C123	C	2.117952	0.093623	1.618494
H124	H	1.118485	-0.628086	0.627864
H125	H	1.451818	-0.294752	0.961198
H126	H	1.785151	0.038581	1.294531
H127	H	1.396537	-0.627768	0.907143
H128	H	1.729870	-0.294435	1.240476
H129	H	2.063203	0.038898	1.573810
H130	H	0.919438	-0.628090	0.627901
H131	H	1.252771	-0.294757	0.961234
H132	H	1.586104	0.038576	1.294568
O133	O	0.904831	-0.366227	0.366790
O134	O	1.238164	-0.032894	0.700124
O135	O	1.571497	0.300440	1.033457
H136	H	0.925893	-0.283783	0.384945
H137	H	1.259227	0.049550	0.718278
H138	H	1.592560	0.382883	1.051611
H139	H	1.640347	-1.104818	0.628246
H140	H	1.973680	-0.771485	0.961580
H141	H	2.307014	-0.438151	1.294913
H142	H	1.118414	-0.383967	0.384487
H143	H	1.451747	-0.050634	0.717820
H144	H	1.785081	0.282700	1.051154
O145	O	1.378933	-1.119756	0.366456
O146	O	1.712267	-0.786422	0.699790
O147	O	2.045600	-0.453089	1.033123
H148	H	1.296451	-1.098770	0.384400
H149	H	1.629785	-0.765437	0.717733
H150	H	1.963118	-0.432104	1.051067
O151	O	1.657987	-0.891231	0.645957
O152	O	1.991321	-0.557898	0.979290
O153	O	2.324654	-0.224564	1.312624
H154	H	1.704712	-0.947741	0.692734
H155	H	2.038045	-0.614408	1.026068
H156	H	2.371378	-0.281075	1.359401
O157	O	1.378801	-0.891671	0.366399
O158	O	1.712134	-0.558337	0.699732
O159	O	2.045468	-0.225004	1.033065
H160	H	1.332143	-0.948323	0.319637
H161	H	1.665476	-0.614990	0.652970
H162	H	1.998809	-0.281656	0.986303
H163	H	1.640449	-0.383989	0.907223
H164	H	1.973783	-0.050655	1.240557
H165	H	2.307116	0.282678	1.573890
O166	O	1.658251	-0.366156	1.120788
O167	O	1.991585	-0.032823	1.454122
O168	O	2.324918	0.300511	1.787455
H169	H	1.704987	-0.319471	1.064219
H170	H	2.038321	0.013863	1.397552
H171	H	2.371654	0.347196	1.730886
H172	H	1.396588	-0.627687	1.106211
H173	H	1.729921	-0.294354	1.439544
H174	H	2.063254	0.038980	1.772878
