data_functionalizedCrystal
_audit_creation_method	'MofGen! by Chris Wilmer'
_symmetry_space_group_name_H-M	'P1'
_symmetry_Int_Tables_number	1
_symmetry_cell_setting	triclinic
loop_
_symmetry_equiv_pos_as_xyz
  x,y,z
_cell_length_a	12.759401
_cell_length_b	17.077402
_cell_length_c	12.759393
_cell_angle_alpha	89.965312
_cell_angle_beta	89.979062
_cell_angle_gamma	90.024408
loop_
_atom_site_label
_atom_site_type_symbol
_atom_site_fract_x
_atom_site_fract_y
_atom_site_fract_z
Zn1	Zn	1.606207	-0.312438	-0.593990
Zn2	Zn	1.606073	-0.443724	-0.418297
Zn3	Zn	1.430505	-0.312480	-0.418325
Zn4	Zn	1.430472	-0.443669	-0.593934
O5	O	1.518314	-0.378078	-0.506136
O6	O	1.753210	-0.329859	-0.570695
O7	O	1.582741	-0.426355	-0.271279
O8	O	1.453882	-0.202628	-0.441662
O9	O	1.753111	-0.426314	-0.441614
O10	O	1.582969	-0.202597	-0.570722
O11	O	1.453753	-0.329930	-0.271300
O12	O	1.283480	-0.329877	-0.441608
O13	O	1.453826	-0.426221	-0.740962
O14	O	1.283456	-0.426261	-0.570627
O15	O	1.582937	-0.329806	-0.741003
O16	O	1.582709	-0.553564	-0.441560
O17	O	1.453696	-0.553524	-0.570600
C18	C	1.245347	-0.378068	-0.506115
C19	C	1.128570	-0.378083	-0.506131
C20	C	1.518213	-0.582026	-0.506094
C21	C	1.518266	-0.669276	-0.506111
C22	C	1.073723	-0.428347	-0.573206
C23	C	0.963999	-0.428350	-0.573227
C24	C	0.963979	-0.327823	-0.439089
C25	C	1.073701	-0.327817	-0.439075
C26	C	1.585511	-0.710261	-0.438993
C27	C	1.585563	-0.792241	-0.439019
C28	C	1.518362	-0.833235	-0.506161
C29	C	1.451114	-0.792244	-0.573287
C30	C	1.451068	-0.710265	-0.573265
C31	C	1.451211	-0.963114	-0.573327
C32	C	1.451255	-1.045099	-0.573348
C33	C	1.585705	-1.045090	-0.439082
C34	C	1.585660	-0.963111	-0.439059
C35	C	1.518410	-0.922126	-0.506184
C36	C	1.792347	-0.378088	-0.506158
C37	C	1.909124	-0.378093	-0.506167
C38	C	1.518393	-0.378003	-0.780170
C39	C	1.518426	-0.377971	-0.896946
C40	C	1.518445	-0.173334	-0.506201
C41	C	1.518500	-0.086084	-0.506229
C42	C	1.585660	-0.327759	-0.951831
C43	C	1.585677	-0.327725	-1.061555
C44	C	1.451226	-0.428121	-1.061500
C45	C	1.451203	-0.428150	-0.951778
C46	C	1.518296	-0.378096	-0.233169
C47	C	1.518466	-0.377907	-0.116393
H48	H	1.118394	-0.469275	-0.627811
C49	C	1.377241	-0.918032	-0.647167
H50	H	1.337219	-0.954186	-0.687151
H51	H	1.417391	-0.886000	-0.692970
H52	H	1.331463	-0.886105	-0.606924
C53	C	1.377338	-1.090195	-0.647199
H54	H	1.386990	-1.144888	-0.637586
H55	H	1.392670	-1.076714	-0.717802
H56	H	1.306744	-1.076812	-0.631753
H57	H	1.396447	-0.469038	-0.907090
C58	C	1.659424	-0.665171	-0.365131
H59	H	1.649759	-0.610477	-0.374719
H60	H	1.730015	-0.678550	-0.380566
H61	H	1.644079	-0.678662	-0.294529
H62	H	1.396497	-0.468977	-1.106157
C63	C	0.903671	-0.483638	-0.647011
H64	H	0.952068	-0.513574	-0.686939
H65	H	0.860910	-0.453653	-0.692868
H66	H	0.860830	-0.517810	-0.606743
C67	C	0.903620	-0.272544	-0.365322
H68	H	0.830417	-0.279752	-0.374927
H69	H	0.921630	-0.219813	-0.380817
H70	H	0.921565	-0.283976	-0.294699
C71	C	1.377100	-0.665182	-0.647097
H72	H	1.337079	-0.701336	-0.687082
H73	H	1.417252	-0.633151	-0.692899
H74	H	1.331321	-0.633254	-0.606857
H75	H	1.640424	-0.286837	-1.106238
H76	H	1.640320	-0.825608	-0.384364
C77	C	1.134042	-0.272524	-0.365293
H78	H	1.207246	-0.279714	-0.374898
H79	H	1.116025	-0.283945	-0.294674
H80	H	1.116092	-0.219795	-0.380809
C81	C	1.659579	-0.918019	-0.365207
H82	H	1.699645	-0.954168	-0.325240
H83	H	1.619396	-0.886090	-0.319388
H84	H	1.705318	-0.885988	-0.405440
H85	H	1.640466	-1.078464	-0.384429
H86	H	1.396402	-0.825628	-0.627959
H87	H	1.640394	-0.286897	-0.907191
