data_functionalizedCrystal
_audit_creation_method	'MofGen! by Chris Wilmer'
_symmetry_space_group_name_H-M	'P1'
_symmetry_Int_Tables_number	1
_symmetry_cell_setting	triclinic
loop_
_symmetry_equiv_pos_as_xyz
  x,y,z
_cell_length_a	21.395361
_cell_length_b	21.395362
_cell_length_c	21.395355
_cell_angle_alpha	89.956060
_cell_angle_beta	90.021511
_cell_angle_gamma	89.953415
loop_
_atom_site_label
_atom_site_type_symbol
_atom_site_fract_x
_atom_site_fract_y
_atom_site_fract_z
Zn1	Zn	-0.249246	-0.957859	0.354573
Zn2	Zn	-0.354005	-0.957762	0.249790
Zn3	Zn	-0.249275	-0.853074	0.249774
Zn4	Zn	-0.354018	-0.853044	0.354494
O5	O	-0.301636	-0.905435	0.302158
O6	O	-0.263125	-1.045524	0.340712
O7	O	-0.340119	-0.943847	0.162110
O8	O	-0.161593	-0.867028	0.263702
O9	O	-0.340091	-1.045453	0.263729
O10	O	-0.161572	-0.944013	0.340697
O11	O	-0.263174	-0.866934	0.162098
O12	O	-0.263187	-0.765392	0.263626
O13	O	-0.340113	-0.866976	0.442183
O14	O	-0.340141	-0.765370	0.340564
O15	O	-0.263137	-0.943983	0.442240
O16	O	-0.441685	-0.943817	0.263653
O17	O	-0.441695	-0.866881	0.340579
C18	C	-0.301669	-0.742647	0.302085
C19	C	-0.301698	-0.673006	0.302069
C20	C	-0.464424	-0.905352	0.302123
C21	C	-0.534065	-0.905374	0.302129
C22	C	-0.301623	-0.905487	0.465581
C23	C	-0.301618	-0.905509	0.535222
C24	C	-0.566752	-0.945470	0.262114
C25	C	-0.632188	-0.945499	0.262128
C26	C	-0.664933	-0.905421	0.302150
C27	C	-0.632238	-0.865322	0.342172
C28	C	-0.566804	-0.865299	0.342162
C29	C	-0.768664	-0.849006	0.307041
C30	C	-0.834097	-0.849029	0.307047
C31	C	-0.866754	-0.905494	0.302187
C32	C	-0.833970	-0.961939	0.297307
C33	C	-0.768536	-0.961915	0.297296
C34	C	-0.735886	-0.905443	0.302167
C35	C	-0.970394	-0.945625	0.262186
C36	C	-1.035830	-0.945655	0.262204
C37	C	-1.035879	-0.865473	0.342245
C38	C	-0.970444	-0.865448	0.342230
C39	C	-0.937705	-0.905524	0.302197
C40	C	-0.138213	-0.905535	0.302206
C41	C	-0.068571	-0.905578	0.302227
C42	C	-0.301603	-1.068858	0.302231
C43	C	-0.301589	-1.138499	0.302262
C44	C	-0.341822	-0.640297	0.342070
C45	C	-0.341806	-0.574862	0.342098
C46	C	-0.301674	-0.542138	0.302113
C47	C	-0.261543	-0.574854	0.262109
C48	C	-0.261555	-0.640288	0.262087
C49	C	-0.296627	-0.438413	0.245708
C50	C	-0.296619	-0.372980	0.245730
C51	C	-0.301633	-0.340317	0.302182
C52	C	-0.306668	-0.373095	0.358616
C53	C	-0.306681	-0.438529	0.358594
C54	C	-0.301656	-0.471185	0.302133
C55	C	-0.341742	-0.236656	0.342218
C56	C	-0.341723	-0.171219	0.342247
C57	C	-0.261462	-0.171213	0.262252
C58	C	-0.261479	-0.236648	0.262229
C59	C	-0.301622	-0.269366	0.302211
C60	C	-0.301603	-0.905419	0.139370
C61	C	-0.301432	-0.905518	0.069729
C62	C	-0.261535	-0.945605	0.567966
C63	C	-0.261508	-0.945604	0.633402
C64	C	-0.301575	-0.905514	0.666091
C65	C	-0.341661	-0.865410	0.633339
C66	C	-0.341682	-0.865407	0.567904
C67	C	-0.357992	-0.900538	0.769752
C68	C	-0.357972	-0.900545	0.835185
C69	C	-0.301509	-0.905518	0.867911
C70	C	-0.245065	-0.910497	0.835197
C71	C	-0.245086	-0.910495	0.769763
C72	C	-0.301556	-0.905512	0.737043
C73	C	-0.261393	-0.945615	0.971608
C74	C	-0.261365	-0.945610	1.037045
C75	C	-0.341524	-0.865419	1.036980
C76	C	-0.341547	-0.865421	0.971545
C77	C	-0.301482	-0.905522	0.938863
H78	H	-0.540098	-0.978103	0.229519
Cl79	Cl	-0.673289	-0.995909	0.211820
H80	H	-0.658904	-0.832691	0.374760
Cl81	Cl	-0.392078	-0.814997	0.526738
H82	H	-0.403932	-0.896494	0.861815
H83	H	-0.199128	-0.914547	0.743130
H84	H	-0.292523	-0.346297	0.199778
H85	H	-0.741844	-1.007873	0.293325
H86	H	-0.860558	-1.007918	0.293349
H87	H	-1.062443	-0.978310	0.229621
Cl88	Cl	-0.727616	-0.778015	0.313152
H89	H	-0.374509	-0.666932	0.374627
H90	H	-0.310751	-0.346502	0.404585
Cl91	Cl	-0.929349	-0.815036	0.392534
H92	H	-0.374282	-0.832766	0.659958
Cl93	Cl	-0.525709	-0.814887	0.392469
H94	H	-0.374479	-0.548226	0.374674
H95	H	-0.228866	-0.548206	0.229554
H96	H	-0.860785	-0.803068	0.311015
Cl97	Cl	-0.313006	-0.479734	0.429535
Cl98	Cl	-0.290325	-0.479468	0.174732
H99	H	-0.374426	-0.263296	0.374776
Cl100	Cl	-0.174078	-0.916752	0.876332
H101	H	-0.228880	-0.666919	0.229513
Cl102	Cl	-1.077039	-0.815092	0.392563
H103	H	-0.228809	-0.263280	0.229652
H104	H	-0.374190	-0.832774	0.944885
H105	H	-0.374395	-0.144589	0.374824
H106	H	-0.943737	-0.978259	0.229590
H107	H	-0.228783	-0.144569	0.229699
Cl108	Cl	-0.211164	-0.996015	0.526883
H109	H	-0.228767	-0.978265	0.944997
Cl110	Cl	-0.210980	-0.996031	1.078209
H111	H	-0.228864	-0.978254	0.660067
H112	H	-0.374141	-0.832770	1.063595
H113	H	-0.403959	-0.896321	0.743111
