data_functionalizedCrystal
_audit_creation_method	'MofGen! by Chris Wilmer'
_symmetry_space_group_name_H-M	'P1'
_symmetry_Int_Tables_number	1
_symmetry_cell_setting	triclinic
loop_
_symmetry_equiv_pos_as_xyz
  x,y,z
_cell_length_a	21.395361
_cell_length_b	17.077404
_cell_length_c	17.077396
_cell_angle_alpha	89.980301
_cell_angle_beta	90.033251
_cell_angle_gamma	89.972224
loop_
_atom_site_label
_atom_site_type_symbol
_atom_site_fract_x
_atom_site_fract_y
_atom_site_fract_z
Zn1	Zn	-0.249488	-1.200012	0.443821
Zn2	Zn	0.250512	-0.700012	0.943821
Zn3	Zn	-0.354269	-1.199901	0.312544
Zn4	Zn	0.145731	-0.699901	0.812544
Zn5	Zn	-0.249504	-1.068744	0.312568
Zn6	Zn	0.250496	-0.568744	0.812568
Zn7	Zn	-0.354226	-1.068694	0.443767
Zn8	Zn	0.145774	-0.568694	0.943767
O9	O	-0.301872	-1.134338	0.378175
O10	O	0.198128	-0.634338	0.878175
O11	O	-0.263398	-1.309844	0.426419
O12	O	0.236602	-0.809844	0.926419
O13	O	-0.340396	-1.182477	0.202700
O14	O	0.159604	-0.682477	0.702700
O15	O	-0.161824	-1.086224	0.330012
O16	O	0.338176	-0.586224	0.830012
O17	O	-0.340381	-1.309763	0.329970
O18	O	0.159619	-0.809763	0.829970
O19	O	-0.161812	-1.182666	0.426443
O20	O	0.338188	-0.682666	0.926443
O21	O	-0.263426	-1.086117	0.202718
O22	O	0.236574	-0.586117	0.702718
O23	O	-0.263384	-0.958890	0.329960
O24	O	0.236616	-0.458890	0.829960
O25	O	-0.340307	-1.086139	0.553621
O26	O	0.159693	-0.586139	1.053621
O27	O	-0.340323	-0.958854	0.426351
O28	O	0.159677	-0.458854	0.926351
O29	O	-0.263357	-1.182618	0.553661
O30	O	0.236643	-0.682618	1.053661
O31	O	-0.441941	-1.182429	0.329918
O32	O	0.058059	-0.682429	0.829918
O33	O	-0.441909	-1.086031	0.426327
O34	O	0.058091	-0.586031	0.926327
C35	C	-0.301851	-0.930390	0.378153
C36	C	0.198149	-0.430390	0.878153
C37	C	-0.301858	-0.843140	0.378162
C38	C	0.198142	-0.343140	0.878162
C39	C	-0.261844	-0.802193	0.428458
C40	C	0.238156	-0.302193	0.928458
C41	C	-0.261847	-0.720213	0.428460
C42	C	0.238153	-0.220213	0.928460
C43	C	-0.301867	-0.679181	0.378168
C44	C	0.198133	-0.179181	0.878168
C45	C	-0.341883	-0.720133	0.327866
C46	C	0.158117	-0.220133	0.827866
C47	C	-0.341876	-0.802112	0.327861
C48	C	0.158124	-0.302112	0.827861
C49	C	-0.341895	-0.549263	0.327882
C50	C	0.158105	-0.049263	0.827882
C51	C	-0.341903	-0.467279	0.327888
C52	C	0.158097	0.032721	0.827888
C53	C	-0.261865	-0.467364	0.428480
C54	C	0.238135	0.032636	0.928480
C55	C	-0.261859	-0.549342	0.428475
C56	C	0.238141	-0.049342	0.928475
C57	C	-0.301875	-0.590290	0.378174
C58	C	0.198125	-0.090290	0.878174
C59	C	-0.464659	-1.134234	0.378131
C60	C	0.035341	-0.634234	0.878131
C61	C	-0.534300	-1.134261	0.378139
C62	C	-0.034300	-0.634261	0.878139
C63	C	-0.567009	-1.184500	0.327990
C64	C	-0.067009	-0.684500	0.827990
C65	C	-0.632445	-1.184537	0.328008
C66	C	-0.132445	-0.684537	0.828008
C67	C	-0.665169	-1.134320	0.378166
C68	C	-0.165169	-0.634320	0.878166
C69	C	-0.632452	-1.084078	0.428324
C70	C	-0.132452	-0.584078	0.928324
C71	C	-0.567018	-1.084049	0.428311
C72	C	-0.067018	-0.584049	0.928311
C73	C	-0.768880	-1.063641	0.384317
C74	C	-0.268880	-0.563641	0.884317
C75	C	-0.834313	-1.063669	0.384325
C76	C	-0.334313	-0.563669	0.884325
C77	C	-0.866989	-1.134412	0.378212
C78	C	-0.366989	-0.634412	0.878212
C79	C	-0.834225	-1.205129	0.372074
C80	C	-0.334225	-0.705129	0.872074
C81	C	-0.768791	-1.205099	0.372061
C82	C	-0.268791	-0.705099	0.872061
C83	C	-0.736121	-1.134347	0.378186
C84	C	-0.236121	-0.634347	0.878186
C85	C	-0.970651	-1.184694	0.328079
C86	C	-0.470651	-0.684694	0.828079
C87	C	-1.036087	-1.184732	0.328102
C88	C	-0.536087	-0.684732	0.828102
C89	C	-1.036094	-1.084267	0.428415
C90	C	-0.536094	-0.584267	0.928415
C91	C	-0.970658	-1.084236	0.428396
C92	C	-0.470658	-0.584236	0.928396
C93	C	-0.937941	-1.134449	0.378224
C94	C	-0.437941	-0.634449	0.878224
C95	C	-0.138448	-1.134463	0.378236
C96	C	0.361552	-0.634463	0.878236
C97	C	-0.068807	-1.134516	0.378262
C98	C	0.431193	-0.634516	0.878262
C99	C	-0.301825	-1.134385	0.582919
C100	C	0.198175	-0.634385	1.082919
C101	C	-0.301806	-1.134405	0.670169
C102	C	0.198194	-0.634405	1.170169
C103	C	-0.301889	-0.339082	0.378192
C104	C	0.198111	0.160918	0.878192
C105	C	-0.301889	-0.426332	0.378184
C106	C	0.198111	0.073668	0.878184
C107	C	-0.301872	-1.134335	0.174227
C108	C	0.198128	-0.634335	0.674227
C109	C	-0.301715	-1.134467	0.086978
C110	C	0.198285	-0.634467	0.586978
C111	C	-0.261734	-1.184644	0.711181
C112	C	0.238266	-0.684644	1.211181
C113	C	-0.261713	-1.184653	0.793162
C114	C	0.238287	-0.684653	1.293162
C115	C	-0.301768	-1.134428	0.834129
C116	C	0.198232	-0.634428	1.334129
C117	C	-0.341841	-1.084184	0.793111
C118	C	0.158159	-0.584184	1.293111
C119	C	-0.341858	-1.084171	0.711132
C120	C	0.158142	-0.584171	1.211132
C121	C	-0.341803	-1.084215	0.963981
C122	C	0.158197	-0.584215	1.463981
C123	C	-0.341787	-1.084229	1.045966
C124	C	0.158213	-0.584229	1.545966
C125	C	-0.261658	-1.184698	1.046011
C126	C	0.238342	-0.684698	1.546011
C127	C	-0.261676	-1.184685	0.964032
C128	C	0.238324	-0.684685	1.464032
C129	C	-0.301750	-1.134442	0.923020
C130	C	0.198250	-0.634442	1.423020
H131	H	-0.374459	-0.835450	0.286904
H132	H	0.125541	-0.335450	0.786904
O133	O	-0.531719	-1.238666	0.273890
O134	O	-0.031719	-0.738666	0.773890
H135	H	-0.565462	-1.273613	0.239027
H136	H	-0.065462	-0.773613	0.739027
O137	O	-0.869646	-0.987398	0.390945
O138	O	-0.369646	-0.487398	0.890945
H139	H	-0.899488	-0.979422	0.338354
H140	H	-0.399488	-0.479422	0.838354
H141	H	-0.742281	-1.006029	0.389298
H142	H	-0.242281	-0.506029	0.889298
O143	O	-0.667744	-1.238721	0.273923
O144	O	-0.167744	-0.738721	0.773923
H145	H	-0.655243	-1.225283	0.212297
H146	H	-0.155243	-0.725283	0.712297
H147	H	-0.229027	-1.225606	1.079407
H148	H	0.270973	-0.725606	1.579407
H149	H	-0.374479	-0.582600	0.286919
H150	H	0.125521	-0.082600	0.786919
O151	O	-0.385042	-1.030010	0.837295
O152	O	0.114958	-0.530010	1.337295
H153	H	-0.374286	-0.968409	0.821557
H154	H	0.125714	-0.468409	1.321557
O155	O	-0.733449	-1.281365	0.365453
O156	O	-0.233449	-0.781365	0.865453
H157	H	-0.767159	-1.330566	0.361209
H158	H	-0.267159	-0.830566	0.861209
H159	H	-0.374482	-1.043254	0.677741
H160	H	0.125518	-0.543254	1.177741
O161	O	-0.869454	-1.281440	0.365466
O162	O	-0.369454	-0.781440	0.865466
H163	H	-0.856832	-1.319956	0.415402
H164	H	-0.356832	-0.819956	0.915402
O165	O	-0.218672	-0.846444	0.482697
O166	O	0.281328	-0.346444	0.982697
H167	H	-0.229474	-0.830725	0.544282
H168	H	0.270526	-0.330725	1.044282
O169	O	-0.218689	-0.676045	0.482707
O170	O	0.281311	-0.176045	0.982707
H171	H	-0.190864	-0.718350	0.517683
H172	H	0.309136	-0.218350	1.017683
O173	O	-0.935352	-1.238871	0.273994
O174	O	-0.435352	-0.738871	0.773994
H175	H	-0.905587	-1.203759	0.234009
H176	H	-0.405587	-0.703759	0.734009
O177	O	-0.218691	-0.593604	0.482710
O178	O	0.281309	-0.093604	0.982710
H179	H	-0.190859	-0.551360	0.517681
H180	H	0.309141	-0.051360	1.017681
H181	H	-1.062718	-1.225647	0.287267
H182	H	-0.562718	-0.725647	0.787267
O183	O	-0.218697	-0.423207	0.482730
O184	O	0.281303	0.076793	0.982730
H185	H	-0.225417	-0.359308	0.474279
H186	H	0.274583	0.140692	0.974279
H187	H	-0.374491	-0.433873	0.286937
H188	H	0.125509	0.066127	0.786937
O189	O	-0.385046	-0.675882	0.273616
O190	O	0.114954	-0.175882	0.773616
H191	H	-0.416967	-0.638537	0.308675
H192	H	0.083033	-0.138537	0.808675
O193	O	-1.071378	-1.030099	0.482513
O194	O	-0.571378	-0.530099	0.982513
H195	H	-1.122374	-1.038555	0.474095
H196	H	-0.622374	-0.538555	0.974095
H197	H	-0.374402	-1.043329	1.079319
H198	H	0.125598	-0.543329	1.579319
H199	H	-0.659100	-1.043193	0.469165
H200	H	-0.159100	-0.543193	0.969165
O201	O	-0.385021	-1.030018	0.919745
O202	O	0.114979	-0.530018	1.419745
H203	H	-0.434195	-1.043446	0.935456
H204	H	0.065805	-0.543446	1.435456
O205	O	-0.935373	-1.030030	0.482465
O206	O	-0.435373	-0.530030	0.982465
H207	H	-0.969119	-0.995107	0.517338
H208	H	-0.469119	-0.495107	1.017338
O209	O	-0.531733	-1.029847	0.482387
O210	O	-0.031733	-0.529847	0.982387
H211	H	-0.565478	-0.994927	0.517264
H212	H	-0.065478	-0.494927	1.017264
H213	H	-0.229119	-1.225546	0.677832
H214	H	0.270881	-0.725546	1.177832
H215	H	-0.229063	-1.225587	0.930679
H216	H	0.270937	-0.725587	1.430679
O217	O	-0.218497	-1.238843	0.837399
O218	O	0.281503	-0.738843	1.337399
H219	H	-0.190655	-1.273774	0.795140
H220	H	0.309345	-0.773774	1.295140
