data_functionalizedCrystal
_audit_creation_method	'MofGen! by Chris Wilmer'
_symmetry_space_group_name_H-M	'P1'
_symmetry_Int_Tables_number	1
_symmetry_cell_setting	triclinic
loop_
_symmetry_equiv_pos_as_xyz
  x,y,z
_cell_length_a	21.395364
_cell_length_b	21.395361
_cell_length_c	21.395355
_cell_angle_alpha	90.021511
_cell_angle_beta	89.975484
_cell_angle_gamma	89.973528
loop_
_atom_site_label
_atom_site_type_symbol
_atom_site_fract_x
_atom_site_fract_y
_atom_site_fract_z
Zn1	Zn	0.957859	0.249582	-0.354248
Zn2	Zn	1.457859	0.749582	0.145752
Zn3	Zn	0.957761	0.354342	-0.249465
Zn4	Zn	1.457761	0.854342	0.250535
Zn5	Zn	0.853074	0.249574	-0.249485
Zn6	Zn	1.353074	0.749574	0.250515
Zn7	Zn	0.853043	0.354318	-0.354205
Zn8	Zn	1.353043	0.854318	0.145795
O9	O	0.905434	0.301954	-0.301851
O10	O	1.405434	0.801954	0.198149
O11	O	1.045524	0.263492	-0.340358
O12	O	1.545524	0.763492	0.159642
O13	O	0.943847	0.340451	-0.161789
O14	O	1.443847	0.840451	0.338211
O15	O	0.867028	0.161897	-0.263408
O16	O	1.367028	0.661897	0.236592
O17	O	1.045452	0.340458	-0.263374
O18	O	1.545452	0.840458	0.236626
O19	O	0.944013	0.161903	-0.340377
O20	O	1.444013	0.661903	0.159623
O21	O	0.866933	0.263479	-0.161804
O22	O	1.366933	0.763479	0.338196
O23	O	0.765392	0.263456	-0.263366
O24	O	1.265392	0.763456	0.236634
O25	O	0.866975	0.340418	-0.441889
O26	O	1.366975	0.840418	0.058111
O27	O	0.765369	0.340410	-0.340304
O28	O	1.265369	0.840410	0.159696
O29	O	0.943983	0.263469	-0.441920
O30	O	1.443983	0.763469	0.058080
O31	O	0.943817	0.442016	-0.263333
O32	O	1.443817	0.942016	0.236667
O33	O	0.866881	0.441999	-0.340285
O34	O	1.366881	0.941999	0.159715
C35	C	0.905352	0.464742	-0.301816
C36	C	1.405352	0.964742	0.198184
C37	C	0.905374	0.534383	-0.301822
C38	C	1.405374	1.034383	0.198178
C39	C	0.742647	0.301930	-0.301833
C40	C	1.242647	0.801930	0.198167
C41	C	0.673006	0.301935	-0.301840
C42	C	1.173006	0.801935	0.198160
C43	C	0.905486	0.301941	-0.465274
C44	C	1.405486	0.801941	0.034726
C45	C	0.905509	0.301936	-0.534915
C46	C	1.405509	0.801936	-0.034915
C47	C	0.171246	0.261972	-0.342010
C48	C	0.671246	0.761972	0.157990
C49	C	0.236681	0.261967	-0.342010
C50	C	0.736681	0.761967	0.157990
C51	C	0.269367	0.301973	-0.301865
C52	C	0.769367	0.801973	0.198135
C53	C	0.236612	0.341998	-0.261728
C54	C	0.736612	0.841998	0.238272
C55	C	0.171178	0.342006	-0.261734
C56	C	0.671178	0.842006	0.238266
C57	C	0.373004	0.306825	-0.245397
C58	C	0.873004	0.806825	0.254603
C59	C	0.438437	0.306813	-0.245390
C60	C	0.938437	0.806813	0.254610
C61	C	0.471188	0.301952	-0.301847
C62	C	0.971188	0.801952	0.198153
C63	C	0.438498	0.297091	-0.358313
C64	C	0.938498	0.797091	0.141687
C65	C	0.373064	0.297099	-0.358318
C66	C	0.873064	0.797099	0.141682
C67	C	0.340320	0.301969	-0.301854
C68	C	0.840320	0.801969	0.198146
C69	C	0.574888	0.261928	-0.341984
C70	C	1.074888	0.761928	0.158016
C71	C	0.640324	0.261928	-0.341985
C72	C	1.140324	0.761928	0.158015
C73	C	0.640254	0.341955	-0.261698
C74	C	1.140254	0.841955	0.238302
C75	C	0.574818	0.341959	-0.261702
C76	C	1.074818	0.841959	0.238298
C77	C	0.542139	0.301942	-0.301845
C78	C	1.042139	0.801942	0.198155
C79	C	1.068858	0.301979	-0.301868
C80	C	1.568858	0.801979	0.198132
C81	C	1.138499	0.301989	-0.301876
C82	C	1.638499	0.801989	0.198124
C83	C	0.905535	0.138531	-0.301899
C84	C	1.405535	0.638531	0.198101
C85	C	0.905577	0.068889	-0.301920
C86	C	1.405577	0.568889	0.198080
C87	C	0.945470	0.567084	-0.261794
C88	C	1.445470	1.067084	0.238206
C89	C	0.945499	0.632520	-0.261808
C90	C	1.445499	1.132520	0.238192
C91	C	0.905421	0.665251	-0.301843
C92	C	1.405421	1.165251	0.198157
C93	C	0.865322	0.632542	-0.341879
C94	C	1.365322	1.132542	0.158121
C95	C	0.865298	0.567108	-0.341868
C96	C	1.365298	1.067108	0.158132
C97	C	0.849006	0.768962	-0.306753
C98	C	1.349006	1.268962	0.193247
C99	C	0.849029	0.834395	-0.306759
C100	C	1.349029	1.334395	0.193241
C101	C	0.905494	0.867072	-0.301880
C102	C	1.405494	1.367072	0.198120
C103	C	0.961938	0.834308	-0.296981
C104	C	1.461938	1.334308	0.203019
C105	C	0.961915	0.768873	-0.296970
C106	C	1.461915	1.268873	0.203030
C107	C	0.905442	0.736203	-0.301860
C108	C	1.405442	1.236203	0.198140
C109	C	0.945625	0.970726	-0.261865
C110	C	1.445625	1.470726	0.238135
C111	C	0.945655	1.036162	-0.261883
C112	C	1.445655	1.536162	0.238117
C113	C	0.865472	1.036183	-0.341951
C114	C	1.365472	1.536183	0.158049
C115	C	0.865448	0.970748	-0.341936
C116	C	1.365448	1.470748	0.158064
C117	C	0.905523	0.938023	-0.301890
C118	C	1.405523	1.438023	0.198110
C119	C	0.945605	0.261867	-0.567646
C120	C	1.445605	0.761867	-0.067646
C121	C	0.945604	0.261840	-0.633081
C122	C	1.445604	0.761840	-0.133081
C123	C	0.905513	0.301893	-0.665784
C124	C	1.405513	0.801893	-0.165784
C125	C	0.865409	0.341965	-0.633045
C126	C	1.365409	0.841965	-0.133045
C127	C	0.865407	0.341986	-0.567611
C128	C	1.365407	0.841986	-0.067611
C129	C	0.900538	0.358308	-0.769446
C130	C	1.400538	0.858308	-0.269446
C131	C	0.900544	0.358288	-0.834879
C132	C	1.400544	0.858288	-0.334879
C133	C	0.905517	0.301827	-0.867604
C134	C	1.405517	0.801827	-0.367604
C135	C	0.910497	0.245385	-0.834889
C136	C	1.410497	0.745385	-0.334889
C137	C	0.910494	0.245406	-0.769454
C138	C	1.410494	0.745406	-0.269454
C139	C	0.905511	0.301874	-0.736736
C140	C	1.405511	0.801874	-0.236736
C141	C	0.945615	0.261725	-0.971287
C142	C	1.445615	0.761725	-0.471287
C143	C	0.945610	0.261697	-1.036724
C144	C	1.445610	0.761697	-0.536724
C145	C	0.865418	0.341828	-1.036687
C146	C	1.365418	0.841828	-0.536687
C147	C	0.865420	0.341850	-0.971252
C148	C	1.365420	0.841850	-0.471252
C149	C	0.905522	0.301800	-0.938556
C150	C	1.405522	0.801800	-0.438556
C151	C	0.905419	0.301921	-0.139063
C152	C	1.405419	0.801921	0.360937
C153	C	0.905518	0.301750	-0.069422
C154	C	1.405518	0.801750	0.430578
H155	H	0.144643	0.229390	-0.374700
H156	H	0.644643	0.729390	0.125300
Cl157	Cl	0.681338	0.392254	-0.211234
Cl158	Cl	1.181338	0.892254	0.288766
H159	H	0.832795	0.944121	-0.374528
H160	H	1.332795	1.444121	0.125472
H161	H	0.548279	0.229344	-0.374671
H162	H	1.048279	0.729344	0.125329
Cl163	Cl	0.894291	0.429243	-0.876001
Cl164	Cl	1.394291	0.929243	-0.376001
Cl165	Cl	0.277858	0.211655	-0.392466
Cl166	Cl	0.777858	0.711655	0.107534
H167	H	0.896320	0.404274	-0.742807
H168	H	1.396320	0.904274	-0.242807
Cl169	Cl	0.995859	0.525948	-0.211459
Cl170	Cl	1.495859	1.025948	0.288541
Cl171	Cl	0.996024	0.211374	-0.930181
Cl172	Cl	1.496024	0.711374	-0.430181
Cl173	Cl	0.479664	0.290972	-0.429292
Cl174	Cl	0.979664	0.790972	0.070708
H175	H	0.978254	0.229207	-0.659735
H176	H	1.478254	0.729207	-0.159735
H177	H	0.914547	0.199409	-0.861532
H178	H	1.414547	0.699409	-0.361532
H179	H	0.666986	0.229343	-0.374672
H180	H	1.166986	0.729343	0.125328
H181	H	1.007873	0.742198	-0.292983
H182	H	1.507873	1.242198	0.207017
Cl183	Cl	0.331971	0.290994	-0.429300
Cl184	Cl	0.831971	0.790994	0.070700
H185	H	0.978259	0.944080	-0.229259
H186	H	1.478259	1.444080	0.270741
Cl187	Cl	0.815012	0.392176	-1.077792
Cl188	Cl	1.315012	0.892176	-0.577792
Cl189	Cl	0.995908	0.673639	-0.211482
Cl190	Cl	1.495908	1.173639	0.288518
Cl191	Cl	0.814941	0.673689	-0.392212
Cl192	Cl	1.314941	1.173689	0.107788
Cl193	Cl	0.996071	1.077274	-0.211562
Cl194	Cl	1.496071	1.577274	0.288438
Cl195	Cl	1.032928	0.875379	-0.290840
Cl196	Cl	1.532928	1.375379	0.209160
Cl197	Cl	0.814997	0.392364	-0.526462
Cl198	Cl	1.314997	0.892364	-0.026462
H199	H	0.832843	1.062833	-0.374552
H200	H	1.332843	1.562833	0.125448
Cl201	Cl	0.277702	0.392293	-0.211262
Cl202	Cl	0.777702	0.892293	0.288738
H203	H	0.832766	0.374575	-0.659676
H204	H	1.332766	0.874575	-0.159676
H205	H	0.548155	0.374542	-0.229018
H206	H	1.048155	0.874542	0.270982
H207	H	0.803068	0.861067	-0.310742
H208	H	1.303068	1.361067	0.189258
H209	H	0.465048	0.310767	-0.199413
H210	H	0.965048	0.810767	0.300587
Cl211	Cl	0.778014	0.727890	-0.312888
Cl212	Cl	1.278014	1.227890	0.187112
H213	H	0.346343	0.310785	-0.199420
H214	H	0.846343	0.810785	0.300580
H215	H	0.832647	0.540482	-0.374465
H216	H	1.332647	1.040482	0.125535
Cl217	Cl	0.996014	0.211514	-0.526546
Cl218	Cl	1.496014	0.711514	-0.026546
Cl219	Cl	0.916749	0.174453	-0.728328
Cl220	Cl	1.416749	0.674453	-0.228328
H221	H	0.144516	0.374594	-0.229051
H222	H	0.644516	0.874594	0.270949
Cl223	Cl	0.996031	0.211330	-1.077872
Cl224	Cl	1.496031	0.711330	-0.577872
H225	H	0.832773	0.374483	-0.944602
H226	H	1.332773	0.874483	-0.444602
