data_functionalizedCrystal
_audit_creation_method	'MofGen! by Chris Wilmer'
_symmetry_space_group_name_H-M	'P1'
_symmetry_Int_Tables_number	1
_symmetry_cell_setting	triclinic
loop_
_symmetry_equiv_pos_as_xyz
  x,y,z
_cell_length_a	12.759401
_cell_length_b	12.759399
_cell_length_c	12.759393
_cell_angle_alpha	89.968645
_cell_angle_beta	90.019596
_cell_angle_gamma	89.976086
loop_
_atom_site_label
_atom_site_type_symbol
_atom_site_fract_x
_atom_site_fract_y
_atom_site_fract_z
Zn1	Zn	1.606201	0.418208	0.593976
Zn2	Zn	2.106201	0.918208	1.093976
Zn3	Zn	1.606065	0.593923	0.418294
Zn4	Zn	2.106065	1.093923	0.918294
Zn5	Zn	1.430500	0.418260	0.418315
Zn6	Zn	1.930500	0.918260	0.918315
Zn7	Zn	1.430464	0.593846	0.593935
Zn8	Zn	1.930464	1.093846	1.093935
O9	O	1.518308	0.506059	0.506130
O10	O	2.018308	1.006059	1.006130
O11	O	1.753204	0.441527	0.570680
O12	O	2.253204	0.941527	1.070680
O13	O	1.582734	0.570675	0.271275
O14	O	2.082734	1.070675	0.771275
O15	O	1.453879	0.271232	0.441644
O16	O	1.953879	0.771232	0.941644
O17	O	1.753104	0.570625	0.441606
O18	O	2.253104	1.070625	0.941606
O19	O	1.582966	0.271194	0.570701
O20	O	2.082966	0.771194	1.070701
O21	O	1.453747	0.441616	0.271291
O22	O	1.953747	0.941616	0.771291
O23	O	1.283474	0.441541	0.441604
O24	O	1.783474	0.941541	0.941604
O25	O	1.453818	0.570493	0.740962
O26	O	1.953818	1.070493	1.240962
O27	O	1.283448	0.570544	0.570631
O28	O	1.783448	1.070544	1.070631
O29	O	1.582931	0.441452	0.740992
O30	O	2.082931	0.941452	1.240992
O31	O	1.582699	0.740934	0.441567
O32	O	2.082699	1.240934	0.941567
O33	O	1.453686	0.740877	0.570609
O34	O	1.953686	1.240877	1.070609
C35	C	1.245340	0.506040	0.506116
C36	C	1.745340	1.006040	1.006116
C37	C	1.128564	0.506058	0.506134
C38	C	1.628564	1.006058	1.006134
C39	C	0.963984	0.573347	0.573220
C40	C	1.463984	1.073347	1.073220
C41	C	1.073708	0.573336	0.573209
C42	C	1.573708	1.073336	1.073209
C43	C	1.073689	0.438795	0.439058
C44	C	1.573689	0.938795	0.939058
C45	C	0.963967	0.438812	0.439065
C46	C	1.463967	0.938812	0.939065
C47	C	1.518203	0.779027	0.506104
C48	C	2.018203	1.279027	1.006104
C49	C	1.518254	0.895803	0.506128
C50	C	2.018254	1.395803	1.006128
C51	C	1.585431	0.950555	0.573384
C52	C	2.085431	1.450555	1.073384
C53	C	1.585473	1.060279	0.573409
C54	C	2.085473	1.560279	1.073409
C55	C	1.451157	1.060489	0.438914
C56	C	1.951157	1.560489	0.938914
C57	C	1.451110	0.950767	0.438895
C58	C	1.951110	1.450767	0.938895
C59	C	1.792341	0.506079	0.506145
C60	C	2.292341	1.006079	1.006145
C61	C	1.909117	0.506087	0.506152
C62	C	2.409117	1.006087	1.006152
C63	C	1.518386	0.505958	0.780164
C64	C	2.018386	1.005958	1.280164
C65	C	1.518420	0.505915	0.896940
C66	C	2.018420	1.005915	1.396940
C67	C	1.518402	1.232026	0.506172
C68	C	2.018402	1.732026	1.006172
C69	C	1.518342	1.115249	0.506173
C70	C	2.018342	1.615249	1.006173
C71	C	1.518290	0.506084	0.233163
C72	C	2.018290	1.006084	0.733163
C73	C	1.518460	0.505831	0.116387
C74	C	2.018460	1.005831	0.616387
C75	C	1.585654	0.438713	0.951820
C76	C	2.085654	0.938713	1.451820
C77	C	1.585672	0.438668	1.061544
C78	C	2.085672	0.938668	1.561544
C79	C	1.451218	0.573036	1.061499
C80	C	1.951218	1.073036	1.561499
C81	C	1.451196	0.573075	0.951777
C82	C	1.951196	1.073075	1.451777
H83	H	0.919293	0.384039	0.384445
H84	H	1.419293	0.884039	0.884445
Cl85	Cl	1.142650	0.354219	0.354732
Cl86	Cl	1.642650	0.854219	0.854732
Cl87	Cl	1.366643	0.881931	0.354346
Cl88	Cl	1.866643	1.381931	0.854346
Cl89	Cl	1.142679	0.657898	0.657525
Cl90	Cl	1.642679	1.157898	1.157525
Cl91	Cl	1.670159	0.354280	0.882885
Cl92	Cl	2.170159	0.854280	1.382885
Cl93	Cl	1.366660	0.657559	0.882781
Cl94	Cl	1.866660	1.157559	1.382781
H95	H	1.640174	1.104854	0.628178
H96	H	2.140174	1.604854	1.128178
Cl97	Cl	0.895034	0.657925	0.657553
Cl98	Cl	1.395034	1.157925	1.157553
H99	H	1.396493	1.105255	0.384174
H100	H	1.896493	1.605255	0.884174
Cl101	Cl	1.669836	0.881461	0.657909
Cl102	Cl	2.169836	1.381461	1.157909
Cl103	Cl	1.670208	0.354190	1.130531
Cl104	Cl	2.170208	0.854190	1.630531
H105	H	1.396489	0.627718	1.106161
H106	H	1.896489	1.127718	1.606161
