data_functionalizedCrystal
_audit_creation_method	'MofGen! by Chris Wilmer'
_symmetry_space_group_name_H-M	'P1'
_symmetry_Int_Tables_number	1
_symmetry_cell_setting	triclinic
loop_
_symmetry_equiv_pos_as_xyz
  x,y,z
_cell_length_a	12.759401
_cell_length_b	21.395361
_cell_length_c	12.759401
_cell_angle_alpha	90.015573
_cell_angle_beta	90.006940
_cell_angle_gamma	90.032233
loop_
_atom_site_label
_atom_site_type_symbol
_atom_site_fract_x
_atom_site_fract_y
_atom_site_fract_z
Zn1	Zn	1.606004	-0.249522	0.593964
Zn2	Zn	1.605889	-0.354271	0.418260
Zn3	Zn	1.430346	-0.249514	0.418299
Zn4	Zn	1.430246	-0.354269	0.593898
O5	O	1.518121	-0.301894	0.506105
O6	O	1.753010	-0.263422	0.570668
O7	O	1.582597	-0.340373	0.271245
O8	O	1.453737	-0.161838	0.441645
O9	O	1.752925	-0.340381	0.441579
O10	O	1.582793	-0.161843	0.570705
O11	O	1.453626	-0.263408	0.271273
O12	O	1.283312	-0.263406	0.441581
O13	O	1.453567	-0.340376	0.740927
O14	O	1.283238	-0.340369	0.570592
O15	O	1.582696	-0.263420	0.740976
O16	O	1.582500	-0.441949	0.441515
O17	O	1.453455	-0.441947	0.570555
C18	C	1.245154	-0.301887	0.506084
C19	C	1.128377	-0.301898	0.506100
C20	C	1.073505	-0.342034	0.573171
C21	C	0.963781	-0.342036	0.573192
C22	C	0.963812	-0.261766	0.439062
C23	C	1.073534	-0.261761	0.439048
C24	C	1.517983	-0.464682	0.506047
C25	C	1.518019	-0.534323	0.506057
C26	C	1.585272	-0.567016	0.438935
C27	C	1.585321	-0.632452	0.438958
C28	C	1.518098	-0.665191	0.506093
C29	C	1.450841	-0.632490	0.573228
C30	C	1.450801	-0.567056	0.573210
C31	C	1.423498	-0.768909	0.514329
C32	C	1.423536	-0.834342	0.514340
C33	C	1.518221	-0.867012	0.506154
C34	C	1.612871	-0.834242	0.497937
C35	C	1.612831	-0.768808	0.497919
C36	C	1.518134	-0.736144	0.506120
C37	C	1.585532	-0.970658	0.439054
C38	C	1.585583	-1.036095	0.439085
C39	C	1.451093	-1.036132	0.573349
C40	C	1.451052	-0.970696	0.573324
C41	C	1.518270	-0.937963	0.506171
C42	C	1.792155	-0.301902	0.506127
C43	C	1.908931	-0.301906	0.506136
C44	C	1.518133	-0.301899	0.780138
C45	C	1.518138	-0.301900	0.896915
C46	C	1.518289	-0.138471	0.506187
C47	C	1.518361	-0.068830	0.506222
C48	C	1.585367	-0.261835	0.951804
C49	C	1.585358	-0.261834	1.061528
C50	C	1.450888	-0.341968	1.061465
C51	C	1.450892	-0.341966	0.951742
C52	C	1.518109	-0.301904	1.233138
C53	C	1.518124	-0.301902	1.116361
H54	H	1.118212	-0.229074	0.384431
Br55	Br	1.359524	-0.522683	0.664313
H56	H	1.118155	-0.374715	0.627772
H57	H	0.919145	-0.229089	0.384469
Br58	Br	0.889314	-0.396505	0.664225
H59	H	1.396364	-1.062788	0.628017
Br60	Br	1.676511	-0.522596	0.347813
H61	H	1.640120	-0.229210	0.907167
Br62	Br	1.676600	-0.676831	0.347858
Br63	Br	1.741278	-0.724335	0.486774
Br64	Br	1.359637	-0.396338	0.877243
Br65	Br	1.741380	-0.878572	0.486811
H66	H	1.396284	-0.944076	0.627977
H67	H	1.640269	-0.944006	0.384377
H68	H	1.396141	-0.374589	1.106118
Br69	Br	1.359617	-0.676921	0.664349
H70	H	1.640355	-1.062712	0.384428
H71	H	1.346466	-0.861018	0.521021
H72	H	1.346388	-0.742315	0.520998
Br73	Br	1.676609	-0.207463	1.136017
