data_functionalizedCrystal
_audit_creation_method	'MofGen! by Chris Wilmer'
_symmetry_space_group_name_H-M	'P1'
_symmetry_Int_Tables_number	1
_symmetry_cell_setting	triclinic
loop_
_symmetry_equiv_pos_as_xyz
  x,y,z
_cell_length_a	17.077404
_cell_length_b	17.077402
_cell_length_c	17.077396
_cell_angle_alpha	90.027528
_cell_angle_beta	90.018362
_cell_angle_gamma	90.021463
loop_
_atom_site_label
_atom_site_type_symbol
_atom_site_fract_x
_atom_site_fract_y
_atom_site_fract_z
Zn1	Zn	1.200051	-0.312551	0.443824
Zn2	Zn	1.700051	0.187449	0.943824
Zn3	Zn	1.199957	-0.443826	0.312560
Zn4	Zn	1.699957	0.056174	0.812560
Zn5	Zn	1.068783	-0.312573	0.312575
Zn6	Zn	1.568783	0.187427	0.812575
Zn7	Zn	1.068750	-0.443774	0.443786
Zn8	Zn	1.568750	0.056226	0.943786
O9	O	1.134385	-0.378181	0.378186
O10	O	1.634385	0.121819	0.878186
O11	O	1.309886	-0.329977	0.426421
O12	O	1.809886	0.170023	0.926421
O13	O	1.182531	-0.426446	0.202715
O14	O	1.682531	0.073554	0.702715
O15	O	1.086250	-0.202723	0.330007
O16	O	1.586250	0.297277	0.830007
O17	O	1.309816	-0.426424	0.329982
O18	O	1.809816	0.073576	0.829982
O19	O	1.182692	-0.202707	0.426435
O20	O	1.682692	0.297293	0.926435
O21	O	1.086158	-0.330015	0.202726
O22	O	1.586158	0.169985	0.702726
O23	O	0.958932	-0.329965	0.329970
O24	O	1.458932	0.170035	0.829970
O25	O	1.086193	-0.426336	0.553638
O26	O	1.586193	0.073664	1.053638
O27	O	0.958907	-0.426357	0.426371
O28	O	1.458907	0.073643	0.926371
O29	O	1.182659	-0.329927	0.553666
O30	O	1.682659	0.170073	1.053666
O31	O	1.182499	-0.553666	0.329946
O32	O	1.682499	-0.053666	0.829946
O33	O	1.086101	-0.553628	0.426357
O34	O	1.586101	-0.053628	0.926357
C35	C	0.930437	-0.378158	0.378169
C36	C	1.430437	0.121842	0.878169
C37	C	0.843188	-0.378168	0.378180
C38	C	1.343188	0.121832	0.878180
C39	C	0.802234	-0.328037	0.428472
C40	C	1.302234	0.171963	0.928472
C41	C	0.720254	-0.328042	0.428476
C42	C	1.220254	0.171958	0.928476
C43	C	0.679228	-0.378183	0.378190
C44	C	1.179228	0.121817	0.878190
C45	C	0.720187	-0.428315	0.327892
C46	C	1.220187	0.071685	0.827892
C47	C	0.802166	-0.428306	0.327885
C48	C	1.302166	0.071694	0.827885
C49	C	0.549317	-0.428333	0.327912
C50	C	1.049317	0.071667	0.827912
C51	C	0.467333	-0.428344	0.327920
C52	C	0.967333	0.071656	0.827920
C53	C	0.467405	-0.328070	0.428502
C54	C	0.967405	0.171930	0.928502
C55	C	0.549384	-0.328060	0.428495
C56	C	1.049384	0.171940	0.928495
C57	C	0.590337	-0.378194	0.378198
C58	C	1.090337	0.121806	0.878198
C59	C	1.134307	-0.582129	0.378163
C60	C	1.634307	-0.082129	0.878163
C61	C	1.134346	-0.669378	0.378179
C62	C	1.634346	-0.169378	0.878179
C63	C	1.184536	-0.710292	0.428430
C64	C	1.684536	-0.210292	0.928430
C65	C	1.184569	-0.792273	0.428447
C66	C	1.684569	-0.292273	0.928447
C67	C	1.134415	-0.833338	0.378208
C68	C	1.634415	-0.333338	0.878208
C69	C	1.084220	-0.792418	0.327955
C70	C	1.584220	-0.292418	0.827955
C71	C	1.084183	-0.710439	0.327943
C72	C	1.584183	-0.210439	0.827943
C73	C	1.084300	-0.963288	0.327983
C74	C	1.584300	-0.463288	0.827983
C75	C	1.084337	-1.045273	0.327994
C76	C	1.584337	-0.545273	0.827994
C77	C	1.184686	-1.045122	0.428486
C78	C	1.684686	-0.545122	0.928486
C79	C	1.184649	-0.963143	0.428474
C80	C	1.684649	-0.463143	0.928474
C81	C	1.134455	-0.922229	0.378220
C82	C	1.634455	-0.422229	0.878220
C83	C	1.339130	-0.378204	0.378204
C84	C	1.839130	0.121796	0.878204
C85	C	1.426379	-0.378213	0.378212
C86	C	1.926379	0.121787	0.878212
C87	C	1.134433	-0.378123	0.582931
C88	C	1.634433	0.121877	1.082931
C89	C	1.134453	-0.378098	0.670181
C90	C	1.634453	0.121902	1.170181
C91	C	1.134485	-0.173436	0.378227
C92	C	1.634485	0.326564	0.878227
C93	C	1.134527	-0.086187	0.378244
C94	C	1.634527	0.413813	0.878244
C95	C	1.134383	-0.378182	0.174238
C96	C	1.634383	0.121818	0.674238
C97	C	1.134515	-0.377985	0.086989
C98	C	1.634515	0.122015	0.586989
C99	C	1.184685	-0.327894	0.711186
C100	C	1.684685	0.172106	1.211186
C101	C	1.184694	-0.327868	0.793167
C102	C	1.684694	0.172132	1.293167
C103	C	1.134475	-0.378051	0.834140
C104	C	1.634475	0.121949	1.334140
C105	C	1.084238	-0.428257	0.793128
C106	C	1.584238	0.071743	1.293128
C107	C	1.084225	-0.428279	0.711149
C108	C	1.584225	0.071721	1.211149
C109	C	1.084269	-0.428210	0.963999
C110	C	1.584269	0.071790	1.463999
C111	C	1.084283	-0.428190	1.045983
C112	C	1.584283	0.071810	1.545983
C113	C	1.184739	-0.327799	1.046016
C114	C	1.684739	0.172201	1.546016
C115	C	1.184726	-0.327821	0.964037
C116	C	1.684726	0.172179	1.464037
C117	C	1.134489	-0.378028	0.923031
C118	C	1.634489	0.121972	1.423031
H119	H	0.835509	-0.469127	0.286932
H120	H	1.335509	0.030873	0.786932
H121	H	0.434057	-0.287247	0.469455
H122	H	0.934057	0.212753	0.969455
Br123	Br	0.664511	-0.496358	0.259640
Br124	Br	1.164511	0.003642	0.759640
Br125	Br	1.252921	-0.259663	1.101665
Br126	Br	1.752921	0.240337	1.601665
H127	H	0.433932	-0.469173	0.286973
H128	H	0.933932	0.030827	0.786973
H129	H	1.225556	-1.078438	0.469406
H130	H	1.725556	-0.578438	0.969406
Br131	Br	1.016120	-0.496288	1.101590
Br132	Br	1.516120	0.003712	1.601590
H133	H	1.225600	-0.286988	0.826550
H134	H	1.725600	0.213012	1.326550
Br135	Br	1.252722	-0.907412	0.496649
Br136	Br	1.752722	-0.407412	0.996649
Br137	Br	1.016273	-1.101004	0.259810
Br138	Br	1.516273	-0.601004	0.759810
H139	H	1.043380	-0.825860	0.287053
H140	H	1.543380	-0.325860	0.787053
H141	H	1.043423	-0.929978	0.287063
H142	H	1.543423	-0.429978	0.787063
Br143	Br	1.252612	-0.654569	0.496609
Br144	Br	1.752612	-0.154569	0.996609
Br145	Br	0.604897	-0.496377	0.259655
Br146	Br	1.104897	0.003623	0.759655
Br147	Br	1.016062	-0.654912	0.259746
Br148	Br	1.516062	-0.154912	0.759746
H149	H	1.225623	-0.286962	0.930679
H150	H	1.725623	0.213038	1.430679
Br151	Br	1.252850	-0.259791	0.655588
Br152	Br	1.752850	0.240209	1.155588
Br153	Br	0.857904	-0.259991	0.496726
Br154	Br	1.357904	0.240009	0.996726
H155	H	1.225445	-0.825581	0.469360
H156	H	1.725445	-0.325581	0.969360
H157	H	0.582785	-0.287236	0.469447
H158	H	1.082785	0.212764	0.969447
Br159	Br	1.016087	-0.496347	0.908348
Br160	Br	1.516087	0.003653	1.408348
Br161	Br	1.016077	-0.496359	0.848734
Br162	Br	1.516077	0.003641	1.348734
H163	H	1.043313	-0.469152	0.677764
H164	H	1.543313	0.030848	1.177764
H165	H	0.686913	-0.287222	0.469431
H166	H	1.186913	0.212778	0.969431
