data_functionalizedCrystal
_audit_creation_method	'MofGen! by Chris Wilmer'
_symmetry_space_group_name_H-M	'P1'
_symmetry_Int_Tables_number	1
_symmetry_cell_setting	triclinic
loop_
_symmetry_equiv_pos_as_xyz
  x,y,z
_cell_length_a	17.077404
_cell_length_b	12.759400
_cell_length_c	17.077396
_cell_angle_alpha	89.973580
_cell_angle_beta	89.982756
_cell_angle_gamma	90.014910
loop_
_atom_site_label
_atom_site_type_symbol
_atom_site_fract_x
_atom_site_fract_y
_atom_site_fract_z
Zn1	Zn	1.200082	-0.418251	-0.443859
Zn2	Zn	1.200013	-0.593954	-0.312599
Zn3	Zn	1.068819	-0.418291	-0.312606
Zn4	Zn	1.068800	-0.593890	-0.443823
O5	O	1.134429	-0.506097	-0.378222
O6	O	1.309920	-0.441569	-0.426459
O7	O	1.182589	-0.570696	-0.202753
O8	O	1.086268	-0.271264	-0.330035
O9	O	1.309869	-0.570658	-0.330023
O10	O	1.182706	-0.271236	-0.426466
O11	O	1.086201	-0.441637	-0.202759
O12	O	0.958970	-0.441574	-0.330001
O13	O	1.086236	-0.570547	-0.553674
O14	O	0.958956	-0.570585	-0.426405
O15	O	1.182688	-0.441506	-0.553701
O16	O	1.182571	-0.740967	-0.329988
O17	O	1.086170	-0.740919	-0.426398
C18	C	0.930481	-0.506077	-0.378200
C19	C	0.843231	-0.506095	-0.378209
C20	C	1.134382	-0.779064	-0.378205
C21	C	1.134434	-0.895841	-0.378225
C22	C	0.802254	-0.573372	-0.428326
C23	C	0.720274	-0.573375	-0.428339
C24	C	0.679271	-0.506104	-0.378230
C25	C	0.720254	-0.438819	-0.328111
C26	C	0.802233	-0.438812	-0.328103
C27	C	0.549384	-0.438839	-0.328130
C28	C	0.467399	-0.438847	-0.328136
C29	C	0.467425	-0.573402	-0.428366
C30	C	0.549404	-0.573395	-0.428358
C31	C	0.590380	-0.506111	-0.378237
C32	C	1.184686	-0.950692	-0.328080
C33	C	1.184734	-1.060416	-0.328104
C34	C	1.084272	-1.060427	-0.428420
C35	C	1.084228	-0.950705	-0.428399
C36	C	1.242684	-0.950687	-0.270160
C37	C	1.242733	-1.060411	-0.270185
C38	C	1.339173	-0.506116	-0.378244
C39	C	1.426423	-0.506125	-0.378253
C40	C	1.134468	-0.506015	-0.582966
C41	C	1.134485	-0.505980	-0.670216
C42	C	1.134497	-0.232063	-0.378255
C43	C	1.134526	-0.115287	-0.378270
C44	C	1.084311	-0.438771	-0.711208
C45	C	1.084324	-0.438747	-0.793189
C46	C	1.134515	-0.505928	-0.834175
C47	C	1.184691	-0.573145	-0.793177
C48	C	1.184674	-0.573173	-0.711198
C49	C	1.184725	-0.573079	-0.964047
C50	C	1.184743	-0.573050	-1.046032
C51	C	1.084375	-0.438653	-1.046038
C52	C	1.084358	-0.438682	-0.964059
C53	C	1.134535	-0.505897	-0.923066
C54	C	1.134434	-0.506102	-0.174274
C55	C	1.134570	-0.505840	-0.087025
H56	H	0.835632	-0.628156	-0.469129
O57	O	0.680560	-0.638689	-0.477126
C58	C	0.655498	-0.689913	-0.610584
C59	C	0.700533	-0.615888	-0.555420
H60	H	0.671618	-0.671490	-0.673897
H61	H	0.671620	-0.774616	-0.596740
H62	H	0.589866	-0.678389	-0.601949
H63	H	0.766176	-0.627319	-0.564025
H64	H	0.684346	-0.531212	-0.569278
H65	H	0.582786	-0.628179	-0.469157
H66	H	1.043316	-0.906045	-0.469238
O67	O	0.680548	-0.373372	-0.279409
C68	C	0.689182	-0.239961	-0.179957
C69	C	0.734243	-0.314006	-0.235089
H70	H	0.732575	-0.191960	-0.144099
H71	H	0.650843	-0.185019	-0.216031
H72	H	0.650759	-0.288150	-0.138887
H73	H	0.772709	-0.265902	-0.276170
H74	H	0.772532	-0.368950	-0.198966
O75	O	0.842128	-0.373608	-0.279378
C76	C	0.934613	-0.359293	-0.173379
C77	C	0.889495	-0.433258	-0.228520
H78	H	0.972907	-0.407490	-0.132235
H79	H	0.973068	-0.304433	-0.209444
H80	H	0.891215	-0.311189	-0.137599
H81	H	0.932837	-0.481429	-0.264312
H82	H	0.851028	-0.488049	-0.192410
O83	O	1.233425	-0.638519	-0.924310
C84	C	1.271443	-0.817247	-0.899162
C85	C	1.216255	-0.743262	-0.944228
H86	H	1.257570	-0.901948	-0.915236
H87	H	1.334761	-0.798887	-0.915301
H88	H	1.262819	-0.805673	-0.833534
H89	H	1.224809	-0.754795	-1.009866
H90	H	1.152958	-0.761640	-0.928024
O91	O	1.223313	-1.095861	-0.197614
C92	C	1.187984	-1.050215	-0.065339
C93	C	1.209949	-1.009926	-0.147487
H94	H	1.177189	-0.980757	-0.024784
H95	H	1.132614	-1.099871	-0.069221
H96	H	1.237947	-1.099857	-0.041183
H97	H	1.160037	-0.960241	-0.171690
H98	H	1.265344	-0.960327	-0.143556
H99	H	1.225553	-0.627850	-0.826555
H100	H	1.303459	-0.920831	-0.286490
O101	O	1.233380	-0.638378	-1.085929
C102	C	1.243887	-0.780250	-1.178420
C103	C	1.188723	-0.706307	-1.133304
H104	H	1.207804	-0.835204	-1.216721
H105	H	1.284950	-0.732084	-1.216869
H106	H	1.279753	-0.828253	-1.135021
H107	H	1.152806	-0.658288	-1.176647
H108	H	1.147712	-0.754533	-1.094844
O109	O	1.035563	-0.373357	-0.832887
C110	C	0.935983	-0.240094	-0.824242
C111	C	0.991180	-0.314080	-0.779187
H112	H	0.900074	-0.192164	-0.780844
H113	H	0.972008	-0.185082	-0.862614
H114	H	0.894963	-0.288324	-0.862631
H115	H	1.032211	-0.265934	-0.740755
H116	H	0.955106	-0.369094	-0.740864
H117	H	1.043397	-1.105111	-0.469271
O118	O	1.311694	-1.100747	-0.296211
C119	C	1.441189	-1.064144	-0.345201
C120	C	1.363142	-1.018323	-0.315724
H121	H	1.482800	-0.997526	-0.361001
H122	H	1.468559	-1.114412	-0.297272
H123	H	1.429962	-1.114429	-0.399208
H124	H	1.374301	-0.967991	-0.261731
H125	H	1.335796	-0.968114	-0.363701
H126	H	1.043491	-0.383972	-0.930690
H127	H	1.043520	-0.383923	-1.079418
O128	O	1.035516	-0.373657	-0.671310
C129	C	0.929486	-0.359552	-0.578784
C130	C	0.984713	-0.433409	-0.623903
H131	H	0.888387	-0.407833	-0.540456
H132	H	0.965486	-0.304648	-0.540362
H133	H	0.893662	-0.311491	-0.622182
H134	H	1.020549	-0.481539	-0.580561
H135	H	0.948668	-0.488244	-0.662336
O136	O	0.427503	-0.638659	-0.477033
C137	C	0.301221	-0.698347	-0.521439
C138	C	0.346338	-0.624372	-0.466304
H139	H	0.235591	-0.686837	-0.512772
H140	H	0.317313	-0.680005	-0.584774
H141	H	0.317367	-0.783026	-0.507548
H142	H	0.330217	-0.539668	-0.480123
H143	H	0.330243	-0.642804	-0.402985
H144	H	0.434017	-0.384057	-0.287342
H145	H	1.225536	-0.627894	-0.677823
H146	H	1.220928	-0.916733	-0.212385
H147	H	0.582745	-0.384040	-0.287323
