data_functionalizedCrystal
_audit_creation_method	'MofGen! by Chris Wilmer'
_symmetry_space_group_name_H-M	'P1'
_symmetry_Int_Tables_number	1
_symmetry_cell_setting	triclinic
loop_
_symmetry_equiv_pos_as_xyz
  x,y,z
_cell_length_a	21.395362
_cell_length_b	12.759399
_cell_length_c	12.759393
_cell_angle_alpha	90.030906
_cell_angle_beta	90.042133
_cell_angle_gamma	90.030995
loop_
_atom_site_label
_atom_site_type_symbol
_atom_site_fract_x
_atom_site_fract_y
_atom_site_fract_z
Zn1	Zn	0.957916	-0.417770	0.594612
Zn2	Zn	1.457916	0.082230	1.094612
Zn3	Zn	0.957850	-0.593486	0.418930
Zn4	Zn	1.457850	-0.093486	0.918930
Zn5	Zn	0.853134	-0.417870	0.418882
Zn6	Zn	1.353134	0.082130	0.918882
Zn7	Zn	0.853129	-0.593456	0.594503
Zn8	Zn	1.353129	-0.093456	1.094503
O9	O	0.905507	-0.505645	0.506732
O10	O	1.405507	-0.005645	1.006732
O11	O	1.045585	-0.441049	0.571373
O12	O	1.545585	0.058951	1.071373
O13	O	0.943935	-0.570244	0.271903
O14	O	1.443935	-0.070244	0.771903
O15	O	0.867064	-0.270836	0.442218
O16	O	1.367064	0.229164	0.942218
O17	O	1.045537	-0.570147	0.442301
O18	O	1.545537	-0.070147	0.942301
O19	O	0.944047	-0.270762	0.571326
O20	O	1.444047	0.229238	1.071326
O21	O	0.867000	-0.441220	0.271867
O22	O	1.367000	0.058780	0.771867
O23	O	0.765456	-0.441191	0.442112
O24	O	1.265456	0.058809	0.942112
O25	O	0.867054	-0.570097	0.741538
O26	O	1.367054	-0.070097	1.241538
O27	O	0.765452	-0.570194	0.571140
O28	O	1.265452	-0.070194	1.071140
O29	O	0.944041	-0.441021	0.741618
O30	O	1.444041	0.058979	1.241618
O31	O	0.943929	-0.740503	0.442195
O32	O	1.443929	-0.240503	0.942195
O33	O	0.866991	-0.740481	0.571187
O34	O	1.366991	-0.240481	1.071187
C35	C	0.742720	-0.505701	0.506610
C36	C	1.242720	-0.005701	1.006610
C37	C	0.673079	-0.505750	0.506582
C38	C	1.173079	-0.005750	1.006582
C39	C	0.905469	-0.778613	0.506708
C40	C	1.405469	-0.278613	1.006708
C41	C	0.905510	-0.895389	0.506733
C42	C	1.405510	-0.395389	1.006733
C43	C	0.945618	-0.950228	0.439643
C44	C	1.445618	-0.450228	0.939643
C45	C	0.945658	-1.059952	0.439678
C46	C	1.445658	-0.559952	0.939678
C47	C	0.865477	-1.059989	0.573896
C48	C	1.365477	-0.559989	1.073896
C49	C	0.865441	-0.950267	0.573865
C50	C	1.365441	-0.450267	1.073865
C51	C	0.640380	-0.573011	0.573667
C52	C	1.140380	-0.073011	1.073667
C53	C	0.574944	-0.572985	0.573713
C54	C	1.074944	-0.072985	1.073713
C55	C	0.542210	-0.505710	0.506657
C56	C	1.042210	-0.005710	1.006657
C57	C	0.574917	-0.438436	0.439568
C58	C	1.074917	0.061564	0.939568
C59	C	0.640351	-0.438456	0.439531
C60	C	1.140351	0.061544	0.939531
C61	C	0.438486	-0.497273	0.412075
C62	C	0.938486	0.002727	0.912075
C63	C	0.373053	-0.497260	0.412110
C64	C	0.873053	0.002740	0.912110
C65	C	0.340390	-0.505641	0.506773
C66	C	0.840390	-0.005641	1.006773
C67	C	0.373167	-0.514057	0.601404
C68	C	0.873167	-0.014057	1.101404
C69	C	0.438601	-0.514077	0.601366
C70	C	0.938601	-0.014077	1.101366
C71	C	0.471258	-0.505680	0.506691
C72	C	0.971258	-0.005680	1.006691
C73	C	0.236738	-0.572877	0.573914
C74	C	0.736738	-0.072877	1.073914
C75	C	0.171302	-0.572844	0.573963
C76	C	0.671302	-0.072844	1.073963
C77	C	0.171276	-0.438301	0.439808
C78	C	0.671276	0.061699	0.939808
C79	C	0.236711	-0.438328	0.439769
C80	C	0.736711	0.061672	0.939769
C81	C	0.269438	-0.505622	0.506820
C82	C	0.769438	-0.005622	1.006820
C83	C	1.068931	-0.505590	0.506855
C84	C	1.568931	-0.005590	1.006855
C85	C	1.138572	-0.505567	0.506907
C86	C	1.638572	-0.005567	1.006907
C87	C	0.905554	-0.505545	0.780765
C88	C	1.405554	-0.005545	1.280765
C89	C	0.905574	-0.505502	0.897542
C90	C	1.405574	-0.005502	1.397542
C91	C	0.905563	-0.231612	0.506779
C92	C	1.405563	0.268388	1.006779
C93	C	0.905587	-0.114835	0.506799
C94	C	1.405587	0.385165	1.006799
C95	C	0.905497	-0.505670	0.233764
C96	C	1.405497	-0.005670	0.733764
C97	C	0.905598	-0.505417	0.116988
C98	C	1.405598	-0.005417	0.616988
C99	C	0.945664	-0.438281	0.952447
C100	C	1.445664	0.061719	1.452447
C101	C	0.945675	-0.438236	1.062171
C102	C	1.445675	0.061764	1.562171
C103	C	0.865504	-0.572641	1.062075
C104	C	1.365504	-0.072641	1.562075
C105	C	0.865491	-0.572680	0.952353
C106	C	1.365491	-0.072680	1.452353
H107	H	0.978245	-0.905548	0.384981
H108	H	1.478245	-0.405548	0.884981
F109	F	0.822753	-0.891901	0.645280
F110	F	1.322753	-0.391901	1.145280
F111	F	0.822816	-0.644224	0.893915
F112	F	1.322816	-0.144224	1.393915
H113	H	0.832854	-1.104685	0.628551
H114	H	1.332854	-0.604685	1.128551
F115	F	0.675153	-0.366864	0.368128
F116	F	1.175153	0.133136	0.868128
H117	H	0.465075	-0.490444	0.334983
H118	H	0.965075	0.009556	0.834983
F119	F	0.675207	-0.644628	0.645033
F120	F	1.175207	-0.144628	1.145033
F121	F	0.988347	-1.118310	0.368274
F122	F	1.488347	-0.618310	0.868274
H123	H	0.548316	-0.627756	0.628345
H124	H	1.048316	-0.127756	1.128345
H125	H	0.832870	-0.627337	1.106716
H126	H	1.332870	-0.127337	1.606716
H127	H	0.263386	-0.627667	0.628517
H128	H	0.763386	-0.127667	1.128517
F129	F	0.473483	-0.523029	0.702076
F130	F	0.973483	-0.023029	1.202076
F131	F	0.338410	-0.522972	0.702160
F132	F	0.838410	-0.022972	1.202160
H133	H	0.144679	-0.627614	0.628597
H134	H	0.644679	-0.127614	1.128597
H135	H	0.144624	-0.383519	0.385214
H136	H	0.644624	0.116481	0.885214
H137	H	0.978302	-0.383577	0.907823
H138	H	1.478302	0.116423	1.407823
F139	F	0.271513	-0.366742	0.368365
F140	F	0.771513	0.133258	0.868365
H141	H	0.346371	-0.490415	0.335056
H142	H	0.846371	0.009585	0.835056
F143	F	0.988348	-0.366697	1.120601
F144	F	1.488348	0.133303	1.620601
H145	H	0.548261	-0.383658	0.384973
H146	H	1.048261	0.116342	0.884973
