data_functionalizedCrystal
_audit_creation_method	'MofGen! by Chris Wilmer'
_symmetry_space_group_name_H-M	'P1'
_symmetry_Int_Tables_number	1
_symmetry_cell_setting	triclinic
loop_
_symmetry_equiv_pos_as_xyz
  x,y,z
_cell_length_a	12.759401
_cell_length_b	21.395361
_cell_length_c	12.759401
_cell_angle_alpha	89.984812
_cell_angle_beta	90.001129
_cell_angle_gamma	89.969131
loop_
_atom_site_label
_atom_site_type_symbol
_atom_site_fract_x
_atom_site_fract_y
_atom_site_fract_z
Zn1	Zn	1.605958	0.249548	0.593925
Zn2	Zn	1.605857	0.354296	0.418222
Zn3	Zn	1.430314	0.249536	0.418264
Zn4	Zn	1.430200	0.354292	0.593863
O5	O	1.518082	0.301918	0.506068
O6	O	1.752966	0.263449	0.570625
O7	O	1.582576	0.340396	0.271206
O8	O	1.453703	0.161860	0.441610
O9	O	1.752891	0.340407	0.441537
O10	O	1.582749	0.161868	0.570667
O11	O	1.453605	0.263430	0.271238
O12	O	1.283278	0.263426	0.441550
O13	O	1.453510	0.340400	0.740892
O14	O	1.283194	0.340389	0.570561
O15	O	1.582639	0.263445	0.740938
O16	O	1.582466	0.441973	0.441477
O17	O	1.453411	0.441970	0.570520
C18	C	1.517944	0.464705	0.506010
C19	C	1.517980	0.534347	0.506020
C20	C	1.245115	0.301906	0.506054
C21	C	1.128338	0.301916	0.506073
C22	C	1.518073	0.301923	0.780102
C23	C	1.518069	0.301926	0.896878
C24	C	1.073460	0.342055	0.573138
C25	C	0.963736	0.342063	0.573150
C26	C	0.963778	0.261792	0.439022
C27	C	1.073500	0.261781	0.439016
C28	C	1.073435	0.388401	0.650573
C29	C	0.963711	0.388409	0.650584
C30	C	1.792115	0.301930	0.506083
C31	C	1.908892	0.301935	0.506090
C32	C	1.518250	0.138495	0.506150
C33	C	1.518322	0.068853	0.506185
C34	C	1.585238	0.567041	0.438896
C35	C	1.585287	0.632476	0.438920
C36	C	1.518059	0.665215	0.506056
C37	C	1.450796	0.632513	0.573193
C38	C	1.450757	0.567079	0.573175
C39	C	1.423458	0.768931	0.514295
C40	C	1.423496	0.834364	0.514305
C41	C	1.518182	0.867036	0.506118
C42	C	1.612832	0.834267	0.497898
C43	C	1.612793	0.768833	0.497880
C44	C	1.518095	0.736167	0.506084
C45	C	1.585498	0.970682	0.439016
C46	C	1.585549	1.036119	0.439047
C47	C	1.451049	1.036155	0.573314
C48	C	1.451008	0.970719	0.573289
C49	C	1.518231	0.937987	0.506134
C50	C	1.585228	0.341998	1.061445
C51	C	1.585219	0.341999	0.951721
C52	C	1.450915	0.261854	0.951766
C53	C	1.450919	0.261857	1.061488
C54	C	1.662771	0.388267	1.061418
C55	C	1.662762	0.388267	0.951694
C56	C	1.518082	0.301928	1.233101
C57	C	1.518081	0.301929	1.116324
H58	H	0.919115	0.229115	0.384427
H59	H	1.396235	0.944098	0.627943
O60	O	1.627927	0.443208	0.910885
C61	C	1.630004	0.439960	0.800539
H62	H	1.627028	0.388954	0.774908
H63	H	1.705203	0.462344	0.770257
C64	C	1.538364	0.537722	0.787011
C65	C	1.534701	0.475075	0.755531
H66	H	1.479580	0.559385	0.759247
H67	H	1.536968	0.539912	0.861354
H68	H	1.601035	0.556367	0.761774
H69	H	1.472038	0.456429	0.780779
H70	H	1.536084	0.472883	0.681191
O71	O	1.385779	0.222949	0.898333
C72	C	1.400149	0.231551	0.789720
H73	H	1.481207	0.252073	0.774720
H74	H	1.337796	0.264914	0.758572
C75	C	1.291021	0.142950	0.751842
C76	C	1.390582	0.168151	0.733417
H77	H	1.285116	0.103842	0.717110
H78	H	1.281336	0.137156	0.825016
H79	H	1.239071	0.170759	0.725885
H80	H	1.442529	0.140345	0.759386
H81	H	1.400276	0.173939	0.660246
O82	O	1.755003	0.367627	1.102158
C83	C	1.799957	0.415059	1.164267
H84	H	1.736063	0.448602	1.191460
H85	H	1.860487	0.441732	1.116132
C86	C	1.932079	0.344331	1.227003
C87	C	1.853602	0.385526	1.260409
H88	H	1.965174	0.326115	1.286306
H89	H	1.901796	0.312375	1.185156
H90	H	1.982511	0.366565	1.186890
H91	H	1.803165	0.363291	1.300510
H92	H	1.883878	0.417478	1.302265
H93	H	1.396231	0.229235	1.106167
O94	O	1.636838	0.446203	1.096791
C95	C	1.710572	0.490050	1.059862
H96	H	1.750298	0.471006	0.986483
H97	H	1.772063	0.498848	1.122974
C98	C	1.605594	0.575176	1.123517
C99	C	1.654381	0.551788	1.033386
H100	H	1.570935	0.613260	1.107190
H101	H	1.555920	0.545636	1.148401
H102	H	1.656845	0.582503	1.176103
H103	H	1.603128	0.544454	0.980808
H104	H	1.704046	0.581328	1.008493
O105	O	1.650654	0.664147	0.373609
C106	C	1.709998	0.621225	0.314355
H107	H	1.666946	0.574603	0.310672
H108	H	1.789760	0.614217	0.352885
C109	C	1.778110	0.704047	0.207081
C110	C	1.725228	0.646786	0.202549
H111	H	1.787510	0.719815	0.138115
H112	H	1.738132	0.732965	0.247003
H113	H	1.844572	0.698199	0.239194
H114	H	1.658762	0.652636	0.170449
H115	H	1.765195	0.617870	0.162618
O116	O	1.759922	0.372835	0.916287
C117	C	1.833411	0.416832	0.953163
H118	H	1.801470	0.440514	1.026546
H119	H	1.848117	0.453507	0.890027
C120	C	1.976199	0.354275	0.889471
C121	C	1.936972	0.383357	0.979606
H122	H	2.040083	0.333627	0.905778
H123	H	1.926689	0.324633	0.864623
H124	H	1.988446	0.384842	0.836866
H125	H	1.924715	0.352789	1.032204
H126	H	1.986484	0.412992	1.004464
H127	H	1.118177	0.229092	0.384412
H128	H	1.395986	0.540459	0.627837
H129	H	1.107437	0.434464	0.621278
O130	O	1.109032	0.373098	0.747720
C131	C	1.170380	0.422480	0.787508
H132	H	1.147688	0.467903	0.746644
H133	H	1.256807	0.412231	0.772690
C134	C	1.179167	0.373122	0.956380
C135	C	1.151290	0.428912	0.906196
H136	H	1.167397	0.377088	1.029592
H137	H	1.137839	0.339851	0.929574
H138	H	1.251189	0.364587	0.944020
H139	H	1.079268	0.437442	0.918545
H140	H	1.192606	0.462185	0.933007
H141	H	0.929698	0.371108	0.727940
H142	H	1.689934	0.860867	0.491231
O143	O	0.928259	0.446322	0.624524
C144	C	0.965138	0.490240	0.698156
H145	H	1.038548	0.471234	0.737919
H146	H	0.902022	0.499097	0.759633
C147	C	0.901353	0.575265	0.592994
C148	C	0.991523	0.551924	0.641825
H149	H	0.917624	0.613316	0.558248
H150	H	0.876504	0.545677	0.543388
H151	H	0.848765	0.582641	0.644233
H152	H	1.044104	0.544541	0.590584
H153	H	1.016382	0.581512	0.691421
O154	O	1.650899	0.938978	0.373756
C155	C	1.710262	0.981870	0.314500
H156	H	1.713900	1.028499	0.357555
H157	H	1.671858	0.988876	0.234679
C158	C	1.817606	0.899002	0.246559
C159	C	1.822081	0.956271	0.299444
H160	H	1.886580	0.883211	0.237267
H161	H	1.777609	0.870104	0.286478
H162	H	1.785598	0.904848	0.180047
H163	H	1.854076	0.950423	0.365960
H164	H	1.862086	0.985167	0.259536
O165	O	1.704826	0.737097	0.489944
C166	C	1.788411	0.779959	0.482692
H167	H	1.763540	0.826609	0.517983
H168	H	1.810309	0.786925	0.396858
C169	C	1.914276	0.697055	0.499703
C170	C	1.883732	0.754350	0.543056
H171	H	1.973077	0.681258	0.536934
H172	H	1.857964	0.668178	0.504585
H173	H	1.932517	0.702868	0.428176
H174	H	1.865479	0.748535	0.614577
H175	H	1.940043	0.783226	0.538188
H176	H	1.639978	0.540392	0.384217
O177	O	1.651085	1.067879	0.374037
C178	C	1.718902	1.105646	0.433993
H179	H	1.725182	1.085900	0.516748
H180	H	1.686532	1.155275	0.437559
C181	C	1.820509	1.130785	0.281239
C182	C	1.828230	1.106530	0.382878
H183	H	1.887947	1.131333	0.249708
H184	H	1.774819	1.105343	0.240844
H185	H	1.793531	1.172141	0.284225
H186	H	1.855195	1.065173	0.379891
H187	H	1.873928	1.131965	0.423272
H188	H	1.396315	1.062810	0.627983
H189	H	1.346348	0.742336	0.520966
O190	O	1.331468	0.866096	0.522341
C191	C	1.247887	0.823230	0.529553
H192	H	1.278464	0.776563	0.560015
H193	H	1.211549	0.816308	0.448761
C194	C	1.126816	0.906112	0.568003
C195	C	1.164369	0.848796	0.605426
H196	H	1.075295	0.921883	0.614801
H197	H	1.183125	0.934992	0.563141
H198	H	1.096541	0.900336	0.500677
H199	H	1.194655	0.854574	0.672744
H200	H	1.108063	0.819917	0.610301
O201	O	1.385636	0.664382	0.638460
C202	C	1.445418	0.702172	0.706393
H203	H	1.525074	0.711942	0.669408
H204	H	1.456883	0.676930	0.784256
C205	C	1.289799	0.752355	0.770807
C206	C	1.387630	0.764358	0.725377
H207	H	1.254151	0.790713	0.782522
H208	H	1.249521	0.726893	0.725042
H209	H	1.299366	0.731318	0.835687
H210	H	1.378060	0.785388	0.660492
H211	H	1.427905	0.789825	0.771132
