data_functionalizedCrystal
_audit_creation_method	'MofGen! by Chris Wilmer'
_symmetry_space_group_name_H-M	'P1'
_symmetry_Int_Tables_number	1
_symmetry_cell_setting	triclinic
loop_
_symmetry_equiv_pos_as_xyz
  x,y,z
_cell_length_a	21.395363
_cell_length_b	17.077404
_cell_length_c	17.077396
_cell_angle_alpha	90.019777
_cell_angle_beta	89.983349
_cell_angle_gamma	90.002924
loop_
_atom_site_label
_atom_site_type_symbol
_atom_site_fract_x
_atom_site_fract_y
_atom_site_fract_z
Zn1	Zn	0.249516	1.200170	0.443913
Zn2	Zn	0.582849	1.533504	0.777246
Zn3	Zn	0.916182	1.866837	1.110580
Zn4	Zn	0.354297	1.200126	0.312674
Zn5	Zn	0.687630	1.533459	0.646007
Zn6	Zn	1.020964	1.866793	0.979341
Zn7	Zn	0.249529	1.068902	0.312660
Zn8	Zn	0.582862	1.402235	0.645994
Zn9	Zn	0.916195	1.735569	0.979327
Zn10	Zn	0.354251	1.068919	0.443897
Zn11	Zn	0.687584	1.402252	0.777230
Zn12	Zn	1.020917	1.735585	1.110564
O13	O	0.301898	1.134529	0.378286
O14	O	0.635231	1.467863	0.711619
O15	O	0.968565	1.801196	1.044953
O16	O	0.263429	1.310011	0.426516
O17	O	0.596762	1.643345	0.759850
O18	O	0.930095	1.976678	1.093183
O19	O	0.340424	1.182693	0.202825
O20	O	0.673757	1.516027	0.536159
O21	O	1.007091	1.849360	0.869492
O22	O	0.161849	1.086327	0.330072
O23	O	0.495182	1.419660	0.663406
O24	O	0.828516	1.752993	0.996739
O25	O	0.340411	1.309979	0.330096
O26	O	0.673744	1.643312	0.663429
O27	O	1.007078	1.976645	0.996762
O28	O	0.161839	1.182769	0.426503
O29	O	0.495173	1.516102	0.759836
O30	O	0.828506	1.849436	1.093170
O31	O	0.263451	1.086284	0.202815
O32	O	0.596785	1.419617	0.536149
O33	O	0.930118	1.752950	0.869482
O34	O	0.263407	0.959057	0.330057
O35	O	0.596740	1.292391	0.663390
O36	O	0.930073	1.625724	0.996723
O37	O	0.340333	1.086355	0.553746
O38	O	0.673666	1.419688	0.887080
O39	O	1.006999	1.753022	1.220413
O40	O	0.340345	0.959070	0.426476
O41	O	0.673679	1.292403	0.759809
O42	O	1.007012	1.625736	1.093142
O43	O	0.263384	1.182785	0.553758
O44	O	0.596718	1.516118	0.887091
O45	O	0.930051	1.849452	1.220425
O46	O	0.441969	1.182709	0.330080
O47	O	0.775302	1.516043	0.663414
O48	O	1.108635	1.849376	0.996747
O49	O	0.441935	1.086312	0.426489
O50	O	0.775268	1.419645	0.759823
O51	O	1.108601	1.752979	1.093156
C52	C	0.301873	0.930581	0.378264
C53	C	0.635206	1.263915	0.711597
C54	C	0.968540	1.597248	1.044930
C55	C	0.301877	0.843332	0.378272
C56	C	0.635211	1.176665	0.711606
C57	C	0.968544	1.509998	1.044939
C58	C	0.342050	0.467544	0.428435
C59	C	0.675383	0.800877	0.761769
C60	C	1.008716	1.134211	1.095102
C61	C	0.342042	0.549525	0.428423
C62	C	0.675375	0.882858	0.761757
C63	C	1.008708	1.216191	1.095090
C64	C	0.301915	0.590483	0.378299
C65	C	0.635248	0.923816	0.711632
C66	C	0.968581	1.257149	1.044965
C67	C	0.261798	0.549456	0.328177
C68	C	0.595131	0.882789	0.661511
C69	C	0.928464	1.216123	0.994844
C70	C	0.261810	0.467477	0.328186
C71	C	0.595143	0.800810	0.661519
C72	C	0.928476	1.134144	0.994852
C73	C	0.261775	0.720326	0.328164
C74	C	0.595108	1.053659	0.661498
C75	C	0.928442	1.386993	0.994831
C76	C	0.261762	0.802311	0.328156
C77	C	0.595095	1.135644	0.661490
C78	C	0.928429	1.468977	0.994823
C79	C	0.342007	0.802374	0.428402
C80	C	0.675340	1.135707	0.761735
C81	C	1.008674	1.469040	1.095068
C82	C	0.342019	0.720395	0.428410
C83	C	0.675352	1.053728	0.761744
C84	C	1.008685	1.387061	1.095077
C85	C	0.301901	0.679374	0.378290
C86	C	0.635234	1.012707	0.711623
C87	C	0.968567	1.346040	1.044956
C88	C	0.138475	1.134551	0.378288
C89	C	0.471808	1.467884	0.711621
C90	C	0.805141	1.801218	1.044955
C91	C	0.068833	1.134560	0.378289
C92	C	0.402167	1.467894	0.711622
C93	C	0.735500	1.801227	1.044955
C94	C	0.036107	1.084371	0.428479
C95	C	0.369441	1.417705	0.761813
C96	C	0.702774	1.751038	1.095146
C97	C	-0.029328	1.084379	0.428490
C98	C	0.304005	1.417712	0.761824
C99	C	0.637339	1.751045	1.095157
C100	C	-0.062035	1.134567	0.378296
C101	C	0.271298	1.467900	0.711630
C102	C	0.604632	1.801233	1.044963
C103	C	-0.029301	1.184765	0.328102
C104	C	0.304033	1.518099	0.661435
C105	C	0.637366	1.851432	0.994769
C106	C	0.036133	1.184762	0.328098
C107	C	0.369467	1.518095	0.661431
C108	C	0.702800	1.851429	0.994765
C109	C	-0.165688	1.140751	0.307581
C110	C	0.167645	1.474085	0.640914
C111	C	0.500979	1.807418	0.974247
C112	C	-0.231121	1.140749	0.307583
C113	C	0.102212	1.474082	0.640917
C114	C	0.435546	1.807416	0.974250
C115	C	-0.263856	1.134582	0.378309
C116	C	0.069478	1.467915	0.711642
C117	C	0.402811	1.801248	1.044976
C118	C	-0.231149	1.128400	0.449034
C119	C	0.102184	1.461733	0.782367
C120	C	0.435517	1.795067	1.115701
C121	C	-0.165715	1.128397	0.449030
C122	C	0.167618	1.461730	0.782363
C123	C	0.500952	1.795063	1.115697
C124	C	-0.132987	1.134576	0.378295
C125	C	0.200346	1.467910	0.711629
C126	C	0.533679	1.801243	1.044962
C127	C	-0.367534	1.084398	0.428516
C128	C	-0.034201	1.417732	0.761849
C129	C	0.299132	1.751065	1.095182
C130	C	-0.432971	1.084411	0.428528
C131	C	-0.099638	1.417744	0.761861
C132	C	0.233696	1.751078	1.095195
C133	C	-0.432942	1.184794	0.328133
C134	C	-0.099609	1.518127	0.661466
C135	C	0.233724	1.851460	0.994799
C136	C	-0.367507	1.184785	0.328127
C137	C	-0.034174	1.518118	0.661461
C138	C	0.299160	1.851451	0.994794
C139	C	-0.334807	1.134583	0.378318
C140	C	-0.001474	1.467916	0.711651
C141	C	0.331860	1.801250	1.044985
C142	C	0.464686	1.134529	0.378302
C143	C	0.798019	1.467862	0.711635
C144	C	1.131352	1.801196	1.044968
C145	C	0.534327	1.134601	0.378334
C146	C	0.867660	1.467934	0.711668
C147	C	1.200993	1.801267	1.045001
C148	C	0.301852	1.134577	0.583031
C149	C	0.635185	1.467910	0.916364
C150	C	0.968519	1.801243	1.249697
C151	C	0.301832	1.134597	0.670280
C152	C	0.635166	1.467930	1.003614
C153	C	0.968499	1.801264	1.336947
C154	C	0.301924	1.339273	0.378309
C155	C	0.635257	1.672607	0.711643
C156	C	0.968590	2.005940	1.044976
C157	C	0.301935	1.426523	0.378319
C158	C	0.635268	1.759857	0.711653
C159	C	0.968601	2.093190	1.044986
C160	C	0.301899	1.134527	0.174338
C161	C	0.635232	1.467860	0.507672
C162	C	0.968565	1.801194	0.841005
C163	C	0.301742	1.134659	0.087089
C164	C	0.635075	1.467992	0.420422
C165	C	0.968409	1.801326	0.753756
C166	C	0.261762	1.184810	0.711278
C167	C	0.595095	1.518143	1.044611
C168	C	0.928428	1.851477	1.377945
C169	C	0.261741	1.184819	0.793258
C170	C	0.595074	1.518153	1.126592
C171	C	0.928408	1.851486	1.459925
C172	C	0.301794	1.134619	0.834240
C173	C	0.635127	1.467953	1.167573
C174	C	0.968461	1.801286	1.500907
C175	C	0.341866	1.084401	0.793237
C176	C	0.675200	1.417734	1.126570
C177	C	1.008533	1.751067	1.459903
C178	C	0.341884	1.084388	0.711258
C179	C	0.675217	1.417721	1.044591
C180	C	1.008550	1.751055	1.377924
C181	C	0.341829	1.084432	0.964107
C182	C	0.675162	1.417766	1.297440
C183	C	1.008495	1.751099	1.630773
C184	C	0.341812	1.084446	1.046091
C185	C	0.675146	1.417779	1.379425
C186	C	1.008479	1.751113	1.712758
C187	C	0.261686	1.184864	1.046108
C188	C	0.595019	1.518197	1.379441
C189	C	0.928353	1.851530	1.712774
C190	C	0.261703	1.184851	0.964129
C191	C	0.595037	1.518184	1.297462
C192	C	0.928370	1.851518	1.630795
C193	C	0.301776	1.134633	0.923131
C194	C	0.635110	1.467967	1.256464
C195	C	0.968443	1.801300	1.589798
H196	H	0.062728	1.043491	0.469346
H197	H	0.396061	1.376824	0.802679
H198	H	0.729394	1.710157	1.136013
Br199	Br	0.080551	1.252882	0.259978
Br200	Br	0.413884	1.586215	0.593311
Br201	Br	0.747218	1.919549	0.926644
H202	H	-0.257748	1.145778	0.249996
H203	H	0.075586	1.479111	0.583329
H204	H	0.408919	1.812445	0.916663
H205	H	0.374476	1.043524	0.826610
H206	H	0.707809	1.376857	1.159944
H207	H	1.041143	1.710191	1.493277
Br208	Br	0.207309	0.857897	0.260123
Br209	Br	0.540642	1.191230	0.593457
Br210	Br	0.873975	1.524564	0.926790
Br211	Br	0.207371	0.411805	0.260162
Br212	Br	0.540704	0.745138	0.593495
Br213	Br	0.874037	1.078471	0.926829
Br214	Br	0.207350	1.252987	0.908511
Br215	Br	0.540684	1.586321	1.241844
Br216	Br	0.874017	1.919654	1.575177
Br217	Br	-0.121269	1.149129	0.211588
Br218	Br	0.212064	1.482463	0.544921
Br219	Br	0.545398	1.815796	0.878254
Br220	Br	0.396263	1.016234	0.655617
Br221	Br	0.729596	1.349568	0.988950
Br222	Br	1.062930	1.682901	1.322284
H223	H	-0.055979	1.043508	0.469363
H224	H	0.277355	1.376841	0.802697
H225	H	0.610688	1.710174	1.136030
Br226	Br	-0.323089	1.252900	0.260006
Br227	Br	0.010244	1.586234	0.593339
Br228	Br	0.343577	1.919567	0.926672
H229	H	-0.055934	1.225631	0.287235
H230	H	0.277400	1.558964	0.620568
H231	H	0.610733	1.892297	0.953901
Br232	Br	0.207406	1.252949	0.655668
Br233	Br	0.540739	1.586282	0.989001
Br234	Br	0.874072	1.919615	1.322335
Br235	Br	0.396472	0.664808	0.496444
Br236	Br	0.729805	0.998142	0.829777
Br237	Br	1.063139	1.331475	1.163110
Br238	Br	0.207303	1.253020	1.101746
Br239	Br	0.540637	1.586353	1.435079
Br240	Br	0.873970	1.919686	1.768412
H241	H	0.374671	0.835777	0.469214
H242	H	0.708004	1.169110	0.802547
H243	H	1.041337	1.502443	1.135880
Br244	Br	-0.477323	1.252916	0.260019
Br245	Br	-0.143989	1.586249	0.593352
Br246	Br	0.189344	1.919582	0.926686
H247	H	-0.139088	1.123374	0.506618
H248	H	0.194245	1.456707	0.839951
H249	H	0.527578	1.790040	1.173284
H250	H	0.374426	1.043567	1.079456
H251	H	0.707759	1.376900	1.412790
H252	H	1.041093	1.710234	1.746123
Br253	Br	0.207334	0.664655	0.260137
Br254	Br	0.540667	0.997989	0.593470
Br255	Br	0.874000	1.331322	0.926803
Br256	Br	0.396212	1.016276	0.908467
Br257	Br	0.729545	1.349610	1.241801
Br258	Br	1.062879	1.682943	1.575134
Br259	Br	0.396506	0.411966	0.496471
Br260	Br	0.729839	0.745299	0.829805
Br261	Br	1.063173	1.078633	1.163138
H262	H	-0.257801	1.123376	0.506625
H263	H	0.075532	1.456710	0.839958
H264	H	0.408865	1.790043	1.173292
Br265	Br	0.207386	1.253005	0.848895
Br266	Br	0.540720	1.586338	1.182229
Br267	Br	0.874053	1.919672	1.515562
H268	H	0.229128	0.582811	0.287361
H269	H	0.562462	0.916144	0.620695
H270	H	0.895795	1.249477	0.954028
Br271	Br	-0.323152	1.016267	0.496627
Br272	Br	0.010181	1.349600	0.829960
Br273	Br	0.343515	1.682933	1.163293
Br274	Br	-0.477387	1.016300	0.496659
Br275	Br	-0.144053	1.349633	0.829992
Br276	Br	0.189280	1.682966	1.163325
Br277	Br	0.396489	0.605193	0.496437
Br278	Br	0.729822	0.938526	0.829770
Br279	Br	1.063156	1.271860	1.163104
