data_functionalizedCrystal
_audit_creation_method	'MofGen! by Chris Wilmer'
_symmetry_space_group_name_H-M	'P1'
_symmetry_Int_Tables_number	1
_symmetry_cell_setting	triclinic
loop_
_symmetry_equiv_pos_as_xyz
  x,y,z
_cell_length_a	21.395362
_cell_length_b	21.395361
_cell_length_c	21.395356
_cell_angle_alpha	90.028614
_cell_angle_beta	90.035770
_cell_angle_gamma	90.046585
loop_
_atom_site_label
_atom_site_type_symbol
_atom_site_fract_x
_atom_site_fract_y
_atom_site_fract_z
Zn1	Zn	0.957809	-0.249202	0.354573
Zn2	Zn	0.957726	-0.353974	0.249790
Zn3	Zn	0.853039	-0.249244	0.249774
Zn4	Zn	0.852993	-0.353974	0.354494
O5	O	0.905392	-0.301599	0.302158
O6	O	1.045476	-0.263082	0.340712
O7	O	0.943824	-0.340099	0.162110
O8	O	0.866991	-0.161560	0.263702
O9	O	1.045415	-0.340059	0.263729
O10	O	0.943965	-0.161529	0.340697
O11	O	0.866910	-0.263154	0.162098
O12	O	0.765355	-0.263154	0.263626
O13	O	0.866913	-0.340058	0.442183
O14	O	0.765321	-0.340099	0.340564
O15	O	0.943920	-0.263082	0.442240
O16	O	0.943780	-0.441652	0.263653
O17	O	0.866832	-0.441652	0.340579
C18	C	0.742604	-0.301632	0.302085
C19	C	0.672963	-0.301661	0.302069
C20	C	0.640249	-0.341779	0.342070
C21	C	0.574813	-0.341764	0.342098
C22	C	0.542095	-0.301637	0.302113
C23	C	0.574817	-0.261511	0.262109
C24	C	0.640251	-0.261523	0.262087
C25	C	0.438378	-0.296596	0.245708
C26	C	0.372945	-0.296589	0.245730
C27	C	0.340274	-0.301596	0.302182
C28	C	0.373044	-0.306624	0.358616
C29	C	0.438478	-0.306636	0.358593
C30	C	0.471142	-0.301619	0.302133
C31	C	0.236607	-0.341700	0.342218
C32	C	0.171171	-0.341680	0.342247
C33	C	0.171175	-0.261430	0.262252
C34	C	0.236611	-0.261446	0.262229
C35	C	0.269323	-0.301585	0.302211
C36	C	0.905309	-0.464386	0.302123
C37	C	0.905331	-0.534027	0.302129
C38	C	0.945433	-0.566720	0.262114
C39	C	0.945462	-0.632155	0.262128
C40	C	0.905378	-0.664896	0.302150
C41	C	0.865273	-0.632196	0.342172
C42	C	0.865250	-0.566761	0.342162
C43	C	0.848963	-0.768626	0.307041
C44	C	0.848985	-0.834059	0.307047
C45	C	0.905451	-0.866716	0.302187
C46	C	0.961896	-0.833933	0.297307
C47	C	0.961873	-0.768499	0.297296
C48	C	0.905399	-0.735848	0.302167
C49	C	0.945588	-0.970361	0.262186
C50	C	0.945618	-1.035798	0.262204
C51	C	0.865424	-1.035837	0.342245
C52	C	0.865399	-0.970402	0.342230
C53	C	0.905481	-0.937668	0.302197
C54	C	1.068815	-0.301566	0.302231
C55	C	1.138456	-0.301552	0.302262
C56	C	0.905421	-0.301566	0.465581
C57	C	0.905433	-0.301552	0.535222
C58	C	0.905492	-0.138175	0.302206
C59	C	0.905535	-0.068534	0.302227
C60	C	0.905399	-0.301586	0.139370
C61	C	0.905508	-0.301424	0.069729
C62	C	0.945552	-0.341486	1.037025
C63	C	0.945541	-0.341505	0.971590
C64	C	0.905493	-0.301452	0.938861
C65	C	0.865441	-0.261388	0.971573
C66	C	0.865449	-0.261373	1.037007
C67	C	0.900567	-0.245027	0.835207
C68	C	0.900563	-0.245040	0.769774
C69	C	0.905464	-0.301497	0.737040
C70	C	0.910382	-0.357942	0.769747
C71	C	0.910390	-0.357928	0.835181
C72	C	0.905479	-0.301464	0.867908
C73	C	0.945498	-0.341584	0.633383
C74	C	0.945482	-0.341604	0.567947
C75	C	0.865386	-0.261481	0.567931
C76	C	0.865398	-0.261466	0.633366
C77	C	0.905458	-0.301516	0.666089
H78	H	0.263247	-0.228781	0.229652
H79	H	0.832776	-0.228870	0.541284
O80	O	0.788057	-0.733403	0.312280
H81	H	0.748812	-0.767191	0.315663
O82	O	0.539537	-0.218228	0.218979
H83	H	0.552049	-0.228909	0.169783
O84	O	1.022751	-0.733143	0.292039
H85	H	1.021775	-0.703365	0.249585
O86	O	0.915683	-0.418806	0.870454
H87	H	0.958133	-0.417802	0.900286
O88	O	0.822217	-0.218247	0.668647
H89	H	0.794371	-0.190393	0.634897
H90	H	0.914374	-0.403915	0.743096
O91	O	1.022799	-0.869155	0.292059
H92	H	1.046190	-0.856605	0.247502
O93	O	0.988826	-0.935043	0.219026
H94	H	0.978130	-0.947645	0.169837
O95	O	0.988872	-1.071064	0.219043
H96	H	1.016732	-1.037306	0.191201
H97	H	0.144536	-0.374348	0.374824
H98	H	0.666879	-0.374462	0.374627
H99	H	0.832790	-1.062494	0.374834
O100	O	0.473615	-0.291197	0.184816
H101	H	0.439837	-0.287709	0.145580
O102	O	0.988734	-0.384715	0.936305
H103	H	1.020615	-0.356663	0.906516
H104	H	0.548172	-0.374433	0.374674
H105	H	0.896617	-0.199046	0.861853
O106	O	0.822133	-0.935144	0.385383
H107	H	0.850140	-0.905281	0.417298
O108	O	0.788110	-0.869417	0.312310
H109	H	0.748842	-0.835717	0.315701
H110	H	0.144536	-0.228755	0.229699
O111	O	0.822032	-0.667503	0.385333
H112	H	0.828778	-0.718496	0.378612
H113	H	0.832833	-0.228777	0.944920
H114	H	0.832840	-0.228749	1.063634
H115	H	0.832594	-0.540143	0.374747
H116	H	0.666886	-0.228852	0.229513
O117	O	0.337601	-0.291163	0.184867
H118	H	0.371310	-0.287668	0.145609
H119	H	0.896563	-0.199078	0.743149
H120	H	0.978115	-0.374197	0.660027
H121	H	0.978071	-0.540070	0.229519
O122	O	0.988739	-0.384698	1.072320
H123	H	1.016574	-0.412567	1.038581
O124	O	0.988683	-0.384812	0.532674
H125	H	0.977925	-0.433988	0.545220
O126	O	0.473826	-0.312046	0.419455
H127	H	0.440120	-0.315520	0.458718
O128	O	0.988714	-0.667437	0.218973
H129	H	0.977990	-0.654935	0.169781
O130	O	0.337818	-0.312020	0.419512
H131	H	0.286812	-0.311158	0.410051
H132	H	0.263243	-0.374380	0.374776
