data_functionalizedCrystal
_audit_creation_method	'MofGen! by Chris Wilmer'
_symmetry_space_group_name_H-M	'P1'
_symmetry_Int_Tables_number	1
_symmetry_cell_setting	triclinic
loop_
_symmetry_equiv_pos_as_xyz
  x,y,z
_cell_length_a	17.077404
_cell_length_b	17.077402
_cell_length_c	17.077396
_cell_angle_alpha	89.969381
_cell_angle_beta	89.982756
_cell_angle_gamma	90.023108
loop_
_atom_site_label
_atom_site_type_symbol
_atom_site_fract_x
_atom_site_fract_y
_atom_site_fract_z
Zn1	Zn	1.200037	-0.312497	-0.443836
Zn2	Zn	1.700037	0.187503	0.056164
Zn3	Zn	1.199949	-0.443774	-0.312567
Zn4	Zn	1.699949	0.056226	0.187433
Zn5	Zn	1.068774	-0.312526	-0.312584
Zn6	Zn	1.568774	0.187474	0.187416
Zn7	Zn	1.068737	-0.443725	-0.443790
Zn8	Zn	1.568737	0.056275	0.056210
O9	O	1.134374	-0.378131	-0.378194
O10	O	1.634374	0.121869	0.121806
O11	O	1.309872	-0.329919	-0.426434
O12	O	1.809872	0.170081	0.073566
O13	O	1.182528	-0.426396	-0.202722
O14	O	1.682528	0.073604	0.297278
O15	O	1.086239	-0.202676	-0.330021
O16	O	1.586239	0.297324	0.169979
O17	O	1.309808	-0.426368	-0.329992
O18	O	1.809808	0.073632	0.170008
O19	O	1.182677	-0.202654	-0.426451
O20	O	1.682677	0.297346	0.073549
O21	O	1.086154	-0.329969	-0.202734
O22	O	1.586154	0.170031	0.297266
O23	O	0.958922	-0.329922	-0.329976
O24	O	1.458922	0.170078	0.170024
O25	O	1.086175	-0.426285	-0.553643
O26	O	1.586175	0.073715	-0.053643
O27	O	0.958895	-0.426313	-0.426373
O28	O	1.458895	0.073687	0.073627
O29	O	1.182641	-0.329872	-0.553677
O30	O	1.682641	0.170128	-0.053677
O31	O	1.182492	-0.553614	-0.329948
O32	O	1.682492	-0.053614	0.170052
O33	O	1.086090	-0.553579	-0.426357
O34	O	1.586090	-0.053579	0.073643
C35	C	0.930427	-0.378116	-0.378172
C36	C	1.430427	0.121884	0.121828
C37	C	0.843177	-0.378129	-0.378182
C38	C	1.343177	0.121871	0.121818
C39	C	0.802193	-0.428396	-0.428295
C40	C	1.302193	0.071604	0.071705
C41	C	0.720212	-0.428398	-0.428308
C42	C	1.220212	0.071602	0.071692
C43	C	0.679217	-0.378136	-0.378202
C44	C	1.179217	0.121864	0.121798
C45	C	0.720207	-0.327864	-0.328087
C46	C	1.220207	0.172136	0.171913
C47	C	0.802186	-0.327859	-0.328079
C48	C	1.302186	0.172141	0.171921
C49	C	0.549337	-0.327879	-0.328106
C50	C	1.049337	0.172121	0.171894
C51	C	0.467352	-0.327885	-0.328112
C52	C	0.967352	0.172115	0.171888
C53	C	0.467363	-0.428418	-0.428335
C54	C	0.967363	0.071582	0.071665
C55	C	0.549342	-0.428413	-0.428326
C56	C	1.049342	0.071587	0.071674
C57	C	0.590326	-0.378142	-0.378210
C58	C	1.090326	0.121858	0.121790
C59	C	1.134299	-0.582078	-0.378163
C60	C	1.634299	-0.082078	0.121837
C61	C	1.134338	-0.669328	-0.378176
C62	C	1.634338	-0.169328	0.121824
C63	C	1.184585	-0.710311	-0.328029
C64	C	1.684585	-0.210311	0.171971
C65	C	1.184624	-0.792291	-0.328049
C66	C	1.684624	-0.292291	0.171951
C67	C	1.134410	-0.833288	-0.378212
C68	C	1.634410	-0.333288	0.121788
C69	C	1.084161	-0.792299	-0.428364
C70	C	1.584161	-0.292299	0.071636
C71	C	1.084127	-0.710320	-0.428348
C72	C	1.584127	-0.210320	0.071652
C73	C	1.084233	-0.963169	-0.428394
C74	C	1.584233	-0.463169	0.071606
C75	C	1.084266	-1.045154	-0.428410
C76	C	1.584266	-0.545154	0.071590
C77	C	1.184730	-1.045140	-0.328096
C78	C	1.684730	-0.545140	0.171904
C79	C	1.184697	-0.963161	-0.328079
C80	C	1.684697	-0.463161	0.171921
C81	C	1.134446	-0.922179	-0.378230
C82	C	1.634446	-0.422179	0.121770
C83	C	1.339119	-0.378145	-0.378216
C84	C	1.839119	0.121855	0.121784
C85	C	1.426368	-0.378152	-0.378226
C86	C	1.926368	0.121848	0.121774
C87	C	1.134414	-0.378070	-0.582938
C88	C	1.634414	0.121930	-0.082938
C89	C	1.134431	-0.378044	-0.670188
C90	C	1.634431	0.121956	-0.170188
C91	C	1.134472	-0.173386	-0.378243
C92	C	1.634472	0.326614	0.121757
C93	C	1.134513	-0.086136	-0.378263
C94	C	1.634513	0.413864	0.121737
C95	C	1.084264	-0.327828	-0.711184
C96	C	1.584264	0.172172	-0.211184
C97	C	1.084277	-0.327811	-0.793165
C98	C	1.584277	0.172189	-0.293165
C99	C	1.134461	-0.378005	-0.834148
C100	C	1.634461	0.121995	-0.334148
C101	C	1.184630	-0.428226	-0.793146
C102	C	1.684630	0.071774	-0.293146
C103	C	1.184612	-0.428247	-0.711167
C104	C	1.684612	0.071753	-0.211167
C105	C	1.184664	-0.428177	-0.964016
C106	C	1.684664	0.071823	-0.464016
C107	C	1.184682	-0.428155	-1.046001
C108	C	1.684682	0.071845	-0.546001
C109	C	1.084328	-0.327740	-1.046014
C110	C	1.584328	0.172260	-0.546014
C111	C	1.084311	-0.327762	-0.964035
C112	C	1.584311	0.172238	-0.464035
C113	C	1.134481	-0.377982	-0.923039
C114	C	1.634481	0.122018	-0.423039
C115	C	1.134380	-0.378135	-0.174246
C116	C	1.634380	0.121865	0.325754
C117	C	1.134516	-0.377939	-0.086997
C118	C	1.634516	0.122061	0.413003
H119	H	0.686847	-0.469330	-0.469114
H120	H	1.186847	0.030670	0.030886
H121	H	1.043279	-0.825685	-0.469211
H122	H	1.543279	-0.325685	0.030789
H123	H	1.043316	-0.929804	-0.469235
H124	H	1.543316	-0.429804	0.030765
Cl125	Cl	1.247714	-0.491333	-0.844668
Cl126	Cl	1.747714	0.008667	-0.344668
H127	H	0.433976	-0.286948	-0.287321
H128	H	0.933976	0.213052	0.212679
Cl129	Cl	1.020959	-0.658799	-0.491394
Cl130	Cl	1.520959	-0.158799	0.008606
H131	H	1.225469	-0.469132	-0.677789
H132	H	1.725469	0.030868	-0.177789
H133	H	1.225524	-0.469065	-0.930640
H134	H	1.725524	0.030935	-0.430640
Cl135	Cl	1.021259	-0.264605	-1.097551
Cl136	Cl	1.521259	0.235395	-0.597551
Cl137	Cl	0.600858	-0.264680	-0.265100
Cl138	Cl	1.100858	0.235320	0.234900
Cl139	Cl	0.853709	-0.264662	-0.265078
Cl140	Cl	1.353709	0.235338	0.234922
H141	H	0.686822	-0.286937	-0.287293
H142	H	1.186822	0.213063	0.212707
Cl143	Cl	1.021176	-0.264719	-0.659671
Cl144	Cl	1.521176	0.235281	-0.159671
H145	H	1.043423	-0.286923	-0.826540
H146	H	1.543423	0.213077	-0.326540
Cl147	Cl	1.021227	-0.264654	-0.912514
Cl148	Cl	1.521227	0.235346	-0.412514
H149	H	1.225546	-0.469027	-1.079367
H150	H	1.725546	0.030973	-0.579367
H151	H	1.225649	-1.078512	-0.287263
H152	H	1.725649	-0.578512	0.212737
Cl153	Cl	0.853722	-0.491589	-0.491285
Cl154	Cl	1.353722	0.008411	0.008715
H155	H	0.433990	-0.469349	-0.469144
H156	H	0.933990	0.030651	0.030856
H157	H	1.225472	-0.676937	-0.287177
H158	H	1.725472	-0.176937	0.212823
Cl159	Cl	1.247797	-0.843809	-0.265007
Cl160	Cl	1.747797	-0.343809	0.234993
Cl161	Cl	1.247823	-0.911624	-0.265016
Cl162	Cl	1.747823	-0.411624	0.234984
Cl163	Cl	0.600878	-0.491605	-0.491312
Cl164	Cl	1.100878	0.008395	0.008688
H165	H	1.043392	-1.078531	-0.469272
H166	H	1.543392	-0.578531	0.030728
