data_functionalizedCrystal
_audit_creation_method	'MofGen! by Chris Wilmer'
_symmetry_space_group_name_H-M	'P1'
_symmetry_Int_Tables_number	1
_symmetry_cell_setting	triclinic
loop_
_symmetry_equiv_pos_as_xyz
  x,y,z
_cell_length_a	12.759401
_cell_length_b	12.759399
_cell_length_c	12.759393
_cell_angle_alpha	89.967969
_cell_angle_beta	89.980163
_cell_angle_gamma	90.016641
loop_
_atom_site_label
_atom_site_type_symbol
_atom_site_fract_x
_atom_site_fract_y
_atom_site_fract_z
Zn1	Zn	1.606252	-0.418161	-0.594017
Zn2	Zn	1.606145	-0.593880	-0.418336
Zn3	Zn	1.430554	-0.418220	-0.418352
Zn4	Zn	1.430541	-0.593803	-0.593973
O5	O	1.518373	-0.506016	-0.506170
O6	O	1.753259	-0.441478	-0.570724
O7	O	1.582813	-0.570635	-0.271317
O8	O	1.453911	-0.271191	-0.441680
O9	O	1.753180	-0.570578	-0.441652
O10	O	1.582995	-0.271148	-0.570740
O11	O	1.453807	-0.441579	-0.271329
O12	O	1.283531	-0.441505	-0.441637
O13	O	1.453889	-0.570447	-0.741000
O14	O	1.283522	-0.570504	-0.570665
O15	O	1.582983	-0.441403	-0.741032
O16	O	1.582801	-0.740891	-0.441609
O17	O	1.453785	-0.740834	-0.570649
C18	C	1.245406	-0.506003	-0.506149
C19	C	1.128629	-0.506023	-0.506165
C20	C	1.073790	-0.573296	-0.573244
C21	C	0.964066	-0.573300	-0.573265
C22	C	0.964030	-0.438756	-0.439118
C23	C	1.073752	-0.438747	-0.439104
C24	C	1.518309	-0.778984	-0.506146
C25	C	1.518377	-0.895760	-0.506171
C26	C	1.585632	-0.950617	-0.439056
C27	C	1.585700	-1.060341	-0.439091
C28	C	1.451248	-1.060342	-0.573359
C29	C	1.451187	-0.950620	-0.573328
C30	C	1.792406	-0.506030	-0.506191
C31	C	1.909183	-0.506036	-0.506200
C32	C	1.518446	-0.505910	-0.780203
C33	C	1.518478	-0.505865	-0.896980
C34	C	1.518466	-0.231983	-0.506217
C35	C	1.518506	-0.115206	-0.506237
C36	C	1.451328	-0.438653	-0.951848
C37	C	1.451353	-0.438620	-1.061572
C38	C	1.585685	-0.573015	-1.061551
C39	C	1.585654	-0.573052	-0.951829
C40	C	1.518360	-0.506046	-0.233202
C41	C	1.518533	-0.505796	-0.116426
H42	H	1.118403	-0.383959	-0.384480
O43	O	1.386009	-1.113798	-0.638486
C44	C	1.326553	-1.282830	-0.698078
C45	C	1.400477	-1.222427	-0.624254
H46	H	1.338240	-1.370667	-0.686613
H47	H	1.241813	-1.261420	-0.679545
H48	H	1.344933	-1.261110	-0.782794
H49	H	1.382191	-1.244115	-0.539513
H50	H	1.485195	-1.243842	-0.642877
O51	O	1.385968	-0.373366	-0.898729
C52	C	1.252765	-0.240028	-0.910336
C53	C	1.326721	-0.313927	-0.970618
H54	H	1.204861	-0.191937	-0.968432
H55	H	1.197729	-0.288230	-0.858983
H56	H	1.301018	-0.185155	-0.858953
H57	H	1.278553	-0.368815	-1.022059
H58	H	1.381760	-0.265660	-1.021906
H59	H	1.118467	-0.628073	-0.627852
H60	H	1.640338	-0.627788	-0.907154
O61	O	1.386008	-0.373481	-1.114913
C62	C	1.244227	-0.359299	-1.238815
C63	C	1.318156	-0.433188	-1.178457
H64	H	1.189365	-0.407541	-1.290222
H65	H	1.196136	-0.311312	-1.180805
H66	H	1.292510	-0.304327	-1.290160
H67	H	1.269955	-0.488223	-1.127111
H68	H	1.366252	-0.481101	-1.236524
O69	O	1.650908	-0.638173	-1.114995
C70	C	1.710447	-0.697723	-1.284018
C71	C	1.636543	-0.623862	-1.223627
H72	H	1.698843	-0.686194	-1.371857
H73	H	1.795187	-0.679287	-1.262532
H74	H	1.691970	-0.782434	-1.262362
H75	H	1.654925	-0.539127	-1.245251
H76	H	1.551825	-0.642388	-1.245118
O77	O	1.651002	-0.897487	-0.373793
C78	C	1.784322	-0.909072	-0.240579
C79	C	1.710359	-0.969367	-0.314453
H80	H	1.832316	-0.967160	-0.192567
H81	H	1.839274	-0.857642	-0.288795
H82	H	1.736069	-0.857763	-0.185630
H83	H	1.758527	-1.020732	-0.369416
H84	H	1.655404	-1.020730	-0.266171
H85	H	0.919420	-0.628078	-0.627889
H86	H	0.919336	-0.383984	-0.384518
H87	H	1.640467	-1.105000	-0.384441
O88	O	1.385902	-0.897441	-0.638673
C89	C	1.334839	-0.863706	-0.817335
C90	C	1.408813	-0.924015	-0.743451
H91	H	1.353350	-0.885152	-0.902065
H92	H	1.250125	-0.885383	-0.798907
H93	H	1.346324	-0.775868	-0.805724
H94	H	1.397421	-1.011867	-0.755021
H95	H	1.493499	-0.902251	-0.761898
