data_functionalizedCrystal
_audit_creation_method	'MofGen! by Chris Wilmer'
_symmetry_space_group_name_H-M	'P1'
_symmetry_Int_Tables_number	1
_symmetry_cell_setting	triclinic
loop_
_symmetry_equiv_pos_as_xyz
  x,y,z
_cell_length_a	17.077404
_cell_length_b	17.077402
_cell_length_c	17.077396
_cell_angle_alpha	90.027528
_cell_angle_beta	90.019501
_cell_angle_gamma	90.023718
loop_
_atom_site_label
_atom_site_type_symbol
_atom_site_fract_x
_atom_site_fract_y
_atom_site_fract_z
Zn1	Zn	1.200051	-0.312503	0.443848
Zn2	Zn	1.199957	-0.443778	0.312584
Zn3	Zn	1.068783	-0.312531	0.312596
Zn4	Zn	1.068750	-0.443732	0.443808
O5	O	1.134385	-0.378136	0.378209
O6	O	1.309886	-0.329925	0.426447
O7	O	1.182531	-0.426399	0.202739
O8	O	1.086250	-0.202680	0.330028
O9	O	1.309816	-0.426372	0.330008
O10	O	1.182692	-0.202660	0.426459
O11	O	1.086158	-0.329972	0.202747
O12	O	0.958932	-0.329927	0.329989
O13	O	1.086193	-0.426293	0.553660
O14	O	0.958907	-0.426320	0.426390
O15	O	1.182659	-0.329880	0.553690
O16	O	1.182499	-0.553619	0.329969
O17	O	1.086101	-0.553585	0.426379
C18	C	0.930437	-0.378122	0.378187
C19	C	0.843188	-0.378135	0.378197
C20	C	0.802205	-0.428402	0.428312
C21	C	0.720225	-0.428404	0.428324
C22	C	0.679228	-0.378141	0.378217
C23	C	0.720216	-0.327869	0.328100
C24	C	0.802195	-0.327863	0.328092
C25	C	0.549346	-0.327884	0.328118
C26	C	0.467362	-0.327890	0.328125
C27	C	0.467376	-0.428424	0.428351
C28	C	0.549355	-0.428419	0.428343
C29	C	0.590337	-0.378147	0.378225
C30	C	1.134307	-0.582084	0.378186
C31	C	1.134346	-0.669334	0.378202
C32	C	1.184536	-0.710246	0.428454
C33	C	1.184569	-0.792226	0.428470
C34	C	1.134415	-0.833293	0.378231
C35	C	1.084220	-0.792375	0.327977
C36	C	1.084183	-0.710396	0.327965
C37	C	1.084300	-0.963245	0.328004
C38	C	1.084337	-1.045230	0.328015
C39	C	1.184686	-1.045075	0.428510
C40	C	1.184649	-0.963096	0.428498
C41	C	1.134455	-0.922184	0.378243
C42	C	1.339130	-0.378151	0.378231
C43	C	1.426379	-0.378157	0.378241
C44	C	1.134433	-0.378078	0.582953
C45	C	1.134453	-0.378054	0.670203
C46	C	1.134485	-0.173392	0.378249
C47	C	1.134527	-0.086142	0.378267
C48	C	1.134383	-0.378137	0.174261
C49	C	1.134515	-0.377941	0.087012
C50	C	1.184685	-0.327847	0.711210
C51	C	1.184695	-0.327821	0.793190
C52	C	1.134475	-0.378006	0.834163
C53	C	1.084238	-0.428214	0.793150
C54	C	1.084225	-0.428236	0.711171
C55	C	1.084269	-0.428167	0.964020
C56	C	1.084283	-0.428147	1.046005
C57	C	1.184739	-0.327752	1.046040
C58	C	1.184726	-0.327774	0.964061
C59	C	1.134489	-0.377984	0.923054
H60	H	0.582712	-0.286940	0.287313
H61	H	0.686830	-0.286941	0.287305
H62	H	0.434004	-0.469355	0.469162
C63	C	1.029002	-0.483431	0.838210
C64	C	0.939765	-0.477035	0.826927
C65	C	0.884532	-0.532260	0.871982
C66	C	0.918537	-0.593882	0.928321
C67	C	1.007778	-0.600281	0.939606
C68	C	1.063011	-0.545055	0.894551
H69	H	0.914589	-0.431416	0.785220
H70	H	0.818470	-0.527523	0.863628
H71	H	0.877650	-0.634763	0.961673
H72	H	1.032954	-0.645899	0.981313
H73	H	1.129073	-0.549792	0.902906
H74	H	0.433985	-0.286953	0.287333
H75	H	1.043495	-1.078664	0.287109
H76	H	0.582732	-0.469352	0.469141
C77	C	1.239707	-0.665076	0.483719
C78	C	1.239673	-0.574902	0.483709
C79	C	1.294843	-0.529735	0.538979
C80	C	1.350047	-0.574742	0.594258
C81	C	1.350083	-0.664920	0.594270
C82	C	1.294913	-0.710088	0.539001
H83	H	1.198805	-0.541581	0.442786
H84	H	1.294816	-0.462979	0.538970
H85	H	1.390887	-0.541306	0.635172
H86	H	1.390950	-0.698241	0.635193
H87	H	1.294940	-0.776844	0.539010
C88	C	1.029085	-0.918242	0.272724
C89	C	0.967409	-0.861918	0.306671
C90	C	0.912197	-0.816915	0.251390
C91	C	0.918661	-0.828237	0.162160
C92	C	0.980339	-0.884564	0.128208
C93	C	1.035551	-0.929566	0.183490
H94	H	0.962621	-0.853534	0.372728
H95	H	0.866538	-0.775218	0.276524
H96	H	0.877790	-0.794923	0.121238
H97	H	0.985127	-0.892947	0.062151
H98	H	1.081210	-0.971264	0.158356
C99	C	1.239928	-0.272643	0.666144
C100	C	1.205936	-0.211028	0.609791
C101	C	1.261179	-0.155820	0.564727
C102	C	1.350414	-0.162226	0.576016
C103	C	1.384411	-0.223844	0.632372
C104	C	1.329168	-0.279052	0.677436
H105	H	1.139874	-0.206283	0.601432
H106	H	1.236011	-0.110207	0.523009
H107	H	1.391308	-0.121358	0.542658
H108	H	1.450472	-0.228588	0.640731
H109	H	1.354335	-0.324665	0.719154
H110	H	1.043313	-0.469111	0.677784
C111	C	1.239999	-0.272516	1.091141
C112	C	1.301617	-0.306519	1.147506
C113	C	1.356879	-0.251288	1.192610
C114	C	1.350522	-0.162054	1.181347
C115	C	1.288901	-0.128047	1.124979
C116	C	1.233640	-0.183278	1.079876
H117	H	1.306325	-0.372579	1.155845
H118	H	1.402495	-0.276463	1.234337
H119	H	1.391430	-0.121169	1.214736
H120	H	1.284193	-0.061987	1.116640
H121	H	1.188024	-0.158103	1.038149
H122	H	0.835562	-0.286927	0.287287
C123	C	1.239785	-0.837225	0.483746
C124	C	1.329019	-0.825877	0.477410
C125	C	1.384239	-0.870872	0.532689
C126	C	1.350224	-0.927216	0.594305
C127	C	1.260985	-0.938567	0.600644
C128	C	1.205766	-0.893571	0.545364
H129	H	1.354203	-0.784165	0.431796
H130	H	1.450299	-0.862470	0.527996
H131	H	1.391101	-0.960525	0.635226
H132	H	1.235802	-0.980278	0.646258
H133	H	1.139705	-0.901974	0.550057
H134	H	1.225600	-0.286940	0.826575
H135	H	0.686861	-0.469337	0.469133
H136	H	0.835579	-0.469334	0.469113
H137	H	1.225623	-0.286913	0.930703
H138	H	1.225492	-0.929660	0.469402
C139	C	1.029070	-0.483377	1.091076
C140	C	0.973827	-0.538622	1.045975
C141	C	0.918629	-0.593868	1.091047
C142	C	0.918672	-0.593868	1.181220
C143	C	0.973917	-0.538621	1.226327
C144	C	1.029115	-0.483375	1.181255
H145	H	0.973793	-0.538624	0.979218
H146	H	0.877733	-0.634765	1.057655
H147	H	0.877811	-0.634764	1.214585
H148	H	0.973951	-0.538619	1.293084
H149	H	1.070011	-0.442478	1.214647
H150	H	1.225556	-1.078390	0.469430
H151	H	1.043380	-0.825818	0.287074
H152	H	1.043312	-0.677087	0.287046
H153	H	1.043349	-0.469041	0.930635
