data_functionalizedCrystal
_audit_creation_method	'MofGen! by Chris Wilmer'
_symmetry_space_group_name_H-M	'P1'
_symmetry_Int_Tables_number	1
_symmetry_cell_setting	triclinic
loop_
_symmetry_equiv_pos_as_xyz
  x,y,z
_cell_length_a	17.077404
_cell_length_b	21.395362
_cell_length_c	17.077396
_cell_angle_alpha	90.032289
_cell_angle_beta	90.019777
_cell_angle_gamma	90.025177
loop_
_atom_site_label
_atom_site_type_symbol
_atom_site_fract_x
_atom_site_fract_y
_atom_site_fract_z
Zn1	Zn	1.200017	-0.249516	0.443828
Zn2	Zn	1.533350	0.083818	0.777161
Zn3	Zn	1.866684	0.417151	1.110494
Zn4	Zn	1.199908	-0.354297	0.312553
Zn5	Zn	1.533242	-0.020964	0.645886
Zn6	Zn	1.866575	0.312370	0.979220
Zn7	Zn	1.068749	-0.249529	0.312575
Zn8	Zn	1.402082	0.083805	0.645908
Zn9	Zn	1.735415	0.417138	0.979242
Zn10	Zn	1.068701	-0.354251	0.443776
Zn11	Zn	1.402034	-0.020918	0.777109
Zn12	Zn	1.735368	0.312416	1.110443
O13	O	1.134344	-0.301898	0.378183
O14	O	1.467677	0.031435	0.711516
O15	O	1.801010	0.364769	1.044850
O16	O	1.309849	-0.263429	0.426426
O17	O	1.643183	0.069904	0.759760
O18	O	1.976516	0.403238	1.093093
O19	O	1.182484	-0.340424	0.202709
O20	O	1.515817	-0.007091	0.536042
O21	O	1.849151	0.326243	0.869376
O22	O	1.086227	-0.161849	0.330017
O23	O	1.419561	0.171484	0.663350
O24	O	1.752894	0.504818	0.996683
O25	O	1.309770	-0.340411	0.329979
O26	O	1.643103	-0.007078	0.663313
O27	O	1.976436	0.326255	0.996646
O28	O	1.182669	-0.161840	0.426448
O29	O	1.516003	0.171494	0.759781
O30	O	1.849336	0.504827	1.093114
O31	O	1.086122	-0.263451	0.202725
O32	O	1.419455	0.069882	0.536058
O33	O	1.752788	0.403215	0.869392
O34	O	0.958895	-0.263407	0.329967
O35	O	1.292229	0.069927	0.663300
O36	O	1.625562	0.403260	0.996633
O37	O	1.086146	-0.340333	0.553630
O38	O	1.419479	-0.006999	0.886963
O39	O	1.752812	0.326334	1.220296
O40	O	0.958860	-0.340346	0.426359
O41	O	1.292194	-0.007012	0.759693
O42	O	1.625527	0.326321	1.093026
O43	O	1.182623	-0.263384	0.553668
O44	O	1.515956	0.069949	0.887001
O45	O	1.849290	0.403282	1.220334
O46	O	1.182438	-0.441969	0.329929
O47	O	1.515771	-0.108635	0.663262
O48	O	1.849104	0.224698	0.996596
O49	O	1.086040	-0.441935	0.426338
O50	O	1.419374	-0.108602	0.759671
O51	O	1.752707	0.224732	1.093005
C52	C	0.930396	-0.301873	0.378160
C53	C	1.263729	0.031460	0.711494
C54	C	1.597063	0.364794	1.044827
C55	C	0.843146	-0.301877	0.378169
C56	C	1.176479	0.031456	0.711502
C57	C	1.509813	0.364789	1.044836
C58	C	0.467334	-0.342050	0.428318
C59	C	0.800667	-0.008716	0.761651
C60	C	1.134001	0.324617	1.094985
C61	C	0.549314	-0.342042	0.428306
C62	C	0.882648	-0.008708	0.761640
C63	C	1.215981	0.324625	1.094973
C64	C	0.590297	-0.301915	0.378195
C65	C	0.923630	0.031419	0.711529
C66	C	1.256964	0.364752	1.044862
C67	C	0.549295	-0.261798	0.328088
C68	C	0.882629	0.071536	0.661421
C69	C	1.215962	0.404869	0.994754
C70	C	0.467316	-0.261810	0.328096
C71	C	0.800650	0.071524	0.661430
C72	C	1.133983	0.404857	0.994763
C73	C	0.720165	-0.261775	0.328075
C74	C	1.053499	0.071558	0.661408
C75	C	1.386832	0.404892	0.994741
C76	C	0.802150	-0.261762	0.328067
C77	C	1.135483	0.071571	0.661400
C78	C	1.468817	0.404904	0.994734
C79	C	0.802163	-0.342007	0.428285
C80	C	1.135497	-0.008674	0.761618
C81	C	1.468830	0.324660	1.094951
C82	C	0.720184	-0.342019	0.428293
C83	C	1.053518	-0.008685	0.761627
C84	C	1.386851	0.324648	1.094960
C85	C	0.679188	-0.301901	0.378186
C86	C	1.012521	0.031432	0.711520
C87	C	1.345855	0.364766	1.044853
C88	C	1.134243	-0.464686	0.378143
C89	C	1.467577	-0.131352	0.711476
C90	C	1.800910	0.201981	1.044809
C91	C	1.134272	-0.534327	0.378152
C92	C	1.467606	-0.200994	0.711485
C93	C	1.800939	0.132340	1.044818
C94	C	1.184461	-0.566978	0.428399
C95	C	1.517794	-0.233645	0.761732
C96	C	1.851128	0.099689	1.095066
C97	C	1.184488	-0.632414	0.428418
C98	C	1.517822	-0.299080	0.761751
C99	C	1.851155	0.034253	1.095085
C100	C	1.134336	-0.665195	0.378176
C101	C	1.467669	-0.331862	0.711509
C102	C	1.801002	0.001471	1.044843
C103	C	1.084137	-0.632536	0.327925
C104	C	1.417471	-0.299203	0.661258
C105	C	1.750804	0.034130	0.994592
C106	C	1.084106	-0.567102	0.327913
C107	C	1.417439	-0.233769	0.661246
C108	C	1.750772	0.099565	0.994580
C109	C	1.128232	-0.768907	0.307467
C110	C	1.461565	-0.435573	0.640800
C111	C	1.794898	-0.102240	0.974134
C112	C	1.128269	-0.834340	0.307478
C113	C	1.461602	-0.501006	0.640811
C114	C	1.794935	-0.167673	0.974144
C115	C	1.134429	-0.867016	0.378214
C116	C	1.467762	-0.533683	0.711547
C117	C	1.801096	-0.200349	1.044881
C118	C	1.140568	-0.834251	0.448941
C119	C	1.473902	-0.500918	0.782275
C120	C	1.807235	-0.167585	1.115608
C121	C	1.140536	-0.768817	0.448929
C122	C	1.473870	-0.435484	0.782263
C123	C	1.807203	-0.102150	1.115596
C124	C	1.134364	-0.736148	0.378184
C125	C	1.467697	-0.402814	0.711517
C126	C	1.801031	-0.069481	1.044851
C127	C	1.184650	-0.970620	0.428486
C128	C	1.517983	-0.637286	0.761820
C129	C	1.851317	-0.303953	1.095153
C130	C	1.184672	-1.036056	0.428507
C131	C	1.518005	-0.702723	0.761840
C132	C	1.851339	-0.369390	1.095173
C133	C	1.084325	-1.036178	0.328007
C134	C	1.417658	-0.702844	0.661340
C135	C	1.750992	-0.369511	0.994673
C136	C	1.084299	-0.970742	0.327993
C137	C	1.417632	-0.637409	0.661327
C138	C	1.750966	-0.304076	0.994660
C139	C	1.134466	-0.937967	0.378232
C140	C	1.467799	-0.604634	0.711565
C141	C	1.801132	-0.271301	1.044899
C142	C	1.339088	-0.301924	0.378206
C143	C	1.672421	0.031410	0.711539
C144	C	2.005755	0.364743	1.044873
C145	C	1.426338	-0.301935	0.378216
C146	C	1.759671	0.031399	0.711549
C147	C	2.093004	0.364732	1.044883
C148	C	1.134391	-0.301852	0.582927
C149	C	1.467725	0.031481	0.916261
C150	C	1.801058	0.364815	1.249594
C151	C	1.134411	-0.301832	0.670177
C152	C	1.467745	0.031501	1.003510
C153	C	1.801078	0.364834	1.336844
C154	C	1.134466	-0.138475	0.378240
C155	C	1.467799	0.194859	0.711574
C156	C	1.801132	0.528192	1.044907
C157	C	1.134518	-0.068834	0.378265
C158	C	1.467851	0.264500	0.711598
C159	C	1.801185	0.597833	1.044932
C160	C	1.134342	-0.301899	0.174235
C161	C	1.467675	0.031434	0.507568
C162	C	1.801008	0.364768	0.840902
C163	C	1.134473	-0.301742	0.086986
C164	C	1.467807	0.031591	0.420319
C165	C	1.801140	0.364925	0.753652
C166	C	1.184649	-0.261762	0.711188
C167	C	1.517982	0.071572	1.044522
C168	C	1.851316	0.404905	1.377855
C169	C	1.184658	-0.261741	0.793169
C170	C	1.517992	0.071592	1.126502
C171	C	1.851325	0.404926	1.459835
C172	C	1.134434	-0.301794	0.834137
C173	C	1.467767	0.031539	1.167470
C174	C	1.801100	0.364872	1.500803
C175	C	1.084191	-0.341866	0.793120
C176	C	1.417524	-0.008533	1.126453
C177	C	1.750857	0.324800	1.459786
C178	C	1.084178	-0.341884	0.711141
C179	C	1.417511	-0.008550	1.044474
C180	C	1.750844	0.324783	1.377807
C181	C	1.084222	-0.341829	0.963990
C182	C	1.417556	-0.008495	1.297323
C183	C	1.750889	0.324838	1.630656
C184	C	1.084236	-0.341812	1.045974
C185	C	1.417569	-0.008479	1.379308
C186	C	1.750903	0.324854	1.712641
C187	C	1.184703	-0.261686	1.046018
C188	C	1.518036	0.071647	1.379351
C189	C	1.851370	0.404981	1.712685
C190	C	1.184690	-0.261703	0.964039
C191	C	1.518023	0.071630	1.297372
C192	C	1.851357	0.404963	1.630706
C193	C	1.134448	-0.301776	0.923028
C194	C	1.467781	0.031557	1.256361
C195	C	1.801114	0.364890	1.589694
H196	H	0.686789	-0.229105	0.287274
H197	H	1.020122	0.104228	0.620607
H198	H	1.353455	0.437561	0.953941
H199	H	1.225592	-0.229092	0.930685
H200	H	1.558925	0.104241	1.264019
H201	H	1.892259	0.437575	1.597352
H202	H	1.145586	-0.860855	0.506542
H203	H	1.478919	-0.527522	0.839875
H204	H	1.812252	-0.194188	1.173208
H205	H	1.043294	-0.374476	0.826482
H206	H	1.376627	-0.041143	1.159815
H207	H	1.709961	0.292191	1.493149
H208	H	0.433972	-0.374722	0.469129
H209	H	0.767305	-0.041389	0.802462
H210	H	1.100638	0.291944	1.135795
H211	H	1.043261	-0.374507	0.677750
H212	H	1.376595	-0.041173	1.011084
H213	H	1.709928	0.292160	1.344417
F214	F	1.121741	-0.869204	0.232204
F215	F	1.455074	-0.535871	0.565537
F216	F	1.788407	-0.202538	0.898870
F217	F	0.845795	-0.384695	0.481623
F218	F	1.179128	-0.051362	0.814956
F219	F	1.512462	0.281971	1.148290
H220	H	0.686818	-0.374691	0.469101
H221	H	1.020152	-0.041358	0.802435
H222	H	1.353485	0.291976	1.135768
H223	H	0.835516	-0.229081	0.287270
H224	H	1.168849	0.104252	0.620603
H225	H	1.502183	0.437585	0.953937
F226	F	1.030775	-0.384436	1.089574
F227	F	1.364108	-0.051103	1.422907
F228	F	1.697441	0.282230	1.756241
F229	F	0.592914	-0.219094	0.274753
F230	F	0.926248	0.114239	0.608086
F231	F	1.259581	0.447573	0.941419
F232	F	0.592942	-0.384739	0.481630
F233	F	0.926275	-0.051406	0.814964
F234	F	1.259609	0.281928	1.148297
H235	H	1.123212	-0.742307	0.249861
H236	H	1.456546	-0.408974	0.583194
H237	H	1.789879	-0.075640	0.916528
H238	H	1.043297	-0.374451	0.930601
H239	H	1.376631	-0.041117	1.263934
H240	H	1.709964	0.292216	1.597268
F241	F	1.237849	-0.532100	0.481872
F242	F	1.571182	-0.198767	0.815205
F243	F	1.904516	0.134566	1.148538
F244	F	0.423685	-0.219116	0.274767
F245	F	0.757019	0.114217	0.608101
F246	F	1.090352	0.447551	0.941434
F247	F	1.237912	-0.667170	0.481897
F248	F	1.571245	-0.333837	0.815230
F249	F	1.904578	-0.000504	1.148563
H250	H	1.043485	-1.062868	0.287104
H251	H	1.376818	-0.729535	0.620437
H252	H	1.710151	-0.396201	0.953770
F253	F	1.030881	-0.935991	0.274512
F254	F	1.364214	-0.602658	0.607845
F255	F	1.697548	-0.269324	0.941179
F256	F	1.147066	-0.733949	0.524200
F257	F	1.480400	-0.400616	0.857534
F258	F	1.813733	-0.067282	1.190867
F259	F	1.238038	-0.935736	0.481956
F260	F	1.571372	-0.602402	0.815290
F261	F	1.904705	-0.269069	1.148623
F262	F	1.238085	-1.070806	0.481998
F263	F	1.571418	-0.737473	0.815331
F264	F	1.904751	-0.404139	1.148665
H265	H	1.043301	-0.659231	0.287019
H266	H	1.376634	-0.325898	0.620353
H267	H	1.709967	0.007435	0.953686
H268	H	1.043235	-0.540517	0.286995
H269	H	1.376568	-0.207184	0.620328
H270	H	1.709902	0.126150	0.953662
F271	F	1.238110	-0.219134	0.667595
F272	F	1.571443	0.114199	1.000928
F273	F	1.904777	0.447533	1.334261
H274	H	1.225569	-0.229113	0.826557
H275	H	1.558902	0.104220	1.159890
H276	H	1.892235	0.437554	1.493223
H277	H	1.225611	-0.229056	1.079413
H278	H	1.558944	0.104277	1.412747
H279	H	1.892277	0.437611	1.746080
