data_functionalizedCrystal
_audit_creation_method	'MofGen! by Chris Wilmer'
_symmetry_space_group_name_H-M	'P1'
_symmetry_Int_Tables_number	1
_symmetry_cell_setting	triclinic
loop_
_symmetry_equiv_pos_as_xyz
  x,y,z
_cell_length_a	12.759401
_cell_length_b	21.395361
_cell_length_c	12.759393
_cell_angle_alpha	90.038155
_cell_angle_beta	90.020938
_cell_angle_gamma	90.032233
loop_
_atom_site_label
_atom_site_type_symbol
_atom_site_fract_x
_atom_site_fract_y
_atom_site_fract_z
Zn1	Zn	1.606150	-0.249383	0.593964
Zn2	Zn	2.106150	0.250617	1.093964
Zn3	Zn	1.605992	-0.354173	0.418261
Zn4	Zn	2.105992	0.145827	0.918261
Zn5	Zn	1.430448	-0.249416	0.418299
Zn6	Zn	1.930448	0.250584	0.918299
Zn7	Zn	1.430391	-0.354129	0.593898
Zn8	Zn	1.930391	0.145871	1.093898
O9	O	1.518245	-0.301775	0.506106
O10	O	2.018245	0.198225	1.006106
O11	O	1.753150	-0.263288	0.570668
O12	O	2.253150	0.236712	1.070668
O13	O	1.582663	-0.340309	0.271245
O14	O	2.082663	0.159691	0.771245
O15	O	1.453845	-0.161734	0.441645
O16	O	1.953845	0.338266	0.941645
O17	O	1.753033	-0.340277	0.441580
O18	O	2.253033	0.159723	0.941580
O19	O	1.582932	-0.161709	0.570706
O20	O	2.082932	0.338291	1.070706
O21	O	1.453692	-0.263345	0.271273
O22	O	1.953692	0.236655	0.771273
O23	O	1.283420	-0.263302	0.441581
O24	O	1.783420	0.236698	0.941581
O25	O	1.453748	-0.340202	0.740928
O26	O	1.953748	0.159798	1.240928
O27	O	1.283378	-0.340234	0.570593
O28	O	1.783378	0.159766	1.070593
O29	O	1.582877	-0.263245	0.740977
O30	O	2.082877	0.236755	1.240977
O31	O	1.582608	-0.441845	0.441516
O32	O	2.082608	0.058155	0.941516
O33	O	1.453595	-0.441813	0.570556
O34	O	1.953595	0.058187	1.070556
C35	C	1.245278	-0.301768	0.506085
C36	C	1.745278	0.198232	1.006085
C37	C	1.128501	-0.301779	0.506101
C38	C	1.628501	0.198221	1.006101
C39	C	1.073645	-0.341899	0.573171
C40	C	1.573645	0.158101	1.073171
C41	C	0.963921	-0.341901	0.573192
C42	C	1.463921	0.158099	1.073192
C43	C	0.963919	-0.261663	0.439063
C44	C	1.463919	0.238337	0.939063
C45	C	1.073641	-0.261658	0.439048
C46	C	1.573641	0.238342	0.939048
C47	C	1.518106	-0.464563	0.506047
C48	C	2.018106	0.035437	1.006047
C49	C	1.518143	-0.534204	0.506057
C50	C	2.018143	-0.034204	1.006057
C51	C	1.585380	-0.566913	0.438935
C52	C	2.085380	-0.066913	0.938935
C53	C	1.585429	-0.632349	0.438958
C54	C	2.085429	-0.132349	0.938958
C55	C	1.518222	-0.665072	0.506093
C56	C	2.018222	-0.165072	1.006093
C57	C	1.450981	-0.632355	0.573229
C58	C	1.950981	-0.132355	1.073229
C59	C	1.450941	-0.566921	0.573211
C60	C	1.950941	-0.066921	1.073211
C61	C	1.423624	-0.768788	0.514329
C62	C	1.923624	-0.268788	1.014329
C63	C	1.423662	-0.834221	0.514340
C64	C	1.923662	-0.334221	1.014340
C65	C	1.518345	-0.866893	0.506155
C66	C	2.018345	-0.366893	1.006155
C67	C	1.612993	-0.834125	0.497937
C68	C	2.112993	-0.334125	0.997937
C69	C	1.612953	-0.768691	0.497919
C70	C	2.112953	-0.268691	0.997919
C71	C	1.518258	-0.736025	0.506121
C72	C	2.018258	-0.236025	1.006121
C73	C	1.585640	-0.970555	0.439054
C74	C	2.085640	-0.470555	0.939054
C75	C	1.585690	-1.035991	0.439085
C76	C	2.085690	-0.535991	0.939085
C77	C	1.451233	-1.035997	0.573350
C78	C	1.951233	-0.535997	1.073350
C79	C	1.451192	-0.970562	0.573325
C80	C	1.951192	-0.470562	1.073325
C81	C	1.518394	-0.937844	0.506171
C82	C	2.018394	-0.437844	1.006171
C83	C	1.792278	-0.301783	0.506127
C84	C	2.292278	0.198217	1.006127
C85	C	1.909055	-0.301787	0.506136
C86	C	2.409055	0.198213	1.006136
C87	C	1.518324	-0.301715	0.780139
C88	C	2.018324	0.198285	1.280139
C89	C	1.518357	-0.301689	0.896916
C90	C	2.018357	0.198311	1.396916
C91	C	1.518413	-0.138352	0.506187
C92	C	2.018413	0.361648	1.006187
C93	C	1.518484	-0.068711	0.506222
C94	C	2.018484	0.431289	1.006222
C95	C	1.518227	-0.301790	0.233138
C96	C	2.018227	0.198210	0.733138
C97	C	1.518397	-0.301639	0.116362
C98	C	2.018397	0.198361	0.616362
C99	C	1.585600	-0.261612	0.951805
C100	C	2.085600	0.238388	1.451805
C101	C	1.585617	-0.261585	1.061529
C102	C	2.085617	0.238415	1.561529
C103	C	1.451147	-0.341719	1.061465
C104	C	1.951147	0.158281	1.561465
C105	C	1.451125	-0.341742	0.951743
C106	C	1.951125	0.158258	1.451743
H107	H	1.118306	-0.228984	0.384431
H108	H	1.618306	0.271016	0.884431
H109	H	0.919261	-0.374570	0.627809
H110	H	1.419261	0.125430	1.127809
H111	H	1.640363	-0.943915	0.384377
H112	H	2.140363	-0.443915	0.884377
C113	C	1.376977	-0.530937	0.647043
C114	C	1.876977	-0.030937	1.147043
H115	H	1.386582	-0.487281	0.637419
H116	H	1.886582	0.012719	1.137419
H117	H	1.306400	-0.541708	0.631613
H118	H	1.806400	-0.041708	1.131613
H119	H	1.392333	-0.541615	0.717654
H120	H	1.892333	-0.041615	1.217654
H121	H	1.396412	-0.374329	1.106119
H122	H	1.896412	0.125671	1.606119
C123	C	1.659589	-0.217502	1.121902
C124	C	2.159589	0.282498	1.621902
H125	H	1.699629	-0.193657	1.073531
H126	H	2.199629	0.306343	1.573531
H127	H	1.619442	-0.190189	1.164712
H128	H	2.119442	0.309811	1.664712
H129	H	1.705351	-0.241468	1.164699
H130	H	2.205351	0.258532	1.664699
C131	C	1.659654	-1.071972	0.365246
C132	C	2.159654	-0.571972	0.865246
H133	H	1.699660	-1.043112	0.325246
H134	H	2.199660	-0.543112	0.825246
H135	H	1.705430	-1.097451	0.405478
H136	H	2.205430	-0.597451	0.905478
H137	H	1.619492	-1.097542	0.319442
H138	H	2.119492	-0.597542	0.819442
C139	C	0.903570	-0.217540	0.365299
C140	C	1.403570	0.282460	0.865299
H141	H	0.830366	-0.223293	0.374904
H142	H	1.330366	0.276707	0.874904
H143	H	0.921590	-0.175451	0.380799
H144	H	1.421590	0.324549	0.880799
H145	H	0.921513	-0.226665	0.294676
H146	H	1.421513	0.273335	0.794676
C147	C	1.377308	-1.071982	0.647202
C148	C	1.877308	-0.571982	1.147202
H149	H	1.337260	-1.043127	0.687180
H150	H	1.837260	-0.543127	1.187180
H151	H	1.331569	-1.097556	0.606984
H152	H	1.831569	-0.597556	1.106984
H153	H	1.417499	-1.097460	0.693027
H154	H	1.917499	-0.597460	1.193027
C155	C	1.659388	-0.668339	0.365122
C156	C	2.159388	-0.168339	0.865122
H157	H	1.649790	-0.711995	0.374757
H158	H	2.149790	-0.211995	0.874757
H159	H	1.644041	-0.657660	0.294515
H160	H	2.144041	-0.157660	0.794515
H161	H	1.729970	-0.657571	0.380559
H162	H	2.229970	-0.157571	0.880559
C163	C	1.659310	-0.530928	0.365081
C164	C	2.159310	-0.030928	0.865081
H165	H	1.699368	-0.559784	0.325116
H166	H	2.199368	-0.059784	0.825116
H167	H	1.619135	-0.505444	0.319262
H168	H	2.119135	-0.005444	0.819262
H169	H	1.705056	-0.505360	0.405314
H170	H	2.205056	-0.005360	0.905314
H171	H	1.346593	-0.860896	0.521021
H172	H	1.846593	-0.360896	1.021021
H173	H	1.690018	-0.742012	0.491231
H174	H	2.190018	-0.242012	0.991231
C175	C	1.717150	-0.870055	0.488941
C176	C	2.217150	-0.370055	0.988941
H177	H	1.703623	-0.913718	0.490143
H178	H	2.203623	-0.413718	0.990143
H179	H	1.750777	-0.859348	0.425010
H180	H	2.250777	-0.359348	0.925010
H181	H	1.761301	-0.859274	0.546139
H182	H	2.261301	-0.359274	1.046139
C183	C	1.377162	-0.385834	0.891361
C184	C	1.877162	0.114166	1.391361
H185	H	1.337136	-0.409692	0.939727
H186	H	1.837136	0.090308	1.439727
H187	H	1.331402	-0.361876	0.848560
H188	H	1.831402	0.138124	1.348560
H189	H	1.417326	-0.413145	0.848555
H190	H	1.917326	0.086855	1.348555
H191	H	1.396437	-0.943928	0.627978
H192	H	1.896437	-0.443928	1.127978
C193	C	1.319467	-0.732854	0.523341
C194	C	1.819467	-0.232854	1.023341
H195	H	1.263106	-0.761740	0.528224
H196	H	1.763106	-0.261740	1.028224
H197	H	1.320786	-0.707298	0.584236
H198	H	1.820786	-0.207298	1.084236
H199	H	1.310247	-0.707363	0.463108
H200	H	1.810247	-0.207363	0.963108
H201	H	1.118309	-0.374567	0.627773
H202	H	1.618309	0.125433	1.127773
H203	H	1.396263	-0.659003	0.627892
H204	H	1.896263	-0.159003	1.127892
C205	C	1.659538	-0.217548	0.891498
C206	C	2.159538	0.282452	1.391498
H207	H	1.699579	-0.193671	0.939907
H208	H	2.199579	0.306329	1.439907
H209	H	1.705284	-0.241522	0.848687
H210	H	2.205284	0.258478	1.348687
H211	H	1.619356	-0.190255	0.848707
H212	H	2.119356	0.309745	1.348707
