data_functionalizedCrystal
_audit_creation_method	'MofGen! by Chris Wilmer'
_symmetry_space_group_name_H-M	'P1'
_symmetry_Int_Tables_number	1
_symmetry_cell_setting	triclinic
loop_
_symmetry_equiv_pos_as_xyz
  x,y,z
_cell_length_a	12.759400
_cell_length_b	21.395364
_cell_length_c	12.759393
_cell_angle_alpha	89.978609
_cell_angle_beta	90.030580
_cell_angle_gamma	89.991283
loop_
_atom_site_label
_atom_site_type_symbol
_atom_site_fract_x
_atom_site_fract_y
_atom_site_fract_z
Zn1	Zn	-0.418382	-0.957902	0.594102
Zn2	Zn	-0.594098	-0.957842	0.418423
Zn3	Zn	-0.418415	-0.853125	0.418429
Zn4	Zn	-0.594001	-0.853116	0.594051
O5	O	-0.506224	-0.905496	0.506251
O6	O	-0.441717	-1.045572	0.570817
O7	O	-0.570847	-0.943930	0.271402
O8	O	-0.271390	-0.867053	0.441756
O9	O	-0.570815	-1.045528	0.441746
O10	O	-0.271365	-0.944033	0.570823
O11	O	-0.441774	-0.866995	0.271407
O12	O	-0.441680	-0.765446	0.441706
O13	O	-0.570650	-0.867037	0.741079
O14	O	-0.570683	-0.765439	0.570735
O15	O	-0.441624	-0.944024	0.741117
O16	O	-0.741106	-0.943921	0.441696
O17	O	-0.741035	-0.866979	0.570729
C18	C	-0.506175	-0.742709	0.506216
C19	C	-0.506180	-0.673067	0.506226
C20	C	-0.439124	-0.171294	0.573558
C21	C	-0.439120	-0.236729	0.573560
C22	C	-0.506224	-0.269429	0.506253
C23	C	-0.573356	-0.236688	0.438958
C24	C	-0.573367	-0.171254	0.438966
C25	C	-0.514392	-0.373071	0.411571
C26	C	-0.514375	-0.438504	0.411562
C27	C	-0.506199	-0.471250	0.506231
C28	C	-0.498018	-0.438555	0.600912
C29	C	-0.498028	-0.373120	0.600919
C30	C	-0.506221	-0.340381	0.506238
C31	C	-0.439071	-0.574935	0.573529
C32	C	-0.439074	-0.640372	0.573533
C33	C	-0.573305	-0.640330	0.438922
C34	C	-0.573308	-0.574895	0.438927
C35	C	-0.506185	-0.542201	0.506229
C36	C	-0.779191	-0.905459	0.506229
C37	C	-0.895968	-0.905501	0.506255
C38	C	-0.950832	-0.945609	0.439142
C39	C	-1.060556	-0.945647	0.439174
C40	C	-1.060542	-0.865464	0.573436
C41	C	-0.950820	-0.865429	0.573408
C42	C	-0.950841	-0.991900	0.361623
C43	C	-1.060565	-0.991938	0.361656
C44	C	-0.232191	-0.905551	0.506296
C45	C	-0.115414	-0.905574	0.506315
C46	C	-0.506123	-0.905536	0.780285
C47	C	-0.506079	-0.905553	0.897061
C48	C	-0.506261	-0.068920	0.506278
C49	C	-0.506244	-0.138561	0.506268
C50	C	-0.506249	-0.905493	0.233284
C51	C	-0.505996	-0.905597	0.116508
C52	C	-0.573215	-0.945643	1.061642
C53	C	-0.573260	-0.945620	0.951918
C54	C	-0.438857	-0.865503	0.951935
C55	C	-0.438819	-0.865524	1.061657
C56	C	-0.650809	-0.991900	1.061631
C57	C	-0.650854	-0.991876	0.951907
H58	H	-0.384420	-0.667022	0.628336
H59	H	-0.906151	-0.832776	0.628067
H60	H	-0.384458	-0.263386	0.628354
C61	C	-0.365250	-0.538967	0.647562
H62	H	-0.374858	-0.495308	0.637919
H63	H	-0.380704	-0.549706	0.718126
H64	H	-0.294638	-0.549692	0.632297
C65	C	-1.120883	-0.821386	0.647293
H66	H	-1.194087	-0.827148	0.637695
H67	H	-1.102832	-0.830526	0.717893
H68	H	-1.102964	-0.779285	0.631839
H69	H	-1.090423	-0.978976	0.280273
H70	H	-0.916889	-0.974532	0.284295
C71	C	-0.365301	-0.135335	0.647596
H72	H	-0.325332	-0.164205	0.687679
H73	H	-0.319484	-0.109798	0.607489
H74	H	-0.405554	-0.109822	0.693315
H75	H	-0.920992	-1.040410	0.383481
C76	C	-0.611455	-1.054185	1.107633
H77	H	-0.612767	-1.052075	1.181993
H78	H	-0.655539	-1.087227	1.084636
H79	H	-0.541765	-1.061673	1.084663
H80	H	-1.094518	-1.038039	0.390873
C81	C	-0.755280	-0.968373	0.905901
H82	H	-0.751745	-0.969153	0.831541
H83	H	-0.810711	-0.994645	0.928881
H84	H	-0.767796	-0.926809	0.928886
H85	H	-0.384093	-0.832908	1.106324
H86	H	-0.629078	-1.040400	0.922136
C87	C	-0.647198	-0.135244	0.364945
H88	H	-0.637596	-0.091591	0.374593
H89	H	-0.631749	-0.145949	0.294377
H90	H	-0.717808	-0.145967	0.380214
C91	C	-0.489048	-0.337158	0.705059
H92	H	-0.484185	-0.366027	0.761445
H93	H	-0.428154	-0.311631	0.703804
H94	H	-0.549285	-0.311635	0.714186
H95	H	-0.384164	-0.832876	0.907262
H96	H	-0.732165	-0.978895	1.091391
H97	H	-0.627951	-0.666954	0.384127
C98	C	-0.489042	-0.474566	0.705055
H99	H	-0.490225	-0.518218	0.691496
H100	H	-0.425126	-0.463859	0.738769
H101	H	-0.546259	-0.463845	0.749142
H102	H	-0.627959	-0.548243	0.384128
C103	C	-0.523495	-0.474463	0.307430
H104	H	-0.528423	-0.445591	0.251055
H105	H	-0.463315	-0.500016	0.298209
H106	H	-0.584430	-0.499959	0.308781
H107	H	-0.521054	-0.346415	0.334475
H108	H	-0.627996	-0.263317	0.384159
