data_functionalizedCrystal
_audit_creation_method	'MofGen! by Chris Wilmer'
_symmetry_space_group_name_H-M	'P1'
_symmetry_Int_Tables_number	1
_symmetry_cell_setting	triclinic
loop_
_symmetry_equiv_pos_as_xyz
  x,y,z
_cell_length_a	12.759401
_cell_length_b	21.395361
_cell_length_c	21.395355
_cell_angle_alpha	90.021511
_cell_angle_beta	89.977763
_cell_angle_gamma	89.967585
loop_
_atom_site_label
_atom_site_type_symbol
_atom_site_fract_x
_atom_site_fract_y
_atom_site_fract_z
Zn1	Zn	1.606168	0.249483	-0.354210
Zn2	Zn	2.106168	0.749483	0.145790
Zn3	Zn	1.606005	0.354242	-0.249427
Zn4	Zn	2.106005	0.854242	0.250573
Zn5	Zn	1.430461	0.249486	-0.249451
Zn6	Zn	1.930461	0.749486	0.250549
Zn7	Zn	1.430410	0.354229	-0.354171
Zn8	Zn	1.930410	0.854229	0.145829
O9	O	1.518261	0.301860	-0.301815
O10	O	2.018261	0.801860	0.198185
O11	O	1.753167	0.263383	-0.340316
O12	O	2.253167	0.763383	0.159684
O13	O	1.582672	0.340353	-0.161752
O14	O	2.082672	0.840353	0.338248
O15	O	1.453859	0.161807	-0.263373
O16	O	1.953859	0.661807	0.236627
O17	O	1.753047	0.340350	-0.263333
O18	O	2.253047	0.840350	0.236667
O19	O	1.582950	0.161805	-0.340339
O20	O	2.082950	0.661805	0.159661
O21	O	1.453701	0.263389	-0.161770
O22	O	1.953701	0.763389	0.338230
O23	O	1.283433	0.263376	-0.263336
O24	O	1.783433	0.763376	0.236664
O25	O	1.453771	0.340328	-0.441854
O26	O	1.953771	0.840328	0.058146
O27	O	1.283395	0.340331	-0.340274
O28	O	1.783395	0.840331	0.159726
O29	O	1.582900	0.263371	-0.441882
O30	O	2.082900	0.763371	0.058118
O31	O	1.582621	0.441919	-0.263295
O32	O	2.082621	0.941919	0.236705
O33	O	1.453613	0.441909	-0.340250
O34	O	1.953613	0.941909	0.159750
C35	C	1.245294	0.301853	-0.301804
C36	C	1.745294	0.801853	0.198196
C37	C	1.128517	0.301865	-0.301814
C38	C	1.628517	0.801865	0.198186
C39	C	0.963998	0.261858	-0.341968
C40	C	1.463998	0.761858	0.158032
C41	C	1.073722	0.261857	-0.341961
C42	C	1.573722	0.761857	0.158039
C43	C	1.073582	0.341882	-0.261675
C44	C	1.573582	0.841882	0.238325
C45	C	0.963860	0.341886	-0.261685
C46	C	1.463860	0.841886	0.238315
C47	C	0.964080	0.215654	-0.388319
C48	C	1.464080	0.715654	0.111681
C49	C	1.073805	0.215653	-0.388312
C50	C	1.573805	0.715653	0.111688
C51	C	1.518122	0.464648	-0.301780
C52	C	2.018122	0.964648	0.198220
C53	C	1.518159	0.534289	-0.301786
C54	C	2.018159	1.034289	0.198214
C55	C	1.518348	0.301847	-0.465238
C56	C	2.018348	0.801847	0.034762
C57	C	1.518385	0.301842	-0.534879
C58	C	2.018385	0.801842	-0.034879
C59	C	1.792294	0.301868	-0.301826
C60	C	2.292294	0.801868	0.198174
C61	C	1.909071	0.301871	-0.301831
C62	C	2.409071	0.801871	0.198169
C63	C	1.518429	0.138437	-0.301863
C64	C	2.018429	0.638437	0.198137
C65	C	1.518500	0.068795	-0.301884
C66	C	2.018500	0.568795	0.198116
C67	C	1.585393	0.566986	-0.261756
C68	C	2.085393	1.066986	0.238244
C69	C	1.585442	0.632422	-0.261770
C70	C	2.085442	1.132422	0.238230
C71	C	1.518238	0.665157	-0.301807
C72	C	2.018238	1.165157	0.198193
C73	C	1.450999	0.632452	-0.341845
C74	C	1.950999	1.132452	0.158155
C75	C	1.450959	0.567018	-0.341834
C76	C	1.950959	1.067018	0.158166
C77	C	1.423640	0.768874	-0.306719
C78	C	1.923640	1.268874	0.193281
C79	C	1.423678	0.834307	-0.306726
C80	C	1.923678	1.334307	0.193274
C81	C	1.518360	0.866978	-0.301844
C82	C	2.018360	1.366978	0.198156
C83	C	1.613008	0.834208	-0.296943
C84	C	2.113008	1.334208	0.203057
C85	C	1.612969	0.768774	-0.296932
C86	C	2.112969	1.268774	0.203068
C87	C	1.518274	0.736110	-0.301824
C88	C	2.018274	1.236110	0.198176
C89	C	1.585653	0.970628	-0.261827
C90	C	2.085653	1.470628	0.238173
C91	C	1.585704	1.036064	-0.261846
C92	C	2.085704	1.536064	0.238154
C93	C	1.451251	1.036094	-0.341917
C94	C	1.951251	1.536094	0.158083
C95	C	1.451210	0.970658	-0.341902
C96	C	1.951210	1.470658	0.158098
C97	C	1.518410	0.937929	-0.301854
C98	C	2.018410	1.437929	0.198146
C99	C	1.585620	0.261769	-0.567608
C100	C	2.085620	0.761769	-0.067608
C101	C	1.585618	0.261742	-0.633043
C102	C	2.085618	0.761742	-0.133043
C103	C	1.518393	0.301799	-0.665748
C104	C	2.018393	0.801799	-0.165748
C105	C	1.451146	0.341875	-0.633011
C106	C	1.951146	0.841875	-0.133011
C107	C	1.451142	0.341897	-0.567577
C108	C	1.951142	0.841897	-0.067577
C109	C	1.510050	0.358215	-0.769410
C110	C	2.010050	0.858215	-0.269410
C111	C	1.510061	0.358194	-0.834843
C112	C	2.010061	0.858194	-0.334843
C113	C	1.518400	0.301733	-0.867568
C114	C	2.018400	0.801733	-0.367568
C115	C	1.526749	0.245290	-0.834852
C116	C	2.026749	0.745290	-0.334852
C117	C	1.526745	0.245312	-0.769418
C118	C	2.026745	0.745312	-0.269418
C119	C	1.518390	0.301780	-0.736700
C120	C	2.018390	0.801780	-0.236700
C121	C	1.585637	0.261627	-0.971250
C122	C	2.085637	0.761627	-0.471250
C123	C	1.585628	0.261599	-1.036687
C124	C	2.085628	0.761599	-0.536687
C125	C	1.451161	0.341738	-1.036653
C126	C	1.951161	0.841738	-0.536653
C127	C	1.451164	0.341761	-0.971217
C128	C	1.951164	0.841761	-0.471217
C129	C	1.518408	0.301706	-0.938520
C130	C	2.018408	0.801706	-0.438520
C131	C	1.518234	0.301827	-0.139027
C132	C	2.018234	0.801827	0.360973
C133	C	1.518401	0.301656	-0.069386
C134	C	2.018401	0.801656	0.430614
H135	H	1.640196	0.659049	-0.229173
H136	H	2.140196	1.159049	0.270827
H137	H	1.640384	0.229009	-0.944626
H138	H	2.140384	0.729009	-0.444626
H139	H	1.396208	0.540395	-0.374431
H140	H	1.896208	1.040395	0.125569
N141	N	1.321599	0.869649	-0.312002
N142	N	1.821599	1.369649	0.187998
H143	H	1.261613	0.839025	-0.315100
H144	H	1.761613	1.339025	0.184900
H145	H	1.323094	0.896780	-0.350611
H146	H	1.823094	1.396780	0.149389
H147	H	1.396282	0.659110	-0.374444
H148	H	1.896282	1.159110	0.125556
H149	H	1.640461	1.062685	-0.229250
H150	H	2.140461	1.562685	0.270750
N151	N	0.924674	0.232973	-0.452564
N152	N	1.424674	0.732973	0.047436
H153	H	0.845517	0.232981	-0.452596
H154	H	1.345517	0.732981	0.047404
H155	H	0.951166	0.201550	-0.484075
H156	H	1.451166	0.701550	0.015925
N157	N	1.715041	0.733424	-0.291661
N158	N	2.215041	1.233424	0.208339
H159	H	1.713646	0.706294	-0.253048
H160	H	2.213646	1.206294	0.246952
H161	H	1.774981	0.764081	-0.288598
H162	H	2.274981	1.264081	0.211402
N163	N	0.919017	0.154570	-0.365408
N164	N	1.419017	0.654570	0.134592
H165	H	0.977947	0.125052	-0.354332
H166	H	1.477947	0.625052	0.145668
H167	H	0.874487	0.135373	-0.399374
H168	H	1.374487	0.635373	0.100626
H169	H	1.503269	0.404154	-0.861476
H170	H	2.003269	0.904154	-0.361476
N171	N	0.904610	0.385046	-0.218400
N172	N	1.404610	0.885046	0.281600
H173	H	0.923678	0.429825	-0.228050
H174	H	1.423678	0.929825	0.271950
H175	H	0.923695	0.375199	-0.173665
H176	H	1.423695	0.875199	0.326335
H177	H	1.640374	0.229152	-0.540990
H178	H	2.140374	0.729152	-0.040990
H179	H	1.690108	0.860807	-0.292968
H180	H	2.190108	1.360807	0.207032
H181	H	1.103613	0.167108	-0.375396
H182	H	1.603613	0.667108	0.124604
N183	N	1.378773	1.071391	-0.385106
N184	N	1.878773	1.571391	0.114894
H185	H	1.389001	1.117806	-0.379041
H186	H	1.889001	1.617806	0.120959
H187	H	1.303738	1.060002	-0.375314
H188	H	1.803738	1.560002	0.124686
H189	H	1.107861	0.233100	-0.434375
H190	H	1.607861	0.733100	0.065625
H191	H	1.640377	0.228963	-1.063333
H192	H	2.140377	0.728963	-0.563333
H193	H	1.396457	0.944034	-0.374495
H194	H	1.896457	1.444034	0.125505
N195	N	1.132675	0.385039	-0.218376
N196	N	1.632675	0.885039	0.281624
H197	H	1.210519	0.378966	-0.224460
H198	H	1.710519	0.878966	0.275540
H199	H	1.113466	0.375221	-0.173648
H200	H	1.613466	0.875221	0.326352
N201	N	1.657885	0.531686	-0.218573
N202	N	2.157885	1.031686	0.281427
H203	H	1.700491	0.562333	-0.193219
H204	H	2.200491	1.062333	0.306781
H205	H	1.706466	0.504501	-0.244105
H206	H	2.206466	1.004501	0.255895
N207	N	1.535737	0.184435	-0.734138
N208	N	2.035737	0.684435	-0.234138
H209	H	1.471737	0.178569	-0.706977
H210	H	1.971737	0.678569	-0.206977
H211	H	1.600512	0.185326	-0.707038
H212	H	2.100512	0.685326	-0.207038
H213	H	1.640375	0.943979	-0.229220
H214	H	2.140375	1.443979	0.270780
H215	H	1.346532	0.742280	-0.310697
H216	H	1.846532	1.242280	0.189303
H217	H	1.640367	0.229106	-0.659697
H218	H	2.140367	0.729106	-0.159697
N219	N	1.378662	0.384994	-0.935914
N220	N	1.878662	0.884994	-0.435914
H221	H	1.388860	0.378930	-0.889500
H222	H	1.888860	0.878930	-0.389500
H223	H	1.303637	0.375238	-0.947335
H224	H	1.803637	0.875238	-0.447335
N225	N	1.535754	0.184387	-0.870138
N226	N	2.035754	0.684387	-0.370138
H227	H	1.534487	0.192935	-0.916554
H228	H	2.034487	0.692935	-0.416554
H229	H	1.475030	0.156376	-0.858687
H230	H	1.975030	0.656376	-0.358687
N231	N	1.378643	0.384939	-1.071916
N232	N	1.878643	0.884939	-0.571916
H233	H	1.388844	0.378844	-1.118336
H234	H	1.888844	0.878844	-0.618336
H235	H	1.394946	0.429692	-1.060482
H236	H	1.894946	0.929692	-0.560482
H237	H	1.502978	0.404181	-0.742771
H238	H	2.002978	0.904181	-0.242771
N239	N	1.378621	0.385071	-0.668280
N240	N	1.878621	0.885071	-0.168280
H241	H	1.388823	0.378976	-0.714699
H242	H	1.888823	0.878976	-0.214699
H243	H	1.394910	0.429825	-0.656846
H244	H	1.894910	0.929825	-0.156846
N245	N	1.378607	0.385111	-0.532271
N246	N	1.878607	0.885111	-0.032271
H247	H	1.336010	0.410480	-0.562916
H248	H	1.836010	0.910480	-0.062916
H249	H	1.421328	0.414121	-0.505127
H250	H	1.921328	0.914121	-0.005127
