data_functionalizedCrystal
_audit_creation_method	'MofGen! by Chris Wilmer'
_symmetry_space_group_name_H-M	'P1'
_symmetry_Int_Tables_number	1
_symmetry_cell_setting	triclinic
loop_
_symmetry_equiv_pos_as_xyz
  x,y,z
_cell_length_a	12.759401
_cell_length_b	12.759399
_cell_length_c	21.395364
_cell_angle_alpha	89.993087
_cell_angle_beta	90.013577
_cell_angle_gamma	89.971911
loop_
_atom_site_label
_atom_site_type_symbol
_atom_site_fract_x
_atom_site_fract_y
_atom_site_fract_z
Zn1	Zn	1.606088	0.418453	0.354261
Zn2	Zn	1.605957	0.594106	0.249498
Zn3	Zn	1.430408	0.418439	0.249502
Zn4	Zn	1.430335	0.594088	0.354242
O5	O	1.518197	0.506271	0.301876
O6	O	1.753091	0.441767	0.340371
O7	O	1.582646	0.570805	0.161821
O8	O	1.453798	0.271420	0.263408
O9	O	1.752995	0.570819	0.263402
O10	O	1.582869	0.271430	0.340374
O11	O	1.453672	0.441743	0.161823
O12	O	1.283378	0.441726	0.263389
O13	O	1.453672	0.570788	0.441922
O14	O	1.283323	0.570774	0.340341
O15	O	1.582798	0.441750	0.441937
O16	O	1.582575	0.741125	0.263383
O17	O	1.453546	0.741111	0.340338
C18	C	1.245230	0.506247	0.301864
C19	C	1.128453	0.506262	0.301874
C20	C	1.073588	0.438978	0.261878
C21	C	0.963864	0.439003	0.261886
C22	C	0.963879	0.573599	0.341890
C23	C	1.073601	0.573578	0.341879
C24	C	1.073579	0.361267	0.215691
C25	C	0.963855	0.361292	0.215699
C26	C	1.518067	0.779239	0.301871
C27	C	1.518107	0.896016	0.301890
C28	C	1.450981	0.950955	0.261795
C29	C	1.451027	1.060679	0.261806
C30	C	1.585328	1.060514	0.342015
C31	C	1.585287	0.950792	0.342000
C32	C	1.373440	0.951051	0.215489
C33	C	1.373486	1.060775	0.215500
C34	C	1.792230	0.506297	0.301888
C35	C	1.909007	0.506307	0.301893
C36	C	1.518241	0.506269	0.465299
C37	C	1.518260	0.506268	0.534940
C38	C	1.518299	1.232238	0.301898
C39	C	1.518195	1.115462	0.301917
C40	C	1.451113	0.439070	0.567645
C41	C	1.451094	0.439076	0.633080
C42	C	1.518241	0.506268	0.665808
C43	C	1.585393	0.573478	0.633096
C44	C	1.585402	0.573478	0.567662
C45	C	1.612878	0.514569	0.769493
C46	C	1.612870	0.514561	0.834926
C47	C	1.518211	0.506274	0.867629
C48	C	1.423557	0.497972	0.834891
C49	C	1.423567	0.497972	0.769457
C50	C	1.518238	0.506276	0.736761
C51	C	1.451038	0.439079	0.971286
C52	C	1.451017	0.439092	1.036723
C53	C	1.585325	0.573489	1.036737
C54	C	1.585336	0.573481	0.971302
C55	C	1.518194	0.506271	0.938581
C56	C	1.518154	0.506294	1.139088
C57	C	1.518164	0.506286	1.069447
H58	H	1.103314	0.382924	0.167139
F59	F	1.411660	1.105262	0.155275
F60	F	1.118114	0.260295	0.238510
F61	F	1.656873	0.645002	0.532854
F62	F	1.656783	0.645006	1.071565
H63	H	1.396437	0.384346	0.541007
F64	F	1.656822	1.118821	0.384699
F65	F	1.272375	0.906637	0.238152
H66	H	1.395271	0.921285	0.166969
H67	H	1.639955	0.906062	0.374643
H68	H	0.934109	0.279960	0.228778
F69	F	1.267128	1.099787	0.232437
H70	H	1.396417	0.384350	0.659714
H71	H	1.346497	0.491214	0.742804
H72	H	0.929785	0.390320	0.169575
F73	F	1.322807	0.489146	0.869690
F74	F	1.379576	0.367553	0.936460
H75	H	1.396331	0.384375	1.063350
H76	H	1.640017	0.628199	0.944674
F77	F	0.905493	0.645241	0.384462
F78	F	1.713606	0.523405	0.869763
F79	F	1.713633	0.523397	0.734695
F80	F	1.656851	0.644993	0.667928
H81	H	1.118268	0.628378	0.374440
