data_functionalizedCrystal
_audit_creation_method	'MofGen! by Chris Wilmer'
_symmetry_space_group_name_H-M	'P1'
_symmetry_Int_Tables_number	1
_symmetry_cell_setting	triclinic
loop_
_symmetry_equiv_pos_as_xyz
  x,y,z
_cell_length_a	21.395362
_cell_length_b	21.395361
_cell_length_c	21.395355
_cell_angle_alpha	90.021511
_cell_angle_beta	90.043940
_cell_angle_gamma	90.046585
loop_
_atom_site_label
_atom_site_type_symbol
_atom_site_fract_x
_atom_site_fract_y
_atom_site_fract_z
Zn1	Zn	0.957859	-0.249246	0.354573
Zn2	Zn	1.291193	0.084088	0.687906
Zn3	Zn	1.624526	0.417421	1.021239
Zn4	Zn	0.957762	-0.354005	0.249790
Zn5	Zn	1.291095	-0.020672	0.583123
Zn6	Zn	1.624429	0.312661	0.916456
Zn7	Zn	0.853074	-0.249275	0.249774
Zn8	Zn	1.186408	0.084059	0.583107
Zn9	Zn	1.519741	0.417392	0.916441
Zn10	Zn	0.853044	-0.354018	0.354494
Zn11	Zn	1.186377	-0.020685	0.687828
Zn12	Zn	1.519710	0.312648	1.021161
O13	O	0.905435	-0.301636	0.302158
O14	O	1.238768	0.031697	0.635491
O15	O	1.572102	0.365031	0.968824
O16	O	1.045524	-0.263125	0.340712
O17	O	1.378858	0.070209	0.674046
O18	O	1.712191	0.403542	1.007379
O19	O	0.943847	-0.340119	0.162110
O20	O	1.277180	-0.006786	0.495443
O21	O	1.610514	0.326547	0.828776
O22	O	0.867028	-0.161593	0.263702
O23	O	1.200361	0.171740	0.597035
O24	O	1.533695	0.505074	0.930368
O25	O	1.045453	-0.340091	0.263729
O26	O	1.378786	-0.006758	0.597062
O27	O	1.712119	0.326575	0.930395
O28	O	0.944013	-0.161572	0.340697
O29	O	1.277347	0.171762	0.674030
O30	O	1.610680	0.505095	1.007364
O31	O	0.866934	-0.263174	0.162098
O32	O	1.200267	0.070159	0.495431
O33	O	1.533600	0.403492	0.828765
O34	O	0.765392	-0.263187	0.263626
O35	O	1.098726	0.070147	0.596959
O36	O	1.432059	0.403480	0.930293
O37	O	0.866976	-0.340113	0.442183
O38	O	1.200309	-0.006780	0.775516
O39	O	1.533642	0.326553	1.108849
O40	O	0.765370	-0.340141	0.340564
O41	O	1.098703	-0.006808	0.673897
O42	O	1.432036	0.326525	1.007230
O43	O	0.943983	-0.263137	0.442240
O44	O	1.277317	0.070196	0.775573
O45	O	1.610650	0.403530	1.108907
O46	O	0.943817	-0.441685	0.263653
O47	O	1.277150	-0.108352	0.596986
O48	O	1.610484	0.224982	0.930319
O49	O	0.866881	-0.441695	0.340579
O50	O	1.200214	-0.108361	0.673912
O51	O	1.533548	0.224972	1.007246
C52	C	0.742647	-0.301669	0.302085
C53	C	1.075981	0.031664	0.635418
C54	C	1.409314	0.364998	0.968752
C55	C	0.673006	-0.301698	0.302069
C56	C	1.006339	0.031635	0.635402
C57	C	1.339673	0.364968	0.968735
C58	C	0.640297	-0.341822	0.342070
C59	C	0.973631	-0.008488	0.675403
C60	C	1.306964	0.324845	1.008737
C61	C	0.574862	-0.341806	0.342098
C62	C	0.908195	-0.008473	0.675431
C63	C	1.241529	0.324860	1.008765
C64	C	0.542138	-0.301674	0.302113
C65	C	0.875471	0.031659	0.635447
C66	C	1.208804	0.364992	0.968780
C67	C	0.574854	-0.261543	0.262109
C68	C	0.908187	0.071790	0.595442
C69	C	1.241521	0.405124	0.928776
C70	C	0.640288	-0.261555	0.262087
C71	C	0.973622	0.071778	0.595420
C72	C	1.306955	0.405111	0.928753
C73	C	0.438413	-0.296627	0.245708
C74	C	0.771746	0.036707	0.579042
C75	C	1.105080	0.370040	0.912375
C76	C	0.372980	-0.296619	0.245730
C77	C	0.706313	0.036714	0.579063
C78	C	1.039647	0.370048	0.912396
C79	C	0.340317	-0.301633	0.302182
C80	C	0.673650	0.031700	0.635516
C81	C	1.006984	0.365033	0.968849
C82	C	0.373095	-0.306668	0.358616
C83	C	0.706428	0.026665	0.691949
C84	C	1.039762	0.359998	1.025283
C85	C	0.438529	-0.306681	0.358594
C86	C	0.771862	0.026653	0.691927
C87	C	1.105196	0.359986	1.025260
C88	C	0.471185	-0.301656	0.302133
C89	C	0.804519	0.031677	0.635467
C90	C	1.137852	0.365010	0.968800
C91	C	0.236656	-0.341742	0.342218
C92	C	0.569989	-0.008409	0.675551
C93	C	0.903323	0.324924	1.008884
C94	C	0.171219	-0.341723	0.342247
C95	C	0.504553	-0.008389	0.675580
C96	C	0.837886	0.324944	1.008913
C97	C	0.171213	-0.261462	0.262252
C98	C	0.504546	0.071871	0.595585
C99	C	0.837879	0.405204	0.928919
C100	C	0.236648	-0.261479	0.262229
C101	C	0.569981	0.071854	0.595562
C102	C	0.903315	0.405188	0.928895
C103	C	0.269366	-0.301622	0.302211
C104	C	0.602699	0.031711	0.635544
C105	C	0.936032	0.365044	0.968877
C106	C	0.905352	-0.464424	0.302123
C107	C	1.238685	-0.131090	0.635456
C108	C	1.572019	0.202243	0.968789
C109	C	0.905374	-0.534065	0.302129
C110	C	1.238707	-0.200732	0.635462
C111	C	1.572041	0.132602	0.968795
C112	C	0.945470	-0.566752	0.262114
C113	C	1.278804	-0.233419	0.595448
C114	C	1.612137	0.099914	0.928781
C115	C	0.945499	-0.632188	0.262128
C116	C	1.278833	-0.298854	0.595462
C117	C	1.612166	0.034479	0.928795
C118	C	0.905421	-0.664933	0.302150
C119	C	1.238755	-0.331600	0.635484
C120	C	1.572088	0.001733	0.968817
C121	C	0.865322	-0.632238	0.342172
C122	C	1.198656	-0.298905	0.675506
C123	C	1.531989	0.034429	1.008839
C124	C	0.865299	-0.566804	0.342162
C125	C	1.198632	-0.233470	0.675495
C126	C	1.531965	0.099863	1.008828
C127	C	0.849006	-0.768664	0.307041
C128	C	1.182340	-0.435331	0.640374
C129	C	1.515673	-0.101997	0.973708
C130	C	0.849029	-0.834097	0.307047
C131	C	1.182362	-0.500764	0.640381
C132	C	1.515696	-0.167430	0.973714
C133	C	0.905494	-0.866754	0.302187
C134	C	1.238828	-0.533421	0.635520
C135	C	1.572161	-0.200087	0.968854
C136	C	0.961939	-0.833970	0.297307
C137	C	1.295272	-0.500637	0.630640
C138	C	1.628605	-0.167303	0.963974
C139	C	0.961915	-0.768536	0.297296
C140	C	1.295248	-0.435202	0.630630
C141	C	1.628582	-0.101869	0.963963
C142	C	0.905443	-0.735886	0.302167
C143	C	1.238776	-0.402552	0.635500
C144	C	1.572109	-0.069219	0.968833
C145	C	0.945625	-0.970394	0.262186
C146	C	1.278959	-0.637060	0.595519
C147	C	1.612292	-0.303727	0.928852
C148	C	0.945655	-1.035830	0.262204
C149	C	1.278989	-0.702497	0.595537
C150	C	1.612322	-0.369164	0.928871
C151	C	0.865473	-1.035879	0.342245
C152	C	1.198806	-0.702546	0.675578
C153	C	1.532139	-0.369213	1.008912
C154	C	0.865448	-0.970444	0.342230
C155	C	1.198782	-0.637111	0.675563
C156	C	1.532115	-0.303777	1.008896
C157	C	0.905524	-0.937705	0.302197
C158	C	1.238857	-0.604372	0.635530
C159	C	1.572190	-0.271039	0.968863
C160	C	1.068858	-0.301603	0.302231
C161	C	1.402192	0.031730	0.635564
C162	C	1.735525	0.365063	0.968898
C163	C	1.138499	-0.301589	0.302262
C164	C	1.471833	0.031744	0.635595
C165	C	1.805166	0.365077	0.968929
C166	C	0.905487	-0.301623	0.465581
C167	C	1.238820	0.031710	0.798914
C168	C	1.572154	0.365043	1.132248
C169	C	0.905509	-0.301618	0.535222
C170	C	1.238842	0.031715	0.868556
C171	C	1.572176	0.365049	1.201889
C172	C	0.905535	-0.138213	0.302206
C173	C	1.238868	0.195121	0.635540
C174	C	1.572202	0.528454	0.968873
C175	C	0.905578	-0.068571	0.302227
C176	C	1.238911	0.264762	0.635560
C177	C	1.572244	0.598095	0.968894
C178	C	0.905419	-0.301603	0.139370
C179	C	1.238752	0.031730	0.472703
C180	C	1.572086	0.365063	0.806037
C181	C	0.905518	-0.301432	0.069729
C182	C	1.238852	0.031901	0.403062
C183	C	1.572185	0.365234	0.736396
C184	C	0.945605	-0.261535	0.567966
C185	C	1.278939	0.071799	0.901300
C186	C	1.612272	0.405132	1.234633
C187	C	0.945604	-0.261508	0.633402
C188	C	1.278938	0.071826	0.966735
C189	C	1.612271	0.405159	1.300068
C190	C	0.905514	-0.301575	0.666091
C191	C	1.238847	0.031758	0.999424
C192	C	1.572181	0.365091	1.332757
C193	C	0.865410	-0.341661	0.633339
C194	C	1.198743	-0.008328	0.966672
C195	C	1.532077	0.325006	1.300005
C196	C	0.865407	-0.341682	0.567904
C197	C	1.198741	-0.008349	0.901238
C198	C	1.532074	0.324984	1.234571
C199	C	0.900538	-0.357992	0.769752
C200	C	1.233871	-0.024659	1.103085
C201	C	1.567205	0.308675	1.436418
C202	C	0.900545	-0.357972	0.835185
C203	C	1.233878	-0.024638	1.168518
C204	C	1.567211	0.308695	1.501851
C205	C	0.905518	-0.301509	0.867911
C206	C	1.238851	0.031824	1.201245
C207	C	1.572184	0.365158	1.534578
C208	C	0.910497	-0.245065	0.835197
C209	C	1.243830	0.088268	1.168531
C210	C	1.577164	0.421602	1.501864
C211	C	0.910495	-0.245086	0.769763
C212	C	1.243828	0.088247	1.103097
C213	C	1.577161	0.421580	1.436430
C214	C	0.905512	-0.301556	0.737043
C215	C	1.238845	0.031777	1.070376
C216	C	1.572179	0.365110	1.403710
C217	C	0.945615	-0.261393	0.971608
C218	C	1.278949	0.071940	1.304941
C219	C	1.612282	0.405273	1.638275
C220	C	0.945610	-0.261365	1.037045
C221	C	1.278943	0.071968	1.370378
C222	C	1.612277	0.405301	1.703711
C223	C	0.865419	-0.341524	1.036980
C224	C	1.198752	-0.008191	1.370314
C225	C	1.532085	0.325142	1.703647
C226	C	0.865421	-0.341547	0.971545
C227	C	1.198754	-0.008213	1.304878
C228	C	1.532087	0.325120	1.638212
C229	C	0.905522	-0.301482	0.938863
C230	C	1.238856	0.031851	1.272196
C231	C	1.572189	0.365185	1.605529
H232	H	0.346502	-0.310751	0.404585
H233	H	0.679836	0.022583	0.737919
H234	H	1.013169	0.355916	1.071252
H235	H	0.978310	-1.062443	0.229621
H236	H	1.311644	-0.729110	0.562954
H237	H	1.644977	-0.395777	0.896287
H238	H	0.896494	-0.403932	0.861815
H239	H	1.229828	-0.070598	1.195149
H240	H	1.563161	0.262735	1.528482
O241	O	0.895778	-0.412824	0.737918
O242	O	1.229111	-0.079490	1.071252
O243	O	1.562445	0.253843	1.404585
C244	C	0.949106	-0.420944	0.700111
C245	C	1.282439	-0.087611	1.033445
C246	C	1.615772	0.245722	1.366778
H247	H	0.971316	-0.373507	0.690291
H248	H	1.304649	-0.040174	1.023625
H249	H	1.637982	0.293159	1.356958
H250	H	0.934919	-0.443824	0.654104
H251	H	1.268252	-0.110491	0.987438
H252	H	1.601586	0.222842	1.320771
H253	H	0.984203	-0.452067	0.725365
H254	H	1.317536	-0.118734	1.058698
H255	H	1.650870	0.214599	1.392032
O256	O	0.826393	-0.380536	0.536067
O257	O	1.159726	-0.047202	0.869400
O258	O	1.493059	0.286131	1.202733
C259	C	0.785957	-0.344888	0.498173
C260	C	1.119291	-0.011554	0.831506
C261	C	1.452624	0.321779	1.164840
H262	H	0.782116	-0.295534	0.517889
H263	H	1.115449	0.037799	0.851222
H264	H	1.448783	0.371133	1.184556
H265	H	0.737726	-0.367560	0.497392
H266	H	1.071059	-0.034226	0.830726
H267	H	1.404392	0.299107	1.164059
H268	H	0.805332	-0.342744	0.448597
H269	H	1.138665	-0.009411	0.781930
H270	H	1.471999	0.323922	1.115264
O271	O	0.826498	-0.380671	0.665020
O272	O	1.159831	-0.047338	0.998354
O273	O	1.493165	0.285995	1.331687
C274	C	0.840161	-0.443121	0.649047
C275	C	1.173495	-0.109787	0.982380
C276	C	1.506828	0.223546	1.315714
H277	H	0.864243	-0.444428	0.601554
H278	H	1.197577	-0.111095	0.934888
H279	H	1.530910	0.222238	1.268221
H280	H	0.794925	-0.471224	0.646774
H281	H	1.128258	-0.137891	0.980107
H282	H	1.461592	0.195442	1.313441
H283	H	0.872363	-0.464207	0.685895
H284	H	1.205696	-0.130874	1.019228
H285	H	1.539030	0.202460	1.352562
H286	H	0.144569	-0.228783	0.229699
H287	H	0.477902	0.104550	0.563032
H288	H	0.811236	0.437884	0.896365
H289	H	0.832795	-0.943828	0.374811
H290	H	1.166129	-0.610495	0.708144
H291	H	1.499462	-0.277162	1.041477
O292	O	0.826520	-1.067583	0.381182
O293	O	1.159854	-0.734250	0.714515
O294	O	1.493187	-0.400917	1.047848
C295	C	0.791109	-1.024697	0.416484
C296	C	1.124443	-0.691363	0.749817
C297	C	1.457776	-0.358030	1.083151
H298	H	0.816754	-0.978021	0.418677
H299	H	1.150087	-0.644688	0.752010
H300	H	1.483421	-0.311354	1.085344
H301	H	0.784408	-1.043583	0.465845
H302	H	1.117741	-0.710249	0.799178
H303	H	1.451075	-0.376916	1.132511
H304	H	0.743533	-1.017807	0.393478
H305	H	1.076866	-0.684474	0.726812
H306	H	1.410199	-0.351141	1.060145
H307	H	0.144589	-0.374395	0.374824
H308	H	0.477922	-0.041061	0.708158
H309	H	0.811256	0.292272	1.041491
H310	H	0.978259	-0.943737	0.229590
H311	H	1.311593	-0.610403	0.562924
H312	H	1.644926	-0.277070	0.896257
O313	O	0.984496	-0.222383	0.939882
O314	O	1.317829	0.110950	1.273215
O315	O	1.651162	0.444283	1.606549
C316	C	0.970851	-0.159934	0.955870
C317	C	1.304184	0.173399	1.289204
C318	C	1.637518	0.506733	1.622537
H319	H	0.920799	-0.156774	0.973821
H320	H	1.254133	0.176560	1.307155
H321	H	1.587466	0.509893	1.640488
H322	H	0.976265	-0.128997	0.912841
H323	H	1.309599	0.204337	1.246174
H324	H	1.642932	0.537670	1.579508
H325	H	1.004454	-0.143533	0.993876
H326	H	1.337787	0.189800	1.327210
H327	H	1.671120	0.523133	1.660543
H328	H	0.263280	-0.228809	0.229652
H329	H	0.596613	0.104524	0.562985
H330	H	0.929946	0.437857	0.896319
H331	H	0.978254	-0.228864	0.660067
H332	H	1.311588	0.104469	0.993400
H333	H	1.644921	0.437803	1.326734
H334	H	1.007918	-0.860558	0.293349
H335	H	1.341251	-0.527224	0.626683
H336	H	1.674585	-0.193891	0.960016
O337	O	0.671981	-0.380832	0.380970
O338	O	1.005315	-0.047498	0.714303
O339	O	1.338648	0.285835	1.047637
C340	C	0.629075	-0.416254	0.416272
C341	C	0.962408	-0.082921	0.749605
C342	C	1.295741	0.250413	1.082938
H343	H	0.582459	-0.390585	0.418503
H344	H	0.915792	-0.057252	0.751837
H345	H	1.249126	0.276082	1.085170
H346	H	0.648026	-0.423015	0.465619
H347	H	0.981360	-0.089682	0.798952
H348	H	1.314693	0.243651	1.132286
H349	H	0.622043	-0.463803	0.393240
H350	H	0.955377	-0.130470	0.726573
H351	H	1.288710	0.202863	1.059907
H352	H	0.548226	-0.374479	0.374674
H353	H	0.881559	-0.041146	0.708008
H354	H	1.214892	0.292187	1.041341
H355	H	0.465214	-0.310778	0.404543
H356	H	0.798548	0.022555	0.737877
H357	H	1.131881	0.355888	1.071210
O358	O	0.984574	-0.222554	0.536317
O359	O	1.317907	0.110780	0.869650
O360	O	1.651241	0.444113	1.202984
C361	C	1.019975	-0.187180	0.579255
C362	C	1.353308	0.146153	0.912588
C363	C	1.686642	0.479487	1.245922
H364	H	0.994315	-0.185002	0.625880
H365	H	1.327648	0.148331	0.959214
H366	H	1.660982	0.481664	1.292547
H367	H	1.026689	-0.137818	0.560359
H368	H	1.360022	0.195515	0.893692
H369	H	1.693355	0.528848	1.227025
H370	H	1.067546	-0.210113	0.586246
H371	H	1.400880	0.123220	0.919580
H372	H	1.734213	0.456553	1.252913
O373	O	0.794149	-0.865843	0.311818
O374	O	1.127482	-0.532510	0.645151
O375	O	1.460815	-0.199177	0.978485
C376	C	0.744305	-0.822991	0.316099
C377	C	1.077639	-0.489657	0.649432
C378	C	1.410972	-0.156324	0.982766
H379	H	0.762547	-0.776317	0.334273
H380	H	1.095880	-0.442983	0.667606
H381	H	1.429213	-0.109650	1.000940
H382	H	0.707447	-0.841923	0.349579
H383	H	1.040781	-0.508590	0.682912
H384	H	1.374114	-0.175257	1.016245
H385	H	0.722617	-0.816080	0.267910
H386	H	1.055951	-0.482747	0.601243
H387	H	1.389284	-0.149414	0.934576
H388	H	0.978153	-0.658807	0.229544
H389	H	1.311486	-0.325474	0.562877
H390	H	1.644819	0.007860	0.896211
H391	H	0.346297	-0.292523	0.199778
H392	H	0.679631	0.040810	0.533111
H393	H	1.012964	0.374144	0.866445
O394	O	0.268346	-0.380749	0.381119
O395	O	0.601679	-0.047415	0.714453
O396	O	0.935012	0.285918	1.047786
C397	C	0.225441	-0.416167	0.416427
C398	C	0.558774	-0.082833	0.749761
C399	C	0.892107	0.250500	1.083094
H400	H	0.178826	-0.390497	0.418660
H401	H	0.512159	-0.057163	0.751993
H402	H	0.845492	0.276170	1.085326
H403	H	0.244396	-0.422923	0.465774
H404	H	0.577729	-0.089590	0.799107
H405	H	0.911063	0.243743	1.132441
H406	H	0.218407	-0.463718	0.393401
H407	H	0.551740	-0.130385	0.726735
H408	H	0.885074	0.202948	1.060068
H409	H	0.832691	-0.658904	0.374760
H410	H	1.166025	-0.325570	0.708093
H411	H	1.499358	0.007763	1.041426
H412	H	0.465002	-0.292541	0.199734
H413	H	0.798335	0.040792	0.533068
H414	H	1.131668	0.374126	0.866401
H415	H	0.832774	-0.374190	0.944885
H416	H	1.166107	-0.040857	1.278218
H417	H	1.499440	0.292476	1.611551
O418	O	0.543139	-0.222591	0.223178
O419	O	0.876472	0.110743	0.556512
O420	O	1.209806	0.444076	0.889845
C421	C	0.559038	-0.236205	0.160701
C422	C	0.892371	0.097129	0.494035
C423	C	1.225705	0.430462	0.827368
H424	H	0.606522	-0.260297	0.159345
H425	H	0.939855	0.073036	0.492678
H426	H	1.273189	0.406370	0.826012
H427	H	0.561292	-0.190945	0.132690
H428	H	0.894625	0.142388	0.466023
H429	H	1.227959	0.475722	0.799357
H430	H	0.522157	-0.268380	0.139549
H431	H	0.855490	0.064954	0.472882
H432	H	1.188823	0.398287	0.806216
O433	O	0.794182	-0.736879	0.311677
O434	O	1.127516	-0.403546	0.645010
O435	O	1.460849	-0.070212	0.978344
C436	C	0.786113	-0.699079	0.258316
C437	C	1.119447	-0.365746	0.591649
C438	C	1.452780	-0.032412	0.924982
H439	H	0.833569	-0.689228	0.236205
H440	H	1.166902	-0.355895	0.569538
H441	H	1.500235	-0.022561	0.902871
H442	H	0.763249	-0.653087	0.272433
H443	H	1.096582	-0.319754	0.605766
H444	H	1.429916	0.013580	0.939100
H445	H	0.754998	-0.724355	0.223161
H446	H	1.088331	-0.391021	0.556495
H447	H	1.421665	-0.057688	0.889828
H448	H	0.832647	-0.540189	0.374747
H449	H	1.165980	-0.206856	0.708080
H450	H	1.499314	0.126478	1.041414
H451	H	0.914547	-0.199128	0.743130
H452	H	1.247881	0.134206	1.076463
H453	H	1.581214	0.467539	1.409797
H454	H	0.666919	-0.228880	0.229513
H455	H	1.000252	0.104453	0.562846
H456	H	1.333586	0.437787	0.896179
H457	H	0.978103	-0.540098	0.229519
H458	H	1.311437	-0.206765	0.562852
H459	H	1.644770	0.126568	0.896185
O460	O	0.915207	-0.190215	0.867003
O461	O	1.248540	0.143118	1.200336
O462	O	1.581873	0.476452	1.533669
C463	C	0.861874	-0.182152	0.904816
C464	C	1.195208	0.151181	1.238149
C465	C	1.528541	0.484515	1.571482
H466	H	0.821574	-0.210931	0.885064
H467	H	1.154907	0.122402	1.218397
H468	H	1.488241	0.455735	1.551730
H469	H	0.848263	-0.130653	0.905540
H470	H	1.181596	0.202680	1.238873
H471	H	1.514930	0.536013	1.572206
H472	H	0.872660	-0.198351	0.954419
H473	H	1.205993	0.134982	1.287752
H474	H	1.539326	0.468316	1.621085
H475	H	1.007873	-0.741844	0.293325
H476	H	1.341207	-0.408511	0.626658
H477	H	1.674540	-0.075178	0.959991
O478	O	0.984469	-0.222354	1.068880
O479	O	1.317803	0.110979	1.402213
O480	O	1.651136	0.444312	1.735546
C481	C	0.948824	-0.181887	1.106711
C482	C	1.282157	0.151447	1.440044
C483	C	1.615490	0.484780	1.773377
H484	H	0.899479	-0.178035	1.086954
H485	H	1.232812	0.155298	1.420287
H486	H	1.566145	0.488631	1.753620
H487	H	0.971514	-0.133664	1.107466
H488	H	1.304848	0.199670	1.440800
H489	H	1.638181	0.533003	1.774133
H490	H	0.946654	-0.201237	1.156302
H491	H	1.279987	0.132097	1.489635
H492	H	1.613321	0.465430	1.822969
H493	H	0.832770	-0.374141	1.063595
H494	H	1.166103	-0.040808	1.396928
H495	H	1.499437	0.292525	1.730262
