data_functionalizedCrystal
_audit_creation_method	'MofGen! by Chris Wilmer'
_symmetry_space_group_name_H-M	'P1'
_symmetry_Int_Tables_number	1
_symmetry_cell_setting	triclinic
loop_
_symmetry_equiv_pos_as_xyz
  x,y,z
_cell_length_a	21.395364
_cell_length_b	21.395361
_cell_length_c	21.395355
_cell_angle_alpha	90.021511
_cell_angle_beta	89.975448
_cell_angle_gamma	89.954341
loop_
_atom_site_label
_atom_site_type_symbol
_atom_site_fract_x
_atom_site_fract_y
_atom_site_fract_z
Zn1	Zn	0.957859	0.249261	-0.354248
Zn2	Zn	1.457859	0.749261	0.145752
Zn3	Zn	0.957762	0.354021	-0.249466
Zn4	Zn	1.457762	0.854021	0.250534
Zn5	Zn	0.853074	0.249289	-0.249485
Zn6	Zn	1.353074	0.749289	0.250515
Zn7	Zn	0.853043	0.354032	-0.354206
Zn8	Zn	1.353043	0.854032	0.145794
O9	O	0.905435	0.301651	-0.301851
O10	O	1.405435	0.801651	0.198149
O11	O	1.045524	0.263142	-0.340358
O12	O	1.545524	0.763142	0.159642
O13	O	0.943847	0.340135	-0.161790
O14	O	1.443847	0.840135	0.338210
O15	O	0.867028	0.161607	-0.263408
O16	O	1.367028	0.661607	0.236592
O17	O	1.045453	0.340108	-0.263375
O18	O	1.545453	0.840108	0.236625
O19	O	0.944013	0.161587	-0.340378
O20	O	1.444013	0.661587	0.159622
O21	O	0.866933	0.263188	-0.161805
O22	O	1.366933	0.763188	0.338195
O23	O	0.765392	0.263199	-0.263367
O24	O	1.265392	0.763199	0.236633
O25	O	0.866975	0.340127	-0.441889
O26	O	1.366975	0.840127	0.058111
O27	O	0.765370	0.340154	-0.340305
O28	O	1.265370	0.840154	0.159695
O29	O	0.943983	0.263152	-0.441921
O30	O	1.443983	0.763152	0.058079
O31	O	0.943817	0.441700	-0.263333
O32	O	1.443817	0.941700	0.236667
O33	O	0.866881	0.441709	-0.340286
O34	O	1.366881	0.941709	0.159714
C35	C	0.742647	0.301681	-0.301834
C36	C	1.242647	0.801681	0.198166
C37	C	0.673006	0.301709	-0.301841
C38	C	1.173006	0.801709	0.198159
C39	C	0.905352	0.464438	-0.301816
C40	C	1.405352	0.964438	0.198184
C41	C	0.905374	0.534080	-0.301822
C42	C	1.405374	1.034080	0.198178
C43	C	0.905487	0.301638	-0.465275
C44	C	1.405487	0.801638	0.034725
C45	C	0.905509	0.301633	-0.534916
C46	C	1.405509	0.801633	-0.034916
C47	C	0.640352	0.261698	-0.341988
C48	C	1.140352	0.761698	0.158012
C49	C	0.574917	0.261682	-0.341991
C50	C	1.074917	0.761682	0.158009
C51	C	0.542137	0.301687	-0.301852
C52	C	1.042137	0.801687	0.198148
C53	C	0.574799	0.341701	-0.261697
C54	C	1.074799	0.841701	0.238303
C55	C	0.640233	0.341712	-0.261692
C56	C	1.140233	0.841712	0.238308
C57	C	0.438413	0.358112	-0.296812
C58	C	0.938413	0.858112	0.203188
C59	C	0.372980	0.358102	-0.296822
C60	C	0.872980	0.858102	0.203178
C61	C	0.340317	0.301653	-0.301866
C62	C	0.840317	0.801653	0.198134
C63	C	0.373094	0.245212	-0.306914
C64	C	0.873094	0.745212	0.193086
C65	C	0.438528	0.245223	-0.306908
C66	C	0.938528	0.745223	0.193092
C67	C	0.471185	0.301679	-0.301854
C68	C	0.971185	0.801679	0.198146
C69	C	0.236711	0.261620	-0.342018
C70	C	0.736711	0.761620	0.157982
C71	C	0.171274	0.261603	-0.342016
C72	C	0.671274	0.761603	0.157984
C73	C	0.171157	0.341627	-0.261726
C74	C	0.671157	0.841627	0.238274
C75	C	0.236593	0.341640	-0.261725
C76	C	0.736593	0.841640	0.238275
C77	C	0.269365	0.301637	-0.301874
C78	C	0.769365	0.801637	0.198126
C79	C	1.068858	0.301621	-0.301869
C80	C	1.568858	0.801621	0.198131
C81	C	1.138499	0.301608	-0.301877
C82	C	1.638499	0.801608	0.198123
C83	C	0.905535	0.138227	-0.301900
C84	C	1.405535	0.638227	0.198100
C85	C	0.905577	0.068586	-0.301921
C86	C	1.405577	0.568586	0.198079
C87	C	0.945470	0.566768	-0.261794
C88	C	1.445470	1.066768	0.238206
C89	C	0.945499	0.632203	-0.261808
C90	C	1.445499	1.132203	0.238192
C91	C	0.905421	0.664948	-0.301844
C92	C	1.405421	1.164948	0.198156
C93	C	0.865322	0.632252	-0.341880
C94	C	1.365322	1.132252	0.158120
C95	C	0.865298	0.566818	-0.341869
C96	C	1.365298	1.066818	0.158131
C97	C	0.849006	0.768678	-0.306754
C98	C	1.349006	1.268678	0.193246
C99	C	0.849029	0.834111	-0.306760
C100	C	1.349029	1.334111	0.193240
C101	C	0.905494	0.866769	-0.301881
C102	C	1.405494	1.366769	0.198119
C103	C	0.961938	0.833986	-0.296982
C104	C	1.461938	1.333986	0.203018
C105	C	0.961915	0.768551	-0.296971
C106	C	1.461915	1.268551	0.203029
C107	C	0.905442	0.735900	-0.301860
C108	C	1.405442	1.235900	0.198140
C109	C	0.945625	0.970409	-0.261866
C110	C	1.445625	1.470409	0.238134
C111	C	0.945655	1.035846	-0.261884
C112	C	1.445655	1.535846	0.238116
C113	C	0.865473	1.035893	-0.341952
C114	C	1.365473	1.535893	0.158048
C115	C	0.865448	0.970458	-0.341937
C116	C	1.365448	1.470458	0.158063
C117	C	0.905523	0.937720	-0.301890
C118	C	1.405523	1.437720	0.198110
C119	C	0.945605	0.261550	-0.567646
C120	C	1.445605	0.761550	-0.067646
C121	C	0.945604	0.261523	-0.633082
C122	C	1.445604	0.761523	-0.133082
C123	C	0.905514	0.301590	-0.665784
C124	C	1.405514	0.801590	-0.165784
C125	C	0.865410	0.341675	-0.633046
C126	C	1.365410	0.841675	-0.133046
C127	C	0.865407	0.341697	-0.567612
C128	C	1.365407	0.841697	-0.067612
C129	C	0.900538	0.358007	-0.769447
C130	C	1.400538	0.858007	-0.269447
C131	C	0.900545	0.357986	-0.834880
C132	C	1.400545	0.857986	-0.334880
C133	C	0.905518	0.301524	-0.867605
C134	C	1.405518	0.801524	-0.367605
C135	C	0.910497	0.245080	-0.834889
C136	C	1.410497	0.745080	-0.334889
C137	C	0.910494	0.245101	-0.769455
C138	C	1.410494	0.745101	-0.269455
C139	C	0.905512	0.301571	-0.736737
C140	C	1.405512	0.801571	-0.236737
C141	C	0.945615	0.261409	-0.971288
C142	C	1.445615	0.761409	-0.471288
C143	C	0.945610	0.261381	-1.036725
C144	C	1.445610	0.761381	-0.536725
C145	C	0.865419	0.341538	-1.036688
C146	C	1.365419	0.841538	-0.536688
C147	C	0.865421	0.341561	-0.971252
C148	C	1.365421	0.841561	-0.471252
C149	C	0.905522	0.301497	-0.938556
C150	C	1.405522	0.801497	-0.438556
C151	C	0.905419	0.301618	-0.139064
C152	C	1.405419	0.801618	0.360936
C153	C	0.905518	0.301447	-0.069423
C154	C	1.405518	0.801447	0.430577
H155	H	0.667032	0.229125	-0.374681
H156	H	1.167032	0.729125	0.125319
F157	F	0.822621	0.532028	-0.384474
F158	F	1.322621	1.032028	0.115526
H159	H	0.144689	0.229017	-0.374708
H160	H	0.644689	0.729017	0.125292
H161	H	0.832795	0.943842	-0.374529
H162	H	1.332795	1.443842	0.125471
F163	F	0.988295	0.218724	-1.071559
F164	F	1.488295	0.718724	-0.571559
F165	F	0.136275	0.384201	-0.219004
F166	F	0.636275	0.884201	0.280996
F167	F	0.895251	0.418059	-0.869692
F168	F	1.395251	0.918059	-0.369692
F169	F	0.271346	0.384223	-0.218992
F170	F	0.771346	0.884223	0.281008
F171	F	0.674986	0.384297	-0.218958
F172	F	1.174986	0.884297	0.281042
F173	F	0.473410	0.185156	-0.312277
F174	F	0.973410	0.685156	0.187723
F175	F	0.271592	0.219043	-0.384744
F176	F	0.771592	0.719043	0.115256
H177	H	0.832774	0.374204	-0.944603
H178	H	1.332774	0.874204	-0.444603
H179	H	0.978258	0.228926	-0.541029
H180	H	1.478258	0.728926	-0.041029
F181	F	1.022037	0.868737	-0.291783
F182	F	1.522037	1.368737	0.208217
H183	H	0.978103	0.540114	-0.229188
H184	H	1.478103	1.040114	0.270812
F185	F	0.895259	0.418107	-0.734624
F186	F	1.395259	0.918107	-0.234624
F187	F	0.473170	0.418196	-0.291435
F188	F	0.973170	0.918196	0.208565
F189	F	0.540158	0.219094	-0.384722
F190	F	1.040158	0.719094	0.115278
F191	F	0.822741	0.384315	-0.667851
F192	F	1.322741	0.884315	-0.167851
F193	F	0.338102	0.418171	-0.291459
F194	F	0.838102	0.918171	0.208541
H195	H	0.346501	0.199246	-0.311021
H196	H	0.846501	0.699246	0.188979
H197	H	0.548106	0.374273	-0.229016
H198	H	1.048106	0.874273	0.270984
H199	H	0.978152	0.658823	-0.229213
H200	H	1.478152	1.158823	0.270787
H201	H	0.832753	0.374336	-0.540963
H202	H	1.332753	0.874336	-0.040963
H203	H	1.007873	0.741861	-0.292984
H204	H	1.507873	1.241861	0.207016
H205	H	0.978259	0.943753	-0.229259
H206	H	1.478259	1.443753	0.270741
F207	F	0.822746	0.384176	-1.071488
F208	F	1.322746	0.884176	-0.571488
H209	H	0.978310	1.062459	-0.229290
H210	H	1.478310	1.562459	0.270710
F211	F	0.822822	1.070739	-0.384565
F212	F	1.322822	1.570739	0.115435
F213	F	0.788956	0.868995	-0.311972
F214	F	1.288956	1.368995	0.188028
F215	F	0.915792	0.184983	-0.869712
F216	F	1.415792	0.684983	-0.369712
F217	F	0.788904	0.733927	-0.311948
F218	F	1.288904	1.233927	0.188052
F219	F	0.822670	0.667102	-0.384490
F220	F	1.322670	1.167102	0.115510
H221	H	0.978254	0.228880	-0.659736
H222	H	1.478254	0.728880	-0.159736
F223	F	0.915790	0.185031	-0.734639
F224	F	1.415790	0.685031	-0.234639
H225	H	0.978265	0.228783	-0.944666
H226	H	1.478265	0.728783	-0.444666
