data_functionalizedCrystal
_audit_creation_method	'MofGen! by Chris Wilmer'
_symmetry_space_group_name_H-M	'P1'
_symmetry_Int_Tables_number	1
_symmetry_cell_setting	triclinic
loop_
_symmetry_equiv_pos_as_xyz
  x,y,z
_cell_length_a	21.395362
_cell_length_b	12.759400
_cell_length_c	21.395355
_cell_angle_alpha	89.986153
_cell_angle_beta	89.956060
_cell_angle_gamma	90.030564
loop_
_atom_site_label
_atom_site_type_symbol
_atom_site_fract_x
_atom_site_fract_y
_atom_site_fract_z
Zn1	Zn	0.957929	-0.417943	-0.354606
Zn2	Zn	1.457929	0.082057	0.145394
Zn3	Zn	0.957861	-0.593607	-0.249837
Zn4	Zn	1.457861	-0.093607	0.250163
Zn5	Zn	0.853144	-0.417992	-0.249807
Zn6	Zn	1.353144	0.082008	0.250193
Zn7	Zn	0.853143	-0.593629	-0.354542
Zn8	Zn	1.353143	-0.093629	0.145458
O9	O	0.905519	-0.505793	-0.302198
O10	O	1.405519	-0.005793	0.197802
O11	O	1.045598	-0.441215	-0.340747
O12	O	1.545598	0.058785	0.159253
O13	O	0.943942	-0.570323	-0.162155
O14	O	1.443942	-0.070323	0.337845
O15	O	0.867073	-0.270964	-0.263723
O16	O	1.367073	0.229036	0.236277
O17	O	1.045548	-0.570275	-0.263774
O18	O	1.545548	-0.070275	0.236226
O19	O	0.944058	-0.270928	-0.340719
O20	O	1.444058	0.229072	0.159281
O21	O	0.867007	-0.441299	-0.162133
O22	O	1.367007	0.058701	0.337867
O23	O	0.765466	-0.441320	-0.263661
O24	O	1.265466	0.058680	0.236339
O25	O	0.867071	-0.570312	-0.442228
O26	O	1.367071	-0.070312	0.057772
O27	O	0.765465	-0.570360	-0.340609
O28	O	1.265465	-0.070360	0.159391
O29	O	0.944057	-0.441236	-0.442275
O30	O	1.444057	0.058764	0.057725
O31	O	0.943941	-0.740631	-0.263712
O32	O	1.443941	-0.240631	0.236288
O33	O	0.867005	-0.740647	-0.340638
O34	O	1.367005	-0.240647	0.159362
C35	C	0.742732	-0.505848	-0.302125
C36	C	1.242732	-0.005848	0.197875
C37	C	0.673090	-0.505897	-0.302109
C38	C	1.173090	-0.005897	0.197891
C39	C	0.640393	-0.573177	-0.342116
C40	C	1.140393	-0.073177	0.157884
C41	C	0.574958	-0.573152	-0.342144
C42	C	1.074958	-0.073152	0.157856
C43	C	0.542222	-0.505857	-0.302154
C44	C	1.042222	-0.005857	0.197846
C45	C	0.574927	-0.438564	-0.262144
C46	C	1.074927	0.061436	0.237856
C47	C	0.640361	-0.438584	-0.262122
C48	C	1.140361	0.061416	0.237878
C49	C	0.438496	-0.497393	-0.245748
C50	C	0.938496	0.002607	0.254252
C51	C	0.373063	-0.497380	-0.245769
C52	C	0.873063	0.002620	0.254231
C53	C	0.340401	-0.505788	-0.302223
C54	C	0.840401	-0.005788	0.197777
C55	C	0.373181	-0.514231	-0.358657
C56	C	0.873181	-0.014231	0.141343
C57	C	0.438615	-0.514251	-0.358635
C58	C	0.938615	-0.014251	0.141365
C59	C	0.471270	-0.505827	-0.302174
C60	C	0.971270	-0.005827	0.197826
C61	C	0.236752	-0.573044	-0.342263
C62	C	0.736752	-0.073044	0.157737
C63	C	0.171315	-0.573011	-0.342292
C64	C	0.671315	-0.073011	0.157708
C65	C	0.171286	-0.438428	-0.262287
C66	C	0.671286	0.061572	0.237713
C67	C	0.236721	-0.438456	-0.262264
C68	C	0.736721	0.061544	0.237736
C69	C	0.269450	-0.505769	-0.302251
C70	C	0.769450	-0.005769	0.197749
C71	C	0.905482	-0.778760	-0.302185
C72	C	1.405482	-0.278760	0.197815
C73	C	0.905523	-0.895537	-0.302200
C74	C	1.405523	-0.395537	0.197800
C75	C	0.945629	-0.950355	-0.262189
C76	C	1.445629	-0.450355	0.237811
C77	C	0.945667	-1.060079	-0.262209
C78	C	1.445667	-0.560079	0.237791
C79	C	0.865490	-1.060156	-0.342252
C80	C	1.365490	-0.560156	0.157748
C81	C	0.865455	-0.950434	-0.342235
C82	C	1.365455	-0.450434	0.157765
C83	C	0.991916	-0.950312	-0.215975
C84	C	1.491916	-0.450312	0.284025
C85	C	0.991955	-1.060036	-0.215994
C86	C	1.491955	-0.560036	0.284006
C87	C	1.068943	-0.505738	-0.302271
C88	C	1.568943	-0.005738	0.197729
C89	C	1.138584	-0.505714	-0.302303
C90	C	1.638584	-0.005714	0.197697
C91	C	0.905571	-0.505771	-0.465621
C92	C	1.405571	-0.005771	0.034379
C93	C	0.905593	-0.505762	-0.535263
C94	C	1.405593	-0.005762	-0.035263
C95	C	0.905574	-0.231759	-0.302225
C96	C	1.405574	0.268241	0.197775
C97	C	0.905597	-0.114983	-0.302236
C98	C	1.405597	0.385017	0.197764
C99	C	0.945678	-0.438550	-0.568001
C100	C	1.445678	0.061450	-0.068001
C101	C	0.945678	-0.438504	-0.633437
C102	C	1.445678	0.061496	-0.133437
C103	C	0.905598	-0.505691	-0.666131
C104	C	1.405598	-0.005691	-0.166131
C105	C	0.865505	-0.572908	-0.633384
C106	C	1.365505	-0.072908	-0.133384
C107	C	0.865503	-0.572944	-0.567950
C108	C	1.365503	-0.072944	-0.067950
C109	C	0.900638	-0.600292	-0.769799
C110	C	1.400638	-0.100292	-0.269799
C111	C	0.900645	-0.600258	-0.835232
C112	C	1.400645	-0.100258	-0.335232
C113	C	0.905602	-0.505580	-0.867952
C114	C	1.405602	-0.005580	-0.367952
C115	C	0.910566	-0.410932	-0.835230
C116	C	1.410566	0.089068	-0.335230
C117	C	0.910563	-0.410968	-0.769796
C118	C	1.410563	0.089032	-0.269796
C119	C	0.905596	-0.505659	-0.737083
C120	C	1.405596	-0.005659	-0.237083
C121	C	0.945688	-0.438312	-0.971643
C122	C	1.445688	0.061688	-0.471643
C123	C	0.945683	-0.438265	-1.037080
C124	C	1.445683	0.061735	-0.537080
C125	C	0.865514	-0.572678	-1.037026
C126	C	1.365514	-0.072678	-0.537026
C127	C	0.865516	-0.572716	-0.971591
C128	C	1.365516	-0.072716	-0.471591
C129	C	0.905607	-0.505534	-0.938903
C130	C	1.405607	-0.005534	-0.438903
C131	C	0.905503	-0.505738	-0.139410
C132	C	1.405503	-0.005738	0.360590
C133	C	0.905603	-0.505451	-0.069770
C134	C	1.405603	-0.005451	0.430230
H135	H	0.465301	-0.521123	-0.404585
H136	H	0.965301	-0.021123	0.095415
H137	H	0.263401	-0.627849	-0.374827
H138	H	0.763401	-0.127849	0.125173
C139	C	1.015498	-0.842615	-0.127046
C140	C	1.515498	-0.342615	0.372954
C141	C	0.968469	-0.904446	-0.153716
C142	C	1.468469	-0.404446	0.346284
H143	H	1.001018	-0.814294	-0.088612
H144	H	1.501018	-0.314294	0.411388
H145	H	1.051441	-0.884465	-0.119648
H146	H	1.551441	-0.384465	0.380352
H147	H	1.025919	-0.787143	-0.154787
H148	H	1.525919	-0.287143	0.345213
H149	H	0.958051	-0.959924	-0.125977
H150	H	1.458051	-0.459924	0.374023
H151	H	0.932515	-0.862594	-0.161111
H152	H	1.432515	-0.362594	0.338889
H153	H	0.896607	-0.677325	-0.861869
H154	H	1.396607	-0.177325	-0.361869
H155	H	0.914603	-0.333836	-0.861869
H156	H	1.414603	0.166164	-0.361869
C157	C	1.043198	-1.167583	-0.292508
C158	C	1.543198	-0.667583	0.207492
C159	C	1.054187	-1.105850	-0.239540
C160	C	1.554187	-0.605850	0.260460
H161	H	1.081617	-1.195860	-0.307047
H162	H	1.581617	-0.695860	0.192953
H163	H	1.015498	-1.223077	-0.282026
H164	H	1.515498	-0.723077	0.217974
H165	H	1.025034	-1.125671	-0.324378
H166	H	1.525034	-0.625671	0.175622
H167	H	1.072347	-1.147764	-0.207669
H168	H	1.572347	-0.647764	0.292331
H169	H	1.081897	-1.050348	-0.250020
H170	H	1.581897	-0.550348	0.249980
H171	H	0.144694	-0.627796	-0.374875
H172	H	0.644694	-0.127796	0.125125
H173	H	0.666983	-0.383793	-0.229543
H174	H	1.166983	0.116207	0.270457
H175	H	0.978318	-0.383766	-0.660098
H176	H	1.478318	0.116234	-0.160098
C177	C	0.914839	-1.063889	-0.134434
C178	C	1.414839	-0.563889	0.365566
C179	C	0.974448	-1.100340	-0.150476
C180	C	1.474448	-0.600340	0.349524
H181	H	0.904030	-1.088778	-0.093989
H182	H	1.404030	-0.588778	0.406011
H183	H	0.914816	-0.989448	-0.134418
H184	H	1.414816	-0.489448	0.365582
H185	H	0.885243	-1.088737	-0.164009
H186	H	1.385243	-0.588737	0.335991
H187	H	1.004044	-1.075485	-0.120903
H188	H	1.504044	-0.575485	0.379097
H189	H	0.974475	-1.174796	-0.150486
H190	H	1.474475	-0.674796	0.349514
H191	H	0.896434	-0.677371	-0.743165
H192	H	1.396434	-0.177371	-0.243165
C193	C	0.759394	-1.094103	-0.372653
C194	C	1.259394	-0.594103	0.127347
C195	C	0.821446	-1.120500	-0.386256
C196	C	1.321446	-0.620500	0.113744
H197	H	0.732203	-1.131350	-0.399824
H198	H	1.232203	-0.631350	0.100176
H199	H	0.750253	-1.112147	-0.330554
H200	H	1.250253	-0.612147	0.169446
H201	H	0.753640	-1.020908	-0.378369
H202	H	1.253640	-0.520908	0.121631
H203	H	0.827200	-1.193693	-0.380536
H204	H	1.327200	-0.693693	0.119464
H205	H	0.830589	-1.102463	-0.428366
H206	H	1.330589	-0.602463	0.071634
C207	C	0.981248	-0.378873	-0.467722
C208	C	1.481248	0.121127	0.032278
C209	C	0.989721	-0.364665	-0.532071
C210	C	1.489721	0.135335	-0.032071
H211	H	1.008435	-0.333253	-0.445541
H212	H	1.508435	0.166747	0.054459
H213	H	0.939152	-0.363543	-0.456982
H214	H	1.439152	0.136457	0.043018
H215	H	0.990422	-0.449458	-0.457004
H216	H	1.490422	0.050542	0.042996
H217	H	0.980543	-0.294082	-0.542791
H218	H	1.480543	0.205918	-0.042791
H219	H	1.031827	-0.379988	-0.542816
H220	H	1.531827	0.120012	-0.042816
H221	H	0.667037	-0.627988	-0.374678
H222	H	1.167037	-0.127988	0.125322
C223	C	0.834960	-0.750584	-1.057145
C224	C	1.334960	-0.250584	-0.557145
C225	C	0.821456	-0.646537	-1.072951
C226	C	1.321456	-0.146537	-0.572951
H227	H	0.807754	-0.796180	-1.079322
H228	H	1.307754	-0.296180	-0.579322
H229	H	0.877048	-0.765932	-1.067907
H230	H	1.377048	-0.265932	-0.567907
H231	H	0.829224	-0.760208	-1.013487
H232	H	1.329224	-0.260208	-0.513487
H233	H	0.827196	-0.636911	-1.116608
H234	H	1.327196	-0.136911	-0.616608
H235	H	0.779357	-0.631183	-1.062193
H236	H	1.279357	-0.131183	-0.562193
H237	H	0.832871	-0.627608	-0.660008
H238	H	1.332871	-0.127608	-0.160008
C239	C	1.101056	-0.946524	-0.190020
C240	C	1.601056	-0.446524	0.309980
C241	C	1.057401	-0.909975	-0.233596
C242	C	1.557401	-0.409975	0.266404
H243	H	1.141481	-0.921625	-0.200902
H244	H	1.641481	-0.421625	0.299098
H245	H	1.090226	-0.921762	-0.149577
H246	H	1.590226	-0.421762	0.350423
H247	H	1.101072	-1.020974	-0.190038
H248	H	1.601072	-0.520974	0.309962
H249	H	1.057381	-0.835524	-0.233575
H250	H	1.557381	-0.335524	0.266425
H251	H	1.068233	-0.934731	-0.274050
H252	H	1.568233	-0.434731	0.225950
C253	C	0.353095	-0.617812	-0.450149
C254	C	0.853095	-0.117812	0.049851
C255	C	0.337293	-0.523455	-0.420721
C256	C	0.837293	-0.023455	0.079279
H257	H	0.330935	-0.623504	-0.488463
H258	H	0.830935	-0.123504	0.011537
H259	H	0.396751	-0.619033	-0.458204
H260	H	0.896751	-0.119033	0.041796
H261	H	0.342303	-0.674892	-0.423741
H262	H	0.842303	-0.174892	0.076259
H263	H	0.348088	-0.466374	-0.447127
H264	H	0.848088	0.033626	0.052873
H265	H	0.293627	-0.522225	-0.412669
H266	H	0.793627	-0.022225	0.087331
H267	H	0.465084	-0.490542	-0.199774
H268	H	0.965084	0.009458	0.300226
H269	H	0.548330	-0.627939	-0.374725
H270	H	1.048330	-0.127939	0.125275
H271	H	0.144633	-0.383631	-0.229729
H272	H	0.644633	0.116369	0.270271
C273	C	0.230118	-0.305437	-0.183182
C274	C	0.730118	0.194563	0.316818
C275	C	0.272666	-0.364509	-0.218280
C276	C	0.772666	0.135491	0.281720
H277	H	0.252310	-0.259787	-0.156026
H278	H	0.752310	0.240213	0.343974
H279	H	0.204646	-0.265309	-0.210530
H280	H	0.704646	0.234691	0.289470
H281	H	0.204548	-0.351156	-0.159180
H282	H	0.704548	0.148844	0.340820
H283	H	0.298233	-0.318790	-0.242286
H284	H	0.798233	0.181210	0.257714
H285	H	0.298149	-0.404640	-0.190928
H286	H	0.798149	0.095360	0.309072
C287	C	0.920359	-0.223821	-0.776358
C288	C	1.420359	0.276179	-0.276358
C289	C	0.916009	-0.306938	-0.733828
C290	C	1.416009	0.193062	-0.233828
H291	H	0.923715	-0.159597	-0.754152
H292	H	1.423715	0.340403	-0.254152
H293	H	0.956266	-0.233023	-0.801903
H294	H	1.456266	0.266977	-0.301903
H295	H	0.884041	-0.222467	-0.801857
H296	H	1.384041	0.277533	-0.301857
H297	H	0.952330	-0.308297	-0.708333
H298	H	1.452330	0.191703	-0.208333
H299	H	0.880099	-0.297734	-0.708272
H300	H	1.380099	0.202266	-0.208272
H301	H	0.548270	-0.383770	-0.229585
H302	H	1.048270	0.116230	0.270415
H303	H	0.346379	-0.490512	-0.199817
H304	H	0.846379	0.009488	0.300183
H305	H	0.832858	-0.627675	-0.541295
H306	H	1.332858	-0.127675	-0.041295
C307	C	0.834879	-0.916631	-0.448289
C308	C	1.334879	-0.416631	0.051711
C309	C	0.821372	-0.890181	-0.386220
C310	C	1.321372	-0.390181	0.113780
H311	H	0.807659	-0.879438	-0.475443
H312	H	1.307659	-0.379438	0.024557
H313	H	0.876961	-0.898557	-0.457501
H314	H	1.376961	-0.398557	0.042499
H315	H	0.829166	-0.989837	-0.454018
H316	H	1.329166	-0.489837	0.045982
H317	H	0.827089	-0.816976	-0.380490
H318	H	1.327089	-0.316976	0.119510
H319	H	0.779280	-0.908248	-0.377005
H320	H	1.279280	-0.408248	0.122995
C321	C	0.781234	-0.587381	-0.897945
C322	C	1.281234	-0.087381	-0.397945
C323	C	0.821458	-0.646607	-0.935599
C324	C	1.321458	-0.146607	-0.435599
H325	H	0.754030	-0.633000	-0.875728
H326	H	1.254030	-0.133000	-0.375728
H327	H	0.805106	-0.547384	-0.869114
H328	H	1.305106	-0.047384	-0.369114
H329	H	0.757279	-0.541605	-0.923458
H330	H	1.257279	-0.041605	-0.423458
H331	H	0.845417	-0.692378	-0.910085
H332	H	1.345417	-0.192378	-0.410085
H333	H	0.797584	-0.686622	-0.964433
H334	H	1.297584	-0.186622	-0.464433
C335	C	1.024925	-0.305438	-0.978266
C336	C	1.524925	0.194562	-0.478266
C337	C	0.989747	-0.364456	-0.935708
C338	C	1.489747	0.135544	-0.435708
H339	H	1.052121	-0.259838	-0.956081
H340	H	1.552121	0.240162	-0.456081
H341	H	1.048883	-0.351187	-1.003807
H342	H	1.548883	0.148813	-0.503807
H343	H	0.997626	-0.265250	-1.003766
H344	H	1.497626	0.234750	-0.503766
H345	H	1.017045	-0.404651	-0.910211
H346	H	1.517045	0.095349	-0.410211
H347	H	0.965787	-0.318702	-0.910156
H348	H	1.465787	0.181298	-0.410156
H349	H	0.978324	-0.383527	-1.063735
H350	H	1.478324	0.116473	-0.563735
