data_functionalizedCrystal
_audit_creation_method	'MofGen! by Chris Wilmer'
_symmetry_space_group_name_H-M	'P1'
_symmetry_Int_Tables_number	1
_symmetry_cell_setting	triclinic
loop_
_symmetry_equiv_pos_as_xyz
  x,y,z
_cell_length_a	17.077404
_cell_length_b	17.077402
_cell_length_c	17.077396
_cell_angle_alpha	89.973827
_cell_angle_beta	90.021457
_cell_angle_gamma	89.976501
loop_
_atom_site_label
_atom_site_type_symbol
_atom_site_fract_x
_atom_site_fract_y
_atom_site_fract_z
Zn1	Zn	-1.200046	-0.312527	-0.443896
Zn2	Zn	-0.866713	0.020806	-0.110563
Zn3	Zn	-0.533380	0.354140	0.222770
Zn4	Zn	-1.199950	-0.443802	-0.312636
Zn5	Zn	-0.866617	-0.110468	0.020698
Zn6	Zn	-0.533283	0.222865	0.354031
Zn7	Zn	-1.068778	-0.312552	-0.312640
Zn8	Zn	-0.735445	0.020781	0.020694
Zn9	Zn	-0.402112	0.354115	0.354027
Zn10	Zn	-1.068743	-0.443753	-0.443855
Zn11	Zn	-0.735409	-0.110419	-0.110521
Zn12	Zn	-0.402076	0.222914	0.222812
O13	O	-1.134379	-0.378158	-0.378257
O14	O	-0.801046	-0.044825	-0.044923
O15	O	-0.467713	0.288508	0.288410
O16	O	-1.309881	-0.329951	-0.426500
O17	O	-0.976547	0.003382	-0.093167
O18	O	-0.643214	0.336716	0.240167
O19	O	-1.182524	-0.426422	-0.202789
O20	O	-0.849191	-0.093089	0.130544
O21	O	-0.515858	0.240244	0.463878
O22	O	-1.086246	-0.202702	-0.330070
O23	O	-0.752913	0.130632	0.003263
O24	O	-0.419580	0.463965	0.336596
O25	O	-1.309810	-0.426398	-0.330063
O26	O	-0.976476	-0.093065	0.003270
O27	O	-0.643143	0.240269	0.336603
O28	O	-1.182689	-0.202683	-0.426504
O29	O	-0.849355	0.130650	-0.093171
O30	O	-0.516022	0.463983	0.240163
O31	O	-1.086153	-0.329993	-0.202792
O32	O	-0.752820	0.003340	0.130541
O33	O	-0.419486	0.336673	0.463874
O34	O	-0.958927	-0.329946	-0.330030
O35	O	-0.625593	0.003388	0.003303
O36	O	-0.292260	0.336721	0.336637
O37	O	-1.086186	-0.426314	-0.553707
O38	O	-0.752853	-0.092981	-0.220374
O39	O	-0.419519	0.240352	0.112960
O40	O	-0.958901	-0.426338	-0.426433
O41	O	-0.625567	-0.093005	-0.093100
O42	O	-0.292234	0.240328	0.240234
O43	O	-1.182654	-0.329903	-0.553738
O44	O	-0.849321	0.003430	-0.220404
O45	O	-0.515988	0.336763	0.112929
O46	O	-1.182490	-0.553642	-0.330023
O47	O	-0.849157	-0.220309	0.003310
O48	O	-0.515823	0.113025	0.336644
O49	O	-1.086092	-0.553606	-0.426429
O50	O	-0.752759	-0.220273	-0.093096
O51	O	-0.419426	0.113061	0.240238
C52	C	-0.930431	-0.378140	-0.378228
C53	C	-0.597098	-0.044807	-0.044895
C54	C	-0.263765	0.288527	0.288439
C55	C	-0.843182	-0.378151	-0.378234
C56	C	-0.509848	-0.044818	-0.044901
C57	C	-0.176515	0.288515	0.288432
C58	C	-1.134298	-0.582106	-0.378238
C59	C	-0.800965	-0.248773	-0.044905
C60	C	-0.467632	0.084560	0.288429
C61	C	-1.134335	-0.669356	-0.378256
C62	C	-0.801002	-0.336023	-0.044923
C63	C	-0.467669	-0.002689	0.288410
C64	C	-1.184735	-1.045163	-0.328149
C65	C	-0.851402	-0.711830	0.005184
C66	C	-0.518069	-0.378496	0.338518
C67	C	-1.184695	-0.963183	-0.328135
C68	C	-0.851362	-0.629849	0.005198
C69	C	-0.518028	-0.296516	0.338532
C70	C	-1.134449	-0.922205	-0.378284
C71	C	-0.801116	-0.588871	-0.044951
C72	C	-0.467782	-0.255538	0.288383
C73	C	-1.084234	-0.963212	-0.428445
C74	C	-0.750901	-0.629878	-0.095111
C75	C	-0.417567	-0.296545	0.238222
C76	C	-1.084271	-1.045191	-0.428454
C77	C	-0.750938	-0.711857	-0.095121
C78	C	-0.417604	-0.378524	0.238212
C79	C	-1.084162	-0.792342	-0.428423
C80	C	-0.750829	-0.459008	-0.095090
C81	C	-0.417495	-0.125675	0.238244
C82	C	-1.084126	-0.710357	-0.428415
C83	C	-0.750793	-0.377024	-0.095082
C84	C	-0.417459	-0.043690	0.238252
C85	C	-1.184586	-0.710334	-0.328104
C86	C	-0.851253	-0.377000	0.005229
C87	C	-0.517920	-0.043667	0.338563
C88	C	-1.184623	-0.792313	-0.328113
C89	C	-0.851290	-0.458979	0.005220
C90	C	-0.517956	-0.125646	0.338553
C91	C	-1.134409	-0.833314	-0.378275
C92	C	-0.801076	-0.499980	-0.044942
C93	C	-0.467742	-0.166647	0.288391
C94	C	-0.802199	-0.428418	-0.428349
C95	C	-0.468865	-0.095084	-0.095016
C96	C	-0.135532	0.238249	0.238317
C97	C	-0.720218	-0.428418	-0.428359
C98	C	-0.386885	-0.095084	-0.095026
C99	C	-0.053551	0.238249	0.238307
C100	C	-0.679222	-0.378155	-0.378249
C101	C	-0.345889	-0.044821	-0.044916
C102	C	-0.012556	0.288512	0.288417
C103	C	-0.720211	-0.327883	-0.328132
C104	C	-0.386878	0.005451	0.005201
C105	C	-0.053545	0.338784	0.338535
C106	C	-0.802190	-0.327879	-0.328127
C107	C	-0.468857	0.005454	0.005207
C108	C	-0.135524	0.338787	0.338540
C109	C	-0.549341	-0.327895	-0.328145
C110	C	-0.216008	0.005439	0.005188
C111	C	0.117325	0.338772	0.338522
C112	C	-0.467357	-0.327899	-0.328149
C113	C	-0.134023	0.005434	0.005184
C114	C	0.199310	0.338768	0.338518
C115	C	-0.467369	-0.428433	-0.428377
C116	C	-0.134036	-0.095100	-0.095044
C117	C	0.199298	0.238233	0.238289
C118	C	-0.549348	-0.428430	-0.428372
C119	C	-0.216015	-0.095097	-0.095039
C120	C	0.117319	0.238237	0.238294
C121	C	-0.590331	-0.378159	-0.378254
C122	C	-0.256998	-0.044825	-0.044920
C123	C	0.076335	0.288508	0.288413
C124	C	-0.339124	-0.378172	-0.378277
C125	C	-0.005790	-0.044839	-0.044944
C126	C	0.327543	0.288494	0.288390
C127	C	-0.426373	-0.378166	-0.378264
C128	C	-0.093040	-0.044832	-0.044931
C129	C	0.240293	0.288501	0.288403
C130	C	-1.134482	-0.173414	-0.378292
C131	C	-0.801149	0.159919	-0.044959
C132	C	-0.467816	0.493253	0.288374
C133	C	-1.134526	-0.086164	-0.378307
C134	C	-0.801193	0.247169	-0.044974
C135	C	-0.467859	0.580503	0.288359
C136	C	-1.134427	-0.378100	-0.583001
C137	C	-0.801094	-0.044767	-0.249668
C138	C	-0.467760	0.288566	0.083666
C139	C	-1.134447	-0.378076	-0.670251
C140	C	-0.801114	-0.044742	-0.336917
C141	C	-0.467780	0.288591	-0.003584
C142	C	-1.184680	-0.327870	-0.711258
C143	C	-0.851347	0.005463	-0.377925
C144	C	-0.518013	0.338796	-0.044591
C145	C	-1.184689	-0.327844	-0.793239
C146	C	-0.851356	0.005489	-0.459905
C147	C	-0.518023	0.338822	-0.126572
C148	C	-1.134469	-0.378028	-0.834210
C149	C	-0.801136	-0.044695	-0.500877
C150	C	-0.467803	0.288639	-0.167544
C151	C	-1.084231	-0.428236	-0.793197
C152	C	-0.750898	-0.094902	-0.459864
C153	C	-0.417564	0.238431	-0.126530
C154	C	-1.084218	-0.428257	-0.711218
C155	C	-0.750885	-0.094924	-0.377885
C156	C	-0.417551	0.238409	-0.044551
C157	C	-1.084263	-0.428188	-0.964067
C158	C	-0.750929	-0.094855	-0.630734
C159	C	-0.417596	0.238478	-0.297401
C160	C	-1.084276	-0.428168	-1.046052
C161	C	-0.750943	-0.094835	-0.712719
C162	C	-0.417610	0.238499	-0.379385
C163	C	-1.184734	-0.327776	-1.046088
C164	C	-0.851400	0.005558	-0.712754
C165	C	-0.518067	0.338891	-0.379421
C166	C	-1.184721	-0.327797	-0.964109
C167	C	-0.851388	0.005536	-0.630775
C168	C	-0.518054	0.338870	-0.297442
C169	C	-1.134483	-0.378006	-0.923101
C170	C	-0.801150	-0.044673	-0.589768
C171	C	-0.467817	0.288661	-0.256435
C172	C	-1.134377	-0.378159	-0.174309
C173	C	-0.801044	-0.044826	0.159025
C174	C	-0.467711	0.288507	0.492358
C175	C	-1.134509	-0.377963	-0.087059
C176	C	-0.801176	-0.044629	0.246274
C177	C	-0.467842	0.288704	0.579607
H178	H	-1.225656	-1.078521	-0.287316
H179	H	-0.892323	-0.745188	0.046017
H180	H	-0.558989	-0.411855	0.379351
H181	H	-0.686853	-0.469351	-0.469167
H182	H	-0.353520	-0.136017	-0.135834
H183	H	-0.020186	0.197316	0.197499
H184	H	-0.582725	-0.469363	-0.469172
H185	H	-0.249391	-0.136030	-0.135839
H186	H	0.083942	0.197304	0.197495
H187	H	-0.433997	-0.469364	-0.469188
H188	H	-0.100663	-0.136030	-0.135855
H189	H	0.232670	0.197303	0.197479
H190	H	-1.225472	-0.676946	-0.287260
H191	H	-0.892139	-0.343612	0.046073
H192	H	-0.558805	-0.010279	0.379406
H193	H	-1.225577	-0.287007	-0.677905
H194	H	-0.892244	0.046326	-0.344572
H195	H	-0.558911	0.379659	-0.011238
H196	H	-1.225596	-0.286964	-0.826623
H197	H	-0.892263	0.046369	-0.493290
H198	H	-0.558929	0.379703	-0.159956
H199	H	-1.043209	-0.676997	-0.469251
H200	H	-0.709876	-0.343664	-0.135917
H201	H	-0.376543	-0.010330	0.197416
H202	H	-1.043389	-1.078573	-0.469302
H203	H	-0.710056	-0.745239	-0.135969
H204	H	-0.376723	-0.411906	0.197364
H205	H	-1.225638	-0.286892	-1.079480
H206	H	-0.892304	0.046441	-0.746147
H207	H	-0.558971	0.379774	-0.412813
H208	H	-0.433980	-0.286961	-0.287354
H209	H	-0.100647	0.046372	0.045979
H210	H	0.232687	0.379706	0.379312
H211	H	-1.225619	-0.286937	-0.930752
H212	H	-0.892286	0.046396	-0.597418
H213	H	-0.558952	0.379729	-0.264085
H214	H	-1.043381	-0.469030	-1.079409
H215	H	-0.710048	-0.135697	-0.746076
H216	H	-0.376714	0.197636	-0.412742
H217	H	-0.835558	-0.286943	-0.287322
H218	H	-0.502224	0.046390	0.046011
H219	H	-0.168891	0.379724	0.379345
H220	H	-1.043342	-0.469062	-0.930682
H221	H	-0.710008	-0.135728	-0.597348
H222	H	-0.376675	0.197605	-0.264015
H223	H	-1.043277	-0.825722	-0.469274
H224	H	-0.709943	-0.492389	-0.135941
H225	H	-0.376610	-0.159056	0.197392
H226	H	-1.043338	-0.469093	-0.826563
H227	H	-0.710005	-0.135760	-0.493229
H228	H	-0.376671	0.197573	-0.159896
H229	H	-1.225579	-0.929800	-0.287292
H230	H	-0.892245	-0.596466	0.046042
H231	H	-0.558912	-0.263133	0.379375
H232	H	-1.043305	-0.469132	-0.677831
H233	H	-0.709972	-0.135798	-0.344498
H234	H	-0.376639	0.197535	-0.011164
H235	H	-0.582707	-0.286952	-0.287340
H236	H	-0.249374	0.046382	0.045993
H237	H	0.083959	0.379715	0.379327
H238	H	-1.225542	-0.825674	-0.287281
H239	H	-0.892208	-0.492341	0.046052
H240	H	-0.558875	-0.159008	0.379386
H241	H	-0.835571	-0.469350	-0.469152
H242	H	-0.502238	-0.136017	-0.135819
H243	H	-0.168905	0.197316	0.197514
H244	H	-1.043318	-0.929843	-0.469274
H245	H	-0.709985	-0.596510	-0.135941
H246	H	-0.376652	-0.263176	0.197392
H247	H	-0.686826	-0.286954	-0.287335
H248	H	-0.353493	0.046379	0.045998
H249	H	-0.020159	0.379712	0.379332
