data_functionalizedCrystal
_audit_creation_method	'MofGen! by Chris Wilmer'
_symmetry_space_group_name_H-M	'P1'
_symmetry_Int_Tables_number	1
_symmetry_cell_setting	triclinic
loop_
_symmetry_equiv_pos_as_xyz
  x,y,z
_cell_length_a	12.759401
_cell_length_b	12.759400
_cell_length_c	12.759393
_cell_angle_alpha	89.970509
_cell_angle_beta	89.980519
_cell_angle_gamma	90.013397
loop_
_atom_site_label
_atom_site_type_symbol
_atom_site_fract_x
_atom_site_fract_y
_atom_site_fract_z
Zn1	Zn	1.606265	-0.418208	-0.594021
Zn2	Zn	1.606165	-0.593924	-0.418344
Zn3	Zn	1.430568	-0.418260	-0.418357
Zn4	Zn	1.430561	-0.593846	-0.593982
O5	O	1.518390	-0.506059	-0.506176
O6	O	1.753273	-0.441527	-0.570728
O7	O	1.582832	-0.570676	-0.271325
O8	O	1.453919	-0.271232	-0.441680
O9	O	1.753199	-0.570625	-0.441659
O10	O	1.583004	-0.271194	-0.570740
O11	O	1.453822	-0.441617	-0.271334
O12	O	1.283546	-0.441541	-0.441643
O13	O	1.453907	-0.570493	-0.741009
O14	O	1.283540	-0.570543	-0.570674
O15	O	1.582997	-0.441452	-0.741037
O16	O	1.582825	-0.740934	-0.441622
O17	O	1.453810	-0.740877	-0.570662
C18	C	1.245422	-0.506040	-0.506157
C19	C	1.128646	-0.506057	-0.506173
C20	C	1.073749	-0.573171	-0.438875
C21	C	0.964025	-0.573189	-0.438893
C22	C	0.964104	-0.438971	-0.573510
C23	C	1.073826	-0.438959	-0.573497
C24	C	1.073702	-0.650657	-0.361152
C25	C	0.963978	-0.650676	-0.361170
C26	C	1.518334	-0.779027	-0.506160
C27	C	1.518407	-0.895803	-0.506188
C28	C	1.585588	-0.950566	-0.573444
C29	C	1.585636	-1.060290	-0.573469
C30	C	1.451321	-1.060479	-0.438973
C31	C	1.451268	-0.950757	-0.438954
C32	C	1.663137	-0.950457	-0.651091
C33	C	1.663186	-1.060181	-0.651117
C34	C	1.792423	-0.506079	-0.506196
C35	C	1.909199	-0.506088	-0.506205
C36	C	1.518462	-0.505958	-0.780210
C37	C	1.518494	-0.505915	-0.896986
C38	C	1.518473	-0.232026	-0.506216
C39	C	1.518509	-0.115249	-0.506233
C40	C	1.585743	-0.438667	-1.061590
C41	C	1.585718	-0.438710	-0.951866
C42	C	1.451298	-0.573087	-0.951837
C43	C	1.451329	-0.573048	-1.061559
C44	C	1.663346	-0.361082	-1.061605
C45	C	1.663321	-0.361125	-0.951881
C46	C	1.518377	-0.506085	-0.233209
C47	C	1.518550	-0.505832	-0.116433
H48	H	0.934163	-0.628786	-0.279842
H49	H	1.633996	-1.094178	-0.728388
C50	C	1.119640	-0.611154	-0.256795
N51	N	1.154241	-0.581398	-0.178193
C52	C	1.624046	-0.256633	-1.107601
N53	N	1.594454	-0.177958	-1.142246
H54	H	1.744719	-0.382866	-1.091382
H55	H	1.744583	-1.089917	-0.629404
H56	H	1.396624	-0.627750	-1.106208
H57	H	0.929952	-0.728014	-0.390184
H58	H	1.118519	-0.384320	-0.628308
H59	H	1.396569	-0.627813	-0.907146
C60	C	1.767732	-0.400490	-0.905903
N61	N	1.846376	-0.430130	-0.871271
C62	C	0.903792	-0.365154	-0.647549
N63	N	0.858367	-0.309548	-0.703312
C64	C	1.377334	-0.890523	-0.364997
N65	N	1.321637	-0.845154	-0.309296
C66	C	1.113933	-0.760613	-0.390401
N67	N	1.144234	-0.843428	-0.412433
C68	C	1.633891	-0.251216	-0.911661
N69	N	1.611721	-0.168436	-0.881368
H70	H	1.396658	-1.105236	-0.384235
H71	H	1.641289	-0.920640	-0.732438
H72	H	1.740428	-0.916389	-0.622004
