data_functionalizedCrystal
_audit_creation_method	'MofGen! by Chris Wilmer'
_symmetry_space_group_name_H-M	'P1'
_symmetry_Int_Tables_number	1
_symmetry_cell_setting	triclinic
loop_
_symmetry_equiv_pos_as_xyz
  x,y,z
_cell_length_a	12.759401
_cell_length_b	12.759399
_cell_length_c	12.759393
_cell_angle_alpha	89.969094
_cell_angle_beta	89.979062
_cell_angle_gamma	90.016641
loop_
_atom_site_label
_atom_site_type_symbol
_atom_site_fract_x
_atom_site_fract_y
_atom_site_fract_z
Zn1	Zn	1.606263	-0.418173	-0.594017
Zn2	Zn	1.606153	-0.593888	-0.418336
Zn3	Zn	1.430562	-0.418229	-0.418352
Zn4	Zn	1.430553	-0.593815	-0.593973
O5	O	1.518383	-0.506026	-0.506170
O6	O	1.753270	-0.441489	-0.570724
O7	O	1.582818	-0.570641	-0.271317
O8	O	1.453919	-0.271200	-0.441680
O9	O	1.753189	-0.570587	-0.441652
O10	O	1.583006	-0.271159	-0.570740
O11	O	1.453812	-0.441584	-0.271329
O12	O	1.283540	-0.441513	-0.441637
O13	O	1.453903	-0.570461	-0.741000
O14	O	1.283533	-0.570516	-0.570665
O15	O	1.582997	-0.441418	-0.741032
O16	O	1.582809	-0.740900	-0.441609
O17	O	1.453796	-0.740846	-0.570649
C18	C	1.245415	-0.506013	-0.506149
C19	C	1.128639	-0.506033	-0.506165
C20	C	1.073801	-0.573307	-0.573244
C21	C	0.964077	-0.573311	-0.573265
C22	C	0.964038	-0.438764	-0.439118
C23	C	1.073760	-0.438756	-0.439104
C24	C	1.518318	-0.778994	-0.506146
C25	C	1.518387	-0.895770	-0.506171
C26	C	1.585641	-0.950625	-0.439056
C27	C	1.585708	-1.060349	-0.439091
C28	C	1.451259	-1.060353	-0.573359
C29	C	1.451198	-0.950631	-0.573328
C30	C	1.792416	-0.506040	-0.506191
C31	C	1.909193	-0.506046	-0.506200
C32	C	1.518461	-0.505925	-0.780203
C33	C	1.518495	-0.505882	-0.896980
C34	C	1.518476	-0.231993	-0.506217
C35	C	1.518516	-0.115216	-0.506237
C36	C	1.585719	-0.438679	-0.951860
C37	C	1.585737	-0.438633	-1.061584
C38	C	1.451303	-0.573004	-1.061538
C39	C	1.451281	-0.573044	-0.951816
C40	C	1.518365	-0.506051	-0.233202
C41	C	1.518535	-0.505798	-0.116426
H42	H	1.118411	-0.383967	-0.384480
C43	C	1.659691	-0.364706	-1.121948
N44	N	1.715397	-0.309021	-1.167413
C45	C	1.377370	-0.646876	-1.121868
N46	N	1.321682	-0.702517	-1.167307
C47	C	1.377322	-0.646974	-0.891444
N48	N	1.321616	-0.702653	-0.845972
H49	H	1.640446	-0.383989	-0.907216
H50	H	0.919432	-0.628090	-0.627889
C51	C	1.134163	-0.647306	-0.647021
N52	N	1.179625	-0.703041	-0.702595
H53	H	1.640474	-1.105007	-0.384441
H54	H	1.396555	-1.105035	-0.628034
C55	C	0.903662	-0.364769	-0.365349
N56	N	0.858187	-0.309037	-0.309782
C57	C	1.659556	-0.890282	-0.365187
N58	N	1.715235	-0.844834	-0.309549
C59	C	1.377231	-0.890287	-0.647185
N60	N	1.321531	-0.844836	-0.702821
