data_functionalizedCrystal
_audit_creation_method	'MofGen! by Chris Wilmer'
_symmetry_space_group_name_H-M	'P1'
_symmetry_Int_Tables_number	1
_symmetry_cell_setting	triclinic
loop_
_symmetry_equiv_pos_as_xyz
  x,y,z
_cell_length_a	17.077404
_cell_length_b	21.395361
_cell_length_c	21.395355
_cell_angle_alpha	90.021511
_cell_angle_beta	90.024450
_cell_angle_gamma	90.030933
loop_
_atom_site_label
_atom_site_type_symbol
_atom_site_fract_x
_atom_site_fract_y
_atom_site_fract_z
Zn1	Zn	1.200050	-0.249507	0.354247
Zn2	Zn	1.199928	-0.354267	0.249464
Zn3	Zn	1.068771	-0.249508	0.249484
Zn4	Zn	1.068732	-0.354251	0.354204
O5	O	1.134370	-0.301883	0.301849
O6	O	1.309881	-0.263410	0.340356
O7	O	1.182495	-0.340377	0.161788
O8	O	1.086253	-0.161830	0.263407
O9	O	1.309791	-0.340377	0.263373
O10	O	1.182703	-0.161830	0.340376
O11	O	1.086134	-0.263411	0.161803
O12	O	0.958919	-0.263396	0.263365
O13	O	1.086187	-0.340350	0.441888
O14	O	0.958890	-0.340351	0.340303
O15	O	1.182666	-0.263395	0.441919
O16	O	1.182457	-0.441943	0.263332
O17	O	1.086068	-0.441931	0.340284
C18	C	0.930422	-0.301872	0.301832
C19	C	0.843173	-0.301882	0.301840
C20	C	0.802188	-0.342013	0.341837
C21	C	0.720208	-0.342014	0.341847
C22	C	0.679213	-0.301888	0.301856
C23	C	0.720203	-0.261753	0.261857
C24	C	0.802182	-0.261749	0.261851
C25	C	0.549333	-0.261765	0.261872
C26	C	0.467349	-0.261770	0.261878
C27	C	0.467359	-0.342031	0.341868
C28	C	0.549338	-0.342027	0.341862
C29	C	0.590322	-0.301892	0.301862
C30	C	1.134267	-0.464671	0.301815
C31	C	1.134294	-0.534312	0.301821
C32	C	1.184528	-0.567011	0.261793
C33	C	1.184565	-0.632446	0.261807
C34	C	1.134353	-0.665181	0.301842
C35	C	1.084115	-0.632474	0.341878
C36	C	1.084086	-0.567040	0.341867
C37	C	1.063674	-0.768896	0.306752
C38	C	1.063702	-0.834329	0.306759
C39	C	1.134445	-0.867001	0.301879
C40	C	1.205161	-0.834233	0.296980
C41	C	1.205131	-0.768799	0.296969
C42	C	1.134380	-0.736133	0.301859
C43	C	1.184723	-0.970652	0.261864
C44	C	1.184761	-1.036089	0.261882
C45	C	1.084304	-1.036116	0.341950
C46	C	1.084273	-0.970681	0.341935
C47	C	1.134481	-0.937953	0.301889
C48	C	1.339115	-0.301895	0.301867
C49	C	1.426364	-0.301900	0.301875
C50	C	1.134435	-0.301871	0.465273
C51	C	1.134463	-0.301865	0.534914
C52	C	1.134496	-0.138460	0.301898
C53	C	1.134549	-0.068819	0.301919
C54	C	1.134351	-0.301851	0.139062
C55	C	1.134475	-0.301680	0.069421
C56	C	1.184698	-0.261793	0.567645
C57	C	1.184697	-0.261766	0.633080
C58	C	1.134469	-0.301823	0.665783
C59	C	1.084225	-0.341898	0.633044
C60	C	1.084222	-0.341919	0.567610
C61	C	1.128235	-0.358238	0.769445
C62	C	1.128244	-0.358218	0.834878
C63	C	1.134474	-0.301756	0.867603
C64	C	1.140713	-0.245314	0.834888
C65	C	1.140709	-0.245335	0.769453
C66	C	1.134467	-0.301804	0.736735
C67	C	1.184710	-0.261652	0.971286
C68	C	1.184704	-0.261624	1.036723
C69	C	1.084236	-0.341761	1.036686
C70	C	1.084239	-0.341783	0.971251
C71	C	1.134480	-0.301729	0.938555
H72	H	1.225413	-0.540366	0.229186
O73	O	1.035448	-0.664339	0.380798
C74	C	1.080132	-0.702125	0.421313
H75	H	1.139637	-0.711897	0.399260
H76	H	1.088719	-0.676877	0.467748
C77	C	0.963878	-0.752303	0.459722
C78	C	1.036961	-0.764310	0.432633
H79	H	0.937247	-0.790661	0.466708
H80	H	0.933772	-0.726845	0.432429
H81	H	0.971044	-0.731262	0.498415
H82	H	1.029794	-0.785343	0.393938
H83	H	1.067064	-0.789773	0.459921
O84	O	0.842085	-0.222855	0.222965
C85	C	0.889444	-0.258466	0.182418
H86	H	0.901709	-0.305980	0.204427
H87	H	0.857817	-0.265282	0.135975
C88	C	0.952266	-0.165615	0.144103
C89	C	0.967336	-0.223971	0.171137
H90	H	1.000312	-0.144337	0.137142
H91	H	0.920358	-0.141623	0.171418
H92	H	0.925909	-0.171303	0.105404
H93	H	0.993683	-0.218282	0.209839
H94	H	0.999250	-0.247962	0.143828
O95	O	0.427640	-0.380988	0.380813
C96	C	0.447710	-0.367383	0.443285
H97	H	0.507246	-0.343294	0.444624
H98	H	0.401604	-0.335208	0.464458
C99	C	0.378370	-0.458111	0.479472
C100	C	0.451496	-0.428529	0.481116
H101	H	0.380702	-0.495828	0.502810
H102	H	0.364845	-0.467276	0.437384
H103	H	0.339956	-0.431292	0.497115
H104	H	0.489907	-0.455344	0.463467
H105	H	0.465028	-0.419370	0.523202
O106	O	1.035580	-0.938887	0.380881
C107	C	1.080225	-0.900970	0.421365
H108	H	1.142057	-0.920642	0.425286
H109	H	1.082918	-0.851387	0.401987
C110	C	0.965890	-0.875797	0.481655
C111	C	1.041831	-0.899961	0.486474
H112	H	0.942206	-0.875171	0.521817
H113	H	0.935811	-0.901340	0.454379
H114	H	0.968145	-0.834480	0.465504
H115	H	1.039575	-0.941279	0.502618
H116	H	1.071910	-0.874425	0.513755
H117	H	1.043312	-0.374550	0.540961
O118	O	1.035209	-0.535371	0.380770
C119	C	0.990914	-0.578291	0.416126
H120	H	0.988233	-0.624952	0.390471
H121	H	1.019636	-0.585201	0.463733
C122	C	0.910646	-0.495499	0.456601
C123	C	0.907347	-0.552808	0.425089
H124	H	0.859099	-0.479779	0.462133
H125	H	0.940490	-0.466582	0.432784
H126	H	0.934584	-0.501265	0.496271
H127	H	0.883419	-0.547040	0.385417
H128	H	0.877497	-0.581723	0.448900
O129	O	1.233387	-0.664121	0.222860
C130	C	1.277710	-0.621203	0.187525
H131	H	1.245543	-0.574582	0.185327
H132	H	1.337314	-0.614193	0.210506
C133	C	1.328571	-0.704032	0.123553
C134	C	1.289060	-0.646772	0.120848
H135	H	1.335576	-0.719804	0.082424
H136	H	1.298713	-0.732947	0.147360
H137	H	1.378237	-0.698182	0.142706
H138	H	1.239391	-0.652624	0.101703
H139	H	1.318911	-0.617858	0.097036
H140	H	0.686842	-0.374693	0.374416
H141	H	0.582713	-0.374705	0.374423
H142	H	1.145787	-0.199338	0.861531
O143	O	1.273778	-0.736898	0.292302
C144	C	1.283843	-0.699024	0.345650
H145	H	1.224378	-0.689258	0.367774
H146	H	1.322854	-0.724193	0.380802
C147	C	1.395506	-0.648843	0.299382
C148	C	1.322468	-0.636843	0.326552
H149	H	1.419335	-0.610488	0.287603
H150	H	1.388727	-0.674360	0.263441
H151	H	1.428005	-0.669818	0.328680
H152	H	1.289967	-0.615875	0.297252
H153	H	1.329242	-0.611321	0.362487
H154	H	1.043332	-0.374369	1.063312
O155	O	1.273893	-0.865937	0.292131
C156	C	1.311079	-0.849947	0.235524
H157	H	1.265604	-0.832012	0.200888
H158	H	1.356487	-0.811928	0.244594
C159	C	1.407646	-0.930091	0.250765
C160	C	1.351791	-0.908068	0.208222
H161	H	1.432762	-0.965942	0.233925
H162	H	1.382595	-0.940863	0.288904
H163	H	1.445478	-0.898404	0.258320
H164	H	1.313955	-0.939753	0.200674
H165	H	1.376837	-0.897303	0.170081
H166	H	1.006063	-0.742301	0.310728
H167	H	1.225608	-0.944004	0.229257
O168	O	1.233587	-1.067757	0.222938
C169	C	1.277905	-1.024836	0.187603
H170	H	1.245731	-0.978217	0.185403
H171	H	1.337507	-1.017819	0.210586
C172	C	1.328783	-1.107661	0.123635
C173	C	1.289262	-1.050405	0.120928
H174	H	1.335792	-1.123434	0.082507
H175	H	1.298927	-1.136579	0.147442
H176	H	1.378447	-1.101806	0.142790
H177	H	1.239595	-1.056263	0.101781
H178	H	1.319110	-1.021489	0.097116
H179	H	0.433973	-0.229088	0.229321
H180	H	1.225607	-0.229178	0.541028
O181	O	1.035419	-0.380772	0.939550
C182	C	0.991070	-0.416110	0.982442
H183	H	1.023223	-0.418268	1.029096
H184	H	0.931473	-0.393158	0.989385
C185	C	0.940209	-0.480149	0.899596
C186	C	0.979703	-0.482805	0.956895
H187	H	0.933193	-0.521289	0.883837
H188	H	0.970085	-0.456340	0.870698
H189	H	0.890548	-0.461020	0.905389
H190	H	1.029366	-0.501927	0.951100
H191	H	0.949834	-0.506619	0.985792
O192	O	1.233573	-0.222820	0.664786
C193	C	1.277899	-0.187461	0.621897
H194	H	1.280593	-0.213136	0.575250
H195	H	1.249197	-0.139873	0.614934
C196	C	1.358144	-0.146902	0.704754
C197	C	1.361458	-0.178439	0.647464
H198	H	1.409687	-0.141334	0.720526
H199	H	1.328279	-0.170722	0.733651
H200	H	1.334223	-0.107248	0.698945
H201	H	1.385371	-0.218095	0.653276
H202	H	1.391329	-0.154625	0.618569
O203	O	0.589025	-0.222763	0.222953
C204	C	0.535266	-0.187339	0.187664
H205	H	0.476809	-0.212999	0.185459
H206	H	0.526596	-0.139784	0.210690
C207	C	0.639015	-0.146704	0.123701
C208	C	0.567220	-0.178223	0.120988
H209	H	0.658727	-0.141078	0.082573
H210	H	0.675235	-0.170568	0.147477
H211	H	0.631781	-0.107078	0.142892
H212	H	0.574457	-0.217851	0.101804
H213	H	0.531002	-0.154366	0.097207
H214	H	0.835560	-0.374691	0.374400
O215	O	1.146733	-0.190453	0.737770
C216	C	1.152254	-0.140612	0.780679
H217	H	1.125871	-0.155426	0.827316
H218	H	1.216411	-0.127600	0.787655
C219	C	1.139662	-0.065538	0.697846
C220	C	1.107252	-0.083732	0.755125
H221	H	1.111907	-0.030451	0.682083
H222	H	1.135946	-0.099117	0.668937
H223	H	1.193125	-0.054700	0.703668
H224	H	1.053793	-0.094578	0.749302
H225	H	1.110959	-0.050153	0.784033
H226	H	1.225615	-0.229034	0.944664
O227	O	1.035556	-1.068003	0.380785
C228	C	1.046370	-1.132770	0.372226
H229	H	1.072109	-1.141716	0.323893
H230	H	1.088161	-1.151285	0.409423
C231	C	0.935347	-1.155432	0.437285
C232	C	0.966954	-1.166421	0.377919
H233	H	0.886361	-1.176191	0.440799
H234	H	0.928062	-1.111798	0.443053
H235	H	0.970181	-1.170862	0.468276
H236	H	0.932125	-1.150985	0.346930
H237	H	0.974231	-1.210054	0.372145
H238	H	1.225609	-0.228988	1.063371
H239	H	1.123169	-0.404177	0.861510
H240	H	0.686819	-0.229078	0.229299
O241	O	0.994946	-0.866061	0.311548
C242	C	0.932500	-0.823194	0.315846
H243	H	0.955353	-0.776525	0.334013
H244	H	0.905328	-0.816278	0.267664
C245	C	0.842052	-0.906073	0.338772
C246	C	0.870120	-0.848755	0.361091
H247	H	0.803570	-0.921841	0.366679
H248	H	0.884122	-0.934954	0.335874
H249	H	0.819414	-0.900302	0.298621
H250	H	0.892765	-0.854529	0.401238
H251	H	0.828052	-0.819876	0.363997
O252	O	1.122135	-0.413142	0.737756
C253	C	1.116577	-0.462948	0.780660
H254	H	1.143036	-0.448131	0.827298
H255	H	1.052406	-0.475887	0.787637
C256	C	1.128952	-0.538090	0.697821
C257	C	1.161455	-0.519894	0.755101
H258	H	1.156631	-0.573218	0.682055
H259	H	1.132693	-0.504535	0.668915
H260	H	1.075477	-0.548868	0.703642
H261	H	1.214926	-0.509109	0.749278
H262	H	1.157723	-0.553449	0.784006
O263	O	1.035475	-0.380897	0.664739
C264	C	1.052593	-0.443350	0.648761
H265	H	1.082764	-0.444665	0.601260
H266	H	1.092937	-0.464445	0.685598
C267	C	0.938981	-0.479684	0.704054
C268	C	0.976032	-0.481299	0.645710
H269	H	0.891756	-0.503094	0.702174
H270	H	0.927449	-0.437609	0.714821
H271	H	0.972609	-0.497262	0.734745
H272	H	0.942408	-0.463714	0.615021
H273	H	0.987556	-0.523372	0.634937
