data_functionalizedCrystal
_audit_creation_method	'MofGen! by Chris Wilmer'
_symmetry_space_group_name_H-M	'P1'
_symmetry_Int_Tables_number	1
_symmetry_cell_setting	triclinic
loop_
_symmetry_equiv_pos_as_xyz
  x,y,z
_cell_length_a	12.759401
_cell_length_b	17.077402
_cell_length_c	12.759393
_cell_angle_alpha	89.965312
_cell_angle_beta	89.979062
_cell_angle_gamma	90.024408
loop_
_atom_site_label
_atom_site_type_symbol
_atom_site_fract_x
_atom_site_fract_y
_atom_site_fract_z
Zn1	Zn	1.606207	-0.312438	-0.593990
Zn2	Zn	1.606073	-0.443724	-0.418297
Zn3	Zn	1.430505	-0.312480	-0.418325
Zn4	Zn	1.430472	-0.443669	-0.593934
O5	O	1.518314	-0.378078	-0.506136
O6	O	1.753210	-0.329859	-0.570695
O7	O	1.582741	-0.426355	-0.271279
O8	O	1.453882	-0.202628	-0.441662
O9	O	1.753111	-0.426314	-0.441614
O10	O	1.582969	-0.202597	-0.570722
O11	O	1.453753	-0.329930	-0.271300
O12	O	1.283480	-0.329877	-0.441608
O13	O	1.453826	-0.426221	-0.740962
O14	O	1.283456	-0.426261	-0.570627
O15	O	1.582937	-0.329806	-0.741003
O16	O	1.582709	-0.553564	-0.441560
O17	O	1.453696	-0.553524	-0.570600
C18	C	1.245347	-0.378068	-0.506115
C19	C	1.128570	-0.378083	-0.506131
C20	C	1.073723	-0.428347	-0.573206
C21	C	0.963999	-0.428350	-0.573227
C22	C	0.963979	-0.327823	-0.439089
C23	C	1.073701	-0.327817	-0.439075
C24	C	1.518213	-0.582026	-0.506094
C25	C	1.518266	-0.669276	-0.506111
C26	C	1.585511	-0.710261	-0.438993
C27	C	1.585563	-0.792241	-0.439019
C28	C	1.518362	-0.833235	-0.506161
C29	C	1.451114	-0.792244	-0.573287
C30	C	1.451068	-0.710265	-0.573265
C31	C	1.451211	-0.963114	-0.573327
C32	C	1.451255	-1.045099	-0.573348
C33	C	1.585705	-1.045090	-0.439082
C34	C	1.585660	-0.963111	-0.439059
C35	C	1.518410	-0.922126	-0.506184
C36	C	1.792347	-0.378088	-0.506158
C37	C	1.909124	-0.378093	-0.506167
C38	C	1.518393	-0.378003	-0.780170
C39	C	1.518426	-0.377971	-0.896946
C40	C	1.518445	-0.173334	-0.506201
C41	C	1.518500	-0.086084	-0.506229
C42	C	1.585660	-0.327759	-0.951831
C43	C	1.585677	-0.327725	-1.061555
C44	C	1.451226	-0.428121	-1.061500
C45	C	1.451203	-0.428150	-0.951778
C46	C	1.518296	-0.378096	-0.233169
C47	C	1.518466	-0.377907	-0.116393
H48	H	1.118359	-0.286881	-0.384454
C49	C	0.795773	-0.283196	-0.379552
C50	C	0.903663	-0.272576	-0.365379
H51	H	0.758540	-0.249091	-0.334039
H52	H	0.777838	-0.271774	-0.450165
H53	H	0.777769	-0.335927	-0.364045
H54	H	0.921668	-0.219846	-0.380893
H55	H	0.921604	-0.283993	-0.294750
C56	C	1.718584	-0.228502	-1.050582
C57	C	1.659588	-0.272535	-1.121885
H58	H	1.764218	-0.194432	-1.087829
H59	H	1.672823	-0.198485	-1.007790
H60	H	1.758735	-0.262728	-1.007781
H61	H	1.619431	-0.238309	-1.164681
H62	H	1.705354	-0.302554	-1.164695
H63	H	1.396447	-0.469038	-0.907090
C64	C	1.391565	-0.472658	-1.229673
C65	C	1.377345	-0.483283	-1.121775
H66	H	1.345958	-0.506719	-1.266880
H67	H	1.376226	-0.419918	-1.247665
H68	H	1.462155	-0.484147	-1.247650
H69	H	1.306756	-0.471789	-1.103797
H70	H	1.392677	-0.536036	-1.103776
C71	C	1.637056	-1.070519	-0.261254
C72	C	1.659636	-1.090191	-0.365360
H73	H	1.682691	-1.098385	-0.215761
H74	H	1.646689	-1.015846	-0.251575
H75	H	1.566477	-1.083999	-0.245819
H76	H	1.730213	-1.076706	-0.380798
H77	H	1.650012	-1.144876	-0.375043
C78	C	1.062718	-0.527704	-0.705808
C79	C	1.134036	-0.483590	-0.646925
H80	H	1.099953	-0.561804	-0.751326
H81	H	1.019890	-0.557693	-0.659968
H82	H	1.019955	-0.493531	-0.746076
H83	H	1.176794	-0.517763	-0.606651
H84	H	1.176883	-0.453599	-0.692771
C85	C	1.718418	-0.718495	-0.306284
C86	C	1.659381	-0.665204	-0.365187
H87	H	1.764028	-0.690679	-0.260725
H88	H	1.672682	-0.750521	-0.266068
H89	H	1.758596	-0.750418	-0.352117
H90	H	1.619196	-0.633285	-0.319355
H91	H	1.705123	-0.633165	-0.405407
H92	H	1.396554	-1.078474	-0.628040
C93	C	1.600295	-0.222205	-0.828478
C94	C	1.659538	-0.272594	-0.891559
H95	H	1.645905	-0.188149	-0.791267
H96	H	1.554555	-0.192171	-0.871286
H97	H	1.560259	-0.252123	-0.780086
H98	H	1.699568	-0.242676	-0.939955
H99	H	1.705296	-0.302631	-0.848746
C100	C	1.318220	-0.784012	-0.706009
C101	C	1.377249	-0.837302	-0.647096
H102	H	1.272623	-0.811830	-0.751580
H103	H	1.278038	-0.752093	-0.660192
H104	H	1.363970	-0.751983	-0.746224
H105	H	1.331499	-0.869328	-0.606875
H106	H	1.417433	-0.869235	-0.692919
C107	C	0.840687	-0.439393	-0.714547
C108	C	0.903712	-0.483603	-0.646957
H109	H	0.803475	-0.473506	-0.760071
H110	H	0.792307	-0.409469	-0.674614
H111	H	0.883541	-0.405230	-0.754806
H112	H	0.860857	-0.517762	-0.606692
H113	H	0.952098	-0.513540	-0.686894
H114	H	1.640320	-0.825608	-0.384364
C115	C	1.600270	-0.870995	-0.297722
C116	C	1.659524	-0.918051	-0.365252
H117	H	1.645875	-0.843182	-0.252154
H118	H	1.560224	-0.834857	-0.337695
H119	H	1.554538	-0.903039	-0.257506
H120	H	1.705251	-0.886007	-0.405474
H121	H	1.699588	-0.954193	-0.325275
C122	C	1.436357	-0.618001	-0.714549
C123	C	1.377152	-0.665210	-0.647044
H124	H	1.390724	-0.590190	-0.760104
H125	H	1.476363	-0.581861	-0.674557
H126	H	1.482124	-0.649940	-0.754779
H127	H	1.331389	-0.633270	-0.606808
H128	H	1.337128	-0.701354	-0.687040
H129	H	1.396452	-0.929747	-0.627991
