data_functionalizedCrystal
_audit_creation_method	'MofGen! by Chris Wilmer'
_symmetry_space_group_name_H-M	'P1'
_symmetry_Int_Tables_number	1
_symmetry_cell_setting	triclinic
loop_
_symmetry_equiv_pos_as_xyz
  x,y,z
_cell_length_a	21.395364
_cell_length_b	12.759399
_cell_length_c	12.759393
_cell_angle_alpha	90.026805
_cell_angle_beta	90.023491
_cell_angle_gamma	90.030951
loop_
_atom_site_label
_atom_site_type_symbol
_atom_site_fract_x
_atom_site_fract_y
_atom_site_fract_z
Zn1	Zn	-0.957920	0.417747	-0.594119
Zn2	Zn	-0.624586	0.751081	-0.260786
Zn3	Zn	-0.291253	1.084414	0.072548
Zn4	Zn	-0.957856	0.593463	-0.418450
Zn5	Zn	-0.624522	0.926796	-0.085117
Zn6	Zn	-0.291189	1.260129	0.248216
Zn7	Zn	-0.853138	0.417850	-0.418446
Zn8	Zn	-0.519805	0.751183	-0.085113
Zn9	Zn	-0.186471	1.084516	0.248221
Zn10	Zn	-0.853134	0.593436	-0.594080
Zn11	Zn	-0.519801	0.926769	-0.260746
Zn12	Zn	-0.186467	1.260103	0.072587
O13	O	-0.905512	0.505624	-0.506274
O14	O	-0.572178	0.838957	-0.172940
O15	O	-0.238845	1.172291	0.160393
O16	O	-1.045589	0.441025	-0.570834
O17	O	-0.712256	0.774358	-0.237501
O18	O	-0.378922	1.107691	0.095833
O19	O	-0.943939	0.570221	-0.271429
O20	O	-0.610606	0.903555	0.061905
O21	O	-0.277273	1.236888	0.395238
O22	O	-0.867066	0.270815	-0.441764
O23	O	-0.533733	0.604148	-0.108431
O24	O	-0.200399	0.937482	0.224902
O25	O	-1.045542	0.570122	-0.441771
O26	O	-0.712209	0.903455	-0.108438
O27	O	-0.378875	1.236789	0.224895
O28	O	-0.944049	0.270740	-0.570830
O29	O	-0.610715	0.604073	-0.237497
O30	O	-0.277382	0.937406	0.095837
O31	O	-0.867004	0.441199	-0.271426
O32	O	-0.533671	0.774533	0.061908
O33	O	-0.200337	1.107866	0.395241
O34	O	-0.765460	0.441173	-0.441726
O35	O	-0.432126	0.774506	-0.108393
O36	O	-0.098793	1.107840	0.224940
O37	O	-0.867059	0.570076	-0.741106
O38	O	-0.533726	0.903410	-0.407773
O39	O	-0.200393	1.236743	-0.074439
O40	O	-0.765457	0.570176	-0.570763
O41	O	-0.432123	0.903509	-0.237430
O42	O	-0.098790	1.236842	0.095903
O43	O	-0.944045	0.440999	-0.741135
O44	O	-0.610711	0.774332	-0.407801
O45	O	-0.277378	1.107665	-0.074468
O46	O	-0.943936	0.740480	-0.441733
O47	O	-0.610602	1.073814	-0.108400
O48	O	-0.277269	1.407147	0.224933
O49	O	-0.866997	0.740461	-0.570767
O50	O	-0.533664	1.073794	-0.237434
O51	O	-0.200330	1.407127	0.095899
C52	C	-0.742724	0.505683	-0.506241
C53	C	-0.409391	0.839017	-0.172907
C54	C	-0.076058	1.172350	0.160426
C55	C	-0.673083	0.505734	-0.506251
C56	C	-0.339750	0.839067	-0.172918
C57	C	-0.006416	1.172401	0.160415
C58	C	-0.640417	0.438625	-0.573558
C59	C	-0.307083	0.771958	-0.240224
C60	C	0.026250	1.105291	0.093109
C61	C	-0.574981	0.438600	-0.573560
C62	C	-0.241648	0.771933	-0.240227
C63	C	0.091685	1.105267	0.093106
C64	C	-0.542215	0.505704	-0.506268
C65	C	-0.208881	0.839037	-0.172934
C66	C	0.124452	1.172370	0.160399
C67	C	-0.574889	0.572818	-0.438948
C68	C	-0.241555	0.906151	-0.105615
C69	C	0.091778	1.239484	0.227718
C70	C	-0.640323	0.572833	-0.438940
C71	C	-0.306990	0.906166	-0.105607
C72	C	0.026344	1.239500	0.227726
C73	C	-0.438507	0.600326	-0.497832
C74	C	-0.105173	0.933659	-0.164499
C75	C	0.228160	1.266993	0.168835
C76	C	-0.373074	0.600313	-0.497848
C77	C	-0.039740	0.933646	-0.164514
C78	C	0.293593	1.266979	0.168819
C79	C	-0.340394	0.505656	-0.506287
C80	C	-0.007061	0.838989	-0.172953
C81	C	0.326273	1.172323	0.160380
C82	C	-0.373155	0.411010	-0.514732
C83	C	-0.039822	0.744344	-0.181399
C84	C	0.293512	1.077677	0.151934
C85	C	-0.438589	0.411025	-0.514724
C86	C	-0.105256	0.744359	-0.181391
C87	C	0.228077	1.077692	0.151942
C88	C	-0.471262	0.505694	-0.506269
C89	C	-0.137929	0.839028	-0.172935
C90	C	0.195404	1.172361	0.160398
C91	C	-0.236775	0.438514	-0.573599
C92	C	0.096558	0.771848	-0.240266
C93	C	0.429892	1.105181	0.093067
C94	C	-0.171339	0.438488	-0.573595
C95	C	0.161995	0.771821	-0.240261
C96	C	0.495328	1.105155	0.093072
C97	C	-0.171247	0.572715	-0.438988
C98	C	0.162086	0.906048	-0.105655
C99	C	0.495419	1.239382	0.227678
C100	C	-0.236683	0.572732	-0.438987
C101	C	0.096651	0.906065	-0.105654
C102	C	0.429984	1.239399	0.227679
C103	C	-0.269443	0.505633	-0.506299
C104	C	0.063891	0.838967	-0.172965
C105	C	0.397224	1.172300	0.160368
C106	C	-0.905476	0.778591	-0.506269
C107	C	-0.572143	1.111925	-0.172936
C108	C	-0.238809	1.445258	0.160397
C109	C	-0.905518	0.895368	-0.506303
C110	C	-0.572185	1.228701	-0.172969
C111	C	-0.238851	1.562035	0.160364
C112	C	-0.905559	0.505523	-0.780307
C113	C	-0.572225	0.838856	-0.446974
C114	C	-0.238892	1.172190	-0.113641
C115	C	-0.905579	0.505480	-0.897084
C116	C	-0.572245	0.838813	-0.563751
C117	C	-0.238912	1.172147	-0.230417
C118	C	-0.068935	0.505578	-0.506302
C119	C	0.264398	0.838911	-0.172969
C120	C	0.597732	1.172244	0.160365
C121	C	-0.138576	0.505591	-0.506300
C122	C	0.194757	0.838924	-0.172967
C123	C	0.528090	1.172258	0.160367
C124	C	-0.945626	0.950205	-0.439195
C125	C	-0.612293	1.283539	-0.105862
C126	C	-0.278959	1.616872	0.227472
C127	C	-0.945667	1.059929	-0.439238
C128	C	-0.612334	1.393263	-0.105905
C129	C	-0.279001	1.726596	0.227429
C130	C	-0.865487	1.059969	-0.573500
C131	C	-0.532153	1.393302	-0.240166
C132	C	-0.198820	1.726636	0.093167
C133	C	-0.865449	0.950247	-0.573461
C134	C	-0.532116	1.283580	-0.240128
C135	C	-0.198783	1.616914	0.093206
C136	C	-0.905567	1.231591	-0.506319
C137	C	-0.572234	1.564924	-0.172986
C138	C	-0.238901	1.898257	0.160348
C139	C	-0.905597	1.114814	-0.506384
C140	C	-0.572263	1.448147	-0.173051
C141	C	-0.238930	1.781481	0.160282
C142	C	-0.945668	0.438259	-0.951963
C143	C	-0.612335	0.771592	-0.618629
C144	C	-0.279001	1.104925	-0.285296
C145	C	-0.945679	0.438213	-1.061687
C146	C	-0.612345	0.771547	-0.728353
C147	C	-0.279012	1.104880	-0.395020
C148	C	-0.865509	0.572620	-1.061644
C149	C	-0.532175	0.905953	-0.728311
C150	C	-0.198842	1.239287	-0.394977
C151	C	-0.865495	0.572659	-0.951922
C152	C	-0.532162	0.905993	-0.618588
C153	C	-0.198829	1.239326	-0.285255
C154	C	-0.905501	0.505649	-0.233306
C155	C	-0.572168	0.838982	0.100027
C156	C	-0.238835	1.172315	0.433360
C157	C	-0.905603	0.505396	-0.116530
C158	C	-0.572269	0.838729	0.216803
C159	C	-0.238936	1.172062	0.550136
H160	H	-0.346549	0.333932	-0.521604
H161	H	-0.013215	0.667265	-0.188271
H162	H	0.320118	1.000598	0.145062
H163	H	-0.465261	0.333961	-0.521598
H164	H	-0.131927	0.667295	-0.188264
H165	H	0.201406	1.000628	0.145069
Cl166	Cl	-0.815125	0.657075	-1.130590
Cl167	Cl	-0.481791	0.990408	-0.797257
Cl168	Cl	-0.148458	1.323741	-0.463924
Cl169	Cl	-0.996093	1.128863	-0.354873
Cl170	Cl	-0.662760	1.462196	-0.021539
Cl171	Cl	-0.329426	1.795530	0.311794
H172	H	-0.548206	0.627453	-0.384157
H173	H	-0.214873	0.960786	-0.050824
H174	H	0.118461	1.294120	0.282509
Cl175	Cl	-0.277962	0.354156	-0.658209
Cl176	Cl	0.055371	0.687489	-0.324876
Cl177	Cl	0.388705	1.020822	0.008458
Cl178	Cl	-0.815090	0.657167	-0.882926
Cl179	Cl	-0.481756	0.990501	-0.549593
Cl180	Cl	-0.148423	1.323834	-0.216259
H181	H	-0.144743	0.383833	-0.628402
H182	H	0.188591	0.717167	-0.295068
H183	H	0.521924	1.050500	0.038265
H184	H	-0.978253	0.905525	-0.384512
H185	H	-0.644920	1.238859	-0.051179
H186	H	-0.311587	1.572192	0.282155
Cl187	Cl	-0.681597	0.354269	-0.658175
Cl188	Cl	-0.348264	0.687603	-0.324842
Cl189	Cl	-0.014931	1.020936	0.008492
H190	H	-0.978322	0.383473	-1.106364
H191	H	-0.644989	0.716806	-0.773031
H192	H	-0.311656	1.050140	-0.439697
H193	H	-0.832863	1.104665	-0.628176
H194	H	-0.499530	1.437998	-0.294843
H195	H	-0.166197	1.771331	0.038491
H196	H	-0.548379	0.383946	-0.628367
H197	H	-0.215046	0.717280	-0.295034
H198	H	0.118287	1.050613	0.038299
H199	H	-0.832788	0.905595	-0.628113
H200	H	-0.499455	1.238929	-0.294780
H201	H	-0.166122	1.572262	0.038553
H202	H	-0.144569	0.627352	-0.384197
H203	H	0.188764	0.960685	-0.050864
H204	H	0.522097	1.294019	0.282470
Cl205	Cl	-0.681391	0.657204	-0.354317
Cl206	Cl	-0.348058	0.990537	-0.020984
Cl207	Cl	-0.014725	1.323870	0.312350
H208	H	-0.978305	0.383554	-0.907317
H209	H	-0.644971	0.716887	-0.573984
H210	H	-0.311638	1.050221	-0.240650
H211	H	-0.263280	0.627384	-0.384184
H212	H	0.070054	0.960718	-0.050850
H213	H	0.403387	1.294051	0.282483
Cl214	Cl	-0.479583	0.719334	-0.487208
Cl215	Cl	-0.146250	1.052667	-0.153874
Cl216	Cl	0.187084	1.386000	0.179459
H217	H	-0.346405	0.677379	-0.490976
H218	H	-0.013071	1.010712	-0.157642
H219	H	0.320262	1.344046	0.175691
