data_functionalizedCrystal
_audit_creation_method	'MofGen! by Chris Wilmer'
_symmetry_space_group_name_H-M	'P1'
_symmetry_Int_Tables_number	1
_symmetry_cell_setting	triclinic
loop_
_symmetry_equiv_pos_as_xyz
  x,y,z
_cell_length_a	17.077404
_cell_length_b	12.759399
_cell_length_c	17.077396
_cell_angle_alpha	89.977542
_cell_angle_beta	90.019501
_cell_angle_gamma	89.984170
loop_
_atom_site_label
_atom_site_type_symbol
_atom_site_fract_x
_atom_site_fract_y
_atom_site_fract_z
Zn1	Zn	1.200094	0.418260	0.443876
Zn2	Zn	1.700094	0.918260	0.943876
Zn3	Zn	1.200018	0.593961	0.312623
Zn4	Zn	1.700018	1.093961	0.812623
Zn5	Zn	1.068826	0.418297	0.312624
Zn6	Zn	1.568826	0.918297	0.812624
Zn7	Zn	1.068811	0.593898	0.443847
Zn8	Zn	1.568811	1.093898	0.943847
O9	O	1.134437	0.506104	0.378242
O10	O	1.634437	1.006104	0.878242
O11	O	1.309931	0.441578	0.426477
O12	O	1.809931	0.941578	0.926477
O13	O	1.182590	0.570700	0.202776
O14	O	1.682590	1.070700	0.702776
O15	O	1.086277	0.271271	0.330046
O16	O	1.586277	0.771271	0.830046
O17	O	1.309875	0.570664	0.330046
O18	O	1.809875	1.070664	0.830046
O19	O	1.182720	0.271244	0.426477
O20	O	1.682720	0.771244	0.926477
O21	O	1.086204	0.441641	0.202777
O22	O	1.586204	0.941641	0.702777
O23	O	0.958977	0.441580	0.330019
O24	O	1.458977	0.941580	0.830019
O25	O	1.086251	0.570558	0.553698
O26	O	1.586251	1.070558	1.053698
O27	O	0.958966	0.570594	0.426428
O28	O	1.458966	1.070594	0.926428
O29	O	1.182705	0.441517	0.553719
O30	O	1.682705	0.941517	1.053719
O31	O	1.182575	0.740973	0.330018
O32	O	1.682575	1.240973	0.830018
O33	O	1.086177	0.740927	0.426428
O34	O	1.586177	1.240927	0.926428
C35	C	0.930490	0.506085	0.378221
C36	C	1.430490	1.006085	0.878221
C37	C	0.843240	0.506102	0.378230
C38	C	1.343240	1.006102	0.878230
C39	C	0.802264	0.573381	0.428350
C40	C	1.302264	1.073381	0.928350
C41	C	0.720284	0.573383	0.428362
C42	C	1.220284	1.073383	0.928362
C43	C	0.679280	0.506111	0.378251
C44	C	1.179280	1.006111	0.878251
C45	C	0.720262	0.438825	0.328129
C46	C	1.220262	0.938825	0.828129
C47	C	0.802240	0.438818	0.328121
C48	C	1.302240	0.938818	0.828121
C49	C	0.549391	0.438846	0.328147
C50	C	1.049391	0.938846	0.828147
C51	C	0.467407	0.438854	0.328154
C52	C	0.967407	0.938854	0.828154
C53	C	0.467435	0.573410	0.428389
C54	C	0.967435	1.073410	0.928389
C55	C	0.549414	0.573404	0.428381
C56	C	1.049414	1.073404	0.928381
C57	C	0.590389	0.506119	0.378258
C58	C	1.090389	1.006119	0.878258
C59	C	1.134388	0.779071	0.378237
C60	C	1.634388	1.279071	0.878237
C61	C	1.134438	0.895848	0.378261
C62	C	1.634438	1.395848	0.878261
C63	C	1.184687	0.950699	0.328118
C64	C	1.684687	1.450699	0.828118
C65	C	1.184734	1.060423	0.328147
C66	C	1.684734	1.560423	0.828147
C67	C	1.084276	1.060435	0.428463
C68	C	1.584276	1.560435	0.928463
C69	C	1.084234	0.950713	0.428438
C70	C	1.584234	1.450713	0.928438
C71	C	1.242684	0.950693	0.270199
C72	C	1.742684	1.450693	0.770199
C73	C	1.242730	1.060417	0.270228
C74	C	1.742730	1.560417	0.770228
C75	C	1.339182	0.506124	0.378265
C76	C	1.839182	1.006124	0.878265
C77	C	1.426431	0.506132	0.378274
C78	C	1.926431	1.006132	0.878274
C79	C	1.134485	0.506026	0.582987
C80	C	1.634485	1.006026	1.082987
C81	C	1.134505	0.505993	0.670237
C82	C	1.634505	1.005993	1.170237
C83	C	1.134506	1.232071	0.378275
C84	C	1.634506	1.732071	0.878275
C85	C	1.134527	1.115294	0.378315
C86	C	1.634527	1.615294	0.878315
C87	C	1.134435	0.506105	0.174295
C88	C	1.634435	1.006105	0.674295
C89	C	1.134567	0.505842	0.087045
C90	C	1.634567	1.005842	0.587045
C91	C	1.184730	0.438796	0.711239
C92	C	1.684730	0.938796	1.211239
C93	C	1.184740	0.438761	0.793219
C94	C	1.684740	0.938761	1.293219
C95	C	1.134527	0.505930	0.834196
C96	C	1.634527	1.005930	1.334196
C97	C	1.084297	0.573130	0.793188
C98	C	1.584297	1.073130	1.293188
C99	C	1.084284	0.573159	0.711209
C100	C	1.584284	1.073159	1.211209
C101	C	1.084328	0.573066	0.964058
C102	C	1.584328	1.073066	1.464058
C103	C	1.084342	0.573039	1.046043
C104	C	1.584342	1.073039	1.546043
C105	C	1.184784	0.438669	1.046069
C106	C	1.684784	0.938669	1.546069
C107	C	1.184771	0.438698	0.964090
C108	C	1.684771	0.938698	1.464090
C109	C	1.134541	0.505900	0.923087
C110	C	1.634541	1.005900	1.423087
H111	H	0.582751	0.384046	0.287339
H112	H	1.082751	0.884046	0.787339
F113	F	1.238178	0.367311	0.667636
F114	F	1.738178	0.867311	1.167636
H115	H	1.043402	1.105120	0.469316
H116	H	1.543402	1.605120	0.969316
F117	F	1.238223	0.367277	0.836854
F118	F	1.738223	0.867277	1.336854
F119	F	1.238217	0.367217	0.920481
F120	F	1.738217	0.867217	1.420481
H121	H	0.686870	0.384046	0.287330
H122	H	1.186870	0.884046	0.787330
F123	F	1.318216	1.104794	0.298772
F124	F	1.818216	1.604794	0.798772
F125	F	1.238243	0.367149	1.089707
F126	F	1.738243	0.867149	1.589707
H127	H	1.303459	0.920837	0.286528
H128	H	1.803459	1.420837	0.786528
H129	H	0.835602	0.384027	0.287312
H130	H	1.335602	0.884027	0.787312
F131	F	1.030762	0.892340	0.481817
F132	F	1.530762	1.392340	0.981817
H133	H	1.220925	0.916737	0.212423
H134	H	1.720925	1.416737	0.712423
H135	H	1.226491	1.090270	0.209425
H136	H	1.726491	1.590270	0.709425
F137	F	1.030894	0.644518	1.089652
F138	F	1.530894	1.144518	1.589652
H139	H	1.043377	0.627867	0.677826
H140	H	1.543377	1.127867	1.177826
F141	F	0.593051	0.645009	0.481711
F142	F	1.093051	1.145009	0.981711
H143	H	0.434069	0.628193	0.469204
H144	H	0.934069	1.128193	0.969204
H145	H	0.434024	0.384062	0.287358
H146	H	0.934024	0.884062	0.787358
F147	F	1.030866	0.644588	0.920422
F148	F	1.530866	1.144588	1.420422
H149	H	0.835643	0.628165	0.469154
H150	H	1.335643	1.128165	0.969154
F151	F	0.676678	0.644990	0.481707
F152	F	1.176678	1.144990	0.981707
H153	H	1.043410	0.627815	0.826558
H154	H	1.543410	1.127815	1.326558
