data_functionalizedCrystal
_audit_creation_method	'MofGen! by Chris Wilmer'
_symmetry_space_group_name_H-M	'P1'
_symmetry_Int_Tables_number	1
_symmetry_cell_setting	triclinic
loop_
_symmetry_equiv_pos_as_xyz
  x,y,z
_cell_length_a	17.077404
_cell_length_b	12.759399
_cell_length_c	12.759393
_cell_angle_alpha	90.030906
_cell_angle_beta	90.024604
_cell_angle_gamma	90.014220
loop_
_atom_site_label
_atom_site_type_symbol
_atom_site_fract_x
_atom_site_fract_y
_atom_site_fract_z
Zn1	Zn	-1.200121	0.418241	-0.594120
Zn2	Zn	-1.200039	0.593956	-0.418439
Zn3	Zn	-1.068846	0.418289	-0.418444
Zn4	Zn	-1.068839	0.593875	-0.594065
O5	O	-1.134461	0.506090	-0.506267
O6	O	-1.309957	0.441563	-0.570836
O7	O	-1.182605	0.570708	-0.271418
O8	O	-1.086297	0.271262	-0.441773
O9	O	-1.309897	0.570661	-0.441764
O10	O	-1.182745	0.271226	-0.570841
O11	O	-1.086218	0.441646	-0.271422
O12	O	-0.958998	0.441567	-0.441719
O13	O	-1.086285	0.570523	-0.741093
O14	O	-0.958993	0.570570	-0.570747
O15	O	-1.182738	0.441485	-0.741134
O16	O	-1.182598	0.740966	-0.441711
O17	O	-1.086206	0.740907	-0.570742
C18	C	-0.930514	0.506066	-0.506228
C19	C	-0.843264	0.506081	-0.506237
C20	C	-0.802291	0.573353	-0.573312
C21	C	-0.720311	0.573353	-0.573325
C22	C	-0.679304	0.506086	-0.506257
C23	C	-0.720282	0.438806	-0.439179
C24	C	-0.802261	0.438802	-0.439172
C25	C	-0.549412	0.438822	-0.439196
C26	C	-0.467428	0.438828	-0.439202
C27	C	-0.467462	0.573374	-0.573350
C28	C	-0.549441	0.573369	-0.573343
C29	C	-0.590413	0.506091	-0.506263
C30	C	-1.134413	0.779058	-0.506243
C31	C	-1.134464	0.895834	-0.506268
C32	C	-1.134520	0.505989	-0.780300
C33	C	-1.134545	0.505946	-0.897077
C34	C	-0.339206	0.506109	-0.506294
C35	C	-0.426455	0.506100	-0.506277
C36	C	-1.134531	0.232057	-0.506314
C37	C	-1.134561	0.115280	-0.506334
C38	C	-1.184713	0.950692	-0.439157
C39	C	-1.184764	1.060416	-0.439193
C40	C	-1.084310	1.060415	-0.573452
C41	C	-1.084264	0.950693	-0.573421
C42	C	-1.184772	0.438746	-0.951962
C43	C	-1.184785	0.438700	-1.061686
C44	C	-1.084343	0.573066	-1.061631
C45	C	-1.084326	0.573105	-0.951909
C46	C	-1.134448	0.506115	-0.233299
C47	C	-1.134575	0.505862	-0.116523
H48	H	-0.835673	0.628133	-0.627924
Br49	Br	-0.605017	0.347513	-0.348161
Br50	Br	-1.016195	0.664209	-1.136052
H51	H	-0.434042	0.384041	-0.384601
H52	H	-1.043420	0.627827	-0.907220
H53	H	-0.686955	0.628133	-0.627944
Br54	Br	-0.605093	0.664671	-0.664355
H55	H	-0.434098	0.628151	-0.627972
H56	H	-1.225661	0.384058	-0.907321
H57	H	-1.043437	1.105094	-0.628124
Br58	Br	-0.664631	0.347504	-0.348166
H59	H	-0.835620	0.384016	-0.384558
H60	H	-1.225591	0.906029	-0.384479
H61	H	-1.043345	0.906024	-0.628075
H62	H	-1.225682	1.105077	-0.384546
Br63	Br	-1.252958	0.347503	-1.136169
