data_functionalizedCrystal
_audit_creation_method	'MofGen! by Chris Wilmer'
_symmetry_space_group_name_H-M	'P1'
_symmetry_Int_Tables_number	1
_symmetry_cell_setting	triclinic
loop_
_symmetry_equiv_pos_as_xyz
  x,y,z
_cell_length_a	12.759401
_cell_length_b	12.759400
_cell_length_c	12.759393
_cell_angle_alpha	90.031564
_cell_angle_beta	90.018496
_cell_angle_gamma	90.014845
loop_
_atom_site_label
_atom_site_type_symbol
_atom_site_fract_x
_atom_site_fract_y
_atom_site_fract_z
Zn1	Zn	1.606255	-0.418200	0.593981
Zn2	Zn	1.606150	-0.593919	0.418301
Zn3	Zn	1.430557	-0.418255	0.418321
Zn4	Zn	1.430546	-0.593838	0.593943
O5	O	1.518377	-0.506053	0.506137
O6	O	1.753262	-0.441520	0.570685
O7	O	1.582818	-0.570673	0.271283
O8	O	1.453913	-0.271226	0.441647
O9	O	1.753185	-0.570620	0.441614
O10	O	1.582998	-0.271186	0.570704
O11	O	1.453811	-0.441614	0.271297
O12	O	1.283535	-0.441535	0.441609
O13	O	1.453894	-0.570482	0.740969
O14	O	1.283527	-0.570536	0.570638
O15	O	1.582987	-0.441442	0.740997
O16	O	1.582807	-0.740929	0.441577
O17	O	1.453791	-0.740870	0.570620
C18	C	1.245410	-0.506033	0.506122
C19	C	1.128633	-0.506050	0.506141
C20	C	1.073794	-0.573328	0.573215
C21	C	0.964070	-0.573342	0.573227
C22	C	0.964034	-0.438796	0.439081
C23	C	1.073756	-0.438778	0.439075
C24	C	1.073815	-0.651010	0.650660
C25	C	0.964091	-0.651024	0.650672
C26	C	1.518315	-0.779020	0.506115
C27	C	1.518384	-0.895797	0.506140
C28	C	1.585637	-0.950655	0.439022
C29	C	1.585702	-1.060379	0.439054
C30	C	1.451252	-1.060377	0.573327
C31	C	1.451193	-0.950655	0.573299
C32	C	1.663258	-0.950657	0.361498
C33	C	1.663322	-1.060381	0.361530
C34	C	1.792410	-0.506073	0.506152
C35	C	1.909187	-0.506082	0.506158
C36	C	1.518451	-0.505947	0.780170
C37	C	1.518482	-0.505902	0.896947
C38	C	1.518468	-0.232019	0.506182
C39	C	1.518507	-0.115243	0.506201
C40	C	1.518364	-0.506083	0.233169
C41	C	1.518537	-0.505832	0.116393
C42	C	1.585710	-0.438704	0.951825
C43	C	1.585735	-0.438666	1.061549
C44	C	1.451301	-0.573033	1.061507
C45	C	1.451272	-0.573064	0.951785
C46	C	1.663328	-0.361131	0.951851
C47	C	1.663353	-0.361093	1.061575
H48	H	0.934295	-0.732373	0.628740
C49	C	1.113722	-0.621935	0.759109
C50	C	1.174675	-0.530921	0.752448
C51	C	1.211468	-0.504116	0.852323
H52	H	1.055934	-0.609807	0.804433
H53	H	1.155143	-0.677619	0.786048
H54	H	1.133256	-0.475249	0.725523
H55	H	1.232478	-0.543024	0.707143
H56	H	1.252889	-0.559800	0.879262
H57	H	1.153674	-0.491993	0.897639
H58	H	1.252836	-0.442366	0.847815
C59	C	1.378239	-0.891231	0.646347
C60	C	1.401066	-0.917841	0.750319
C61	C	1.333870	-0.863133	0.817642
H62	H	1.387756	-0.818011	0.636860
H63	H	1.307648	-0.909307	0.630983
H64	H	1.471640	-0.899758	0.765679
H65	H	1.391543	-0.991052	0.759840
H66	H	1.263279	-0.881209	0.802278
H67	H	1.343392	-0.789915	0.808146
H68	H	1.349342	-0.881187	0.888194
C69	C	0.904502	-0.365594	0.366395
C70	C	0.931190	-0.261665	0.389466
C71	C	0.876361	-0.194202	0.322536
H72	H	0.922407	-0.380744	0.295738
H73	H	0.831291	-0.375169	0.376016
H74	H	1.004384	-0.252095	0.379836
H75	H	0.913282	-0.246482	0.460110
H76	H	0.803151	-0.203777	0.332157
H77	H	0.894271	-0.209362	0.251884
H78	H	0.894454	-0.123679	0.338187
C79	C	1.378164	-0.645824	1.120994
C80	C	1.274214	-0.622928	1.094322
C81	C	1.206811	-0.689956	1.149108
H82	H	1.393371	-0.716460	1.103042
H83	H	1.387736	-0.636171	1.194210
H84	H	1.264646	-0.632590	1.021122
H85	H	1.258974	-0.552305	1.112276
H86	H	1.216384	-0.680303	1.222325
H87	H	1.222027	-0.760588	1.131153
H88	H	1.136274	-0.674424	1.131026
H89	H	1.744601	-0.920799	0.383349
C90	C	1.624235	-0.905324	0.258492
C91	C	1.535382	-0.843697	0.277092
C92	C	1.499395	-0.801932	0.182228
H93	H	1.677620	-0.863331	0.228036
H94	H	1.606691	-0.960797	0.211984
H95	H	1.552930	-0.788232	0.323583
H96	H	1.481976	-0.885667	0.307534
H97	H	1.481851	-0.857405	0.135720
H98	H	1.552787	-0.759944	0.151779
H99	H	1.439100	-0.760122	0.194834
H100	H	1.396525	-0.627780	0.907107
H101	H	1.740626	-1.094325	0.390742
H102	H	1.634239	-0.283784	1.095623
H103	H	1.641585	-1.090243	0.280150
H104	H	1.744723	-0.382886	1.091353
H105	H	1.396548	-1.105056	0.628005
H106	H	1.641559	-0.279767	0.922095
H107	H	1.118401	-0.383987	0.384464
H108	H	1.740599	-0.390300	0.917815
H109	H	1.107829	-0.728262	0.621376
H110	H	0.930093	-0.621980	0.728024
