data_functionalizedCrystal
_audit_creation_method	'MofGen! by Chris Wilmer'
_symmetry_space_group_name_H-M	'P1'
_symmetry_Int_Tables_number	1
_symmetry_cell_setting	triclinic
loop_
_symmetry_equiv_pos_as_xyz
  x,y,z
_cell_length_a	17.077404
_cell_length_b	17.077402
_cell_length_c	17.077396
_cell_angle_alpha	90.027528
_cell_angle_beta	90.019777
_cell_angle_gamma	90.018878
loop_
_atom_site_label
_atom_site_type_symbol
_atom_site_fract_x
_atom_site_fract_y
_atom_site_fract_z
Zn1	Zn	1.200051	-0.312605	0.443854
Zn2	Zn	1.199957	-0.443880	0.312590
Zn3	Zn	1.068783	-0.312621	0.312601
Zn4	Zn	1.068750	-0.443822	0.443813
O5	O	1.134385	-0.378232	0.378214
O6	O	1.309886	-0.330036	0.426454
O7	O	1.182531	-0.426499	0.202744
O8	O	1.086250	-0.202772	0.330034
O9	O	1.309816	-0.426483	0.330015
O10	O	1.182692	-0.202760	0.426464
O11	O	1.086158	-0.330064	0.202753
O12	O	0.958932	-0.330008	0.329994
O13	O	1.086193	-0.426385	0.553665
O14	O	0.958907	-0.426401	0.426395
O15	O	1.182659	-0.329980	0.553695
O16	O	1.182499	-0.553719	0.329975
O17	O	1.086101	-0.553677	0.426384
C18	C	0.930437	-0.378200	0.378192
C19	C	0.843188	-0.378206	0.378201
C20	C	0.467381	-0.428536	0.428354
C21	C	0.549361	-0.428526	0.428342
C22	C	0.590339	-0.378253	0.378227
C23	C	0.549331	-0.327992	0.328115
C24	C	0.467352	-0.328007	0.328123
C25	C	0.720201	-0.327964	0.328102
C26	C	0.802186	-0.327948	0.328094
C27	C	0.802210	-0.428482	0.428320
C28	C	0.720231	-0.428497	0.428329
C29	C	0.679230	-0.378235	0.378218
C30	C	1.134307	-0.582180	0.378191
C31	C	1.134346	-0.669430	0.378207
C32	C	1.184536	-0.710346	0.428459
C33	C	1.184569	-0.792326	0.428476
C34	C	1.134415	-0.833389	0.378236
C35	C	1.084220	-0.792467	0.327982
C36	C	1.084183	-0.710488	0.327970
C37	C	1.084300	-0.963337	0.328009
C38	C	1.084337	-1.045321	0.328020
C39	C	1.184686	-1.045175	0.428515
C40	C	1.184649	-0.963196	0.428503
C41	C	1.134455	-0.922280	0.378248
C42	C	1.339130	-0.378264	0.378237
C43	C	1.426379	-0.378278	0.378247
C44	C	1.134433	-0.378174	0.582959
C45	C	1.134453	-0.378149	0.670209
C46	C	1.134485	-0.173488	0.378255
C47	C	1.134527	-0.086238	0.378272
C48	C	1.134383	-0.378233	0.174266
C49	C	1.134515	-0.378036	0.087017
C50	C	1.184685	-0.327947	0.711216
C51	C	1.184694	-0.327921	0.793196
C52	C	1.134475	-0.378102	0.834168
C53	C	1.084238	-0.428306	0.793155
C54	C	1.084225	-0.428328	0.711176
C55	C	1.084269	-0.428259	0.964025
C56	C	1.084283	-0.428238	1.046010
C57	C	1.184739	-0.327852	1.046045
C58	C	1.184726	-0.327874	0.964066
C59	C	1.134489	-0.378080	0.923059
H60	H	0.434023	-0.469470	0.469168
H61	H	0.433970	-0.287080	0.287324
H62	H	1.225582	-0.287087	0.677862
C63	C	0.594460	-0.483816	0.483460
N64	N	0.628427	-0.525465	0.524976
H65	H	1.225600	-0.287043	0.826580
C66	C	1.028988	-0.483498	0.838227
N67	N	0.987373	-0.525069	0.872175
H68	H	1.225492	-0.929763	0.469408
H69	H	1.225623	-0.287017	0.930709
H70	H	1.225380	-0.676918	0.469367
C71	C	1.029034	-0.483435	1.091078
N72	N	0.987419	-0.525008	1.125022
C73	C	0.847314	-0.483773	0.483441
N74	N	0.881289	-0.525415	0.524958
C75	C	0.594409	-0.272686	0.272994
N76	N	0.628361	-0.231023	0.231480
H77	H	1.225642	-0.286972	1.079437
C78	C	1.239792	-0.837331	0.483747
N79	N	1.281392	-0.871227	0.525376
C80	C	0.847259	-0.272652	0.272959
N81	N	0.881209	-0.231004	0.231428
H82	H	1.043349	-0.469129	0.930640
C83	C	1.028967	-0.483555	0.666069
N84	N	0.987344	-0.525153	0.632095
H85	H	1.225556	-1.078493	0.469436
H86	H	0.686820	-0.287034	0.287298
C87	C	1.029160	-1.090489	0.272760
N88	N	0.987598	-1.124509	0.231138
C89	C	1.029097	-0.837639	0.272670
N90	N	0.987598	-0.871661	0.230988
H91	H	0.686870	-0.469430	0.469141
C92	C	1.028971	-0.665480	0.272688
N93	N	0.987381	-0.631582	0.231050
H94	H	1.043423	-0.930025	0.287089
