data_functionalizedCrystal
_audit_creation_method	'MofGen! by Chris Wilmer'
_symmetry_space_group_name_H-M	'P1'
_symmetry_Int_Tables_number	1
_symmetry_cell_setting	triclinic
loop_
_symmetry_equiv_pos_as_xyz
  x,y,z
_cell_length_a	17.077404
_cell_length_b	17.077402
_cell_length_c	17.077396
_cell_angle_alpha	89.971638
_cell_angle_beta	89.983895
_cell_angle_gamma	90.021463
loop_
_atom_site_label
_atom_site_type_symbol
_atom_site_fract_x
_atom_site_fract_y
_atom_site_fract_z
Zn1	Zn	1.200034	-0.312544	-0.443824
Zn2	Zn	1.700034	0.187456	0.056176
Zn3	Zn	1.199945	-0.443821	-0.312560
Zn4	Zn	1.699945	0.056179	0.187440
Zn5	Zn	1.068771	-0.312568	-0.312575
Zn6	Zn	1.568771	0.187432	0.187425
Zn7	Zn	1.068732	-0.443767	-0.443786
Zn8	Zn	1.568732	0.056233	0.056214
O9	O	1.134370	-0.378175	-0.378186
O10	O	1.634370	0.121825	0.121814
O11	O	1.309869	-0.329971	-0.426421
O12	O	1.809869	0.170029	0.073579
O13	O	1.182523	-0.426443	-0.202715
O14	O	1.682523	0.073557	0.297285
O15	O	1.086237	-0.202718	-0.330007
O16	O	1.586237	0.297282	0.169993
O17	O	1.309803	-0.426419	-0.329982
O18	O	1.809803	0.073581	0.170018
O19	O	1.182675	-0.202700	-0.426435
O20	O	1.682675	0.297300	0.073565
O21	O	1.086150	-0.330012	-0.202726
O22	O	1.586150	0.169988	0.297274
O23	O	0.958919	-0.329960	-0.329970
O24	O	1.458919	0.170040	0.170030
O25	O	1.086171	-0.426328	-0.553638
O26	O	1.586171	0.073672	-0.053638
O27	O	0.958890	-0.426351	-0.426371
O28	O	1.458890	0.073649	0.073629
O29	O	1.182638	-0.329919	-0.553666
O30	O	1.682638	0.170081	-0.053666
O31	O	1.182486	-0.553661	-0.329946
O32	O	1.682486	-0.053661	0.170054
O33	O	1.086084	-0.553621	-0.426357
O34	O	1.586084	-0.053621	0.073643
C35	C	0.930423	-0.378153	-0.378169
C36	C	1.430423	0.121847	0.121831
C37	C	0.843173	-0.378162	-0.378180
C38	C	1.343173	0.121838	0.121820
C39	C	0.802217	-0.328031	-0.428472
C40	C	1.302217	0.171969	0.071528
C41	C	0.720237	-0.328036	-0.428476
C42	C	1.220237	0.171964	0.071524
C43	C	0.679213	-0.378177	-0.378190
C44	C	1.179213	0.121823	0.121810
C45	C	0.720174	-0.428311	-0.327892
C46	C	1.220174	0.071689	0.172108
C47	C	0.802153	-0.428301	-0.327885
C48	C	1.302153	0.071699	0.172115
C49	C	0.549304	-0.428328	-0.327912
C50	C	1.049304	0.071672	0.172088
C51	C	0.467320	-0.428339	-0.327920
C52	C	0.967320	0.071661	0.172080
C53	C	0.467388	-0.328063	-0.428502
C54	C	0.967388	0.171937	0.071498
C55	C	0.549367	-0.328054	-0.428495
C56	C	1.049367	0.171946	0.071505
C57	C	0.590322	-0.378189	-0.378198
C58	C	1.090322	0.121811	0.121802
C59	C	1.134292	-0.582123	-0.378163
C60	C	1.634292	-0.082123	0.121837
C61	C	1.134331	-0.669373	-0.378179
C62	C	1.634331	-0.169373	0.121821
C63	C	1.184519	-0.710286	-0.428430
C64	C	1.684519	-0.210286	0.071570
C65	C	1.184552	-0.792267	-0.428447
C66	C	1.684552	-0.292267	0.071553
C67	C	1.134400	-0.833332	-0.378208
C68	C	1.634400	-0.333332	0.121792
C69	C	1.084207	-0.792413	-0.327955
C70	C	1.584207	-0.292413	0.172045
C71	C	1.084170	-0.710434	-0.327943
C72	C	1.584170	-0.210434	0.172057
C73	C	1.084287	-0.963283	-0.327983
C74	C	1.584287	-0.463283	0.172017
C75	C	1.084324	-1.045268	-0.327994
C76	C	1.584324	-0.545268	0.172006
C77	C	1.184669	-1.045116	-0.428486
C78	C	1.684669	-0.545116	0.071514
C79	C	1.184633	-0.963137	-0.428474
C80	C	1.684633	-0.463137	0.071526
C81	C	1.134440	-0.922223	-0.378220
C82	C	1.634440	-0.422223	0.121780
C83	C	1.339115	-0.378198	-0.378204
C84	C	1.839115	0.121802	0.121796
C85	C	1.426364	-0.378208	-0.378212
C86	C	1.926364	0.121792	0.121788
C87	C	1.134410	-0.378114	-0.582931
C88	C	1.634410	0.121886	-0.082931
C89	C	1.134427	-0.378089	-0.670181
C90	C	1.634427	0.121911	-0.170181
C91	C	1.134470	-0.173431	-0.378227
C92	C	1.634470	0.326569	0.121773
C93	C	1.134512	-0.086181	-0.378244
C94	C	1.634512	0.413819	0.121756
C95	C	1.084261	-0.327871	-0.711176
C96	C	1.584261	0.172129	-0.211176
C97	C	1.084273	-0.327853	-0.793156
C98	C	1.584273	0.172147	-0.293156
C99	C	1.134457	-0.378050	-0.834140
C100	C	1.634457	0.121950	-0.334140
C101	C	1.184625	-0.428272	-0.793139
C102	C	1.684625	0.071728	-0.293139
C103	C	1.184608	-0.428294	-0.711160
C104	C	1.684608	0.071706	-0.211160
C105	C	1.184659	-0.428223	-0.964009
C106	C	1.684659	0.071777	-0.464009
C107	C	1.184678	-0.428201	-1.045994
C108	C	1.684678	0.071799	-0.545994
C109	C	1.084325	-0.327783	-1.046005
C110	C	1.584325	0.172217	-0.546005
C111	C	1.084307	-0.327804	-0.964026
C112	C	1.584307	0.172196	-0.464026
C113	C	1.134477	-0.378026	-0.923031
C114	C	1.634477	0.121974	-0.423031
C115	C	1.134376	-0.378179	-0.174238
C116	C	1.634376	0.121821	0.325762
C117	C	1.134512	-0.377984	-0.086989
C118	C	1.634512	0.122016	0.413011
H119	H	0.582766	-0.287229	-0.469447
H120	H	1.082766	0.212771	0.030553
Br121	Br	1.016052	-0.654908	-0.259746
Br122	Br	1.516052	-0.154908	0.240254
Br123	Br	1.252792	-0.496318	-1.101615
Br124	Br	1.752792	0.003682	-0.601615
Br125	Br	1.016145	-0.259741	-0.848790
Br126	Br	1.516145	0.240259	-0.348790
H127	H	1.043447	-0.286926	-0.930659
H128	H	1.543447	0.213074	-0.430659
H129	H	0.686766	-0.469133	-0.286945
H130	H	1.186766	0.030867	0.213055
H131	H	1.225519	-0.469113	-0.930634
H132	H	1.725519	0.030887	-0.430634
Br133	Br	1.252592	-0.654562	-0.496609
Br134	Br	1.752592	-0.154562	0.003391
H135	H	0.433920	-0.469169	-0.286973
H136	H	0.933920	0.030831	0.213027
H137	H	1.043476	-0.286889	-1.079387
H138	H	1.543476	0.213111	-0.579387
Br139	Br	1.016156	-0.259738	-0.655562
Br140	Br	1.516156	0.240262	-0.155562
H141	H	0.582648	-0.469152	-0.286953
H142	H	1.082648	0.030848	0.213047
Br143	Br	1.252654	-0.847789	-0.496661
Br144	Br	1.752654	-0.347789	0.003339
H145	H	1.225474	-0.929701	-0.469378
H146	H	1.725474	-0.429701	0.030622
H147	H	1.225481	-0.469147	-0.826515
H148	H	1.725481	0.030853	-0.326515
H149	H	0.835498	-0.469123	-0.286932
H150	H	1.335498	0.030877	0.213068
H151	H	0.434038	-0.287240	-0.469455
H152	H	0.934038	0.212760	0.030545
Br153	Br	1.252793	-1.100639	-0.496684
Br154	Br	1.752793	-0.600639	0.003316
H155	H	1.043483	-1.078701	-0.287088
H156	H	1.543483	-0.578701	0.212912
H157	H	1.043412	-0.929974	-0.287063
H158	H	1.543412	-0.429974	0.212937
H159	H	1.043369	-0.825855	-0.287053
H160	H	1.543369	-0.325855	0.212947
H161	H	0.835613	-0.287202	-0.469423
H162	H	1.335613	0.212798	0.030577
Br163	Br	0.664657	-0.259998	-0.496734
Br164	Br	1.164657	0.240002	0.003266
Br165	Br	1.252687	-0.496455	-0.655523
Br166	Br	1.752687	0.003545	-0.155523
