data_functionalizedCrystal
_audit_creation_method	'MofGen! by Chris Wilmer'
_symmetry_space_group_name_H-M	'P1'
_symmetry_Int_Tables_number	1
_symmetry_cell_setting	triclinic
loop_
_symmetry_equiv_pos_as_xyz
  x,y,z
_cell_length_a	17.077404
_cell_length_b	12.759399
_cell_length_c	12.759387
_cell_angle_alpha	90.062176
_cell_angle_beta	89.958169
_cell_angle_gamma	89.984659
loop_
_atom_site_label
_atom_site_type_symbol
_atom_site_fract_x
_atom_site_fract_y
_atom_site_fract_z
Zn1	Zn	1.200270	0.417885	-0.594066
Zn2	Zn	1.200144	0.593696	-0.418384
Zn3	Zn	1.068951	0.418033	-0.418395
Zn4	Zn	1.068988	0.593523	-0.594017
O5	O	1.134588	0.505784	-0.506216
O6	O	1.310100	0.441217	-0.570777
O7	O	1.182672	0.570529	-0.271365
O8	O	1.086408	0.270992	-0.441724
O9	O	1.310007	0.570385	-0.441705
O10	O	1.182888	0.270883	-0.570788
O11	O	1.086285	0.441469	-0.271373
O12	O	0.959109	0.441301	-0.441676
O13	O	1.086471	0.570090	-0.741044
O14	O	0.959136	0.570233	-0.570704
O15	O	1.182923	0.441049	-0.741080
O16	O	1.182708	0.740694	-0.441657
O17	O	1.086348	0.740567	-0.570693
C18	C	1.134540	0.778752	-0.506192
C19	C	1.134591	0.895528	-0.506217
C20	C	0.930640	0.505765	-0.506187
C21	C	0.843390	0.505782	-0.506199
C22	C	1.134715	0.505534	-0.780249
C23	C	1.134770	0.505427	-0.897026
C24	C	0.802435	0.573019	-0.573276
C25	C	0.720454	0.573021	-0.573293
C26	C	0.679431	0.505791	-0.506227
C27	C	0.720392	0.438548	-0.439146
C28	C	0.802371	0.438541	-0.439136
C29	C	0.549522	0.438568	-0.439172
C30	C	0.467538	0.438576	-0.439181
C31	C	0.467605	0.573048	-0.573329
C32	C	0.549584	0.573042	-0.573318
C33	C	0.590540	0.505799	-0.506236
C34	C	1.339332	0.505804	-0.506245
C35	C	1.426582	0.505813	-0.506258
C36	C	1.134658	0.231751	-0.506262
C37	C	1.134687	0.114974	-0.506283
C38	C	1.184823	0.950421	-0.439104
C39	C	1.184873	1.060145	-0.439139
C40	C	1.084453	1.060073	-0.573403
C41	C	1.084407	0.950351	-0.573372
C42	C	1.134506	0.505958	-0.233248
C43	C	1.134604	0.505769	-0.116472
C44	C	1.184580	0.437843	0.047822
C45	C	1.184496	0.438011	-0.061902
C46	C	1.084788	0.573356	-0.061312
C47	C	1.084869	0.573182	0.048410
H48	H	0.835830	0.627768	-0.627886
H49	H	1.225055	0.382976	-0.106802
F50	F	0.423879	0.367027	-0.367797
F51	F	1.030944	0.891926	-0.644811
H52	H	1.044302	0.628216	0.093316
H53	H	0.434256	0.627797	-0.627953
F54	F	1.238339	1.118562	-0.367711
H55	H	1.225210	0.382670	0.092244
F56	F	1.031687	0.645465	-0.119391
F57	F	0.676870	0.644583	-0.644686
F58	F	0.593108	0.366999	-0.367777
F59	F	0.593243	0.644602	-0.644691
F60	F	0.676730	0.366990	-0.367776
F61	F	1.238234	0.892078	-0.367633
F62	F	0.845959	0.366977	-0.367745
H63	H	1.043594	1.104724	-0.628077
