data_functionalizedCrystal
_audit_creation_method	'MofGen! by Chris Wilmer'
_symmetry_space_group_name_H-M	'P1'
_symmetry_Int_Tables_number	1
_symmetry_cell_setting	triclinic
loop_
_symmetry_equiv_pos_as_xyz
  x,y,z
_cell_length_a	12.759401
_cell_length_b	17.077402
_cell_length_c	12.759393
_cell_angle_alpha	90.032336
_cell_angle_beta	89.980404
_cell_angle_gamma	89.975390
loop_
_atom_site_label
_atom_site_type_symbol
_atom_site_fract_x
_atom_site_fract_y
_atom_site_fract_z
Zn1	Zn	1.606196	0.312464	-0.593969
Zn2	Zn	1.606058	0.443750	-0.418283
Zn3	Zn	1.430495	0.312503	-0.418308
Zn4	Zn	1.430457	0.443693	-0.593925
O5	O	1.518301	0.378103	-0.506121
O6	O	1.753199	0.329888	-0.570672
O7	O	1.582727	0.426381	-0.271266
O8	O	1.453876	0.202651	-0.441639
O9	O	1.753097	0.426343	-0.441597
O10	O	1.582963	0.202623	-0.570696
O11	O	1.453741	0.329954	-0.271284
O12	O	1.283469	0.329898	-0.441596
O13	O	1.453811	0.426245	-0.740952
O14	O	1.283441	0.426282	-0.570621
O15	O	1.582926	0.329832	-0.740984
O16	O	1.582690	0.553590	-0.441554
O17	O	1.453677	0.553547	-0.570597
C18	C	1.245334	0.378089	-0.506107
C19	C	1.128557	0.378102	-0.506126
C20	C	1.518193	0.582051	-0.506091
C21	C	1.518243	0.669300	-0.506113
C22	C	0.963977	0.428377	-0.573210
C23	C	1.073701	0.428368	-0.573199
C24	C	1.073684	0.327846	-0.439051
C25	C	0.963961	0.327859	-0.439057
C26	C	1.585487	0.710287	-0.438994
C27	C	1.585536	0.792267	-0.439026
C28	C	1.518334	0.833260	-0.506171
C29	C	1.451087	0.792268	-0.573296
C30	C	1.451044	0.710289	-0.573270
C31	C	1.451178	0.963138	-0.573346
C32	C	1.451219	1.045122	-0.573371
C33	C	1.585670	1.045116	-0.439102
C34	C	1.585627	0.963137	-0.439075
C35	C	1.518378	0.922151	-0.506200
C36	C	1.792335	0.378117	-0.506137
C37	C	1.909111	0.378124	-0.506143
C38	C	1.518380	0.378027	-0.780155
C39	C	1.518414	0.377995	-0.896932
C40	C	1.518430	1.173358	-0.506189
C41	C	1.518463	1.086109	-0.506253
C42	C	1.585648	0.327785	-0.951812
C43	C	1.585666	0.327751	-1.061536
C44	C	1.451211	0.428145	-1.061490
C45	C	1.451189	0.428174	-0.951768
C46	C	1.518283	0.378121	-0.233154
C47	C	1.518454	0.377932	-0.116378
H48	H	0.919322	0.469306	-0.627835
N49	N	1.658212	1.089319	-0.366712
H50	H	1.700772	1.050911	-0.324167
H51	H	1.615488	1.123391	-0.318069
H52	H	1.118369	0.469291	-0.627811
N53	N	1.132844	0.273632	-0.366700
H54	H	1.210678	0.281246	-0.376874
H55	H	1.113689	0.217588	-0.383186
H56	H	1.640292	0.825634	-0.384370
H57	H	1.396482	0.469000	-1.106150
N58	N	0.904775	0.273659	-0.366711
H59	H	0.956170	0.241811	-0.324216
H60	H	0.859277	0.237377	-0.409563
H61	H	1.396431	0.469060	-0.907083
N62	N	1.657966	0.666076	-0.366569
H63	H	1.700574	0.704483	-0.324058
H64	H	1.706546	0.632007	-0.409368
H65	H	1.396517	1.078497	-0.628066
N66	N	1.658109	0.918920	-0.366659
H67	H	1.700722	0.957323	-0.324144
H68	H	1.706683	0.884854	-0.409467
N69	N	1.378652	0.918929	-0.645747
H70	H	1.336083	0.957335	-0.688286
H71	H	1.330038	0.884970	-0.602927
H72	H	1.396374	0.825651	-0.627972
H73	H	1.640384	0.286924	-0.907168
H74	H	1.396289	0.676919	-0.627925
N75	N	1.658186	0.273603	-1.120739
H76	H	1.615522	0.237210	-1.166263
H77	H	1.700755	0.241872	-1.069289
