data_functionalizedCrystal
_audit_creation_method	'MofGen! by Chris Wilmer'
_symmetry_space_group_name_H-M	'P1'
_symmetry_Int_Tables_number	1
_symmetry_cell_setting	triclinic
loop_
_symmetry_equiv_pos_as_xyz
  x,y,z
_cell_length_a	17.077404
_cell_length_b	21.395362
_cell_length_c	17.077396
_cell_angle_alpha	89.966876
_cell_angle_beta	89.982480
_cell_angle_gamma	90.025177
loop_
_atom_site_label
_atom_site_type_symbol
_atom_site_fract_x
_atom_site_fract_y
_atom_site_fract_z
Zn1	Zn	1.199999	-0.249511	-0.443828
Zn2	Zn	1.199896	-0.354293	-0.312553
Zn3	Zn	1.068736	-0.249525	-0.312575
Zn4	Zn	1.068683	-0.354246	-0.443776
O5	O	1.134329	-0.301894	-0.378183
O6	O	1.309833	-0.263424	-0.426426
O7	O	1.182476	-0.340422	-0.202709
O8	O	1.086214	-0.161845	-0.330017
O9	O	1.309757	-0.340407	-0.329979
O10	O	1.182653	-0.161835	-0.426448
O11	O	1.086114	-0.263449	-0.202725
O12	O	0.958882	-0.263403	-0.329967
O13	O	1.086124	-0.340326	-0.553630
O14	O	0.958844	-0.340341	-0.426359
O15	O	1.182601	-0.263378	-0.553668
O16	O	1.182425	-0.441965	-0.329929
O17	O	1.086024	-0.441930	-0.426338
C18	C	0.930381	-0.301869	-0.378160
C19	C	0.843131	-0.301873	-0.378169
C20	C	0.467317	-0.342045	-0.428318
C21	C	0.549297	-0.342037	-0.428306
C22	C	0.590282	-0.301910	-0.378195
C23	C	0.549282	-0.261794	-0.328088
C24	C	0.467303	-0.261806	-0.328096
C25	C	0.720152	-0.261771	-0.328075
C26	C	0.802137	-0.261758	-0.328067
C27	C	0.802146	-0.342002	-0.428285
C28	C	0.720168	-0.342014	-0.428293
C29	C	0.679173	-0.301897	-0.378186
C30	C	1.134228	-0.464681	-0.378143
C31	C	1.134257	-0.534323	-0.378152
C32	C	1.184444	-0.566973	-0.428399
C33	C	1.184472	-0.632409	-0.428418
C34	C	1.134321	-0.665191	-0.378176
C35	C	1.084124	-0.632532	-0.327925
C36	C	1.084093	-0.567098	-0.327913
C37	C	1.128219	-0.768903	-0.307467
C38	C	1.128257	-0.834336	-0.307478
C39	C	1.134414	-0.867012	-0.378214
C40	C	1.140550	-0.834246	-0.448941
C41	C	1.140519	-0.768812	-0.448929
C42	C	1.134349	-0.736143	-0.378184
C43	C	1.184633	-0.970615	-0.428486
C44	C	1.184655	-1.036051	-0.428507
C45	C	1.084312	-1.036174	-0.328007
C46	C	1.084286	-0.970739	-0.327993
C47	C	1.134451	-0.937963	-0.378232
C48	C	1.339073	-0.301919	-0.378206
C49	C	1.426323	-0.301930	-0.378216
C50	C	1.134368	-0.301845	-0.582927
C51	C	1.134385	-0.301824	-0.670177
C52	C	1.134451	-0.138470	-0.378240
C53	C	1.134503	-0.068829	-0.378265
C54	C	1.084224	-0.261740	-0.711175
C55	C	1.084237	-0.261726	-0.793156
C56	C	1.134415	-0.301793	-0.834137
C57	C	1.184578	-0.341882	-0.793133
C58	C	1.184561	-0.341899	-0.711154
C59	C	1.184612	-0.341843	-0.964003
C60	C	1.184631	-0.341826	-1.045988
C61	C	1.084289	-0.261670	-1.046005
C62	C	1.084271	-0.261687	-0.964026
C63	C	1.134435	-0.301775	-0.923028
C64	C	1.134335	-0.301897	-0.174235
C65	C	1.134470	-0.301741	-0.086986
H66	H	0.582671	-0.374703	-0.469103
H67	H	1.043473	-1.062865	-0.287104
F68	F	1.030674	-0.532348	-0.274431
F69	F	1.237946	-0.384565	-0.667521
H70	H	1.043368	-0.229109	-0.677814
F71	F	1.030901	-0.219004	-1.089639
H72	H	0.433927	-0.229139	-0.287300
F73	F	1.238019	-0.935730	-0.481956
F74	F	0.845776	-0.384690	-0.481623
H75	H	1.225289	-0.540289	-0.469308
F76	F	1.237893	-0.667165	-0.481897
H77	H	1.225490	-0.374452	-1.079352
H78	H	1.225468	-0.374482	-0.930625
H79	H	0.835505	-0.229078	-0.287270
F80	F	1.030870	-0.935988	-0.274512
F81	F	1.030820	-0.219085	-0.836785
F82	F	1.238066	-1.070800	-0.481998
H83	H	0.433953	-0.374717	-0.469129
F84	F	0.676550	-0.384717	-0.481631
F85	F	0.676525	-0.219077	-0.274741
F86	F	0.592904	-0.219091	-0.274753
H87	H	1.145513	-0.742136	-0.506517
F88	F	1.237977	-0.384529	-0.836750
H89	H	1.043416	-0.229057	-0.930661
H90	H	1.145566	-0.860849	-0.506542
H91	H	1.123265	-0.861009	-0.249887
F92	F	1.121746	-0.734134	-0.232168
H93	H	1.043289	-0.659228	-0.287019
