data_functionalizedCrystal
_audit_creation_method	'MofGen! by Chris Wilmer'
_symmetry_space_group_name_H-M	'P1'
_symmetry_Int_Tables_number	1
_symmetry_cell_setting	triclinic
loop_
_symmetry_equiv_pos_as_xyz
  x,y,z
_cell_length_a	12.759401
_cell_length_b	12.759400
_cell_length_c	12.759401
_cell_angle_alpha	90.007905
_cell_angle_beta	90.006940
_cell_angle_gamma	90.016209
loop_
_atom_site_label
_atom_site_type_symbol
_atom_site_fract_x
_atom_site_fract_y
_atom_site_fract_z
Zn1	Zn	1.606121	-0.418407	0.594020
Zn2	Zn	1.606055	-0.594053	0.418340
Zn3	Zn	1.430463	-0.418394	0.418355
Zn4	Zn	1.430412	-0.594049	0.593977
O5	O	1.518263	-0.506226	0.506173
O6	O	1.753134	-0.441714	0.570727
O7	O	1.582756	-0.570748	0.271321
O8	O	1.453813	-0.271374	0.441681
O9	O	1.753085	-0.570761	0.441656
O10	O	1.582869	-0.271384	0.570742
O11	O	1.453749	-0.441691	0.271332
O12	O	1.283435	-0.441687	0.441640
O13	O	1.453726	-0.570754	0.741004
O14	O	1.283398	-0.570741	0.570669
O15	O	1.582819	-0.441710	0.741035
O16	O	1.582707	-0.741074	0.441614
O17	O	1.453663	-0.741071	0.570654
C18	C	1.245296	-0.506213	0.506152
C19	C	1.128519	-0.506233	0.506168
C20	C	1.073665	-0.573533	0.573248
C21	C	0.963941	-0.573537	0.573268
C22	C	0.963934	-0.438937	0.439121
C23	C	1.073656	-0.438929	0.439106
C24	C	1.518201	-0.779193	0.506151
C25	C	1.518270	-0.895970	0.506177
C26	C	1.585538	-0.950798	0.439060
C27	C	1.585602	-1.060522	0.439092
C28	C	1.451122	-1.060579	0.573361
C29	C	1.451064	-0.950857	0.573333
C30	C	1.663176	-0.950766	0.361538
C31	C	1.663241	-1.060491	0.361570
C32	C	1.792296	-0.506239	0.506194
C33	C	1.909073	-0.506245	0.506204
C34	C	1.518275	-0.506233	0.780206
C35	C	1.518279	-0.506236	0.896983
C36	C	1.518354	-0.232192	0.506218
C37	C	1.518393	-0.115416	0.506237
C38	C	1.585490	-0.439054	0.951863
C39	C	1.585481	-0.439052	1.061587
C40	C	1.451048	-0.573423	1.061541
C41	C	1.451053	-0.573419	0.951819
C42	C	1.518250	-0.506242	1.233206
C43	C	1.518266	-0.506238	1.116429
H44	H	0.919252	-0.384143	0.384520
C45	C	1.377114	-0.890549	0.647217
N46	N	1.321426	-0.845126	0.702884
H47	H	1.640208	-0.384344	1.106265
C48	C	0.903607	-0.647582	0.647052
N49	N	0.858163	-0.703360	0.702626
C50	C	1.633893	-1.100793	0.251633
N51	N	1.611786	-1.131149	0.168832
C52	C	1.134010	-0.647561	0.647025
N53	N	1.179459	-0.703318	0.702600
H54	H	1.396317	-0.628123	1.106203
C55	C	1.133999	-0.364890	0.365310
N56	N	1.179450	-0.309125	0.309729
C57	C	1.377192	-1.120966	0.647223
N58	N	1.321504	-1.166448	0.702854
H59	H	1.396315	-0.628126	0.907135
C60	C	1.623831	-0.904858	0.257083
N61	N	1.594184	-0.870279	0.178410
C62	C	1.773058	-0.910434	0.391063
N63	N	1.855818	-0.880056	0.413302
C64	C	1.767665	-1.106368	0.401031
N65	N	1.846316	-1.140923	0.430752
C66	C	1.659432	-0.365141	0.891546
N67	N	1.715123	-0.309465	0.846119
