data_functionalizedCrystal
_audit_creation_method	'MofGen! by Chris Wilmer'
_symmetry_space_group_name_H-M	'P1'
_symmetry_Int_Tables_number	1
_symmetry_cell_setting	triclinic
loop_
_symmetry_equiv_pos_as_xyz
  x,y,z
_cell_length_a	12.759400
_cell_length_b	12.759401
_cell_length_c	12.759393
_cell_angle_alpha	90.020938
_cell_angle_beta	89.969510
_cell_angle_gamma	89.983791
loop_
_atom_site_label
_atom_site_type_symbol
_atom_site_fract_x
_atom_site_fract_y
_atom_site_fract_z
Zn1	Zn	-0.418173	-1.606266	-0.594020
Zn2	Zn	-0.593888	-1.606158	-0.418340
Zn3	Zn	-0.418229	-1.430565	-0.418355
Zn4	Zn	-0.593815	-1.430557	-0.593978
O5	O	-0.506026	-1.518387	-0.506173
O6	O	-0.441489	-1.753273	-0.570727
O7	O	-0.570641	-1.582823	-0.271321
O8	O	-0.271200	-1.453921	-0.441682
O9	O	-0.570587	-1.753193	-0.441656
O10	O	-0.271159	-1.583008	-0.570742
O11	O	-0.441584	-1.453816	-0.271332
O12	O	-0.441513	-1.283543	-0.441640
O13	O	-0.570461	-1.453908	-0.741004
O14	O	-0.570516	-1.283537	-0.570669
O15	O	-0.441418	-1.583000	-0.741036
O16	O	-0.740900	-1.582815	-0.441615
O17	O	-0.740846	-1.453802	-0.570655
C18	C	-0.506013	-1.245419	-0.506152
C19	C	-0.506033	-1.128643	-0.506168
C20	C	-0.778994	-1.518324	-0.506151
C21	C	-0.895770	-1.518394	-0.506177
C22	C	-0.505925	-1.518465	-0.780207
C23	C	-0.505882	-1.518499	-0.896984
C24	C	-0.950625	-1.585645	-0.439060
C25	C	-1.060349	-1.585710	-0.439093
C26	C	-1.060353	-1.451262	-0.573362
C27	C	-0.950631	-1.451204	-0.573334
C28	C	-0.950624	-1.663264	-0.361538
C29	C	-1.060348	-1.663329	-0.361570
C30	C	-0.231993	-1.518478	-0.506218
C31	C	-0.115216	-1.518517	-0.506238
C32	C	-0.506040	-1.792420	-0.506195
C33	C	-0.506046	-1.909197	-0.506204
C34	C	-0.573307	-1.073805	-0.573248
C35	C	-0.573311	-0.964081	-0.573269
C36	C	-0.438764	-0.964042	-0.439122
C37	C	-0.438756	-1.073764	-0.439107
C38	C	-0.438679	-1.585722	-0.951864
C39	C	-0.438633	-1.585740	-1.061588
C40	C	-0.573004	-1.451308	-1.061542
C41	C	-0.573044	-1.451285	-0.951820
C42	C	-0.506051	-1.518369	-0.233206
C43	C	-0.505798	-1.518539	-0.116430
H44	H	-0.905969	-1.396452	-0.627995
C45	C	-1.120704	-1.377354	-0.647223
H46	H	-1.193907	-1.387016	-0.637624
H47	H	-1.102651	-1.392682	-0.717821
H48	H	-1.102794	-1.306758	-0.631773
H49	H	-0.920765	-1.744608	-0.383391
H50	H	-1.090209	-1.641590	-0.280189
H51	H	-0.383991	-0.919346	-0.384521
H52	H	-0.916676	-1.634138	-0.284211
C53	C	-0.364751	-1.134094	-0.365319
H54	H	-0.374375	-1.207300	-0.374926
H55	H	-0.380037	-1.116079	-0.294702
H56	H	-0.294178	-1.116134	-0.380831
H57	H	-1.094291	-1.740633	-0.390784
H58	H	-0.627768	-1.396536	-0.907136
C59	C	-0.647305	-1.134173	-0.647012
H60	H	-0.637676	-1.207375	-0.637389
H61	H	-0.632021	-1.116233	-0.717633
H62	H	-0.717880	-1.116165	-0.631504
H63	H	-0.383989	-1.640449	-0.907219
H64	H	-0.628090	-0.919437	-0.627893
C65	C	-0.364714	-1.659691	-1.121951
H66	H	-0.324730	-1.699720	-1.073575
H67	H	-0.318915	-1.619531	-1.164755
H68	H	-0.404901	-1.705464	-1.164754
C69	C	-0.646885	-1.377389	-1.121866
H70	H	-0.637246	-1.387037	-1.195073
H71	H	-0.631515	-1.306799	-1.103878
H72	H	-0.717486	-1.392745	-1.103871
