data_functionalizedCrystal
_audit_creation_method	'MofGen! by Chris Wilmer'
_symmetry_space_group_name_H-M	'P1'
_symmetry_Int_Tables_number	1
_symmetry_cell_setting	triclinic
loop_
_symmetry_equiv_pos_as_xyz
  x,y,z
_cell_length_a	17.077404
_cell_length_b	17.077402
_cell_length_c	17.077396
_cell_angle_alpha	90.027528
_cell_angle_beta	90.021444
_cell_angle_gamma	90.021740
loop_
_atom_site_label
_atom_site_type_symbol
_atom_site_fract_x
_atom_site_fract_y
_atom_site_fract_z
Zn1	Zn	1.200051	-0.312545	0.443889
Zn2	Zn	1.199957	-0.443820	0.312625
Zn3	Zn	1.068783	-0.312568	0.312632
Zn4	Zn	1.068750	-0.443769	0.443844
O5	O	1.134385	-0.378175	0.378247
O6	O	1.309886	-0.329970	0.426492
O7	O	1.182531	-0.426440	0.202779
O8	O	1.086250	-0.202718	0.330065
O9	O	1.309816	-0.426418	0.330053
O10	O	1.182692	-0.202701	0.426499
O11	O	1.086158	-0.330010	0.202784
O12	O	0.958932	-0.329960	0.330022
O13	O	1.086193	-0.426330	0.553697
O14	O	0.958907	-0.426353	0.426423
O15	O	1.182659	-0.329921	0.553730
O16	O	1.182499	-0.553660	0.330009
O17	O	1.086101	-0.553622	0.426416
C18	C	0.930437	-0.378154	0.378219
C19	C	0.843188	-0.378164	0.378225
C20	C	1.134307	-0.582123	0.378224
C21	C	1.134346	-0.669373	0.378240
C22	C	0.467406	-0.328067	0.428572
C23	C	0.549387	-0.328061	0.428563
C24	C	0.590339	-0.378192	0.378267
C25	C	0.549306	-0.428337	0.327982
C26	C	0.467327	-0.428346	0.327995
C27	C	0.720176	-0.428313	0.327957
C28	C	0.802161	-0.428303	0.327942
C29	C	0.802236	-0.328029	0.428525
C30	C	0.720257	-0.328038	0.428538
C31	C	0.679230	-0.378182	0.378252
C32	C	1.184536	-0.710287	0.428494
C33	C	1.184569	-0.792267	0.428510
C34	C	1.134415	-0.833332	0.378269
C35	C	1.084220	-0.792413	0.328014
C36	C	1.084183	-0.710434	0.328001
C37	C	1.084300	-0.963283	0.328041
C38	C	1.084337	-1.045267	0.328052
C39	C	1.184686	-1.045116	0.428550
C40	C	1.184649	-0.963137	0.428538
C41	C	1.134455	-0.922223	0.378281
C42	C	1.339130	-0.378197	0.378276
C43	C	1.426379	-0.378206	0.378289
C44	C	1.134433	-0.378117	0.582992
C45	C	1.134453	-0.378093	0.670242
C46	C	1.134485	-0.173431	0.378288
C47	C	1.134527	-0.086181	0.378305
C48	C	1.134383	-0.378176	0.174300
C49	C	1.134515	-0.377980	0.087050
C50	C	1.184685	-0.327888	0.711250
C51	C	1.184695	-0.327862	0.793231
C52	C	1.134475	-0.378045	0.834201
C53	C	1.084238	-0.428252	0.793187
C54	C	1.084225	-0.428273	0.711208
C55	C	1.084269	-0.428205	0.964057
C56	C	1.084283	-0.428184	1.046042
C57	C	1.184739	-0.327793	1.046080
C58	C	1.184726	-0.327815	0.964101
C59	C	1.134489	-0.378023	0.923092
H60	H	0.434069	-0.287240	0.469524
H61	H	0.433924	-0.469176	0.287051
H62	H	1.225380	-0.676857	0.469402
H63	H	1.043495	-1.078700	0.287144
F64	F	1.030828	-0.481588	1.089644
H65	H	0.582787	-0.287236	0.469511
H66	H	0.835501	-0.469126	0.286989
F67	F	1.238109	-1.088660	0.482036
H68	H	1.225582	-0.287026	0.677898
F69	F	1.030835	-0.836119	0.274550
F70	F	1.238185	-0.274454	0.836871
H71	H	1.043423	-0.929973	0.287119
H72	H	1.043312	-0.677123	0.287081
H73	H	1.225445	-0.825576	0.469426
F74	F	0.592892	-0.481693	0.274456
H75	H	1.043346	-0.469109	0.826551
H76	H	1.225623	-0.286956	0.930745
H77	H	1.043313	-0.469147	0.677820
F78	F	1.238033	-0.919434	0.482006
F79	F	0.676514	-0.481691	0.274444
H80	H	1.225642	-0.286911	1.079473
F81	F	0.676674	-0.274680	0.482065
H82	H	1.043349	-0.469077	0.930670
H83	H	0.835644	-0.287198	0.469469
