data_functionalizedCrystal
_audit_creation_method	'MofGen! by Chris Wilmer'
_symmetry_space_group_name_H-M	'P1'
_symmetry_Int_Tables_number	1
_symmetry_cell_setting	triclinic
loop_
_symmetry_equiv_pos_as_xyz
  x,y,z
_cell_length_a	17.077404
_cell_length_b	17.077402
_cell_length_c	17.077396
_cell_angle_alpha	90.029131
_cell_angle_beta	90.017336
_cell_angle_gamma	90.018878
loop_
_atom_site_label
_atom_site_type_symbol
_atom_site_fract_x
_atom_site_fract_y
_atom_site_fract_z
Zn1	Zn	1.200032	-0.312592	0.443854
Zn2	Zn	1.199944	-0.443871	0.312590
Zn3	Zn	1.068770	-0.312612	0.312601
Zn4	Zn	1.068731	-0.443810	0.443813
O5	O	1.134369	-0.378221	0.378214
O6	O	1.309868	-0.330024	0.426454
O7	O	1.182522	-0.426493	0.202744
O8	O	1.086236	-0.202763	0.330034
O9	O	1.309802	-0.426474	0.330015
O10	O	1.182674	-0.202748	0.426464
O11	O	1.086149	-0.330058	0.202753
O12	O	0.958918	-0.329999	0.329994
O13	O	1.086169	-0.426369	0.553665
O14	O	0.958889	-0.426389	0.426395
O15	O	1.182636	-0.329965	0.553695
O16	O	1.182485	-0.553710	0.329975
O17	O	1.086083	-0.553665	0.426384
C18	C	0.930421	-0.378190	0.378192
C19	C	0.843172	-0.378195	0.378201
C20	C	0.467363	-0.428524	0.428354
C21	C	0.549343	-0.428514	0.428342
C22	C	0.590323	-0.378242	0.378227
C23	C	0.549317	-0.327983	0.328115
C24	C	0.467338	-0.327998	0.328123
C25	C	0.720187	-0.327955	0.328102
C26	C	0.802172	-0.327939	0.328094
C27	C	0.802192	-0.428470	0.428320
C28	C	0.720213	-0.428485	0.428329
C29	C	0.679214	-0.378225	0.378218
C30	C	1.134291	-0.582169	0.378191
C31	C	1.134330	-0.669419	0.378207
C32	C	1.184518	-0.710334	0.428459
C33	C	1.184551	-0.792314	0.428476
C34	C	1.134399	-0.833378	0.378236
C35	C	1.084206	-0.792458	0.327982
C36	C	1.084169	-0.710479	0.327970
C37	C	1.084286	-0.963328	0.328009
C38	C	1.084323	-1.045312	0.328020
C39	C	1.184668	-1.045163	0.428515
C40	C	1.184631	-0.963184	0.428503
C41	C	1.134439	-0.922269	0.378248
C42	C	1.339113	-0.378253	0.378237
C43	C	1.426363	-0.378267	0.378247
C44	C	1.134408	-0.378158	0.582959
C45	C	1.134424	-0.378131	0.670209
C46	C	1.134469	-0.173477	0.378255
C47	C	1.134511	-0.086227	0.378272
C48	C	1.134376	-0.378228	0.174266
C49	C	1.134511	-0.378034	0.087017
C50	C	1.184677	-0.428253	1.046021
C51	C	1.184657	-0.428276	0.964041
C52	C	1.134475	-0.378075	0.923058
C53	C	1.084304	-0.327854	0.964059
C54	C	1.084320	-0.327836	1.046038
C55	C	1.084274	-0.327895	0.793189
C56	C	1.084259	-0.327912	0.711204
C57	C	1.184611	-0.428335	0.711192
C58	C	1.184628	-0.428316	0.793171
C59	C	1.134457	-0.378094	0.834167
H60	H	0.686808	-0.287026	0.287298
O61	O	0.593508	-0.273761	0.274056
H62	H	0.630872	-0.233855	0.309256
O63	O	0.423171	-0.482746	0.482412
H64	H	0.359277	-0.474309	0.474008
H65	H	1.225545	-0.469128	1.079384
H66	H	1.225425	-0.825624	0.469390
H67	H	0.433958	-0.287072	0.287324
H68	H	0.686850	-0.469417	0.469141
O69	O	0.593567	-0.482712	0.482391
H70	H	0.551299	-0.517662	0.517250
H71	H	1.225536	-1.078480	0.469436
H72	H	1.225462	-0.469228	0.677809
H73	H	0.835578	-0.469392	0.469125
O74	O	0.846376	-0.273724	0.274039
H75	H	0.804096	-0.238786	0.239186
O76	O	1.238617	-0.666044	0.482640
H77	H	1.273518	-0.708271	0.517588
O78	O	1.238739	-0.918889	0.482671
H79	H	1.273648	-0.961110	0.517618
O80	O	1.030225	-1.089608	0.273844
H81	H	0.995306	-1.047387	0.238906
O82	O	1.030171	-0.273710	0.837399
H83	H	1.065347	-0.233778	0.874758
O84	O	1.030157	-0.919193	0.273801
H85	H	0.995297	-0.961518	0.238860
H86	H	1.043368	-0.825899	0.287079
H87	H	1.043300	-0.677167	0.287051
H88	H	1.225498	-0.469179	0.930666
H89	H	1.225495	-0.469190	0.826537
O90	O	1.030124	-0.273781	0.666996
H91	H	0.995228	-0.238866	0.709274
O92	O	1.030183	-0.273702	0.919858
H93	H	0.990223	-0.308831	0.882486
H94	H	1.043471	-0.286941	1.079416
