data_functionalizedCrystal
_audit_creation_method	'MofGen! by Chris Wilmer'
_symmetry_space_group_name_H-M	'P1'
_symmetry_Int_Tables_number	1
_symmetry_cell_setting	triclinic
loop_
_symmetry_equiv_pos_as_xyz
  x,y,z
_cell_length_a	12.759401
_cell_length_b	21.395361
_cell_length_c	21.395364
_cell_angle_alpha	90.006881
_cell_angle_beta	90.015198
_cell_angle_gamma	90.032233
loop_
_atom_site_label
_atom_site_type_symbol
_atom_site_fract_x
_atom_site_fract_y
_atom_site_fract_z
Zn1	Zn	1.606090	-0.249576	0.354218
Zn2	Zn	2.106090	0.250424	0.854218
Zn3	Zn	1.605949	-0.354309	0.249435
Zn4	Zn	2.105949	0.145691	0.749435
Zn5	Zn	1.430406	-0.249552	0.249458
Zn6	Zn	1.930406	0.250448	0.749458
Zn7	Zn	1.430331	-0.354323	0.354178
Zn8	Zn	1.930331	0.145677	0.854178
O9	O	1.518194	-0.301940	0.301822
O10	O	2.018194	0.198060	0.801822
O11	O	1.753092	-0.263474	0.340325
O12	O	2.253092	0.236526	0.840325
O13	O	1.582636	-0.340397	0.161760
O14	O	2.082636	0.159603	0.661760
O15	O	1.453801	-0.161878	0.263381
O16	O	1.953801	0.338122	0.763381
O17	O	1.752989	-0.340420	0.263342
O18	O	2.252989	0.159580	0.763342
O19	O	1.582875	-0.161895	0.340347
O20	O	2.082875	0.338105	0.840347
O21	O	1.453665	-0.263433	0.161777
O22	O	1.953665	0.236567	0.661777
O23	O	1.283375	-0.263446	0.263342
O24	O	1.783375	0.236554	0.763342
O25	O	1.453674	-0.340443	0.441862
O26	O	1.953674	0.159557	0.941862
O27	O	1.283320	-0.340420	0.340280
O28	O	1.783320	0.159580	0.840280
O29	O	1.582803	-0.263487	0.441891
O30	O	2.082803	0.236513	0.941891
O31	O	1.582563	-0.441989	0.263303
O32	O	2.082563	0.058011	0.763303
O33	O	1.453537	-0.441999	0.340258
O34	O	1.953537	0.058001	0.840258
C35	C	1.245227	-0.301932	0.301810
C36	C	1.745227	0.198068	0.801810
C37	C	1.128450	-0.301944	0.301819
C38	C	1.628450	0.198056	0.801819
C39	C	1.073587	-0.342086	0.341818
C40	C	1.573587	0.157914	0.841818
C41	C	0.963863	-0.342088	0.341830
C42	C	1.463863	0.157912	0.841830
C43	C	0.963875	-0.261806	0.261841
C44	C	1.463875	0.238194	0.761841
C45	C	1.073597	-0.261801	0.261832
C46	C	1.573597	0.238199	0.761832
C47	C	1.518056	-0.464728	0.301787
C48	C	2.018056	0.035272	0.801787
C49	C	1.518092	-0.534369	0.301794
C50	C	2.018092	-0.034369	0.801794
C51	C	1.585336	-0.567056	0.261764
C52	C	2.085336	-0.067056	0.761764
C53	C	1.585384	-0.632492	0.261778
C54	C	2.085384	-0.132492	0.761778
C55	C	1.518171	-0.665237	0.301815
C56	C	2.018171	-0.165237	0.801815
C57	C	1.450923	-0.632542	0.341852
C58	C	1.950923	-0.132542	0.841852
C59	C	1.450884	-0.567108	0.341841
C60	C	1.950884	-0.067108	0.841841
C61	C	1.423572	-0.768955	0.306727
C62	C	1.923572	-0.268955	0.806727
C63	C	1.423610	-0.834388	0.306733
C64	C	1.923610	-0.334388	0.806733
C65	C	1.518294	-0.867058	0.301852
C66	C	2.018294	-0.367058	0.801852
C67	C	1.612942	-0.834287	0.296951
C68	C	2.112942	-0.334287	0.796951
C69	C	1.612903	-0.768853	0.296940
C70	C	2.112903	-0.268853	0.796940
C71	C	1.518207	-0.736190	0.301831
C72	C	2.018207	-0.236190	0.801831
C73	C	1.585596	-0.970698	0.261836
C74	C	2.085596	-0.470698	0.761836
C75	C	1.585646	-1.036134	0.261854
C76	C	2.085646	-0.536134	0.761854
C77	C	1.451176	-1.036184	0.341924
C78	C	1.951176	-0.536184	0.841924
C79	C	1.451134	-0.970748	0.341909
C80	C	1.951134	-0.470748	0.841909
C81	C	1.518343	-0.938009	0.301861
C82	C	2.018343	-0.438009	0.801861
C83	C	1.792227	-0.301948	0.301835
C84	C	2.292227	0.198052	0.801835
C85	C	1.909004	-0.301952	0.301841
C86	C	2.409004	0.198048	0.801841
C87	C	1.518245	-0.301969	0.465246
C88	C	2.018245	0.198031	0.965246
C89	C	1.518267	-0.301981	0.534887
C90	C	2.018267	0.198019	1.034887
C91	C	1.518362	-0.138517	0.301871
C92	C	2.018362	0.361483	0.801871
C93	C	1.518434	-0.068875	0.301892
C94	C	2.018434	0.431125	0.801892
C95	C	1.585494	-0.261917	0.567616
C96	C	2.085494	0.238083	1.067616
C97	C	1.585479	-0.261907	0.633051
C98	C	2.085479	0.238093	1.133051
C99	C	1.518246	-0.301972	0.665755
C100	C	2.018246	0.198028	1.165755
C101	C	1.451006	-0.342040	0.633018
C102	C	1.951006	0.157960	1.133018
C103	C	1.451016	-0.342044	0.567584
C104	C	1.951016	0.157956	1.067584
C105	C	1.509880	-0.358414	0.769418
C106	C	2.009880	0.141586	1.269418
C107	C	1.509877	-0.358411	0.834851
C108	C	2.009877	0.141589	1.334851
C109	C	1.518208	-0.301958	0.867576
C110	C	2.018208	0.198042	1.367576
C111	C	1.526565	-0.245506	0.834860
C112	C	2.026565	0.254494	1.334860
C113	C	1.526575	-0.245511	0.769426
C114	C	2.026575	0.254489	1.269426
C115	C	1.518227	-0.301971	0.736708
C116	C	2.018227	0.198029	1.236708
C117	C	1.585422	-0.261878	0.971258
C118	C	2.085422	0.238122	1.471258
C119	C	1.585399	-0.261867	1.036694
C120	C	2.085399	0.238133	1.536694
C121	C	1.450932	-0.342006	1.036660
C122	C	1.950932	0.157994	1.536660
C123	C	1.450949	-0.342012	0.971224
C124	C	1.950949	0.157988	1.471224
C125	C	1.518200	-0.301949	0.938527
C126	C	2.018200	0.198051	1.438527
C127	C	1.518148	-0.301930	1.139035
C128	C	2.018148	0.198070	1.639035
C129	C	1.518165	-0.301932	1.069393
C130	C	2.018165	0.198068	1.569393
H131	H	1.640063	-0.540402	0.229157
H132	H	2.140063	-0.040402	0.729157
N133	N	1.657970	-0.218679	0.935988
N134	N	2.157970	0.281321	1.435988
H135	H	1.647791	-0.224771	0.889569
H136	H	2.147791	0.275229	1.389569
H137	H	1.732980	-0.228450	0.947454
H138	H	2.232980	0.271550	1.447454
N139	N	1.657915	-0.667758	0.218603
N140	N	2.157915	-0.167758	0.718603
H141	H	1.700485	-0.637089	0.193233
H142	H	2.200485	-0.137089	0.693233
H143	H	1.615187	-0.694938	0.189593
H144	H	2.115187	-0.194938	0.689593
H145	H	1.640142	-0.229238	1.063341
H146	H	2.140142	0.270762	1.563341
N147	N	1.715073	-0.869515	0.291686
N148	N	2.215073	-0.369515	0.791686
H149	H	1.775022	-0.838826	0.288579
H150	H	2.275022	-0.338826	0.788579
H151	H	1.713615	-0.896676	0.253085
H152	H	2.213615	-0.396676	0.753085
H153	H	1.346463	-0.742362	0.310704
H154	H	1.846463	-0.242362	0.810704
N155	N	1.132745	-0.385379	0.384951
N156	N	1.632745	0.114621	0.884951
H157	H	1.178312	-0.359966	0.414029
H158	H	1.678312	0.140034	0.914029
H159	H	1.178165	-0.414361	0.359386
H160	H	1.678165	0.085639	0.859386
H161	H	0.919198	-0.374774	0.374402
H162	H	1.419198	0.125226	0.874402
H163	H	1.396212	-0.374640	0.944576
H164	H	1.896212	0.125360	1.444576
N165	N	1.714978	-0.733505	0.291657
N166	N	2.214978	-0.233505	0.791657
H167	H	1.774971	-0.764126	0.288566
H168	H	2.274971	-0.264126	0.788566
H169	H	1.724672	-0.706341	0.329834
H170	H	2.224672	-0.206341	0.829834
N171	N	1.658084	-0.935376	0.218651
N172	N	2.158084	-0.435376	0.718651
H173	H	1.641825	-0.946787	0.173877
H174	H	2.141825	-0.446787	0.673877
H175	H	1.733120	-0.946728	0.228478
H176	H	2.233120	-0.446728	0.728478
N177	N	1.500904	-0.419308	0.734127
N178	N	2.000904	0.080692	1.234127
H179	H	1.502176	-0.410747	0.687711
H180	H	2.002176	0.089253	1.187711
H181	H	1.432891	-0.440600	0.745548
H182	H	1.932891	0.059400	1.245548
H183	H	1.533377	-0.199547	0.742791
H184	H	2.033377	0.300453	1.242791
N185	N	0.904712	-0.218526	0.218696
N186	N	1.404712	0.281474	0.718696
H187	H	0.826878	-0.224626	0.224764
H188	H	1.326878	0.275374	0.724764
H189	H	0.923869	-0.228215	0.173935
H190	H	1.423869	0.271785	0.673935
N191	N	1.378592	-0.935486	0.385074
N192	N	1.878592	-0.435486	0.885074
H193	H	1.421238	-0.908305	0.414128
H194	H	1.921238	-0.408305	0.914128
H195	H	1.336031	-0.966197	0.410397
H196	H	1.836031	-0.466197	0.910397
H197	H	1.118268	-0.229109	0.229260
H198	H	1.618268	0.270891	0.729260
H199	H	1.503079	-0.404377	0.861483
H200	H	2.003079	0.095623	1.361483
N201	N	1.658182	-1.071393	0.218681
N202	N	2.158182	-0.571393	0.718681
H203	H	1.700747	-1.040722	0.193310
H204	H	2.200747	-0.540722	0.693310
H205	H	1.615460	-1.098577	0.189671
H206	H	2.115460	-0.598577	0.689671
H207	H	1.396200	-0.659208	0.374451
H208	H	1.896200	-0.159208	0.874451
N209	N	1.378688	-1.071492	0.385113
N210	N	1.878688	-0.571492	0.885113
H211	H	1.388917	-1.117905	0.379048
H212	H	1.888917	-0.617905	0.879048
H213	H	1.303655	-1.060101	0.375321
H214	H	1.803655	-0.560101	0.875321
N215	N	1.658001	-0.218694	0.668358
N216	N	2.158001	0.281306	1.168358
H217	H	1.706650	-0.244163	0.695514
H218	H	2.206650	0.255837	1.195514
H219	H	1.615263	-0.189661	0.695464
H220	H	2.115263	0.310339	1.195464
N221	N	1.378353	-0.531848	0.385016
N222	N	1.878353	-0.031848	0.885016
H223	H	1.335780	-0.562518	0.410384
H224	H	1.835780	-0.062518	0.910384
H225	H	1.329742	-0.504735	0.359479
H226	H	1.829742	-0.004735	0.859479
N227	N	1.321530	-0.869732	0.312009
N228	N	1.821530	-0.369732	0.812009
H229	H	1.261543	-0.839108	0.315106
H230	H	1.761543	-0.339108	0.815106
H231	H	1.323017	-0.896872	0.350617
H232	H	1.823017	-0.396872	0.850617
N233	N	1.658024	-0.218707	0.532350
N234	N	2.158024	0.281293	1.032350
H235	H	1.700609	-0.193324	0.563017
H236	H	2.200609	0.306676	1.063017
H237	H	1.615294	-0.189710	0.505194
H238	H	2.115294	0.310290	1.005194
H239	H	1.396262	-0.374660	0.659650
H240	H	1.896262	0.125340	1.159650
H241	H	1.533351	-0.199537	0.861503
H242	H	2.033351	0.300463	1.361503
N243	N	1.378406	-0.385216	1.071923
N244	N	1.878406	0.114784	1.571923
H245	H	1.388597	-0.379133	1.118342
H246	H	1.888597	0.120867	1.618342
H247	H	1.394711	-0.429965	1.060489
H248	H	1.894711	0.070035	1.560489
N249	N	1.378489	-0.385250	0.532278
N250	N	1.878489	0.114750	1.032278
H251	H	1.335886	-0.410627	0.562922
H252	H	1.835886	0.089373	1.062922
H253	H	1.421217	-0.414253	0.505134
H254	H	1.921217	0.085747	1.005134
