data_functionalizedCrystal
_audit_creation_method	'MofGen! by Chris Wilmer'
_symmetry_space_group_name_H-M	'P1'
_symmetry_Int_Tables_number	1
_symmetry_cell_setting	triclinic
loop_
_symmetry_equiv_pos_as_xyz
  x,y,z
_cell_length_a	17.077404
_cell_length_b	17.077402
_cell_length_c	17.077396
_cell_angle_alpha	90.027528
_cell_angle_beta	90.018362
_cell_angle_gamma	90.021463
loop_
_atom_site_label
_atom_site_type_symbol
_atom_site_fract_x
_atom_site_fract_y
_atom_site_fract_z
Zn1	Zn	1.200051	-0.312551	0.443824
Zn2	Zn	1.199957	-0.443826	0.312560
Zn3	Zn	1.068783	-0.312573	0.312575
Zn4	Zn	1.068750	-0.443774	0.443786
O5	O	1.134385	-0.378181	0.378186
O6	O	1.309886	-0.329977	0.426421
O7	O	1.182531	-0.426446	0.202715
O8	O	1.086250	-0.202723	0.330007
O9	O	1.309816	-0.426424	0.329982
O10	O	1.182692	-0.202707	0.426435
O11	O	1.086158	-0.330015	0.202726
O12	O	0.958932	-0.329965	0.329970
O13	O	1.086193	-0.426336	0.553638
O14	O	0.958907	-0.426357	0.426371
O15	O	1.182659	-0.329927	0.553666
O16	O	1.182499	-0.553666	0.329946
O17	O	1.086101	-0.553628	0.426357
C18	C	0.930437	-0.378158	0.378169
C19	C	0.843188	-0.378168	0.378180
C20	C	0.802234	-0.328037	0.428472
C21	C	0.720254	-0.328042	0.428476
C22	C	0.679228	-0.378183	0.378190
C23	C	0.720187	-0.428315	0.327892
C24	C	0.802166	-0.428306	0.327885
C25	C	0.549317	-0.428333	0.327912
C26	C	0.467333	-0.428344	0.327920
C27	C	0.467405	-0.328070	0.428502
C28	C	0.549384	-0.328060	0.428495
C29	C	0.590337	-0.378194	0.378198
C30	C	1.134307	-0.582129	0.378163
C31	C	1.134346	-0.669378	0.378179
C32	C	1.184536	-0.710292	0.428430
C33	C	1.184569	-0.792273	0.428447
C34	C	1.134415	-0.833338	0.378208
C35	C	1.084220	-0.792418	0.327955
C36	C	1.084183	-0.710439	0.327943
C37	C	1.084300	-0.963288	0.327983
C38	C	1.084337	-1.045273	0.327994
C39	C	1.184686	-1.045122	0.428486
C40	C	1.184649	-0.963143	0.428474
C41	C	1.134455	-0.922229	0.378220
C42	C	1.339130	-0.378204	0.378204
C43	C	1.426379	-0.378213	0.378212
C44	C	1.134433	-0.378123	0.582931
C45	C	1.134453	-0.378098	0.670181
C46	C	1.134485	-0.173436	0.378227
C47	C	1.134527	-0.086187	0.378244
C48	C	1.134383	-0.378182	0.174238
C49	C	1.134515	-0.377985	0.086989
C50	C	1.184685	-0.327894	0.711186
C51	C	1.184694	-0.327868	0.793167
C52	C	1.134475	-0.378051	0.834140
C53	C	1.084238	-0.428257	0.793128
C54	C	1.084225	-0.428279	0.711149
C55	C	1.084269	-0.428210	0.963999
C56	C	1.084283	-0.428190	1.045983
C57	C	1.184739	-0.327799	1.046016
C58	C	1.184726	-0.327821	0.964037
C59	C	1.134489	-0.378028	0.923031
H60	H	0.686778	-0.469137	0.286945
H61	H	0.835509	-0.469127	0.286932
H62	H	0.835631	-0.287209	0.469423
C63	C	1.239786	-0.837283	0.483713
C64	C	1.205772	-0.893633	0.545323
C65	C	1.260992	-0.938646	0.600588
C66	C	1.350227	-0.927308	0.594244
C67	C	1.384245	-0.870956	0.532631
C68	C	1.329025	-0.825944	0.477366
H69	H	1.139711	-0.902028	0.550022
H70	H	1.235809	-0.980361	0.646198
H71	H	1.391104	-0.960629	0.635155
H72	H	1.450306	-0.862561	0.527932
H73	H	1.354208	-0.784228	0.431756
H74	H	1.225600	-0.286988	0.826550
C75	C	1.028973	-0.483512	0.666043
C76	C	1.062951	-0.545159	0.609678
C77	C	1.007696	-0.600393	0.564574
C78	C	0.918464	-0.593980	0.575835
C79	C	0.884482	-0.532331	0.632202
C80	C	0.939737	-0.477096	0.677307
H81	H	1.129010	-0.549908	0.601339
H82	H	1.032852	-0.646030	0.522846
H83	H	0.877561	-0.634868	0.542446
H84	H	0.818423	-0.527581	0.640541
H85	H	0.914581	-0.431459	0.719034
H86	H	1.225380	-0.676863	0.469336
H87	H	0.582659	-0.469156	0.286953
H88	H	1.043345	-0.469114	0.826495
H89	H	0.686913	-0.287222	0.469431
C90	C	1.239968	-0.272620	0.918966
C91	C	1.233608	-0.183379	0.930252
C92	C	1.288850	-0.128176	0.885182
C93	C	1.350452	-0.162214	0.828826
C94	C	1.356814	-0.251460	0.817538
C95	C	1.301573	-0.306663	0.862608
H96	H	1.188005	-0.158178	0.971972
H97	H	1.284140	-0.062111	0.893538
H98	H	1.391345	-0.121350	0.795463
H99	H	1.402418	-0.276661	0.775818
H100	H	1.306283	-0.372729	0.854251
H101	H	0.582785	-0.287236	0.469447
C102	C	1.239999	-0.272567	1.091118
C103	C	1.240015	-0.272535	1.181292
C104	C	1.295276	-0.217310	1.226398
C105	C	1.350523	-0.162116	1.181331
C106	C	1.350509	-0.162146	1.091152
C107	C	1.295247	-0.217371	1.046046
H108	H	1.199116	-0.313395	1.214658
H109	H	1.295286	-0.217288	1.293155
H110	H	1.391431	-0.121235	1.214721
H111	H	1.391408	-0.121286	1.057786
H112	H	1.295238	-0.217393	0.979289
C113	C	1.029050	-0.837589	0.272692
C114	C	1.063129	-0.893955	0.211101
C115	C	1.007961	-0.939124	0.155834
C116	C	0.918714	-0.927928	0.162158
C117	C	0.884631	-0.871560	0.223751
C118	C	0.939799	-0.826390	0.279018
H119	H	1.129198	-0.902245	0.206418
H120	H	1.033192	-0.980852	0.110239
H121	H	0.877876	-0.961365	0.121246
H122	H	0.818562	-0.863269	0.228434
H123	H	0.914569	-0.784662	0.324613
H124	H	0.434057	-0.287247	0.469455
H125	H	0.433932	-0.469173	0.286973
H126	H	1.043349	-0.469082	0.930614
C127	C	1.239903	-1.090120	0.483768
C128	C	1.301574	-1.146449	0.449813
C129	C	1.356795	-1.191450	0.505088
C130	C	1.350345	-1.180121	0.594318
C131	C	1.288672	-1.123789	0.628277
C132	C	1.233451	-1.078788	0.573002
H133	H	1.306351	-1.154838	0.383756
H134	H	1.402450	-1.233150	0.479949
H135	H	1.391223	-1.213433	0.635236
H136	H	1.283896	-1.115400	0.694334
H137	H	1.187797	-1.037088	0.598141
C138	C	1.029172	-1.090452	0.272733
C139	C	1.035619	-1.079234	0.183500
C140	C	0.980457	-1.124416	0.128237
C141	C	0.918847	-1.180815	0.162208
C142	C	0.912397	-1.192035	0.251447
C143	C	0.967559	-1.146853	0.306709
H144	H	1.081229	-1.037482	0.158348
H145	H	0.985232	-1.116111	0.062177
H146	H	0.878012	-1.214262	0.121300
H147	H	0.866787	-1.233787	0.276598
H148	H	0.962784	-1.155159	0.372769
H149	H	1.225492	-0.929708	0.469378
H150	H	1.043312	-0.677128	0.287025
C151	C	1.029070	-0.483417	1.091056
C152	C	0.973827	-0.538660	1.045955
C153	C	0.918629	-0.593904	1.091028
C154	C	0.918672	-0.593904	1.181202
C155	C	0.973917	-0.538659	1.226308
C156	C	1.029115	-0.483416	1.181235
H157	H	0.973793	-0.538662	0.979199
H158	H	0.877733	-0.634800	1.057638
H159	H	0.877811	-0.634799	1.214568
H160	H	0.973951	-0.538658	1.293064
H161	H	1.070011	-0.442520	1.214626
H162	H	1.225582	-0.287032	0.677832
H163	H	1.043423	-0.929978	0.287063
