data_functionalizedCrystal
_audit_creation_method	'MofGen! by Chris Wilmer'
_symmetry_space_group_name_H-M	'P1'
_symmetry_Int_Tables_number	1
_symmetry_cell_setting	triclinic
loop_
_symmetry_equiv_pos_as_xyz
  x,y,z
_cell_length_a	17.077404
_cell_length_b	12.759400
_cell_length_c	17.077396
_cell_angle_alpha	90.025586
_cell_angle_beta	90.019501
_cell_angle_gamma	90.014910
loop_
_atom_site_label
_atom_site_type_symbol
_atom_site_fract_x
_atom_site_fract_y
_atom_site_fract_z
Zn1	Zn	1.200099	-0.418260	0.443859
Zn2	Zn	1.700099	0.081740	0.943859
Zn3	Zn	1.200025	-0.593961	0.312599
Zn4	Zn	1.700025	-0.093961	0.812599
Zn5	Zn	1.068831	-0.418297	0.312606
Zn6	Zn	1.568831	0.081703	0.812606
Zn7	Zn	1.068818	-0.593898	0.443823
Zn8	Zn	1.568818	-0.093898	0.943823
O9	O	1.134443	-0.506104	0.378222
O10	O	1.634443	-0.006104	0.878222
O11	O	1.309936	-0.441578	0.426459
O12	O	1.809936	0.058422	0.926459
O13	O	1.182597	-0.570700	0.202753
O14	O	1.682597	-0.070700	0.702753
O15	O	1.086281	-0.271271	0.330035
O16	O	1.586281	0.228729	0.830035
O17	O	1.309882	-0.570664	0.330023
O18	O	1.809882	-0.070664	0.830023
O19	O	1.182723	-0.271244	0.426466
O20	O	1.682723	0.228756	0.926466
O21	O	1.086209	-0.441641	0.202759
O22	O	1.586209	0.058359	0.702759
O23	O	0.958983	-0.441580	0.330001
O24	O	1.458983	0.058420	0.830001
O25	O	1.086258	-0.570558	0.553674
O26	O	1.586258	-0.070558	1.053674
O27	O	0.958973	-0.570594	0.426405
O28	O	1.458973	-0.070594	0.926405
O29	O	1.182710	-0.441517	0.553701
O30	O	1.682710	0.058483	1.053701
O31	O	1.182584	-0.740973	0.329988
O32	O	1.682584	-0.240973	0.829988
O33	O	1.086186	-0.740927	0.426398
O34	O	1.586186	-0.240927	0.926398
C35	C	0.930496	-0.506085	0.378200
C36	C	1.430496	-0.006085	0.878200
C37	C	0.843246	-0.506102	0.378209
C38	C	1.343246	-0.006102	0.878209
C39	C	1.134397	-0.779071	0.378205
C40	C	1.634397	-0.279071	0.878205
C41	C	1.134449	-0.895848	0.378225
C42	C	1.634449	-0.395848	0.878225
C43	C	0.802271	-0.573381	0.428326
C44	C	1.302271	-0.073381	0.928326
C45	C	0.720291	-0.573383	0.428339
C46	C	1.220291	-0.073383	0.928339
C47	C	0.679286	-0.506111	0.378230
C48	C	1.179286	-0.006111	0.878230
C49	C	0.720267	-0.438825	0.328111
C50	C	1.220267	0.061175	0.828111
C51	C	0.802246	-0.438818	0.328103
C52	C	1.302246	0.061182	0.828103
C53	C	0.549397	-0.438846	0.328130
C54	C	1.049397	0.061154	0.828130
C55	C	0.467412	-0.438854	0.328136
C56	C	0.967412	0.061146	0.828136
C57	C	0.467442	-0.573410	0.428366
C58	C	0.967442	-0.073410	0.928366
C59	C	0.549421	-0.573404	0.428358
C60	C	1.049421	-0.073404	0.928358
C61	C	0.590395	-0.506119	0.378237
C62	C	1.090395	-0.006119	0.878237
C63	C	1.184699	-0.950699	0.328080
C64	C	1.684699	-0.450699	0.828080
C65	C	1.184747	-1.060423	0.328104
C66	C	1.684747	-0.560423	0.828104
C67	C	1.084289	-1.060435	0.428420
C68	C	1.584289	-0.560435	0.928420
C69	C	1.084245	-0.950713	0.428399
C70	C	1.584245	-0.450713	0.928399
C71	C	1.242695	-0.950693	0.270160
C72	C	1.742695	-0.450693	0.770160
C73	C	1.242743	-1.060417	0.270185
C74	C	1.742743	-0.560417	0.770185
C75	C	1.339188	-0.506124	0.378244
C76	C	1.839188	-0.006124	0.878244
C77	C	1.426437	-0.506132	0.378253
C78	C	1.926437	-0.006132	0.878253
C79	C	1.134491	-0.506026	0.582966
C80	C	1.634491	-0.006026	1.082966
C81	C	1.134511	-0.505993	0.670216
C82	C	1.634511	-0.005993	1.170216
C83	C	1.134512	-0.232071	0.378255
C84	C	1.634512	0.267929	0.878255
C85	C	1.134541	-0.115294	0.378270
C86	C	1.634541	0.384706	0.878270
C87	C	1.134441	-0.506105	0.174274
C88	C	1.634441	-0.006105	0.674274
C89	C	1.134573	-0.505842	0.087025
C90	C	1.634573	-0.005842	0.587025
C91	C	1.184735	-0.438796	0.711221
C92	C	1.684735	0.061204	1.211221
C93	C	1.184745	-0.438761	0.793202
C94	C	1.684745	0.061239	1.293202
C95	C	1.134533	-0.505930	0.834175
C96	C	1.634533	-0.005930	1.334175
C97	C	1.084304	-0.573130	0.793165
C98	C	1.584304	-0.073130	1.293165
C99	C	1.084291	-0.573159	0.711186
C100	C	1.584291	-0.073159	1.211186
C101	C	1.084335	-0.573066	0.964035
C102	C	1.584335	-0.073066	1.464035
C103	C	1.084349	-0.573039	1.046019
C104	C	1.584349	-0.073039	1.546019
C105	C	1.184789	-0.438669	1.046051
C106	C	1.684789	0.061331	1.546051
C107	C	1.184777	-0.438698	0.964072
C108	C	1.684777	0.061302	1.464072
C109	C	1.134547	-0.505900	0.923066
C110	C	1.634547	-0.005900	1.423066
H111	H	0.686933	-0.628169	0.469149
H112	H	1.186933	-0.128169	0.969149
H113	H	1.303470	-0.920837	0.286490
H114	H	1.803470	-0.420837	0.786490
H115	H	0.434029	-0.384062	0.287342
H116	H	0.934029	0.115938	0.787342
O117	O	0.423315	-0.646137	0.482363
O118	O	0.923315	-0.146137	0.982363
H119	H	0.439074	-0.628350	0.544014
H120	H	0.939074	-0.128350	1.044014
O121	O	1.030177	-0.645466	1.090211
O122	O	1.530177	-0.145466	1.590211
H123	H	1.038629	-0.634157	1.154105
H124	H	1.538629	-0.134157	1.654105
H125	H	1.225626	-0.384103	0.677866
H126	H	1.725626	0.115897	1.177866
O127	O	1.213876	-0.905699	0.193635
O128	O	1.713876	-0.405699	0.693635
H129	H	1.260608	-0.856718	0.167170
H130	H	1.760608	-0.356718	0.667170
O131	O	1.319242	-1.105400	0.299100
O132	O	1.819242	-0.605400	0.799100
H133	H	1.359764	-1.040516	0.314407
H134	H	1.859764	-0.540516	0.814407
O135	O	1.221226	-1.099977	0.189650
O136	O	1.721226	-0.599977	0.689650
H137	H	1.210646	-1.032328	0.150205
H138	H	1.710646	-0.532328	0.650205
H139	H	1.043335	-0.906054	0.469238
H140	H	1.543335	-0.406054	0.969238
O141	O	1.030144	-0.645571	0.837358
O142	O	1.530144	-0.145571	1.337358
H143	H	0.995211	-0.692294	0.795070
H144	H	1.495211	-0.192294	1.295070
H145	H	1.043385	-0.627867	0.677800
H146	H	1.543385	-0.127867	1.177800
O147	O	1.238920	-0.366292	0.837432
O148	O	1.738920	0.133708	1.337432
H149	H	1.273841	-0.319602	0.795167
H150	H	1.773841	0.180398	1.295167
O151	O	0.593652	-0.645955	0.482405
O152	O	1.093652	-0.145955	0.982405
H153	H	0.551389	-0.692735	0.517265
H154	H	1.051389	-0.192735	1.017265
H155	H	1.043421	-0.627773	0.930651
H156	H	1.543421	-0.127773	1.430651
H157	H	1.225668	-0.384010	0.930713
H158	H	1.725668	0.115990	1.430713
H159	H	0.835651	-0.628165	0.469129
H160	H	1.335651	-0.128165	0.969129
O161	O	0.593596	-0.366286	0.274065
O162	O	1.093596	0.133714	0.774065
H163	H	0.551312	-0.319519	0.239214
H164	H	1.051312	0.180481	0.739214
O165	O	0.676030	-0.366280	0.274063
O166	O	1.176030	0.133720	0.774063
H167	H	0.691766	-0.283839	0.287629
H168	H	1.191766	0.216161	0.787629
O169	O	0.846446	-0.366266	0.274039
O170	O	1.346446	0.133734	0.774039
H171	H	0.804162	-0.319499	0.239188
H172	H	1.304162	0.180501	0.739188
O173	O	1.030130	-1.119610	0.482525
O174	O	1.530130	-0.619610	0.982525
H175	H	1.038596	-1.205122	0.474111
H176	H	1.538596	-0.705122	0.974111
H177	H	1.225686	-0.383950	1.079441
H178	H	1.725686	0.116050	1.579441
