data_functionalizedCrystal
_audit_creation_method	'MofGen! by Chris Wilmer'
_symmetry_space_group_name_H-M	'P1'
_symmetry_Int_Tables_number	1
_symmetry_cell_setting	triclinic
loop_
_symmetry_equiv_pos_as_xyz
  x,y,z
_cell_length_a	12.759401
_cell_length_b	12.759400
_cell_length_c	12.759393
_cell_angle_alpha	89.968436
_cell_angle_beta	89.981504
_cell_angle_gamma	90.014845
loop_
_atom_site_label
_atom_site_type_symbol
_atom_site_fract_x
_atom_site_fract_y
_atom_site_fract_z
Zn1	Zn	1.606255	-0.418200	-0.593981
Zn2	Zn	1.606150	-0.593919	-0.418301
Zn3	Zn	1.430557	-0.418255	-0.418321
Zn4	Zn	1.430546	-0.593838	-0.593943
O5	O	1.518377	-0.506053	-0.506137
O6	O	1.753262	-0.441520	-0.570685
O7	O	1.582818	-0.570673	-0.271283
O8	O	1.453913	-0.271226	-0.441647
O9	O	1.753185	-0.570620	-0.441614
O10	O	1.582998	-0.271186	-0.570704
O11	O	1.453811	-0.441614	-0.271297
O12	O	1.283535	-0.441535	-0.441609
O13	O	1.453894	-0.570482	-0.740969
O14	O	1.283527	-0.570536	-0.570638
O15	O	1.582987	-0.441442	-0.740997
O16	O	1.582807	-0.740929	-0.441577
O17	O	1.453791	-0.740870	-0.570620
C18	C	1.245410	-0.506033	-0.506122
C19	C	1.128633	-0.506050	-0.506141
C20	C	1.073794	-0.573328	-0.573215
C21	C	0.964070	-0.573342	-0.573227
C22	C	0.964034	-0.438796	-0.439081
C23	C	1.073756	-0.438778	-0.439075
C24	C	1.073815	-0.651010	-0.650660
C25	C	0.964091	-0.651024	-0.650672
C26	C	1.518315	-0.779020	-0.506115
C27	C	1.518384	-0.895797	-0.506140
C28	C	1.585637	-0.950655	-0.439022
C29	C	1.585702	-1.060379	-0.439054
C30	C	1.451252	-1.060377	-0.573327
C31	C	1.451193	-0.950655	-0.573299
C32	C	1.663258	-0.950657	-0.361498
C33	C	1.663322	-1.060381	-0.361530
C34	C	1.792410	-0.506073	-0.506152
C35	C	1.909187	-0.506082	-0.506158
C36	C	1.518451	-0.505947	-0.780170
C37	C	1.518482	-0.505902	-0.896947
C38	C	1.518468	-0.232019	-0.506182
C39	C	1.518507	-0.115243	-0.506201
C40	C	1.585710	-0.438704	-0.951825
C41	C	1.585735	-0.438666	-1.061549
C42	C	1.451301	-0.573033	-1.061507
C43	C	1.451272	-0.573064	-0.951785
C44	C	1.663328	-0.361131	-0.951851
C45	C	1.663353	-0.361093	-1.061575
C46	C	1.518364	-0.506083	-0.233169
C47	C	1.518537	-0.505832	-0.116393
H48	H	1.103623	-0.629311	-0.732067
H49	H	1.107829	-0.728262	-0.621376
H50	H	0.930093	-0.621980	-0.728024
H51	H	0.919339	-0.384025	-0.384479
C52	C	1.377229	-0.890309	-0.647138
H53	H	1.386823	-0.817106	-0.637513
H54	H	1.306653	-0.908357	-0.631720
H55	H	1.392597	-0.908225	-0.717746
C56	C	1.773136	-0.910313	-0.391028
H57	H	1.818363	-0.968179	-0.403203
H58	H	1.800181	-0.868975	-0.335355
H59	H	1.768648	-0.868908	-0.452766
C60	C	1.773264	-0.390557	-1.101811
H61	H	1.818447	-0.402709	-1.043901
H62	H	1.800342	-0.334866	-1.143189
H63	H	1.768806	-0.452295	-1.143154
C64	C	0.923831	-0.760911	-0.621038
H65	H	0.981732	-0.806092	-0.608832
H66	H	0.882492	-0.788019	-0.676684
H67	H	0.882444	-0.756413	-0.559299
C68	C	1.377384	-0.646913	-1.121832
H69	H	1.387033	-0.637276	-1.195039
H70	H	1.306794	-0.631541	-1.103849
H71	H	1.392741	-0.717514	-1.103834
C72	C	1.633915	-0.251225	-0.911639
H73	H	1.633908	-0.251251	-0.837182
H74	H	1.566129	-0.233032	-0.936449
H75	H	1.683583	-0.201589	-0.936467
H76	H	1.118401	-0.383987	-0.384464
C77	C	1.767715	-0.400520	-0.905863
H78	H	1.814223	-0.418034	-0.961310
H79	H	1.755200	-0.460787	-0.863939
H80	H	1.798132	-0.347027	-0.863978
H81	H	1.396548	-1.105056	-0.628005
H82	H	1.634239	-0.283784	-1.095623
C83	C	1.623923	-0.904789	-0.257039
H84	H	1.606452	-0.960289	-0.210538
H85	H	1.563639	-0.862919	-0.269458
H86	H	1.677427	-0.862871	-0.226665
H87	H	1.740626	-1.094325	-0.390742
C88	C	1.633957	-1.100736	-0.251601
H89	H	1.634014	-1.175193	-0.251626
H90	H	1.566152	-1.076000	-0.233360
H91	H	1.683609	-1.075922	-0.202000
C92	C	1.377302	-0.646962	-0.891422
H93	H	1.337283	-0.686957	-0.939798
H94	H	1.331537	-0.606765	-0.848633
H95	H	1.417453	-0.692768	-0.848605
