data_functionalizedCrystal
_audit_creation_method	'MofGen! by Chris Wilmer'
_symmetry_space_group_name_H-M	'P1'
_symmetry_Int_Tables_number	1
_symmetry_cell_setting	triclinic
loop_
_symmetry_equiv_pos_as_xyz
  x,y,z
_cell_length_a	17.077404
_cell_length_b	12.759399
_cell_length_c	17.077396
_cell_angle_alpha	89.977542
_cell_angle_beta	90.019501
_cell_angle_gamma	89.984170
loop_
_atom_site_label
_atom_site_type_symbol
_atom_site_fract_x
_atom_site_fract_y
_atom_site_fract_z
Zn1	Zn	1.200094	0.418260	0.443876
Zn2	Zn	1.200018	0.593961	0.312623
Zn3	Zn	1.068826	0.418297	0.312624
Zn4	Zn	1.068811	0.593898	0.443847
O5	O	1.134437	0.506104	0.378242
O6	O	1.309931	0.441578	0.426477
O7	O	1.182590	0.570700	0.202776
O8	O	1.086277	0.271271	0.330046
O9	O	1.309875	0.570664	0.330046
O10	O	1.182720	0.271244	0.426477
O11	O	1.086204	0.441641	0.202777
O12	O	0.958977	0.441580	0.330019
O13	O	1.086251	0.570558	0.553698
O14	O	0.958966	0.570594	0.426428
O15	O	1.182705	0.441517	0.553719
O16	O	1.182575	0.740973	0.330018
O17	O	1.086177	0.740927	0.426428
C18	C	0.930490	0.506085	0.378221
C19	C	0.843240	0.506102	0.378230
C20	C	0.802264	0.573381	0.428350
C21	C	0.720284	0.573383	0.428362
C22	C	0.679280	0.506111	0.378251
C23	C	0.720262	0.438825	0.328129
C24	C	0.802240	0.438818	0.328121
C25	C	0.549391	0.438846	0.328147
C26	C	0.467407	0.438854	0.328154
C27	C	0.467435	0.573410	0.428389
C28	C	0.549414	0.573404	0.428381
C29	C	0.590389	0.506119	0.378258
C30	C	1.134388	0.779071	0.378237
C31	C	1.134438	0.895848	0.378261
C32	C	1.184687	0.950699	0.328118
C33	C	1.184734	1.060423	0.328147
C34	C	1.084276	1.060435	0.428463
C35	C	1.084234	0.950713	0.428438
C36	C	1.242684	0.950693	0.270199
C37	C	1.242730	1.060417	0.270228
C38	C	1.339182	0.506124	0.378265
C39	C	1.426431	0.506132	0.378274
C40	C	1.134485	0.506026	0.582987
C41	C	1.134505	0.505993	0.670237
C42	C	1.134506	1.232071	0.378275
C43	C	1.134527	1.115294	0.378315
C44	C	1.134435	0.506105	0.174295
C45	C	1.134567	0.505842	0.087045
C46	C	1.184730	0.438796	0.711239
C47	C	1.184740	0.438761	0.793219
C48	C	1.134527	0.505930	0.834196
C49	C	1.084297	0.573130	0.793188
C50	C	1.084284	0.573159	0.711209
C51	C	1.084328	0.573066	0.964058
C52	C	1.084342	0.573039	1.046043
C53	C	1.184784	0.438669	1.046069
C54	C	1.184771	0.438698	0.964090
C55	C	1.134541	0.505900	0.923087
H56	H	0.582751	0.384046	0.287339
F57	F	1.238178	0.367311	0.667636
H58	H	1.043402	1.105120	0.469316
F59	F	1.238223	0.367277	0.836854
F60	F	1.238217	0.367217	0.920481
H61	H	0.686870	0.384046	0.287330
F62	F	1.318216	1.104794	0.298772
F63	F	1.238243	0.367149	1.089707
H64	H	1.303459	0.920837	0.286528
H65	H	0.835602	0.384027	0.287312
F66	F	1.030762	0.892340	0.481817
H67	H	1.220925	0.916737	0.212423
H68	H	1.226491	1.090270	0.209425
F69	F	1.030894	0.644518	1.089652
H70	H	1.043377	0.627867	0.677826
F71	F	0.593051	0.645009	0.481711
H72	H	0.434069	0.628193	0.469204
H73	H	0.434024	0.384062	0.287358
F74	F	1.030866	0.644588	0.920422
H75	H	0.835643	0.628165	0.469154
F76	F	0.676678	0.644990	0.481707
H77	H	1.043410	0.627815	0.826558
