data_functionalizedCrystal
_audit_creation_method	'MofGen! by Chris Wilmer'
_symmetry_space_group_name_H-M	'P1'
_symmetry_Int_Tables_number	1
_symmetry_cell_setting	triclinic
loop_
_symmetry_equiv_pos_as_xyz
  x,y,z
_cell_length_a	17.077404
_cell_length_b	12.759400
_cell_length_c	12.759386
_cell_angle_alpha	90.056941
_cell_angle_beta	89.952065
_cell_angle_gamma	90.000479
loop_
_atom_site_label
_atom_site_type_symbol
_atom_site_fract_x
_atom_site_fract_y
_atom_site_fract_z
Zn1	Zn	-1.200354	-0.417984	0.594213
Zn2	Zn	-1.200250	-0.593798	0.418550
Zn3	Zn	-1.069029	-0.418123	0.418532
Zn4	Zn	-1.069099	-0.593611	0.594171
O5	O	-1.134683	-0.505879	0.506366
O6	O	-1.310187	-0.441327	0.570937
O7	O	-1.182770	-0.570630	0.271526
O8	O	-1.086464	-0.271083	0.441846
O9	O	-1.310111	-0.570496	0.441878
O10	O	-1.182948	-0.270982	0.570919
O11	O	-1.086363	-0.441562	0.271513
O12	O	-0.959192	-0.441381	0.441805
O13	O	-1.086583	-0.570178	0.741198
O14	O	-0.959243	-0.570312	0.570846
O15	O	-1.183016	-0.441146	0.741229
O16	O	-1.182838	-0.740794	0.441837
O17	O	-1.086482	-0.740657	0.570864
C18	C	-0.930735	-0.505842	0.506320
C19	C	-0.843485	-0.505851	0.506325
C20	C	-1.134710	-0.231846	0.506385
C21	C	-1.134721	-0.115069	0.506393
C22	C	-1.134678	-0.778846	0.506371
C23	C	-1.134747	-0.895623	0.506408
C24	C	-0.467708	-0.438742	0.573685
C25	C	-0.549688	-0.438738	0.573677
C26	C	-0.590637	-0.505878	0.506370
C27	C	-0.549600	-0.573034	0.439075
C28	C	-0.467621	-0.573043	0.439089
C29	C	-0.720470	-0.573010	0.439048
C30	C	-0.802454	-0.573000	0.439032
C31	C	-0.802537	-0.438705	0.573636
C32	C	-0.720559	-0.438713	0.573650
C33	C	-0.679528	-0.505868	0.506353
C34	C	-0.339427	-0.505906	0.506403
C35	C	-0.426677	-0.505891	0.506393
C36	C	-1.084559	-0.060138	0.573571
C37	C	-1.084574	0.049586	0.573581
C38	C	-1.184915	0.049438	0.439227
C39	C	-1.184904	-0.060284	0.439222
C40	C	-1.134593	-0.506056	0.233399
C41	C	-1.134687	-0.505868	0.116622
C42	C	-1.084176	-0.439075	0.061803
C43	C	-1.084272	-0.438896	-0.047921
C44	C	-1.185394	-0.572314	-0.047996
C45	C	-1.185300	-0.572486	0.061726
C46	C	-1.134819	-0.505625	0.780400
C47	C	-1.134877	-0.505517	0.897177
H48	H	-0.434374	-0.384062	0.628488
H49	H	-1.043703	-0.104741	0.628273
H50	H	-1.226600	-0.626553	-0.092706
H51	H	-1.043142	-0.384505	-0.092550
H52	H	-1.042966	-0.384826	0.106497
O53	O	-1.234395	-0.637473	0.114822
C54	C	-1.279097	-0.696222	0.042844
H55	H	-1.247033	-0.700050	-0.035466
H56	H	-1.287887	-0.778965	0.074362
H57	H	-1.338516	-0.657159	0.031431
H58	H	-0.583092	-0.384062	0.628477
H59	H	-0.835792	-0.627675	0.384228
H60	H	-1.225756	-0.105010	0.384517
O61	O	-1.233541	0.102708	0.373862
C62	C	-1.188821	0.166136	0.306014
H63	H	-1.126991	0.133072	0.299509
H64	H	-1.217171	0.167300	0.225166
H65	H	-1.186139	0.249323	0.338500
O66	O	-0.680901	-0.373458	0.639128
C67	C	-0.734693	-0.314166	0.698505
H68	H	-0.793138	-0.357190	0.702068
H69	H	-0.711061	-0.303016	0.781303
H70	H	-0.743377	-0.234346	0.660162
H71	H	-0.835949	-0.384023	0.628431
O72	O	-0.680697	-0.638389	0.373727
C73	C	-0.700736	-0.743117	0.396524
H74	H	-0.760287	-0.745319	0.436896
H75	H	-0.703487	-0.790173	0.320619
H76	H	-0.654638	-0.778545	0.450488
O77	O	-0.589253	-0.638358	0.373662
C78	C	-0.535455	-0.697611	0.314254
H79	H	-0.477049	-0.701281	0.357291
H80	H	-0.559139	-0.780379	0.302909
H81	H	-0.526677	-0.659089	0.234525
H82	H	-1.043728	0.094308	0.628285
H83	H	-0.434215	-0.627724	0.384294
