data_functionalizedCrystal
_audit_creation_method	'MofGen! by Chris Wilmer'
_symmetry_space_group_name_H-M	'P1'
_symmetry_Int_Tables_number	1
_symmetry_cell_setting	triclinic
loop_
_symmetry_equiv_pos_as_xyz
  x,y,z
_cell_length_a	21.395362
_cell_length_b	17.077402
_cell_length_c	17.077396
_cell_angle_alpha	90.029784
_cell_angle_beta	89.961012
_cell_angle_gamma	89.961239
loop_
_atom_site_label
_atom_site_type_symbol
_atom_site_fract_x
_atom_site_fract_y
_atom_site_fract_z
Zn1	Zn	0.957863	0.312175	-0.444244
Zn2	Zn	1.457863	0.812175	0.055756
Zn3	Zn	0.957789	0.443450	-0.312975
Zn4	Zn	1.457789	0.943450	0.187025
Zn5	Zn	0.853087	0.312239	-0.312947
Zn6	Zn	1.353087	0.812239	0.187053
Zn7	Zn	0.853061	0.443440	-0.444154
Zn8	Zn	1.353061	0.943440	0.055846
O9	O	0.905450	0.377826	-0.378580
O10	O	1.405450	0.877826	0.121420
O11	O	1.045531	0.329567	-0.426880
O12	O	1.545531	0.829567	0.073120
O13	O	0.943880	0.426076	-0.203124
O14	O	1.443880	0.926076	0.296876
O15	O	0.867027	0.202383	-0.330390
O16	O	1.367027	0.702383	0.169610
O17	O	1.045477	0.426014	-0.330437
O18	O	1.545477	0.926014	0.169563
O19	O	0.944006	0.202337	-0.426853
O20	O	1.444006	0.702337	0.073147
O21	O	0.866956	0.329675	-0.203104
O22	O	1.366956	0.829675	0.296896
O23	O	0.765406	0.329665	-0.330303
O24	O	1.265406	0.829665	0.169697
O25	O	0.866984	0.425996	-0.554013
O26	O	1.366984	0.925996	-0.054013
O27	O	0.765387	0.426058	-0.426700
O28	O	1.265387	0.926058	0.073300
O29	O	0.943981	0.329557	-0.554079
O30	O	1.443981	0.829557	-0.054079
O31	O	0.943855	0.553296	-0.330350
O32	O	1.443855	1.053296	0.169650
O33	O	0.866912	0.553288	-0.426727
O34	O	1.366912	1.053288	0.073273
C35	C	0.905390	0.581774	-0.378549
C36	C	1.405390	1.081774	0.121451
C37	C	0.905421	0.669024	-0.378561
C38	C	1.405421	1.169024	0.121439
C39	C	0.742662	0.377868	-0.378489
C40	C	1.242662	0.877868	0.121511
C41	C	0.673021	0.377904	-0.378469
C42	C	1.173021	0.877904	0.121531
C43	C	0.905488	0.377768	-0.583324
C44	C	1.405488	0.877768	-0.083324
C45	C	0.905504	0.377743	-0.670574
C46	C	1.405504	0.877743	-0.170574
C47	C	0.640315	0.428162	-0.428587
C48	C	1.140315	0.928162	0.071413
C49	C	0.574879	0.428143	-0.428622
C50	C	1.074879	0.928143	0.071378
C51	C	0.542153	0.377874	-0.378524
C52	C	1.042153	0.877874	0.121476
C53	C	0.574867	0.327606	-0.328402
C54	C	1.074867	0.827606	0.171598
C55	C	0.640301	0.327621	-0.328374
C56	C	1.140301	0.827621	0.171626
C57	C	0.438432	0.371565	-0.307857
C58	C	0.938432	0.871565	0.192143
C59	C	0.372999	0.371555	-0.307884
C60	C	0.872999	0.871555	0.192116
C61	C	0.340332	0.377823	-0.378611
C62	C	0.840332	0.877823	0.121389
C63	C	0.373106	0.384116	-0.449314
C64	C	0.873106	0.884116	0.050686
C65	C	0.438540	0.384132	-0.449286
C66	C	0.938540	0.884132	0.050714
C67	C	0.471200	0.377852	-0.378550
C68	C	0.971200	0.877852	0.121450
C69	C	0.236673	0.428063	-0.428772
C70	C	0.736673	0.928063	0.071228
C71	C	0.171236	0.428038	-0.428808
C72	C	0.671236	0.928038	0.071192
C73	C	0.171226	0.327505	-0.328581
C74	C	0.671226	0.827505	0.171419
C75	C	0.236661	0.327526	-0.328552
C76	C	0.736661	0.827526	0.171448
C77	C	0.269381	0.377809	-0.378646
C78	C	0.769381	0.877809	0.121354
C79	C	1.068873	0.377785	-0.378672
C80	C	1.568873	0.877785	0.121328
C81	C	1.138515	0.377767	-0.378711
C82	C	1.638515	0.877767	0.121289
C83	C	0.905528	0.173082	-0.378629
C84	C	1.405528	0.673082	0.121371
C85	C	0.905561	0.085832	-0.378649
C86	C	1.405561	0.585832	0.121351
C87	C	0.945526	0.709992	-0.328432
C88	C	1.445526	1.209992	0.171568
C89	C	0.945557	0.791972	-0.328452
C90	C	1.445557	1.291972	0.171548
C91	C	0.905479	0.832983	-0.378598
C92	C	1.405479	1.332983	0.121402
C93	C	0.865372	0.792009	-0.428733
C94	C	1.365372	1.292009	0.071267
C95	C	0.865345	0.710030	-0.428716
C96	C	1.365345	1.210030	0.071284
C97	C	0.865430	0.962879	-0.428763
C98	C	1.365430	1.462879	0.071237
C99	C	0.865456	1.044864	-0.428779
C100	C	1.365456	1.544864	0.071221
C101	C	0.945642	1.044821	-0.328499
C102	C	1.445642	1.544821	0.171501
C103	C	0.945615	0.962842	-0.328482
C104	C	1.445615	1.462842	0.171518
C105	C	0.905507	0.921874	-0.378616
C106	C	1.405507	1.421874	0.121384
C107	C	0.945598	0.327523	-0.711600
C108	C	1.445598	0.827523	-0.211600
C109	C	0.945606	0.327497	-0.793581
C110	C	1.445606	0.827497	-0.293581
C111	C	0.905522	0.377696	-0.834534
C112	C	1.405522	0.877696	-0.334534
C113	C	0.865423	0.427918	-0.793502
C114	C	1.365423	0.927918	-0.293502
C115	C	0.865413	0.427940	-0.711523
C116	C	1.365413	0.927940	-0.211523
C117	C	0.865449	0.427871	-0.964372
C118	C	1.365449	0.927871	-0.464372
C119	C	0.865460	0.427851	-1.046357
C120	C	1.365460	0.927851	-0.546357
C121	C	0.945641	0.327428	-1.046430
C122	C	1.445641	0.827428	-0.546430
C123	C	0.945631	0.327450	-0.964451
C124	C	1.445631	0.827450	-0.464451
C125	C	0.905533	0.377674	-0.923425
C126	C	1.405533	0.877674	-0.423425
C127	C	0.905448	0.377827	-0.174632
C128	C	1.405448	0.877827	0.325368
C129	C	0.905554	0.377630	-0.087383
C130	C	1.405554	0.877630	0.412617
H131	H	0.666951	0.469106	-0.469379
H132	H	1.166951	0.969106	0.030621
C133	C	0.989614	0.664888	-0.273265
C134	C	1.489614	1.164888	0.226735
N135	N	1.022825	0.630917	-0.231713
N136	N	1.522825	1.130917	0.268287
C137	C	0.821308	0.483187	-0.666395
C138	C	1.321308	0.983187	-0.166395
N139	N	0.788085	0.524800	-0.632406
N140	N	1.288085	1.024800	-0.132406
H141	H	0.832688	0.676675	-0.469538
H142	H	1.332688	1.176675	0.030462
C143	C	0.538867	0.272310	-0.273295
C144	C	1.038867	0.772310	0.226705
N145	N	0.511751	0.230657	-0.231787
N146	N	1.011751	0.730657	0.268213
C147	C	0.989671	0.837034	-0.273301
C148	C	1.489671	1.337034	0.226699
N149	N	1.022900	0.870973	-0.231757
N150	N	1.522900	1.370973	0.268243
C151	C	0.821375	1.089974	-0.483950
C152	C	1.321375	1.589974	0.016050
N153	N	0.788174	1.123951	-0.525509
N154	N	1.288174	1.623951	-0.025509
C155	C	0.336954	0.364626	-0.230111
C156	C	0.836954	0.864626	0.269889
N157	N	0.309807	0.359403	-0.171530
N158	N	0.809807	0.859403	0.328470
C159	C	0.989766	1.089888	-0.273357
C160	C	1.489766	1.589888	0.226643
N161	N	1.022999	1.123835	-0.231826
N162	N	1.522999	1.623835	0.268174
H163	H	0.832742	0.825407	-0.469566
H164	H	1.332742	1.325407	0.030434
H165	H	0.263315	0.469002	-0.469566
H166	H	0.763315	0.969002	0.030434
C167	C	0.135259	0.483336	-0.483939
C168	C	0.635259	0.983336	0.016061
N169	N	0.108161	0.524991	-0.525461
N170	N	0.608161	1.024991	-0.025461
H171	H	0.832772	0.929525	-0.469590
H172	H	1.332772	1.429525	0.030410
C173	C	0.538895	0.483436	-0.483756
C174	C	1.038895	0.983436	0.016244
N175	N	0.511793	0.525084	-0.525282
N176	N	1.011793	1.025084	-0.025282
C177	C	0.676280	0.272335	-0.273233
C178	C	1.176280	0.772335	0.226767
N179	N	0.703379	0.230694	-0.231698
N180	N	1.203379	0.730694	0.268302
C181	C	0.989693	0.272299	-0.666559
C182	C	1.489693	0.772299	-0.166559
N183	N	1.022905	0.230700	-0.632637
N184	N	1.522905	0.730700	-0.132637
C185	C	0.135230	0.272207	-0.273473
C186	C	0.635230	0.772207	0.226527
N187	N	0.108116	0.230555	-0.231966
N188	N	0.608116	0.730555	0.268034
C189	C	0.989713	0.272252	-0.838705
C190	C	1.489713	0.772252	-0.338705
N191	N	1.022937	0.230640	-0.872693
N192	N	1.522937	0.730640	-0.372693
C193	C	0.474589	0.391054	-0.527057
C194	C	0.974589	0.891054	-0.027057
N195	N	0.501740	0.396266	-0.585636
N196	N	1.001740	0.896266	-0.085636
H197	H	0.263291	0.286604	-0.287736
H198	H	0.763291	0.786604	0.212264
H199	H	0.978246	0.929451	-0.287645
H200	H	1.478246	1.429451	0.212355
C201	C	0.989749	0.272181	-1.091560
C202	C	1.489749	0.772181	-0.591560
N203	N	1.022971	0.230573	-1.125555
N204	N	1.522971	0.730573	-0.625555
C205	C	0.821362	0.483067	-1.091404
C206	C	1.321362	0.983067	-0.591404
N207	N	0.788145	0.524655	-1.125333
N208	N	1.288145	1.024655	-0.625333
H209	H	0.978274	0.286578	-0.931109
H210	H	1.478274	0.786578	-0.431109
H211	H	0.832787	0.468756	-0.930971
H212	H	1.332787	0.968756	-0.430971
C213	C	0.821325	0.483129	-0.838554
C214	C	1.321325	0.983129	-0.338554
N215	N	0.788108	0.524715	-0.872485
N216	N	1.288108	1.024715	-0.372485
C217	C	0.337177	0.391008	-0.527121
C218	C	0.837177	0.891008	-0.027121
N219	N	0.310112	0.396200	-0.585723
N220	N	0.810112	0.896200	-0.085723
C221	C	0.474360	0.364673	-0.230046
C222	C	0.974360	0.864673	0.269954
N223	N	0.501419	0.359483	-0.171441
N224	N	1.001419	0.859483	0.328559
