data_functionalizedCrystal
_audit_creation_method	'MofGen! by Chris Wilmer'
_symmetry_space_group_name_H-M	'P1'
_symmetry_Int_Tables_number	1
_symmetry_cell_setting	triclinic
loop_
_symmetry_equiv_pos_as_xyz
  x,y,z
_cell_length_a	21.395362
_cell_length_b	21.395361
_cell_length_c	17.077396
_cell_angle_alpha	90.030789
_cell_angle_beta	89.961012
_cell_angle_gamma	89.953589
loop_
_atom_site_label
_atom_site_type_symbol
_atom_site_fract_x
_atom_site_fract_y
_atom_site_fract_z
Zn1	Zn	0.957830	0.249173	-0.444238
Zn2	Zn	0.957742	0.353954	-0.312967
Zn3	Zn	0.853054	0.249224	-0.312942
Zn4	Zn	0.853014	0.353946	-0.444146
O5	O	0.905410	0.301574	-0.378573
O6	O	1.045496	0.263055	-0.426874
O7	O	0.943834	0.340086	-0.203117
O8	O	0.867006	0.161539	-0.330387
O9	O	1.045431	0.340037	-0.330430
O10	O	0.943984	0.161502	-0.426850
O11	O	0.866920	0.263141	-0.203098
O12	O	0.765370	0.263133	-0.330297
O13	O	0.866938	0.340023	-0.554005
O14	O	0.765341	0.340072	-0.426692
O15	O	0.943946	0.263046	-0.554073
O16	O	0.943796	0.441631	-0.330340
O17	O	0.866853	0.441625	-0.426717
C18	C	0.742622	0.301607	-0.378482
C19	C	0.672981	0.301637	-0.378462
C20	C	0.640269	0.341752	-0.428580
C21	C	0.574834	0.341736	-0.428615
C22	C	0.542112	0.301612	-0.378518
C23	C	0.574832	0.261489	-0.328396
C24	C	0.640266	0.261501	-0.328369
C25	C	0.438393	0.296576	-0.307851
C26	C	0.372960	0.296569	-0.307877
C27	C	0.340292	0.301572	-0.378605
C28	C	0.373065	0.306595	-0.449307
C29	C	0.438499	0.306607	-0.449279
C30	C	0.471160	0.301595	-0.378543
C31	C	0.236627	0.341672	-0.428764
C32	C	0.171191	0.341652	-0.428801
C33	C	0.171191	0.261409	-0.328576
C34	C	0.236626	0.261425	-0.328546
C35	C	0.269341	0.301560	-0.378640
C36	C	0.905328	0.464362	-0.378538
C37	C	0.905350	0.534003	-0.378550
C38	C	0.945449	0.566699	-0.328420
C39	C	0.945479	0.632134	-0.328441
C40	C	0.905397	0.664871	-0.378584
C41	C	0.865295	0.632168	-0.428724
C42	C	0.865271	0.566734	-0.428707
C43	C	0.848982	0.768601	-0.384717
C44	C	0.849005	0.834034	-0.384728
C45	C	0.905471	0.866692	-0.378641
C46	C	0.961916	0.833909	-0.372525
C47	C	0.961892	0.768475	-0.372508
C48	C	0.905419	0.735824	-0.378608
C49	C	0.945606	0.970340	-0.328531
C50	C	0.945636	1.035777	-0.328557
C51	C	0.865446	1.035809	-0.428836
C52	C	0.865422	0.970374	-0.428814
C53	C	0.905500	0.937643	-0.378657
C54	C	1.068833	0.301541	-0.378665
C55	C	1.138474	0.301527	-0.378704
C56	C	0.905448	0.301528	-0.583318
C57	C	0.905464	0.301508	-0.670568
C58	C	0.905510	1.138151	-0.378639
C59	C	0.905555	1.068509	-0.378702
C60	C	0.945563	0.261423	-0.711594
C61	C	0.945571	0.261403	-0.793575
C62	C	0.905482	0.301470	-0.834527
C63	C	0.865378	0.341557	-0.793495
C64	C	0.865368	0.341574	-0.711516
C65	C	0.865403	0.341519	-0.964365
C66	C	0.865414	0.341503	-1.046349
C67	C	0.945606	0.261348	-1.046424
C68	C	0.945596	0.261365	-0.964445
C69	C	0.905493	0.301452	-0.923418
C70	C	0.905408	0.301575	-0.174625
C71	C	0.905513	0.301418	-0.087376
H72	H	0.263260	0.228762	-0.287731
O73	O	0.826382	0.380376	-0.924482
C74	C	0.741795	0.388864	-0.831839
C75	C	0.785932	0.344784	-0.876967
H76	H	0.709089	0.360107	-0.793399
H77	H	0.713105	0.417488	-0.875161
H78	H	0.770552	0.421641	-0.793504
H79	H	0.757224	0.311969	-0.915302
H80	H	0.814625	0.316205	-0.833602
H81	H	0.346281	0.292482	-0.250307
O82	O	0.139317	0.222506	-0.279917
C83	C	0.038512	0.186930	-0.235533
C84	C	0.074534	0.231023	-0.290676
H85	H	-0.013871	0.193792	-0.244224
H86	H	0.051278	0.197893	-0.172198
H87	H	0.051466	0.136425	-0.249391
H88	H	0.061599	0.281543	-0.276889
H89	H	0.061765	0.220006	-0.353994
O90	O	0.984620	0.222383	-1.086152
C91	C	1.064134	0.142859	-1.077574
C92	C	1.019993	0.186959	-1.032482
H93	H	1.092736	0.114198	-1.034202
H94	H	1.096923	0.171581	-1.115947
H95	H	1.035385	0.110119	-1.115966
H96	H	1.048693	0.219708	-0.994047
H97	H	0.987203	0.158199	-0.994158
H98	H	0.978210	0.228798	-0.678257
O99	O	0.826411	0.380441	-1.086011
C100	C	0.746890	0.459966	-1.077290
C101	C	0.791018	0.415890	-1.032277
H102	H	0.718273	0.488647	-1.033866
H103	H	0.714114	0.431224	-1.115640
H104	H	0.775650	0.492688	-1.115698
H105	H	0.762309	0.383159	-0.993827
H106	H	0.823796	0.444671	-0.993977
H107	H	0.465180	0.310696	-0.506848
H108	H	0.978225	0.228763	-0.826975
O109	O	0.470026	0.291746	-0.239068
C110	C	0.463015	0.281785	-0.098793
C111	C	0.427114	0.287262	-0.176628
H112	H	0.428337	0.278145	-0.048292
H113	H	0.493579	0.324885	-0.090350
H114	H	0.493715	0.238222	-0.100126
H115	H	0.396380	0.330800	-0.175351
H116	H	0.396590	0.244132	-0.185042
H117	H	0.263265	0.374349	-0.469558
O118	O	0.984445	0.222402	-0.924584
C119	C	0.992886	0.137787	-0.832118
C120	C	0.948825	0.181891	-0.877192
H121	H	0.964105	0.105014	-0.793803
H122	H	1.025622	0.166506	-0.793687
H123	H	1.021555	0.109161	-0.875545
H124	H	0.920116	0.210527	-0.833821
H125	H	0.916131	0.153137	-0.915634
H126	H	0.548187	0.228819	-0.287609
O127	O	0.341373	0.311556	-0.518030
C128	C	0.321418	0.373724	-0.632958
C129	C	0.357337	0.368196	-0.555142
H130	H	0.334321	0.419508	-0.662993
H131	H	0.269013	0.372889	-0.620888
H132	H	0.334362	0.332837	-0.672629
H133	H	0.344445	0.409072	-0.515432
H134	H	0.409733	0.369002	-0.567270
O135	O	1.016750	0.736699	-0.366468
C136	C	1.108567	0.716579	-0.288797
C137	C	1.046462	0.752614	-0.295543
H138	H	1.132601	0.729423	-0.231451
H139	H	1.140218	0.729388	-0.340056
H140	H	1.098836	0.664206	-0.289872
H141	H	1.056135	0.804995	-0.294446
H142	H	1.014831	0.739753	-0.244287
O143	O	0.671949	0.222515	-0.279603
C144	C	0.665044	0.142898	-0.180232
C145	C	0.629084	0.187026	-0.235408
H146	H	0.630404	0.114184	-0.144497
H147	H	0.695596	0.171600	-0.139055
H148	H	0.695761	0.110208	-0.216343
H149	H	0.598333	0.219725	-0.199359
H150	H	0.598572	0.158285	-0.276587
H151	H	0.978242	0.943690	-0.287692
O152	O	0.826490	0.380607	-0.671690
C153	C	0.795998	0.487197	-0.646577
C154	C	0.840075	0.443063	-0.691715
H155	H	0.806957	0.537702	-0.662763
H156	H	0.802883	0.480379	-0.580942
H157	H	0.745486	0.476175	-0.662650
H158	H	0.890603	0.454058	-0.675708
H159	H	0.833135	0.449890	-0.757339
H160	H	0.803044	0.860721	-0.389700
H161	H	0.832734	0.374178	-0.826844
H162	H	0.978294	1.062396	-0.287737
O163	O	0.139509	0.380683	-0.477512
C164	C	0.146418	0.460258	-0.576935
C165	C	0.182375	0.416098	-0.521798
H166	H	0.181059	0.488894	-0.612767
H167	H	0.115737	0.493015	-0.540868
H168	H	0.115830	0.431522	-0.618031
H169	H	0.212998	0.444784	-0.480692
H170	H	0.213017	0.383340	-0.557914
H171	H	0.548194	0.374403	-0.469430
H172	H	0.978085	0.540051	-0.287581
H173	H	0.978135	0.658760	-0.287619
O174	O	1.016767	0.865649	-0.366760
C175	C	1.086972	0.939421	-0.426922
C176	C	1.024846	0.903503	-0.433558
H177	H	1.093518	0.970045	-0.480912
H178	H	1.127333	0.904776	-0.422600
H179	H	1.086037	0.970067	-0.372303
H180	H	1.025720	0.872856	-0.488174
H181	H	0.984512	0.938182	-0.437836
O182	O	0.826446	0.664035	-0.477470
C183	C	0.817997	0.737832	-0.583486
C184	C	0.862062	0.701794	-0.528312
H185	H	0.846776	0.768359	-0.624616
H186	H	0.785272	0.768568	-0.547446
H187	H	0.789317	0.703209	-0.619278
H188	H	0.890783	0.736372	-0.492508
H189	H	0.894746	0.671050	-0.564397
O190	O	0.826533	1.067699	-0.477475
C191	C	0.791064	1.168519	-0.521987
C192	C	0.835153	1.132478	-0.466845
H193	H	0.798027	1.220898	-0.513424
H194	H	0.740529	1.155770	-0.508121
H195	H	0.802029	1.155562	-0.585286
H196	H	0.824245	1.145415	-0.403527
H197	H	0.885674	1.145229	-0.480778
O198	O	0.794070	0.736978	-0.390611
C199	C	0.682085	0.744008	-0.402778
C200	C	0.744223	0.779898	-0.396082
H201	H	0.641768	0.778693	-0.407219
H202	H	0.675435	0.713426	-0.348769
H203	H	0.683058	0.713326	-0.457365
H204	H	0.743294	0.810613	-0.341527
H205	H	0.750849	0.810440	-0.450130
H206	H	0.832766	0.943751	-0.469631
O207	O	0.671950	0.380754	-0.477318
C208	C	0.665041	0.460371	-0.576691
C209	C	0.629083	0.416224	-0.521548
H210	H	0.630399	0.489070	-0.612454
H211	H	0.695719	0.431684	-0.617843
H212	H	0.695632	0.493074	-0.540552
H213	H	0.598459	0.383513	-0.557623
H214	H	0.598444	0.444951	-0.480393
H215	H	0.832616	0.540112	-0.469529
