data_functionalizedCrystal
_audit_creation_method	'MofGen! by Chris Wilmer'
_symmetry_space_group_name_H-M	'P1'
_symmetry_Int_Tables_number	1
_symmetry_cell_setting	triclinic
loop_
_symmetry_equiv_pos_as_xyz
  x,y,z
_cell_length_a	21.395362
_cell_length_b	17.077403
_cell_length_c	17.077396
_cell_angle_alpha	90.019195
_cell_angle_beta	89.963454
_cell_angle_gamma	89.983406
loop_
_atom_site_label
_atom_site_type_symbol
_atom_site_fract_x
_atom_site_fract_y
_atom_site_fract_z
Zn1	Zn	0.957944	0.312163	-0.444310
Zn2	Zn	1.457944	0.812163	0.055690
Zn3	Zn	0.957915	0.443441	-0.313069
Zn4	Zn	1.457915	0.943441	0.186931
Zn5	Zn	0.853173	0.312230	-0.313014
Zn6	Zn	1.353173	0.812230	0.186986
Zn7	Zn	0.853183	0.443427	-0.444248
Zn8	Zn	1.353183	0.943427	0.055752
O9	O	0.905554	0.377815	-0.378660
O10	O	1.405554	0.877815	0.121340
O11	O	1.045618	0.329555	-0.426950
O12	O	1.545618	0.829555	0.073050
O13	O	0.944004	0.426070	-0.203215
O14	O	1.444004	0.926070	0.296785
O15	O	0.867079	0.202374	-0.330433
O16	O	1.367079	0.702374	0.169567
O17	O	1.045597	0.426005	-0.330528
O18	O	1.545597	0.926005	0.169472
O19	O	0.944054	0.202325	-0.426896
O20	O	1.444054	0.702325	0.073104
O21	O	0.867050	0.329670	-0.203174
O22	O	1.367050	0.829670	0.296826
O23	O	0.765496	0.329656	-0.330373
O24	O	1.265496	0.829656	0.169627
O25	O	0.867097	0.425980	-0.554104
O26	O	1.367097	0.925980	-0.054104
O27	O	0.765504	0.426045	-0.426790
O28	O	1.265504	0.926045	0.073210
O29	O	0.944064	0.329541	-0.554149
O30	O	1.444064	0.829541	-0.054149
O31	O	0.944014	0.553286	-0.330468
O32	O	1.444014	1.053286	0.169532
O33	O	0.867068	0.553276	-0.426844
O34	O	1.367068	1.053276	0.073156
C35	C	0.742766	0.377857	-0.378569
C36	C	1.242766	0.877857	0.121431
C37	C	0.673125	0.377893	-0.378549
C38	C	1.173125	0.877893	0.121451
C39	C	0.905568	0.173071	-0.378666
C40	C	1.405568	0.673071	0.121334
C41	C	0.905575	0.085821	-0.378668
C42	C	1.405575	0.585821	0.121332
C43	C	0.865503	0.044855	-0.328447
C44	C	1.365503	0.544855	0.171553
C45	C	0.865508	-0.037125	-0.328457
C46	C	1.365508	0.462875	0.171543
C47	C	0.905588	-0.078138	-0.378684
C48	C	1.405588	0.421862	0.121316
C49	C	0.945661	-0.037167	-0.428910
C50	C	1.445661	0.462833	0.071090
C51	C	0.945653	0.044812	-0.428904
C52	C	1.445653	0.544812	0.071096
C53	C	0.945677	-0.208037	-0.428919
C54	C	1.445677	0.291963	0.071081
C55	C	0.945686	-0.290021	-0.428925
C56	C	1.445686	0.209979	0.071075
C57	C	0.865532	-0.289974	-0.328472
C58	C	1.365532	0.210026	0.171528
C59	C	0.865524	-0.207995	-0.328466
C60	C	1.365524	0.292005	0.171534
C61	C	0.905598	-0.167029	-0.378691
C62	C	1.405598	0.332971	0.121309
C63	C	0.640432	0.428150	-0.428679
C64	C	1.140432	0.928150	0.071321
C65	C	0.574997	0.428131	-0.428713
C66	C	1.074997	0.928131	0.071287
C67	C	0.542257	0.377863	-0.378605
C68	C	1.042257	0.877863	0.121395
C69	C	0.574957	0.327597	-0.328472
C70	C	1.074957	0.827597	0.171528
C71	C	0.640391	0.327612	-0.328444
C72	C	1.140391	0.827612	0.171556
C73	C	0.438537	0.371556	-0.307937
C74	C	0.938537	0.871556	0.192063
C75	C	0.373104	0.371546	-0.307963
C76	C	0.873104	0.871546	0.192037
C77	C	0.340436	0.377812	-0.378692
C78	C	0.840436	0.877812	0.121308
C79	C	0.373209	0.384104	-0.449396
C80	C	0.873209	0.884104	0.050604
C81	C	0.438643	0.384119	-0.449368
C82	C	0.938643	0.884119	0.050632
C83	C	0.471304	0.377841	-0.378630
C84	C	0.971304	0.877841	0.121370
C85	C	0.236791	0.428051	-0.428863
C86	C	0.736791	0.928051	0.071137
C87	C	0.171354	0.428026	-0.428900
C88	C	0.671354	0.928026	0.071100
C89	C	0.171316	0.327496	-0.328651
C90	C	0.671316	0.827496	0.171349
C91	C	0.236751	0.327516	-0.328622
C92	C	0.736751	0.827516	0.171378
C93	C	0.269485	0.377798	-0.378727
C94	C	0.769485	0.877798	0.121273
C95	C	1.068977	0.377774	-0.378752
C96	C	1.568977	0.877774	0.121248
C97	C	1.138618	0.377757	-0.378791
C98	C	1.638618	0.877757	0.121209
C99	C	0.905556	0.581763	-0.378673
C100	C	1.405556	1.081763	0.121327
C101	C	0.905615	0.669013	-0.378704
C102	C	1.405615	1.169013	0.121296
C103	C	0.905585	0.377752	-0.583405
C104	C	1.405585	0.877752	-0.083405
C105	C	0.905598	0.377725	-0.670655
C106	C	1.405598	0.877725	-0.170655
C107	C	0.945725	0.427829	-1.046493
C108	C	1.445725	0.927829	-0.546493
C109	C	0.945709	0.427852	-0.964512
C110	C	1.445709	0.927852	-0.464512
C111	C	0.905638	0.377669	-0.923504
C112	C	1.405638	0.877669	-0.423504
C113	C	0.865576	0.327466	-0.964480
C114	C	1.365576	0.827466	-0.464480
C115	C	0.865590	0.327448	-1.046459
C116	C	1.365590	0.827448	-0.546459
C117	C	0.865553	0.327506	-0.793610
C118	C	1.365553	0.827506	-0.293610
C119	C	0.865541	0.327524	-0.711625
C120	C	1.365541	0.827524	-0.211625
C121	C	0.945672	0.427911	-0.711663
C122	C	1.445672	0.927911	-0.211663
C123	C	0.945685	0.427892	-0.793642
C124	C	1.445685	0.927892	-0.293642
C125	C	0.905624	0.377688	-0.834613
C126	C	1.405624	0.877688	-0.334613
C127	C	0.905559	0.377822	-0.174713
C128	C	1.405559	0.877822	0.325287
C129	C	0.905667	0.377628	-0.087463
C130	C	1.405667	0.877628	0.412537
H131	H	0.832867	0.078243	-0.287544
H132	H	1.332867	0.578243	0.212456
H133	H	0.144737	0.468949	-0.469726
H134	H	0.644737	0.968949	0.030274
C135	C	0.821504	0.272258	-0.919367
C136	C	1.321504	0.772258	-0.419367
N137	N	0.788311	0.230669	-0.885389
N138	N	1.288311	0.730669	-0.385389
C139	C	0.989737	0.483140	-0.666594
C140	C	1.489737	0.983140	-0.166594
N141	N	1.022927	0.524735	-0.632645
N142	N	1.522927	1.024735	-0.132645
C143	C	0.337280	0.390993	-0.527204
C144	C	0.837280	0.890993	-0.027204
N145	N	0.310215	0.396183	-0.585807
N146	N	0.810215	0.896183	-0.085807
C147	C	0.989762	-0.162976	-0.484168
C148	C	1.489762	0.337024	0.015832
N149	N	1.022968	-0.129037	-0.525778
N150	N	1.522968	0.370963	-0.025778
H151	H	0.548373	0.469056	-0.469538
H152	H	1.048373	0.969056	0.030462
C153	C	0.821456	0.272327	-0.666517
C154	C	1.321456	0.772327	-0.166517
N155	N	0.788249	0.230753	-0.632542
N156	N	1.288249	0.730753	-0.132542
C157	C	0.272800	0.483352	-0.483988
C158	C	0.772800	0.983352	0.016012
N159	N	0.299920	0.525003	-0.525511
N160	N	0.799920	1.025003	-0.025511
H161	H	0.978293	-0.070564	-0.469810
H162	H	1.478293	0.429436	0.030190
H163	H	0.978278	0.078165	-0.469804
H164	H	1.478278	0.578165	0.030196
C165	C	0.821525	0.272221	-1.091526
C166	C	1.321525	0.772221	-0.591526
N167	N	0.788333	0.230623	-1.125469
N168	N	1.288333	0.730623	-0.625469
H169	H	0.978320	0.468740	-0.931158
H170	H	1.478320	0.968740	-0.431158
H171	H	0.832878	-0.070479	-0.287564
H172	H	1.332878	0.429521	0.212436
H173	H	0.832890	-0.174604	-0.287562
H174	H	1.332890	0.325396	0.212438
H175	H	0.832902	-0.323333	-0.287578
H176	H	1.332902	0.176667	0.212422
C177	C	0.538942	0.272302	-0.273353
C178	C	1.038942	0.772302	0.226647
N179	N	0.511815	0.230651	-0.231837
N180	N	1.011815	0.730651	0.268163
H181	H	0.667080	0.469092	-0.469479
H182	H	1.167080	0.969092	0.030521
C183	C	0.989764	-0.335134	-0.484192
C184	C	1.489764	0.164866	0.015808
N185	N	1.022960	-0.369113	-0.525826
N186	N	1.522960	0.130887	-0.025826
C187	C	0.474692	0.391039	-0.527140
C188	C	0.974692	0.891039	-0.027140
N189	N	0.501843	0.396250	-0.585720
N190	N	1.001843	0.896250	-0.085720
C191	C	0.135305	0.272200	-0.273531
C192	C	0.635305	0.772200	0.226469
N193	N	0.108179	0.230548	-0.232015
N194	N	0.608179	0.730548	0.267985
H195	H	0.832931	0.286625	-0.826965
H196	H	1.332931	0.786625	-0.326965
H197	H	0.263370	0.286596	-0.287797
H198	H	0.763370	0.786596	0.212203
C199	C	0.337059	0.364620	-0.230188
C200	C	0.837059	0.864620	0.269812
N201	N	0.309912	0.359398	-0.171606
N202	N	0.809912	0.859398	0.328394
C203	C	0.474464	0.364666	-0.230124
C204	C	0.974464	0.864666	0.269876
N205	N	0.501524	0.359478	-0.171517
N206	N	1.001524	0.859478	0.328483
C207	C	0.676354	0.272327	-0.273291
C208	C	1.176354	0.772327	0.226709
N209	N	0.703443	0.230688	-0.231747
N210	N	1.203443	0.730688	0.268253
C211	C	0.989806	0.483035	-1.091595
C212	C	1.489806	0.983035	-0.591595
N213	N	1.023007	0.524621	-1.125564
N214	N	1.523007	1.024621	-0.625564
H215	H	0.978317	0.468752	-0.827029
H216	H	1.478317	0.968752	-0.327029
