data_functionalizedCrystal
_audit_creation_method	'MofGen! by Chris Wilmer'
_symmetry_space_group_name_H-M	'P1'
_symmetry_Int_Tables_number	1
_symmetry_cell_setting	triclinic
loop_
_symmetry_equiv_pos_as_xyz
  x,y,z
_cell_length_a	12.759400
_cell_length_b	21.395364
_cell_length_c	21.395356
_cell_angle_alpha	90.016383
_cell_angle_beta	90.018311
_cell_angle_gamma	90.029235
loop_
_atom_site_label
_atom_site_type_symbol
_atom_site_fract_x
_atom_site_fract_y
_atom_site_fract_z
Zn1	Zn	-0.417895	0.957880	0.354293
Zn2	Zn	-0.593582	0.957828	0.249529
Zn3	Zn	-0.417963	0.853110	0.249530
Zn4	Zn	-0.593579	0.853094	0.354269
O5	O	-0.505755	0.905478	0.301905
O6	O	-0.441173	1.045551	0.340406
O7	O	-0.570315	0.943921	0.161851
O8	O	-0.270933	0.867037	0.263437
O9	O	-0.570249	1.045512	0.263436
O10	O	-0.270883	0.944011	0.340407
O11	O	-0.441289	0.866986	0.161852
O12	O	-0.441286	0.765430	0.263414
O13	O	-0.570244	0.867010	0.441950
O14	O	-0.570310	0.765419	0.340366
O15	O	-0.441170	0.943996	0.441968
O16	O	-0.740602	0.943906	0.263413
O17	O	-0.740600	0.866959	0.340365
C18	C	-0.505806	0.742690	0.301888
C19	C	-0.505853	0.673049	0.301895
C20	C	-0.438753	0.640379	0.342035
C21	C	-0.438725	0.574943	0.342038
C22	C	-0.505816	0.542181	0.301907
C23	C	-0.572920	0.574859	0.261759
C24	C	-0.572939	0.640294	0.261753
C25	C	-0.600431	0.438473	0.296876
C26	C	-0.600415	0.373040	0.296886
C27	C	-0.505758	0.340360	0.301921
C28	C	-0.411115	0.373121	0.306958
C29	C	-0.411134	0.438555	0.306952
C30	C	-0.505803	0.471229	0.301908
C31	C	-0.438622	0.236737	0.342065
C32	C	-0.438592	0.171300	0.342063
C33	C	-0.572797	0.171218	0.261788
C34	C	-0.572817	0.236653	0.261786
C35	C	-0.505731	0.269409	0.301929
C36	C	-0.778722	0.905442	0.301900
C37	C	-0.895499	0.905484	0.301918
C38	C	-0.950398	0.865409	0.341956
C39	C	-1.060122	0.865442	0.341962
C40	C	-1.060038	0.945631	0.261891
C41	C	-0.950316	0.945594	0.261883
C42	C	-0.950447	0.819115	0.388186
C43	C	-1.060171	0.819148	0.388192
C44	C	-0.231721	0.905531	0.301925
C45	C	-0.114945	0.905554	0.301933
C46	C	-0.505699	0.905507	0.465329
C47	C	-0.505676	0.905519	0.534970
C48	C	-0.505704	1.068901	0.301923
C49	C	-0.505682	1.138543	0.301931
C50	C	-0.505734	0.905486	0.139118
C51	C	-0.505461	0.905595	0.069477
C52	C	-0.572639	0.945650	1.036767
C53	C	-0.572673	0.945638	0.971331
C54	C	-0.505509	0.905579	0.938609
C55	C	-0.438326	0.865516	0.971327
C56	C	-0.438302	0.865524	1.036761
C57	C	-0.410893	0.900637	0.834946
C58	C	-0.410915	0.900633	0.769513
C59	C	-0.505584	0.905551	0.736788
C60	C	-0.600233	0.910484	0.769503
C61	C	-0.600209	0.910492	0.834938
C62	C	-0.505528	0.905565	0.867656
C63	C	-0.572804	0.945596	0.633125
C64	C	-0.572839	0.945580	0.567688
C65	C	-0.438483	0.865461	0.567685
C66	C	-0.438457	0.865473	0.633120
C67	C	-0.505616	0.905544	0.665836
H68	H	-0.627462	0.263254	0.229102
Br69	Br	-0.893603	0.848022	0.465032
H70	H	-0.677479	0.346372	0.292788
H71	H	-0.920768	0.770586	0.375145
H72	H	-0.677518	0.465076	0.292776
H73	H	-0.383643	0.832898	0.944680
H74	H	-0.384079	0.548337	0.374724
Br75	Br	-0.347363	0.811073	0.523283
Br76	Br	-0.728655	0.917184	0.879336
Br77	Br	-0.663965	0.530398	0.207290
Br78	Br	-0.728722	0.917163	0.725099
Br79	Br	-0.347134	0.811154	1.081157
H80	H	-0.905618	0.978220	0.229275
H81	H	-1.089891	0.832090	0.436741
Br82	Br	-0.347301	0.811098	0.677516
Br83	Br	-0.663944	0.999976	0.677529
H84	H	-0.627581	0.666894	0.229065
H85	H	-0.627553	0.978194	0.541057
Br86	Br	-0.282352	0.894310	0.879352
H87	H	-1.104683	0.978287	0.229295
Br88	Br	-0.663794	1.000025	1.081164
H89	H	-0.384125	0.667044	0.374722
H90	H	-0.334072	0.465226	0.311052
H91	H	-1.094296	0.773073	0.370771
Br92	Br	-0.282464	0.893946	0.725120
Br93	Br	-0.282643	0.328778	0.313792
Br94	Br	-0.347573	0.281195	0.396539
Br95	Br	-0.663839	0.126762	0.207316
Br96	Br	-0.347512	0.126960	0.396540
Br97	Br	-0.663853	1.000001	0.926929
