data_functionalizedCrystal
_audit_creation_method	'MofGen! by Chris Wilmer'
_symmetry_space_group_name_H-M	'P1'
_symmetry_Int_Tables_number	1
_symmetry_cell_setting	triclinic
loop_
_symmetry_equiv_pos_as_xyz
  x,y,z
_cell_length_a	12.759401
_cell_length_b	12.759399
_cell_length_c	12.759393
_cell_angle_alpha	89.969094
_cell_angle_beta	89.979062
_cell_angle_gamma	90.016641
loop_
_atom_site_label
_atom_site_type_symbol
_atom_site_fract_x
_atom_site_fract_y
_atom_site_fract_z
Zn1	Zn	1.606263	-0.418173	-0.594017
Zn2	Zn	1.606153	-0.593888	-0.418336
Zn3	Zn	1.430562	-0.418229	-0.418352
Zn4	Zn	1.430553	-0.593815	-0.593973
O5	O	1.518383	-0.506026	-0.506170
O6	O	1.753270	-0.441489	-0.570724
O7	O	1.582818	-0.570641	-0.271317
O8	O	1.453919	-0.271200	-0.441680
O9	O	1.753189	-0.570587	-0.441652
O10	O	1.583006	-0.271159	-0.570740
O11	O	1.453812	-0.441584	-0.271329
O12	O	1.283540	-0.441513	-0.441637
O13	O	1.453903	-0.570461	-0.741000
O14	O	1.283533	-0.570516	-0.570665
O15	O	1.582997	-0.441418	-0.741032
O16	O	1.582809	-0.740900	-0.441609
O17	O	1.453796	-0.740846	-0.570649
C18	C	1.245415	-0.506013	-0.506149
C19	C	1.128639	-0.506033	-0.506165
C20	C	1.073801	-0.573307	-0.573244
C21	C	0.964077	-0.573311	-0.573265
C22	C	0.964038	-0.438764	-0.439118
C23	C	1.073760	-0.438756	-0.439104
C24	C	1.518318	-0.778994	-0.506146
C25	C	1.518387	-0.895770	-0.506171
C26	C	1.585641	-0.950625	-0.439056
C27	C	1.585708	-1.060349	-0.439091
C28	C	1.451259	-1.060353	-0.573359
C29	C	1.451198	-0.950631	-0.573328
C30	C	1.792416	-0.506040	-0.506191
C31	C	1.909193	-0.506046	-0.506200
C32	C	1.518461	-0.505925	-0.780203
C33	C	1.518495	-0.505882	-0.896980
C34	C	1.518476	-0.231993	-0.506217
C35	C	1.518516	-0.115216	-0.506237
C36	C	1.585719	-0.438679	-0.951860
C37	C	1.585737	-0.438633	-1.061584
C38	C	1.451303	-0.573004	-1.061538
C39	C	1.451281	-0.573044	-0.951816
C40	C	1.518365	-0.506051	-0.233202
C41	C	1.518535	-0.505798	-0.116426
H42	H	0.919343	-0.383991	-0.384518
C43	C	1.658782	-0.365838	-1.121307
C44	C	1.726091	-0.425301	-1.184327
C45	C	1.793384	-0.358272	-1.239369
H46	H	1.698906	-0.325820	-1.073054
H47	H	1.618641	-0.320058	-1.164166
H48	H	1.766228	-0.471062	-1.141471
H49	H	1.685996	-0.465317	-1.232599
H50	H	1.753243	-0.312493	-1.282229
H51	H	1.833500	-0.318257	-1.191109
H52	H	1.839054	-0.398608	-1.282141
H53	H	1.118411	-0.383967	-0.384480
H54	H	1.396532	-0.627768	-0.907131
C55	C	1.658928	-1.119734	-0.366283
C56	C	1.762830	-1.092865	-0.389255
C57	C	1.830327	-1.147521	-0.322195
H58	H	1.649524	-1.192961	-0.375828
H59	H	1.643646	-1.101789	-0.295657
H60	H	1.778107	-1.110817	-0.459863
H61	H	1.772267	-1.019647	-0.379703
H62	H	1.815045	-1.129577	-0.251570
H63	H	1.820914	-1.220746	-0.331747
H64	H	1.900831	-1.129291	-0.337766
C65	C	1.658418	-0.891004	-0.366022
C66	C	1.598931	-0.828140	-0.298592
C67	C	1.665940	-0.773216	-0.231291
H68	H	1.704171	-0.848043	-0.406118
H69	H	1.698465	-0.939359	-0.325996
H70	H	1.558902	-0.779791	-0.338614
H71	H	1.553181	-0.871075	-0.258474
H72	H	1.705987	-0.821571	-0.191265
H73	H	1.711689	-0.730261	-0.271395
H74	H	1.625587	-0.730564	-0.185526
C75	C	1.658809	-0.365927	-0.892265
C76	C	1.726136	-0.425435	-0.829292
C77	C	1.793487	-0.358448	-0.774391
H78	H	1.618744	-0.320145	-0.849380
H79	H	1.698907	-0.325911	-0.940634
H80	H	1.686042	-0.465433	-0.780929
H81	H	1.766224	-0.471215	-0.872151
H82	H	1.833585	-0.318432	-0.822760
H83	H	1.753414	-0.312669	-0.731512
H84	H	1.839183	-0.398815	-0.731665
C85	C	0.904483	-0.646180	-0.646223
C86	C	0.841563	-0.586779	-0.713698
C87	C	0.786662	-0.653871	-0.780935
H88	H	0.861562	-0.691930	-0.606082
H89	H	0.952852	-0.686225	-0.686219
H90	H	0.793200	-0.546752	-0.673706
H91	H	0.884458	-0.541031	-0.753862
H92	H	0.835031	-0.693916	-0.820931
H93	H	0.743747	-0.699618	-0.740785
H94	H	0.743972	-0.613577	-0.826731
H95	H	1.396555	-1.105035	-0.628034
H96	H	1.396583	-0.627687	-1.106199
H97	H	1.118479	-0.628086	-0.627852
H98	H	1.396432	-0.905965	-0.627986
