data_functionalizedCrystal
_audit_creation_method	'MofGen! by Chris Wilmer'
_symmetry_space_group_name_H-M	'P1'
_symmetry_Int_Tables_number	1
_symmetry_cell_setting	triclinic
loop_
_symmetry_equiv_pos_as_xyz
  x,y,z
_cell_length_a	12.759401
_cell_length_b	21.395361
_cell_length_c	12.759393
_cell_angle_alpha	89.961845
_cell_angle_beta	89.979062
_cell_angle_gamma	90.032233
loop_
_atom_site_label
_atom_site_type_symbol
_atom_site_fract_x
_atom_site_fract_y
_atom_site_fract_z
Zn1	Zn	1.606150	-0.249383	-0.593964
Zn2	Zn	1.605992	-0.354173	-0.418261
Zn3	Zn	1.430448	-0.249416	-0.418299
Zn4	Zn	1.430391	-0.354129	-0.593898
O5	O	1.518245	-0.301775	-0.506106
O6	O	1.753150	-0.263288	-0.570668
O7	O	1.582663	-0.340309	-0.271245
O8	O	1.453845	-0.161734	-0.441645
O9	O	1.753033	-0.340277	-0.441580
O10	O	1.582932	-0.161709	-0.570706
O11	O	1.453692	-0.263345	-0.271273
O12	O	1.283420	-0.263302	-0.441581
O13	O	1.453748	-0.340202	-0.740928
O14	O	1.283378	-0.340234	-0.570593
O15	O	1.582877	-0.263245	-0.740977
O16	O	1.582608	-0.441845	-0.441516
O17	O	1.453595	-0.441813	-0.570556
C18	C	1.245278	-0.301768	-0.506085
C19	C	1.128501	-0.301779	-0.506101
C20	C	1.518106	-0.464563	-0.506047
C21	C	1.518143	-0.534204	-0.506057
C22	C	1.073645	-0.341899	-0.573171
C23	C	0.963921	-0.341901	-0.573192
C24	C	0.963919	-0.261663	-0.439063
C25	C	1.073641	-0.261658	-0.439048
C26	C	1.585380	-0.566913	-0.438935
C27	C	1.585429	-0.632349	-0.438958
C28	C	1.518222	-0.665072	-0.506093
C29	C	1.450981	-0.632355	-0.573229
C30	C	1.450941	-0.566921	-0.573211
C31	C	1.423624	-0.768788	-0.514329
C32	C	1.423662	-0.834221	-0.514340
C33	C	1.518345	-0.866893	-0.506155
C34	C	1.612993	-0.834125	-0.497937
C35	C	1.612953	-0.768691	-0.497919
C36	C	1.518258	-0.736025	-0.506121
C37	C	1.585640	-0.970555	-0.439054
C38	C	1.585690	-1.035991	-0.439085
C39	C	1.451233	-1.035997	-0.573350
C40	C	1.451192	-0.970562	-0.573325
C41	C	1.518394	-0.937844	-0.506171
C42	C	1.792278	-0.301783	-0.506127
C43	C	1.909055	-0.301787	-0.506136
C44	C	1.518324	-0.301715	-0.780139
C45	C	1.518357	-0.301689	-0.896916
C46	C	1.518413	-0.138352	-0.506187
C47	C	1.518484	-0.068711	-0.506222
C48	C	1.585600	-0.261612	-0.951805
C49	C	1.585617	-0.261585	-1.061529
C50	C	1.451147	-0.341719	-1.061465
C51	C	1.451125	-0.341742	-0.951743
C52	C	1.518227	-0.301790	-0.233138
C53	C	1.518397	-0.301639	-0.116362
H54	H	0.919261	-0.374570	-0.627809
O55	O	1.378641	-0.384918	-1.120608
H56	H	1.331871	-0.412785	-1.064003
H57	H	1.640184	-0.658986	-0.384300
O58	O	1.658112	-0.218411	-0.892673
H59	H	1.646811	-0.225164	-0.807153
H60	H	1.640371	-0.228948	-1.106215
H61	H	1.396361	-0.374378	-0.907052
H62	H	1.118309	-0.374567	-0.627773
H63	H	1.346516	-0.742192	-0.520999
O64	O	1.658226	-1.071270	-0.366692
H65	H	1.646978	-1.122268	-0.377997
H66	H	0.919239	-0.228998	-0.384469
H67	H	1.690092	-0.860725	-0.491272
H68	H	1.690018	-0.742012	-0.491231
H69	H	1.118306	-0.228984	-0.384431
H70	H	1.640363	-0.943915	-0.384377
H71	H	1.640102	-0.540277	-0.384257
H72	H	1.396517	-1.062640	-0.628017
H73	H	1.346593	-0.860896	-0.521021
O74	O	1.378645	-0.935276	-0.645694
H75	H	1.331907	-0.969022	-0.692370
H76	H	1.396263	-0.659003	-0.627892
H77	H	1.396188	-0.540289	-0.627871
