data_functionalizedCrystal
_audit_creation_method	'MofGen! by Chris Wilmer'
_symmetry_space_group_name_H-M	'P1'
_symmetry_Int_Tables_number	1
_symmetry_cell_setting	triclinic
loop_
_symmetry_equiv_pos_as_xyz
  x,y,z
_cell_length_a	17.077404
_cell_length_b	21.395362
_cell_length_c	17.077396
_cell_angle_alpha	90.031646
_cell_angle_beta	90.018362
_cell_angle_gamma	90.025469
loop_
_atom_site_label
_atom_site_type_symbol
_atom_site_fract_x
_atom_site_fract_y
_atom_site_fract_z
Zn1	Zn	1.200029	-0.249472	0.443802
Zn2	Zn	1.533363	0.083861	0.777135
Zn3	Zn	1.866696	0.417194	1.110468
Zn4	Zn	1.199926	-0.354254	0.312528
Zn5	Zn	1.533259	-0.020920	0.645862
Zn6	Zn	1.866593	0.312413	0.979195
Zn7	Zn	1.068761	-0.249490	0.312552
Zn8	Zn	1.402095	0.083843	0.645885
Zn9	Zn	1.735428	0.417176	0.979219
Zn10	Zn	1.068719	-0.354212	0.443755
Zn11	Zn	1.402052	-0.020879	0.777088
Zn12	Zn	1.735385	0.312454	1.110421
O13	O	1.134359	-0.301857	0.378159
O14	O	1.467692	0.031476	0.711492
O15	O	1.801025	0.364809	1.044826
O16	O	1.309863	-0.263382	0.426398
O17	O	1.643196	0.069952	0.759731
O18	O	1.976529	0.403285	1.093064
O19	O	1.182501	-0.340381	0.202684
O20	O	1.515835	-0.007048	0.536018
O21	O	1.849168	0.326285	0.869351
O22	O	1.086235	-0.161810	0.329992
O23	O	1.419569	0.171523	0.663326
O24	O	1.752902	0.504857	0.996659
O25	O	1.309787	-0.340364	0.329952
O26	O	1.643120	-0.007031	0.663285
O27	O	1.976453	0.326303	0.996618
O28	O	1.182678	-0.161797	0.426421
O29	O	1.516011	0.171536	0.759754
O30	O	1.849344	0.504870	1.093087
O31	O	1.086135	-0.263412	0.202702
O32	O	1.419468	0.069921	0.536035
O33	O	1.752802	0.403254	0.869369
O34	O	0.958909	-0.263372	0.329947
O35	O	1.292242	0.069961	0.663280
O36	O	1.625575	0.403295	0.996613
O37	O	1.086163	-0.340294	0.553608
O38	O	1.419496	-0.006960	0.886941
O39	O	1.752829	0.326373	1.220274
O40	O	0.958877	-0.340311	0.426341
O41	O	1.292211	-0.006978	0.759674
O42	O	1.625544	0.326356	1.093007
O43	O	1.182636	-0.263342	0.553642
O44	O	1.515970	0.069992	0.886976
O45	O	1.849303	0.403325	1.220309
O46	O	1.182460	-0.441926	0.329906
O47	O	1.515793	-0.108593	0.663239
O48	O	1.849127	0.224741	0.996573
O49	O	1.086062	-0.441896	0.426317
O50	O	1.419396	-0.108562	0.759651
O51	O	1.752729	0.224771	1.092984
C52	C	0.930411	-0.301839	0.378142
C53	C	1.263744	0.031494	0.711475
C54	C	1.597078	0.364827	1.044808
C55	C	0.843161	-0.301847	0.378153
C56	C	1.176495	0.031486	0.711486
C57	C	1.509828	0.364820	1.044819
C58	C	0.802211	-0.261834	0.428449
C59	C	1.135545	0.071500	0.761782
C60	C	1.468878	0.404833	1.095115
C61	C	0.720231	-0.261838	0.428452
C62	C	1.053564	0.071496	0.761786
C63	C	1.386898	0.404829	1.095119
C64	C	0.679202	-0.301859	0.378163
C65	C	1.012535	0.031475	0.711497
C66	C	1.345868	0.364808	1.044830
C67	C	0.720157	-0.341874	0.327862
C68	C	1.053491	-0.008541	0.661195
C69	C	1.386824	0.324793	0.994528
C70	C	0.802136	-0.341866	0.327855
C71	C	1.135470	-0.008533	0.661188
C72	C	1.468803	0.324800	0.994521
C73	C	0.549287	-0.341888	0.327881
C74	C	0.882621	-0.008555	0.661214
C75	C	1.215954	0.324779	0.994548
C76	C	0.467303	-0.341897	0.327889
C77	C	0.800636	-0.008563	0.661222
C78	C	1.133969	0.324770	0.994556
C79	C	0.467382	-0.261859	0.428479
C80	C	0.800715	0.071474	0.761812
C81	C	1.134049	0.404807	1.095145
C82	C	0.549361	-0.261852	0.428472
C83	C	0.882694	0.071482	0.761805
C84	C	1.216028	0.404815	1.095138
C85	C	0.590311	-0.301868	0.378171
C86	C	0.923644	0.031465	0.711504
C87	C	1.256977	0.364799	1.044838
C88	C	1.134267	-0.464645	0.378121
C89	C	1.467600	-0.131312	0.711455
C90	C	1.800933	0.202022	1.044788
C91	C	1.134299	-0.534286	0.378131
C92	C	1.467632	-0.200953	0.711465
C93	C	1.800966	0.132381	1.044798
C94	C	1.184742	-1.036077	0.328085
C95	C	1.518075	-0.702744	0.661419
C96	C	1.851409	-0.369411	0.994752
C97	C	1.184712	-0.970642	0.328067
C98	C	1.518046	-0.637308	0.661400
C99	C	1.851379	-0.303975	0.994733
C100	C	1.134470	-0.937924	0.378215
C101	C	1.467803	-0.604591	0.711549
C102	C	1.801137	-0.271258	1.044882
C103	C	1.084240	-0.970648	0.428372
C104	C	1.417573	-0.637314	0.761705
C105	C	1.750906	-0.303981	1.095038
C106	C	1.084265	-1.036082	0.428383
C107	C	1.417599	-0.702749	0.761716
C108	C	1.750932	-0.369415	1.095050
C109	C	1.128190	-0.834222	0.448914
C110	C	1.461523	-0.500889	0.782247
C111	C	1.794857	-0.167555	1.115581
C112	C	1.128170	-0.768789	0.448904
C113	C	1.461503	-0.435456	0.782237
C114	C	1.794836	-0.102122	1.115571
C115	C	1.134387	-0.736104	0.378180
C116	C	1.467720	-0.402770	0.711513
C117	C	1.801053	-0.069437	1.044846
C118	C	1.140640	-0.768859	0.307463
C119	C	1.473973	-0.435526	0.640797
C120	C	1.807307	-0.102193	0.974130
C121	C	1.140666	-0.834293	0.307475
C122	C	1.473999	-0.500960	0.640808
C123	C	1.807332	-0.167627	0.974141
C124	C	1.134436	-0.866972	0.378208
C125	C	1.467770	-0.533639	0.711542
C126	C	1.801103	-0.200305	1.044875
C127	C	1.184578	-0.632436	0.328003
C128	C	1.517911	-0.299102	0.661336
C129	C	1.851244	0.034231	0.994669
C130	C	1.184543	-0.566999	0.327983
C131	C	1.517876	-0.233666	0.661316
C132	C	1.851209	0.099668	0.994650
C133	C	1.084074	-0.567006	0.428295
C134	C	1.417407	-0.233673	0.761628
C135	C	1.750741	0.099660	1.094962
C136	C	1.084105	-0.632442	0.428308
C137	C	1.417439	-0.299108	0.761641
C138	C	1.750772	0.034225	1.094974
C139	C	1.134361	-0.665152	0.378163
C140	C	1.467695	-0.331819	0.711496
C141	C	1.801028	0.001514	1.044829
C142	C	1.339103	-0.301876	0.378177
C143	C	1.672436	0.031458	0.711511
C144	C	2.005770	0.364791	1.044844
C145	C	1.426353	-0.301883	0.378185
C146	C	1.759686	0.031450	0.711518
C147	C	2.093020	0.364783	1.044852
C148	C	1.134406	-0.301811	0.582903
C149	C	1.467740	0.031522	0.916237
C150	C	1.801073	0.364856	1.249570
C151	C	1.134427	-0.301791	0.670153
C152	C	1.467760	0.031542	1.003487
C153	C	1.801093	0.364875	1.336820
C154	C	1.134473	-0.138434	0.378214
C155	C	1.467806	0.194899	0.711548
C156	C	1.801139	0.528233	1.044881
C157	C	1.134521	-0.068793	0.378238
C158	C	1.467855	0.264541	0.711571
C159	C	1.801188	0.597874	1.044905
C160	C	1.134357	-0.301858	0.174211
C161	C	1.467690	0.031475	0.507545
C162	C	1.801023	0.364809	0.840878
C163	C	1.134489	-0.301701	0.086962
C164	C	1.467822	0.031632	0.420295
C165	C	1.801155	0.364965	0.753629
C166	C	1.184662	-0.261719	0.711163
C167	C	1.517995	0.071614	1.044496
C168	C	1.851329	0.404947	1.377829
C169	C	1.184672	-0.261698	0.793143
C170	C	1.518005	0.071635	1.126477
C171	C	1.851338	0.404968	1.459810
C172	C	1.134449	-0.301753	0.834113
C173	C	1.467782	0.031580	1.167446
C174	C	1.801116	0.364913	1.500780
C175	C	1.084208	-0.341827	0.793098
C176	C	1.417541	-0.008494	1.126431
C177	C	1.750874	0.324839	1.459764
C178	C	1.084195	-0.341845	0.711119
C179	C	1.417528	-0.008511	1.044452
C180	C	1.750862	0.324822	1.377785
C181	C	1.084239	-0.341790	0.963968
C182	C	1.417573	-0.008456	1.297301
C183	C	1.750906	0.324877	1.630634
C184	C	1.084253	-0.341773	1.045952
C185	C	1.417586	-0.008440	1.379286
C186	C	1.750920	0.324893	1.712619
C187	C	1.184716	-0.261643	1.045992
C188	C	1.518049	0.071690	1.379326
C189	C	1.851383	0.405023	1.712659
C190	C	1.184703	-0.261661	0.964013
C191	C	1.518037	0.071673	1.297347
C192	C	1.851370	0.405006	1.630680
C193	C	1.134463	-0.301736	0.923004
C194	C	1.467796	0.031598	1.256337
C195	C	1.801130	0.364931	1.589671
H196	H	0.686893	-0.229256	0.469410
H197	H	1.020227	0.104078	0.802743
H198	H	1.353560	0.437411	1.136077
F199	F	1.030725	-0.384493	0.667474
F200	F	1.364059	-0.051160	1.000807
F201	F	1.697392	0.282173	1.334140
H202	H	1.225562	-0.229104	0.677811
H203	H	1.558895	0.104230	1.011145
H204	H	1.892228	0.437563	1.344478
F205	F	1.030660	-0.667261	0.481695
F206	F	1.363993	-0.333928	0.815028
F207	F	1.697326	-0.000595	1.148361
F208	F	1.237996	-0.532181	0.274600
F209	F	1.571330	-0.198848	0.607933
F210	F	1.904663	0.134486	0.941266
F211	F	1.238227	-1.070887	0.274714
F212	F	1.571560	-0.737553	0.608047
F213	F	1.904894	-0.404220	0.941381
F214	F	1.030594	-0.532190	0.481659
F215	F	1.363927	-0.198857	0.814992
F216	F	1.697261	0.134476	1.148326
F217	F	0.423799	-0.219270	0.482011
F218	F	0.757133	0.114064	0.815345
F219	F	1.090466	0.447397	1.148678
F220	F	0.845718	-0.384454	0.274323
F221	F	1.179051	-0.051121	0.607657
F222	F	1.512384	0.282212	0.940990
F223	F	1.030766	-0.384441	0.920324
F224	F	1.364099	-0.051108	1.253658
F225	F	1.697433	0.282226	1.586991
F226	F	0.593026	-0.219262	0.482001
F227	F	0.926359	0.114072	0.815334
F228	F	1.259692	0.447405	1.148668
F229	F	0.423638	-0.384504	0.274381
F230	F	0.756971	-0.051170	0.607714
F231	F	1.090305	0.282163	0.941047
H232	H	1.225603	-0.229048	0.930658
H233	H	1.558937	0.104286	1.263992
H234	H	1.892270	0.437619	1.597325
F235	F	1.238163	-0.935816	0.274682
F236	F	1.571496	-0.602483	0.608015
F237	F	1.904829	-0.269150	0.941348
H238	H	0.686745	-0.374457	0.286912
H239	H	1.020078	-0.041123	0.620245
H240	H	1.353412	0.292210	0.953578
H241	H	1.123083	-0.742122	0.506484
H242	H	1.456416	-0.408789	0.839817
H243	H	1.789749	-0.075455	1.173151
H244	H	1.043370	-1.062719	0.469226
H245	H	1.376703	-0.729385	0.802560
H246	H	1.710037	-0.396052	1.135893
F247	F	1.238166	-0.219069	0.836785
F248	F	1.571500	0.114264	1.170118
F249	F	1.904833	0.447597	1.503452
F250	F	1.147317	-0.869152	0.232216
F251	F	1.480650	-0.535819	0.565549
F252	F	1.813984	-0.202485	0.898882
H253	H	1.043313	-0.374439	0.826462
H254	H	1.376646	-0.041105	1.159795
H255	H	1.709979	0.292228	1.493128
F256	F	1.238186	-0.218993	1.089638
F257	F	1.571520	0.114341	1.422972
F258	F	1.904853	0.447674	1.756305
F259	F	0.592867	-0.384481	0.274348
F260	F	0.926201	-0.051147	0.607682
F261	F	1.259534	0.282186	0.941015
F262	F	0.845870	-0.219240	0.481978
F263	F	1.179204	0.114094	0.815311
F264	F	1.512537	0.447427	1.148644
H265	H	1.145704	-0.742248	0.249874
H266	H	1.479037	-0.408914	0.583207
H267	H	1.812371	-0.075581	0.916540
H268	H	1.123269	-0.860829	0.506523
H269	H	1.456603	-0.527495	0.839856
H270	H	1.789936	-0.194162	1.173189
F271	F	1.238060	-0.667251	0.274631
F272	F	1.571393	-0.333918	0.607964
F273	F	1.904726	-0.000584	0.941298
F274	F	1.030794	-0.384399	1.089554
F275	F	1.364127	-0.051066	1.422887
F276	F	1.697461	0.282267	1.756221
H277	H	1.043331	-0.944006	0.469202
H278	H	1.376664	-0.610673	0.802535
H279	H	1.709997	-0.277339	1.135869
