data_functionalizedCrystal
_audit_creation_method	'MofGen! by Chris Wilmer'
_symmetry_space_group_name_H-M	'P1'
_symmetry_Int_Tables_number	1
_symmetry_cell_setting	triclinic
loop_
_symmetry_equiv_pos_as_xyz
  x,y,z
_cell_length_a	17.077404
_cell_length_b	17.077402
_cell_length_c	17.077396
_cell_angle_alpha	90.027528
_cell_angle_beta	90.018362
_cell_angle_gamma	90.021463
loop_
_atom_site_label
_atom_site_type_symbol
_atom_site_fract_x
_atom_site_fract_y
_atom_site_fract_z
Zn1	Zn	1.200051	-0.312551	0.443824
Zn2	Zn	1.199957	-0.443826	0.312560
Zn3	Zn	1.068783	-0.312573	0.312575
Zn4	Zn	1.068750	-0.443774	0.443786
O5	O	1.134385	-0.378181	0.378186
O6	O	1.309886	-0.329977	0.426421
O7	O	1.182531	-0.426446	0.202715
O8	O	1.086250	-0.202723	0.330007
O9	O	1.309816	-0.426424	0.329982
O10	O	1.182692	-0.202707	0.426435
O11	O	1.086158	-0.330015	0.202726
O12	O	0.958932	-0.329965	0.329970
O13	O	1.086193	-0.426336	0.553638
O14	O	0.958907	-0.426357	0.426371
O15	O	1.182659	-0.329927	0.553666
O16	O	1.182499	-0.553666	0.329946
O17	O	1.086101	-0.553628	0.426357
C18	C	0.930437	-0.378158	0.378169
C19	C	0.843188	-0.378168	0.378180
C20	C	0.802234	-0.328037	0.428472
C21	C	0.720254	-0.328042	0.428476
C22	C	0.679228	-0.378183	0.378190
C23	C	0.720187	-0.428315	0.327892
C24	C	0.802166	-0.428306	0.327885
C25	C	0.549317	-0.428333	0.327912
C26	C	0.467333	-0.428344	0.327920
C27	C	0.467405	-0.328070	0.428502
C28	C	0.549384	-0.328060	0.428495
C29	C	0.590337	-0.378194	0.378198
C30	C	1.134307	-0.582129	0.378163
C31	C	1.134346	-0.669378	0.378179
C32	C	1.184536	-0.710292	0.428430
C33	C	1.184569	-0.792273	0.428447
C34	C	1.134415	-0.833338	0.378208
C35	C	1.084220	-0.792418	0.327955
C36	C	1.084183	-0.710439	0.327943
C37	C	1.084300	-0.963288	0.327983
C38	C	1.084337	-1.045273	0.327994
C39	C	1.184686	-1.045122	0.428486
C40	C	1.184649	-0.963143	0.428474
C41	C	1.134455	-0.922229	0.378220
C42	C	1.339130	-0.378204	0.378204
C43	C	1.426379	-0.378213	0.378212
C44	C	1.134433	-0.378123	0.582931
C45	C	1.134453	-0.378098	0.670181
C46	C	1.134485	-0.173436	0.378227
C47	C	1.134527	-0.086187	0.378244
C48	C	1.134383	-0.378182	0.174238
C49	C	1.134515	-0.377985	0.086989
C50	C	1.184685	-0.327894	0.711186
C51	C	1.184694	-0.327868	0.793167
C52	C	1.134475	-0.378051	0.834140
C53	C	1.084238	-0.428257	0.793128
C54	C	1.084225	-0.428279	0.711149
C55	C	1.084269	-0.428210	0.963999
C56	C	1.084283	-0.428190	1.045983
C57	C	1.184739	-0.327799	1.046016
C58	C	1.184726	-0.327821	0.964037
C59	C	1.134489	-0.378028	0.923031
H60	H	0.582659	-0.469156	0.286953
O61	O	1.233410	-0.831895	0.477272
C62	C	1.277665	-0.778071	0.521615
H63	H	1.280359	-0.719649	0.489459
H64	H	1.248900	-0.769345	0.581215
C65	C	1.357915	-0.881737	0.572474
C66	C	1.361230	-0.809985	0.532976
H67	H	1.409460	-0.901424	0.579485
H68	H	1.328098	-0.918000	0.542602
H69	H	1.333940	-0.874456	0.622136
H70	H	1.385195	-0.817269	0.483311
H71	H	1.391052	-0.773723	0.562840
H72	H	1.225492	-0.929708	0.469378
H73	H	1.043495	-1.078705	0.287088
H74	H	1.225642	-0.286917	1.079407
O75	O	1.233522	-1.084740	0.477327
C76	C	1.277774	-1.030916	0.521673
H77	H	1.280476	-0.972496	0.489514
H78	H	1.249000	-1.022185	0.581268
C79	C	1.358010	-1.134584	0.572549
C80	C	1.361335	-1.062834	0.533048
H81	H	1.409554	-1.154273	0.579569
H82	H	1.328196	-1.170847	0.542675
H83	H	1.334029	-1.127298	0.622207
H84	H	1.385306	-1.070122	0.483386
H85	H	1.391155	-1.026572	0.562914
O86	O	0.589150	-0.279393	0.477451
C87	C	0.569163	-0.296662	0.555661
H88	H	0.509633	-0.326844	0.557244
H89	H	0.615303	-0.337048	0.582023
C90	C	0.638536	-0.183126	0.601399
C91	C	0.565416	-0.220191	0.603344
H92	H	0.636227	-0.135956	0.630814
H93	H	0.652004	-0.171493	0.548708
H94	H	0.676977	-0.216789	0.623366
H95	H	0.526978	-0.186531	0.581368
H96	H	0.551942	-0.231816	0.656032
H97	H	1.225600	-0.286988	0.826550
O98	O	1.035513	-0.923664	0.279095
C99	C	0.991240	-0.977486	0.234769
H100	H	1.023420	-1.035898	0.232085
H101	H	0.931611	-0.986238	0.263465
C102	C	0.940430	-0.873808	0.154508
C103	C	0.979958	-0.945549	0.151206
H104	H	0.933467	-0.854107	0.102963
H105	H	0.970255	-0.837546	0.184373
H106	H	0.890744	-0.881111	0.178424
H107	H	1.029647	-0.938244	0.127298
H108	H	0.950141	-0.981809	0.121335
O109	O	0.841917	-0.477118	0.279118
C110	C	0.821858	-0.555377	0.296125
H111	H	0.799346	-0.559424	0.358829
H112	H	0.774252	-0.575849	0.254007
C113	C	0.922317	-0.602774	0.209878
C114	C	0.894673	-0.607745	0.286895
H115	H	0.967231	-0.635078	0.204182
H116	H	0.935829	-0.550049	0.198418
H117	H	0.882638	-0.619832	0.174789
H118	H	0.934348	-0.590677	0.321982
H119	H	0.881169	-0.660468	0.298362
O120	O	1.035585	-0.477021	0.924071
C121	C	1.080258	-0.527743	0.876666
H122	H	1.139756	-0.500060	0.864411
H123	H	1.088862	-0.585909	0.908246
C124	C	0.963987	-0.575972	0.813828
C125	C	1.037061	-0.541968	0.798771
H126	H	0.937340	-0.584751	0.765780
H127	H	0.933889	-0.541802	0.845768
H128	H	0.971167	-0.624440	0.840146
H129	H	1.029880	-0.493497	0.772462
H130	H	1.067157	-0.576130	0.766825
O131	O	0.680374	-0.476940	0.278933
C132	C	0.700391	-0.459697	0.200726
H133	H	0.722938	-0.396979	0.196868
H134	H	0.747959	-0.501749	0.180130
C135	C	0.599850	-0.545812	0.153068
C136	C	0.627536	-0.468777	0.148328
H137	H	0.554912	-0.551416	0.120745
H138	H	0.586365	-0.557431	0.205757
H139	H	0.639497	-0.580846	0.135906
H140	H	0.587893	-0.433746	0.165499
H141	H	0.641013	-0.457152	0.095640
O142	O	1.233146	-0.670318	0.477271
C143	C	1.188402	-0.622918	0.527935
H144	H	1.128925	-0.610703	0.500192
H145	H	1.179755	-0.654483	0.586103
C146	C	1.304597	-0.560005	0.576252
C147	C	1.231550	-0.544997	0.542174
H148	H	1.331214	-0.511940	0.585039
H149	H	1.334743	-0.591941	0.542121
H150	H	1.297381	-0.586311	0.624721
H151	H	1.238767	-0.518700	0.493701
H152	H	1.201406	-0.513054	0.576298
O153	O	1.035342	-0.476922	0.832891
C154	C	0.957112	-0.459776	0.812837
H155	H	0.953175	-0.397070	0.790317
H156	H	0.936565	-0.501869	0.765237
C157	C	0.909567	-0.545905	0.913310
C158	C	0.904730	-0.468887	0.885657
H159	H	0.877254	-0.551528	0.958227
H160	H	0.962271	-0.557460	0.926820
H161	H	0.892446	-0.580974	0.873637
H162	H	0.921860	-0.433820	0.925326
H163	H	0.852027	-0.457327	0.872155
O164	O	1.233534	-0.279001	0.924356
C165	C	1.277891	-0.234695	0.978125
H166	H	1.245753	-0.231954	1.036560
H167	H	1.337495	-0.263445	0.986845
C168	C	1.328712	-0.154529	0.874374
C169	C	1.289236	-0.151157	0.946143
H170	H	1.335714	-0.102999	0.854646
H171	H	1.298831	-0.184380	0.838148
H172	H	1.378378	-0.178491	0.881651
H173	H	1.239568	-0.127204	0.938864
H174	H	1.319109	-0.121299	0.982368
O175	O	1.035523	-0.477166	0.671344
C176	C	1.052637	-0.555396	0.691376
H177	H	1.115347	-0.559354	0.713929
H178	H	1.010546	-0.575904	0.738945
C179	C	0.966461	-0.602940	0.590836
C180	C	1.043483	-0.607802	0.618530
H181	H	0.960811	-0.635268	0.545903
H182	H	0.954928	-0.550235	0.577342
H183	H	0.931393	-0.620029	0.630483
H184	H	1.078548	-0.590704	0.578887
H185	H	1.055022	-0.660505	0.632016
H186	H	0.835631	-0.287209	0.469423
H187	H	1.043388	-0.469051	1.079341
H188	H	1.043312	-0.677128	0.287025
O189	O	0.427600	-0.477073	0.278998
C190	C	0.481323	-0.521331	0.234613
H191	H	0.539768	-0.489169	0.231942
H192	H	0.490040	-0.580985	0.263249
C193	C	0.377500	-0.572038	0.154335
C194	C	0.449281	-0.532533	0.151048
H195	H	0.357734	-0.578952	0.102789
H196	H	0.341304	-0.542223	0.184239
H197	H	0.384774	-0.621746	0.178201
H198	H	0.442004	-0.482823	0.127191
H199	H	0.485474	-0.562340	0.121138
H200	H	0.434057	-0.287247	0.469455
H201	H	1.043380	-0.825860	0.287053
H202	H	1.225582	-0.287032	0.677832
H203	H	0.686913	-0.287222	0.469431
