data_functionalizedCrystal
_audit_creation_method	'MofGen! by Chris Wilmer'
_symmetry_space_group_name_H-M	'P1'
_symmetry_Int_Tables_number	1
_symmetry_cell_setting	triclinic
loop_
_symmetry_equiv_pos_as_xyz
  x,y,z
_cell_length_a	12.759401
_cell_length_b	12.759399
_cell_length_c	12.759393
_cell_angle_alpha	89.969094
_cell_angle_beta	89.979062
_cell_angle_gamma	90.016641
loop_
_atom_site_label
_atom_site_type_symbol
_atom_site_fract_x
_atom_site_fract_y
_atom_site_fract_z
Zn1	Zn	1.606263	-0.418173	-0.594017
Zn2	Zn	2.106263	0.081827	-0.094017
Zn3	Zn	1.606153	-0.593888	-0.418336
Zn4	Zn	2.106153	-0.093888	0.081664
Zn5	Zn	1.430562	-0.418229	-0.418352
Zn6	Zn	1.930562	0.081771	0.081648
Zn7	Zn	1.430553	-0.593815	-0.593973
Zn8	Zn	1.930553	-0.093815	-0.093973
O9	O	1.518383	-0.506026	-0.506170
O10	O	2.018383	-0.006026	-0.006170
O11	O	1.753270	-0.441489	-0.570724
O12	O	2.253270	0.058511	-0.070724
O13	O	1.582818	-0.570641	-0.271317
O14	O	2.082818	-0.070641	0.228683
O15	O	1.453919	-0.271200	-0.441680
O16	O	1.953919	0.228800	0.058320
O17	O	1.753189	-0.570587	-0.441652
O18	O	2.253189	-0.070587	0.058348
O19	O	1.583006	-0.271159	-0.570740
O20	O	2.083006	0.228841	-0.070740
O21	O	1.453812	-0.441584	-0.271329
O22	O	1.953812	0.058416	0.228671
O23	O	1.283540	-0.441513	-0.441637
O24	O	1.783540	0.058487	0.058363
O25	O	1.453903	-0.570461	-0.741000
O26	O	1.953903	-0.070461	-0.241000
O27	O	1.283533	-0.570516	-0.570665
O28	O	1.783533	-0.070516	-0.070665
O29	O	1.582997	-0.441418	-0.741032
O30	O	2.082997	0.058582	-0.241032
O31	O	1.582809	-0.740900	-0.441609
O32	O	2.082809	-0.240900	0.058391
O33	O	1.453796	-0.740846	-0.570649
O34	O	1.953796	-0.240846	-0.070649
C35	C	1.245415	-0.506013	-0.506149
C36	C	1.745415	-0.006013	-0.006149
C37	C	1.128639	-0.506033	-0.506165
C38	C	1.628639	-0.006033	-0.006165
C39	C	1.073801	-0.573307	-0.573244
C40	C	1.573801	-0.073307	-0.073244
C41	C	0.964077	-0.573311	-0.573265
C42	C	1.464077	-0.073311	-0.073265
C43	C	0.964038	-0.438764	-0.439118
C44	C	1.464038	0.061236	0.060882
C45	C	1.073760	-0.438756	-0.439104
C46	C	1.573760	0.061244	0.060896
C47	C	1.518318	-0.778994	-0.506146
C48	C	2.018318	-0.278994	-0.006146
C49	C	1.518387	-0.895770	-0.506171
C50	C	2.018387	-0.395770	-0.006171
C51	C	1.585641	-0.950625	-0.439056
C52	C	2.085641	-0.450625	0.060944
C53	C	1.585708	-1.060349	-0.439091
C54	C	2.085708	-0.560349	0.060909
C55	C	1.451259	-1.060353	-0.573359
C56	C	1.951259	-0.560353	-0.073359
C57	C	1.451198	-0.950631	-0.573328
C58	C	1.951198	-0.450631	-0.073328
C59	C	1.792416	-0.506040	-0.506191
C60	C	2.292416	-0.006040	-0.006191
C61	C	1.909193	-0.506046	-0.506200
C62	C	2.409193	-0.006046	-0.006200
C63	C	1.518461	-0.505925	-0.780203
C64	C	2.018461	-0.005925	-0.280203
C65	C	1.518495	-0.505882	-0.896980
C66	C	2.018495	-0.005882	-0.396980
C67	C	1.518476	-0.231993	-0.506217
C68	C	2.018476	0.268007	-0.006217
C69	C	1.518516	-0.115216	-0.506237
C70	C	2.018516	0.384784	-0.006237
C71	C	1.585719	-0.438679	-0.951860
C72	C	2.085719	0.061321	-0.451860
C73	C	1.585737	-0.438633	-1.061584
C74	C	2.085737	0.061367	-0.561584
C75	C	1.451303	-0.573004	-1.061538
C76	C	1.951303	-0.073004	-0.561538
C77	C	1.451281	-0.573044	-0.951816
C78	C	1.951281	-0.073044	-0.451816
C79	C	1.518365	-0.506051	-0.233202
C80	C	2.018365	-0.006051	0.266798
C81	C	1.518535	-0.505798	-0.116426
C82	C	2.018535	-0.005798	0.383574
H83	H	1.118479	-0.628086	-0.627852
H84	H	1.618479	-0.128086	-0.127852
C85	C	1.377214	-0.890287	-0.647156
C86	C	1.877214	-0.390287	-0.147156
H87	H	1.337197	-0.938673	-0.687147
H88	H	1.837197	-0.438673	-0.187147
H89	H	1.417357	-0.847412	-0.692954
H90	H	1.917357	-0.347412	-0.192954
H91	H	1.331431	-0.847557	-0.606907
H92	H	1.831431	-0.347557	-0.106907
H93	H	0.919432	-0.628090	-0.627889
H94	H	1.419432	-0.128090	-0.127889
H95	H	1.640474	-1.105007	-0.384441
H96	H	2.140474	-0.605007	0.115559
C97	C	1.134087	-0.364753	-0.365311
C98	C	1.634087	0.135247	0.134689
H99	H	1.085690	-0.324696	-0.325364
H100	H	1.585690	0.175304	0.174636
H101	H	1.176919	-0.319023	-0.405576
H102	H	1.676919	0.180977	0.094424
H103	H	1.176857	-0.404892	-0.319456
H104	H	1.676857	0.095108	0.180544
H105	H	1.640446	-0.383989	-0.907216
H106	H	2.140446	0.116011	-0.407216
H107	H	0.919343	-0.383991	-0.384518
H108	H	1.419343	0.116009	0.115482
C109	C	1.377347	-1.120704	-0.647215
C110	C	1.877347	-0.620704	-0.147215
H111	H	1.387006	-1.193907	-0.637614
H112	H	1.887006	-0.693907	-0.137614
H113	H	1.392671	-1.102655	-0.717815
H114	H	1.892671	-0.602655	-0.217815
H115	H	1.306752	-1.102791	-0.631761
H116	H	1.806752	-0.602791	-0.131761
H117	H	1.640352	-0.905960	-0.384374
H118	H	2.140352	-0.405960	0.115626
H119	H	1.640476	-0.383908	-1.106263
H120	H	2.140476	0.116092	-0.606263
C121	C	1.377332	-0.646969	-0.891438
C122	C	1.877332	-0.146969	-0.391438
H123	H	1.386939	-0.637363	-0.818239
H124	H	1.886939	-0.137363	-0.318239
H125	H	1.392681	-0.717556	-0.909405
H126	H	1.892681	-0.217556	-0.409405
H127	H	1.306747	-0.631572	-0.909411
H128	H	1.806747	-0.131572	-0.409411
C129	C	1.377384	-0.646885	-1.121861
C130	C	1.877384	-0.146885	-0.621861
H131	H	1.387032	-0.637246	-1.195068
H132	H	1.887032	-0.137246	-0.695068
H133	H	1.306794	-0.631515	-1.103873
H134	H	1.806794	-0.131515	-0.603873
H135	H	1.392740	-0.717486	-1.103866
H136	H	1.892740	-0.217486	-0.603866
