data_functionalizedCrystal
_audit_creation_method	'MofGen! by Chris Wilmer'
_symmetry_space_group_name_H-M	'P1'
_symmetry_Int_Tables_number	1
_symmetry_cell_setting	triclinic
loop_
_symmetry_equiv_pos_as_xyz
  x,y,z
_cell_length_a	17.077402
_cell_length_b	17.077404
_cell_length_c	17.077396
_cell_angle_alpha	89.982480
_cell_angle_beta	89.971638
_cell_angle_gamma	90.018878
loop_
_atom_site_label
_atom_site_type_symbol
_atom_site_fract_x
_atom_site_fract_y
_atom_site_fract_z
Zn1	Zn	-0.312598	1.200034	-0.443854
Zn2	Zn	-0.443875	1.199945	-0.312590
Zn3	Zn	-0.312617	1.068771	-0.312601
Zn4	Zn	-0.443815	1.068732	-0.443813
O5	O	-0.378226	1.134370	-0.378214
O6	O	-0.330030	1.309869	-0.426454
O7	O	-0.426496	1.182523	-0.202744
O8	O	-0.202767	1.086237	-0.330034
O9	O	-0.426478	1.309803	-0.330015
O10	O	-0.202754	1.182675	-0.426464
O11	O	-0.330061	1.086150	-0.202753
O12	O	-0.330003	0.958919	-0.329994
O13	O	-0.426377	1.086171	-0.553665
O14	O	-0.426394	0.958890	-0.426395
O15	O	-0.329972	1.182638	-0.553695
O16	O	-0.553714	1.182486	-0.329975
O17	O	-0.553670	1.086084	-0.426384
C18	C	-0.378195	0.930423	-0.378192
C19	C	-0.378200	0.843173	-0.378201
C20	C	-0.428530	0.467364	-0.428354
C21	C	-0.428519	0.549345	-0.428342
C22	C	-0.378247	0.590324	-0.378227
C23	C	-0.327988	0.549318	-0.328115
C24	C	-0.328002	0.467339	-0.328123
C25	C	-0.327959	0.720188	-0.328102
C26	C	-0.327943	0.802173	-0.328094
C27	C	-0.428476	0.802194	-0.428320
C28	C	-0.428491	0.720215	-0.428329
C29	C	-0.378230	0.679215	-0.378218
C30	C	-0.582174	1.134292	-0.378191
C31	C	-0.669424	1.134331	-0.378207
C32	C	-0.710340	1.184519	-0.428459
C33	C	-0.792320	1.184552	-0.428476
C34	C	-0.833383	1.134400	-0.378236
C35	C	-0.792462	1.084207	-0.327982
C36	C	-0.710483	1.084170	-0.327970
C37	C	-0.963332	1.084287	-0.328009
C38	C	-1.045317	1.084324	-0.328020
C39	C	-1.045169	1.184669	-0.428515
C40	C	-0.963190	1.184633	-0.428503
C41	C	-0.922274	1.134440	-0.378248
C42	C	-0.173482	1.134470	-0.378255
C43	C	-0.086232	1.134512	-0.378272
C44	C	-0.378166	1.134410	-0.582959
C45	C	-0.378140	1.134427	-0.670209
C46	C	-0.378259	1.339115	-0.378237
C47	C	-0.378272	1.426364	-0.378247
C48	C	-0.327920	1.084261	-0.711202
C49	C	-0.327902	1.084273	-0.793183
C50	C	-0.378101	1.134457	-0.834168
C51	C	-0.428326	1.184625	-0.793168
C52	C	-0.428347	1.184608	-0.711189
C53	C	-0.428277	1.184659	-0.964039
C54	C	-0.428255	1.184678	-1.046023
C55	C	-0.327832	1.084325	-1.046032
C56	C	-0.327853	1.084307	-0.964053
C57	C	-0.378078	1.134477	-0.923059
C58	C	-0.378230	1.134376	-0.174266
C59	C	-0.378035	1.134512	-0.087017
H60	H	-0.469446	0.582723	-0.469142
O61	O	-0.273730	0.846376	-0.274036
H62	H	-0.212140	0.830653	-0.287597
O63	O	-0.273759	0.675952	-0.274055
H64	H	-0.212162	0.691687	-0.287628
H65	H	-0.469131	1.225541	-1.079391
O66	O	-0.273770	0.593513	-0.274054
H67	H	-0.212182	0.577787	-0.287621
H68	H	-0.286974	1.043447	-0.930685
H69	H	-0.287011	1.043420	-0.826556
H70	H	-0.825630	1.225426	-0.469390
O71	O	-0.482514	1.238718	-0.666975
H72	H	-0.474102	1.230270	-0.603085
H73	H	-1.078748	1.043483	-0.287114
H74	H	-0.286936	1.043476	-1.079413
H75	H	-0.469398	0.835580	-0.469125
H76	H	-1.078486	1.225537	-0.469436
H77	H	-0.287076	0.433958	-0.287324
H78	H	-0.469168	1.225519	-0.930664
O79	O	-0.666353	1.030038	-0.273766
H80	H	-0.602450	1.038432	-0.282203
H81	H	-0.825902	1.043369	-0.287079
H82	H	-0.676911	1.225362	-0.469367
H83	H	-0.929756	1.225474	-0.469408
H84	H	-0.287038	1.043400	-0.677838
H85	H	-0.469202	1.225481	-0.826545
H86	H	-0.469463	0.434005	-0.469168
H87	H	-0.469423	0.686852	-0.469141
H88	H	-0.930021	1.043412	-0.287089
