data_functionalizedCrystal
_audit_creation_method	'MofGen! by Chris Wilmer'
_symmetry_space_group_name_H-M	'P1'
_symmetry_Int_Tables_number	1
_symmetry_cell_setting	triclinic
loop_
_symmetry_equiv_pos_as_xyz
  x,y,z
_cell_length_a	12.759401
_cell_length_b	17.077402
_cell_length_c	12.759393
_cell_angle_alpha	89.965312
_cell_angle_beta	89.979062
_cell_angle_gamma	90.024408
loop_
_atom_site_label
_atom_site_type_symbol
_atom_site_fract_x
_atom_site_fract_y
_atom_site_fract_z
Zn1	Zn	1.606207	-0.312438	-0.593990
Zn2	Zn	2.106207	0.187562	-0.093990
Zn3	Zn	1.606073	-0.443724	-0.418297
Zn4	Zn	2.106073	0.056276	0.081703
Zn5	Zn	1.430505	-0.312480	-0.418325
Zn6	Zn	1.930505	0.187520	0.081675
Zn7	Zn	1.430472	-0.443669	-0.593934
Zn8	Zn	1.930472	0.056331	-0.093934
O9	O	1.518314	-0.378078	-0.506136
O10	O	2.018314	0.121922	-0.006136
O11	O	1.753210	-0.329859	-0.570695
O12	O	2.253210	0.170141	-0.070695
O13	O	1.582741	-0.426355	-0.271279
O14	O	2.082741	0.073645	0.228721
O15	O	1.453882	-0.202628	-0.441662
O16	O	1.953882	0.297372	0.058338
O17	O	1.753111	-0.426314	-0.441614
O18	O	2.253111	0.073686	0.058386
O19	O	1.582969	-0.202597	-0.570722
O20	O	2.082969	0.297403	-0.070722
O21	O	1.453753	-0.329930	-0.271300
O22	O	1.953753	0.170070	0.228700
O23	O	1.283480	-0.329877	-0.441608
O24	O	1.783480	0.170123	0.058392
O25	O	1.453826	-0.426221	-0.740962
O26	O	1.953826	0.073779	-0.240962
O27	O	1.283456	-0.426261	-0.570627
O28	O	1.783456	0.073739	-0.070627
O29	O	1.582937	-0.329806	-0.741003
O30	O	2.082937	0.170194	-0.241003
O31	O	1.582709	-0.553564	-0.441560
O32	O	2.082709	-0.053564	0.058440
O33	O	1.453696	-0.553524	-0.570600
O34	O	1.953696	-0.053524	-0.070600
C35	C	1.245347	-0.378068	-0.506115
C36	C	1.745347	0.121932	-0.006115
C37	C	1.128570	-0.378083	-0.506131
C38	C	1.628570	0.121917	-0.006131
C39	C	1.073723	-0.428347	-0.573206
C40	C	1.573723	0.071653	-0.073206
C41	C	0.963999	-0.428350	-0.573227
C42	C	1.463999	0.071650	-0.073227
C43	C	0.963979	-0.327823	-0.439089
C44	C	1.463979	0.172177	0.060911
C45	C	1.073701	-0.327817	-0.439075
C46	C	1.573701	0.172183	0.060925
C47	C	1.518213	-0.582026	-0.506094
C48	C	2.018213	-0.082026	-0.006094
C49	C	1.518266	-0.669276	-0.506111
C50	C	2.018266	-0.169276	-0.006111
C51	C	1.585511	-0.710261	-0.438993
C52	C	2.085511	-0.210261	0.061007
C53	C	1.585563	-0.792241	-0.439019
C54	C	2.085563	-0.292241	0.060981
C55	C	1.518362	-0.833235	-0.506161
C56	C	2.018362	-0.333235	-0.006161
C57	C	1.451114	-0.792244	-0.573287
C58	C	1.951114	-0.292244	-0.073287
C59	C	1.451068	-0.710265	-0.573265
C60	C	1.951068	-0.210265	-0.073265
C61	C	1.451211	-0.963114	-0.573327
C62	C	1.951211	-0.463114	-0.073327
C63	C	1.451255	-1.045099	-0.573348
C64	C	1.951255	-0.545099	-0.073348
C65	C	1.585705	-1.045090	-0.439082
C66	C	2.085705	-0.545090	0.060918
C67	C	1.585660	-0.963111	-0.439059
C68	C	2.085660	-0.463111	0.060941
C69	C	1.518410	-0.922126	-0.506184
C70	C	2.018410	-0.422126	-0.006184
C71	C	1.792347	-0.378088	-0.506158
C72	C	2.292347	0.121912	-0.006158
C73	C	1.909124	-0.378093	-0.506167
C74	C	2.409124	0.121907	-0.006167
C75	C	1.518393	-0.378003	-0.780170
C76	C	2.018393	0.121997	-0.280170
C77	C	1.518426	-0.377971	-0.896946
C78	C	2.018426	0.122029	-0.396946
C79	C	1.518445	-0.173334	-0.506201
C80	C	2.018445	0.326666	-0.006201
C81	C	1.518500	-0.086084	-0.506229
C82	C	2.018500	0.413916	-0.006229
C83	C	1.585660	-0.327759	-0.951831
C84	C	2.085660	0.172241	-0.451831
C85	C	1.585677	-0.327725	-1.061555
C86	C	2.085677	0.172275	-0.561555
C87	C	1.451226	-0.428121	-1.061500
C88	C	1.951226	0.071879	-0.561500
C89	C	1.451203	-0.428150	-0.951778
C90	C	1.951203	0.071850	-0.451778
C91	C	1.518296	-0.378096	-0.233169
C92	C	2.018296	0.121904	0.266831
C93	C	1.518466	-0.377907	-0.116393
C94	C	2.018466	0.122093	0.383607
H95	H	1.640229	-0.676889	-0.384314
H96	H	2.140229	-0.176889	0.115686
C97	C	1.134037	-0.272525	-0.365287
C98	C	1.634037	0.227475	0.134713
H99	H	1.085646	-0.242597	-0.325342
H100	H	1.585646	0.257403	0.174658
H101	H	1.176876	-0.238359	-0.405555
H102	H	1.676876	0.261641	0.094445
H103	H	1.176802	-0.302515	-0.319430
H104	H	1.676802	0.197485	0.180570
C105	C	1.659644	-0.272503	-1.121929
C106	C	2.159644	0.227497	-0.621929
H107	H	1.650027	-0.279666	-1.195130
H108	H	2.150027	0.220334	-0.695130
H109	H	1.730219	-0.284008	-1.103952
H110	H	2.230219	0.215992	-0.603952
H111	H	1.644303	-0.219760	-1.103963
H112	H	2.144303	0.280240	-0.603963
H113	H	0.919291	-0.286900	-0.384493
H114	H	1.419291	0.213100	0.115507
H115	H	1.396497	-0.468977	-1.106157
H116	H	1.896497	0.031023	-0.606157
H117	H	1.640320	-0.825608	-0.384364
H118	H	2.140320	-0.325608	0.115636
C119	C	1.659579	-0.918019	-0.365207
C120	C	2.159579	-0.418019	0.134793
H121	H	1.699645	-0.954168	-0.325240
H122	H	2.199645	-0.454168	0.174760
H123	H	1.619396	-0.886090	-0.319388
H124	H	2.119396	-0.386090	0.180612
H125	H	1.705318	-0.885988	-0.405440
H126	H	2.205318	-0.385988	0.094560
C127	C	0.903671	-0.483638	-0.647011
C128	C	1.403671	0.016362	-0.147011
H129	H	0.952068	-0.513574	-0.686939
H130	H	1.452068	-0.013574	-0.186939
H131	H	0.860910	-0.453653	-0.692868
H132	H	1.360910	0.046347	-0.192868
H133	H	0.860830	-0.517810	-0.606743
H134	H	1.360830	-0.017810	-0.106743
C135	C	1.659667	-1.090170	-0.365233
C136	C	2.159667	-0.590170	0.134767
H137	H	1.650075	-1.144865	-0.374864
H138	H	2.150075	-0.644865	0.125136
H139	H	1.644302	-1.076782	-0.294631
H140	H	2.144302	-0.576782	0.205369
H141	H	1.730251	-1.076685	-0.380655
H142	H	2.230251	-0.576685	0.119345
C143	C	1.134076	-0.483630	-0.646975
C144	C	1.634076	0.016370	-0.146975
H145	H	1.085692	-0.513559	-0.686932
H146	H	1.585692	-0.013559	-0.186932
H147	H	1.176844	-0.517795	-0.606702
H148	H	1.676844	-0.017795	-0.106702
H149	H	1.176913	-0.453634	-0.692821
H150	H	1.676913	0.046366	-0.192821
H151	H	1.396554	-1.078474	-0.628040
H152	H	1.896554	-0.578474	-0.128040
C153	C	1.377250	-0.483391	-0.891400
C154	C	1.877250	0.016609	-0.391400
H155	H	1.337230	-0.513281	-0.939769
H156	H	1.837230	-0.013281	-0.439769
H157	H	1.331485	-0.453375	-0.848597
H158	H	1.831485	0.046625	-0.348597
H159	H	1.417421	-0.517607	-0.848597
H160	H	1.917421	-0.017607	-0.348597
H161	H	1.396402	-0.825628	-0.627959
H162	H	1.896402	-0.325628	-0.127959
C163	C	1.377241	-0.918032	-0.647167
C164	C	1.877241	-0.418032	-0.147167
H165	H	1.337219	-0.954186	-0.687151
H166	H	1.837219	-0.454186	-0.187151
H167	H	1.417391	-0.886000	-0.692970
H168	H	1.917391	-0.386000	-0.192970
H169	H	1.331463	-0.886105	-0.606924
H170	H	1.831463	-0.386105	-0.106924
H171	H	1.396311	-0.676896	-0.627921
H172	H	1.896311	-0.176896	-0.127921
C173	C	1.659588	-0.272554	-0.891520
C174	C	2.159588	0.227446	-0.391520
H175	H	1.699623	-0.242640	-0.939926
H176	H	2.199623	0.257360	-0.439926
H177	H	1.705340	-0.302589	-0.848711
H178	H	2.205340	0.197411	-0.348711
H179	H	1.619400	-0.238360	-0.848727
H180	H	2.119400	0.261640	-0.348727
