data_functionalizedCrystal
_audit_creation_method	'MofGen! by Chris Wilmer'
_symmetry_space_group_name_H-M	'P1'
_symmetry_Int_Tables_number	1
_symmetry_cell_setting	triclinic
loop_
_symmetry_equiv_pos_as_xyz
  x,y,z
_cell_length_a	12.759401
_cell_length_b	17.077402
_cell_length_c	12.759393
_cell_angle_alpha	89.966444
_cell_angle_beta	89.981425
_cell_angle_gamma	90.023919
loop_
_atom_site_label
_atom_site_type_symbol
_atom_site_fract_x
_atom_site_fract_y
_atom_site_fract_z
Zn1	Zn	1.606191	-0.312453	-0.593971
Zn2	Zn	2.106191	0.187547	-0.093971
Zn3	Zn	1.606058	-0.443741	-0.418285
Zn4	Zn	2.106058	0.056259	0.081715
Zn5	Zn	1.430493	-0.312494	-0.418310
Zn6	Zn	1.930493	0.187506	0.081690
Zn7	Zn	1.430454	-0.443681	-0.593926
Zn8	Zn	1.930454	0.056319	-0.093926
O9	O	1.518299	-0.378092	-0.506123
O10	O	2.018299	0.121908	-0.006123
O11	O	1.753194	-0.329876	-0.570674
O12	O	2.253194	0.170124	-0.070674
O13	O	1.582730	-0.426374	-0.271267
O14	O	2.082730	0.073626	0.228733
O15	O	1.453871	-0.202642	-0.441641
O16	O	1.953871	0.297358	0.058359
O17	O	1.753097	-0.426333	-0.441598
O18	O	2.253097	0.073667	0.058402
O19	O	1.582956	-0.202611	-0.570698
O20	O	2.082956	0.297389	-0.070698
O21	O	1.453743	-0.329947	-0.271285
O22	O	1.953743	0.170053	0.228715
O23	O	1.283467	-0.329889	-0.441597
O24	O	1.783467	0.170111	0.058403
O25	O	1.453806	-0.426231	-0.740953
O26	O	1.953806	0.073769	-0.240953
O27	O	1.283439	-0.426271	-0.570622
O28	O	1.783439	0.073729	-0.070622
O29	O	1.582918	-0.329818	-0.740986
O30	O	2.082918	0.170182	-0.240986
O31	O	1.582692	-0.553580	-0.441555
O32	O	2.082692	-0.053580	0.058445
O33	O	1.453677	-0.553536	-0.570598
O34	O	1.953677	-0.053536	-0.070598
C35	C	1.245332	-0.378079	-0.506108
C36	C	1.745332	0.121921	-0.006108
C37	C	1.128555	-0.378092	-0.506126
C38	C	1.628555	0.121908	-0.006126
C39	C	1.073744	-0.327957	-0.573440
C40	C	1.573744	0.172043	-0.073440
C41	C	0.964020	-0.327965	-0.573447
C42	C	1.464020	0.172035	-0.073447
C43	C	0.963927	-0.428249	-0.438824
C44	C	1.463927	0.071751	0.061176
C45	C	1.073649	-0.428237	-0.438813
C46	C	1.573649	0.071763	0.061187
C47	C	1.518195	-0.582040	-0.506092
C48	C	2.018195	-0.082040	-0.006092
C49	C	1.518246	-0.669290	-0.506113
C50	C	2.018246	-0.169290	-0.006113
C51	C	1.585424	-0.710197	-0.573368
C52	C	2.085424	-0.210197	-0.073368
C53	C	1.585468	-0.792177	-0.573390
C54	C	2.085468	-0.292177	-0.073390
C55	C	1.518339	-0.833249	-0.506152
C56	C	2.018339	-0.333249	-0.006152
C57	C	1.451154	-0.792337	-0.438895
C58	C	1.951154	-0.292337	0.061105
C59	C	1.451105	-0.710358	-0.438878
C60	C	1.951105	-0.210358	0.061122
C61	C	1.451262	-0.963207	-0.438931
C62	C	1.951262	-0.463207	0.061069
C63	C	1.451312	-1.045192	-0.438946
C64	C	1.951312	-0.545192	0.061054
C65	C	1.585625	-1.045026	-0.573443
C66	C	2.085625	-0.545026	-0.073443
C67	C	1.585576	-0.963047	-0.573427
C68	C	2.085576	-0.463047	-0.073427
C69	C	1.518392	-0.922140	-0.506168
C70	C	2.018392	-0.422140	-0.006168
C71	C	1.792332	-0.378106	-0.506138
C72	C	2.292332	0.121894	-0.006138
C73	C	1.909109	-0.378112	-0.506145
C74	C	2.409109	0.121888	-0.006145
C75	C	1.518372	-0.378013	-0.780156
C76	C	2.018372	0.121987	-0.280156
C77	C	1.518404	-0.377979	-0.896933
C78	C	2.018404	0.122021	-0.396933
C79	C	1.518432	-0.173348	-0.506177
C80	C	2.018432	0.326652	-0.006177
C81	C	1.518489	-0.086098	-0.506200
C82	C	2.018489	0.413902	-0.006200
C83	C	1.451264	-0.327761	-0.951804
C84	C	1.951264	0.172239	-0.451804
C85	C	1.451289	-0.327737	-1.061528
C86	C	1.951289	0.172263	-0.561528
C87	C	1.585601	-0.428151	-1.061500
C88	C	2.085601	0.071849	-0.561500
C89	C	1.585571	-0.428179	-0.951778
C90	C	2.085571	0.071821	-0.451778
C91	C	1.518286	-0.378115	-0.233155
C92	C	2.018286	0.121885	0.266845
C93	C	1.518459	-0.377927	-0.116379
C94	C	2.018459	0.122073	0.383621
H95	H	1.118445	-0.287124	-0.628248
H96	H	1.618445	0.212876	-0.128248
H97	H	1.640242	-0.929606	-0.628171
H98	H	2.140242	-0.429606	-0.128171
H99	H	1.396616	-0.286844	-1.106199
H100	H	1.896616	0.213156	-0.606199
C101	C	1.659251	-0.483540	-1.121840
C102	C	2.159251	0.016460	-0.621840
N103	N	1.714642	-0.525321	-1.167287
N104	N	2.214642	-0.025321	-0.667287
H105	H	0.919398	-0.287140	-0.628258
H106	H	1.419398	0.212860	-0.128258
C107	C	0.903521	-0.483411	-0.364790
C108	C	1.403521	0.016589	0.135210
N109	N	0.858024	-0.524961	-0.309028
N110	N	1.358024	-0.024961	0.190972
C111	C	1.377459	-1.090370	-0.364988
C112	C	1.877459	-0.590370	0.135012
N113	N	1.321829	-1.124398	-0.309284
N114	N	1.821829	-0.624398	0.190716
H115	H	1.640327	-1.078336	-0.628208
H116	H	2.140327	-0.578336	-0.128208
H117	H	1.396550	-0.929904	-0.384166
H118	H	1.896550	-0.429904	0.115834
H119	H	1.640246	-0.469076	-0.907101
H120	H	2.140246	0.030924	-0.407101
H121	H	1.118277	-0.469063	-0.383992
H122	H	1.618277	0.030937	0.116008
H123	H	1.396572	-0.286885	-0.907152
H124	H	1.896572	0.213115	-0.407152
H125	H	1.396492	-0.825785	-0.384153
H126	H	1.896492	-0.325785	0.115847
H127	H	1.640093	-0.676761	-0.628116
H128	H	2.140093	-0.176761	-0.128116
C129	C	1.659383	-0.837171	-0.647361
C130	C	2.159383	-0.337171	-0.147361
N131	N	1.715063	-0.871059	-0.703075
N132	N	2.215063	-0.371059	-0.203075
C133	C	1.377206	-0.665361	-0.364893
C134	C	1.877206	-0.165361	0.135107
N135	N	1.321540	-0.631471	-0.309166
N136	N	1.821540	-0.131471	0.190834
