data_functionalizedCrystal
_audit_creation_method	'MofGen! by Chris Wilmer'
_symmetry_space_group_name_H-M	'P1'
_symmetry_Int_Tables_number	1
_symmetry_cell_setting	triclinic
loop_
_symmetry_equiv_pos_as_xyz
  x,y,z
_cell_length_a	17.077402
_cell_length_b	17.077404
_cell_length_c	17.077396
_cell_angle_alpha	90.014457
_cell_angle_beta	89.975636
_cell_angle_gamma	89.968171
loop_
_atom_site_label
_atom_site_type_symbol
_atom_site_fract_x
_atom_site_fract_y
_atom_site_fract_z
Zn1	Zn	0.312394	1.200036	0.443760
Zn2	Zn	0.812394	1.700036	0.943760
Zn3	Zn	0.443669	1.199935	0.312503
Zn4	Zn	0.943669	1.699935	0.812503
Zn5	Zn	0.312434	1.068767	0.312519
Zn6	Zn	0.812434	1.568767	0.812519
Zn7	Zn	0.443634	1.068727	0.443738
Zn8	Zn	0.943634	1.568727	0.943738
O9	O	0.378033	1.134366	0.378130
O10	O	0.878033	1.634366	0.878130
O11	O	0.329806	1.309869	0.426350
O12	O	0.829806	1.809869	0.926350
O13	O	0.426291	1.182510	0.202658
O14	O	0.926291	1.682510	0.702658
O15	O	0.202582	1.086239	0.329944
O16	O	0.702582	1.586239	0.829944
O17	O	0.426253	1.309795	0.329917
O18	O	0.926253	1.809795	0.829917
O19	O	0.202553	1.182682	0.426366
O20	O	0.702553	1.682682	0.926366
O21	O	0.329873	1.086141	0.202670
O22	O	0.829873	1.586141	0.702670
O23	O	0.329840	0.958915	0.329923
O24	O	0.829840	1.458915	0.829923
O25	O	0.426194	1.086171	0.553588
O26	O	0.926194	1.586171	1.053588
O27	O	0.426232	0.958886	0.426329
O28	O	0.926232	1.458886	0.926329
O29	O	0.329772	1.182643	0.553604
O30	O	0.829772	1.682643	1.053604
O31	O	0.553511	1.182471	0.329896
O32	O	1.053511	1.682471	0.829896
O33	O	0.553486	1.086073	0.426314
O34	O	1.053486	1.586073	0.926314
C35	C	0.378037	0.930418	0.378126
C36	C	0.878037	1.430418	0.878126
C37	C	0.378058	0.843169	0.378143
C38	C	0.878058	1.343169	0.878143
C39	C	0.581981	1.134278	0.378118
C40	C	1.081981	1.634278	0.878118
C41	C	0.669231	1.134312	0.378139
C42	C	1.169231	1.634312	0.878139
C43	C	0.377975	1.134414	0.582874
C44	C	0.877975	1.634414	1.082874
C45	C	0.377950	1.134434	0.670124
C46	C	0.877950	1.634434	1.170124
C47	C	1.045032	1.184699	0.328037
C48	C	1.545032	1.684699	0.828037
C49	C	0.963052	1.184662	0.328021
C50	C	1.463052	1.684662	0.828021
C51	C	0.922079	1.134417	0.378175
C52	C	1.422079	1.634417	0.878175
C53	C	0.963092	1.084200	0.428343
C54	C	1.463092	1.584200	0.928343
C55	C	1.045071	1.084235	0.428355
C56	C	1.545071	1.584235	0.928355
C57	C	0.792222	1.084134	0.428316
C58	C	1.292222	1.584134	0.928316
C59	C	0.710237	1.084101	0.428305
C60	C	1.210237	1.584101	0.928305
C61	C	0.710203	1.184562	0.327982
C62	C	1.210203	1.684562	0.827982
C63	C	0.792182	1.184596	0.327994
C64	C	1.292182	1.684596	0.827994
C65	C	0.833188	1.134380	0.378163
C66	C	1.333188	1.634380	0.878163
C67	C	1.173289	1.134467	0.378167
C68	C	1.673289	1.634467	0.878167
C69	C	1.086039	1.134488	0.378203
C70	C	1.586039	1.634488	0.878203
C71	C	0.378029	1.339110	0.378134
C72	C	0.878029	1.839110	0.878134
C73	C	0.378027	1.426360	0.378136
C74	C	0.878027	1.926360	0.878136
C75	C	0.327815	1.467390	0.428343
C76	C	0.827815	1.967390	0.928343
C77	C	0.327824	1.549371	0.428348
C78	C	0.827824	2.049371	0.928348
C79	C	0.378042	1.590320	0.378142
C80	C	0.878042	2.090320	0.878142
C81	C	0.428260	1.549284	0.327933
C82	C	0.928260	2.049284	0.827933
C83	C	0.428254	1.467305	0.327932
C84	C	0.928254	1.967305	0.827932
C85	C	0.428266	1.720154	0.327937
C86	C	0.928266	2.220154	0.827937
C87	C	0.428271	1.802139	0.327936
C88	C	0.928271	2.302139	0.827936
C89	C	0.327835	1.802220	0.428353
C90	C	0.827835	2.302220	0.928353
C91	C	0.327830	1.720241	0.428352
C92	C	0.827830	2.220241	0.928352
C93	C	0.378047	1.679211	0.378142
C94	C	0.878047	2.179211	0.878142
C95	C	0.378034	1.134364	0.174182
C96	C	0.878034	1.634364	0.674182
C97	C	0.377837	1.134496	0.086933
C98	C	0.877837	1.634496	0.586933
C99	C	0.327739	1.184669	0.711124
C100	C	0.827739	1.684669	1.211124
C101	C	0.327713	1.184678	0.793104
C102	C	0.827713	1.684678	1.293104
C103	C	0.377903	1.134456	0.834084
C104	C	0.877903	1.634456	1.334084
C105	C	0.428116	1.084216	0.793078
C106	C	0.928116	1.584216	1.293078
C107	C	0.428137	1.084203	0.711099
C108	C	0.928137	1.584203	1.211099
C109	C	0.428069	1.084248	0.963948
C110	C	0.928069	1.584248	1.463948
C111	C	0.428048	1.084261	1.045933
C112	C	0.928048	1.584261	1.545933
C113	C	0.327645	1.184722	1.045953
C114	C	0.827645	1.684722	1.545953
C115	C	0.327666	1.184710	0.963974
C116	C	0.827666	1.684710	1.463974
C117	C	0.377881	1.134470	0.922975
C118	C	0.877881	1.634470	1.422975
H119	H	0.929664	1.225546	0.287171
H120	H	1.429664	1.725546	0.787171
H121	H	0.929728	1.043286	0.469176
H122	H	1.429728	1.543286	0.969176
H123	H	0.286938	1.582774	0.469234
H124	H	0.786938	2.082774	0.969234
C125	C	0.482802	1.422896	0.273335
C126	C	0.982802	1.922896	0.773335
C127	C	0.526768	1.476302	0.229352
C128	C	1.026768	1.976302	0.729352
C129	C	0.577022	1.435423	0.179044
C130	C	1.077022	1.935423	0.679044
H131	H	0.517062	1.390901	0.303273
H132	H	1.017062	1.890901	0.803273
H133	H	0.452801	1.390942	0.239094
H134	H	0.952801	1.890942	0.739094
H135	H	0.556766	1.508243	0.263589
H136	H	1.056766	2.008243	0.763589
H137	H	0.492528	1.508299	0.199398
H138	H	0.992528	2.008299	0.699398
H139	H	0.547021	1.403468	0.144802
H140	H	1.047021	1.903468	0.644802
H141	H	0.611277	1.403429	0.208988
H142	H	1.111277	1.903429	0.708988
H143	H	0.606853	1.471652	0.149190
H144	H	1.106853	1.971652	0.649190
C145	C	1.089403	1.239387	0.273629
C146	C	1.589403	1.739387	0.773629
C147	C	1.069350	1.317030	0.290772
C148	C	1.569350	1.817030	0.790772
C149	C	1.110195	1.367432	0.240657
C150	C	1.610195	1.867432	0.740657
H151	H	1.144114	1.232333	0.280764
H152	H	1.644114	1.732333	0.780764
H153	H	1.075989	1.227969	0.220863
H154	H	1.575989	1.727969	0.720863
H155	H	1.082770	1.328445	0.343525
H156	H	1.582770	1.828445	0.843525
H157	H	1.014646	1.324109	0.283632
H158	H	1.514646	1.824109	0.783632
H159	H	1.096781	1.356014	0.187892
H160	H	1.596781	1.856014	0.687892
H161	H	1.164904	1.360372	0.247797
H162	H	1.664904	1.860372	0.747797
H163	H	1.096590	1.420118	0.252277
H164	H	1.596590	1.920118	0.752277
H165	H	0.825539	1.225513	0.287158
H166	H	1.325539	1.725513	0.787158
H167	H	0.676810	1.225448	0.287132
H168	H	1.176810	1.725448	0.787132
H169	H	0.286945	1.835630	0.469235
H170	H	0.786945	2.335630	0.969235
H171	H	0.676882	1.043186	0.469145
H172	H	1.176882	1.543186	0.969145
H173	H	0.469016	1.043289	0.677718
H174	H	0.969016	1.543289	1.177718
C175	C	0.482710	1.846741	0.273461
C176	C	0.982710	2.346741	0.773461
C177	C	0.471946	1.927316	0.284194
C178	C	0.971946	2.427316	0.784194
C179	C	0.522075	1.968428	0.234017
C180	C	1.022075	2.468428	0.734017
H181	H	0.535480	1.833375	0.284896
H182	H	1.035480	2.333375	0.784896
H183	H	0.471235	1.833346	0.220702
H184	H	0.971235	2.333346	0.720702
H185	H	0.483428	1.940706	0.336941
H186	H	0.983428	2.440706	0.836941
H187	H	0.419187	1.940705	0.272753
H188	H	0.919187	2.440705	0.772753
H189	H	0.510599	1.955033	0.181258
H190	H	1.010599	2.455033	0.681258
H191	H	0.574842	1.955056	0.245456
H192	H	1.074842	2.455056	0.745456
H193	H	0.514773	2.023102	0.241287
H194	H	1.014773	2.523102	0.741287
H195	H	0.825607	1.043248	0.469173
H196	H	1.325607	1.543248	0.969173
H197	H	0.469162	1.686750	0.287054
H198	H	0.969162	2.186750	0.787054
H199	H	0.469151	1.582631	0.287058
H200	H	0.969151	2.082631	0.787058
H201	H	0.286934	1.686902	0.469231
H202	H	0.786934	2.186902	0.969231
H203	H	1.078457	1.043352	0.469209
H204	H	1.578457	1.543352	0.969209
H205	H	0.286916	1.434056	0.469222
H206	H	0.786916	1.934056	0.969222
H207	H	0.286757	1.225628	1.079339
H208	H	0.786757	1.725628	1.579339
C209	C	0.273160	1.239227	0.666777
C210	C	0.773160	1.739227	1.166777
C211	C	0.229167	1.283206	0.720234
C212	C	0.729167	1.783206	1.220234
C213	C	0.178870	1.333464	0.679413
C214	C	0.678870	1.833464	1.179413
H215	H	0.303107	1.273478	0.634792
H216	H	0.803107	1.773478	1.134792
H217	H	0.238925	1.209229	0.634817
H218	H	0.738925	1.709229	1.134817
H219	H	0.263398	1.313201	0.752181
H220	H	0.763398	1.813201	1.252181
H221	H	0.199205	1.248974	0.752220
H222	H	0.699205	1.748974	1.252220
H223	H	0.144635	1.303467	0.647453
H224	H	0.644635	1.803467	1.147453
H225	H	0.208823	1.367711	0.647430
H226	H	0.708823	1.867711	1.147430
H227	H	0.149010	1.363305	0.715677
H228	H	0.649010	1.863305	1.215677
H229	H	0.286828	1.225586	0.826483
H230	H	0.786828	1.725586	1.326483
H231	H	0.286802	1.225609	0.930611
H232	H	0.786802	1.725609	1.430611
H233	H	0.468915	1.043365	1.079296
H234	H	0.968915	1.543365	1.579296
H235	H	0.468946	1.043325	0.930569
H236	H	0.968946	1.543325	1.430569
C237	C	0.482704	1.029819	0.837610
C238	C	0.982704	1.529819	1.337610
C239	C	0.533018	1.074246	0.884653
C240	C	1.033018	1.574246	1.384653
C241	C	0.583325	1.024163	0.925677
C242	C	1.083325	1.524163	1.425677
H243	H	0.452759	0.995623	0.869657
H244	H	0.952759	1.495623	1.369657
H245	H	0.512657	0.999911	0.801474
H246	H	1.012657	1.499911	1.301474
H247	H	0.503069	1.104141	0.920785
H248	H	1.003069	1.604141	1.420785
H249	H	0.562980	1.108439	0.852626
H250	H	1.062980	1.608439	1.352626
H251	H	0.613277	0.994255	0.889542
H252	H	1.113277	1.494255	1.389542
H253	H	0.553374	0.989970	0.957720
H254	H	1.053374	1.489970	1.457720
H255	H	0.617474	1.054300	0.957596
H256	H	1.117474	1.554300	1.457596
