data_functionalizedCrystal
_audit_creation_method	'MofGen! by Chris Wilmer'
_symmetry_space_group_name_H-M	'P1'
_symmetry_Int_Tables_number	1
_symmetry_cell_setting	triclinic
loop_
_symmetry_equiv_pos_as_xyz
  x,y,z
_cell_length_a	17.077404
_cell_length_b	17.077402
_cell_length_c	17.077395
_cell_angle_alpha	89.972222
_cell_angle_beta	89.984359
_cell_angle_gamma	90.025453
loop_
_atom_site_label
_atom_site_type_symbol
_atom_site_fract_x
_atom_site_fract_y
_atom_site_fract_z
Zn1	Zn	1.200012	-0.312513	-0.443840
Zn2	Zn	1.533345	0.020820	-0.110506
Zn3	Zn	1.866679	0.354153	0.222827
Zn4	Zn	1.199923	-0.443785	-0.312572
Zn5	Zn	1.533256	-0.110452	0.020761
Zn6	Zn	1.866589	0.222881	0.354094
Zn7	Zn	1.068753	-0.312538	-0.312588
Zn8	Zn	1.402086	0.020795	0.020746
Zn9	Zn	1.735419	0.354129	0.354079
Zn10	Zn	1.068706	-0.443741	-0.443796
Zn11	Zn	1.402040	-0.110408	-0.110463
Zn12	Zn	1.735373	0.222925	0.222871
O13	O	1.134348	-0.378144	-0.378199
O14	O	1.467682	-0.044811	-0.044866
O15	O	1.801015	0.288522	0.288468
O16	O	1.309847	-0.329935	-0.426439
O17	O	1.643180	0.003399	-0.093105
O18	O	1.976514	0.336732	0.240228
O19	O	1.182504	-0.426404	-0.202727
O20	O	1.515838	-0.093070	0.130606
O21	O	1.849171	0.240263	0.463939
O22	O	1.086221	-0.202688	-0.330023
O23	O	1.419555	0.130646	0.003310
O24	O	1.752888	0.463979	0.336644
O25	O	1.309781	-0.426380	-0.329997
O26	O	1.643115	-0.093046	0.003336
O27	O	1.976448	0.240287	0.336669
O28	O	1.182657	-0.202670	-0.426453
O29	O	1.515990	0.130664	-0.093120
O30	O	1.849324	0.463997	0.240213
O31	O	1.086134	-0.329977	-0.202739
O32	O	1.419468	0.003357	0.130595
O33	O	1.752801	0.336690	0.463928
O34	O	0.958900	-0.329934	-0.329981
O35	O	1.292233	0.003399	0.003353
O36	O	1.625566	0.336732	0.336686
O37	O	1.086142	-0.426305	-0.553649
O38	O	1.419476	-0.092972	-0.220315
O39	O	1.752809	0.240362	0.113018
O40	O	0.958866	-0.426329	-0.426379
O41	O	1.292199	-0.092996	-0.093046
O42	O	1.625532	0.240338	0.240288
O43	O	1.182612	-0.329892	-0.553681
O44	O	1.515945	0.003441	-0.220348
O45	O	1.849279	0.336774	0.112986
O46	O	1.182460	-0.553626	-0.329955
O47	O	1.515793	-0.220293	0.003379
O48	O	1.849126	0.113040	0.336712
O49	O	1.086056	-0.553594	-0.426364
O50	O	1.419389	-0.220261	-0.093031
O51	O	1.752722	0.113072	0.240302
C52	C	0.930401	-0.378130	-0.378177
C53	C	1.263734	-0.044797	-0.044844
C54	C	1.597067	0.288536	0.288489
C55	C	0.843151	-0.378143	-0.378187
C56	C	1.176484	-0.044810	-0.044853
C57	C	1.509817	0.288524	0.288480
C58	C	1.134264	-0.582092	-0.378170
C59	C	1.467598	-0.248759	-0.044837
C60	C	1.800931	0.084574	0.288496
C61	C	1.134300	-0.669342	-0.378184
C62	C	1.467633	-0.336009	-0.044851
C63	C	1.800967	-0.002675	0.288482
C64	C	1.184649	-1.045083	-0.428502
C65	C	1.517982	-0.711750	-0.095168
C66	C	1.851315	-0.378417	0.238165
C67	C	1.184613	-0.963103	-0.428483
C68	C	1.517947	-0.629770	-0.095150
C69	C	1.851280	-0.296436	0.238183
C70	C	1.134424	-0.922191	-0.378231
C71	C	1.467758	-0.588858	-0.044897
C72	C	1.801091	-0.255524	0.288436
C73	C	1.084273	-0.963264	-0.327988
C74	C	1.417606	-0.629930	0.005345
C75	C	1.750939	-0.296597	0.338679
C76	C	1.084313	-1.045243	-0.328003
C77	C	1.417646	-0.711909	0.005330
C78	C	1.750979	-0.378576	0.338664
C79	C	1.084192	-0.792394	-0.327961
C80	C	1.417525	-0.459060	0.005372
C81	C	1.750859	-0.125727	0.338705
C82	C	1.084151	-0.710409	-0.327947
C83	C	1.417484	-0.377076	0.005386
C84	C	1.750817	-0.043742	0.338720
C85	C	1.184493	-0.710254	-0.428441
C86	C	1.517826	-0.376921	-0.095108
C87	C	1.851159	-0.043587	0.238225
C88	C	1.184532	-0.792233	-0.428457
C89	C	1.517866	-0.458900	-0.095123
C90	C	1.851199	-0.125566	0.238210
C91	C	1.134380	-0.833300	-0.378215
C92	C	1.467713	-0.499967	-0.044881
C93	C	1.801046	-0.166633	0.288452
C94	C	0.802163	-0.428411	-0.428301
C95	C	1.135497	-0.095078	-0.094967
C96	C	1.468830	0.238255	0.238366
C97	C	0.720183	-0.428413	-0.428313
C98	C	1.053516	-0.095080	-0.094980
C99	C	1.386850	0.238253	0.238353
C100	C	0.679191	-0.378150	-0.378207
C101	C	1.012525	-0.044816	-0.044874
C102	C	1.345858	0.288517	0.288460
C103	C	0.720184	-0.327876	-0.328091
C104	C	1.053518	0.005458	0.005242
C105	C	1.386851	0.338791	0.338576
C106	C	0.802163	-0.327871	-0.328083
C107	C	1.135497	0.005463	0.005250
C108	C	1.468830	0.338796	0.338584
C109	C	0.549314	-0.327891	-0.328110
C110	C	0.882648	0.005442	0.005224
C111	C	1.215981	0.338775	0.338557
C112	C	0.467330	-0.327897	-0.328117
C113	C	0.800663	0.005436	0.005217
C114	C	1.133996	0.338770	0.338550
C115	C	0.467334	-0.428434	-0.428340
C116	C	0.800667	-0.095100	-0.095007
C117	C	1.134001	0.238233	0.238327
C118	C	0.549313	-0.428429	-0.428332
C119	C	0.882646	-0.095095	-0.094999
C120	C	1.215980	0.238238	0.238335
C121	C	0.590300	-0.378155	-0.378215
C122	C	0.923634	-0.044822	-0.044881
C123	C	1.256967	0.288511	0.288452
C124	C	1.339093	-0.378159	-0.378221
C125	C	1.672426	-0.044826	-0.044888
C126	C	2.005759	0.288507	0.288446
C127	C	1.426342	-0.378166	-0.378231
C128	C	1.759676	-0.044832	-0.044897
C129	C	2.093009	0.288501	0.288436
C130	C	1.134382	-0.378091	-0.582943
C131	C	1.467715	-0.044758	-0.249610
C132	C	1.801049	0.288576	0.083723
C133	C	1.134396	-0.378068	-0.670193
C134	C	1.467730	-0.044735	-0.336860
C135	C	1.801063	0.288598	-0.003526
C136	C	1.134454	-0.173400	-0.378245
C137	C	1.467788	0.159933	-0.044912
C138	C	1.801121	0.493267	0.288422
C139	C	1.134499	-0.086150	-0.378264
C140	C	1.467833	0.247183	-0.044931
C141	C	1.801166	0.580516	0.288402
C142	C	1.184715	-0.327760	-1.046026
C143	C	1.518049	0.005574	-0.712692
C144	C	1.851382	0.338907	-0.379359
C145	C	1.184699	-0.327787	-0.964045
C146	C	1.518033	0.005546	-0.630712
C147	C	1.851366	0.338879	-0.297379
C148	C	1.134461	-0.377994	-0.923042
C149	C	1.467794	-0.044661	-0.589709
C150	C	1.801128	0.288673	-0.256376
C151	C	1.084241	-0.428182	-0.964024
C152	C	1.417575	-0.094849	-0.630691
C153	C	1.750908	0.238484	-0.297357
C154	C	1.084262	-0.428158	-1.046003
C155	C	1.417595	-0.094825	-0.712670
C156	C	1.750929	0.238508	-0.379336
C157	C	1.084201	-0.428228	-0.793154
C158	C	1.417534	-0.094895	-0.459820
C159	C	1.750867	0.238439	-0.126487
C160	C	1.084179	-0.428251	-0.711169
C161	C	1.417512	-0.094918	-0.377836
C162	C	1.750846	0.238415	-0.044502
C163	C	1.184638	-0.327857	-0.711196
C164	C	1.517971	0.005477	-0.377863
C165	C	1.851305	0.338810	-0.044529
C166	C	1.184659	-0.327833	-0.793175
C167	C	1.517992	0.005501	-0.459842
C168	C	1.851325	0.338834	-0.126508
C169	C	1.134438	-0.378020	-0.834151
C170	C	1.467771	-0.044687	-0.500818
C171	C	1.801104	0.288647	-0.167484
C172	C	1.134360	-0.378141	-0.174251
C173	C	1.467693	-0.044808	0.159082
C174	C	1.801027	0.288526	0.492416
C175	C	1.134498	-0.377942	-0.087002
C176	C	1.467831	-0.044609	0.246332
C177	C	1.801164	0.288724	0.579665
H178	H	1.225511	-1.078388	-0.469431
H179	H	1.558844	-0.745055	-0.136098
H180	H	1.892177	-0.411721	0.197236
Cl181	Cl	1.247833	-0.264698	-0.912536
Cl182	Cl	1.581167	0.068636	-0.579203
Cl183	Cl	1.914500	0.401969	-0.245869
Cl184	Cl	1.247618	-0.843664	-0.491642
Cl185	Cl	1.580952	-0.510331	-0.158309
Cl186	Cl	1.914285	-0.176998	0.175025
Cl187	Cl	1.021068	-0.658978	-0.264759
Cl188	Cl	1.354401	-0.325644	0.068574
Cl189	Cl	1.687734	0.007689	0.401908
H190	H	1.043476	-1.078678	-0.287094
H191	H	1.376809	-0.745345	0.046239
H192	H	1.710143	-0.412012	0.379572
H193	H	0.433956	-0.286959	-0.287325
H194	H	0.767290	0.046374	0.046008
H195	H	1.100623	0.379708	0.379341
Cl196	Cl	1.247547	-0.658628	-0.491598
Cl197	Cl	1.580880	-0.325294	-0.158264
Cl198	Cl	1.914214	0.008039	0.175069
H199	H	1.225620	-0.286870	-1.079405
H200	H	1.558953	0.046463	-0.746071
H201	H	1.892287	0.379796	-0.412738
Cl202	Cl	1.021130	-0.491250	-1.097516
Cl203	Cl	1.354464	-0.157916	-0.764183
Cl204	Cl	1.687797	0.175417	-0.430849
H205	H	1.043253	-0.469116	-0.677787
H206	H	1.376586	-0.135783	-0.344453
H207	H	1.709919	0.197551	-0.011120
Cl208	Cl	1.021064	-0.491321	-0.844665
Cl209	Cl	1.354398	-0.157988	-0.511332
Cl210	Cl	1.687731	0.175345	-0.177999
H211	H	0.433958	-0.469366	-0.469150
H212	H	0.767291	-0.136032	-0.135817
H213	H	1.100625	0.197301	0.197517
Cl214	Cl	0.600840	-0.264690	-0.265104
Cl215	Cl	0.934173	0.068644	0.068229
Cl216	Cl	1.267507	0.401977	0.401563
Cl217	Cl	1.021144	-0.844019	-0.264796
Cl218	Cl	1.354478	-0.510686	0.068537
Cl219	Cl	1.687811	-0.177353	0.401871
H220	H	0.835533	-0.469344	-0.469100
H221	H	1.168866	-0.136011	-0.135767
H222	H	1.502200	0.197322	0.197566
Cl223	Cl	0.600844	-0.491623	-0.491318
Cl224	Cl	0.934178	-0.158290	-0.157985
Cl225	Cl	1.267511	0.175043	0.175349
H226	H	0.686802	-0.286947	-0.287297
H227	H	1.020136	0.046386	0.046036
H228	H	1.353469	0.379720	0.379370
H229	H	0.835534	-0.286933	-0.287279
H230	H	1.168867	0.046400	0.046054
H231	H	1.502201	0.379734	0.379388
Cl232	Cl	1.247829	-0.264728	-0.844721
Cl233	Cl	1.581163	0.068606	-0.511388
Cl234	Cl	1.914496	0.401939	-0.178054
H235	H	1.043340	-0.469065	-0.930633
H236	H	1.376673	-0.135732	-0.597299
H237	H	1.710007	0.197601	-0.263966
Cl238	Cl	1.247796	-0.264786	-0.659684
Cl239	Cl	1.581129	0.068547	-0.326351
Cl240	Cl	1.914462	0.401880	0.006983
H241	H	1.043411	-0.929948	-0.287067
H242	H	1.376744	-0.596615	0.046266
H243	H	1.710077	-0.263282	0.379599
Cl244	Cl	1.247660	-0.911479	-0.491643
Cl245	Cl	1.580994	-0.578146	-0.158309
Cl246	Cl	1.914327	-0.244813	0.175024
H247	H	0.686815	-0.469348	-0.469120
H248	H	1.020148	-0.136014	-0.135787
H249	H	1.353481	0.197319	0.197546
