data_functionalizedCrystal
_audit_creation_method	'MofGen! by Chris Wilmer'
_symmetry_space_group_name_H-M	'P1'
_symmetry_Int_Tables_number	1
_symmetry_cell_setting	triclinic
loop_
_symmetry_equiv_pos_as_xyz
  x,y,z
_cell_length_a	17.077402
_cell_length_b	17.077404
_cell_length_c	17.077396
_cell_angle_alpha	89.983895
_cell_angle_beta	89.969381
_cell_angle_gamma	90.020853
loop_
_atom_site_label
_atom_site_type_symbol
_atom_site_fract_x
_atom_site_fract_y
_atom_site_fract_z
Zn1	Zn	-0.312544	1.200037	-0.443812
Zn2	Zn	-0.443821	1.199949	-0.312543
Zn3	Zn	-0.312569	1.068774	-0.312562
Zn4	Zn	-0.443767	1.068737	-0.443769
O5	O	-0.378175	1.134374	-0.378171
O6	O	-0.329971	1.309872	-0.426408
O7	O	-0.426443	1.182528	-0.202698
O8	O	-0.202718	1.086239	-0.329999
O9	O	-0.426419	1.309808	-0.329966
O10	O	-0.202700	1.182677	-0.426427
O11	O	-0.330012	1.086154	-0.202713
O12	O	-0.329960	0.958922	-0.329957
O13	O	-0.426328	1.086175	-0.553622
O14	O	-0.426351	0.958895	-0.426354
O15	O	-0.329919	1.182641	-0.553653
O16	O	-0.553661	1.182492	-0.329924
O17	O	-0.553621	1.086090	-0.426335
C18	C	-0.378153	0.930427	-0.378154
C19	C	-0.378162	0.843177	-0.378165
C20	C	-0.328031	0.802221	-0.428459
C21	C	-0.328036	0.720240	-0.428463
C22	C	-0.378177	0.679217	-0.378176
C23	C	-0.428311	0.720179	-0.327876
C24	C	-0.428301	0.802158	-0.327869
C25	C	-0.428328	0.549309	-0.327895
C26	C	-0.428339	0.467324	-0.327903
C27	C	-0.328063	0.467391	-0.428489
C28	C	-0.328054	0.549370	-0.428482
C29	C	-0.378189	0.590326	-0.378183
C30	C	-0.582123	1.134299	-0.378140
C31	C	-0.669373	1.134338	-0.378153
C32	C	-0.710358	1.184585	-0.328005
C33	C	-0.792338	1.184624	-0.328025
C34	C	-0.833332	1.134410	-0.378190
C35	C	-0.792342	1.084161	-0.428343
C36	C	-0.710363	1.084127	-0.428326
C37	C	-0.963212	1.084233	-0.428372
C38	C	-1.045197	1.084266	-0.428388
C39	C	-1.045187	1.184730	-0.328072
C40	C	-0.963208	1.184697	-0.328055
C41	C	-0.922223	1.134446	-0.378207
C42	C	-0.173431	1.134472	-0.378220
C43	C	-0.086181	1.134513	-0.378241
C44	C	-0.378114	1.134414	-0.582916
C45	C	-0.378089	1.134431	-0.670166
C46	C	-0.378198	1.339119	-0.378190
C47	C	-0.378208	1.426368	-0.378197
C48	C	-0.327871	1.084264	-0.711163
C49	C	-0.327853	1.084277	-0.793143
C50	C	-0.378050	1.134461	-0.834125
C51	C	-0.428272	1.184630	-0.793122
C52	C	-0.428294	1.184612	-0.711143
C53	C	-0.428223	1.184664	-0.963993
C54	C	-0.428201	1.184682	-1.045977
C55	C	-0.327783	1.084328	-1.045992
C56	C	-0.327804	1.084311	-0.964013
C57	C	-0.378026	1.134481	-0.923016
C58	C	-0.378179	1.134380	-0.174224
C59	C	-0.377984	1.134516	-0.086974
H60	H	-0.676985	1.225472	-0.287153
H61	H	-0.286991	1.043403	-0.677801
H62	H	-0.929845	1.043316	-0.469214
H63	H	-0.287229	0.582769	-0.469435
H64	H	-0.286926	1.043450	-0.930648
O65	O	-0.832029	1.233457	-0.279236
C66	C	-0.778267	1.277778	-0.234966
H67	H	-0.719858	1.245601	-0.232209
H68	H	-0.801993	1.286196	-0.173131
H69	H	-0.769478	1.337376	-0.263759
H70	H	-0.286889	1.043479	-1.079376
H71	H	-0.469152	0.582653	-0.286934
H72	H	-1.078572	1.043392	-0.469251
O73	O	-0.670669	1.035245	-0.477067
C74	C	-0.724429	0.990947	-0.521362
H75	H	-0.782890	0.988265	-0.489217
H76	H	-0.700781	0.929087	-0.529685
H77	H	-0.733086	1.019666	-0.581003
H78	H	-0.469147	1.225486	-0.826496
H79	H	-0.286964	1.043423	-0.826519
H80	H	-0.469133	0.686771	-0.286927
O81	O	-0.832249	1.035492	-0.477111
C82	C	-0.879584	1.080172	-0.527872
H83	H	-0.891839	1.139682	-0.500243
H84	H	-0.937249	1.048215	-0.538372
H85	H	-0.847943	1.088747	-0.586047
H86	H	-0.469076	1.225546	-1.079343
H87	H	-0.469123	0.835503	-0.286913
H88	H	-0.929831	1.225580	-0.287204
O89	O	-0.477157	1.233232	-0.671280
C90	C	-0.527849	1.188503	-0.623830
H91	H	-0.532682	1.126683	-0.648533
H92	H	-0.588263	1.216862	-0.622883
H93	H	-0.503594	1.185795	-0.561706
O94	O	-0.477037	1.233469	-0.924288
C95	C	-0.521352	1.277753	-0.978037
H96	H	-0.489184	1.280503	-1.036482
H97	H	-0.529743	1.339590	-0.954350
H98	H	-0.580962	1.248977	-0.986739
O99	O	-1.085116	1.233605	-0.279512
C100	C	-1.166263	1.222903	-0.290314
H101	H	-1.177408	1.197055	-0.350832
H102	H	-1.197331	1.281754	-0.285188
H103	H	-1.189668	1.181250	-0.243659
H104	H	-0.287215	0.686898	-0.469419
O105	O	-0.279364	0.841982	-0.477420
C106	C	-0.296633	0.821987	-0.555627
H107	H	-0.326817	0.762458	-0.557203
H108	H	-0.240025	0.819209	-0.590927
H109	H	-0.337018	0.868125	-0.581990
O110	O	-0.279468	0.427527	-0.477388
C111	C	-0.324231	0.380128	-0.528022
H112	H	-0.383682	0.367816	-0.500227
H113	H	-0.292274	0.322494	-0.538609
H114	H	-0.332932	0.411742	-0.586174
H115	H	-0.469169	0.433925	-0.286955
