data_functionalizedCrystal
_audit_creation_method	'MofGen! by Chris Wilmer'
_symmetry_space_group_name_H-M	'P1'
_symmetry_Int_Tables_number	1
_symmetry_cell_setting	triclinic
loop_
_symmetry_equiv_pos_as_xyz
  x,y,z
_cell_length_a	21.395362
_cell_length_b	12.759400
_cell_length_c	21.395356
_cell_angle_alpha	89.976983
_cell_angle_beta	89.957023
_cell_angle_gamma	90.030564
loop_
_atom_site_label
_atom_site_type_symbol
_atom_site_fract_x
_atom_site_fract_y
_atom_site_fract_z
Zn1	Zn	0.957923	-0.417848	-0.354606
Zn2	Zn	1.457923	0.082152	0.145394
Zn3	Zn	0.957857	-0.593540	-0.249837
Zn4	Zn	1.457857	-0.093540	0.250163
Zn5	Zn	0.853140	-0.417925	-0.249807
Zn6	Zn	1.353140	0.082075	0.250193
Zn7	Zn	0.853137	-0.593534	-0.354542
Zn8	Zn	1.353137	-0.093534	0.145458
O9	O	0.905514	-0.505711	-0.302198
O10	O	1.405514	-0.005711	0.197802
O11	O	1.045592	-0.441124	-0.340747
O12	O	1.545592	0.058876	0.159253
O13	O	0.943939	-0.570279	-0.162155
O14	O	1.443939	-0.070279	0.337845
O15	O	0.867069	-0.270893	-0.263723
O16	O	1.367069	0.229107	0.236277
O17	O	1.045544	-0.570205	-0.263774
O18	O	1.545544	-0.070205	0.236226
O19	O	0.944053	-0.270837	-0.340719
O20	O	1.444053	0.229163	0.159281
O21	O	0.867004	-0.441255	-0.162133
O22	O	1.367004	0.058745	0.337867
O23	O	0.765462	-0.441249	-0.263661
O24	O	1.265462	0.058751	0.236339
O25	O	0.867063	-0.570194	-0.442228
O26	O	1.367063	-0.070194	0.057772
O27	O	0.765459	-0.570268	-0.340609
O28	O	1.265459	-0.070268	0.159391
O29	O	0.944050	-0.441118	-0.442275
O30	O	1.444050	0.058882	0.057725
O31	O	0.943936	-0.740560	-0.263712
O32	O	1.443936	-0.240560	0.236288
O33	O	0.866999	-0.740556	-0.340638
O34	O	1.366999	-0.240556	0.159362
C35	C	0.742727	-0.505767	-0.302125
C36	C	1.242727	-0.005767	0.197875
C37	C	0.673085	-0.505816	-0.302109
C38	C	1.173085	-0.005816	0.197891
C39	C	0.640387	-0.573086	-0.342116
C40	C	1.140387	-0.073086	0.157884
C41	C	0.574952	-0.573060	-0.342144
C42	C	1.074952	-0.073060	0.157856
C43	C	0.542217	-0.505776	-0.302154
C44	C	1.042217	-0.005776	0.197846
C45	C	0.574923	-0.438493	-0.262144
C46	C	1.074923	0.061507	0.237856
C47	C	0.640357	-0.438513	-0.262122
C48	C	1.140357	0.061487	0.237878
C49	C	0.438492	-0.497327	-0.245748
C50	C	0.938492	0.002673	0.254252
C51	C	0.373059	-0.497314	-0.245769
C52	C	0.873059	0.002686	0.254231
C53	C	0.340396	-0.505707	-0.302223
C54	C	0.840396	-0.005707	0.197777
C55	C	0.373175	-0.514135	-0.358657
C56	C	0.873175	-0.014135	0.141343
C57	C	0.438609	-0.514155	-0.358635
C58	C	0.938609	-0.014155	0.141365
C59	C	0.471265	-0.505746	-0.302174
C60	C	0.971265	-0.005746	0.197826
C61	C	0.236746	-0.572952	-0.342263
C62	C	0.736746	-0.072952	0.157737
C63	C	0.171309	-0.572919	-0.342292
C64	C	0.671309	-0.072919	0.157708
C65	C	0.171281	-0.438358	-0.262287
C66	C	0.671281	0.061642	0.237713
C67	C	0.236717	-0.438386	-0.262264
C68	C	0.736717	0.061614	0.237736
C69	C	0.269445	-0.505688	-0.302251
C70	C	0.769445	-0.005688	0.197749
C71	C	0.905477	-0.778679	-0.302185
C72	C	1.405477	-0.278679	0.197815
C73	C	0.905518	-0.895455	-0.302200
C74	C	1.405518	-0.395455	0.197800
C75	C	0.945624	-0.950285	-0.262189
C76	C	1.445624	-0.450285	0.237811
C77	C	0.945663	-1.060009	-0.262209
C78	C	1.445663	-0.560009	0.237791
C79	C	0.865484	-1.060064	-0.342252
C80	C	1.365484	-0.560064	0.157748
C81	C	0.865449	-0.950342	-0.342235
C82	C	1.365449	-0.450342	0.157765
C83	C	0.991913	-0.950254	-0.215975
C84	C	1.491913	-0.450254	0.284025
C85	C	0.991951	-1.059978	-0.215994
C86	C	1.491951	-0.559978	0.284006
C87	C	1.068938	-0.505656	-0.302271
C88	C	1.568938	-0.005656	0.197729
C89	C	1.138579	-0.505633	-0.302303
C90	C	1.638579	-0.005633	0.197697
C91	C	0.905563	-0.505646	-0.465621
C92	C	1.405563	-0.005646	0.034379
C93	C	0.905584	-0.505619	-0.535263
C94	C	1.405584	-0.005619	-0.035263
C95	C	0.905569	-0.231678	-0.302225
C96	C	1.405569	0.268322	0.197775
C97	C	0.905592	-0.114902	-0.302236
C98	C	1.405592	0.385098	0.197764
C99	C	0.865535	-0.438428	-0.567955
C100	C	1.365535	0.061572	-0.067955
C101	C	0.865533	-0.438409	-0.633390
C102	C	1.365533	0.061591	-0.133390
C103	C	0.905591	-0.505569	-0.666131
C104	C	1.405591	-0.005569	-0.166131
C105	C	0.945644	-0.572772	-0.633431
C106	C	1.445644	-0.072772	-0.133431
C107	C	0.945640	-0.572797	-0.567997
C108	C	1.445640	-0.072797	-0.067997
C109	C	0.962045	-0.513802	-0.769837
C110	C	1.462045	-0.013802	-0.269837
C111	C	0.962049	-0.513770	-0.835270
C112	C	1.462049	-0.013770	-0.335270
C113	C	0.905602	-0.505498	-0.867952
C114	C	1.405602	-0.005498	-0.367952
C115	C	0.849148	-0.497236	-0.835193
C116	C	1.349148	0.002764	-0.335193
C117	C	0.849144	-0.497261	-0.769759
C118	C	1.349144	0.002739	-0.269759
C119	C	0.905599	-0.505549	-0.737083
C120	C	1.405599	-0.005549	-0.237083
C121	C	0.865547	-0.438283	-0.971596
C122	C	1.365547	0.061717	-0.471596
C123	C	0.865543	-0.438270	-1.037033
C124	C	1.365543	0.061730	-0.537033
C125	C	0.945660	-0.572628	-1.037073
C126	C	1.445660	-0.072628	-0.537073
C127	C	0.945657	-0.572646	-0.971638
C128	C	1.445657	-0.072646	-0.471638
C129	C	0.905602	-0.505467	-0.938903
C130	C	1.405602	-0.005467	-0.438903
C131	C	0.905501	-0.505701	-0.139410
C132	C	1.405501	-0.005701	0.360590
C133	C	0.905602	-0.505432	-0.069770
C134	C	1.405602	-0.005432	0.430230
H135	H	0.346582	-0.520967	-0.404627
H136	H	0.846582	-0.020967	0.095373
C137	C	0.337006	-0.488118	-0.183694
C138	C	0.837006	0.011882	0.316306
H139	H	0.293358	-0.489344	-0.191789
H140	H	0.793358	0.010656	0.308211
H141	H	0.347717	-0.424133	-0.163695
H142	H	0.847717	0.075867	0.336305
H143	H	0.347694	-0.545245	-0.157301
H144	H	0.847694	-0.045245	0.342699
H145	H	0.832916	-0.383730	-0.541306
H146	H	1.332916	0.116270	-0.041306
C147	C	1.024141	-0.522896	-0.733893
C148	C	1.524141	-0.022896	-0.233893
H149	H	1.057763	-0.527795	-0.762773
H150	H	1.557763	-0.027795	-0.262773
H151	H	1.023319	-0.583803	-0.708358
H152	H	1.523319	-0.083803	-0.208358
H153	H	1.029655	-0.462681	-0.708380
H154	H	1.529655	0.037319	-0.208380
H155	H	0.803183	-0.490492	-0.861801
H156	H	1.303183	0.009508	-0.361801
H157	H	0.832921	-0.383689	-0.660013
H158	H	1.332921	0.116311	-0.160013
H159	H	0.974542	-0.916303	-0.169854
H160	H	1.474542	-0.416303	0.330146
C161	C	0.974431	-1.100319	-0.150430
C162	C	1.474431	-0.600319	0.349570
H163	H	0.967193	-1.042452	-0.123455
H164	H	1.467193	-0.542452	0.376545
H165	H	1.007660	-1.141637	-0.134351
H166	H	1.507660	-0.641637	0.365649
H167	H	0.937617	-1.141745	-0.153038
H168	H	1.437617	-0.641745	0.346962
H169	H	0.832931	-0.383583	-0.944943
H170	H	1.332931	0.116417	-0.444943
H171	H	0.978259	-0.627454	-0.660093
H172	H	1.478259	-0.127454	-0.160093
H173	H	1.040423	-0.920377	-0.229025
H174	H	1.540423	-0.420377	0.270975
H175	H	1.038053	-1.093906	-0.233433
H176	H	1.538053	-0.593906	0.266567
C177	C	0.474666	-0.523421	-0.420704
C178	C	0.974666	-0.023421	0.079296
H179	H	0.518313	-0.522239	-0.412602
H180	H	1.018313	-0.022239	0.087398
H181	H	0.463998	-0.466326	-0.447125
H182	H	0.963998	0.033674	0.052875
H183	H	0.463938	-0.587430	-0.440675
H184	H	0.963938	-0.087430	0.059325
H185	H	0.803178	-0.490536	-0.743089
H186	H	1.303178	0.009464	-0.243089
H187	H	0.832926	-0.383559	-1.063650
H188	H	1.332926	0.116441	-0.563650
C189	C	0.989700	-0.646703	-0.532035
C190	C	1.489700	-0.146703	-0.032035
H191	H	1.013560	-0.686697	-0.560903
H192	H	1.513560	-0.186697	-0.060903
H193	H	0.965724	-0.692494	-0.506484
H194	H	1.465724	-0.192494	-0.006484
H195	H	1.017010	-0.606504	-0.506536
H196	H	1.517010	-0.106504	-0.006536
H197	H	0.978277	-0.627309	-1.063730
H198	H	1.478277	-0.127309	-0.563730
H199	H	0.978271	-0.627357	-0.945020
H200	H	1.478271	-0.127357	-0.445020
H201	H	1.008017	-0.520492	-0.861937
H202	H	1.508017	-0.020492	-0.361937
H203	H	0.667031	-0.627887	-0.374678
H204	H	1.167031	-0.127887	0.125322
H205	H	0.263395	-0.627749	-0.374827
H206	H	0.763395	-0.127749	0.125173
C207	C	0.538977	-0.646998	-0.386189
C208	C	1.038977	-0.146998	0.113811
H209	H	0.567840	-0.687067	-0.410010
H210	H	1.067840	-0.187067	0.089990
H211	H	0.513516	-0.606805	-0.413526
H212	H	1.013516	-0.106805	0.086474
H213	H	0.513387	-0.692735	-0.362211
H214	H	1.013387	-0.192735	0.137789
H215	H	0.144688	-0.627696	-0.374875
H216	H	0.644688	-0.127696	0.125125
C217	C	0.135284	-0.364341	-0.218299
C218	C	0.635284	0.135659	0.281701
H219	H	0.164132	-0.324277	-0.194470
H220	H	0.664132	0.175723	0.305530
H221	H	0.109708	-0.404458	-0.190968
H222	H	0.609708	0.095542	0.309032
H223	H	0.109807	-0.318605	-0.242328
H224	H	0.609807	0.181395	0.257672
H225	H	0.465080	-0.490488	-0.199774
H226	H	0.965080	0.009512	0.300226
C227	C	0.272689	-0.364398	-0.218252
C228	C	0.772689	0.135602	0.281748
H229	H	0.316347	-0.374040	-0.223970
H230	H	0.816347	0.125960	0.276030
H231	H	0.261914	-0.379674	-0.176142
H232	H	0.761914	0.120326	0.323858
H233	H	0.262006	-0.293821	-0.227503
H234	H	0.762006	0.206179	0.272497
C235	C	0.538917	-0.364483	-0.218156
C236	C	1.038917	0.135517	0.281844
H237	H	0.495264	-0.374112	-0.223895
H238	H	0.995264	0.125888	0.276105
H239	H	0.549680	-0.293916	-0.227395
H240	H	1.049680	0.206084	0.272605
H241	H	0.549589	-0.379774	-0.176037
H242	H	1.049589	0.120226	0.323963
H243	H	0.666979	-0.383731	-0.229543
H244	H	1.166979	0.116269	0.270457
H245	H	0.832862	-1.104766	-0.374847
H246	H	1.332862	-0.604766	0.125153
C247	C	0.821335	-0.890033	-0.386249
C248	C	1.321335	-0.390033	0.113751
H249	H	0.797473	-0.938438	-0.410088
H250	H	1.297473	-0.438438	0.089912
H251	H	0.845275	-0.847154	-0.413570
H252	H	1.345275	-0.347154	0.086430
H253	H	0.794029	-0.847310	-0.362237
H254	H	1.294029	-0.347310	0.137763
