data_functionalizedCrystal
_audit_creation_method	'MofGen! by Chris Wilmer'
_symmetry_space_group_name_H-M	'P1'
_symmetry_Int_Tables_number	1
_symmetry_cell_setting	triclinic
loop_
_symmetry_equiv_pos_as_xyz
  x,y,z
_cell_length_a	21.395361
_cell_length_b	21.395364
_cell_length_c	21.395355
_cell_angle_alpha	89.974702
_cell_angle_beta	90.021511
_cell_angle_gamma	89.952591
loop_
_atom_site_label
_atom_site_type_symbol
_atom_site_fract_x
_atom_site_fract_y
_atom_site_fract_z
Zn1	Zn	-0.249232	-0.957859	0.354261
Zn2	Zn	0.084101	-0.624526	0.687594
Zn3	Zn	0.417435	-0.291193	1.020928
Zn4	Zn	-0.353992	-0.957762	0.249478
Zn5	Zn	-0.020658	-0.624428	0.582811
Zn6	Zn	0.312675	-0.291095	0.916145
Zn7	Zn	-0.249263	-0.853074	0.249496
Zn8	Zn	0.084071	-0.519741	0.582830
Zn9	Zn	0.417404	-0.186408	0.916163
Zn10	Zn	-0.354006	-0.853043	0.354217
Zn11	Zn	-0.020673	-0.519710	0.687550
Zn12	Zn	0.312661	-0.186377	1.020883
O13	O	-0.301623	-0.905435	0.301863
O14	O	0.031710	-0.572101	0.635196
O15	O	0.365044	-0.238768	0.968530
O16	O	-0.263110	-1.045524	0.340372
O17	O	0.070224	-0.712191	0.673705
O18	O	0.403557	-0.378858	1.007039
O19	O	-0.340106	-0.943847	0.161802
O20	O	-0.006773	-0.610513	0.495136
O21	O	0.326561	-0.277180	0.828469
O22	O	-0.161581	-0.867028	0.263420
O23	O	0.171753	-0.533695	0.596753
O24	O	0.505086	-0.200361	0.930086
O25	O	-0.340076	-1.045453	0.263388
O26	O	-0.006743	-0.712119	0.596722
O27	O	0.326590	-0.378786	0.930055
O28	O	-0.161558	-0.944013	0.340390
O29	O	0.171775	-0.610680	0.673723
O30	O	0.505109	-0.277346	1.007056
O31	O	-0.263162	-0.866933	0.161816
O32	O	0.070171	-0.533600	0.495149
O33	O	0.403505	-0.200267	0.828483
O34	O	-0.263176	-0.765392	0.263377
O35	O	0.070157	-0.432059	0.596710
O36	O	0.403491	-0.098726	0.930044
O37	O	-0.340101	-0.866975	0.441901
O38	O	-0.006767	-0.533642	0.775234
O39	O	0.326566	-0.200309	1.108567
O40	O	-0.340131	-0.765370	0.340315
O41	O	-0.006797	-0.432036	0.673648
O42	O	0.326536	-0.098703	1.006981
O43	O	-0.263124	-0.943983	0.441933
O44	O	0.070210	-0.610650	0.775266
O45	O	0.403543	-0.277316	1.108600
O46	O	-0.441672	-0.943817	0.263346
O47	O	-0.108338	-0.610484	0.596679
O48	O	0.224995	-0.277150	0.930012
O49	O	-0.441682	-0.866881	0.340297
O50	O	-0.108349	-0.533547	0.673630
O51	O	0.224985	-0.200214	1.006963
C52	C	-0.301659	-0.742647	0.301843
C53	C	0.031675	-0.409314	0.635177
C54	C	0.365008	-0.075980	0.968510
C55	C	-0.301689	-0.673006	0.301850
C56	C	0.031645	-0.339672	0.635183
C57	C	0.364978	-0.006339	0.968516
C58	C	-0.261679	-0.640352	0.341997
C59	C	0.071654	-0.307019	0.675330
C60	C	0.404988	0.026314	1.008663
C61	C	-0.261664	-0.574917	0.341998
C62	C	0.071669	-0.241584	0.675331
C63	C	0.405002	0.091750	1.008665
C64	C	-0.301671	-0.542137	0.301859
C65	C	0.031663	-0.208804	0.635193
C66	C	0.364996	0.124529	0.968526
C67	C	-0.341683	-0.574799	0.261705
C68	C	-0.008350	-0.241465	0.595038
C69	C	0.324983	0.091868	0.928371
C70	C	-0.341692	-0.640233	0.261700
C71	C	-0.008359	-0.306900	0.595033
C72	C	0.324974	0.026434	0.928367
C73	C	-0.358099	-0.438413	0.296818
C74	C	-0.024765	-0.105080	0.630151
C75	C	0.308568	0.228254	0.963484
C76	C	-0.358090	-0.372980	0.296827
C77	C	-0.024757	-0.039647	0.630160
C78	C	0.308576	0.293687	0.963493
C79	C	-0.301642	-0.340317	0.301871
C80	C	0.031691	-0.006983	0.635204
C81	C	0.365024	0.326350	0.968537
C82	C	-0.245200	-0.373094	0.306919
C83	C	0.088133	-0.039761	0.640252
C84	C	0.421466	0.293572	0.973585
C85	C	-0.245210	-0.438528	0.306914
C86	C	0.088124	-0.105195	0.640247
C87	C	0.421457	0.228138	0.973580
C88	C	-0.301665	-0.471185	0.301860
C89	C	0.031668	-0.137852	0.635193
C90	C	0.365002	0.195482	0.968527
C91	C	-0.261613	-0.236711	0.342021
C92	C	0.071720	0.096623	0.675355
C93	C	0.405054	0.429956	1.008688
C94	C	-0.261597	-0.171274	0.342019
C95	C	0.071736	0.162059	0.675352
C96	C	0.405069	0.495393	1.008685
C97	C	-0.341622	-0.171157	0.261728
C98	C	-0.008289	0.162176	0.595062
C99	C	0.325045	0.495509	0.928395
C100	C	-0.341632	-0.236593	0.261728
C101	C	-0.008299	0.096741	0.595061
C102	C	0.325034	0.430074	0.928395
C103	C	-0.301629	-0.269365	0.301878
C104	C	0.031705	0.063968	0.635211
C105	C	0.365038	0.397301	0.968545
C106	C	-0.464411	-0.905352	0.301828
C107	C	-0.131077	-0.572019	0.635161
C108	C	0.202256	-0.238685	0.968495
C109	C	-0.534052	-0.905374	0.301834
C110	C	-0.200719	-0.572041	0.635167
C111	C	0.132615	-0.238707	0.968501
C112	C	-0.566739	-0.945470	0.261807
C113	C	-0.233405	-0.612137	0.595140
C114	C	0.099928	-0.278803	0.928473
C115	C	-0.632174	-0.945499	0.261821
C116	C	-0.298841	-0.612166	0.595154
C117	C	0.034492	-0.278832	0.928487
C118	C	-0.664920	-0.905421	0.301856
C119	C	-0.331587	-0.572088	0.635189
C120	C	0.001746	-0.238754	0.968522
C121	C	-0.632226	-0.865322	0.341891
C122	C	-0.298892	-0.531989	0.675224
C123	C	0.034441	-0.198655	1.008558
C124	C	-0.566791	-0.865298	0.341880
C125	C	-0.233458	-0.531965	0.675213
C126	C	0.099875	-0.198632	1.008547
C127	C	-0.768652	-0.849006	0.306765
C128	C	-0.435319	-0.515673	0.640098
C129	C	-0.101985	-0.182340	0.973431
C130	C	-0.834085	-0.849029	0.306771
C131	C	-0.500752	-0.515695	0.640104
C132	C	-0.167418	-0.182362	0.973438
C133	C	-0.866741	-0.905494	0.301892
C134	C	-0.533408	-0.572161	0.635226
C135	C	-0.200074	-0.238827	0.968559
C136	C	-0.833956	-0.961938	0.296994
C137	C	-0.500623	-0.628605	0.630327
C138	C	-0.167289	-0.295272	0.963661
C139	C	-0.768522	-0.961915	0.296983
C140	C	-0.435189	-0.628581	0.630317
C141	C	-0.101855	-0.295248	0.963650
C142	C	-0.735873	-0.905442	0.301872
C143	C	-0.402539	-0.572109	0.635205
C144	C	-0.069206	-0.238776	0.968539
C145	C	-0.970380	-0.945625	0.261878
C146	C	-0.637047	-0.612292	0.595211
C147	C	-0.303714	-0.278958	0.928545
C148	C	-1.035817	-0.945655	0.261896
C149	C	-0.702484	-0.612322	0.595230
C150	C	-0.369150	-0.278989	0.928563
C151	C	-1.035867	-0.865473	0.341963
C152	C	-0.702534	-0.532139	0.675297
C153	C	-0.369200	-0.198806	1.008630
C154	C	-0.970432	-0.865448	0.341948
C155	C	-0.637098	-0.532115	0.675281
C156	C	-0.303765	-0.198781	1.008615
C157	C	-0.937692	-0.905523	0.301902
C158	C	-0.604359	-0.572190	0.635235
C159	C	-0.271026	-0.238857	0.968569
C160	C	-0.138200	-0.905535	0.301912
C161	C	0.195134	-0.572201	0.635245
C162	C	0.528467	-0.238868	0.968578
C163	C	-0.068558	-0.905577	0.301932
C164	C	0.264775	-0.572244	0.635266
C165	C	0.598108	-0.238911	0.968599
C166	C	-0.301610	-0.905487	0.465286
C167	C	0.031723	-0.572153	0.798620
C168	C	0.365056	-0.238820	1.131953
C169	C	-0.301605	-0.905509	0.534928
C170	C	0.031728	-0.572175	0.868261
C171	C	0.365062	-0.238842	1.201594
C172	C	-0.301596	-0.068858	0.301880
C173	C	0.031738	0.264475	0.635213
C174	C	0.365071	0.597809	0.968547
C175	C	-0.301604	-0.138499	0.301879
C176	C	0.031730	0.194834	0.635212
C177	C	0.365063	0.528167	0.968545
C178	C	-0.301591	-0.905419	0.139075
C179	C	0.031743	-0.572086	0.472409
C180	C	0.365076	-0.238752	0.805742
C181	C	-0.301419	-0.905518	0.069435
C182	C	0.031914	-0.572185	0.402768
C183	C	0.365247	-0.238851	0.736101
C184	C	-0.261521	-0.945605	0.567659
C185	C	0.071812	-0.612272	0.900992
C186	C	0.405145	-0.278938	1.234325
C187	C	-0.261494	-0.945604	0.633094
C188	C	0.071839	-0.612271	0.966427
C189	C	0.405172	-0.278938	1.299761
C190	C	-0.301562	-0.905514	0.665796
C191	C	0.031771	-0.572180	0.999129
C192	C	0.365104	-0.238847	1.332463
C193	C	-0.341649	-0.865410	0.633057
C194	C	-0.008315	-0.532076	0.966390
C195	C	0.325018	-0.198743	1.299724
C196	C	-0.341670	-0.865407	0.567623
C197	C	-0.008337	-0.532074	0.900956
C198	C	0.324997	-0.198741	1.234290
C199	C	-0.357979	-0.900538	0.769459
C200	C	-0.024646	-0.567204	1.102792
C201	C	0.308688	-0.233871	1.436125
C202	C	-0.357959	-0.900545	0.834892
C203	C	-0.024625	-0.567211	1.168225
C204	C	0.308708	-0.233878	1.501558
C205	C	-0.301496	-0.905518	0.867617
C206	C	0.031837	-0.572184	1.200950
C207	C	0.365171	-0.238851	1.534284
C208	C	-0.245052	-0.910497	0.834901
C209	C	0.088281	-0.577164	1.168235
C210	C	0.421615	-0.243830	1.501568
C211	C	-0.245073	-0.910494	0.769467
C212	C	0.088260	-0.577161	1.102800
C213	C	0.421593	-0.243828	1.436134
C214	C	-0.301543	-0.905512	0.736748
C215	C	0.031790	-0.572178	1.070082
C216	C	0.365123	-0.238845	1.403415
C217	C	-0.261380	-0.945615	0.971300
C218	C	0.071954	-0.612282	1.304634
C219	C	0.405287	-0.278948	1.637967
C220	C	-0.261352	-0.945610	1.036737
C221	C	0.071982	-0.612276	1.370070
C222	C	0.405315	-0.278943	1.703404
C223	C	-0.341512	-0.865419	1.036699
C224	C	-0.008179	-0.532085	1.370032
C225	C	0.325155	-0.198752	1.703366
C226	C	-0.341534	-0.865421	0.971263
C227	C	-0.008201	-0.532087	1.304597
C228	C	0.325132	-0.198754	1.637930
C229	C	-0.301469	-0.905522	0.938568
C230	C	0.031864	-0.572189	1.271902
C231	C	0.365198	-0.238855	1.605235
H232	H	-0.404069	-0.465002	0.292710
H233	H	-0.070735	-0.131669	0.626043
H234	H	0.262598	0.201664	0.959376
N235	N	-0.384829	-0.539449	0.218407
N236	N	-0.051496	-0.206115	0.551740
N237	N	0.281838	0.127218	0.885073
H238	H	-0.378753	-0.493041	0.224502
H239	H	-0.045420	-0.159707	0.557835
H240	H	0.287914	0.173626	0.891169
H241	H	-0.429594	-0.550848	0.228071
H242	H	-0.096260	-0.217515	0.561404
H243	H	0.237073	0.115819	0.894738
N244	N	-1.071077	-0.988901	0.218720
N245	N	-0.737744	-0.655567	0.552054
N246	N	-0.404411	-0.322234	0.885387
H247	H	-1.098175	-1.017937	0.244212
H248	H	-0.764842	-0.684604	0.577545
H249	H	-0.431509	-0.351271	0.910879
H250	H	-1.040367	-1.014240	0.193358
H251	H	-0.707034	-0.680907	0.526692
H252	H	-0.373701	-0.347573	0.860025
H253	H	-0.228850	-0.978254	0.659749
H254	H	0.104483	-0.644921	0.993082
H255	H	0.437817	-0.311587	1.326416
H256	H	-1.062528	-0.832843	0.374563
H257	H	-0.729195	-0.499510	0.707897
H258	H	-0.395862	-0.166176	1.041230
N259	N	-0.869169	-1.022845	0.291728
N260	N	-0.535836	-0.689512	0.625062
N261	N	-0.202502	-0.356178	0.958395
H262	H	-0.896287	-1.028716	0.329909
H263	H	-0.562954	-0.695382	0.663242
H264	H	-0.229620	-0.362049	0.996575
H265	H	-0.838431	-1.058557	0.288603
H266	H	-0.505098	-0.725224	0.621936
H267	H	-0.171765	-0.391890	0.955270
H268	H	-0.943723	-0.978259	0.229272
H269	H	-0.610389	-0.644926	0.562605
H270	H	-0.277056	-0.311592	0.895939
N271	N	-0.218174	-0.988864	0.936025
N272	N	0.115159	-0.655531	1.269358
N273	N	0.448493	-0.322197	1.602691
H274	H	-0.173401	-0.979166	0.947399
H275	H	0.159932	-0.645832	1.280732
H276	H	0.493265	-0.312499	1.614066
H277	H	-0.224335	-0.982757	0.889618
H278	H	0.108999	-0.649424	1.222952
H279	H	0.442332	-0.316090	1.556285
N280	N	-0.218519	-0.675690	0.385291
N281	N	0.114814	-0.342357	0.718625
N282	N	0.448148	-0.009024	1.051958
H283	H	-0.189449	-0.702850	0.359877
H284	H	0.143885	-0.369516	0.693211
H285	H	0.477218	-0.036183	1.026544
H286	H	-0.244063	-0.702797	0.414274
H287	H	0.089271	-0.369464	0.747608
H288	H	0.422604	-0.036130	1.080941
H289	H	-0.374274	-0.666819	0.229006
H290	H	-0.040941	-0.333486	0.562340
H291	H	0.292392	-0.000152	0.895673
N292	N	-0.418833	-0.895174	0.870176
N293	N	-0.085500	-0.561840	1.203509
N294	N	0.247833	-0.228507	1.536842
H295	H	-0.424697	-0.933341	0.897337
H296	H	-0.091363	-0.600008	1.230670
H297	H	0.241970	-0.266674	1.564003
H298	H	-0.454567	-0.891995	0.839478
H299	H	-0.121234	-0.558661	1.172811
H300	H	0.212100	-0.225328	1.506144
H301	H	-0.540084	-0.978103	0.229201
H302	H	-0.206751	-0.644770	0.562534
H303	H	0.126582	-0.311437	0.895867
N304	N	-0.667440	-0.988748	0.218648
N305	N	-0.334107	-0.655415	0.551981
N306	N	-0.000773	-0.322081	0.885314
H307	H	-0.636771	-1.014132	0.193279
H308	H	-0.303437	-0.680799	0.526612
H309	H	0.029896	-0.347465	0.859945
H310	H	-0.694634	-0.963263	0.189637
H311	H	-0.361301	-0.629929	0.522970
H312	H	-0.027967	-0.296596	0.856303
N313	N	-0.218112	-0.988862	1.072034
N314	N	0.115222	-0.655528	1.405367
N315	N	0.448555	-0.322195	1.738700
H316	H	-0.243557	-1.017881	1.099196
H317	H	0.089776	-0.684547	1.432529
H318	H	0.423109	-0.351214	1.765863
H319	H	-0.189075	-0.963377	1.099134
H320	H	0.144259	-0.630044	1.432467
H321	H	0.477592	-0.296710	1.765800
N322	N	-0.218511	-0.539692	0.385307
N323	N	0.114822	-0.206359	0.718640
N324	N	0.448156	0.126974	1.051974
H325	H	-0.244019	-0.512535	0.414293
H326	H	0.089315	-0.179202	0.747626
H327	H	0.422648	0.154131	1.080960
H328	H	-0.189440	-0.512593	0.359860
H329	H	0.143893	-0.179260	0.693194
H330	H	0.477227	0.154074	1.026527
H331	H	-0.199253	-0.465213	0.311022
H332	H	0.134081	-0.131880	0.644355
H333	H	0.467414	0.201453	0.977688
H334	H	-0.860773	-0.803068	0.310753
H335	H	-0.527440	-0.469735	0.644087
H336	H	-0.194107	-0.136401	0.977420
H337	H	-0.741830	-1.007873	0.292997
H338	H	-0.408497	-0.674540	0.626330
H339	H	-0.075163	-0.341206	0.959663
H340	H	-0.742070	-0.803022	0.310740
H341	H	-0.408736	-0.469689	0.644074
H342	H	-0.075403	-0.136355	0.977407
H343	H	-0.943816	-0.832795	0.374540
H344	H	-0.610483	-0.499462	0.707873
H345	H	-0.277150	-0.166129	1.041206
N346	N	-0.667540	-0.822096	0.385074
N347	N	-0.334207	-0.488763	0.718407
N348	N	-0.000873	-0.155429	1.051740
H349	H	-0.713953	-0.828193	0.379006
H350	H	-0.380619	-0.494860	0.712339
H351	H	-0.047286	-0.161527	1.045672
H352	H	-0.656159	-0.777349	0.375279
H353	H	-0.322826	-0.444016	0.708612
H354	H	0.010508	-0.110683	1.041946
N355	N	-0.531532	-0.822049	0.385053
N356	N	-0.198198	-0.488716	0.718386
N357	N	0.135135	-0.155383	1.051720
H358	H	-0.562203	-0.796664	0.410420
H359	H	-0.228869	-0.463331	0.743753
H360	H	0.104464	-0.129997	1.077086
H361	H	-0.504433	-0.793056	0.359515
H362	H	-0.171100	-0.459723	0.692848
H363	H	0.162233	-0.126390	1.026182
H364	H	-0.228896	-0.978258	0.541042
H365	H	0.104437	-0.644925	0.874376
H366	H	0.437770	-0.311591	1.207709
H367	H	-0.374130	-0.832770	1.063324
H368	H	-0.040796	-0.499436	1.396657
H369	H	0.292537	-0.166103	1.729991
H370	H	-0.199115	-0.914547	0.742833
H371	H	0.134219	-0.581214	1.076166
H372	H	0.467552	-0.247880	1.409499
H373	H	-0.199075	-0.914547	0.861545
H374	H	0.134259	-0.581214	1.194878
H375	H	0.467592	-0.247881	1.528211
H376	H	-0.374179	-0.832774	0.944614
H377	H	-0.040845	-0.499440	1.277947
H378	H	0.292488	-0.166107	1.611280
N379	N	-0.418883	-0.895182	0.734165
N380	N	-0.085549	-0.561849	1.067498
N381	N	0.247784	-0.228515	1.400831
H382	H	-0.454635	-0.892038	0.764817
H383	H	-0.121302	-0.558704	1.098150
H384	H	0.212031	-0.225371	1.431484
H385	H	-0.424692	-0.933358	0.707036
H386	H	-0.091359	-0.600024	1.040369
H387	H	0.241974	-0.266691	1.373702
H388	H	-0.374270	-0.832766	0.659687
H389	H	-0.040937	-0.499432	0.993021
H390	H	0.292396	-0.166099	1.326354
H391	H	-0.374310	-0.832753	0.540974
H392	H	-0.040977	-0.499420	0.874307
H393	H	0.292356	-0.166087	1.207640
H394	H	-0.199235	-0.346501	0.311026
H395	H	0.134098	-0.013168	0.644359
H396	H	0.467432	0.320165	0.977693
H397	H	-0.229036	-0.263396	0.374710
H398	H	0.104298	0.069938	0.708043
H399	H	0.437631	0.403271	1.041376
H400	H	-0.374196	-0.144469	0.229047
H401	H	-0.040863	0.188864	0.562380
H402	H	0.292471	0.522198	0.895713
N403	N	-0.218431	-0.136051	0.385311
N404	N	0.114903	0.197282	0.718644
N405	N	0.448236	0.530615	1.051977
H406	H	-0.193090	-0.166745	0.410741
H407	H	0.140243	0.166589	0.744074
H408	H	0.473576	0.499922	1.077408
H409	H	-0.243967	-0.108886	0.414260
H410	H	0.089366	0.224448	0.747593
H411	H	0.422699	0.557781	1.080927
N412	N	-0.384791	-0.271811	0.218426
N413	N	-0.051457	0.061522	0.551760
N414	N	0.281876	0.394856	0.885093
H415	H	-0.429570	-0.260385	0.228075
H416	H	-0.096237	0.072948	0.561409
H417	H	0.237096	0.406282	0.894742
H418	H	-0.378674	-0.318226	0.224531
H419	H	-0.045341	0.015107	0.557864
H420	H	0.287992	0.348441	0.891197
N421	N	-0.418963	-0.337630	0.291383
N422	N	-0.085630	-0.004296	0.624716
N423	N	0.247704	0.329037	0.958049
H424	H	-0.454723	-0.368249	0.288177
H425	H	-0.121390	-0.034916	0.621511
H426	H	0.211943	0.298418	0.954844
H427	H	-0.417994	-0.310462	0.252781
H428	H	-0.084661	0.022871	0.586114
H429	H	0.248672	0.356205	0.919447
