data_functionalizedCrystal
_audit_creation_method	'MofGen! by Chris Wilmer'
_symmetry_space_group_name_H-M	'P1'
_symmetry_Int_Tables_number	1
_symmetry_cell_setting	triclinic
loop_
_symmetry_equiv_pos_as_xyz
  x,y,z
_cell_length_a	12.759401
_cell_length_b	12.759400
_cell_length_c	12.759393
_cell_angle_alpha	90.029855
_cell_angle_beta	90.020459
_cell_angle_gamma	90.016209
loop_
_atom_site_label
_atom_site_type_symbol
_atom_site_fract_x
_atom_site_fract_y
_atom_site_fract_z
Zn1	Zn	1.606262	-0.418179	0.594020
Zn2	Zn	1.606154	-0.593893	0.418340
Zn3	Zn	1.430562	-0.418233	0.418355
Zn4	Zn	1.430552	-0.593821	0.593978
O5	O	1.518382	-0.506032	0.506173
O6	O	1.753268	-0.441495	0.570727
O7	O	1.582820	-0.570644	0.271321
O8	O	1.453918	-0.271205	0.441682
O9	O	1.753189	-0.570591	0.441656
O10	O	1.583003	-0.271165	0.570742
O11	O	1.453813	-0.441587	0.271332
O12	O	1.283539	-0.441518	0.441640
O13	O	1.453901	-0.570470	0.741004
O14	O	1.283532	-0.570522	0.570669
O15	O	1.582994	-0.441426	0.741036
O16	O	1.582811	-0.740904	0.441615
O17	O	1.453797	-0.740852	0.570655
C18	C	1.245415	-0.506019	0.506152
C19	C	1.128638	-0.506039	0.506168
C20	C	1.073800	-0.573313	0.573248
C21	C	0.964076	-0.573317	0.573269
C22	C	0.964038	-0.438769	0.439122
C23	C	1.073760	-0.438761	0.439107
C24	C	1.518320	-0.778999	0.506151
C25	C	1.518389	-0.895776	0.506177
C26	C	1.585642	-0.950630	0.439060
C27	C	1.585706	-1.060354	0.439093
C28	C	1.451257	-1.060360	0.573362
C29	C	1.451199	-0.950638	0.573334
C30	C	1.663261	-0.950628	0.361538
C31	C	1.663326	-1.060352	0.361570
C32	C	1.792416	-0.506045	0.506195
C33	C	1.909192	-0.506051	0.506204
C34	C	1.518459	-0.505934	0.780207
C35	C	1.518491	-0.505892	0.896984
C36	C	1.518474	-0.231998	0.506218
C37	C	1.518512	-0.115222	0.506237
C38	C	1.518367	-0.506053	0.233206
C39	C	1.518538	-0.505799	0.116430
C40	C	1.585693	-0.573014	1.061575
C41	C	1.585667	-0.573064	0.951851
C42	C	1.451329	-0.438674	0.951846
C43	C	1.451350	-0.438631	1.061568
H44	H	1.118479	-0.628093	0.627857
H45	H	0.919432	-0.628097	0.627893
H46	H	1.640352	-0.627796	0.907193
O47	O	1.386255	-0.373288	1.114980
C48	C	1.446101	-0.305394	1.178454
H49	H	1.525716	-0.342439	1.194892
H50	H	1.403327	-0.291296	1.255608
H51	H	1.457653	-0.227546	1.136189
H52	H	0.919343	-0.383996	0.384521
O53	O	1.126874	-0.373374	0.373841
C54	C	1.054912	-0.313982	0.314666
H55	H	0.976686	-0.357014	0.310959
H56	H	1.086581	-0.302671	0.231906
H57	H	1.043278	-0.234238	0.353281
H58	H	1.396447	-0.905976	0.627995
H59	H	1.641588	-1.090212	0.280189
H60	H	1.396554	-1.105042	0.628039
H61	H	1.640400	-0.627708	1.106241
O62	O	1.386172	-0.373457	0.898388
C63	C	1.400536	-0.387923	0.789781
H64	H	1.481600	-0.422344	0.774805
H65	H	1.393431	-0.309242	0.748092
H66	H	1.338192	-0.443878	0.758624
O67	O	1.760377	-0.915122	0.387490
C68	C	1.833958	-0.952019	0.313784
H69	H	1.802089	-1.025467	0.274066
H70	H	1.910585	-0.971493	0.355406
H71	H	1.848699	-0.888937	0.252283
O72	O	1.628374	-0.910243	0.269290
C73	C	1.524955	-0.944542	0.250778
H74	H	1.509974	-1.019908	0.296325
H75	H	1.513783	-0.959842	0.163450
H76	H	1.467482	-0.881613	0.277586
O77	O	1.755543	-1.100730	0.396570
C78	C	1.773909	-1.066428	0.500021
H79	H	1.728319	-0.991065	0.514959
H80	H	1.861217	-1.051122	0.511312
H81	H	1.747045	-1.129358	0.557445
