data_functionalizedCrystal
_audit_creation_method	'MofGen! by Chris Wilmer'
_symmetry_space_group_name_H-M	'P1'
_symmetry_Int_Tables_number	1
_symmetry_cell_setting	triclinic
loop_
_symmetry_equiv_pos_as_xyz
  x,y,z
_cell_length_a	12.759401
_cell_length_b	12.759399
_cell_length_c	17.077396
_cell_angle_alpha	90.025307
_cell_angle_beta	90.016407
_cell_angle_gamma	90.015712
loop_
_atom_site_label
_atom_site_type_symbol
_atom_site_fract_x
_atom_site_fract_y
_atom_site_fract_z
Zn1	Zn	1.606227	-0.418262	0.443795
Zn2	Zn	1.606126	-0.593962	0.312537
Zn3	Zn	1.430536	-0.418298	0.312550
Zn4	Zn	1.430515	-0.593900	0.443767
O5	O	1.518351	-0.506106	0.378162
O6	O	1.753235	-0.441580	0.426389
O7	O	1.582799	-0.570702	0.202691
O8	O	1.453893	-0.271273	0.329978
O9	O	1.753160	-0.570666	0.329954
O10	O	1.582973	-0.271246	0.426403
O11	O	1.453794	-0.441642	0.202701
O12	O	1.283512	-0.441582	0.329950
O13	O	1.453858	-0.570560	0.553618
O14	O	1.283497	-0.570595	0.426355
O15	O	1.582953	-0.441519	0.553638
O16	O	1.582779	-0.740975	0.329927
O17	O	1.453759	-0.740929	0.426342
C18	C	1.245384	-0.506086	0.378152
C19	C	1.128607	-0.506103	0.378166
C20	C	1.073765	-0.573388	0.428280
C21	C	0.964041	-0.573401	0.428289
C22	C	0.964011	-0.438842	0.328061
C23	C	1.073733	-0.438824	0.328057
C24	C	1.073781	-0.651078	0.486144
C25	C	0.964057	-0.651092	0.486152
C26	C	1.518285	-0.779073	0.378147
C27	C	1.518352	-0.895850	0.378167
C28	C	1.451223	-1.060451	0.428353
C29	C	1.451158	-0.950727	0.428334
C30	C	1.585624	-0.950702	0.328020
C31	C	1.585693	-1.060424	0.328044
C32	C	1.373588	-1.060464	0.486266
C33	C	1.373522	-0.950740	0.486247
C34	C	1.792384	-0.506126	0.378173
C35	C	1.909161	-0.506134	0.378178
C36	C	1.518415	-0.506028	0.582907
C37	C	1.518442	-0.505995	0.670157
C38	C	1.518446	-0.232072	0.378195
C39	C	1.518487	-0.115296	0.378209
C40	C	1.518348	-0.506107	0.174214
C41	C	1.518525	-0.505844	0.086965
C42	C	1.585664	-0.438798	0.711159
C43	C	1.585677	-0.438763	0.793139
C44	C	1.518472	-0.505931	0.834116
C45	C	1.451242	-0.573131	0.793108
C46	C	1.451225	-0.573160	0.711129
C47	C	1.451284	-0.573068	0.963978
C48	C	1.451303	-0.573041	1.045963
C49	C	1.585736	-0.438671	1.045988
C50	C	1.585719	-0.438700	0.964009
C51	C	1.518490	-0.505902	0.923007
H52	H	1.107795	-0.728327	0.464264
O53	O	1.126958	-0.373566	0.279270
C54	C	1.100089	-0.396363	0.201004
H55	H	1.069921	-0.480294	0.196922
H56	H	1.036394	-0.340009	0.180568
C57	C	1.234588	-0.280926	0.153641
C58	C	1.197543	-0.384015	0.148627
H59	H	1.294700	-0.273306	0.121332
H60	H	1.252688	-0.265564	0.206370
H61	H	1.181499	-0.233977	0.136612
H62	H	1.250627	-0.430961	0.165665
H63	H	1.179455	-0.399385	0.095900
H64	H	1.103587	-0.629387	0.546967
H65	H	0.919319	-0.384065	0.287265
O66	O	1.651036	-0.373357	0.924324
C67	C	1.710395	-0.314054	0.978091
H68	H	1.667380	-0.310387	1.036526
H69	H	1.790176	-0.352531	0.986810
C70	C	1.778400	-0.206756	0.874335
C71	C	1.725564	-0.202245	0.946105
H72	H	1.787762	-0.137788	0.854604
H73	H	1.738412	-0.246711	0.838111
H74	H	1.844879	-0.238825	0.881611
H75	H	1.659082	-0.170188	0.938826
H76	H	1.765541	-0.162281	0.982327
H77	H	1.396475	-0.627868	0.677746
H78	H	1.395332	-1.090161	0.547086
H79	H	1.292146	-0.921050	0.469904
H80	H	1.402599	-0.916628	0.544013
O81	O	0.923538	-0.616619	0.555160
C82	C	0.957803	-0.682215	0.616451
H83	H	0.980318	-0.762063	0.591662
H84	H	1.028792	-0.645414	0.646280
C85	C	0.841267	-0.597648	0.707039
C86	C	0.868913	-0.695722	0.676594
H87	H	0.786439	-0.605977	0.744140
H88	H	0.818185	-0.553452	0.665747
H89	H	0.900433	-0.566991	0.731890
H90	H	0.809752	-0.726371	0.651735
H91	H	0.891983	-0.739924	0.717883
O92	O	1.650982	-0.373451	0.671479
C93	C	1.710333	-0.314152	0.725252
H94	H	1.667312	-0.310492	0.783685
H95	H	1.790115	-0.352627	0.733974
C96	C	1.778346	-0.206841	0.621507
C97	C	1.725503	-0.202339	0.693274
H98	H	1.787709	-0.137870	0.601780
H99	H	1.738364	-0.246794	0.585278
H100	H	1.844825	-0.238908	0.628785
H101	H	1.659020	-0.170284	0.685993
H102	H	1.765474	-0.162377	0.729501
O103	O	1.650930	-0.373410	1.085935
C104	C	1.636547	-0.387793	1.167078
H105	H	1.555460	-0.422199	1.178260
H106	H	1.698854	-0.443727	1.190350
C107	C	1.745796	-0.239210	1.195439
C108	C	1.646200	-0.281460	1.209173
H109	H	1.751755	-0.173621	1.221406
H110	H	1.755490	-0.229522	1.140771
H111	H	1.797708	-0.285832	1.214832
H112	H	1.594292	-0.234845	1.189772
H113	H	1.636498	-0.291138	1.263839
O114	O	1.650749	-0.897350	0.279205
C115	C	1.590936	-0.833962	0.228468
H116	H	1.508213	-0.867106	0.223571
H117	H	1.587247	-0.750787	0.252721
C118	C	1.743929	-0.791598	0.152913
C119	C	1.642330	-0.832311	0.146893
H120	H	1.775632	-0.790575	0.102595
H121	H	1.784227	-0.834301	0.187097
H122	H	1.740841	-0.722289	0.173127
H123	H	1.645420	-0.901623	0.126689
H124	H	1.602033	-0.789620	0.112703
O125	O	1.385917	-0.638316	1.085648
C126	C	1.326588	-0.697648	1.031882
H127	H	1.322951	-0.654638	0.973449
H128	H	1.365022	-0.777451	1.023156
C129	C	1.219241	-0.765583	1.135640
C130	C	1.214767	-0.712753	1.063873
H131	H	1.150266	-0.774906	1.155374
H132	H	1.259215	-0.725613	1.171864
H133	H	1.251275	-0.832080	1.128358
H134	H	1.182746	-0.646253	1.071157
H135	H	1.174785	-0.752712	1.027651
O136	O	1.386134	-0.638401	0.924055
C137	C	1.445935	-0.706285	0.876650
H138	H	1.525563	-0.669231	0.864392
H139	H	1.457460	-0.784135	0.908232
C140	C	1.290324	-0.770842	0.813817
C141	C	1.388121	-0.725327	0.798757
H142	H	1.254661	-0.782592	0.765770
H143	H	1.250034	-0.725110	0.845757
H144	H	1.299942	-0.835711	0.840138
H145	H	1.378501	-0.660453	0.772446
H146	H	1.428408	-0.771048	0.766811
O147	O	0.928624	-0.748210	0.466692
C148	C	0.965542	-0.821829	0.521714
H149	H	1.038954	-0.789947	0.551419
H150	H	0.902446	-0.836661	0.567648
C151	C	0.901767	-0.964435	0.443156
C152	C	0.991939	-0.925280	0.479636
H153	H	0.918045	-1.028251	0.417203
H154	H	0.876891	-0.914837	0.406088
H155	H	0.849195	-0.976787	0.481441
H156	H	1.044503	-0.912917	0.441350
H157	H	1.016824	-0.974879	0.516697
H158	H	1.396519	-0.627817	0.826478
O159	O	1.281421	-1.101303	0.460354
C160	C	1.236420	-1.163417	0.519763
H161	H	1.300269	-1.190528	0.561833
H162	H	1.175809	-1.115317	0.553132
C163	C	1.104469	-1.226325	0.431080
C164	C	1.182891	-1.259630	0.482748
H165	H	1.071446	-1.285670	0.408248
H166	H	1.134784	-1.184474	0.391055
H167	H	1.053970	-1.186240	0.458895
H168	H	1.233395	-1.299702	0.454930
H169	H	1.152583	-1.301489	0.522767
H170	H	1.640475	-1.105075	0.287218
H171	H	1.640418	-0.384047	0.826520
