data_functionalizedCrystal
_audit_creation_method	'MofGen! by Chris Wilmer'
_symmetry_space_group_name_H-M	'P1'
_symmetry_Int_Tables_number	1
_symmetry_cell_setting	triclinic
loop_
_symmetry_equiv_pos_as_xyz
  x,y,z
_cell_length_a	17.077404
_cell_length_b	12.759399
_cell_length_c	12.759393
_cell_angle_alpha	90.030906
_cell_angle_beta	90.024604
_cell_angle_gamma	90.014220
loop_
_atom_site_label
_atom_site_type_symbol
_atom_site_fract_x
_atom_site_fract_y
_atom_site_fract_z
Zn1	Zn	-1.200121	0.418241	-0.594120
Zn2	Zn	-0.700121	0.918241	-0.094120
Zn3	Zn	-1.200039	0.593956	-0.418439
Zn4	Zn	-0.700039	1.093956	0.081561
Zn5	Zn	-1.068846	0.418289	-0.418444
Zn6	Zn	-0.568846	0.918289	0.081556
Zn7	Zn	-1.068839	0.593875	-0.594065
Zn8	Zn	-0.568839	1.093875	-0.094065
O9	O	-1.134461	0.506090	-0.506267
O10	O	-0.634461	1.006090	-0.006267
O11	O	-1.309957	0.441563	-0.570836
O12	O	-0.809957	0.941563	-0.070836
O13	O	-1.182605	0.570708	-0.271418
O14	O	-0.682605	1.070708	0.228582
O15	O	-1.086297	0.271262	-0.441773
O16	O	-0.586297	0.771262	0.058227
O17	O	-1.309897	0.570661	-0.441764
O18	O	-0.809897	1.070661	0.058236
O19	O	-1.182745	0.271226	-0.570841
O20	O	-0.682745	0.771226	-0.070841
O21	O	-1.086218	0.441646	-0.271422
O22	O	-0.586218	0.941646	0.228578
O23	O	-0.958998	0.441567	-0.441719
O24	O	-0.458998	0.941567	0.058281
O25	O	-1.086285	0.570523	-0.741093
O26	O	-0.586285	1.070523	-0.241093
O27	O	-0.958993	0.570570	-0.570747
O28	O	-0.458993	1.070570	-0.070747
O29	O	-1.182738	0.441485	-0.741134
O30	O	-0.682738	0.941485	-0.241134
O31	O	-1.182598	0.740966	-0.441711
O32	O	-0.682598	1.240966	0.058289
O33	O	-1.086206	0.740907	-0.570742
O34	O	-0.586206	1.240907	-0.070742
C35	C	-0.930514	0.506066	-0.506228
C36	C	-0.430514	1.006066	-0.006228
C37	C	-0.843264	0.506081	-0.506237
C38	C	-0.343264	1.006081	-0.006237
C39	C	-0.802291	0.573353	-0.573312
C40	C	-0.302291	1.073353	-0.073312
C41	C	-0.720311	0.573353	-0.573325
C42	C	-0.220311	1.073353	-0.073325
C43	C	-0.679304	0.506086	-0.506257
C44	C	-0.179304	1.006086	-0.006257
C45	C	-0.720282	0.438806	-0.439179
C46	C	-0.220282	0.938806	0.060821
C47	C	-0.802261	0.438802	-0.439172
C48	C	-0.302261	0.938802	0.060828
C49	C	-0.549412	0.438822	-0.439196
C50	C	-0.049412	0.938822	0.060804
C51	C	-0.467428	0.438828	-0.439202
C52	C	0.032572	0.938828	0.060798
C53	C	-0.467462	0.573374	-0.573350
C54	C	0.032538	1.073374	-0.073350
C55	C	-0.549441	0.573369	-0.573343
C56	C	-0.049441	1.073369	-0.073343
C57	C	-0.590413	0.506091	-0.506263
C58	C	-0.090413	1.006091	-0.006263
C59	C	-1.134413	0.779058	-0.506243
C60	C	-0.634413	1.279058	-0.006243
C61	C	-1.134464	0.895834	-0.506268
C62	C	-0.634464	1.395834	-0.006268
C63	C	-1.134520	0.505989	-0.780300
C64	C	-0.634520	1.005989	-0.280300
C65	C	-1.134545	0.505946	-0.897077
C66	C	-0.634545	1.005946	-0.397077
C67	C	-0.339206	0.506109	-0.506294
C68	C	0.160794	1.006109	-0.006294
C69	C	-0.426455	0.506100	-0.506277
C70	C	0.073545	1.006100	-0.006277
C71	C	-1.134531	0.232057	-0.506314
C72	C	-0.634531	0.732057	-0.006314
C73	C	-1.134561	0.115280	-0.506334
C74	C	-0.634561	0.615280	-0.006334
C75	C	-1.184713	0.950692	-0.439157
C76	C	-0.684713	1.450692	0.060843
C77	C	-1.184764	1.060416	-0.439193
C78	C	-0.684764	1.560416	0.060807
C79	C	-1.084310	1.060415	-0.573452
C80	C	-0.584310	1.560415	-0.073452
C81	C	-1.084264	0.950693	-0.573421
C82	C	-0.584264	1.450693	-0.073421
C83	C	-1.184772	0.438746	-0.951962
C84	C	-0.684772	0.938746	-0.451962
C85	C	-1.184785	0.438700	-1.061686
C86	C	-0.684785	0.938700	-0.561686
C87	C	-1.084343	0.573066	-1.061631
C88	C	-0.584343	1.073066	-0.561631
C89	C	-1.084326	0.573105	-0.951909
C90	C	-0.584326	1.073105	-0.451909
C91	C	-1.134448	0.506115	-0.233299
C92	C	-0.634448	1.006115	0.266701
C93	C	-1.134575	0.505862	-0.116523
C94	C	-0.634575	1.005862	0.383477
H95	H	-0.835673	0.628133	-0.627924
H96	H	-0.335673	1.128133	-0.127924
Br97	Br	-0.605017	0.347513	-0.348161
Br98	Br	-0.105017	0.847513	0.151839
Br99	Br	-1.016195	0.664209	-1.136052
Br100	Br	-0.516195	1.164209	-0.636052
H101	H	-0.434042	0.384041	-0.384601
H102	H	0.065958	0.884041	0.115399
H103	H	-1.043420	0.627827	-0.907220
H104	H	-0.543420	1.127827	-0.407220
H105	H	-0.686955	0.628133	-0.627944
H106	H	-0.186955	1.128133	-0.127944
Br107	Br	-0.605093	0.664671	-0.664355
Br108	Br	-0.105093	1.164671	-0.164355
H109	H	-0.434098	0.628151	-0.627972
H110	H	0.065902	1.128151	-0.127972
H111	H	-1.225661	0.384058	-0.907321
H112	H	-0.725661	0.884058	-0.407321
H113	H	-1.043437	1.105094	-0.628124
H114	H	-0.543437	1.605094	-0.128124
Br115	Br	-0.664631	0.347504	-0.348166
Br116	Br	-0.164631	0.847504	0.151834
H117	H	-0.835620	0.384016	-0.384558
H118	H	-0.335620	0.884016	0.115442
H119	H	-1.225591	0.906029	-0.384479
H120	H	-0.725591	1.406029	0.115521
H121	H	-1.043345	0.906024	-0.628075
H122	H	-0.543345	1.406024	-0.128075
H123	H	-1.225682	1.105077	-0.384546
H124	H	-0.725682	1.605077	0.115454
Br125	Br	-1.252958	0.347503	-1.136169
Br126	Br	-0.752958	0.847503	-0.636169
