data_functionalizedCrystal
_audit_creation_method	'MofGen! by Chris Wilmer'
_symmetry_space_group_name_H-M	'P1'
_symmetry_Int_Tables_number	1
_symmetry_cell_setting	triclinic
loop_
_symmetry_equiv_pos_as_xyz
  x,y,z
_cell_length_a	17.077404
_cell_length_b	17.077402
_cell_length_c	17.077396
_cell_angle_alpha	90.027528
_cell_angle_beta	90.021444
_cell_angle_gamma	90.021740
loop_
_atom_site_label
_atom_site_type_symbol
_atom_site_fract_x
_atom_site_fract_y
_atom_site_fract_z
Zn1	Zn	1.200051	-0.312545	0.443889
Zn2	Zn	1.700051	0.187455	0.943889
Zn3	Zn	1.199957	-0.443820	0.312625
Zn4	Zn	1.699957	0.056180	0.812625
Zn5	Zn	1.068783	-0.312568	0.312632
Zn6	Zn	1.568783	0.187432	0.812632
Zn7	Zn	1.068750	-0.443769	0.443844
Zn8	Zn	1.568750	0.056231	0.943844
O9	O	1.134385	-0.378175	0.378247
O10	O	1.634385	0.121825	0.878247
O11	O	1.309886	-0.329970	0.426492
O12	O	1.809886	0.170030	0.926492
O13	O	1.182531	-0.426440	0.202779
O14	O	1.682531	0.073560	0.702779
O15	O	1.086250	-0.202718	0.330065
O16	O	1.586250	0.297282	0.830065
O17	O	1.309816	-0.426418	0.330053
O18	O	1.809816	0.073582	0.830053
O19	O	1.182692	-0.202701	0.426499
O20	O	1.682692	0.297299	0.926499
O21	O	1.086158	-0.330010	0.202784
O22	O	1.586158	0.169990	0.702784
O23	O	0.958932	-0.329960	0.330022
O24	O	1.458932	0.170040	0.830022
O25	O	1.086193	-0.426330	0.553697
O26	O	1.586193	0.073670	1.053697
O27	O	0.958907	-0.426353	0.426423
O28	O	1.458907	0.073647	0.926423
O29	O	1.182659	-0.329921	0.553730
O30	O	1.682659	0.170079	1.053730
O31	O	1.182499	-0.553660	0.330009
O32	O	1.682499	-0.053660	0.830009
O33	O	1.086101	-0.553622	0.426416
O34	O	1.586101	-0.053622	0.926416
C35	C	0.930437	-0.378154	0.378219
C36	C	1.430437	0.121846	0.878219
C37	C	0.843188	-0.378164	0.378225
C38	C	1.343188	0.121836	0.878225
C39	C	1.134307	-0.582123	0.378224
C40	C	1.634307	-0.082123	0.878224
C41	C	1.134346	-0.669373	0.378240
C42	C	1.634346	-0.169373	0.878240
C43	C	0.467406	-0.328067	0.428572
C44	C	0.967406	0.171933	0.928572
C45	C	0.549387	-0.328061	0.428563
C46	C	1.049387	0.171939	0.928563
C47	C	0.590339	-0.378192	0.378267
C48	C	1.090339	0.121808	0.878267
C49	C	0.549306	-0.428337	0.327982
C50	C	1.049306	0.071663	0.827982
C51	C	0.467327	-0.428346	0.327995
C52	C	0.967327	0.071654	0.827995
C53	C	0.720176	-0.428313	0.327957
C54	C	1.220176	0.071687	0.827957
C55	C	0.802161	-0.428303	0.327942
C56	C	1.302161	0.071697	0.827942
C57	C	0.802236	-0.328029	0.428525
C58	C	1.302236	0.171971	0.928525
C59	C	0.720257	-0.328038	0.428538
C60	C	1.220257	0.171962	0.928538
C61	C	0.679230	-0.378182	0.378252
C62	C	1.179230	0.121818	0.878252
C63	C	1.184536	-0.710287	0.428494
C64	C	1.684536	-0.210287	0.928494
C65	C	1.184569	-0.792267	0.428510
C66	C	1.684569	-0.292267	0.928510
C67	C	1.134415	-0.833332	0.378269
C68	C	1.634415	-0.333332	0.878269
C69	C	1.084220	-0.792413	0.328014
C70	C	1.584220	-0.292413	0.828014
C71	C	1.084183	-0.710434	0.328001
C72	C	1.584183	-0.210434	0.828001
C73	C	1.084300	-0.963283	0.328041
C74	C	1.584300	-0.463283	0.828041
C75	C	1.084337	-1.045267	0.328052
C76	C	1.584337	-0.545267	0.828052
C77	C	1.184686	-1.045116	0.428550
C78	C	1.684686	-0.545116	0.928550
C79	C	1.184649	-0.963137	0.428538
C80	C	1.684649	-0.463137	0.928538
C81	C	1.134455	-0.922223	0.378281
C82	C	1.634455	-0.422223	0.878281
C83	C	1.339130	-0.378197	0.378276
C84	C	1.839130	0.121803	0.878276
C85	C	1.426379	-0.378206	0.378289
C86	C	1.926379	0.121794	0.878289
C87	C	1.134433	-0.378117	0.582992
C88	C	1.634433	0.121883	1.082992
C89	C	1.134453	-0.378093	0.670242
C90	C	1.634453	0.121907	1.170242
C91	C	1.134485	-0.173431	0.378288
C92	C	1.634485	0.326569	0.878288
C93	C	1.134527	-0.086181	0.378305
C94	C	1.634527	0.413819	0.878305
C95	C	1.134383	-0.378176	0.174300
C96	C	1.634383	0.121824	0.674300
C97	C	1.134515	-0.377980	0.087050
C98	C	1.634515	0.122020	0.587050
C99	C	1.184685	-0.327888	0.711250
C100	C	1.684685	0.172112	1.211250
C101	C	1.184695	-0.327862	0.793231
C102	C	1.684695	0.172138	1.293231
C103	C	1.134475	-0.378045	0.834201
C104	C	1.634475	0.121955	1.334201
C105	C	1.084238	-0.428252	0.793187
C106	C	1.584238	0.071748	1.293187
C107	C	1.084225	-0.428273	0.711208
C108	C	1.584225	0.071727	1.211208
C109	C	1.084269	-0.428205	0.964057
C110	C	1.584269	0.071795	1.464057
C111	C	1.084283	-0.428184	1.046042
C112	C	1.584283	0.071816	1.546042
C113	C	1.184739	-0.327793	1.046080
C114	C	1.684739	0.172207	1.546080
C115	C	1.184726	-0.327815	0.964101
C116	C	1.684726	0.172185	1.464101
C117	C	1.134489	-0.378023	0.923092
C118	C	1.634489	0.121977	1.423092
H119	H	0.434069	-0.287240	0.469524
H120	H	0.934069	0.212760	0.969524
H121	H	0.433924	-0.469176	0.287051
H122	H	0.933924	0.030824	0.787051
H123	H	1.225380	-0.676857	0.469402
H124	H	1.725380	-0.176857	0.969402
H125	H	1.043495	-1.078700	0.287144
H126	H	1.543495	-0.578700	0.787144
F127	F	1.030828	-0.481588	1.089644
F128	F	1.530828	0.018412	1.589644
H129	H	0.582787	-0.287236	0.469511
H130	H	1.082787	0.212764	0.969511
H131	H	0.835501	-0.469126	0.286989
H132	H	1.335501	0.030874	0.786989
F133	F	1.238109	-1.088660	0.482036
F134	F	1.738109	-0.588660	0.982036
H135	H	1.225582	-0.287026	0.677898
H136	H	1.725582	0.212974	1.177898
F137	F	1.030835	-0.836119	0.274550
F138	F	1.530835	-0.336119	0.774550
F139	F	1.238185	-0.274454	0.836871
F140	F	1.738185	0.225546	1.336871
H141	H	1.043423	-0.929973	0.287119
H142	H	1.543423	-0.429973	0.787119
H143	H	1.043312	-0.677123	0.287081
H144	H	1.543312	-0.177123	0.787081
H145	H	1.225445	-0.825576	0.469426
H146	H	1.725445	-0.325576	0.969426
F147	F	0.592892	-0.481693	0.274456
F148	F	1.092892	0.018307	0.774456
H149	H	1.043346	-0.469109	0.826551
H150	H	1.543346	0.030891	1.326551
H151	H	1.225623	-0.286956	0.930745
H152	H	1.725623	0.213044	1.430745
H153	H	1.043313	-0.469147	0.677820
H154	H	1.543313	0.030853	1.177820
F155	F	1.238033	-0.919434	0.482006
F156	F	1.738033	-0.419434	0.982006
F157	F	0.676514	-0.481691	0.274444
F158	F	1.176514	0.018309	0.774444
H159	H	1.225642	-0.286911	1.079473
H160	H	1.725642	0.213089	1.579473
F161	F	0.676674	-0.274680	0.482065
F162	F	1.176674	0.225320	0.982065
H163	H	1.043349	-0.469077	0.930670
H164	H	1.543349	0.030923	1.430670
H165	H	0.835644	-0.287198	0.469469
H166	H	1.335644	0.212802	0.969469
