data_functionalizedCrystal
_audit_creation_method	'MofGen! by Chris Wilmer'
_symmetry_space_group_name_H-M	'P1'
_symmetry_Int_Tables_number	1
_symmetry_cell_setting	triclinic
loop_
_symmetry_equiv_pos_as_xyz
  x,y,z
_cell_length_a	17.077404
_cell_length_b	17.077402
_cell_length_c	17.077396
_cell_angle_alpha	90.027528
_cell_angle_beta	90.019501
_cell_angle_gamma	90.023718
loop_
_atom_site_label
_atom_site_type_symbol
_atom_site_fract_x
_atom_site_fract_y
_atom_site_fract_z
Zn1	Zn	1.200051	-0.312503	0.443848
Zn2	Zn	1.199957	-0.443778	0.312584
Zn3	Zn	1.068783	-0.312531	0.312596
Zn4	Zn	1.068750	-0.443732	0.443808
O5	O	1.134385	-0.378136	0.378209
O6	O	1.309886	-0.329925	0.426447
O7	O	1.182531	-0.426399	0.202739
O8	O	1.086250	-0.202680	0.330028
O9	O	1.309816	-0.426372	0.330008
O10	O	1.182692	-0.202660	0.426459
O11	O	1.086158	-0.329972	0.202747
O12	O	0.958932	-0.329927	0.329989
O13	O	1.086193	-0.426293	0.553660
O14	O	0.958907	-0.426320	0.426390
O15	O	1.182659	-0.329880	0.553690
O16	O	1.182499	-0.553619	0.329969
O17	O	1.086101	-0.553585	0.426379
C18	C	0.930437	-0.378122	0.378187
C19	C	0.843188	-0.378135	0.378197
C20	C	1.134307	-0.582084	0.378186
C21	C	1.134346	-0.669334	0.378202
C22	C	0.802205	-0.428402	0.428312
C23	C	0.720225	-0.428404	0.428324
C24	C	0.679228	-0.378141	0.378217
C25	C	0.720216	-0.327869	0.328100
C26	C	0.802195	-0.327863	0.328092
C27	C	0.549346	-0.327884	0.328118
C28	C	0.467362	-0.327890	0.328125
C29	C	0.467376	-0.428424	0.428351
C30	C	0.549355	-0.428419	0.428343
C31	C	0.590337	-0.378147	0.378225
C32	C	1.184536	-0.710246	0.428454
C33	C	1.184569	-0.792226	0.428470
C34	C	1.134415	-0.833293	0.378231
C35	C	1.084220	-0.792375	0.327977
C36	C	1.084183	-0.710396	0.327965
C37	C	1.084300	-0.963245	0.328004
C38	C	1.084337	-1.045230	0.328015
C39	C	1.184686	-1.045075	0.428510
C40	C	1.184649	-0.963096	0.428498
C41	C	1.134455	-0.922184	0.378243
C42	C	1.339130	-0.378151	0.378231
C43	C	1.426379	-0.378157	0.378241
C44	C	1.134433	-0.378078	0.582953
C45	C	1.134453	-0.378054	0.670203
C46	C	1.134485	-0.173392	0.378249
C47	C	1.134527	-0.086142	0.378267
C48	C	1.134383	-0.378137	0.174261
C49	C	1.134515	-0.377941	0.087012
C50	C	1.184685	-0.327847	0.711210
C51	C	1.184695	-0.327821	0.793190
C52	C	1.134475	-0.378006	0.834163
C53	C	1.084238	-0.428214	0.793150
C54	C	1.084225	-0.428236	0.711171
C55	C	1.084269	-0.428167	0.964020
C56	C	1.084283	-0.428147	1.046005
C57	C	1.184739	-0.327752	1.046040
C58	C	1.184726	-0.327774	0.964061
C59	C	1.134489	-0.377984	0.923054
H60	H	0.686861	-0.469337	0.469133
H61	H	0.686830	-0.286941	0.287305
H62	H	1.225582	-0.286983	0.677856
H63	H	1.043349	-0.469041	0.930635
H64	H	0.582732	-0.469352	0.469141
O65	O	1.030064	-0.482337	0.837338
H66	H	1.065180	-0.522274	0.874682
O67	O	1.030049	-0.666270	0.273761
H68	H	1.038443	-0.602366	0.282198
O69	O	1.238877	-0.273675	0.837422
H70	H	1.273804	-0.238791	0.795159
O71	O	0.423181	-0.482643	0.482417
H72	H	0.359288	-0.474197	0.474014
O73	O	1.238922	-0.273596	1.090267
H74	H	1.273848	-0.238712	1.048004
O75	O	1.238896	-0.273654	0.919865
H76	H	1.225467	-0.212038	0.935601
H77	H	1.043380	-0.825818	0.287074
H78	H	1.043388	-0.469010	1.079362
O79	O	1.030036	-0.482376	0.666936
H80	H	0.995118	-0.517270	0.709197
O81	O	1.030162	-0.919117	0.273800
H82	H	1.065307	-0.881759	0.233897
O83	O	0.846422	-0.482611	0.482360
H84	H	0.804148	-0.517558	0.517216
H85	H	0.433985	-0.286953	0.287333
O86	O	0.593554	-0.273671	0.274056
H87	H	0.551275	-0.238729	0.239205
H88	H	1.225492	-0.929660	0.469402
H89	H	0.835562	-0.286927	0.287287
H90	H	1.225380	-0.676815	0.469361
O91	O	1.238703	-0.836356	0.482669
H92	H	1.273578	-0.794027	0.517594
H93	H	1.225556	-1.078390	0.469430
H94	H	1.043495	-1.078664	0.287109
