data_functionalizedCrystal
_audit_creation_method	'MofGen! by Chris Wilmer'
_symmetry_space_group_name_H-M	'P1'
_symmetry_Int_Tables_number	1
_symmetry_cell_setting	triclinic
loop_
_symmetry_equiv_pos_as_xyz
  x,y,z
_cell_length_a	21.395362
_cell_length_b	21.395364
_cell_length_c	21.395356
_cell_angle_alpha	90.023767
_cell_angle_beta	90.026508
_cell_angle_gamma	90.026713
loop_
_atom_site_label
_atom_site_type_symbol
_atom_site_fract_x
_atom_site_fract_y
_atom_site_fract_z
Zn1	Zn	-0.249482	0.957863	0.354269
Zn2	Zn	0.250518	1.457863	0.854269
Zn3	Zn	-0.354259	0.957772	0.249494
Zn4	Zn	0.145741	1.457772	0.749494
Zn5	Zn	-0.249496	0.853080	0.249506
Zn6	Zn	0.250504	1.353080	0.749506
Zn7	Zn	-0.354223	0.853052	0.354234
Zn8	Zn	0.145777	1.353052	0.854234
O9	O	-0.301865	0.905442	0.301876
O10	O	0.198135	1.405442	0.801876
O11	O	-0.263390	1.045529	0.340381
O12	O	0.236610	1.545529	0.840381
O13	O	-0.340383	0.943858	0.161818
O14	O	0.159617	1.443858	0.661818
O15	O	-0.161816	0.867030	0.263423
O16	O	0.338184	1.367030	0.763423
O17	O	-0.340369	1.045462	0.263403
O18	O	0.159631	1.545462	0.763403
O19	O	-0.161806	0.944014	0.340392
O20	O	0.338194	1.444014	0.840392
O21	O	-0.263414	0.866941	0.161826
O22	O	0.236586	1.366941	0.661826
O23	O	-0.263379	0.765398	0.263388
O24	O	0.236621	1.265398	0.763388
O25	O	-0.340308	0.866982	0.441917
O26	O	0.159692	1.366982	0.941917
O27	O	-0.340321	0.765378	0.340332
O28	O	0.159679	1.265378	0.840332
O29	O	-0.263355	0.943986	0.441943
O30	O	0.236645	1.443986	0.941943
O31	O	-0.441932	0.943830	0.263368
O32	O	0.058068	1.443830	0.763368
O33	O	-0.441906	0.866893	0.340320
O34	O	0.058094	1.366893	0.840320
C35	C	-0.301848	0.742654	0.301858
C36	C	0.198152	1.242654	0.801858
C37	C	-0.301856	0.673013	0.301865
C38	C	0.198144	1.173013	0.801865
C39	C	-0.342002	0.171222	0.341901
C40	C	0.157998	0.671222	0.841901
C41	C	-0.342002	0.236658	0.341895
C42	C	0.157998	0.736658	0.841895
C43	C	-0.301879	0.269374	0.301896
C44	C	0.198121	0.769374	0.801896
C45	C	-0.261763	0.236651	0.261889
C46	C	0.238237	0.736651	0.761889
C47	C	-0.261769	0.171216	0.261892
C48	C	0.238231	0.671216	0.761892
C49	C	-0.245414	0.373061	0.297043
C50	C	0.254586	0.873061	0.797043
C51	C	-0.245408	0.438494	0.297044
C52	C	0.254592	0.938494	0.797044
C53	C	-0.301862	0.471195	0.301882
C54	C	0.198138	0.971195	0.801882
C55	C	-0.358325	0.438455	0.306732
C56	C	0.141675	0.938455	0.806732
C57	C	-0.358330	0.373021	0.306735
C58	C	0.141670	0.873021	0.806735
C59	C	-0.301869	0.340327	0.301887
C60	C	0.198131	0.840327	0.801887
C61	C	-0.341978	0.574864	0.341876
C62	C	0.158022	1.074864	0.841876
C63	C	-0.341980	0.640300	0.341865
C64	C	0.158020	1.140300	0.841865
C65	C	-0.261735	0.640292	0.261862
C66	C	0.238265	1.140292	0.761862
C67	C	-0.261739	0.574857	0.261870
C68	C	0.238261	1.074857	0.761870
C69	C	-0.301860	0.542147	0.301880
C70	C	0.198140	1.042147	0.801880
C71	C	-0.464653	0.905366	0.301853
C72	C	0.035347	1.405366	0.801853
C73	C	-0.534294	0.905390	0.301864
C74	C	-0.034294	1.405390	0.801864
C75	C	-1.036032	0.945605	0.342034
C76	C	-0.536032	1.445605	0.842034
C77	C	-0.970596	0.945587	0.342024
C78	C	-0.470596	1.445587	0.842024
C79	C	-0.937932	0.905527	0.301915
C80	C	-0.437932	1.405527	0.801915
C81	C	-0.970709	0.865494	0.261801
C82	C	-0.470709	1.365494	0.761801
C83	C	-1.036143	0.865518	0.261808
C84	C	-0.536143	1.365518	0.761808
C85	C	-0.834315	0.849042	0.296905
C86	C	-0.334315	1.349042	0.796905
C87	C	-0.768882	0.849017	0.296903
C88	C	-0.268882	1.349017	0.796903
C89	C	-0.736111	0.905453	0.301891
C90	C	-0.236111	1.405453	0.801891
C91	C	-0.768782	0.961916	0.306895
C92	C	-0.268782	1.461916	0.806895
C93	C	-0.834216	0.961940	0.306902
C94	C	-0.334216	1.461940	0.806902
C95	C	-0.866980	0.905497	0.301903
C96	C	-0.366980	1.405497	0.801903
C97	C	-0.632390	0.945467	0.341989
C98	C	-0.132390	1.445467	0.841989
C99	C	-0.566954	0.945450	0.341974
C100	C	-0.066954	1.445450	0.841974
C101	C	-0.567067	0.865351	0.261755
C102	C	-0.067067	1.365351	0.761755
C103	C	-0.632503	0.865374	0.261766
C104	C	-0.132503	1.365374	0.761766
C105	C	-0.665160	0.905431	0.301886
C106	C	-0.165160	1.405431	0.801886
C107	C	-0.138442	0.905535	0.301913
C108	C	0.361558	1.405535	0.801913
C109	C	-0.068800	0.905575	0.301928
C110	C	0.431200	1.405575	0.801928
C111	C	-0.301826	0.905491	0.465299
C112	C	0.198174	1.405491	0.965299
C113	C	-0.301810	0.905512	0.534940
C114	C	0.198190	1.405512	1.034940
C115	C	-0.301882	1.068865	0.301894
C116	C	0.198118	1.568865	0.801894
C117	C	-0.301890	1.138506	0.301902
C118	C	0.198110	1.638506	0.801902
C119	C	-0.301859	0.905429	0.139088
C120	C	0.198141	1.405429	0.639088
C121	C	-0.301699	0.905529	0.069447
C122	C	0.198301	1.405529	0.569447
C123	C	-0.261728	0.865472	0.567648
C124	C	0.238272	1.365472	1.067648
C125	C	-0.261716	0.865470	0.633084
C126	C	0.238284	1.365470	1.133084
C127	C	-0.301780	0.905519	0.665809
C128	C	0.198220	1.405519	1.165809
C129	C	-0.341870	0.945561	0.633093
C130	C	0.158130	1.445561	1.133093
C131	C	-0.341885	0.945558	0.567659
C132	C	0.158115	1.445558	1.067659
C133	C	-0.306707	0.961971	0.769495
C134	C	0.193293	1.461971	1.269495
C135	C	-0.306688	0.961976	0.834928
C136	C	0.193312	1.461976	1.334928
C137	C	-0.301738	0.905529	0.867630
C138	C	0.198262	1.405529	1.367630
C139	C	-0.296793	0.849077	0.834890
C140	C	0.203207	1.349077	1.334890
C141	C	-0.296808	0.849073	0.769456
C142	C	0.203192	1.349073	1.269456
C143	C	-0.301768	0.905527	0.736761
C144	C	0.198232	1.405527	1.236761
C145	C	-0.261641	0.865484	0.971290
C146	C	0.238359	1.365484	1.471290
C147	C	-0.261633	0.865481	1.036727
C148	C	0.238367	1.365481	1.536727
C149	C	-0.341784	0.945578	1.036735
C150	C	0.158216	1.445578	1.536735
C151	C	-0.341795	0.945575	0.971300
C152	C	0.158205	1.445575	1.471300
C153	C	-0.301720	0.905529	0.938581
C154	C	0.198280	1.405529	1.438581
H155	H	-0.229102	0.144579	0.229319
H156	H	0.270898	0.644579	0.729319
N157	N	-0.385266	0.271955	0.385041
N158	N	0.114734	0.771955	0.885041
H159	H	-0.414268	0.299080	0.359528
H160	H	0.085732	0.799080	0.859528
H161	H	-0.410641	0.241264	0.410377
H162	H	0.089359	0.741264	0.910377
N163	N	-0.733446	1.022792	0.312270
N164	N	-0.233446	1.522792	0.812270
H165	H	-0.764071	1.058562	0.315441
H166	H	-0.264071	1.558562	0.815441
H167	H	-0.706273	1.021861	0.350870
H168	H	-0.206273	1.521861	0.850870
H169	H	-0.374404	0.978187	1.063379
H170	H	0.125596	1.478187	1.563379
N171	N	-0.385088	0.988752	0.668385
N172	N	0.114912	1.488752	1.168385
H173	H	-0.378996	0.982680	0.714801
H174	H	0.121004	1.482680	1.214801
H175	H	-0.375348	1.033506	0.656966
H176	H	0.124652	1.533506	1.156966
H177	H	-0.404304	0.346367	0.310682
H178	H	0.095696	0.846367	0.810682
H179	H	-0.374432	0.978181	0.944669
H180	H	0.125568	1.478181	1.444669
H181	H	-0.374648	0.666937	0.374436
H182	H	0.125352	1.166937	0.874436
N183	N	-0.385284	0.135942	0.385043
N184	N	0.114716	0.635942	0.885043
H185	H	-0.410699	0.166601	0.410378
H186	H	0.089301	0.666601	0.910378
H187	H	-0.414248	0.108776	0.359482
H188	H	0.085752	0.608776	0.859482
N189	N	-0.218480	0.271936	0.218754
N190	N	0.281520	0.771936	0.718754
H191	H	-0.193068	0.241278	0.193415
H192	H	0.306932	0.741278	0.693415
H193	H	-0.243942	0.299065	0.189713
H194	H	0.256058	0.799065	0.689713
H195	H	-0.742284	0.803043	0.292832
H196	H	-0.242284	1.303043	0.792832
N197	N	-1.071255	0.988784	0.385328
N198	N	-0.571255	1.488784	0.885328
H199	H	-1.040563	1.014133	0.410742
H200	H	-0.540563	1.514133	0.910742
H201	H	-1.098408	1.017815	0.359882
H202	H	-0.598408	1.517815	0.859882
H203	H	-0.404295	0.465079	0.310675
H204	H	0.095705	0.965079	0.810675
H205	H	-0.860991	0.803082	0.292845
H206	H	-0.360991	1.303082	0.792845
H207	H	-0.310733	1.007940	0.742875
H208	H	0.189267	1.507940	1.242875
H209	H	-0.943911	0.978185	0.374685
H210	H	-0.443911	1.478185	0.874685
N211	N	-0.218498	0.822281	0.532369
N212	N	0.281502	1.322281	1.032369
H213	H	-0.228216	0.777509	0.543739
H214	H	0.271784	1.277509	1.043739
H215	H	-0.224601	0.828403	0.485962
H216	H	0.275399	1.328403	0.985962
H217	H	-0.229010	0.832875	0.944649
H218	H	0.270990	1.332875	1.444649
H219	H	-0.229067	0.666930	0.229292
H220	H	0.270933	1.166930	0.729292
N221	N	-0.312023	1.022859	0.870239
N222	N	0.187977	1.522859	1.370239
H223	H	-0.275804	1.050924	0.858869
H224	H	0.224196	1.550924	1.358869
H225	H	-0.352601	1.044096	0.858836
H226	H	0.147399	1.544096	1.358836
N227	N	-0.667617	0.988679	0.385250
N228	N	-0.167617	1.488679	0.885250
H229	H	-0.714042	0.982618	0.379171
H230	H	-0.214042	1.482618	0.879171
H231	H	-0.656161	0.978901	0.429987
H232	H	-0.156161	1.478901	0.929987
N233	N	-0.935486	0.822282	0.218542
N234	N	-0.435486	1.322282	0.718542
H235	H	-0.946889	0.832044	0.173786
H236	H	-0.446889	1.332044	0.673786
H237	H	-0.889071	0.828357	0.224676
H238	H	-0.389071	1.328357	0.724676
H239	H	-0.229073	0.832866	0.659720
H240	H	0.270927	1.332866	1.159720
H241	H	-0.199432	0.465146	0.293103
H242	H	0.300568	0.965146	0.793103
N243	N	-0.531607	0.988630	0.385231
N244	N	-0.031607	1.488630	0.885231
H245	H	-0.562227	1.014006	0.410648
H246	H	-0.062227	1.514006	0.910648
H247	H	-0.504461	0.963097	0.414195
H248	H	-0.004461	1.463097	0.914195
H249	H	-0.374524	0.978166	0.541029
H250	H	0.125476	1.478166	1.041029
H251	H	-0.229073	0.548219	0.229300
H252	H	0.270927	1.048219	0.729300
H253	H	-0.659183	0.832775	0.229109
H254	H	-0.159183	1.332775	0.729109
H255	H	-0.199440	0.346441	0.293093
H256	H	0.300560	0.846441	0.793093
H257	H	-0.374648	0.548230	0.374454
H258	H	0.125352	1.048230	0.874454
H259	H	-0.292783	0.803108	0.742802
H260	H	0.207217	1.303108	1.242802
H261	H	-0.292758	0.803113	0.861514
H262	H	0.207242	1.303113	1.361514
H263	H	-0.860814	1.007914	0.310975
H264	H	-0.360814	1.507914	0.810975
H265	H	-0.540473	0.832737	0.229094
H266	H	-0.040473	1.332737	0.729094
N267	N	-1.071491	0.822342	0.218548
N268	N	-0.571491	1.322342	0.718548
H269	H	-1.040872	0.796962	0.193134
H270	H	-0.540872	1.296962	0.693134
H271	H	-1.098649	0.793341	0.244027
H272	H	-0.598649	1.293341	0.744027
H273	H	-0.228996	0.832871	1.063356
H274	H	0.271004	1.332871	1.563356
