data_functionalizedCrystal
_audit_creation_method	'MofGen! by Chris Wilmer'
_symmetry_space_group_name_H-M	'P1'
_symmetry_Int_Tables_number	1
_symmetry_cell_setting	triclinic
loop_
_symmetry_equiv_pos_as_xyz
  x,y,z
_cell_length_a	11.169416
_cell_length_b	12.759401
_cell_length_c	12.759393
_cell_angle_alpha	89.979062
_cell_angle_beta	90.027570
_cell_angle_gamma	89.988135
loop_
_atom_site_label
_atom_site_type_symbol
_atom_site_fract_x
_atom_site_fract_y
_atom_site_fract_z
Zn1	Zn	-0.477700	-1.606298	0.594041
Zn2	Zn	0.022300	-1.106298	1.094041
Zn3	Zn	-0.678429	-1.606203	0.418371
Zn4	Zn	-0.178429	-1.106203	0.918371
Zn5	Zn	-0.477764	-1.430597	0.418377
Zn6	Zn	0.022236	-0.930597	0.918377
Zn7	Zn	-0.678345	-1.430602	0.594008
Zn8	Zn	-0.178345	-0.930602	1.094008
O9	O	-0.578060	-1.518425	0.506199
O10	O	-0.078060	-1.018425	1.006199
O11	O	-0.504336	-1.753307	0.570750
O12	O	-0.004336	-1.253307	1.070750
O13	O	-0.651872	-1.582866	0.271350
O14	O	-0.151872	-1.082866	0.771350
O15	O	-0.309806	-1.453942	0.441696
O16	O	0.190194	-0.953942	0.941696
O17	O	-0.651810	-1.753236	0.441685
O18	O	-0.151810	-1.253236	0.941685
O19	O	-0.309759	-1.583029	0.570756
O20	O	0.190241	-1.083029	1.070756
O21	O	-0.504445	-1.453849	0.271355
O22	O	-0.004445	-0.953849	0.771355
O23	O	-0.504363	-1.283577	0.441663
O24	O	-0.004363	-0.783577	0.941663
O25	O	-0.651667	-1.453951	0.741033
O26	O	-0.151667	-0.953951	1.241033
O27	O	-0.651729	-1.283580	0.570698
O28	O	-0.151729	-0.783580	1.070698
O29	O	-0.504254	-1.583034	0.741058
O30	O	-0.004254	-1.083034	1.241058
O31	O	-0.846368	-1.582871	0.441653
O32	O	-0.346368	-1.082871	0.941653
O33	O	-0.846306	-1.453858	0.570692
O34	O	-0.346306	-0.953858	1.070692
C35	C	-0.889884	-1.518383	0.506191
C36	C	-0.389884	-1.018383	1.006191
C37	C	-1.023284	-1.518462	0.506223
C38	C	-0.523284	-1.018462	1.006223
C39	C	-0.578045	-1.245458	0.506178
C40	C	-0.078045	-0.745458	1.006178
C41	C	-0.578068	-1.128681	0.506194
C42	C	-0.078068	-0.628681	1.006194
C43	C	-0.577944	-1.518504	0.780233
C44	C	-0.077944	-1.018504	1.280233
C45	C	-0.577895	-1.518537	0.897009
C46	C	-0.077895	-1.018537	1.397009
C47	C	-0.265017	-1.518495	0.506230
C48	C	0.234983	-1.018495	1.006230
C49	C	-0.131617	-1.518525	0.506243
C50	C	0.368383	-1.018525	1.006243
C51	C	-0.578075	-1.792458	0.506221
C52	C	-0.078075	-1.292458	1.006221
C53	C	-0.578082	-1.909235	0.506230
C54	C	-0.078082	-1.409235	1.006230
C55	C	-0.654918	-1.073849	0.573277
C56	C	-0.154918	-0.573849	1.073277
C57	C	-0.654923	-0.964125	0.573298
C58	C	-0.154923	-0.464125	1.073298
C59	C	-0.501223	-0.964075	0.439144
C60	C	-0.001223	-0.464075	0.939144
C61	C	-0.501213	-1.073797	0.439129
C62	C	-0.001213	-0.573797	0.939129
C63	C	-0.578088	-1.518407	0.233232
C64	C	-0.078088	-1.018407	0.733232
C65	C	-0.577799	-1.518577	0.116456
C66	C	-0.077799	-1.018577	0.616456
C67	C	-0.501125	-1.585756	0.951886
C68	C	-0.001125	-1.085756	1.451886
C69	C	-0.501073	-1.585773	1.061610
C70	C	-0.001073	-1.085773	1.561610
C71	C	-0.654573	-1.451351	1.061571
C72	C	-0.154573	-0.951351	1.561571
C73	C	-0.654617	-1.451329	0.951849
C74	C	-0.154617	-0.951329	1.451849
H75	H	-0.717495	-1.118532	0.627889
H76	H	-0.217495	-0.618532	1.127889
H77	H	-0.717500	-0.919485	0.627925
H78	H	-0.217500	-0.419485	1.127925
C79	C	-0.416720	-1.659668	0.891565
C80	C	0.083280	-1.159668	1.391565
H81	H	-0.370982	-1.699694	0.939967
H82	H	0.129018	-1.199694	1.439967
H83	H	-0.462642	-1.705428	0.848761
H84	H	0.037358	-1.205428	1.348761
H85	H	-0.364439	-1.619470	0.848766
H86	H	0.135561	-1.119470	1.348766
H87	H	-0.438625	-1.118443	0.384502
H88	H	0.061375	-0.618443	0.884502
H89	H	-0.438557	-1.640508	1.106286
H90	H	0.061443	-1.140508	1.606286
H91	H	-0.717039	-1.396635	1.106235
H92	H	-0.217039	-0.896635	1.606235
H93	H	-0.438653	-0.919375	0.384540
H94	H	0.061347	-0.419375	0.884540
H95	H	-0.717132	-1.396584	0.907168
H96	H	-0.217132	-0.896584	1.407168
