data_functionalizedCrystal
_audit_creation_method	'MofGen! by Chris Wilmer'
_symmetry_space_group_name_H-M	'P1'
_symmetry_Int_Tables_number	1
_symmetry_cell_setting	triclinic
loop_
_symmetry_equiv_pos_as_xyz
  x,y,z
_cell_length_a	17.077404
_cell_length_b	12.759400
_cell_length_c	17.077396
_cell_angle_alpha	89.973580
_cell_angle_beta	89.982756
_cell_angle_gamma	90.014910
loop_
_atom_site_label
_atom_site_type_symbol
_atom_site_fract_x
_atom_site_fract_y
_atom_site_fract_z
Zn1	Zn	1.200082	-0.418251	-0.443859
Zn2	Zn	1.700082	0.081749	0.056141
Zn3	Zn	1.200013	-0.593954	-0.312599
Zn4	Zn	1.700013	-0.093954	0.187401
Zn5	Zn	1.068819	-0.418291	-0.312606
Zn6	Zn	1.568819	0.081709	0.187394
Zn7	Zn	1.068800	-0.593890	-0.443823
Zn8	Zn	1.568800	-0.093890	0.056177
O9	O	1.134429	-0.506097	-0.378222
O10	O	1.634429	-0.006097	0.121778
O11	O	1.309920	-0.441569	-0.426459
O12	O	1.809920	0.058431	0.073541
O13	O	1.182589	-0.570696	-0.202753
O14	O	1.682589	-0.070696	0.297247
O15	O	1.086268	-0.271264	-0.330035
O16	O	1.586268	0.228736	0.169965
O17	O	1.309869	-0.570658	-0.330023
O18	O	1.809869	-0.070658	0.169977
O19	O	1.182706	-0.271236	-0.426466
O20	O	1.682706	0.228764	0.073534
O21	O	1.086201	-0.441637	-0.202759
O22	O	1.586201	0.058363	0.297241
O23	O	0.958970	-0.441574	-0.330001
O24	O	1.458970	0.058426	0.169999
O25	O	1.086236	-0.570547	-0.553674
O26	O	1.586236	-0.070547	-0.053674
O27	O	0.958956	-0.570585	-0.426405
O28	O	1.458956	-0.070585	0.073595
O29	O	1.182688	-0.441506	-0.553701
O30	O	1.682688	0.058494	-0.053701
O31	O	1.182571	-0.740967	-0.329988
O32	O	1.682571	-0.240967	0.170012
O33	O	1.086170	-0.740919	-0.426398
O34	O	1.586170	-0.240919	0.073602
C35	C	0.930481	-0.506077	-0.378200
C36	C	1.430481	-0.006077	0.121800
C37	C	0.843231	-0.506095	-0.378209
C38	C	1.343231	-0.006095	0.121791
C39	C	1.134382	-0.779064	-0.378205
C40	C	1.634382	-0.279064	0.121795
C41	C	1.134434	-0.895841	-0.378225
C42	C	1.634434	-0.395841	0.121775
C43	C	0.802254	-0.573372	-0.428326
C44	C	1.302254	-0.073372	0.071674
C45	C	0.720274	-0.573375	-0.428339
C46	C	1.220274	-0.073375	0.071661
C47	C	0.679271	-0.506104	-0.378230
C48	C	1.179271	-0.006104	0.121770
C49	C	0.720254	-0.438819	-0.328111
C50	C	1.220254	0.061181	0.171889
C51	C	0.802233	-0.438812	-0.328103
C52	C	1.302233	0.061188	0.171897
C53	C	0.549384	-0.438839	-0.328130
C54	C	1.049384	0.061161	0.171870
C55	C	0.467399	-0.438847	-0.328136
C56	C	0.967399	0.061153	0.171864
C57	C	0.467425	-0.573402	-0.428366
C58	C	0.967425	-0.073402	0.071634
C59	C	0.549404	-0.573395	-0.428358
C60	C	1.049404	-0.073395	0.071642
C61	C	0.590380	-0.506111	-0.378237
C62	C	1.090380	-0.006111	0.121763
C63	C	1.184686	-0.950692	-0.328080
C64	C	1.684686	-0.450692	0.171920
C65	C	1.184734	-1.060416	-0.328104
C66	C	1.684734	-0.560416	0.171896
C67	C	1.084272	-1.060427	-0.428420
C68	C	1.584272	-0.560427	0.071580
C69	C	1.084228	-0.950705	-0.428399
C70	C	1.584228	-0.450705	0.071601
C71	C	1.242684	-0.950687	-0.270160
C72	C	1.742684	-0.450687	0.229840
C73	C	1.242733	-1.060411	-0.270185
C74	C	1.742733	-0.560411	0.229815
C75	C	1.339173	-0.506116	-0.378244
C76	C	1.839173	-0.006116	0.121756
C77	C	1.426423	-0.506125	-0.378253
C78	C	1.926423	-0.006125	0.121747
C79	C	1.134468	-0.506015	-0.582966
C80	C	1.634468	-0.006015	-0.082966
C81	C	1.134485	-0.505980	-0.670216
C82	C	1.634485	-0.005980	-0.170216
C83	C	1.134497	-0.232063	-0.378255
C84	C	1.634497	0.267937	0.121745
C85	C	1.134526	-0.115287	-0.378270
C86	C	1.634526	0.384713	0.121730
C87	C	1.084311	-0.438771	-0.711208
C88	C	1.584311	0.061229	-0.211208
C89	C	1.084324	-0.438747	-0.793189
C90	C	1.584324	0.061253	-0.293189
C91	C	1.134515	-0.505928	-0.834175
C92	C	1.634515	-0.005928	-0.334175
C93	C	1.184691	-0.573145	-0.793177
C94	C	1.684691	-0.073145	-0.293177
C95	C	1.184674	-0.573173	-0.711198
C96	C	1.684674	-0.073173	-0.211198
C97	C	1.184725	-0.573079	-0.964047
C98	C	1.684725	-0.073079	-0.464047
C99	C	1.184743	-0.573050	-1.046032
C100	C	1.684743	-0.073050	-0.546032
C101	C	1.084375	-0.438653	-1.046038
C102	C	1.584375	0.061347	-0.546038
C103	C	1.084358	-0.438682	-0.964059
C104	C	1.584358	0.061318	-0.464059
C105	C	1.134535	-0.505897	-0.923066
C106	C	1.634535	-0.005897	-0.423066
C107	C	1.134434	-0.506102	-0.174274
C108	C	1.634434	-0.006102	0.325726
C109	C	1.134570	-0.505840	-0.087025
C110	C	1.634570	-0.005840	0.412975
H111	H	0.835632	-0.628156	-0.469129
H112	H	1.335632	-0.128156	0.030871
H113	H	1.225614	-0.627754	-1.079401
H114	H	1.725614	-0.127754	-0.579401
C115	C	1.220799	-1.100756	-0.188050
C116	C	1.720799	-0.600756	0.311950
H117	H	1.220841	-1.175214	-0.188068
H118	H	1.720841	-0.675214	0.311932
H119	H	1.170139	-1.076019	-0.174419
H120	H	1.670139	-0.576019	0.325581
H121	H	1.257899	-1.075938	-0.150993
H122	H	1.757899	-0.575938	0.349007
H123	H	1.225553	-0.627850	-0.826555
H124	H	1.725553	-0.127850	-0.326555
H125	H	0.582786	-0.628179	-0.469157
H126	H	1.082786	-0.128179	0.030843
C127	C	0.422294	-0.364862	-0.273013
C128	C	0.922294	0.135138	0.226987
H129	H	0.367602	-0.374518	-0.280188
H130	H	0.867602	0.125482	0.219812
H131	H	0.435734	-0.294285	-0.284584
H132	H	0.935734	0.205715	0.215416
H133	H	0.435711	-0.380160	-0.220249
H134	H	0.935711	0.119840	0.279751
C135	C	1.239863	-0.647101	-0.666103
C136	C	1.739863	-0.147101	-0.166103
H137	H	1.232659	-0.637505	-0.611410
H138	H	1.732659	-0.137505	-0.111410
H139	H	1.292613	-0.631732	-0.679543
H140	H	1.792613	-0.131732	-0.179543
H141	H	1.228352	-0.717688	-0.679528
H142	H	1.728352	-0.217688	-0.179528
H143	H	0.686914	-0.628160	-0.469149
H144	H	1.186914	-0.128160	0.030851
H145	H	1.220928	-0.916733	-0.212385
H146	H	1.720928	-0.416733	0.287615
C147	C	0.847307	-0.364805	-0.272975
C148	C	1.347307	0.135195	0.227025
H149	H	0.811148	-0.324746	-0.243129
H150	H	1.311148	0.175254	0.256871
H151	H	0.879304	-0.319078	-0.303062
H152	H	1.379304	0.180922	0.196938
H153	H	0.879269	-0.404935	-0.238714
H154	H	1.379269	0.095065	0.261286
C155	C	0.594457	-0.364824	-0.273001
C156	C	1.094457	0.135176	0.226999
H157	H	0.558297	-0.324767	-0.243154
H158	H	1.058297	0.175233	0.256846
H159	H	0.626455	-0.319097	-0.303086
H160	H	1.126455	0.180903	0.196914
H161	H	0.626417	-0.404958	-0.238741
H162	H	1.126417	0.095042	0.261259
C163	C	1.324778	-0.910346	-0.292229
C164	C	1.824778	-0.410346	0.207771
H165	H	1.358569	-0.968213	-0.301327
H166	H	1.858569	-0.468213	0.198673
H167	H	1.344988	-0.869003	-0.250633
H168	H	1.844988	-0.369003	0.249367
H169	H	1.321422	-0.868946	-0.338356
H170	H	1.821422	-0.368946	0.161644
H171	H	1.043397	-1.105111	-0.469271
H172	H	1.543397	-0.605111	0.030729
H173	H	1.300489	-1.094358	-0.292013
H174	H	1.800489	-0.594358	0.207987
H175	H	1.225591	-0.627804	-0.930674
H176	H	1.725591	-0.127804	-0.430674
C177	C	1.029093	-0.364880	-0.666130
C178	C	1.529093	0.135120	-0.166130
H179	H	0.999207	-0.324859	-0.702288
H180	H	1.499207	0.175141	-0.202288
H181	H	1.059117	-0.319113	-0.634156
H182	H	1.559117	0.180887	-0.134156
H183	H	0.994873	-0.405092	-0.634146
H184	H	1.494873	0.094908	-0.134146
H185	H	1.043491	-0.383972	-0.930690
H186	H	1.543491	0.116028	-0.430690
C187	C	0.422354	-0.647407	-0.483502
C188	C	0.922354	-0.147407	0.016498
H189	H	0.367658	-0.637769	-0.476339
H190	H	0.867658	-0.137769	0.023661
H191	H	0.435772	-0.717977	-0.471921
H192	H	0.935772	-0.217977	0.028079
H193	H	0.435816	-0.632114	-0.536264
H194	H	0.935816	-0.132114	-0.036264
C195	C	1.029137	-0.364811	-0.838277
C196	C	1.529137	0.135189	-0.338277
H197	H	0.999251	-0.324795	-0.802126
H198	H	1.499251	0.175205	-0.302126
H199	H	0.994928	-0.404979	-0.870248
H200	H	1.494928	0.095021	-0.370248
H201	H	1.059191	-0.319026	-0.870266
H202	H	1.559191	0.180974	-0.370266
C203	C	1.029157	-0.364750	-1.091126
C204	C	1.529157	0.135250	-0.591126
H205	H	1.036341	-0.374370	-1.145820
H206	H	1.536341	0.125630	-0.645820
H207	H	1.040642	-0.294156	-1.077715
H208	H	1.540642	0.205844	-0.577715
H209	H	0.976413	-0.380155	-1.077670
H210	H	1.476413	0.119845	-0.577670
H211	H	1.043316	-0.906045	-0.469238
H212	H	1.543316	-0.406045	0.030762
H213	H	0.686863	-0.384041	-0.287314
H214	H	1.186863	0.115959	0.212686
