data_functionalizedCrystal
_audit_creation_method	'MofGen! by Chris Wilmer'
_symmetry_space_group_name_H-M	'P1'
_symmetry_Int_Tables_number	1
_symmetry_cell_setting	triclinic
loop_
_symmetry_equiv_pos_as_xyz
  x,y,z
_cell_length_a	12.759401
_cell_length_b	12.759399
_cell_length_c	12.759401
_cell_angle_alpha	90.008321
_cell_angle_beta	90.006940
_cell_angle_gamma	90.016641
loop_
_atom_site_label
_atom_site_type_symbol
_atom_site_fract_x
_atom_site_fract_y
_atom_site_fract_z
Zn1	Zn	1.606118	-0.418407	0.594017
Zn2	Zn	1.606051	-0.594053	0.418336
Zn3	Zn	1.430460	-0.418394	0.418352
Zn4	Zn	1.430407	-0.594049	0.593973
O5	O	1.518259	-0.506226	0.506169
O6	O	1.753130	-0.441714	0.570724
O7	O	1.582752	-0.570748	0.271317
O8	O	1.453811	-0.271374	0.441679
O9	O	1.753081	-0.570761	0.441652
O10	O	1.582867	-0.271384	0.570740
O11	O	1.453746	-0.441691	0.271329
O12	O	1.283432	-0.441687	0.441637
O13	O	1.453722	-0.570754	0.741000
O14	O	1.283393	-0.570741	0.570665
O15	O	1.582816	-0.441710	0.741032
O16	O	1.582701	-0.741074	0.441609
O17	O	1.453657	-0.741071	0.570649
C18	C	1.245292	-0.506213	0.506148
C19	C	1.128515	-0.506233	0.506164
C20	C	1.073661	-0.573533	0.573243
C21	C	0.963937	-0.573537	0.573264
C22	C	0.963931	-0.438937	0.439118
C23	C	1.073653	-0.438929	0.439103
C24	C	1.518195	-0.779193	0.506145
C25	C	1.518263	-0.895970	0.506170
C26	C	1.585533	-0.950798	0.439056
C27	C	1.585601	-1.060522	0.439091
C28	C	1.451119	-1.060579	0.573358
C29	C	1.451058	-0.950857	0.573328
C30	C	1.792292	-0.506239	0.506191
C31	C	1.909069	-0.506245	0.506200
C32	C	1.518271	-0.506233	0.780202
C33	C	1.518276	-0.506236	0.896979
C34	C	1.518352	-0.232192	0.506216
C35	C	1.518392	-0.115416	0.506236
C36	C	1.585486	-0.439054	0.951860
C37	C	1.585477	-0.439052	1.061584
C38	C	1.451044	-0.573423	1.061537
C39	C	1.451048	-0.573419	0.951815
C40	C	1.518247	-0.506242	1.233202
C41	C	1.518262	-0.506238	1.116425
H42	H	0.919279	-0.628338	0.627888
H43	H	1.640224	-0.384346	0.907215
H44	H	0.919249	-0.384143	0.384518
H45	H	1.118326	-0.628333	0.627852
C46	C	1.134002	-0.364895	0.365316
H47	H	1.207205	-0.374522	0.374923
H48	H	1.116004	-0.380153	0.294699
H49	H	1.116039	-0.294328	0.380828
C50	C	1.659419	-0.365165	1.121953
H51	H	1.649786	-0.374782	1.195153
H52	H	1.730001	-0.380556	1.103977
H53	H	1.644073	-0.294566	1.103982
H54	H	1.396310	-0.628126	0.907130
C55	C	1.377110	-0.647327	1.121860
H56	H	1.386740	-0.637717	1.195067
H57	H	1.306524	-0.631950	1.103872
H58	H	1.392470	-0.717921	1.103865
C59	C	1.377192	-1.120954	0.647222
H60	H	1.337127	-1.072582	0.687197
H61	H	1.331469	-1.163814	0.607008
H62	H	1.417380	-1.163701	0.693049
H63	H	1.640258	-0.906111	0.384374
C64	C	1.377061	-0.890537	0.647157
H65	H	1.386660	-0.817330	0.637528
H66	H	1.306489	-0.908580	0.631731
H67	H	1.392404	-0.908476	0.717769
H68	H	1.640380	-1.105159	0.384441
