data_functionalizedCrystal
_audit_creation_method	'MofGen! by Chris Wilmer'
_symmetry_space_group_name_H-M	'P1'
_symmetry_Int_Tables_number	1
_symmetry_cell_setting	triclinic
loop_
_symmetry_equiv_pos_as_xyz
  x,y,z
_cell_length_a	17.077404
_cell_length_b	12.759399
_cell_length_c	12.759393
_cell_angle_alpha	90.027544
_cell_angle_beta	90.023628
_cell_angle_gamma	90.007823
loop_
_atom_site_label
_atom_site_type_symbol
_atom_site_fract_x
_atom_site_fract_y
_atom_site_fract_z
Zn1	Zn	-1.200122	0.418392	-0.594134
Zn2	Zn	-1.200043	0.594110	-0.418465
Zn3	Zn	-1.068848	0.418425	-0.418460
Zn4	Zn	-1.068841	0.594010	-0.594092
O5	O	-1.134463	0.506234	-0.506288
O6	O	-1.309958	0.441730	-0.570851
O7	O	-1.182609	0.570860	-0.271443
O8	O	-1.086297	0.271400	-0.441778
O9	O	-1.309900	0.570828	-0.441787
O10	O	-1.182744	0.271376	-0.570846
O11	O	-1.086220	0.441786	-0.271439
O12	O	-0.959000	0.441689	-0.441738
O13	O	-1.086287	0.570658	-0.741119
O14	O	-0.958995	0.570690	-0.570775
O15	O	-1.182738	0.441633	-0.741150
O16	O	-1.182603	0.741118	-0.441747
O17	O	-1.086210	0.741044	-0.570780
C18	C	-0.930516	0.506183	-0.506252
C19	C	-0.843266	0.506187	-0.506261
C20	C	-0.467470	0.573526	-0.573384
C21	C	-0.549450	0.573516	-0.573370
C22	C	-0.590417	0.506238	-0.506290
C23	C	-0.549399	0.438973	-0.439212
C24	C	-0.467420	0.438989	-0.439221
C25	C	-0.720269	0.438943	-0.439199
C26	C	-0.802254	0.438925	-0.439191
C27	C	-0.802299	0.573469	-0.573348
C28	C	-0.720320	0.573485	-0.573357
C29	C	-0.679308	0.506219	-0.506280
C30	C	-1.134418	0.779202	-0.506283
C31	C	-1.134470	0.895978	-0.506315
C32	C	-0.339208	0.506275	-0.506318
C33	C	-0.426457	0.506264	-0.506313
C34	C	-1.184766	1.060575	-0.439246
C35	C	-1.184719	0.950851	-0.439206
C36	C	-1.084260	0.950836	-0.573461
C37	C	-1.084304	1.060558	-0.573495
C38	C	-1.134520	0.506131	-0.780321
C39	C	-1.134545	0.506087	-0.897098
C40	C	-1.134531	1.232201	-0.506331
C41	C	-1.134562	1.115424	-0.506389
C42	C	-1.184787	0.438853	-1.061709
C43	C	-1.184772	0.438894	-0.951985
C44	C	-1.084335	0.573251	-0.951941
C45	C	-1.084355	0.573215	-1.061663
C46	C	-1.134452	0.506262	-0.233320
C47	C	-1.134579	0.506010	-0.116544
H48	H	-0.686967	0.628264	-0.627984
H49	H	-0.686880	0.384165	-0.384580
H50	H	-1.225683	0.384129	-1.106390
H51	H	-1.225657	0.384209	-0.907342
H52	H	-1.043443	0.627966	-0.907244
H53	H	-0.582761	0.384199	-0.384589
H54	H	-1.043469	0.627908	-1.106312
H55	H	-1.043343	0.906152	-0.628099
H56	H	-1.043419	1.105218	-0.628172
H57	H	-0.434120	0.628306	-0.628014
H58	H	-0.835695	0.628237	-0.627967
H59	H	-0.582838	0.628290	-0.627983
H60	H	-0.835607	0.384131	-0.384578
H61	H	-1.225689	1.105244	-0.384603
H62	H	-0.434029	0.384215	-0.384608
H63	H	-1.225599	0.906195	-0.384531
