data_functionalizedCrystal
_audit_creation_method	'MofGen! by Chris Wilmer'
_symmetry_space_group_name_H-M	'P1'
_symmetry_Int_Tables_number	1
_symmetry_cell_setting	triclinic
loop_
_symmetry_equiv_pos_as_xyz
  x,y,z
_cell_length_a	21.395364
_cell_length_b	21.395361
_cell_length_c	21.395355
_cell_angle_alpha	89.978489
_cell_angle_beta	89.975484
_cell_angle_gamma	90.026472
loop_
_atom_site_label
_atom_site_type_symbol
_atom_site_fract_x
_atom_site_fract_y
_atom_site_fract_z
Zn1	Zn	0.957859	-0.249582	-0.354248
Zn2	Zn	0.957761	-0.354342	-0.249465
Zn3	Zn	0.853074	-0.249574	-0.249485
Zn4	Zn	0.853043	-0.354318	-0.354205
O5	O	0.905434	-0.301954	-0.301851
O6	O	1.045524	-0.263492	-0.340358
O7	O	0.943847	-0.340451	-0.161789
O8	O	0.867028	-0.161897	-0.263408
O9	O	1.045452	-0.340458	-0.263374
O10	O	0.944013	-0.161903	-0.340377
O11	O	0.866933	-0.263479	-0.161804
O12	O	0.765392	-0.263456	-0.263366
O13	O	0.866975	-0.340418	-0.441889
O14	O	0.765369	-0.340410	-0.340304
O15	O	0.943983	-0.263469	-0.441920
O16	O	0.943817	-0.442016	-0.263333
O17	O	0.866881	-0.441999	-0.340285
C18	C	0.742647	-0.301930	-0.301833
C19	C	0.673006	-0.301935	-0.301840
C20	C	0.171246	-0.261972	-0.342010
C21	C	0.236681	-0.261967	-0.342010
C22	C	0.269367	-0.301973	-0.301865
C23	C	0.236612	-0.341998	-0.261728
C24	C	0.171178	-0.342006	-0.261734
C25	C	0.373004	-0.306825	-0.245397
C26	C	0.438437	-0.306813	-0.245390
C27	C	0.471188	-0.301952	-0.301847
C28	C	0.438498	-0.297091	-0.358313
C29	C	0.373064	-0.297099	-0.358318
C30	C	0.340320	-0.301969	-0.301854
C31	C	0.574888	-0.261928	-0.341984
C32	C	0.640324	-0.261928	-0.341985
C33	C	0.640254	-0.341955	-0.261698
C34	C	0.574818	-0.341959	-0.261702
C35	C	0.542139	-0.301942	-0.301845
C36	C	0.905352	-0.464742	-0.301816
C37	C	0.905374	-0.534383	-0.301822
C38	C	0.945470	-0.567084	-0.261794
C39	C	0.945499	-0.632520	-0.261808
C40	C	0.905421	-0.665251	-0.301843
C41	C	0.865322	-0.632542	-0.341879
C42	C	0.865298	-0.567108	-0.341868
C43	C	0.849006	-0.768962	-0.306753
C44	C	0.849029	-0.834395	-0.306759
C45	C	0.905494	-0.867072	-0.301880
C46	C	0.961938	-0.834308	-0.296981
C47	C	0.961915	-0.768873	-0.296970
C48	C	0.905442	-0.736203	-0.301860
C49	C	0.945625	-0.970726	-0.261865
C50	C	0.945655	-1.036162	-0.261883
C51	C	0.865472	-1.036183	-0.341951
C52	C	0.865448	-0.970748	-0.341936
C53	C	0.905523	-0.938023	-0.301890
C54	C	1.068858	-0.301979	-0.301868
C55	C	1.138499	-0.301989	-0.301876
C56	C	0.905486	-0.301941	-0.465274
C57	C	0.905509	-0.301936	-0.534915
C58	C	0.905535	-0.138531	-0.301899
C59	C	0.905577	-0.068889	-0.301920
C60	C	0.945605	-0.261867	-0.567646
C61	C	0.945604	-0.261840	-0.633081
C62	C	0.905513	-0.301893	-0.665784
C63	C	0.865409	-0.341965	-0.633045
C64	C	0.865407	-0.341986	-0.567611
C65	C	0.900538	-0.358308	-0.769446
C66	C	0.900544	-0.358288	-0.834879
C67	C	0.905517	-0.301827	-0.867604
C68	C	0.910497	-0.245385	-0.834889
C69	C	0.910494	-0.245406	-0.769454
C70	C	0.905511	-0.301874	-0.736736
C71	C	0.945615	-0.261725	-0.971287
C72	C	0.945610	-0.261697	-1.036724
C73	C	0.865418	-0.341828	-1.036687
C74	C	0.865420	-0.341850	-0.971252
C75	C	0.905522	-0.301800	-0.938556
C76	C	0.905419	-0.301921	-0.139063
C77	C	0.905518	-0.301750	-0.069422
H78	H	0.465163	-0.293130	-0.404285
H79	H	0.144516	-0.374594	-0.229051
H80	H	0.978264	-0.229110	-0.944665
H81	H	0.896320	-0.404274	-0.742807
N82	N	0.539635	-0.218773	-0.385280
H83	H	0.570312	-0.193424	-0.410710
H84	H	0.512490	-0.244321	-0.414230
H85	H	0.896494	-0.404247	-0.861511
H86	H	0.832773	-0.374483	-0.944602
N87	N	0.822048	-0.531829	-0.385038
H88	H	0.831759	-0.543181	-0.429817
H89	H	0.777307	-0.543273	-0.375214
H90	H	0.978258	-0.229254	-0.541029
H91	H	0.144643	-0.229390	-0.374700
H92	H	0.666986	-0.229343	-0.374672
N93	N	0.915862	-0.184478	-0.870169
H94	H	0.954470	-0.185317	-0.897335
H95	H	0.877667	-0.178617	-0.897264
N96	N	0.788149	-0.869723	-0.312045
H97	H	0.788986	-0.896851	-0.350659
H98	H	0.782328	-0.896860	-0.273847
N99	N	0.988858	-0.218623	-0.668389
H100	H	1.017875	-0.244087	-0.695546
H101	H	0.963375	-0.189581	-0.695494
H102	H	0.263229	-0.374572	-0.229043
H103	H	0.548155	-0.374542	-0.229018
H104	H	0.465048	-0.310767	-0.199413
N105	N	0.822175	-0.385024	-1.071954
H106	H	0.847619	-0.414054	-1.099113
H107	H	0.796781	-0.410372	-1.041249
H108	H	0.832691	-0.659196	-0.374477
N109	N	0.337682	-0.312072	-0.184501
H110	H	0.368318	-0.315145	-0.148731
H111	H	0.310542	-0.273893	-0.178754
H112	H	0.978103	-0.540442	-0.229187
N113	N	0.915866	-0.184535	-0.734167
H114	H	0.919019	-0.148762	-0.764822
H115	H	0.877694	-0.178721	-0.707002
H116	H	0.978260	-0.229065	-1.063372
N117	N	0.822158	-0.385156	-0.668312
H118	H	0.828242	-0.379061	-0.714732
H119	H	0.831873	-0.429912	-0.656879
N120	N	0.675498	-0.385110	-0.218402
H121	H	0.721920	-0.379035	-0.224489
H122	H	0.664042	-0.375297	-0.173672
N123	N	0.337938	-0.291952	-0.419299
H124	H	0.310772	-0.253363	-0.418685
H125	H	0.368767	-0.288937	-0.454935
N126	N	0.822150	-0.385197	-0.532304
H127	H	0.796747	-0.410563	-0.562947
H128	H	0.847627	-0.414209	-0.505160
H129	H	0.978310	-1.062787	-0.229289
N130	N	0.272012	-0.218806	-0.385299
H131	H	0.241381	-0.193458	-0.410730
H132	H	0.299157	-0.189774	-0.359840
N133	N	0.988748	-0.667801	-0.218634
H134	H	1.014132	-0.637141	-0.193265
H135	H	0.963262	-0.694986	-0.189623
H136	H	1.007873	-0.742198	-0.292983
H137	H	1.007918	-0.860912	-0.293008
H138	H	0.832843	-1.062833	-0.374552
N139	N	0.988847	-0.935424	-0.218676
H140	H	1.014257	-0.966072	-0.193323
H141	H	1.017819	-0.908234	-0.244201
H142	H	0.832795	-0.944121	-0.374528
N143	N	0.788101	-0.733721	-0.312023
H144	H	0.752349	-0.764404	-0.315123
H145	H	0.782291	-0.706596	-0.273838
