data_functionalizedCrystal
_audit_creation_method	'MofGen! by Chris Wilmer'
_symmetry_space_group_name_H-M	'P1'
_symmetry_Int_Tables_number	1
_symmetry_cell_setting	triclinic
loop_
_symmetry_equiv_pos_as_xyz
  x,y,z
_cell_length_a	17.077404
_cell_length_b	21.395362
_cell_length_c	17.077395
_cell_angle_alpha	89.968970
_cell_angle_beta	89.985498
_cell_angle_gamma	90.027761
loop_
_atom_site_label
_atom_site_type_symbol
_atom_site_fract_x
_atom_site_fract_y
_atom_site_fract_z
Zn1	Zn	1.199987	-0.249480	-0.443798
Zn2	Zn	1.699987	0.250520	0.056202
Zn3	Zn	1.199887	-0.354259	-0.312523
Zn4	Zn	1.699887	0.145741	0.187477
Zn5	Zn	1.068728	-0.249496	-0.312549
Zn6	Zn	1.568728	0.250504	0.187451
Zn7	Zn	1.068671	-0.354220	-0.443750
Zn8	Zn	1.568671	0.145780	0.056250
O9	O	1.134318	-0.301864	-0.378155
O10	O	1.634318	0.198136	0.121845
O11	O	1.309821	-0.263389	-0.426394
O12	O	1.809821	0.236611	0.073606
O13	O	1.182470	-0.340385	-0.202680
O14	O	1.682470	0.159615	0.297320
O15	O	1.086205	-0.161816	-0.329990
O16	O	1.586205	0.338184	0.170010
O17	O	1.309747	-0.340370	-0.329947
O18	O	1.809747	0.159630	0.170053
O19	O	1.182641	-0.161804	-0.426418
O20	O	1.682641	0.338196	0.073582
O21	O	1.086108	-0.263416	-0.202698
O22	O	1.586108	0.236584	0.297302
O23	O	0.958873	-0.263378	-0.329943
O24	O	1.458873	0.236622	0.170057
O25	O	1.086108	-0.340303	-0.553603
O26	O	1.586108	0.159697	-0.053603
O27	O	0.958832	-0.340319	-0.426336
O28	O	1.458832	0.159681	0.073664
O29	O	1.182586	-0.263351	-0.553639
O30	O	1.682586	0.236649	-0.053639
O31	O	1.182416	-0.441932	-0.329900
O32	O	1.682416	0.058068	0.170100
O33	O	1.086012	-0.441903	-0.426311
O34	O	1.586012	0.058097	0.073689
C35	C	0.930370	-0.301846	-0.378137
C36	C	1.430370	0.198154	0.121863
C37	C	0.843121	-0.301854	-0.378148
C38	C	1.343121	0.198146	0.121852
C39	C	0.802169	-0.261841	-0.428445
C40	C	1.302169	0.238159	0.071555
C41	C	0.720189	-0.261845	-0.428449
C42	C	1.220189	0.238155	0.071551
C43	C	0.679161	-0.301865	-0.378159
C44	C	1.179161	0.198135	0.121841
C45	C	0.720118	-0.341880	-0.327857
C46	C	1.220118	0.158120	0.172143
C47	C	0.802097	-0.341872	-0.327850
C48	C	1.302097	0.158128	0.172150
C49	C	0.549248	-0.341894	-0.327876
C50	C	1.049248	0.158106	0.172124
C51	C	0.467263	-0.341903	-0.327884
C52	C	0.967263	0.158097	0.172116
C53	C	0.467340	-0.261867	-0.428475
C54	C	0.967340	0.238133	0.071525
C55	C	0.549319	-0.261859	-0.428468
C56	C	1.049319	0.238141	0.071532
C57	C	0.590270	-0.301875	-0.378167
C58	C	1.090270	0.198125	0.121833
C59	C	1.134218	-0.464652	-0.378115
C60	C	1.634218	0.035348	0.121885
C61	C	1.134247	-0.534293	-0.378124
C62	C	1.634247	-0.034293	0.121876
C63	C	1.184432	-0.566943	-0.428370
C64	C	1.684432	-0.066943	0.071630
C65	C	1.184460	-0.632378	-0.428389
C66	C	1.684460	-0.132378	0.071611
C67	C	1.134310	-0.665161	-0.378148
C68	C	1.634310	-0.165161	0.121852
C69	C	1.084115	-0.632503	-0.327898
C70	C	1.584115	-0.132503	0.172102
C71	C	1.084083	-0.567069	-0.327886
C72	C	1.584083	-0.067069	0.172114
C73	C	1.128211	-0.768872	-0.307439
C74	C	1.628211	-0.268872	0.192561
C75	C	1.128248	-0.834304	-0.307450
C76	C	1.628248	-0.334304	0.192550
C77	C	1.134403	-0.866982	-0.378186
C78	C	1.634403	-0.366982	0.121814
C79	C	1.140538	-0.834218	-0.448913
C80	C	1.640538	-0.334218	0.051087
C81	C	1.140506	-0.768784	-0.448901
C82	C	1.640506	-0.268784	0.051099
C83	C	1.134339	-0.736113	-0.378156
C84	C	1.634339	-0.236113	0.121844
C85	C	1.184621	-0.970585	-0.428457
C86	C	1.684621	-0.470585	0.071543
C87	C	1.184643	-1.036021	-0.428477
C88	C	1.684643	-0.536021	0.071523
C89	C	1.084303	-1.036144	-0.327980
C90	C	1.584303	-0.536144	0.172020
C91	C	1.084277	-0.970709	-0.327967
C92	C	1.584277	-0.470709	0.172033
C93	C	1.134440	-0.937933	-0.378204
C94	C	1.634440	-0.437933	0.121796
C95	C	1.339062	-0.301882	-0.378173
C96	C	1.839062	0.198118	0.121827
C97	C	1.426312	-0.301890	-0.378181
C98	C	1.926312	0.198110	0.121819
C99	C	1.134352	-0.301821	-0.582899
C100	C	1.634352	0.198179	-0.082899
C101	C	1.134366	-0.301803	-0.670149
C102	C	1.634366	0.198197	-0.170149
C103	C	1.134440	-0.138441	-0.378212
C104	C	1.634440	0.361559	0.121788
C105	C	1.134492	-0.068799	-0.378237
C106	C	1.634492	0.431201	0.121763
C107	C	1.184689	-0.261649	-1.045984
C108	C	1.684689	0.238351	-0.545984
C109	C	1.184673	-0.261671	-0.964003
C110	C	1.684673	0.238329	-0.464003
C111	C	1.134431	-0.301744	-0.922998
C112	C	1.634431	0.198256	-0.422998
C113	C	1.084207	-0.341802	-0.963978
C114	C	1.584207	0.158198	-0.463978
C115	C	1.084228	-0.341783	-1.045957
C116	C	1.584228	0.158217	-0.545957
C117	C	1.084167	-0.341838	-0.793108
C118	C	1.584167	0.158162	-0.293108
C119	C	1.084145	-0.341857	-0.711123
C120	C	1.584145	0.158143	-0.211123
C121	C	1.184612	-0.261727	-0.711154
C122	C	1.684612	0.238273	-0.211154
C123	C	1.184632	-0.261707	-0.793133
C124	C	1.684632	0.238293	-0.293133
C125	C	1.134407	-0.301765	-0.834107
C126	C	1.634407	0.198235	-0.334107
C127	C	1.134330	-0.301861	-0.174207
C128	C	1.634330	0.198139	0.325793
C129	C	1.134468	-0.301703	-0.086958
C130	C	1.634468	0.198297	0.413042
H131	H	0.686850	-0.229264	-0.469407
H132	H	1.186850	0.270736	0.030593
O133	O	1.233181	-0.535202	-0.477246
O134	O	1.733181	-0.035202	0.022754
C135	C	1.277497	-0.578058	-0.521584
C136	C	1.777497	-0.078058	-0.021584
H137	H	1.245365	-0.624722	-0.524282
H138	H	1.745365	-0.124722	-0.024282
H139	H	1.285827	-0.559113	-0.583435
H140	H	1.785827	-0.059113	-0.083435
H141	H	1.337134	-0.584992	-0.492889
H142	H	1.837134	-0.084992	0.007111
H143	H	0.686707	-0.374462	-0.286906
H144	H	1.186707	0.125538	0.213094
O145	O	1.233254	-0.664168	-0.477093
O146	O	1.733254	-0.164168	0.022907
C147	C	1.284013	-0.701995	-0.432451
C148	C	1.784013	-0.201995	0.067549
H149	H	1.256367	-0.711852	-0.372943
H150	H	1.756367	-0.211852	0.127057
H151	H	1.294540	-0.747982	-0.464445
H152	H	1.794540	-0.247982	0.035555
H153	H	1.342176	-0.676739	-0.423869
H154	H	1.842176	-0.176739	0.076131
H155	H	1.043215	-0.374473	-0.677739
H156	H	1.543215	0.125527	-0.177739
O157	O	1.035304	-0.380769	-0.832790
O158	O	1.535304	0.119231	-0.332790
C159	C	0.990966	-0.416153	-0.779021
C160	C	1.490966	0.083847	-0.279021
H161	H	0.988255	-0.390503	-0.720591
H162	H	1.488255	0.109497	-0.220591
H163	H	0.929119	-0.422821	-0.802705
H164	H	1.429119	0.077179	-0.302705
H165	H	1.019669	-0.463745	-0.770289
H166	H	1.519669	0.036255	-0.270289
O167	O	1.146429	-0.737054	-0.517673
O168	O	1.646429	-0.237054	-0.017673
C169	C	1.151890	-0.779920	-0.580112
C170	C	1.651890	-0.279920	-0.080112
H171	H	1.125551	-0.826595	-0.561516
H172	H	1.625551	-0.326595	-0.061516
H173	H	1.118505	-0.761006	-0.632836
H174	H	1.618505	-0.261006	-0.132836
H175	H	1.216030	-0.786823	-0.596474
H176	H	1.716030	-0.286823	-0.096474
O177	O	0.841758	-0.380802	-0.278970
O178	O	1.341758	0.119198	0.221030
C179	C	0.787969	-0.416117	-0.234571
C180	C	1.287969	0.083883	0.265429
H181	H	0.729542	-0.418325	-0.266723
H182	H	1.229542	0.081675	0.233277
H183	H	0.811630	-0.465472	-0.226083
H184	H	1.311630	0.034528	0.273917
H185	H	0.779241	-0.393113	-0.175007
H186	H	1.279241	0.106887	0.324993
H187	H	1.043333	-0.374399	-1.079317
H188	H	1.543333	0.125601	-0.579317
H189	H	1.145552	-0.860823	-0.506513
H190	H	1.645552	-0.360823	-0.006513
H191	H	1.225571	-0.229057	-0.930646
H192	H	1.725571	0.270943	-0.430646
O193	O	1.233361	-0.938838	-0.477340
O194	O	1.733361	-0.438838	0.022660
C195	C	1.277669	-0.981692	-0.521689
C196	C	1.777669	-0.481692	-0.021689
H197	H	1.245538	-1.028357	-0.524382
H198	H	1.745538	-0.528357	-0.024382
H199	H	1.285984	-0.962746	-0.583542
H200	H	1.785984	-0.462746	-0.083542
H201	H	1.337313	-0.988625	-0.493007
H202	H	1.837313	-0.488625	0.006993
H203	H	0.835568	-0.229254	-0.469399
H204	H	1.335568	0.270746	0.030601
H205	H	0.582721	-0.229275	-0.469423
H206	H	1.082721	0.270725	0.030577
H207	H	0.433993	-0.229284	-0.469431
H208	H	0.933993	0.270716	0.030569
O209	O	1.233468	-0.222865	-0.833056
O210	O	1.733468	0.277135	-0.333056
C211	C	1.284162	-0.258531	-0.880455
C212	C	1.784162	0.241469	-0.380455
H213	H	1.256446	-0.306010	-0.892713
H214	H	1.756446	0.193990	-0.392713
H215	H	1.294703	-0.233000	-0.938115
H216	H	1.794703	0.267000	-0.438115
H217	H	1.342326	-0.265423	-0.848868
H218	H	1.842326	0.234577	-0.348868
O219	O	1.233505	-0.222847	-0.671433
O220	O	1.733505	0.277153	-0.171433
C221	C	1.311742	-0.236543	-0.691436
C222	C	1.811742	0.263457	-0.191436
H223	H	1.313378	-0.260609	-0.750955
H224	H	1.813378	0.239391	-0.250955
H225	H	1.346968	-0.191323	-0.694243
H226	H	1.846968	0.308677	-0.194243
H227	H	1.338143	-0.268771	-0.645289
H228	H	1.838143	0.231229	-0.145289
O229	O	1.035516	-0.380760	-0.924055
O230	O	1.535516	0.119240	-0.424055
C231	C	1.080172	-0.421249	-0.876638
C232	C	1.580172	0.078751	-0.376638
H233	H	1.139674	-0.399157	-0.864372
H234	H	1.639674	0.100843	-0.364372
H235	H	1.048184	-0.429652	-0.818983
H236	H	1.548184	0.070348	-0.318983
H237	H	1.088768	-0.467676	-0.908212
H238	H	1.588768	0.032324	-0.408212
H239	H	1.225510	-1.062604	-0.469397
H240	H	1.725510	-0.562604	0.030603
O241	O	1.035543	-1.068048	-0.279287
O242	O	1.535543	-0.568048	0.220713
C243	C	0.984819	-1.105892	-0.323946
C244	C	1.484819	-0.605892	0.176054
H245	H	1.012474	-1.115645	-0.383458
H246	H	1.512474	-0.615645	0.116542
H247	H	0.974333	-1.151930	-0.291972
H248	H	1.474333	-0.651930	0.208028
H249	H	0.926633	-1.080705	-0.332518
H250	H	1.426633	-0.580705	0.167482
H251	H	1.043414	-0.944123	-0.287048
H252	H	1.543414	-0.444123	0.212952
O253	O	1.122250	-0.866031	-0.238682
O254	O	1.622250	-0.366031	0.261318
C255	C	1.116818	-0.823160	-0.176246
C256	C	1.616818	-0.323160	0.323754
H257	H	1.094032	-0.776521	-0.199102
H258	H	1.594032	-0.276521	0.300898
H259	H	1.074857	-0.842122	-0.130047
H260	H	1.574857	-0.342122	0.369953
H261	H	1.177170	-0.816172	-0.149100
H262	H	1.677170	-0.316172	0.350900
H263	H	0.433861	-0.374491	-0.286934
H264	H	0.933861	0.125509	0.213066
H265	H	1.123195	-0.742271	-0.249833
H266	H	1.623195	-0.242271	0.250167
H267	H	1.043281	-0.659199	-0.286994
H268	H	1.543281	-0.159199	0.213006
H269	H	0.582588	-0.374477	-0.286914
H270	H	1.082588	0.125523	0.213086
O271	O	1.035225	-0.535418	-0.279110
O272	O	1.535225	-0.035418	0.220890
C273	C	0.956984	-0.551436	-0.296212
C274	C	1.456984	-0.051436	0.203788
H275	H	0.955357	-0.598930	-0.326396
H276	H	1.455357	-0.098930	0.173604
H277	H	0.921823	-0.553730	-0.239529
H278	H	1.421823	-0.053730	0.260471
H279	H	0.930505	-0.514603	-0.336539
H280	H	1.430505	-0.014603	0.163461
O281	O	1.233456	-0.222634	-1.085725
O282	O	1.733456	0.277366	-0.585725
C283	C	1.216334	-0.160190	-1.065725
C284	C	1.716334	0.339810	-0.565725
H285	H	1.186144	-0.158902	-1.006204
H286	H	1.686144	0.341098	-0.506204
H287	H	1.273009	-0.132104	-1.062927
H288	H	1.773009	0.367896	-0.562927
H289	H	1.176007	-0.139069	-1.111871
H290	H	1.676007	0.360931	-0.611871
