data_functionalizedCrystal
_audit_creation_method	'MofGen! by Chris Wilmer'
_symmetry_space_group_name_H-M	'P1'
_symmetry_Int_Tables_number	1
_symmetry_cell_setting	triclinic
loop_
_symmetry_equiv_pos_as_xyz
  x,y,z
_cell_length_a	17.077404
_cell_length_b	17.077402
_cell_length_c	12.759393
_cell_angle_alpha	89.965312
_cell_angle_beta	89.977352
_cell_angle_gamma	90.023108
loop_
_atom_site_label
_atom_site_type_symbol
_atom_site_fract_x
_atom_site_fract_y
_atom_site_fract_z
Zn1	Zn	1.200079	-0.312465	-0.594037
Zn2	Zn	1.199979	-0.443752	-0.418345
Zn3	Zn	1.068804	-0.312504	-0.418367
Zn4	Zn	1.068779	-0.443694	-0.593977
O5	O	1.134410	-0.378104	-0.506182
O6	O	1.309913	-0.329889	-0.570747
O7	O	1.182547	-0.426382	-0.271327
O8	O	1.086270	-0.202652	-0.441705
O9	O	1.309839	-0.426344	-0.441667
O10	O	1.182717	-0.202624	-0.570769
O11	O	1.086173	-0.329955	-0.271343
O12	O	0.958953	-0.329899	-0.441646
O13	O	1.086228	-0.426246	-0.741006
O14	O	0.958935	-0.426283	-0.570666
O15	O	1.182693	-0.329833	-0.741050
O16	O	1.182523	-0.553591	-0.441608
O17	O	1.086131	-0.553548	-0.570644
C18	C	0.930462	-0.378089	-0.506153
C19	C	0.843212	-0.378102	-0.506165
C20	C	0.802233	-0.428365	-0.573238
C21	C	0.720253	-0.428367	-0.573254
C22	C	0.679253	-0.378109	-0.506193
C23	C	0.720238	-0.327840	-0.439117
C24	C	0.802217	-0.327835	-0.439106
C25	C	0.549368	-0.327856	-0.439142
C26	C	0.467383	-0.327862	-0.439151
C27	C	0.467404	-0.428388	-0.573290
C28	C	0.549383	-0.428383	-0.573280
C29	C	0.590362	-0.378115	-0.506202
C30	C	1.134334	-0.582052	-0.506140
C31	C	1.134374	-0.669301	-0.506157
C32	C	1.184616	-0.710288	-0.439040
C33	C	1.184655	-0.792268	-0.439067
C34	C	1.134446	-0.833261	-0.506206
C35	C	1.084201	-0.792269	-0.573330
C36	C	1.084167	-0.710290	-0.573308
C37	C	1.084274	-0.963139	-0.573370
C38	C	1.084306	-1.045123	-0.573391
C39	C	1.184761	-1.045117	-0.439129
C40	C	1.184728	-0.963138	-0.439107
C41	C	1.134481	-0.922152	-0.506230
C42	C	1.339154	-0.378119	-0.506211
C43	C	1.426404	-0.378125	-0.506224
C44	C	1.134469	-0.378028	-0.780215
C45	C	1.134494	-0.377996	-0.896992
C46	C	1.134508	-0.173359	-0.506247
C47	C	1.134549	-0.086110	-0.506274
C48	C	1.184727	-0.327786	-0.951879
C49	C	1.184741	-0.327752	-1.061603
C50	C	1.084285	-0.428146	-1.061543
C51	C	1.084268	-0.428175	-0.951821
C52	C	1.134397	-0.378122	-0.233214
C53	C	1.134524	-0.377933	-0.116438
H54	H	0.835610	-0.469294	-0.627844
C55	C	1.029808	-0.482756	-1.120943
C56	C	1.046845	-0.560429	-1.094209
C57	C	0.996672	-0.610760	-1.148894
H58	H	1.036964	-0.475656	-1.194166
H59	H	0.977055	-0.471315	-1.102931
H60	H	1.099585	-0.571866	-1.112228
H61	H	1.039685	-0.567554	-1.020995
H62	H	0.943919	-0.599319	-1.130882
H63	H	1.003831	-0.603653	-1.222115
H64	H	1.008219	-0.663466	-1.130755
H65	H	0.686849	-0.286916	-0.384519
C66	C	1.238999	-0.665743	-0.366013
C67	C	1.194559	-0.618772	-0.298586
C68	C	1.244632	-0.577737	-0.231291
H69	H	1.273187	-0.633646	-0.406113
H70	H	1.268914	-0.701872	-0.325984
H71	H	1.164657	-0.582647	-0.338611
H72	H	1.160373	-0.650849	-0.258463
H73	H	1.274547	-0.613866	-0.191262
H74	H	1.278818	-0.545644	-0.271400
H75	H	1.214487	-0.545868	-0.185528
H76	H	0.582731	-0.286916	-0.384530
H77	H	1.225676	-1.078492	-0.384478
H78	H	1.043357	-0.469061	-0.907131
H79	H	1.225567	-0.825635	-0.384413
C80	C	1.239153	-0.273169	-0.892406
C81	C	1.222084	-0.195495	-0.919101
C82	C	1.272197	-0.145157	-0.864329
H83	H	1.291920	-0.284551	-0.910354
H84	H	1.231945	-0.280322	-0.819187
H85	H	1.229298	-0.188346	-0.992303
H86	H	1.169326	-0.184090	-0.901150
H87	H	1.264989	-0.152310	-0.791110
H88	H	1.324961	-0.156545	-0.882282
H89	H	1.260618	-0.092449	-0.882426
C90	C	1.029701	-0.665646	-0.646137
C91	C	1.040433	-0.585079	-0.631770
C92	C	0.990282	-0.543930	-0.698857
H93	H	0.976938	-0.679037	-0.630769
H94	H	1.041177	-0.678985	-0.716767
H95	H	1.028952	-0.571745	-0.561155
H96	H	1.093186	-0.571664	-0.647146
H97	H	1.001757	-0.557269	-0.769488
H98	H	0.937522	-0.557327	-0.683483
H99	H	0.997562	-0.489261	-0.689125
C100	C	0.675903	-0.483036	-0.646102
C101	C	0.729355	-0.527071	-0.704799
C102	C	0.688529	-0.577452	-0.771906
H103	H	0.643944	-0.453149	-0.692057
H104	H	0.643916	-0.517242	-0.605845
H105	H	0.761328	-0.492869	-0.745054
H106	H	0.761315	-0.556973	-0.658872
H107	H	0.656542	-0.611658	-0.731649
H108	H	0.656572	-0.547559	-0.817854
H109	H	0.724790	-0.607341	-0.811733
C110	C	1.239150	-0.273138	-1.121246
C111	C	1.194736	-0.222786	-1.184214
C112	C	1.244830	-0.172453	-1.239159
H113	H	1.273360	-0.303061	-1.164139
H114	H	1.269041	-0.243214	-1.072904
H115	H	1.164858	-0.252707	-1.232551
H116	H	1.160528	-0.192845	-1.141348
H117	H	1.274722	-0.142529	-1.190817
H118	H	1.279038	-0.202383	-1.282046
H119	H	1.214703	-0.138279	-1.281882
H120	H	1.225607	-0.929762	-0.384432
C121	C	1.029815	-0.836874	-0.646286
C122	C	1.074253	-0.883879	-0.713673
C123	C	1.024176	-0.924987	-0.780883
H124	H	0.999869	-0.800812	-0.686358
H125	H	0.995654	-0.868950	-0.606089
H126	H	1.108400	-0.851806	-0.753866
H127	H	1.104197	-0.919956	-0.673630
H128	H	0.990015	-0.957063	-0.740686
H129	H	0.994233	-0.888919	-0.820948
H130	H	1.054319	-0.956890	-0.826606
H131	H	0.434003	-0.286928	-0.384556
H132	H	0.582763	-0.469311	-0.627882
H133	H	1.043361	-0.929770	-0.628033
H134	H	0.434035	-0.469315	-0.627910
C135	C	0.846672	-0.273366	-0.366103
C136	C	0.826704	-0.290383	-0.262114
C137	C	0.867648	-0.240226	-0.194835
H138	H	0.833296	-0.220609	-0.381465
H139	H	0.901375	-0.280568	-0.375632
H140	H	0.772014	-0.283174	-0.252589
H141	H	0.840082	-0.343130	-0.246719
H142	H	0.922351	-0.247428	-0.204364
H143	H	0.854269	-0.187472	-0.210206
H144	H	0.854111	-0.251770	-0.124270
C145	C	1.029901	-1.089594	-0.646468
C146	C	1.046970	-1.069598	-0.750434
C147	C	0.996877	-1.110559	-0.817782
H148	H	0.977128	-1.076250	-0.631178
H149	H	1.037127	-1.144294	-0.636931
H150	H	1.039737	-1.014910	-0.759966
H151	H	1.099734	-1.082944	-0.765756
H152	H	1.004103	-1.165259	-0.808245
H153	H	0.944106	-1.097211	-0.802483
H154	H	1.008456	-1.097003	-0.888331
