data_functionalizedCrystal
_audit_creation_method	'MofGen! by Chris Wilmer'
_symmetry_space_group_name_H-M	'P1'
_symmetry_Int_Tables_number	1
_symmetry_cell_setting	triclinic
loop_
_symmetry_equiv_pos_as_xyz
  x,y,z
_cell_length_a	21.395364
_cell_length_b	12.759400
_cell_length_c	21.395355
_cell_angle_alpha	90.012729
_cell_angle_beta	90.024727
_cell_angle_gamma	90.011498
loop_
_atom_site_label
_atom_site_type_symbol
_atom_site_fract_x
_atom_site_fract_y
_atom_site_fract_z
Zn1	Zn	0.957935	-0.418435	0.354290
Zn2	Zn	0.957870	-0.594099	0.249523
Zn3	Zn	0.853150	-0.418430	0.249526
Zn4	Zn	0.853152	-0.594067	0.354263
O5	O	0.905527	-0.506258	0.301900
O6	O	1.045605	-0.441753	0.340402
O7	O	0.943951	-0.570808	0.161845
O8	O	0.867077	-0.271409	0.263436
O9	O	1.045557	-0.570812	0.263430
O10	O	0.944062	-0.271413	0.340405
O11	O	0.867014	-0.441744	0.161848
O12	O	0.765473	-0.441713	0.263410
O13	O	0.867079	-0.570758	0.441944
O14	O	0.765474	-0.570753	0.340359
O15	O	0.944064	-0.441721	0.441964
O16	O	0.943952	-0.741116	0.263404
O17	O	0.867016	-0.741092	0.340356
C18	C	0.742739	-0.506230	0.301882
C19	C	0.673098	-0.506243	0.301889
C20	C	0.171319	-0.573572	0.341929
C21	C	0.236754	-0.573572	0.341922
C22	C	0.269460	-0.506281	0.301920
C23	C	0.236724	-0.439003	0.261910
C24	C	0.171290	-0.439012	0.261913
C25	C	0.373131	-0.411598	0.297063
C26	C	0.438564	-0.411587	0.297064
C27	C	0.471280	-0.506253	0.301906
C28	C	0.438556	-0.600933	0.306760
C29	C	0.373122	-0.600942	0.306764
C30	C	0.340412	-0.506264	0.301912
C31	C	0.574960	-0.573532	0.341904
C32	C	0.640397	-0.573534	0.341893
C33	C	0.640366	-0.438955	0.261883
C34	C	0.574931	-0.438963	0.261891
C35	C	0.542232	-0.506250	0.301905
C36	C	0.905494	-0.779225	0.301890
C37	C	0.905537	-0.896002	0.301907
C38	C	0.945603	-0.950786	0.342018
C39	C	0.945633	-1.060510	0.342033
C40	C	0.865528	-1.060656	0.261821
C41	C	0.865496	-0.950934	0.261810
C42	C	0.991853	-0.950703	0.388325
C43	C	0.991882	-1.060427	0.388341
C44	C	1.068950	-0.506287	0.301919
C45	C	1.138591	-0.506299	0.301927
C46	C	0.905579	-0.506236	0.465324
C47	C	0.905601	-0.506227	0.534965
C48	C	0.905577	-0.232224	0.301924
C49	C	0.905598	-0.115448	0.301934
C50	C	0.905511	-0.506203	0.139113
C51	C	0.905610	-0.505916	0.069472
C52	C	0.945685	-0.439035	0.567689
C53	C	0.945684	-0.438990	0.633125
C54	C	0.905606	-0.506156	0.665833
C55	C	0.865514	-0.573353	0.633101
C56	C	0.865512	-0.573388	0.567667
C57	C	0.900647	-0.600755	0.769504
C58	C	0.900654	-0.600720	0.834937
C59	C	0.905610	-0.506045	0.867654
C60	C	0.910572	-0.411400	0.834930
C61	C	0.910569	-0.411436	0.769495
C62	C	0.905604	-0.506124	0.736786
C63	C	0.945695	-0.438798	0.971331
C64	C	0.945690	-0.438751	1.036768
C65	C	0.865523	-0.573123	1.036743
C66	C	0.865525	-0.573160	0.971307
C67	C	0.905614	-0.505999	0.938605
H68	H	0.548336	-0.628322	0.374484
H69	H	0.667043	-0.628323	0.374466
H70	H	0.465204	-0.334493	0.293119
Cl71	Cl	0.815117	-0.657866	0.526525
Cl72	Cl	0.971741	-0.904695	0.463221
H73	H	1.037946	-0.916628	0.370981
Cl74	Cl	1.066822	-1.106339	0.368344
H75	H	0.978328	-0.384346	0.541067
Cl76	Cl	0.965049	-1.112958	0.459498
H77	H	0.144699	-0.628366	0.374509
H78	H	0.978324	-0.384269	0.659774
Cl79	Cl	0.916805	-0.292371	0.876051
Cl80	Cl	0.916802	-0.292460	0.728358
Cl81	Cl	0.996088	-0.354364	0.930217
H82	H	0.978330	-0.384029	1.063411
Cl83	Cl	0.894436	-0.719790	0.728382
H84	H	0.346499	-0.334506	0.293110
Cl85	Cl	0.815133	-0.657551	1.077856
H86	H	0.832888	-0.627882	0.944663
H87	H	0.896618	-0.677786	0.861577
Cl88	Cl	0.815128	-0.657785	0.674219
H89	H	0.666994	-0.384169	0.229310
Cl90	Cl	0.277906	-0.658149	0.392216
H91	H	0.346480	-0.678033	0.310715
H92	H	0.263357	-0.384216	0.229339
Cl93	Cl	0.533785	-0.354377	0.211604
Cl94	Cl	0.479677	-0.719950	0.312846
Cl95	Cl	0.130145	-0.354431	0.211621
H96	H	0.832865	-0.906330	0.229154
Cl97	Cl	0.815192	-1.129721	0.211417
