data_functionalizedCrystal
_audit_creation_method	'MofGen! by Chris Wilmer'
_symmetry_space_group_name_H-M	'P1'
_symmetry_Int_Tables_number	1
_symmetry_cell_setting	triclinic
loop_
_symmetry_equiv_pos_as_xyz
  x,y,z
_cell_length_a	12.759401
_cell_length_b	17.077402
_cell_length_c	17.077396
_cell_angle_alpha	90.029784
_cell_angle_beta	90.016478
_cell_angle_gamma	90.021927
loop_
_atom_site_label
_atom_site_type_symbol
_atom_site_fract_x
_atom_site_fract_y
_atom_site_fract_z
Zn1	Zn	1.606174	-0.312528	0.443772
Zn2	Zn	1.606050	-0.443803	0.312503
Zn3	Zn	1.430482	-0.312553	0.312527
Zn4	Zn	1.430439	-0.443754	0.443734
O5	O	1.518286	-0.378160	0.378134
O6	O	1.753178	-0.329952	0.426365
O7	O	1.582726	-0.426423	0.202659
O8	O	1.453858	-0.202703	0.329963
O9	O	1.753087	-0.426399	0.329923
O10	O	1.582938	-0.202685	0.426388
O11	O	1.453738	-0.329995	0.202677
O12	O	1.283456	-0.329947	0.329926
O13	O	1.453785	-0.426315	0.553586
O14	O	1.283424	-0.426339	0.426323
O15	O	1.582897	-0.329905	0.553614
O16	O	1.582685	-0.553643	0.329885
O17	O	1.453665	-0.553607	0.426300
C18	C	1.518185	-0.582107	0.378103
C19	C	1.518238	-0.669357	0.378116
C20	C	1.245319	-0.378141	0.378123
C21	C	1.128542	-0.378152	0.378137
C22	C	1.585487	-0.710340	0.327967
C23	C	1.585538	-0.792321	0.327987
C24	C	1.518334	-0.833317	0.378152
C25	C	1.451082	-0.792328	0.428307
C26	C	1.451037	-0.710349	0.428290
C27	C	1.451179	-0.963198	0.428337
C28	C	1.451223	-1.045182	0.428353
C29	C	1.585681	-1.045169	0.328033
C30	C	1.585636	-0.963191	0.328016
C31	C	1.518382	-0.922208	0.378170
C32	C	1.073721	-0.328027	0.428433
C33	C	0.963997	-0.328042	0.428438
C34	C	0.963925	-0.428314	0.327849
C35	C	1.073647	-0.428295	0.327841
C36	C	1.073761	-0.270138	0.486509
C37	C	0.964037	-0.270153	0.486514
C38	C	1.792320	-0.378179	0.378146
C39	C	1.909096	-0.378187	0.378150
C40	C	1.518350	-0.378102	0.582878
C41	C	1.518377	-0.378077	0.670128
C42	C	1.518417	-0.173415	0.378183
C43	C	1.518472	-0.086165	0.378203
C44	C	1.518283	-0.378160	0.174186
C45	C	1.518460	-0.377964	0.086937
C46	C	1.585608	-0.327872	0.711134
C47	C	1.585620	-0.327846	0.793115
C48	C	1.518407	-0.378029	0.834088
C49	C	1.451169	-0.428237	0.793076
C50	C	1.451152	-0.428258	0.711097
C51	C	1.451211	-0.428190	0.963946
C52	C	1.451229	-0.428169	1.045931
C53	C	1.585680	-0.327777	1.045964
C54	C	1.585663	-0.327798	0.963985
C55	C	1.518426	-0.378007	0.922979
H56	H	1.640208	-0.676967	0.287112
H57	H	1.396418	-0.929832	0.469180
Br58	Br	1.676935	-0.259639	1.101614
Br59	Br	1.359884	-0.847964	0.496397
Br60	Br	1.360001	-1.100820	0.496424
H61	H	1.396277	-0.676981	0.469128
Br62	Br	0.889419	-0.496359	0.259591
H63	H	1.640344	-0.287009	0.677780
H64	H	1.118279	-0.469104	0.286878
Br65	Br	1.676915	-0.259743	0.848764
H66	H	1.640445	-1.078542	0.287198
Br67	Br	1.676891	-0.259698	0.908379
Br68	Br	1.359900	-0.496392	0.655445
Br69	Br	1.360000	-0.496269	1.101537
H70	H	1.103541	-0.209316	0.470335
H71	H	1.107820	-0.291985	0.544216
Br72	Br	1.359956	-0.496328	0.908295
Br73	Br	1.359942	-0.496340	0.848681
H74	H	1.640299	-0.825685	0.287149
Br75	Br	0.914440	-0.297429	0.587795
Br76	Br	1.676840	-0.907553	0.259932
Br77	Br	0.907307	-0.173860	0.450403
