data_functionalizedCrystal
_audit_creation_method	'MofGen! by Chris Wilmer'
_symmetry_space_group_name_H-M	'P1'
_symmetry_Int_Tables_number	1
_symmetry_cell_setting	triclinic
loop_
_symmetry_equiv_pos_as_xyz
  x,y,z
_cell_length_a	21.395364
_cell_length_b	21.395362
_cell_length_c	21.395356
_cell_angle_alpha	90.029719
_cell_angle_beta	90.023767
_cell_angle_gamma	90.028124
loop_
_atom_site_label
_atom_site_type_symbol
_atom_site_fract_x
_atom_site_fract_y
_atom_site_fract_z
Zn1	Zn	0.957857	-0.249482	0.354255
Zn2	Zn	1.457857	0.250518	0.854255
Zn3	Zn	0.957763	-0.354259	0.249474
Zn4	Zn	1.457763	0.145741	0.749474
Zn5	Zn	0.853074	-0.249496	0.249492
Zn6	Zn	1.353074	0.250504	0.749492
Zn7	Zn	0.853043	-0.354223	0.354214
Zn8	Zn	1.353043	0.145777	0.854214
O9	O	0.905434	-0.301865	0.301859
O10	O	1.405434	0.198135	0.801859
O11	O	1.045522	-0.263390	0.340366
O12	O	1.545522	0.236610	0.840366
O13	O	0.943849	-0.340383	0.161799
O14	O	1.443849	0.159617	0.661799
O15	O	0.867026	-0.161816	0.263414
O16	O	1.367026	0.338184	0.763414
O17	O	1.045453	-0.340369	0.263384
O18	O	1.545453	0.159631	0.763384
O19	O	0.944010	-0.161806	0.340383
O20	O	1.444010	0.338194	0.840383
O21	O	0.866935	-0.263414	0.161812
O22	O	1.366935	0.236586	0.661812
O23	O	0.765392	-0.263379	0.263374
O24	O	1.265392	0.236621	0.763374
O25	O	0.866973	-0.340308	0.441898
O26	O	1.366973	0.159692	0.941898
O27	O	0.765369	-0.340321	0.340313
O28	O	1.265369	0.159679	0.840313
O29	O	0.943980	-0.263356	0.441928
O30	O	1.443980	0.236644	0.941928
O31	O	0.943819	-0.441932	0.263344
O32	O	1.443819	0.058068	0.763344
O33	O	0.866882	-0.441906	0.340296
O34	O	1.366882	0.058094	0.840296
C35	C	0.742647	-0.301848	0.301841
C36	C	1.242647	0.198152	0.801841
C37	C	0.673005	-0.301856	0.301848
C38	C	1.173005	0.198144	0.801848
C39	C	0.171214	-0.342002	0.341882
C40	C	0.671214	0.157998	0.841882
C41	C	0.236649	-0.342002	0.341876
C42	C	0.736649	0.157998	0.841876
C43	C	0.269367	-0.301879	0.301879
C44	C	0.769367	0.198121	0.801879
C45	C	0.236644	-0.261763	0.261874
C46	C	0.736644	0.238237	0.761874
C47	C	0.171210	-0.261769	0.261877
C48	C	0.671210	0.238231	0.761877
C49	C	0.373055	-0.245414	0.297030
C50	C	0.873055	0.254586	0.797030
C51	C	0.438488	-0.245408	0.297031
C52	C	0.938488	0.254592	0.797031
C53	C	0.471188	-0.301862	0.301865
C54	C	0.971188	0.198138	0.801865
C55	C	0.438447	-0.358325	0.306711
C56	C	0.938447	0.141675	0.806711
C57	C	0.373012	-0.358330	0.306715
C58	C	0.873012	0.141670	0.806715
C59	C	0.340319	-0.301869	0.301871
C60	C	0.840319	0.198131	0.801871
C61	C	0.574855	-0.341978	0.341857
C62	C	1.074855	0.158022	0.841857
C63	C	0.640292	-0.341980	0.341846
C64	C	1.140292	0.158020	0.841846
C65	C	0.640286	-0.261735	0.261848
C66	C	1.140286	0.238265	0.761848
C67	C	0.574850	-0.261739	0.261855
C68	C	1.074850	0.238261	0.761855
C69	C	0.542139	-0.301860	0.301863
C70	C	1.042139	0.198140	0.801863
C71	C	0.905354	-0.464653	0.301827
C72	C	1.405354	0.035347	0.801827
C73	C	0.905377	-0.534294	0.301834
C74	C	1.405377	-0.034294	0.801834
C75	C	0.945440	-0.566945	0.341941
C76	C	1.445440	-0.066945	0.841941
C77	C	0.945462	-0.632380	0.341956
C78	C	1.445462	-0.132380	0.841956
C79	C	0.905428	-0.665162	0.301853
C80	C	1.405428	-0.165162	0.801853
C81	C	0.865358	-0.632503	0.261744
C82	C	1.365358	-0.132503	0.761744
C83	C	0.865332	-0.567069	0.261734
C84	C	1.365332	-0.067069	0.761734
C85	C	0.900552	-0.768871	0.245415
C86	C	1.400552	-0.268871	0.745415
C87	C	0.900581	-0.834304	0.245423
C88	C	1.400581	-0.334304	0.745423
C89	C	0.905502	-0.866983	0.301884
C90	C	1.405502	-0.366983	0.801884
C91	C	0.910406	-0.834221	0.358337
C92	C	1.410406	-0.334221	0.858337
C93	C	0.910381	-0.768786	0.358327
C94	C	1.410381	-0.268786	0.858327
C95	C	0.905450	-0.736115	0.301860
C96	C	1.405450	-0.236115	0.801860
C97	C	0.945591	-0.970586	0.342010
C98	C	1.445591	-0.470586	0.842010
C99	C	0.945608	-1.036023	0.342027
C100	C	1.445608	-0.536023	0.842027
C101	C	0.865507	-1.036145	0.261809
C102	C	1.365507	-0.536145	0.761809
C103	C	0.865487	-0.970710	0.261799
C104	C	1.365487	-0.470710	0.761799
C105	C	0.905531	-0.937934	0.301898
C106	C	1.405531	-0.437934	0.801898
C107	C	1.068857	-0.301882	0.301877
C108	C	1.568857	0.198118	0.801877
C109	C	1.138499	-0.301890	0.301885
C110	C	1.638499	0.198110	0.801885
C111	C	0.905484	-0.301826	0.465282
C112	C	1.405484	0.198174	0.965282
C113	C	0.905505	-0.301810	0.534924
C114	C	1.405505	0.198190	1.034924
C115	C	0.905532	-0.138442	0.301905
C116	C	1.405532	0.361558	0.801905
C117	C	0.905573	-0.068800	0.301924
C118	C	1.405573	0.431200	0.801924
C119	C	0.905421	-0.301859	0.139071
C120	C	1.405421	0.198141	0.639071
C121	C	0.905522	-0.301699	0.069430
C122	C	1.405522	0.198301	0.569430
C123	C	0.865466	-0.261728	0.567634
C124	C	1.365466	0.238272	1.067634
C125	C	0.865464	-0.261716	0.633069
C126	C	1.365464	0.238284	1.133069
C127	C	0.905511	-0.301780	0.665792
C128	C	1.405511	0.198220	1.165792
C129	C	0.945553	-0.341870	0.633074
C130	C	1.445553	0.158130	1.133074
C131	C	0.945550	-0.341885	0.567640
C132	C	1.445550	0.158115	1.067640
C133	C	0.961963	-0.306707	0.769478
C134	C	1.461963	0.193293	1.269478
C135	C	0.961968	-0.306688	0.834911
C136	C	1.461968	0.193312	1.334911
C137	C	0.905522	-0.301738	0.867613
C138	C	1.405522	0.198262	1.367613
C139	C	0.849069	-0.296793	0.834873
C140	C	1.349069	0.203207	1.334873
C141	C	0.849066	-0.296808	0.769439
C142	C	1.349066	0.203192	1.269439
C143	C	0.905519	-0.301768	0.736744
C144	C	1.405519	0.198232	1.236744
C145	C	0.865477	-0.261641	0.971275
C146	C	1.365477	0.238359	1.471275
C147	C	0.865474	-0.261633	1.036712
C148	C	1.365474	0.238367	1.536712
C149	C	0.945569	-0.341784	1.036716
C150	C	1.445569	0.158216	1.536716
C151	C	0.945567	-0.341795	0.971280
C152	C	1.445567	0.158205	1.471280
C153	C	0.905522	-0.301720	0.938564
C154	C	1.405522	0.198280	1.438564
H155	H	0.346436	-0.199440	0.293082
H156	H	0.846436	0.300560	0.793082
F157	F	0.540031	-0.219041	0.219289
F158	F	1.040031	0.280959	0.719289
H159	H	0.978172	-0.374432	0.944648
H160	H	1.478172	0.125568	1.444648
H161	H	0.465141	-0.199432	0.293092
H162	H	0.965141	0.300568	0.793092
F163	F	0.822846	-0.935959	0.219111
F164	F	1.322846	-0.435959	0.719111
F165	F	0.895378	-0.734099	0.185312
F166	F	1.395378	-0.234099	0.685312
H167	H	0.896592	-0.860974	0.199455
H168	H	1.396592	-0.360974	0.699455
H169	H	0.832856	-0.229098	0.541000
H170	H	1.332856	0.270902	1.041000
H171	H	0.144574	-0.229102	0.229307
H172	H	0.644574	0.270898	0.729307
F173	F	0.988056	-0.532067	0.384621
F174	F	1.488056	-0.032067	0.884621
F175	F	0.915646	-0.868994	0.418431
F176	F	1.415646	-0.368994	0.918431
F177	F	0.540040	-0.384680	0.384434
F178	F	1.040040	0.115320	0.884434
F179	F	0.822856	-0.218993	0.936454
F180	F	1.322856	0.281007	1.436454
F181	F	0.473243	-0.418413	0.311855
F182	F	0.973243	0.081587	0.811855
F183	F	0.915597	-0.733921	0.418408
F184	F	1.415597	-0.233921	0.918408
F185	F	0.988207	-0.935702	0.384689
F186	F	1.488207	-0.435702	0.884689
H187	H	0.832760	-0.659199	0.229094
H188	H	1.332760	-0.159199	0.729094
H189	H	0.978160	-0.374490	0.659721
H190	H	1.478160	0.125510	1.159721
H191	H	0.263287	-0.229095	0.229307
H192	H	0.763287	0.270905	0.729307
F193	F	0.675102	-0.219037	0.219275
F194	F	1.175102	0.280963	0.719275
H195	H	1.007935	-0.310711	0.861563
H196	H	1.507935	0.189289	1.361563
H197	H	0.978232	-1.062606	0.374689
H198	H	1.478232	-0.562606	0.874689
F199	F	0.822842	-0.218985	1.071524
F200	F	1.322842	0.281015	1.571524
F201	F	0.988106	-0.667137	0.384641
F202	F	1.488106	-0.167137	0.884641
F203	F	0.822898	-1.071030	0.219131
F204	F	1.322898	-0.571030	0.719131
F205	F	0.271474	-0.384697	0.384448
F206	F	0.771474	0.115303	0.884448
F207	F	0.338169	-0.418420	0.311870
F208	F	0.838169	0.081580	0.811870
F209	F	0.822690	-0.532319	0.219046
F210	F	1.322690	-0.032319	0.719046
H211	H	0.832860	-0.229073	0.659707
H212	H	1.332860	0.270927	1.159707
H213	H	0.803100	-0.292783	0.742785
H214	H	1.303100	0.207217	1.242785
F215	F	0.788990	-0.291521	0.869671
F216	F	1.288990	0.208479	1.369671
F217	F	0.988188	-0.384427	1.071538
F218	F	1.488188	0.115573	1.571538
H219	H	1.007933	-0.310734	0.742858
H220	H	1.507933	0.189266	1.242858
H221	H	0.144584	-0.374674	0.374458
H222	H	0.644584	0.125326	0.874458
F223	F	0.675110	-0.384679	0.384415
F224	F	1.175110	0.115321	0.884415
H225	H	0.978157	-0.374524	0.541008
H226	H	1.478157	0.125476	1.041008
