data_functionalizedCrystal
_audit_creation_method	'MofGen! by Chris Wilmer'
_symmetry_space_group_name_H-M	'P1'
_symmetry_Int_Tables_number	1
_symmetry_cell_setting	triclinic
loop_
_symmetry_equiv_pos_as_xyz
  x,y,z
_cell_length_a	12.759401
_cell_length_b	12.759399
_cell_length_c	12.759393
_cell_angle_alpha	89.969789
_cell_angle_beta	89.979062
_cell_angle_gamma	90.017076
loop_
_atom_site_label
_atom_site_type_symbol
_atom_site_fract_x
_atom_site_fract_y
_atom_site_fract_z
Zn1	Zn	1.606260	-0.418173	-0.594022
Zn2	Zn	1.606149	-0.593888	-0.418343
Zn3	Zn	1.430559	-0.418229	-0.418357
Zn4	Zn	1.430548	-0.593815	-0.593980
O5	O	1.518379	-0.506026	-0.506176
O6	O	1.753266	-0.441489	-0.570730
O7	O	1.582814	-0.570641	-0.271324
O8	O	1.453917	-0.271200	-0.441683
O9	O	1.753184	-0.570587	-0.441659
O10	O	1.583004	-0.271159	-0.570743
O11	O	1.453809	-0.441584	-0.271334
O12	O	1.283536	-0.441513	-0.441643
O13	O	1.453899	-0.570461	-0.741007
O14	O	1.283529	-0.570516	-0.570672
O15	O	1.582994	-0.441418	-0.741038
O16	O	1.582804	-0.740900	-0.441618
O17	O	1.453791	-0.740846	-0.570658
C18	C	1.245412	-0.506013	-0.506155
C19	C	1.128635	-0.506033	-0.506171
C20	C	1.073796	-0.573307	-0.573251
C21	C	0.964072	-0.573311	-0.573272
C22	C	0.964035	-0.438764	-0.439124
C23	C	1.073757	-0.438756	-0.439109
C24	C	1.518312	-0.778994	-0.506155
C25	C	1.518380	-0.895770	-0.506182
C26	C	1.451255	-1.060367	-0.573350
C27	C	1.451190	-0.950643	-0.573325
C28	C	1.585648	-0.950627	-0.439066
C29	C	1.585717	-1.060349	-0.439098
C30	C	1.373623	-1.060376	-0.650860
C31	C	1.373558	-0.950652	-0.650835
C32	C	1.792412	-0.506040	-0.506197
C33	C	1.909189	-0.506046	-0.506207
C34	C	1.518458	-0.505925	-0.780209
C35	C	1.518491	-0.505882	-0.896986
C36	C	1.518474	-0.231993	-0.506219
C37	C	1.518515	-0.115216	-0.506238
C38	C	1.585716	-0.438679	-0.951866
C39	C	1.585734	-0.438633	-1.061590
C40	C	1.451299	-0.573004	-1.061545
C41	C	1.451277	-0.573044	-0.951823
C42	C	1.518361	-0.506051	-0.233208
C43	C	1.518531	-0.505798	-0.116432
H44	H	1.640496	-1.105003	-0.384457
H45	H	1.292181	-0.920966	-0.628959
H46	H	1.118475	-0.628086	-0.627860
H47	H	1.640473	-0.383908	-1.106268
H48	H	1.395372	-1.090065	-0.732263
C49	C	1.412832	-0.904558	-0.755287
C50	C	1.510146	-0.833162	-0.757019
C51	C	1.549420	-0.787072	-0.861469
C52	C	1.491380	-0.812378	-0.964186
C53	C	1.394060	-0.883778	-0.962457
C54	C	1.354786	-0.929868	-0.858007
H55	H	1.553116	-0.814426	-0.680979
H56	H	1.621463	-0.734217	-0.862749
H57	H	1.520453	-0.778260	-1.041506
H58	H	1.351090	-0.902515	-1.038498
H59	H	1.282743	-0.982723	-0.856728
C60	C	0.903667	-0.364762	-0.365358
C61	C	0.963991	-0.290754	-0.291579
C62	C	0.903625	-0.216748	-0.217813
C63	C	0.782936	-0.216752	-0.217826
C64	C	0.722604	-0.290764	-0.291608
C65	C	0.782970	-0.364769	-0.365374
H66	H	1.053339	-0.290748	-0.291567
H67	H	0.948287	-0.161960	-0.163194
H68	H	0.738249	-0.161969	-0.163220
H69	H	0.633256	-0.290769	-0.291621
H70	H	0.738308	-0.419557	-0.419993
C71	C	1.659642	-0.364795	-0.891545
C72	C	1.742099	-0.410348	-0.816122
C73	C	1.816025	-0.336460	-0.755805
C74	C	1.807493	-0.217019	-0.770910
C75	C	1.725032	-0.171459	-0.846336
C76	C	1.651106	-0.245347	-0.906653
H77	H	1.748418	-0.498772	-0.804937
H78	H	1.877068	-0.370187	-0.699970
H79	H	1.862217	-0.162322	-0.726259
H80	H	1.718713	-0.083036	-0.857520
H81	H	1.590063	-0.211620	-0.962488
H82	H	1.396527	-0.627768	-0.907139
C83	C	1.134086	-0.364753	-0.365311
C84	C	1.119031	-0.245328	-0.374087
C85	C	1.179359	-0.171327	-0.300294
C86	C	1.254741	-0.216750	-0.217725
C87	C	1.269799	-0.336182	-0.208945
C88	C	1.209471	-0.410183	-0.282738
H89	H	1.063226	-0.211697	-0.435213
H90	H	1.168212	-0.082915	-0.306794
H91	H	1.299399	-0.161970	-0.163099
H92	H	1.325604	-0.369813	-0.147819
H93	H	1.220618	-0.498594	-0.276238
H94	H	0.919428	-0.628090	-0.627896
C95	C	1.659563	-0.890269	-0.365212
C96	C	1.614040	-0.814943	-0.282666
C97	C	1.687957	-0.754588	-0.208809
C98	C	1.807397	-0.769558	-0.217498
C99	C	1.852927	-0.844888	-0.300047
C100	C	1.779010	-0.905243	-0.373904
H101	H	1.525617	-0.803858	-0.276230
H102	H	1.654252	-0.698824	-0.147700
H103	H	1.862115	-0.724880	-0.162824
H104	H	1.941349	-0.855973	-0.306482
H105	H	1.812715	-0.961007	-0.435013
H106	H	1.296369	-1.094504	-0.621651
C107	C	1.377374	-0.646887	-1.121868
C108	C	1.377399	-0.646853	-1.242558
C109	C	1.303475	-0.720741	-1.302879
C110	C	1.229527	-0.794662	-1.242509
C111	C	1.229499	-0.794699	-1.121812
C112	C	1.303423	-0.720812	-1.061492
H113	H	1.432143	-0.592130	-1.287253
H114	H	1.303496	-0.720713	-1.392227
H115	H	1.174804	-0.849358	-1.287162
H116	H	1.174755	-0.849423	-1.077117
H117	H	1.303402	-0.720840	-0.972144
