data_functionalizedCrystal
_audit_creation_method	'MofGen! by Chris Wilmer'
_symmetry_space_group_name_H-M	'P1'
_symmetry_Int_Tables_number	1
_symmetry_cell_setting	triclinic
loop_
_symmetry_equiv_pos_as_xyz
  x,y,z
_cell_length_a	17.077404
_cell_length_b	17.077402
_cell_length_c	17.077396
_cell_angle_alpha	89.973827
_cell_angle_beta	90.021457
_cell_angle_gamma	89.976501
loop_
_atom_site_label
_atom_site_type_symbol
_atom_site_fract_x
_atom_site_fract_y
_atom_site_fract_z
Zn1	Zn	-1.200046	-0.312527	-0.443896
Zn2	Zn	-0.950046	-0.062527	-0.193896
Zn3	Zn	-0.700046	0.187473	0.056104
Zn4	Zn	-0.450046	0.437473	0.306104
Zn5	Zn	-1.199950	-0.443802	-0.312636
Zn6	Zn	-0.949950	-0.193802	-0.062636
Zn7	Zn	-0.699950	0.056198	0.187364
Zn8	Zn	-0.449950	0.306198	0.437364
Zn9	Zn	-1.068778	-0.312552	-0.312640
Zn10	Zn	-0.818778	-0.062552	-0.062640
Zn11	Zn	-0.568778	0.187448	0.187360
Zn12	Zn	-0.318778	0.437448	0.437360
Zn13	Zn	-1.068743	-0.443753	-0.443855
Zn14	Zn	-0.818743	-0.193753	-0.193855
Zn15	Zn	-0.568743	0.056247	0.056145
Zn16	Zn	-0.318743	0.306247	0.306145
O17	O	-1.134379	-0.378158	-0.378257
O18	O	-0.884379	-0.128158	-0.128257
O19	O	-0.634379	0.121842	0.121743
O20	O	-0.384379	0.371842	0.371743
O21	O	-1.309881	-0.329951	-0.426500
O22	O	-1.059881	-0.079951	-0.176500
O23	O	-0.809881	0.170049	0.073500
O24	O	-0.559881	0.420049	0.323500
O25	O	-1.182524	-0.426422	-0.202789
O26	O	-0.932524	-0.176422	0.047211
O27	O	-0.682524	0.073578	0.297211
O28	O	-0.432524	0.323578	0.547211
O29	O	-1.086246	-0.202702	-0.330070
O30	O	-0.836246	0.047298	-0.080070
O31	O	-0.586246	0.297298	0.169930
O32	O	-0.336246	0.547298	0.419930
O33	O	-1.309810	-0.426398	-0.330063
O34	O	-1.059810	-0.176398	-0.080063
O35	O	-0.809810	0.073602	0.169937
O36	O	-0.559810	0.323602	0.419937
O37	O	-1.182689	-0.202683	-0.426504
O38	O	-0.932689	0.047317	-0.176504
O39	O	-0.682689	0.297317	0.073496
O40	O	-0.432689	0.547317	0.323496
O41	O	-1.086153	-0.329993	-0.202792
O42	O	-0.836153	-0.079993	0.047208
O43	O	-0.586153	0.170007	0.297208
O44	O	-0.336153	0.420007	0.547208
O45	O	-0.958927	-0.329946	-0.330030
O46	O	-0.708927	-0.079946	-0.080030
O47	O	-0.458927	0.170054	0.169970
O48	O	-0.208927	0.420054	0.419970
O49	O	-1.086186	-0.426314	-0.553707
O50	O	-0.836186	-0.176314	-0.303707
O51	O	-0.586186	0.073686	-0.053707
O52	O	-0.336186	0.323686	0.196293
O53	O	-0.958901	-0.426338	-0.426433
O54	O	-0.708901	-0.176338	-0.176433
O55	O	-0.458901	0.073662	0.073567
O56	O	-0.208901	0.323662	0.323567
O57	O	-1.182654	-0.329903	-0.553738
O58	O	-0.932654	-0.079903	-0.303738
O59	O	-0.682654	0.170097	-0.053738
O60	O	-0.432654	0.420097	0.196262
O61	O	-1.182490	-0.553642	-0.330023
O62	O	-0.932490	-0.303642	-0.080023
O63	O	-0.682490	-0.053642	0.169977
O64	O	-0.432490	0.196358	0.419977
O65	O	-1.086092	-0.553606	-0.426429
O66	O	-0.836092	-0.303606	-0.176429
O67	O	-0.586092	-0.053606	0.073571
O68	O	-0.336092	0.196394	0.323571
C69	C	-0.930431	-0.378140	-0.378228
C70	C	-0.680431	-0.128140	-0.128228
C71	C	-0.430431	0.121860	0.121772
C72	C	-0.180431	0.371860	0.371772
C73	C	-0.843182	-0.378151	-0.378234
C74	C	-0.593182	-0.128151	-0.128234
C75	C	-0.343182	0.121849	0.121766
C76	C	-0.093182	0.371849	0.371766
C77	C	-1.134298	-0.582106	-0.378238
C78	C	-0.884298	-0.332106	-0.128238
C79	C	-0.634298	-0.082106	0.121762
C80	C	-0.384298	0.167894	0.371762
C81	C	-1.134335	-0.669356	-0.378256
C82	C	-0.884335	-0.419356	-0.128256
C83	C	-0.634335	-0.169356	0.121744
C84	C	-0.384335	0.080644	0.371744
C85	C	-1.184735	-1.045163	-0.328149
C86	C	-0.934735	-0.795163	-0.078149
C87	C	-0.684735	-0.545163	0.171851
C88	C	-0.434735	-0.295163	0.421851
C89	C	-1.184695	-0.963183	-0.328135
C90	C	-0.934695	-0.713183	-0.078135
C91	C	-0.684695	-0.463183	0.171865
C92	C	-0.434695	-0.213183	0.421865
C93	C	-1.134449	-0.922205	-0.378284
C94	C	-0.884449	-0.672205	-0.128284
C95	C	-0.634449	-0.422205	0.121716
C96	C	-0.384449	-0.172205	0.371716
C97	C	-1.084234	-0.963212	-0.428445
C98	C	-0.834234	-0.713212	-0.178445
C99	C	-0.584234	-0.463212	0.071555
C100	C	-0.334234	-0.213212	0.321555
C101	C	-1.084271	-1.045191	-0.428454
C102	C	-0.834271	-0.795191	-0.178454
C103	C	-0.584271	-0.545191	0.071546
C104	C	-0.334271	-0.295191	0.321546
C105	C	-1.084162	-0.792342	-0.428423
C106	C	-0.834162	-0.542342	-0.178423
C107	C	-0.584162	-0.292342	0.071577
C108	C	-0.334162	-0.042342	0.321577
C109	C	-1.084126	-0.710357	-0.428415
C110	C	-0.834126	-0.460357	-0.178415
C111	C	-0.584126	-0.210357	0.071585
C112	C	-0.334126	0.039643	0.321585
C113	C	-1.184586	-0.710334	-0.328104
C114	C	-0.934586	-0.460334	-0.078104
C115	C	-0.684586	-0.210334	0.171896
C116	C	-0.434586	0.039666	0.421896
C117	C	-1.184623	-0.792313	-0.328113
C118	C	-0.934623	-0.542313	-0.078113
C119	C	-0.684623	-0.292313	0.171887
C120	C	-0.434623	-0.042313	0.421887
C121	C	-1.134409	-0.833314	-0.378275
C122	C	-0.884409	-0.583314	-0.128275
C123	C	-0.634409	-0.333314	0.121725
C124	C	-0.384409	-0.083314	0.371725
C125	C	-0.802199	-0.428418	-0.428349
C126	C	-0.552199	-0.178418	-0.178349
C127	C	-0.302199	0.071582	0.071651
C128	C	-0.052199	0.321582	0.321651
C129	C	-0.720218	-0.428418	-0.428359
C130	C	-0.470218	-0.178418	-0.178359
C131	C	-0.220218	0.071582	0.071641
C132	C	0.029782	0.321582	0.321641
C133	C	-0.679222	-0.378155	-0.378249
C134	C	-0.429222	-0.128155	-0.128249
C135	C	-0.179222	0.121845	0.121751
C136	C	0.070778	0.371845	0.371751
C137	C	-0.720211	-0.327883	-0.328132
C138	C	-0.470211	-0.077883	-0.078132
C139	C	-0.220211	0.172117	0.171868
C140	C	0.029789	0.422117	0.421868
C141	C	-0.802190	-0.327879	-0.328127
C142	C	-0.552190	-0.077879	-0.078127
C143	C	-0.302190	0.172121	0.171873
C144	C	-0.052190	0.422121	0.421873
C145	C	-0.549341	-0.327895	-0.328145
C146	C	-0.299341	-0.077895	-0.078145
C147	C	-0.049341	0.172105	0.171855
C148	C	0.200659	0.422105	0.421855
C149	C	-0.467357	-0.327899	-0.328149
C150	C	-0.217357	-0.077899	-0.078149
C151	C	0.032643	0.172101	0.171851
C152	C	0.282643	0.422101	0.421851
C153	C	-0.467369	-0.428433	-0.428377
C154	C	-0.217369	-0.178433	-0.178377
C155	C	0.032631	0.071567	0.071623
C156	C	0.282631	0.321567	0.321623
C157	C	-0.549348	-0.428430	-0.428372
C158	C	-0.299348	-0.178430	-0.178372
C159	C	-0.049348	0.071570	0.071628
C160	C	0.200652	0.321570	0.321628
C161	C	-0.590331	-0.378159	-0.378254
C162	C	-0.340331	-0.128159	-0.128254
C163	C	-0.090331	0.121841	0.121746
C164	C	0.159669	0.371841	0.371746
C165	C	-0.339124	-0.378172	-0.378277
C166	C	-0.089124	-0.128172	-0.128277
C167	C	0.160876	0.121828	0.121723
C168	C	0.410876	0.371828	0.371723
C169	C	-0.426373	-0.378166	-0.378264
C170	C	-0.176373	-0.128166	-0.128264
C171	C	0.073627	0.121834	0.121736
C172	C	0.323627	0.371834	0.371736
C173	C	-1.134482	-0.173414	-0.378292
C174	C	-0.884482	0.076586	-0.128292
C175	C	-0.634482	0.326586	0.121708
C176	C	-0.384482	0.576586	0.371708
C177	C	-1.134526	-0.086164	-0.378307
C178	C	-0.884526	0.163836	-0.128307
C179	C	-0.634526	0.413836	0.121693
C180	C	-0.384526	0.663836	0.371693
C181	C	-1.134427	-0.378100	-0.583001
C182	C	-0.884427	-0.128100	-0.333001
C183	C	-0.634427	0.121900	-0.083001
C184	C	-0.384427	0.371900	0.166999
C185	C	-1.134447	-0.378076	-0.670251
C186	C	-0.884447	-0.128076	-0.420251
C187	C	-0.634447	0.121924	-0.170251
C188	C	-0.384447	0.371924	0.079749
C189	C	-1.184680	-0.327870	-0.711258
C190	C	-0.934680	-0.077870	-0.461258
C191	C	-0.684680	0.172130	-0.211258
C192	C	-0.434680	0.422130	0.038742
C193	C	-1.184689	-0.327844	-0.793239
C194	C	-0.934689	-0.077844	-0.543239
C195	C	-0.684689	0.172156	-0.293239
C196	C	-0.434689	0.422156	-0.043239
C197	C	-1.134469	-0.378028	-0.834210
C198	C	-0.884469	-0.128028	-0.584210
C199	C	-0.634469	0.121972	-0.334210
C200	C	-0.384469	0.371972	-0.084210
C201	C	-1.084231	-0.428236	-0.793197
C202	C	-0.834231	-0.178236	-0.543197
C203	C	-0.584231	0.071764	-0.293197
C204	C	-0.334231	0.321764	-0.043197
C205	C	-1.084218	-0.428257	-0.711218
C206	C	-0.834218	-0.178257	-0.461218
C207	C	-0.584218	0.071743	-0.211218
C208	C	-0.334218	0.321743	0.038782
C209	C	-1.084263	-0.428188	-0.964067
C210	C	-0.834263	-0.178188	-0.714067
C211	C	-0.584263	0.071812	-0.464067
C212	C	-0.334263	0.321812	-0.214067
C213	C	-1.084276	-0.428168	-1.046052
C214	C	-0.834276	-0.178168	-0.796052
C215	C	-0.584276	0.071832	-0.546052
C216	C	-0.334276	0.321832	-0.296052
C217	C	-1.184734	-0.327776	-1.046088
C218	C	-0.934734	-0.077776	-0.796088
C219	C	-0.684734	0.172224	-0.546088
C220	C	-0.434734	0.422224	-0.296088
C221	C	-1.184721	-0.327797	-0.964109
C222	C	-0.934721	-0.077797	-0.714109
C223	C	-0.684721	0.172203	-0.464109
C224	C	-0.434721	0.422203	-0.214109
C225	C	-1.134483	-0.378006	-0.923101
C226	C	-0.884483	-0.128006	-0.673101
C227	C	-0.634483	0.121994	-0.423101
C228	C	-0.384483	0.371994	-0.173101
C229	C	-1.134377	-0.378159	-0.174309
C230	C	-0.884377	-0.128159	0.075691
C231	C	-0.634377	0.121841	0.325691
C232	C	-0.384377	0.371841	0.575691
C233	C	-1.134509	-0.377963	-0.087059
C234	C	-0.884509	-0.127963	0.162941
C235	C	-0.634509	0.122037	0.412941
C236	C	-0.384509	0.372037	0.662941
H237	H	-1.225656	-1.078521	-0.287316
H238	H	-0.975656	-0.828521	-0.037316
H239	H	-0.725656	-0.578521	0.212684
H240	H	-0.475656	-0.328521	0.462684
H241	H	-0.686853	-0.469351	-0.469167
H242	H	-0.436853	-0.219351	-0.219167
H243	H	-0.186853	0.030649	0.030833
H244	H	0.063147	0.280649	0.280833
H245	H	-0.582725	-0.469363	-0.469172
H246	H	-0.332725	-0.219363	-0.219172
H247	H	-0.082725	0.030637	0.030828
H248	H	0.167275	0.280637	0.280828
H249	H	-0.433997	-0.469364	-0.469188
H250	H	-0.183997	-0.219364	-0.219188
H251	H	0.066003	0.030636	0.030812
H252	H	0.316003	0.280636	0.280812
H253	H	-1.225472	-0.676946	-0.287260
H254	H	-0.975472	-0.426946	-0.037260
H255	H	-0.725472	-0.176946	0.212740
H256	H	-0.475472	0.073054	0.462740
H257	H	-1.225577	-0.287007	-0.677905
H258	H	-0.975577	-0.037007	-0.427905
H259	H	-0.725577	0.212993	-0.177905
H260	H	-0.475577	0.462993	0.072095
H261	H	-1.225596	-0.286964	-0.826623
H262	H	-0.975596	-0.036964	-0.576623
H263	H	-0.725596	0.213036	-0.326623
H264	H	-0.475596	0.463036	-0.076623
H265	H	-1.043209	-0.676997	-0.469251
H266	H	-0.793209	-0.426997	-0.219251
H267	H	-0.543209	-0.176997	0.030749
H268	H	-0.293209	0.073003	0.280749
H269	H	-1.043389	-1.078573	-0.469302
H270	H	-0.793389	-0.828573	-0.219302
H271	H	-0.543389	-0.578573	0.030698
H272	H	-0.293389	-0.328573	0.280698
H273	H	-1.225638	-0.286892	-1.079480
H274	H	-0.975638	-0.036892	-0.829480
H275	H	-0.725638	0.213108	-0.579480
H276	H	-0.475638	0.463108	-0.329480
H277	H	-0.433980	-0.286961	-0.287354
H278	H	-0.183980	-0.036961	-0.037354
H279	H	0.066020	0.213039	0.212646
H280	H	0.316020	0.463039	0.462646
H281	H	-1.225619	-0.286937	-0.930752
H282	H	-0.975619	-0.036937	-0.680752
H283	H	-0.725619	0.213063	-0.430752
H284	H	-0.475619	0.463063	-0.180752
H285	H	-1.043381	-0.469030	-1.079409
H286	H	-0.793381	-0.219030	-0.829409
H287	H	-0.543381	0.030970	-0.579409
H288	H	-0.293381	0.280970	-0.329409
H289	H	-0.835558	-0.286943	-0.287322
H290	H	-0.585558	-0.036943	-0.037322
H291	H	-0.335558	0.213057	0.212678
H292	H	-0.085558	0.463057	0.462678
H293	H	-1.043342	-0.469062	-0.930682
H294	H	-0.793342	-0.219062	-0.680682
H295	H	-0.543342	0.030938	-0.430682
H296	H	-0.293342	0.280938	-0.180682
H297	H	-1.043277	-0.825722	-0.469274
H298	H	-0.793277	-0.575722	-0.219274
H299	H	-0.543277	-0.325722	0.030726
H300	H	-0.293277	-0.075722	0.280726
H301	H	-1.043338	-0.469093	-0.826563
H302	H	-0.793338	-0.219093	-0.576563
H303	H	-0.543338	0.030907	-0.326563
H304	H	-0.293338	0.280907	-0.076563
H305	H	-1.225579	-0.929800	-0.287292
H306	H	-0.975579	-0.679800	-0.037292
H307	H	-0.725579	-0.429800	0.212708
H308	H	-0.475579	-0.179800	0.462708
H309	H	-1.043305	-0.469132	-0.677831
H310	H	-0.793305	-0.219132	-0.427831
H311	H	-0.543305	0.030868	-0.177831
H312	H	-0.293305	0.280868	0.072169
H313	H	-0.582707	-0.286952	-0.287340
H314	H	-0.332707	-0.036952	-0.037340
H315	H	-0.082707	0.213048	0.212660
H316	H	0.167293	0.463048	0.462660
H317	H	-1.225542	-0.825674	-0.287281
H318	H	-0.975542	-0.575674	-0.037281
H319	H	-0.725542	-0.325674	0.212719
H320	H	-0.475542	-0.075674	0.462719
H321	H	-0.835571	-0.469350	-0.469152
H322	H	-0.585571	-0.219350	-0.219152
H323	H	-0.335571	0.030650	0.030848
H324	H	-0.085571	0.280650	0.280848
H325	H	-1.043318	-0.929843	-0.469274
H326	H	-0.793318	-0.679843	-0.219274
H327	H	-0.543318	-0.429843	0.030726
H328	H	-0.293318	-0.179843	0.280726
H329	H	-0.686826	-0.286954	-0.287335
H330	H	-0.436826	-0.036954	-0.037335
H331	H	-0.186826	0.213046	0.212665
H332	H	0.063174	0.463046	0.462665
