data_functionalizedCrystal
_audit_creation_method	'MofGen! by Chris Wilmer'
_symmetry_space_group_name_H-M	'P1'
_symmetry_Int_Tables_number	1
_symmetry_cell_setting	triclinic
loop_
_symmetry_equiv_pos_as_xyz
  x,y,z
_cell_length_a	12.759399
_cell_length_b	12.759401
_cell_length_c	12.759393
_cell_angle_alpha	90.020459
_cell_angle_beta	90.030270
_cell_angle_gamma	90.016641
loop_
_atom_site_label
_atom_site_type_symbol
_atom_site_fract_x
_atom_site_fract_y
_atom_site_fract_z
Zn1	Zn	-0.418179	1.606258	0.594017
Zn2	Zn	-0.593893	1.606150	0.418336
Zn3	Zn	-0.418233	1.430559	0.418352
Zn4	Zn	-0.593821	1.430548	0.593973
O5	O	-0.506032	1.518379	0.506170
O6	O	-0.441495	1.753265	0.570724
O7	O	-0.570644	1.582816	0.271317
O8	O	-0.271205	1.453916	0.441680
O9	O	-0.570591	1.753185	0.441652
O10	O	-0.271165	1.583001	0.570740
O11	O	-0.441587	1.453810	0.271329
O12	O	-0.441518	1.283536	0.441637
O13	O	-0.570470	1.453897	0.741000
O14	O	-0.570522	1.283528	0.570665
O15	O	-0.441426	1.582991	0.741032
O16	O	-0.740904	1.582806	0.441609
O17	O	-0.740852	1.453792	0.570649
C18	C	-0.506019	1.245411	0.506149
C19	C	-0.506039	1.128635	0.506165
C20	C	-0.778999	1.518314	0.506146
C21	C	-0.895776	1.518383	0.506171
C22	C	-0.573313	1.073796	0.573244
C23	C	-0.573317	0.964072	0.573265
C24	C	-0.438769	0.964035	0.439118
C25	C	-0.438761	1.073757	0.439104
C26	C	-0.950630	1.585637	0.439056
C27	C	-1.060354	1.585704	0.439091
C28	C	-1.060360	1.451254	0.573359
C29	C	-0.950638	1.451193	0.573328
C30	C	-0.231998	1.518472	0.506217
C31	C	-0.115222	1.518512	0.506237
C32	C	-0.505934	1.518455	0.780203
C33	C	-0.505892	1.518487	0.896980
C34	C	-0.506045	1.792412	0.506191
C35	C	-0.506051	1.909188	0.506200
C36	C	-0.506053	1.518363	0.233202
C37	C	-0.505799	1.518534	0.116426
C38	C	-0.573014	1.585689	1.061571
C39	C	-0.573064	1.585663	0.951847
C40	C	-0.438674	1.451325	0.951843
C41	C	-0.438631	1.451346	1.061565
H42	H	-0.628097	0.919427	0.627889
H43	H	-1.105042	1.396549	0.628034
H44	H	-0.905972	1.396426	0.627986
C45	C	-0.365878	1.378213	0.892329
C46	C	-0.388759	1.274259	0.918975
C47	C	-0.321728	1.206878	0.864163
H48	H	-0.295243	1.393475	0.910276
H49	H	-0.375539	1.387749	0.819116
H50	H	-0.379089	1.264727	0.992171
H51	H	-0.459382	1.258964	0.901024
H52	H	-0.331388	1.216415	0.790950
H53	H	-0.251096	1.222150	0.882115
H54	H	-0.337249	1.136338	0.882227
C55	C	-0.365828	1.378294	1.121181
C56	C	-0.425299	1.310931	1.184126
C57	C	-0.358279	1.243609	1.239047
H58	H	-0.320014	1.418378	1.164087
H59	H	-0.325849	1.338220	1.072824
H60	H	-0.465260	1.351000	1.232477
H61	H	-0.471110	1.270824	1.141246
H62	H	-0.318299	1.203536	1.190691
H63	H	-0.312468	1.283702	1.281947
H64	H	-0.398620	1.197889	1.281754
C65	C	-0.646060	1.658665	1.120947
C66	C	-0.704954	1.717449	1.049416
C67	C	-0.772268	1.784674	1.104071
H68	H	-0.605975	1.704559	1.163766
H69	H	-0.691873	1.618489	1.163714
H70	H	-0.659146	1.757621	1.006667
H71	H	-0.745059	1.671582	1.006595
H72	H	-0.818082	1.744499	1.146838
H73	H	-0.732176	1.830562	1.146888
H74	H	-0.812243	1.824561	1.055546
H75	H	-0.383971	1.118408	0.384480
C76	C	-0.645868	1.658638	0.892156
C77	C	-0.586412	1.725964	0.829158
C78	C	-0.653449	1.793195	0.774146
H79	H	-0.685887	1.698752	0.940426
H80	H	-0.691647	1.618452	0.849283
H81	H	-0.540652	1.766146	0.872027
H82	H	-0.546396	1.685879	0.780868
H83	H	-0.699227	1.753010	0.731273
H84	H	-0.693464	1.833302	0.822423
H85	H	-0.613119	1.838877	0.731388
C86	C	-0.890931	1.658652	0.366322
C87	C	-0.827813	1.725907	0.425848
C88	C	-0.772797	1.793177	0.358881
H89	H	-0.939199	1.698816	0.326334
H90	H	-0.848140	1.618492	0.320512
H91	H	-0.870601	1.766063	0.471640
H92	H	-0.779525	1.685772	0.465834
H93	H	-0.730006	1.753017	0.313071
H94	H	-0.821073	1.833334	0.318896
H95	H	-0.729958	1.838811	0.399259
C96	C	-0.646386	1.133189	0.646175
C97	C	-0.705281	1.061673	0.704945
C98	C	-0.772595	1.116344	0.772155
H99	H	-0.692207	1.175967	0.606021
H100	H	-0.606269	1.175999	0.692071
H101	H	-0.745395	1.018881	0.659055
H102	H	-0.659488	1.018893	0.745120
H103	H	-0.732478	1.159155	0.818051
H104	H	-0.818409	1.159120	0.731993
H105	H	-0.812556	1.067830	0.812045
C106	C	-0.365908	0.904392	0.366179
C107	C	-0.425318	0.841374	0.298726
C108	C	-0.358234	0.786429	0.231509
H109	H	-0.320165	0.861533	0.406336
H110	H	-0.325854	0.952733	0.326166
H111	H	-0.465354	0.793038	0.338734
H112	H	-0.471058	0.884208	0.258546
H113	H	-0.318180	0.834770	0.191496
H114	H	-0.312495	0.743575	0.271674
H115	H	-0.398534	0.743672	0.185728
C116	C	-1.119721	1.658761	0.366105
C117	C	-1.048186	1.717568	0.307271
C118	C	-1.102835	1.784872	0.240014
H119	H	-1.162454	1.704639	0.406227
H120	H	-1.162574	1.618642	0.320251
H121	H	-1.005351	1.757684	0.353120
H122	H	-1.005451	1.671718	0.267127
H123	H	-1.145689	1.744753	0.194160
H124	H	-1.145566	1.830743	0.280145
H125	H	-1.054308	1.824773	0.200080
