data_functionalizedCrystal
_audit_creation_method	'MofGen! by Chris Wilmer'
_symmetry_space_group_name_H-M	'P1'
_symmetry_Int_Tables_number	1
_symmetry_cell_setting	triclinic
loop_
_symmetry_equiv_pos_as_xyz
  x,y,z
_cell_length_a	12.759401
_cell_length_b	12.759400
_cell_length_c	12.759393
_cell_angle_alpha	90.029805
_cell_angle_beta	90.019676
_cell_angle_gamma	90.015071
loop_
_atom_site_label
_atom_site_type_symbol
_atom_site_fract_x
_atom_site_fract_y
_atom_site_fract_z
Zn1	Zn	1.606267	-0.418204	0.593990
Zn2	Zn	1.939600	-0.084870	0.927323
Zn3	Zn	2.272933	0.248463	1.260656
Zn4	Zn	1.606158	-0.593919	0.418312
Zn5	Zn	1.939491	-0.260586	0.751645
Zn6	Zn	2.272825	0.072748	1.084979
Zn7	Zn	1.430565	-0.418256	0.418329
Zn8	Zn	1.763899	-0.084923	0.751662
Zn9	Zn	2.097232	0.248411	1.084995
Zn10	Zn	1.430558	-0.593842	0.593953
Zn11	Zn	1.763891	-0.260509	0.927286
Zn12	Zn	2.097224	0.072824	1.260620
O13	O	1.518387	-0.506055	0.506146
O14	O	1.851720	-0.172722	0.839479
O15	O	2.185054	0.160611	1.172813
O16	O	1.753273	-0.441523	0.570694
O17	O	2.086607	-0.108189	0.904027
O18	O	2.419940	0.225144	1.237361
O19	O	1.582823	-0.570671	0.271293
O20	O	1.916156	-0.237338	0.604626
O21	O	2.249490	0.095996	0.937960
O22	O	1.453921	-0.271228	0.441653
O23	O	1.787255	0.062105	0.774986
O24	O	2.120588	0.395439	1.108320
O25	O	1.753193	-0.570620	0.441624
O26	O	2.086527	-0.237287	0.774958
O27	O	2.419860	0.096046	1.108291
O28	O	1.583008	-0.271189	0.570710
O29	O	1.916342	0.062144	0.904044
O30	O	2.249675	0.395477	1.237377
O31	O	1.453816	-0.441612	0.271305
O32	O	1.787149	-0.108279	0.604639
O33	O	2.120483	0.225054	0.937972
O34	O	1.283543	-0.441538	0.441617
O35	O	1.616877	-0.108204	0.774951
O36	O	1.950210	0.225129	1.108284
O37	O	1.453908	-0.570489	0.740979
O38	O	1.787241	-0.237156	1.074312
O39	O	2.120575	0.096177	1.407646
O40	O	1.283538	-0.570540	0.570648
O41	O	1.616871	-0.237207	0.903981
O42	O	1.950204	0.096126	1.237314
O43	O	1.583001	-0.441448	0.741006
O44	O	1.916334	-0.108115	1.074339
O45	O	2.249667	0.225218	1.407673
O46	O	1.582815	-0.740930	0.441589
O47	O	1.916149	-0.407597	0.774922
O48	O	2.249482	-0.074263	1.108255
O49	O	1.453802	-0.740874	0.570632
O50	O	1.787136	-0.407540	0.903965
O51	O	2.120469	-0.074207	1.237298
C52	C	1.245420	-0.506037	0.506131
C53	C	1.578753	-0.172704	0.839464
C54	C	1.912086	0.160630	1.172798
C55	C	1.128643	-0.506055	0.506150
C56	C	1.461976	-0.172721	0.839483
C57	C	1.795310	0.160612	1.172816
C58	C	1.073823	-0.438955	0.573460
C59	C	1.407157	-0.105622	0.906793
C60	C	1.740490	0.227712	1.240127
C61	C	0.964099	-0.438966	0.573467
C62	C	1.297432	-0.105632	0.906800
C63	C	1.630766	0.227701	1.240133
C64	C	0.964024	-0.573185	0.438850
C65	C	1.297358	-0.239851	0.772184
C66	C	1.630691	0.093482	1.105517
C67	C	1.073746	-0.573168	0.438839
C68	C	1.407080	-0.239835	0.772172
C69	C	1.740413	0.093499	1.105506
C70	C	1.518325	-0.779023	0.506127
C71	C	1.851658	-0.445689	0.839461
C72	C	2.184991	-0.112356	1.172794
C73	C	1.518394	-0.895799	0.506154
C74	C	1.851728	-0.562466	0.839488
C75	C	2.185061	-0.229133	1.172821
C76	C	1.585581	-0.950551	0.573412
C77	C	1.918914	-0.617218	0.906745
C78	C	2.252247	-0.283885	1.240078
C79	C	1.585640	-1.060275	0.573440
C80	C	1.918973	-0.726942	0.906774
C81	C	2.252306	-0.393609	1.240107
C82	C	1.451323	-1.060486	0.438945
C83	C	1.784656	-0.727152	0.772278
C84	C	2.117990	-0.393819	1.105612
C85	C	1.451260	-0.950764	0.438923
C86	C	1.784593	-0.617430	0.772256
C87	C	2.117926	-0.284097	1.105589
C88	C	1.792420	-0.506074	0.506161
C89	C	2.125754	-0.172741	0.839495
C90	C	2.459087	0.160593	1.172828
C91	C	1.909197	-0.506082	0.506168
C92	C	2.242530	-0.172749	0.839501
C93	C	2.575863	0.160584	1.172835
C94	C	1.518466	-0.505954	0.780179
C95	C	1.851799	-0.172621	1.113513
C96	C	2.185132	0.160712	1.446846
C97	C	1.518499	-0.505911	0.896956
C98	C	1.851832	-0.172578	1.230289
C99	C	2.185166	0.160755	1.563623
C100	C	1.518478	-0.232022	0.506188
C101	C	1.851811	0.101311	0.839521
C102	C	2.185145	0.434645	1.172854
C103	C	1.518517	-0.115245	0.506205
C104	C	1.851850	0.218088	0.839539
C105	C	2.185183	0.551421	1.172872
C106	C	1.518369	-0.506080	0.233179
C107	C	1.851702	-0.172747	0.566512
C108	C	2.185036	0.160587	0.899845
C109	C	1.518539	-0.505827	0.116402
C110	C	1.851872	-0.172494	0.449736
C111	C	2.185206	0.160840	0.783069
C112	C	1.585723	-0.438709	0.951834
C113	C	1.919056	-0.105376	1.285167
C114	C	2.252389	0.227958	1.618500
C115	C	1.585740	-0.438664	1.061558
C116	C	1.919074	-0.105330	1.394891
C117	C	2.252407	0.228003	1.728225
C118	C	1.451308	-0.573032	1.061517
C119	C	1.784641	-0.239699	1.394850
C120	C	2.117975	0.093634	1.728184
C121	C	1.451286	-0.573072	0.951795
C122	C	1.784619	-0.239738	1.285128
C123	C	2.117952	0.093595	1.618462
H124	H	0.919470	-0.384325	0.628276
H125	H	1.252803	-0.050992	0.961609
H126	H	1.586136	0.282342	1.294943
H127	H	1.640347	-1.104849	0.628210
H128	H	1.973680	-0.771516	0.961544
H129	H	2.307014	-0.438183	1.294877
H130	H	1.396588	-0.627714	1.106180
H131	H	1.729921	-0.294381	1.439513
H132	H	2.063254	0.038953	1.772847
F133	F	1.379728	-0.644596	0.893387
F134	F	1.713062	-0.311263	1.226720
F135	F	2.046395	0.022070	1.560053
F136	F	1.132093	-0.644580	0.367186
F137	F	1.465426	-0.311246	0.700519
F138	F	1.798760	0.022087	1.033852
H139	H	0.919314	-0.627827	0.384049
H140	H	1.252647	-0.294494	0.717383
H141	H	1.585981	0.038840	1.050716
H142	H	1.396543	-0.906182	0.384153
H143	H	1.729877	-0.572848	0.717487
H144	H	2.063210	-0.239515	1.050820
F145	F	1.657029	-0.892058	0.644968
F146	F	1.990362	-0.558724	0.978302
F147	F	2.323695	-0.225391	1.311635
F148	F	1.657254	-0.367229	0.893474
F149	F	1.990588	-0.033895	1.226807
F150	F	2.323921	0.299438	1.560141
F151	F	1.379876	-1.118992	0.367398
F152	F	1.713209	-0.785658	0.700731
F153	F	2.046543	-0.452325	1.034064
F154	F	1.657296	-0.367144	1.119958
F155	F	1.990629	-0.033811	1.453291
F156	F	2.323963	0.299522	1.786625
H157	H	1.118517	-0.384304	0.628265
H158	H	1.451850	-0.050970	0.961599
H159	H	1.785184	0.282363	1.294932
