data_functionalizedCrystal
_audit_creation_method	'MofGen! by Chris Wilmer'
_symmetry_space_group_name_H-M	'P1'
_symmetry_Int_Tables_number	1
_symmetry_cell_setting	triclinic
loop_
_symmetry_equiv_pos_as_xyz
  x,y,z
_cell_length_a	12.759401
_cell_length_b	21.395362
_cell_length_c	12.759393
_cell_angle_alpha	90.034721
_cell_angle_beta	89.980324
_cell_angle_gamma	89.971618
loop_
_atom_site_label
_atom_site_type_symbol
_atom_site_fract_x
_atom_site_fract_y
_atom_site_fract_z
Zn1	Zn	1.606170	0.249401	-0.593954
Zn2	Zn	2.106170	0.749401	-0.093954
Zn3	Zn	1.606020	0.354191	-0.418261
Zn4	Zn	2.106020	0.854191	0.081739
Zn5	Zn	1.430468	0.249432	-0.418293
Zn6	Zn	1.930468	0.749432	0.081707
Zn7	Zn	1.430420	0.354146	-0.593902
Zn8	Zn	1.930420	0.854146	-0.093902
O9	O	1.518269	0.301793	-0.506102
O10	O	2.018269	0.801793	-0.006102
O11	O	1.753171	0.263308	-0.570656
O12	O	2.253171	0.763308	-0.070656
O13	O	1.582691	0.340327	-0.271244
O14	O	2.082691	0.840327	0.228756
O15	O	1.453858	0.161750	-0.441630
O16	O	1.953858	0.661750	0.058370
O17	O	1.753061	0.340297	-0.441575
O18	O	2.253061	0.840297	0.058425
O19	O	1.582945	0.161727	-0.570687
O20	O	2.082945	0.661727	-0.070687
O21	O	1.453713	0.263361	-0.271268
O22	O	1.953713	0.763361	0.228732
O23	O	1.283441	0.263317	-0.441580
O24	O	1.783441	0.763317	0.058420
O25	O	1.453775	0.340219	-0.740930
O26	O	1.953775	0.840219	-0.240930
O27	O	1.283405	0.340249	-0.570599
O28	O	1.783405	0.840249	-0.070599
O29	O	1.582898	0.263263	-0.740968
O30	O	2.082898	0.763263	-0.240968
O31	O	1.582643	0.441863	-0.441525
O32	O	2.082643	0.941863	0.058475
O33	O	1.453630	0.441830	-0.570568
O34	O	1.953630	0.941830	-0.070568
C35	C	1.245302	0.301782	-0.506088
C36	C	1.745302	0.801782	-0.006088
C37	C	1.128525	0.301792	-0.506106
C38	C	1.628525	0.801792	-0.006106
C39	C	1.073721	0.261777	-0.573422
C40	C	1.573721	0.761777	-0.073422
C41	C	0.963997	0.261783	-0.573429
C42	C	1.463997	0.761783	-0.073429
C43	C	0.963891	0.341826	-0.438801
C44	C	1.463891	0.841826	0.061199
C45	C	1.073613	0.341816	-0.438790
C46	C	1.573613	0.841816	0.061210
C47	C	1.518144	0.464580	-0.506060
C48	C	2.018144	0.964580	-0.006060
C49	C	1.518186	0.534221	-0.506077
C50	C	2.018186	1.034221	-0.006077
C51	C	1.585690	1.036014	-0.439120
C52	C	2.085690	1.536014	0.060880
C53	C	1.585651	0.970579	-0.439092
C54	C	2.085651	1.470579	0.060908
C55	C	1.518410	0.937860	-0.506212
C56	C	2.018410	1.437860	-0.006212
C57	C	1.451184	0.970581	-0.573346
C58	C	1.951184	1.470581	-0.073346
C59	C	1.451217	1.036016	-0.573364
C60	C	1.951217	1.536016	-0.073364
C61	C	1.510011	0.834153	-0.600831
C62	C	2.010011	1.334153	-0.100831
C63	C	1.509985	0.768720	-0.600814
C64	C	2.009985	1.268720	-0.100814
C65	C	1.518301	0.736039	-0.506153
C66	C	2.018301	1.236039	-0.006153
C67	C	1.526665	0.768799	-0.411507
C68	C	2.026665	1.268799	0.088493
C69	C	1.526698	0.834233	-0.411526
C70	C	2.026698	1.334233	0.088474
C71	C	1.518366	0.866907	-0.506198
C72	C	2.018366	1.366907	-0.006198
C73	C	1.585475	0.632373	-0.438988
C74	C	2.085475	1.132373	0.061012
C75	C	1.585429	0.566936	-0.438958
C76	C	2.085429	1.066936	0.061042
C77	C	1.450968	0.566940	-0.573221
C78	C	1.950968	1.066940	-0.073221
C79	C	1.451008	0.632375	-0.573242
C80	C	1.951008	1.132375	-0.073242
C81	C	1.518268	0.665088	-0.506127
C82	C	2.018268	1.165088	-0.006127
C83	C	1.792303	0.301804	-0.506118
C84	C	2.292303	0.801804	-0.006118
C85	C	1.909079	0.301809	-0.506125
C86	C	2.409079	0.801809	-0.006125
C87	C	1.518348	0.301732	-0.780136
C88	C	2.018348	0.801732	-0.280136
C89	C	1.518382	0.301707	-0.896913
C90	C	2.018382	0.801707	-0.396913
C91	C	1.518421	1.138369	-0.506181
C92	C	2.018421	1.638369	-0.006181
C93	C	1.518477	1.068728	-0.506249
C94	C	2.018477	1.568728	-0.006249
C95	C	1.585621	0.261630	-0.951796
C96	C	2.085621	0.761630	-0.451796
C97	C	1.585639	0.261603	-1.061520
C98	C	2.085639	0.761603	-0.561520
C99	C	1.451175	0.341735	-1.061468
C100	C	1.951175	0.841735	-0.561468
C101	C	1.451153	0.341759	-0.951746
C102	C	1.951153	0.841759	-0.451746
C103	C	1.518251	0.301807	-0.233135
C104	C	2.018251	0.801807	0.266865
C105	C	1.518422	0.301656	-0.116359
C106	C	2.018422	0.801656	0.383641
H107	H	0.919380	0.229197	-0.628243
H108	H	1.419380	0.729197	-0.128243
C109	C	0.903484	0.385854	-0.364769
C110	C	1.403484	0.885854	0.135231
H111	H	0.830288	0.380135	-0.374424
H112	H	1.330288	0.880135	0.125576
H113	H	0.921437	0.376635	-0.294203
H114	H	1.421437	0.876635	0.205797
H115	H	0.921452	0.427963	-0.380025
H116	H	1.421452	0.927963	0.119975
C117	C	1.133902	0.385838	-0.364742
C118	C	1.633902	0.885838	0.135258
H119	H	1.085485	0.409682	-0.324664
H120	H	1.585485	0.909682	0.175336
H121	H	1.176699	0.361834	-0.319035
H122	H	1.676699	0.861834	0.180965
H123	H	1.176705	0.413163	-0.404854
H124	H	1.676705	0.913163	0.095146
C125	C	1.535882	0.870268	-0.307423
C126	C	2.035882	1.370268	0.192577
H127	H	1.540822	0.841437	-0.251039
H128	H	2.040822	1.341437	0.248961
H129	H	1.596791	0.895767	-0.308847
H130	H	2.096791	1.395767	0.191153
H131	H	1.475677	0.895824	-0.298151
H132	H	1.975677	1.395824	0.201849
H133	H	1.396442	0.374345	-1.106126
H134	H	1.896442	0.874345	-0.606126
H135	H	1.640360	0.229015	-0.907154
H136	H	2.140360	0.729015	-0.407154
H137	H	1.640390	0.228967	-1.106202
H138	H	2.140390	0.728967	-0.606202
H139	H	1.503429	0.860756	-0.677937
H140	H	2.003429	1.360756	-0.177937
H141	H	1.396391	0.374394	-0.907058
H142	H	1.896391	0.874394	-0.407058
H143	H	1.640240	0.659009	-0.384337
H144	H	2.140240	1.159009	0.115663
C145	C	1.377005	0.530957	-0.647054
C146	C	1.877005	1.030957	-0.147054
H147	H	1.386615	0.487301	-0.637434
H148	H	1.886615	0.987301	-0.137434
H149	H	1.306429	0.541722	-0.631621
H150	H	1.806429	1.041722	-0.131621
H151	H	1.392356	0.541640	-0.717665
H152	H	1.892356	1.041640	-0.217665
C153	C	1.134122	0.217748	-0.647458
C154	C	1.634122	0.717748	-0.147458
H155	H	1.085763	0.193913	-0.687543
H156	H	1.585763	0.693913	-0.187543
H157	H	1.176932	0.241742	-0.693160
H158	H	1.676932	0.741742	-0.193160
H159	H	1.176920	0.190413	-0.607339
H160	H	1.676920	0.690413	-0.107339
H161	H	1.640454	1.062645	-0.384466
H162	H	2.140454	1.562645	0.115534
H163	H	1.533439	0.742191	-0.334426
H164	H	2.033439	1.242191	0.165574
H165	H	1.503181	0.742049	-0.677879
H166	H	2.003181	1.242049	-0.177879
C167	C	1.659593	0.934583	-0.365257
C168	C	2.159593	1.434583	0.134743
H169	H	1.649936	0.890928	-0.374857
H170	H	2.149936	1.390928	0.125143
H171	H	1.730178	0.945267	-0.380709
H172	H	2.230178	1.445267	0.119291
H173	H	1.644268	0.945343	-0.294647
H174	H	2.144268	1.445343	0.205353
C175	C	1.659368	0.530951	-0.365113
C176	C	2.159368	1.030951	0.134887
H177	H	1.699434	0.559807	-0.325155
H178	H	2.199434	1.059807	0.174845
H179	H	1.619198	0.505466	-0.319286
H180	H	2.119198	1.005466	0.180714
H181	H	1.705107	0.505384	-0.405349
H182	H	2.205107	1.005384	0.094651
C183	C	1.377085	0.668362	-0.647097
C184	C	1.877085	1.168362	-0.147097
H185	H	1.337038	0.639506	-0.687075
H186	H	1.837038	1.139506	-0.187075
H187	H	1.331344	0.693930	-0.606877
H188	H	1.831344	1.193930	-0.106877
H189	H	1.417272	0.693845	-0.692921
H190	H	1.917272	1.193845	-0.192921
C191	C	1.377289	1.072005	-0.647215
C192	C	1.877289	1.572005	-0.147215
H193	H	1.386939	1.115661	-0.637611
H194	H	1.886939	1.615661	-0.137611
H195	H	1.392617	1.061239	-0.717816
H196	H	1.892617	1.561239	-0.217816
H197	H	1.306697	1.061326	-0.631765
H198	H	1.806697	1.561326	-0.131765
C199	C	1.377225	0.934593	-0.647179
C200	C	1.877225	1.434593	-0.147179
H201	H	1.386839	0.890937	-0.637562
H202	H	1.886839	1.390937	-0.137562
H203	H	1.306647	0.945355	-0.631744
H204	H	1.806647	1.445355	-0.131744
H205	H	1.392573	0.945279	-0.717790
H206	H	1.892573	1.445279	-0.217790
