data_functionalizedCrystal
_audit_creation_method	'MofGen! by Chris Wilmer'
_symmetry_space_group_name_H-M	'P1'
_symmetry_Int_Tables_number	1
_symmetry_cell_setting	triclinic
loop_
_symmetry_equiv_pos_as_xyz
  x,y,z
_cell_length_a	17.077404
_cell_length_b	21.395362
_cell_length_c	17.077396
_cell_angle_alpha	89.966876
_cell_angle_beta	89.982480
_cell_angle_gamma	90.025177
loop_
_atom_site_label
_atom_site_type_symbol
_atom_site_fract_x
_atom_site_fract_y
_atom_site_fract_z
Zn1	Zn	1.199999	-0.249511	-0.443828
Zn2	Zn	1.533333	0.083823	-0.110494
Zn3	Zn	1.866666	0.417156	0.222839
Zn4	Zn	1.199896	-0.354293	-0.312553
Zn5	Zn	1.533229	-0.020960	0.020780
Zn6	Zn	1.866563	0.312373	0.354114
Zn7	Zn	1.068736	-0.249525	-0.312575
Zn8	Zn	1.402070	0.083808	0.020758
Zn9	Zn	1.735403	0.417141	0.354092
Zn10	Zn	1.068683	-0.354246	-0.443776
Zn11	Zn	1.402017	-0.020912	-0.110443
Zn12	Zn	1.735350	0.312421	0.222891
O13	O	1.134329	-0.301894	-0.378183
O14	O	1.467662	0.031440	-0.044850
O15	O	1.800995	0.364773	0.288484
O16	O	1.309833	-0.263424	-0.426426
O17	O	1.643166	0.069909	-0.093093
O18	O	1.976499	0.403243	0.240240
O19	O	1.182476	-0.340422	-0.202709
O20	O	1.515809	-0.007088	0.130624
O21	O	1.849143	0.326245	0.463958
O22	O	1.086214	-0.161845	-0.330017
O23	O	1.419548	0.171488	0.003317
O24	O	1.752881	0.504821	0.336650
O25	O	1.309757	-0.340407	-0.329979
O26	O	1.643090	-0.007074	0.003354
O27	O	1.976423	0.326259	0.336687
O28	O	1.182653	-0.161835	-0.426448
O29	O	1.515986	0.171499	-0.093114
O30	O	1.849319	0.504832	0.240219
O31	O	1.086114	-0.263449	-0.202725
O32	O	1.419447	0.069884	0.130608
O33	O	1.752781	0.403218	0.463942
O34	O	0.958882	-0.263403	-0.329967
O35	O	1.292216	0.069931	0.003367
O36	O	1.625549	0.403264	0.336700
O37	O	1.086124	-0.340326	-0.553630
O38	O	1.419457	-0.006993	-0.220296
O39	O	1.752791	0.326340	0.113037
O40	O	0.958844	-0.340341	-0.426359
O41	O	1.292177	-0.007007	-0.093026
O42	O	1.625510	0.326326	0.240307
O43	O	1.182601	-0.263378	-0.553668
O44	O	1.515935	0.069956	-0.220334
O45	O	1.849268	0.403289	0.112999
O46	O	1.182425	-0.441965	-0.329929
O47	O	1.515758	-0.108632	0.003404
O48	O	1.849091	0.224702	0.336738
O49	O	1.086024	-0.441930	-0.426338
O50	O	1.419357	-0.108597	-0.093005
O51	O	1.752690	0.224737	0.240329
C52	C	0.930381	-0.301869	-0.378160
C53	C	1.263714	0.031465	-0.044827
C54	C	1.597048	0.364798	0.288506
C55	C	0.843131	-0.301873	-0.378169
C56	C	1.176464	0.031460	-0.044836
C57	C	1.509798	0.364794	0.288498
C58	C	0.467317	-0.342045	-0.428318
C59	C	0.800650	-0.008711	-0.094985
C60	C	1.133984	0.324622	0.238349
C61	C	0.549297	-0.342037	-0.428306
C62	C	0.882631	-0.008703	-0.094973
C63	C	1.215964	0.324630	0.238360
C64	C	0.590282	-0.301910	-0.378195
C65	C	0.923616	0.031423	-0.044862
C66	C	1.256949	0.364756	0.288471
C67	C	0.549282	-0.261794	-0.328088
C68	C	0.882616	0.071539	0.005246
C69	C	1.215949	0.404873	0.338579
C70	C	0.467303	-0.261806	-0.328096
C71	C	0.800637	0.071528	0.005237
C72	C	1.133970	0.404861	0.338570
C73	C	0.720152	-0.261771	-0.328075
C74	C	1.053486	0.071562	0.005259
C75	C	1.386819	0.404895	0.338592
C76	C	0.802137	-0.261758	-0.328067
C77	C	1.135470	0.071575	0.005266
C78	C	1.468804	0.404908	0.338600
C79	C	0.802146	-0.342002	-0.428285
C80	C	1.135480	-0.008669	-0.094951
C81	C	1.468813	0.324665	0.238382
C82	C	0.720168	-0.342014	-0.428293
C83	C	1.053501	-0.008681	-0.094960
C84	C	1.386834	0.324653	0.238373
C85	C	0.679173	-0.301897	-0.378186
C86	C	1.012507	0.031437	-0.044853
C87	C	1.345840	0.364770	0.288480
C88	C	1.134228	-0.464681	-0.378143
C89	C	1.467562	-0.131348	-0.044809
C90	C	1.800895	0.201985	0.288524
C91	C	1.134257	-0.534323	-0.378152
C92	C	1.467591	-0.200989	-0.044818
C93	C	1.800924	0.132344	0.288515
C94	C	1.184444	-0.566973	-0.428399
C95	C	1.517777	-0.233640	-0.095066
C96	C	1.851111	0.099693	0.238268
C97	C	1.184472	-0.632409	-0.428418
C98	C	1.517805	-0.299075	-0.095085
C99	C	1.851138	0.034258	0.238249
C100	C	1.134321	-0.665191	-0.378176
C101	C	1.467654	-0.331858	-0.044843
C102	C	1.800987	0.001476	0.288491
C103	C	1.084124	-0.632532	-0.327925
C104	C	1.417458	-0.299199	0.005408
C105	C	1.750791	0.034134	0.338742
C106	C	1.084093	-0.567098	-0.327913
C107	C	1.417426	-0.233765	0.005420
C108	C	1.750759	0.099568	0.338754
C109	C	1.128219	-0.768903	-0.307467
C110	C	1.461553	-0.435570	0.025866
C111	C	1.794886	-0.102236	0.359200
C112	C	1.128257	-0.834336	-0.307478
C113	C	1.461590	-0.501003	0.025856
C114	C	1.794923	-0.167669	0.359189
C115	C	1.134414	-0.867012	-0.378214
C116	C	1.467747	-0.533678	-0.044881
C117	C	1.801081	-0.200345	0.288453
C118	C	1.140550	-0.834246	-0.448941
C119	C	1.473884	-0.500913	-0.115608
C120	C	1.807217	-0.167579	0.217725
C121	C	1.140519	-0.768812	-0.448929
C122	C	1.473852	-0.435479	-0.115596
C123	C	1.807185	-0.102145	0.217737
C124	C	1.134349	-0.736143	-0.378184
C125	C	1.467682	-0.402810	-0.044851
C126	C	1.801016	-0.069477	0.288483
C127	C	1.184633	-0.970615	-0.428486
C128	C	1.517967	-0.637281	-0.095153
C129	C	1.851300	-0.303948	0.238180
C130	C	1.184655	-1.036051	-0.428507
C131	C	1.517989	-0.702718	-0.095173
C132	C	1.851322	-0.369385	0.238160
C133	C	1.084312	-1.036174	-0.328007
C134	C	1.417645	-0.702841	0.005327
C135	C	1.750979	-0.369507	0.338660
C136	C	1.084286	-0.970739	-0.327993
C137	C	1.417619	-0.637405	0.005340
C138	C	1.750953	-0.304072	0.338673
C139	C	1.134451	-0.937963	-0.378232
C140	C	1.467784	-0.604630	-0.044899
C141	C	1.801117	-0.271296	0.288435
C142	C	1.339073	-0.301919	-0.378206
C143	C	1.672406	0.031414	-0.044873
C144	C	2.005740	0.364747	0.288461
C145	C	1.426323	-0.301930	-0.378216
C146	C	1.759656	0.031403	-0.044883
C147	C	2.092989	0.364736	0.288451
C148	C	1.134368	-0.301845	-0.582927
C149	C	1.467702	0.031488	-0.249594
C150	C	1.801035	0.364822	0.083739
C151	C	1.134385	-0.301824	-0.670177
C152	C	1.467718	0.031509	-0.336844
C153	C	1.801052	0.364842	-0.003510
C154	C	1.134451	-0.138470	-0.378240
C155	C	1.467784	0.194863	-0.044907
C156	C	1.801118	0.528196	0.288426
C157	C	1.134503	-0.068829	-0.378265
C158	C	1.467836	0.264504	-0.044932
C159	C	1.801170	0.597838	0.288402
C160	C	1.084224	-0.261740	-0.711175
C161	C	1.417558	0.071593	-0.377842
C162	C	1.750891	0.404927	-0.044508
C163	C	1.084237	-0.261726	-0.793156
C164	C	1.417571	0.071608	-0.459822
C165	C	1.750904	0.404941	-0.126489
C166	C	1.134415	-0.301793	-0.834137
C167	C	1.467749	0.031540	-0.500803
C168	C	1.801082	0.364873	-0.167470
C169	C	1.184578	-0.341882	-0.793133
C170	C	1.517911	-0.008549	-0.459800
C171	C	1.851245	0.324784	-0.126466
C172	C	1.184561	-0.341899	-0.711154
C173	C	1.517894	-0.008566	-0.377821
C174	C	1.851227	0.324768	-0.044487
C175	C	1.184612	-0.341843	-0.964003
C176	C	1.517945	-0.008510	-0.630670
C177	C	1.851279	0.324824	-0.297336
C178	C	1.184631	-0.341826	-1.045988
C179	C	1.517964	-0.008492	-0.712654
C180	C	1.851297	0.324841	-0.379321
C181	C	1.084289	-0.261670	-1.046005
C182	C	1.417622	0.071664	-0.712671
C183	C	1.750955	0.404997	-0.379338
C184	C	1.084271	-0.261687	-0.964026
C185	C	1.417605	0.071647	-0.630692
C186	C	1.750938	0.404980	-0.297359
C187	C	1.134435	-0.301775	-0.923028
C188	C	1.467769	0.031558	-0.589694
C189	C	1.801102	0.364892	-0.256361
C190	C	1.134335	-0.301897	-0.174235
C191	C	1.467668	0.031437	0.159098
C192	C	1.801001	0.364770	0.492432
C193	C	1.134470	-0.301741	-0.086986
C194	C	1.467803	0.031592	0.246348
C195	C	1.801137	0.364926	0.579681
H196	H	0.582671	-0.374703	-0.469103
H197	H	0.916005	-0.041370	-0.135769
H198	H	1.249338	0.291963	0.197564
H199	H	1.043473	-1.062865	-0.287104
H200	H	1.376807	-0.729531	0.046230
H201	H	1.710140	-0.396198	0.379563
F202	F	1.030674	-0.532348	-0.274431
F203	F	1.364007	-0.199015	0.058902
F204	F	1.697340	0.134319	0.392235
F205	F	1.237946	-0.384565	-0.667521
F206	F	1.571279	-0.051231	-0.334188
F207	F	1.904612	0.282102	-0.000854
H208	H	1.043368	-0.229109	-0.677814
H209	H	1.376701	0.104225	-0.344481
H210	H	1.710035	0.437558	-0.011148
F211	F	1.030901	-0.219004	-1.089639
F212	F	1.364234	0.114330	-0.756305
F213	F	1.697568	0.447663	-0.422972
H214	H	0.433927	-0.229139	-0.287300
H215	H	0.767260	0.104195	0.046033
H216	H	1.100594	0.437528	0.379367
F217	F	1.238019	-0.935730	-0.481956
F218	F	1.571353	-0.602397	-0.148623
F219	F	1.904686	-0.269064	0.184710
F220	F	0.845776	-0.384690	-0.481623
F221	F	1.179110	-0.051357	-0.148290
F222	F	1.512443	0.281977	0.185044
H223	H	1.225289	-0.540289	-0.469308
H224	H	1.558622	-0.206956	-0.135975
H225	H	1.891956	0.126378	0.197359
F226	F	1.237893	-0.667165	-0.481897
F227	F	1.571226	-0.333832	-0.148563
F228	F	1.904559	-0.000498	0.184770
H229	H	1.225490	-0.374452	-1.079352
H230	H	1.558823	-0.041119	-0.746019
H231	H	1.892157	0.292215	-0.412686
H232	H	1.225468	-0.374482	-0.930625
H233	H	1.558801	-0.041148	-0.597292
H234	H	1.892134	0.292185	-0.263958
H235	H	0.835505	-0.229078	-0.287270
H236	H	1.168838	0.104255	0.046063
H237	H	1.502171	0.437589	0.379397
F238	F	1.030870	-0.935988	-0.274512
F239	F	1.364203	-0.602655	0.058821
F240	F	1.697537	-0.269321	0.392155
F241	F	1.030820	-0.219085	-0.836785
F242	F	1.364154	0.114248	-0.503452
F243	F	1.697487	0.447581	-0.170118
F244	F	1.238066	-1.070800	-0.481998
F245	F	1.571399	-0.737467	-0.148665
F246	F	1.904732	-0.404134	0.184669
H247	H	0.433953	-0.374717	-0.469129
H248	H	0.767286	-0.041384	-0.135795
H249	H	1.100620	0.291950	0.197538
F250	F	0.676550	-0.384717	-0.481631
F251	F	1.009883	-0.051384	-0.148298
F252	F	1.343217	0.281949	0.185036
F253	F	0.676525	-0.219077	-0.274741
F254	F	1.009858	0.114257	0.058593
F255	F	1.343192	0.447590	0.391926
F256	F	0.592904	-0.219091	-0.274753
F257	F	0.926237	0.114243	0.058581
F258	F	1.259570	0.447576	0.391914
H259	H	1.145513	-0.742136	-0.506517
H260	H	1.478847	-0.408802	-0.173184
H261	H	1.812180	-0.075469	0.160149
F262	F	1.237977	-0.384529	-0.836750
F263	F	1.571310	-0.051196	-0.503417
F264	F	1.904643	0.282138	-0.170083
H265	H	1.043416	-0.229057	-0.930661
H266	H	1.376749	0.104276	-0.597328
H267	H	1.710082	0.437609	-0.263995
H268	H	1.145566	-0.860849	-0.506542
H269	H	1.478899	-0.527516	-0.173208
H270	H	1.812232	-0.194182	0.160125
H271	H	1.123265	-0.861009	-0.249887
H272	H	1.456598	-0.527675	0.083446
H273	H	1.789931	-0.194342	0.416780
F274	F	1.121746	-0.734134	-0.232168
F275	F	1.455079	-0.400800	0.101166
F276	F	1.788412	-0.067467	0.434499
H277	H	1.043289	-0.659228	-0.287019
H278	H	1.376623	-0.325895	0.046314
H279	H	1.709956	0.007439	0.379647
