data_functionalizedCrystal
_audit_creation_method	'MofGen! by Chris Wilmer'
_symmetry_space_group_name_H-M	'P1'
_symmetry_Int_Tables_number	1
_symmetry_cell_setting	triclinic
loop_
_symmetry_equiv_pos_as_xyz
  x,y,z
_cell_length_a	21.395362
_cell_length_b	21.395361
_cell_length_c	21.395355
_cell_angle_alpha	90.021511
_cell_angle_beta	90.043940
_cell_angle_gamma	90.046585
loop_
_atom_site_label
_atom_site_type_symbol
_atom_site_fract_x
_atom_site_fract_y
_atom_site_fract_z
Zn1	Zn	0.957859	-0.249246	0.354573
Zn2	Zn	0.957762	-0.354005	0.249790
Zn3	Zn	0.853074	-0.249275	0.249774
Zn4	Zn	0.853044	-0.354018	0.354494
O5	O	0.905435	-0.301636	0.302158
O6	O	1.045524	-0.263125	0.340712
O7	O	0.943847	-0.340119	0.162110
O8	O	0.867028	-0.161593	0.263702
O9	O	1.045453	-0.340091	0.263729
O10	O	0.944013	-0.161572	0.340697
O11	O	0.866934	-0.263174	0.162098
O12	O	0.765392	-0.263187	0.263626
O13	O	0.866976	-0.340113	0.442183
O14	O	0.765370	-0.340141	0.340564
O15	O	0.943983	-0.263137	0.442240
O16	O	0.943817	-0.441685	0.263653
O17	O	0.866881	-0.441695	0.340579
C18	C	0.742647	-0.301669	0.302085
C19	C	0.673006	-0.301698	0.302069
C20	C	0.905352	-0.464424	0.302123
C21	C	0.905374	-0.534065	0.302129
C22	C	0.640297	-0.341822	0.342070
C23	C	0.574862	-0.341806	0.342098
C24	C	0.542138	-0.301674	0.302113
C25	C	0.574854	-0.261543	0.262109
C26	C	0.640288	-0.261555	0.262087
C27	C	0.438413	-0.296627	0.245708
C28	C	0.372980	-0.296619	0.245730
C29	C	0.340317	-0.301633	0.302182
C30	C	0.373095	-0.306668	0.358616
C31	C	0.438529	-0.306681	0.358594
C32	C	0.471185	-0.301656	0.302133
C33	C	0.236656	-0.341742	0.342218
C34	C	0.171219	-0.341723	0.342247
C35	C	0.171213	-0.261462	0.262252
C36	C	0.236648	-0.261479	0.262229
C37	C	0.269366	-0.301622	0.302211
C38	C	0.945470	-0.566752	0.262114
C39	C	0.945499	-0.632188	0.262128
C40	C	0.905421	-0.664933	0.302150
C41	C	0.865322	-0.632238	0.342172
C42	C	0.865299	-0.566804	0.342162
C43	C	0.849006	-0.768664	0.307041
C44	C	0.849029	-0.834097	0.307047
C45	C	0.905494	-0.866754	0.302187
C46	C	0.961939	-0.833970	0.297307
C47	C	0.961915	-0.768536	0.297296
C48	C	0.905443	-0.735886	0.302167
C49	C	0.945625	-0.970394	0.262186
C50	C	0.945655	-1.035830	0.262204
C51	C	0.865473	-1.035879	0.342245
C52	C	0.865448	-0.970444	0.342230
C53	C	0.905524	-0.937705	0.302197
C54	C	1.068858	-0.301603	0.302231
C55	C	1.138499	-0.301589	0.302262
C56	C	0.905487	-0.301623	0.465581
C57	C	0.905509	-0.301618	0.535222
C58	C	0.905535	-0.138213	0.302206
C59	C	0.905578	-0.068571	0.302227
C60	C	0.905419	-0.301603	0.139370
C61	C	0.905518	-0.301432	0.069729
C62	C	0.945605	-0.261535	0.567966
C63	C	0.945604	-0.261508	0.633402
C64	C	0.905514	-0.301575	0.666091
C65	C	0.865410	-0.341661	0.633339
C66	C	0.865407	-0.341682	0.567904
C67	C	0.900538	-0.357992	0.769752
C68	C	0.900545	-0.357972	0.835185
C69	C	0.905518	-0.301509	0.867911
C70	C	0.910497	-0.245065	0.835197
C71	C	0.910495	-0.245086	0.769763
C72	C	0.905512	-0.301556	0.737043
C73	C	0.945615	-0.261393	0.971608
C74	C	0.945610	-0.261365	1.037045
C75	C	0.865419	-0.341524	1.036980
C76	C	0.865421	-0.341547	0.971545
C77	C	0.905522	-0.301482	0.938863
H78	H	0.666932	-0.374509	0.374627
N79	N	0.988862	-0.218126	1.072355
H80	H	1.017881	-0.243572	1.099527
H81	H	0.963377	-0.189088	1.099447
H82	H	1.007918	-0.860558	0.293349
H83	H	0.346297	-0.292523	0.199778
N84	N	0.539575	-0.385093	0.385237
H85	H	0.493158	-0.378995	0.379181
H86	H	0.551067	-0.375418	0.430001
N87	N	0.135931	-0.218172	0.219125
H88	H	0.108840	-0.189169	0.244651
H89	H	0.108759	-0.243629	0.190058
H90	H	0.263296	-0.374426	0.374776
H91	H	0.978265	-0.228767	0.944997
N92	N	0.988848	-0.218308	0.532726
H93	H	0.963398	-0.189285	0.505565
H94	H	1.017863	-0.243807	0.505630
H95	H	0.548206	-0.228866	0.229554
N96	N	0.822172	-0.384736	1.072228
H97	H	0.828255	-0.378639	1.118650
H98	H	0.831894	-0.429486	1.060797
H99	H	0.914547	-0.199128	0.743130
N100	N	0.895174	-0.418846	0.870467
H101	H	0.933341	-0.424710	0.897640
H102	H	0.891995	-0.454580	0.839768
N103	N	0.675571	-0.218273	0.218945
H104	H	0.644914	-0.192843	0.193621
H105	H	0.702664	-0.243736	0.189891
H106	H	0.832647	-0.540189	0.374747
N107	N	0.822150	-0.384915	0.532592
H108	H	0.831847	-0.429677	0.543985
H109	H	0.828246	-0.378799	0.486190
H110	H	1.007873	-0.741844	0.293325
H111	H	0.832691	-0.658904	0.374760
N112	N	0.788099	-0.733446	0.312273
H113	H	0.796647	-0.687020	0.311526
H114	H	0.766785	-0.744884	0.352793
H115	H	0.978254	-0.228864	0.660067
H116	H	0.465002	-0.292541	0.199734
N117	N	0.473884	-0.312110	0.419455
H118	H	0.443268	-0.315285	0.455224
H119	H	0.501077	-0.273948	0.425332
H120	H	0.832774	-0.374190	0.944885
N121	N	0.988701	-0.531441	0.218947
H122	H	1.014110	-0.562082	0.193603
H123	H	1.017673	-0.504250	0.244490
N124	N	0.988748	-0.667454	0.218969
H125	H	1.014132	-0.636785	0.193609
H126	H	0.963263	-0.694648	0.189950
H127	H	0.978259	-0.943737	0.229590
N128	N	0.915867	-0.184160	0.870485
H129	H	0.915111	-0.192709	0.916901
H130	H	0.879653	-0.156158	0.859020
N131	N	0.337877	-0.312081	0.419510
H132	H	0.291451	-0.311306	0.410964
H133	H	0.349385	-0.275892	0.447585
H134	H	0.144589	-0.374395	0.374824
H135	H	0.978310	-1.062443	0.229621
N136	N	0.822249	-1.071188	0.385417
H137	H	0.828349	-1.117601	0.379355
H138	H	0.777502	-1.059810	0.375609
H139	H	0.896321	-0.403959	0.743111
N140	N	0.271932	-0.218199	0.219088
H141	H	0.241274	-0.192770	0.193763
H142	H	0.299027	-0.243659	0.190034
H143	H	0.832766	-0.374282	0.659958
H144	H	0.803068	-0.860785	0.311015
N145	N	0.822197	-0.935183	0.385384
H146	H	0.796810	-0.965855	0.410740
H147	H	0.793205	-0.908083	0.359836
