data_functionalizedCrystal
_audit_creation_method	'MofGen! by Chris Wilmer'
_symmetry_space_group_name_H-M	'P1'
_symmetry_Int_Tables_number	1
_symmetry_cell_setting	triclinic
loop_
_symmetry_equiv_pos_as_xyz
  x,y,z
_cell_length_a	17.077404
_cell_length_b	17.077396
_cell_length_c	17.077402
_cell_angle_alpha	90.028267
_cell_angle_beta	89.977697
_cell_angle_gamma	89.983895
loop_
_atom_site_label
_atom_site_type_symbol
_atom_site_fract_x
_atom_site_fract_y
_atom_site_fract_z
Zn1	Zn	1.200029	-0.443825	0.312544
Zn2	Zn	1.700029	0.056175	0.812544
Zn3	Zn	1.199938	-0.312561	0.443821
Zn4	Zn	1.699938	0.187439	0.943821
Zn5	Zn	1.068766	-0.312575	0.312569
Zn6	Zn	1.568766	0.187425	0.812569
Zn7	Zn	1.068726	-0.443787	0.443767
Zn8	Zn	1.568726	0.056213	0.943767
O9	O	1.134365	-0.378187	0.378175
O10	O	1.634365	0.121813	0.878175
O11	O	1.309864	-0.426422	0.329971
O12	O	1.809864	0.073578	0.829971
O13	O	1.182517	-0.202716	0.426443
O14	O	1.682517	0.297284	0.926443
O15	O	1.086234	-0.330007	0.202718
O16	O	1.586234	0.169993	0.702718
O17	O	1.309797	-0.329983	0.426419
O18	O	1.809797	0.170017	0.926419
O19	O	1.182672	-0.426436	0.202700
O20	O	1.682672	0.073564	0.702700
O21	O	1.086145	-0.202726	0.330012
O22	O	1.586145	0.297274	0.830012
O23	O	0.958914	-0.329971	0.329960
O24	O	1.458914	0.170029	0.829960
O25	O	1.086165	-0.553639	0.426328
O26	O	1.586165	-0.053639	0.926328
O27	O	0.958884	-0.426372	0.426351
O28	O	1.458884	0.073628	0.926351
O29	O	1.182633	-0.553667	0.329919
O30	O	1.682633	-0.053667	0.829919
O31	O	1.182478	-0.329947	0.553661
O32	O	1.682478	0.170053	1.053661
O33	O	1.086076	-0.426358	0.553621
O34	O	1.586076	0.073642	1.053621
C35	C	0.930417	-0.378169	0.378153
C36	C	1.430417	0.121831	0.878153
C37	C	0.843167	-0.378180	0.378162
C38	C	1.343167	0.121820	0.878162
C39	C	0.802213	-0.428473	0.328031
C40	C	1.302213	0.071527	0.828031
C41	C	0.720232	-0.428476	0.328036
C42	C	1.220232	0.071524	0.828036
C43	C	0.679208	-0.378191	0.378177
C44	C	1.179208	0.121809	0.878177
C45	C	0.720168	-0.327893	0.428311
C46	C	1.220168	0.172107	0.928311
C47	C	0.802147	-0.327886	0.428301
C48	C	1.302147	0.172114	0.928301
C49	C	0.549298	-0.327913	0.428328
C50	C	1.049298	0.172087	0.928328
C51	C	0.467313	-0.327920	0.428339
C52	C	0.967313	0.172080	0.928339
C53	C	0.467383	-0.428503	0.328063
C54	C	0.967383	0.071497	0.828063
C55	C	0.549362	-0.428496	0.328054
C56	C	1.049362	0.071504	0.828054
C57	C	0.590317	-0.378199	0.378189
C58	C	1.090317	0.121801	0.878189
C59	C	1.134404	-0.582931	0.378114
C60	C	1.634404	-0.082931	0.878114
C61	C	1.134421	-0.670181	0.378089
C62	C	1.634421	-0.170181	0.878089
C63	C	1.084256	-0.711176	0.327871
C64	C	1.584256	-0.211176	0.827871
C65	C	1.084269	-0.793157	0.327853
C66	C	1.584269	-0.293157	0.827853
C67	C	1.134451	-0.834141	0.378050
C68	C	1.634451	-0.334141	0.878050
C69	C	1.184619	-0.793140	0.428272
C70	C	1.684619	-0.293140	0.928272
C71	C	1.184601	-0.711161	0.428294
C72	C	1.684601	-0.211161	0.928294
C73	C	1.184653	-0.964010	0.428223
C74	C	1.684653	-0.464010	0.928223
C75	C	1.184671	-1.045995	0.428201
C76	C	1.684671	-0.545995	0.928201
C77	C	1.084320	-1.046006	0.327783
C78	C	1.584320	-0.546006	0.827783
C79	C	1.084303	-0.964027	0.327804
C80	C	1.584303	-0.464027	0.827804
C81	C	1.134471	-0.923032	0.378026
C82	C	1.634471	-0.423032	0.878026
C83	C	1.339109	-0.378205	0.378198
C84	C	1.839109	0.121795	0.878198
C85	C	1.426359	-0.378213	0.378208
C86	C	1.926359	0.121787	0.878208
C87	C	1.134284	-0.378164	0.582123
C88	C	1.634284	0.121836	1.082123
C89	C	1.134321	-0.378180	0.669373
C90	C	1.634321	0.121820	1.169373
C91	C	1.134371	-0.174239	0.378179
C92	C	1.634371	0.325761	0.878179
C93	C	1.134506	-0.086990	0.377984
C94	C	1.634506	0.413010	0.877984
C95	C	1.184567	-0.328035	0.710358
C96	C	1.684567	0.171965	1.210358
C97	C	1.184604	-0.328058	0.792338
C98	C	1.684604	0.171942	1.292338
C99	C	1.134389	-0.378224	0.833332
C100	C	1.634389	0.121776	1.333332
C101	C	1.084141	-0.428375	0.792342
C102	C	1.584141	0.071625	1.292342
C103	C	1.084109	-0.428355	0.710363
C104	C	1.584109	0.071645	1.210363
C105	C	1.084209	-0.428412	0.963212
C106	C	1.584209	0.071588	1.463212
C107	C	1.084240	-0.428431	1.045197
C108	C	1.584240	0.071569	1.545197
C109	C	1.184704	-0.328115	1.045187
C110	C	1.684704	0.171885	1.545187
C111	C	1.184672	-0.328095	0.963208
C112	C	1.684672	0.171905	1.463208
C113	C	1.134422	-0.378245	0.922223
C114	C	1.634422	0.121755	1.422223
C115	C	1.134461	-0.378237	1.173431
C116	C	1.634461	0.121763	1.673431
C117	C	1.134486	-0.378285	1.086181
C118	C	1.634486	0.121715	1.586181
H119	H	0.835609	-0.469423	0.287202
H120	H	1.335609	0.030577	0.787202
H121	H	0.686760	-0.286946	0.469133
H122	H	1.186760	0.213054	0.969133
H123	H	0.582641	-0.286953	0.469152
H124	H	1.082641	0.213047	0.969152
Cl125	Cl	0.600935	-0.491719	0.265025
Cl126	Cl	1.100935	0.008281	0.765025
Cl127	Cl	0.415898	-0.491731	0.265035
Cl128	Cl	0.915898	0.008269	0.765035
H129	H	1.043194	-0.469190	0.676994
H130	H	1.543194	0.030810	1.176994
Cl131	Cl	0.415741	-0.264722	0.491393
Cl132	Cl	0.915741	0.235278	0.991393
Cl133	Cl	1.247701	-0.844663	0.491382
Cl134	Cl	1.747701	-0.344663	0.991382
H135	H	0.835491	-0.286932	0.469123
H136	H	1.335491	0.213068	0.969123
Cl137	Cl	1.021018	-0.491446	0.843878
Cl138	Cl	1.521018	0.008554	1.343878
H139	H	1.043416	-0.826531	0.286964
H140	H	1.543416	-0.326531	0.786964
H141	H	1.043443	-0.930660	0.286926
H142	H	1.543443	-0.430660	0.786926
Cl143	Cl	1.247868	-0.265061	1.096710
Cl144	Cl	1.747868	0.234939	1.596710
Cl145	Cl	1.247776	-0.265017	0.843858
Cl146	Cl	1.747776	0.234983	1.343858
H147	H	1.043472	-1.079388	0.286889
H148	H	1.543472	-0.579388	0.786889
Cl149	Cl	1.021169	-0.659661	0.264760
Cl150	Cl	1.521169	-0.159661	0.764760
Cl151	Cl	1.247764	-1.097517	0.491301
Cl152	Cl	1.747764	-0.597517	0.991301
H153	H	1.225512	-0.930634	0.469113
H154	H	1.725512	-0.430634	0.969113
H155	H	0.686891	-0.469431	0.287215
H156	H	1.186891	0.030569	0.787215
Cl157	Cl	1.247666	-0.659624	0.491430
Cl158	Cl	1.747666	-0.159624	0.991430
Cl159	Cl	1.247693	-0.264960	0.658830
Cl160	Cl	1.747693	0.235040	1.158830
H161	H	1.225557	-0.287242	0.929831
H162	H	1.725557	0.212758	1.429831
H163	H	1.043365	-0.469295	1.078572
H164	H	1.543365	0.030705	1.578572
H165	H	1.043293	-0.469253	0.929845
H166	H	1.543293	0.030747	1.429845
