data_functionalizedCrystal
_audit_creation_method	'MofGen! by Chris Wilmer'
_symmetry_space_group_name_H-M	'P1'
_symmetry_Int_Tables_number	1
_symmetry_cell_setting	triclinic
loop_
_symmetry_equiv_pos_as_xyz
  x,y,z
_cell_length_a	21.395364
_cell_length_b	21.395361
_cell_length_c	17.077395
_cell_angle_alpha	89.968008
_cell_angle_beta	89.984081
_cell_angle_gamma	90.029041
loop_
_atom_site_label
_atom_site_type_symbol
_atom_site_fract_x
_atom_site_fract_y
_atom_site_fract_z
Zn1	Zn	0.957805	-0.249474	-0.443822
Zn2	Zn	0.957723	-0.354253	-0.312546
Zn3	Zn	0.853036	-0.249490	-0.312570
Zn4	Zn	0.852989	-0.354215	-0.443768
O5	O	0.905388	-0.301858	-0.378177
O6	O	1.045472	-0.263383	-0.426421
O7	O	0.943822	-0.340379	-0.202702
O8	O	0.866987	-0.161810	-0.330013
O9	O	1.045412	-0.340363	-0.329972
O10	O	0.943960	-0.161798	-0.426444
O11	O	0.866908	-0.263410	-0.202720
O12	O	0.765352	-0.263373	-0.329961
O13	O	0.866907	-0.340298	-0.553623
O14	O	0.765317	-0.340314	-0.426352
O15	O	0.943915	-0.263345	-0.553662
O16	O	0.943776	-0.441926	-0.329920
O17	O	0.866828	-0.441898	-0.426329
C18	C	0.742600	-0.301841	-0.378154
C19	C	0.672959	-0.301849	-0.378163
C20	C	0.171161	-0.341995	-0.428319
C21	C	0.236597	-0.341995	-0.428311
C22	C	0.269321	-0.301872	-0.378201
C23	C	0.236604	-0.261757	-0.328082
C24	C	0.171170	-0.261763	-0.328087
C25	C	0.373010	-0.245408	-0.372127
C26	C	0.438443	-0.245401	-0.372129
C27	C	0.471142	-0.301855	-0.378184
C28	C	0.438399	-0.358318	-0.384255
C29	C	0.372965	-0.358323	-0.384259
C30	C	0.340273	-0.301862	-0.378191
C31	C	0.574803	-0.341971	-0.428287
C32	C	0.640240	-0.341972	-0.428273
C33	C	0.640246	-0.261729	-0.328049
C34	C	0.574810	-0.261733	-0.328059
C35	C	0.542093	-0.301853	-0.378182
C36	C	0.905305	-0.464646	-0.378133
C37	C	0.905327	-0.534287	-0.378140
C38	C	0.945430	-0.566994	-0.327992
C39	C	0.945459	-0.632429	-0.328009
C40	C	0.905374	-0.665155	-0.378167
C41	C	0.865269	-0.632440	-0.428326
C42	C	0.865246	-0.567006	-0.428312
C43	C	0.848959	-0.768868	-0.384319
C44	C	0.848981	-0.834301	-0.384326
C45	C	0.905447	-0.866976	-0.378213
C46	C	0.961892	-0.834210	-0.372076
C47	C	0.961869	-0.768776	-0.372062
C48	C	0.905396	-0.736108	-0.378188
C49	C	0.945585	-0.970636	-0.328081
C50	C	0.945615	-1.036072	-0.328104
C51	C	0.865420	-1.036082	-0.428417
C52	C	0.865395	-0.970647	-0.428398
C53	C	0.905477	-0.937927	-0.378226
C54	C	1.068811	-0.301875	-0.378200
C55	C	1.138453	-0.301883	-0.378210
C56	C	0.905415	-0.301816	-0.582921
C57	C	0.905426	-0.301797	-0.670171
C58	C	0.905488	-0.138435	-0.378238
C59	C	0.905531	-0.068794	-0.378264
C60	C	0.945594	-0.261643	-1.046007
C61	C	0.945581	-0.261665	-0.964027
C62	C	0.905478	-0.301738	-0.923020
C63	C	0.865390	-0.341796	-0.963998
C64	C	0.865406	-0.341777	-1.045977
C65	C	0.865357	-0.341833	-0.793128
C66	C	0.865340	-0.341851	-0.711143
C67	C	0.945532	-0.261721	-0.711178
C68	C	0.945549	-0.261701	-0.793157
C69	C	0.905459	-0.301759	-0.834129
C70	C	0.905397	-0.301855	-0.174229
C71	C	0.905507	-0.301697	-0.086979
H72	H	0.346308	-0.404297	-0.389200
O73	O	0.542986	-0.380854	-0.477051
C74	C	0.469102	-0.389388	-0.582985
C75	C	0.505107	-0.345283	-0.527822
H76	H	0.438459	-0.360647	-0.624036
H77	H	0.503692	-0.418053	-0.618855
H78	H	0.438469	-0.422125	-0.546856
H79	H	0.535741	-0.312508	-0.563890
H80	H	0.470484	-0.316661	-0.491949
O81	O	0.671918	-0.380960	-0.477025
C82	C	0.665004	-0.460568	-0.576408
C83	C	0.629050	-0.416435	-0.521250
H84	H	0.630361	-0.489271	-0.612166
H85	H	0.695648	-0.431869	-0.617564
H86	H	0.695630	-0.493268	-0.540282
H87	H	0.598390	-0.383727	-0.557313
H88	H	0.598446	-0.445173	-0.480092
O89	O	0.984384	-0.222766	-0.671305
C90	C	0.992822	-0.138148	-0.578843
C91	C	0.948763	-0.182244	-0.623933
H92	H	0.964039	-0.105366	-0.540545
H93	H	1.025560	-0.166873	-0.540395
H94	H	1.021488	-0.109531	-0.622260
H95	H	0.920056	-0.210871	-0.580573
H96	H	0.916066	-0.153484	-0.662394
O97	O	0.984319	-0.664272	-0.279235
C98	C	0.992786	-0.738153	-0.173219
C99	C	0.948713	-0.702149	-0.228430
H100	H	0.964016	-0.768775	-0.132119
H101	H	1.025540	-0.768790	-0.209232
H102	H	1.021434	-0.703508	-0.137396
H103	H	0.920024	-0.736750	-0.264265
H104	H	0.916000	-0.671503	-0.192372
H105	H	0.666889	-0.229062	-0.287247
O106	O	0.984684	-1.067749	-0.279428
C107	C	1.091315	-1.087634	-0.241514
C108	C	1.047123	-1.051729	-0.296675
H109	H	1.141806	-1.074706	-0.255449
H110	H	1.080397	-1.074793	-0.178192
H111	H	1.084454	-1.140027	-0.250099
H112	H	1.053959	-0.999327	-0.288159
H113	H	1.058052	-1.064622	-0.359977
O114	O	0.984609	-0.222695	-1.085717
C115	C	1.064123	-0.143195	-1.077089
C116	C	1.019978	-0.187281	-1.032024
H117	H	1.092720	-0.114542	-1.033698
H118	H	1.096915	-0.171926	-1.115440
H119	H	1.035377	-0.110446	-1.115500
H120	H	1.048673	-0.220039	-0.993571
H121	H	0.987184	-0.158511	-0.993723
H122	H	0.144539	-0.229097	-0.287281
H123	H	0.548178	-0.229068	-0.287257
H124	H	0.832589	-0.540376	-0.469150
H125	H	0.978068	-0.540356	-0.287141
O126	O	0.826475	-0.380881	-0.671329
C127	C	0.796031	-0.487474	-0.646213
C128	C	0.840082	-0.443337	-0.691346
H129	H	0.807008	-0.537978	-0.662393
H130	H	0.802926	-0.480652	-0.580578
H131	H	0.745512	-0.476458	-0.662297
H132	H	0.890618	-0.454325	-0.675327
H133	H	0.833132	-0.450166	-0.756970
H134	H	0.346393	-0.199433	-0.367183
O135	O	0.826503	-0.380809	-0.832965
C136	C	0.818028	-0.465349	-0.925533
C137	C	0.862103	-0.421263	-0.880452
H138	H	0.846793	-0.498058	-0.963950
H139	H	0.789370	-0.494038	-0.882181
H140	H	0.785283	-0.436552	-0.963886
H141	H	0.894886	-0.450012	-0.842099
H142	H	0.890717	-0.392572	-0.923847
O143	O	0.826495	-0.380771	-1.085693
C144	C	0.796045	-0.487342	-1.110774
C145	C	0.840139	-0.443247	-1.065735
H146	H	0.807068	-0.537863	-1.094667
H147	H	0.745517	-0.476388	-1.094644
H148	H	0.802936	-0.480414	-1.176406
H149	H	0.833304	-0.450150	-1.000092
H150	H	0.890651	-0.454211	-1.081930
H151	H	0.263234	-0.374658	-0.469118
H152	H	0.832740	-0.374427	-0.930603
H153	H	1.007873	-0.860813	-0.367098
O154	O	0.470056	-0.413217	-0.390173
C155	C	0.463102	-0.525219	-0.402144
C156	C	0.427170	-0.463094	-0.395464
H157	H	0.428444	-0.565562	-0.406408
H158	H	0.493738	-0.524346	-0.456765
H159	H	0.493732	-0.531742	-0.348145
H160	H	0.396505	-0.456532	-0.449423
H161	H	0.396572	-0.463995	-0.340811
H162	H	0.465098	-0.199425	-0.367195
O163	O	0.984422	-0.222705	-0.924154
C164	C	0.992848	-0.138078	-0.831704
C165	C	0.948795	-0.182184	-0.876788
H166	H	0.964061	-0.105297	-0.793410
H167	H	1.025590	-0.166794	-0.793251
H168	H	1.021510	-0.109460	-0.875124
H169	H	0.920092	-0.210811	-0.833424
H170	H	0.916094	-0.153432	-0.915252
H171	H	0.978201	-0.229068	-0.826542
H172	H	0.263252	-0.229090	-0.287282
H173	H	0.144527	-0.374666	-0.469130
H174	H	1.007828	-0.742100	-0.367067
H175	H	0.978223	-0.943994	-0.287230
O176	O	0.826570	-1.067932	-0.477182
C177	C	0.818119	-1.141720	-0.583207
C178	C	0.862185	-1.105698	-0.528011
H179	H	0.846897	-1.172253	-0.624327
H180	H	0.785396	-1.172449	-0.547183
H181	H	0.789436	-1.107087	-0.619009
H182	H	0.890908	-1.140286	-0.492197
H183	H	0.894866	-1.074960	-0.564079
O184	O	0.826374	-0.938968	-0.477130
C185	C	0.746859	-0.945885	-0.576655
C186	C	0.791009	-0.981838	-0.521489
H187	H	0.718265	-0.980530	-0.612546
H188	H	0.714064	-0.915319	-0.540607
H189	H	0.775601	-0.915184	-0.617694
H190	H	0.762318	-1.012574	-0.480439
H191	H	0.823806	-1.012366	-0.557587
H192	H	0.802974	-0.742270	-0.389300
O193	O	0.794100	-0.866030	-0.390326
C194	C	0.682103	-0.859213	-0.402438
C195	C	0.744213	-0.823204	-0.395667
H196	H	0.641752	-0.824604	-0.406741
H197	H	0.683017	-0.889800	-0.457067
H198	H	0.675558	-0.889899	-0.348457
H199	H	0.750797	-0.792484	-0.449607
H200	H	0.743270	-0.792657	-0.341005
O201	O	0.826418	-0.664296	-0.477087
C202	C	0.817963	-0.738093	-0.583102
C203	C	0.862031	-0.702068	-0.527912
H204	H	0.846740	-0.768630	-0.624219
H205	H	0.785240	-0.768818	-0.547074
H206	H	0.789282	-0.703462	-0.618908
H207	H	0.890754	-0.736654	-0.492094
H208	H	0.894713	-0.671334	-0.563985
