data_functionalizedCrystal
_audit_creation_method	'MofGen! by Chris Wilmer'
_symmetry_space_group_name_H-M	'P1'
_symmetry_Int_Tables_number	1
_symmetry_cell_setting	triclinic
loop_
_symmetry_equiv_pos_as_xyz
  x,y,z
_cell_length_a	12.759401
_cell_length_b	17.077402
_cell_length_c	12.759393
_cell_angle_alpha	89.967664
_cell_angle_beta	90.020938
_cell_angle_gamma	89.974142
loop_
_atom_site_label
_atom_site_type_symbol
_atom_site_fract_x
_atom_site_fract_y
_atom_site_fract_z
Zn1	Zn	1.606196	0.312438	0.594007
Zn2	Zn	2.106196	0.812438	1.094007
Zn3	Zn	1.606058	0.443724	0.418321
Zn4	Zn	2.106058	0.943724	0.918321
Zn5	Zn	1.430495	0.312480	0.418342
Zn6	Zn	1.930495	0.812480	0.918342
Zn7	Zn	1.430457	0.443669	0.593958
Zn8	Zn	1.930457	0.943669	1.093958
O9	O	1.518301	0.378078	0.506157
O10	O	2.018301	0.878078	1.006157
O11	O	1.753199	0.329859	0.570713
O12	O	2.253199	0.829859	1.070713
O13	O	1.582727	0.426355	0.271303
O14	O	2.082727	0.926355	0.771303
O15	O	1.453876	0.202628	0.441673
O16	O	1.953876	0.702628	0.941673
O17	O	1.753097	0.426314	0.441638
O18	O	2.253097	0.926314	0.941638
O19	O	1.582963	0.202597	0.570733
O20	O	2.082963	0.702597	1.070733
O21	O	1.453741	0.329930	0.271318
O22	O	1.953741	0.829930	0.771318
O23	O	1.283469	0.329877	0.441626
O24	O	1.783469	0.829877	0.941626
O25	O	1.453811	0.426221	0.740986
O26	O	1.953811	0.926221	1.240986
O27	O	1.283441	0.426261	0.570651
O28	O	1.783441	0.926261	1.070651
O29	O	1.582926	0.329806	0.741021
O30	O	2.082926	0.829806	1.241021
O31	O	1.582690	0.553564	0.441591
O32	O	2.082690	1.053564	0.941591
O33	O	1.453677	0.553524	0.570631
O34	O	1.953677	1.053524	1.070631
C35	C	1.245334	0.378068	0.506136
C36	C	1.745334	0.878068	1.006136
C37	C	1.128557	0.378083	0.506152
C38	C	1.628557	0.878083	1.006152
C39	C	1.073709	0.428347	0.573230
C40	C	1.573709	0.928347	1.073230
C41	C	0.963984	0.428350	0.573250
C42	C	1.463984	0.928350	1.073250
C43	C	0.963968	0.327823	0.439107
C44	C	1.463968	0.827823	0.939107
C45	C	1.073690	0.327817	0.439093
C46	C	1.573690	0.827817	0.939093
C47	C	1.518193	0.582026	0.506126
C48	C	2.018193	1.082026	1.006126
C49	C	1.518243	0.669276	0.506148
C50	C	2.018243	1.169276	1.006148
C51	C	1.585487	0.710261	0.439032
C52	C	2.085487	1.210261	0.939032
C53	C	1.585536	0.792241	0.439063
C54	C	2.085536	1.292241	0.939063
C55	C	1.518334	0.833235	0.506206
C56	C	2.018334	1.333235	1.006206
C57	C	1.451087	0.792244	0.573330
C58	C	1.951087	1.292244	1.073330
C59	C	1.451044	0.710265	0.573304
C60	C	1.951044	1.210265	1.073304
C61	C	1.451178	0.963114	0.573380
C62	C	1.951178	1.463114	1.073380
C63	C	1.451219	1.045099	0.573405
C64	C	1.951219	1.545099	1.073405
C65	C	1.585670	1.045090	0.439139
C66	C	2.085670	1.545090	0.939139
C67	C	1.585627	0.963111	0.439112
C68	C	2.085627	1.463111	0.939112
C69	C	1.518378	0.922126	0.506235
C70	C	2.018378	1.422126	1.006235
C71	C	1.792335	0.378088	0.506179
C72	C	2.292335	0.878088	1.006179
C73	C	1.909111	0.378093	0.506188
C74	C	2.409111	0.878093	1.006188
C75	C	1.518380	0.378003	0.780190
C76	C	2.018380	0.878003	1.280190
C77	C	1.518414	0.377971	0.896967
C78	C	2.018414	0.877971	1.396967
C79	C	1.518430	1.173334	0.506225
C80	C	2.018430	1.673334	1.006225
C81	C	1.518463	1.086084	0.506289
C82	C	2.018463	1.586084	1.006289
C83	C	1.518284	0.378096	0.233190
C84	C	2.018284	0.878096	0.733190
C85	C	1.518454	0.377907	0.116414
C86	C	2.018454	0.877907	0.616414
C87	C	1.585649	0.327759	0.951849
C88	C	2.085649	0.827759	1.451849
C89	C	1.585666	0.327725	1.061573
C90	C	2.085666	0.827725	1.561573
C91	C	1.451211	0.428121	1.061524
C92	C	1.951211	0.928121	1.561524
C93	C	1.451189	0.428150	0.951802
C94	C	1.951189	0.928150	1.451802
H95	H	1.640206	0.676889	0.384351
H96	H	2.140206	1.176889	0.884351
H97	H	1.640342	0.929734	0.384434
H98	H	2.140342	1.429734	0.884434
H99	H	1.396289	0.676896	0.627958
H100	H	1.896289	1.176896	1.127958
C101	C	1.134059	0.483635	0.647005
C102	C	1.634059	0.983635	1.147005
N103	N	1.179512	0.525278	0.702578
N104	N	1.679512	1.025278	1.202578
H105	H	1.640292	0.825608	0.384409
H106	H	2.140292	1.325608	0.884409
H107	H	1.640384	0.286897	0.907206
H108	H	2.140384	0.786897	1.407206
C109	C	1.377305	1.090191	0.647278
C110	C	1.877305	1.590191	1.147278
N111	N	1.321635	1.124154	0.702923
N112	N	1.821635	1.624154	1.202923
H113	H	1.118349	0.286881	0.384470
H114	H	1.618349	0.786881	0.884470
H115	H	0.919331	0.469279	0.627873
H116	H	1.419331	0.969279	1.127873
C117	C	0.903603	0.272538	0.365340
C118	C	1.403603	0.772538	0.865340
N119	N	0.858138	0.230897	0.309775
N120	N	1.358138	0.730897	0.809775
C121	C	1.659633	0.272491	1.121939
C122	C	2.159633	0.772491	1.621939
N123	N	1.715348	0.230885	1.167405
N124	N	2.215348	0.730885	1.667405
C125	C	1.377266	0.483314	1.121852
C126	C	1.877266	0.983314	1.621852
N127	N	1.321569	0.524887	1.167290
N128	N	1.821569	1.024887	1.667290
H129	H	1.396421	0.929747	0.628042
H130	H	1.896421	1.429747	1.128042
C131	C	1.659653	1.090175	0.365312
C132	C	2.159653	1.590175	0.865312
N133	N	1.715375	1.124137	0.309707
N134	N	2.215375	1.624137	0.809707
C135	C	1.377161	0.837340	0.647186
C136	C	1.877161	1.337340	1.147186
N137	N	1.321473	0.871306	0.702810
N138	N	1.821473	1.371306	1.202810
C139	C	1.377218	0.483387	0.891428
C140	C	1.877218	0.983387	1.391428
N141	N	1.321503	0.524988	0.845954
N142	N	1.821503	1.024988	1.345954
