data_functionalizedCrystal
_audit_creation_method	'MofGen! by Chris Wilmer'
_symmetry_space_group_name_H-M	'P1'
_symmetry_Int_Tables_number	1
_symmetry_cell_setting	triclinic
loop_
_symmetry_equiv_pos_as_xyz
  x,y,z
_cell_length_a	17.077404
_cell_length_b	17.077402
_cell_length_c	12.759401
_cell_angle_alpha	90.012105
_cell_angle_beta	90.010592
_cell_angle_gamma	90.021130
loop_
_atom_site_label
_atom_site_type_symbol
_atom_site_fract_x
_atom_site_fract_y
_atom_site_fract_z
Zn1	Zn	1.199971	-0.312682	0.594091
Zn2	Zn	1.699971	0.187318	1.094091
Zn3	Zn	1.199902	-0.443916	0.418399
Zn4	Zn	1.699902	0.056084	0.918399
Zn5	Zn	1.068727	-0.312664	0.418415
Zn6	Zn	1.568727	0.187336	0.918415
Zn7	Zn	1.068670	-0.443906	0.594025
Zn8	Zn	1.568670	0.056094	1.094025
O9	O	1.134318	-0.378292	0.506233
O10	O	1.634318	0.121708	1.006233
O11	O	1.309808	-0.330102	0.570806
O12	O	1.809808	0.169898	1.070806
O13	O	1.182497	-0.426502	0.271380
O14	O	1.682497	0.073498	0.771380
O15	O	1.086189	-0.202820	0.441754
O16	O	1.586189	0.297180	0.941754
O17	O	1.309758	-0.426519	0.441726
O18	O	1.809758	0.073481	0.941726
O19	O	1.182613	-0.202833	0.570822
O20	O	1.682613	0.297167	1.070822
O21	O	1.086123	-0.330072	0.271392
O22	O	1.586123	0.169928	0.771392
O23	O	0.958873	-0.330062	0.441689
O24	O	1.458873	0.169938	0.941689
O25	O	1.086092	-0.426501	0.741054
O26	O	1.586092	0.073499	1.241054
O27	O	0.958831	-0.426484	0.570709
O28	O	1.458831	0.073516	1.070709
O29	O	1.182558	-0.330092	0.741104
O30	O	1.682558	0.169908	1.241104
O31	O	1.182442	-0.553762	0.441661
O32	O	1.682442	-0.053762	0.941661
O33	O	1.086026	-0.553754	0.570693
O34	O	1.586026	-0.053754	1.070693
C35	C	0.930370	-0.378271	0.506194
C36	C	1.430370	0.121729	1.006194
C37	C	0.843120	-0.378281	0.506203
C38	C	1.343120	0.121719	1.006203
C39	C	0.467329	-0.328199	0.573590
C40	C	0.967329	0.171801	1.073590
C41	C	0.549309	-0.328194	0.573579
C42	C	1.049309	0.171806	1.073579
C43	C	0.590271	-0.378309	0.506259
C44	C	1.090271	0.121691	1.006259
C45	C	0.549248	-0.428438	0.438954
C46	C	1.049248	0.071562	0.938954
C47	C	0.467269	-0.428447	0.438971
C48	C	0.967269	0.071553	0.938971
C49	C	0.720118	-0.428414	0.438920
C50	C	1.220118	0.071586	0.938920
C51	C	0.802103	-0.428404	0.438901
C52	C	1.302103	0.071596	0.938901
C53	C	0.802158	-0.328161	0.573527
C54	C	1.302158	0.171839	1.073527
C55	C	0.720179	-0.328170	0.573545
C56	C	1.220179	0.171830	1.073545
C57	C	0.679162	-0.378299	0.506238
C58	C	1.179162	0.121701	1.006238
C59	C	1.134242	-0.582240	0.506191
C60	C	1.634242	-0.082240	1.006191
C61	C	1.134281	-0.669490	0.506208
C62	C	1.634281	-0.169490	1.006208
C63	C	1.184536	-0.710458	0.439093
C64	C	1.684536	-0.210458	0.939093
C65	C	1.184575	-0.792438	0.439120
C66	C	1.684575	-0.292438	0.939120
C67	C	1.134353	-0.833449	0.506257
C68	C	1.634353	-0.333449	1.006257
C69	C	1.084096	-0.792475	0.573379
C70	C	1.584096	-0.292475	1.073379
C71	C	1.084063	-0.710496	0.573357
C72	C	1.584063	-0.210496	1.073357
C73	C	1.084169	-0.963345	0.573419
C74	C	1.584169	-0.463345	1.073419
C75	C	1.084202	-1.045330	0.573440
C76	C	1.584202	-0.545330	1.073440
C77	C	1.184681	-1.045287	0.439182
C78	C	1.684681	-0.545287	0.939182
C79	C	1.184647	-0.963308	0.439160
C80	C	1.684647	-0.463308	0.939160
C81	C	1.134389	-0.922340	0.506281
C82	C	1.634389	-0.422340	1.006281
C83	C	1.339062	-0.378314	0.506272
C84	C	1.839062	0.121686	1.006272
C85	C	1.426312	-0.378323	0.506288
C86	C	1.926312	0.121677	1.006288
C87	C	1.134326	-0.378297	0.780266
C88	C	1.634326	0.121703	1.280266
C89	C	1.134330	-0.378300	0.897042
C90	C	1.634330	0.121700	1.397042
C91	C	1.134415	-0.173548	0.506298
C92	C	1.634415	0.326452	1.006298
C93	C	1.134457	-0.086298	0.506325
C94	C	1.634457	0.413702	1.006325
C95	C	1.184553	-0.328107	0.951932
C96	C	1.684553	0.171893	1.451932
C97	C	1.184547	-0.328106	1.061656
C98	C	1.684547	0.171894	1.561656
C99	C	1.084091	-0.428496	1.061592
C100	C	1.584091	0.071504	1.561592
C101	C	1.084094	-0.428493	0.951870
C102	C	1.584094	0.071507	1.451870
C103	C	1.134308	-0.378304	1.233265
C104	C	1.634308	0.121696	1.733265
C105	C	1.134320	-0.378301	1.116489
C106	C	1.634320	0.121699	1.616489
H107	H	0.433874	-0.469264	0.384169
H108	H	0.933874	0.030736	0.884169
H109	H	1.043193	-0.469363	1.106245
H110	H	1.543193	0.030637	1.606245
F111	F	1.030633	-0.481913	0.893449
F112	F	1.530633	0.018087	1.393449
H113	H	1.225456	-0.287235	0.907294
H114	H	1.725456	0.212765	1.407294
H115	H	1.225497	-0.825791	0.384468
H116	H	1.725497	-0.325791	0.884468
H117	H	1.043209	-0.825873	0.628047
H118	H	1.543209	-0.325873	1.128047
F119	F	0.423741	-0.274855	0.645237
F120	F	0.923741	0.225145	1.145237
F121	F	0.592959	-0.274848	0.645216
F122	F	1.092959	0.225152	1.145216
F123	F	1.030680	-0.919746	0.644860
F124	F	1.530680	-0.419746	1.144860
F125	F	1.238007	-0.274689	1.120068
F126	F	1.738007	0.225311	1.620068
H127	H	0.686830	-0.287359	0.628358
H128	H	1.186830	0.212641	1.128358
H129	H	0.835558	-0.287343	0.628330
H130	H	1.335558	0.212657	1.128330
F131	F	1.030576	-0.666895	0.644792
F132	F	1.530576	-0.166895	1.144792
F133	F	1.237984	-0.666818	0.367629
F134	F	1.737984	-0.166818	0.867629
H135	H	1.225537	-0.929917	0.384487
H136	H	1.725537	-0.429917	0.884487
F137	F	1.030744	-1.088975	0.644885
F138	F	1.530744	-0.588975	1.144885
H139	H	0.835452	-0.469214	0.384086
H140	H	1.335452	0.030786	0.884086
H141	H	0.686725	-0.469238	0.384116
H142	H	1.186725	0.030762	0.884116
F143	F	0.592845	-0.481778	0.367311
F144	F	1.092845	0.018222	0.867311
H145	H	1.225606	-1.078647	0.384533
H146	H	1.725606	-0.578647	0.884533
