data_functionalizedCrystal
_audit_creation_method	'MofGen! by Chris Wilmer'
_symmetry_space_group_name_H-M	'P1'
_symmetry_Int_Tables_number	1
_symmetry_cell_setting	triclinic
loop_
_symmetry_equiv_pos_as_xyz
  x,y,z
_cell_length_a	21.395364
_cell_length_b	21.395362
_cell_length_c	21.395356
_cell_angle_alpha	90.027652
_cell_angle_beta	90.016383
_cell_angle_gamma	90.044742
loop_
_atom_site_label
_atom_site_type_symbol
_atom_site_fract_x
_atom_site_fract_y
_atom_site_fract_z
Zn1	Zn	0.957813	-0.249217	0.354253
Zn2	Zn	0.957732	-0.353990	0.249471
Zn3	Zn	0.853043	-0.249258	0.249489
Zn4	Zn	0.852999	-0.353988	0.354212
O5	O	0.905396	-0.301613	0.301856
O6	O	1.045480	-0.263099	0.340363
O7	O	0.943829	-0.340115	0.161796
O8	O	0.866993	-0.161574	0.263411
O9	O	1.045420	-0.340076	0.263381
O10	O	0.943967	-0.161545	0.340380
O11	O	0.866914	-0.263168	0.161809
O12	O	0.765359	-0.263167	0.263371
O13	O	0.866918	-0.340073	0.441895
O14	O	0.765327	-0.340112	0.340310
O15	O	0.943924	-0.263098	0.441925
O16	O	0.943786	-0.441668	0.263341
O17	O	0.866839	-0.441666	0.340293
C18	C	0.742609	-0.301644	0.301839
C19	C	0.672968	-0.301672	0.301846
C20	C	0.640308	-0.261656	0.341993
C21	C	0.574872	-0.261639	0.341995
C22	C	0.542099	-0.301650	0.301857
C23	C	0.574767	-0.341669	0.261703
C24	C	0.640201	-0.341680	0.261697
C25	C	0.438376	-0.358075	0.296818
C26	C	0.372944	-0.358065	0.296828
C27	C	0.340279	-0.301615	0.301871
C28	C	0.373054	-0.245174	0.306918
C29	C	0.438489	-0.245185	0.306912
C30	C	0.471147	-0.301642	0.301859
C31	C	0.236666	-0.261578	0.342023
C32	C	0.171230	-0.261560	0.342021
C33	C	0.171125	-0.341595	0.261732
C34	C	0.236561	-0.341607	0.261731
C35	C	0.269327	-0.301599	0.301879
C36	C	0.905316	-0.464401	0.301824
C37	C	0.905339	-0.534042	0.301831
C38	C	0.945397	-0.566683	0.341938
C39	C	0.945419	-0.632118	0.341953
C40	C	0.905390	-0.664911	0.301851
C41	C	0.865325	-0.632262	0.261742
C42	C	0.865299	-0.566828	0.261732
C43	C	0.900521	-0.768619	0.245412
C44	C	0.900551	-0.834052	0.245421
C45	C	0.905464	-0.866731	0.301881
C46	C	0.910362	-0.833969	0.358334
C47	C	0.910336	-0.768535	0.358325
C48	C	0.905413	-0.735863	0.301857
C49	C	0.945548	-0.970325	0.342007
C50	C	0.945565	-1.035761	0.342024
C51	C	0.865475	-1.035903	0.261807
C52	C	0.865454	-0.970468	0.261796
C53	C	0.905494	-0.937682	0.301895
C54	C	1.068820	-0.301583	0.301874
C55	C	1.138461	-0.301570	0.301882
C56	C	0.905425	-0.301580	0.465280
C57	C	0.905437	-0.301566	0.534921
C58	C	0.905494	-0.138190	0.301902
C59	C	0.905535	-0.068549	0.301922
C60	C	0.905404	-0.301601	0.139069
C61	C	0.905513	-0.301438	0.069428
C62	C	0.945557	-0.341501	1.036711
C63	C	0.945546	-0.341521	0.971276
C64	C	0.905497	-0.301467	0.938559
C65	C	0.865445	-0.261402	0.971284
C66	C	0.865453	-0.261387	1.036718
C67	C	0.900571	-0.245041	0.834906
C68	C	0.900567	-0.245054	0.769473
C69	C	0.905469	-0.301511	0.736739
C70	C	0.910387	-0.357957	0.769445
C71	C	0.910395	-0.357943	0.834879
C72	C	0.905484	-0.301478	0.867607
C73	C	0.945503	-0.341599	0.633069
C74	C	0.945487	-0.341620	0.567632
C75	C	0.865390	-0.261495	0.567642
C76	C	0.865402	-0.261480	0.633078
C77	C	0.905462	-0.301531	0.665787
H78	H	0.465172	-0.199228	0.311019
C79	C	0.821317	-0.668334	0.217605
N80	N	0.788177	-0.695504	0.184352
H81	H	0.832844	-0.228762	1.063356
H82	H	0.896620	-0.199060	0.861553
C83	C	0.676347	-0.217638	0.386150
N84	N	0.703493	-0.184481	0.419406
C85	C	0.272488	-0.385633	0.217571
N86	N	0.299548	-0.418795	0.184306
C87	C	0.821396	-0.217338	0.935295
N88	N	0.788216	-0.184148	0.908188
C89	C	0.989558	-0.385678	0.531644
N90	N	1.022760	-0.418857	0.504537
C91	C	0.989637	-1.071666	0.386143
N92	N	1.022835	-1.098710	0.419373
H93	H	0.263346	-0.228997	0.374710
H94	H	0.832796	-0.228854	0.659716
H95	H	0.144639	-0.228971	0.374712
H96	H	0.978175	-0.374116	1.063339
H97	H	0.346262	-0.404023	0.292722
H98	H	0.978164	-0.374137	0.944632
C99	C	0.538939	-0.217621	0.386165
N100	N	0.511876	-0.184467	0.419435
C101	C	0.915797	-0.420032	0.870854
N102	N	0.919862	-0.466799	0.897950
H103	H	0.978121	-0.374213	0.659703
H104	H	0.464967	-0.404047	0.292710
C105	C	0.915778	-0.420065	0.733442
N106	N	0.919838	-0.466843	0.706321
C107	C	0.135079	-0.385607	0.217579
N108	N	0.107925	-0.418757	0.184322
C109	C	0.337128	-0.183073	0.312460
N110	N	0.310065	-0.136301	0.316633
H111	H	0.548079	-0.374245	0.229022
H112	H	0.666792	-0.374266	0.229004
C113	C	0.821334	-0.217437	0.531658
N114	N	0.788148	-0.184252	0.504552
H115	H	0.977998	-0.539991	0.374591
C116	C	0.989490	-0.668030	0.386072
N117	N	1.022685	-0.695078	0.419302
H118	H	0.914322	-0.741862	0.404290
C119	C	0.895156	-0.182964	0.733503
N120	N	0.891079	-0.136195	0.706411
C121	C	0.915765	-0.869912	0.420446
N122	N	0.919835	-0.896986	0.467227
C123	C	0.821229	-0.530922	0.217612
N124	N	0.788034	-0.503877	0.184381
C125	C	0.989584	-0.934258	0.386126
N126	N	1.022750	-0.907095	0.419358
H127	H	0.832838	-0.943890	0.229135
C128	C	0.895163	-0.870084	0.183321
N129	N	0.891104	-0.897221	0.136546
C130	C	0.821434	-1.071971	0.217702
N131	N	0.788257	-1.099140	0.184485
H132	H	0.896517	-0.742017	0.199432
