data_functionalizedCrystal
_audit_creation_method	'MofGen! by Chris Wilmer'
_symmetry_space_group_name_H-M	'P1'
_symmetry_Int_Tables_number	1
_symmetry_cell_setting	triclinic
loop_
_symmetry_equiv_pos_as_xyz
  x,y,z
_cell_length_a	17.077404
_cell_length_b	17.077396
_cell_length_c	17.077402
_cell_angle_alpha	90.028267
_cell_angle_beta	89.977697
_cell_angle_gamma	89.983895
loop_
_atom_site_label
_atom_site_type_symbol
_atom_site_fract_x
_atom_site_fract_y
_atom_site_fract_z
Zn1	Zn	1.200029	-0.443825	0.312544
Zn2	Zn	1.199938	-0.312561	0.443821
Zn3	Zn	1.068766	-0.312575	0.312569
Zn4	Zn	1.068726	-0.443787	0.443767
O5	O	1.134365	-0.378187	0.378175
O6	O	1.309864	-0.426422	0.329971
O7	O	1.182517	-0.202716	0.426443
O8	O	1.086234	-0.330007	0.202718
O9	O	1.309797	-0.329983	0.426419
O10	O	1.182672	-0.426436	0.202700
O11	O	1.086145	-0.202726	0.330012
O12	O	0.958914	-0.329971	0.329960
O13	O	1.086165	-0.553639	0.426328
O14	O	0.958884	-0.426372	0.426351
O15	O	1.182633	-0.553667	0.329919
O16	O	1.182478	-0.329947	0.553661
O17	O	1.086076	-0.426358	0.553621
C18	C	0.930417	-0.378169	0.378153
C19	C	0.843167	-0.378180	0.378162
C20	C	0.802213	-0.428473	0.328031
C21	C	0.720232	-0.428476	0.328036
C22	C	0.679208	-0.378191	0.378177
C23	C	0.720168	-0.327893	0.428311
C24	C	0.802147	-0.327886	0.428301
C25	C	0.549298	-0.327913	0.428328
C26	C	0.467313	-0.327920	0.428339
C27	C	0.467383	-0.428503	0.328063
C28	C	0.549362	-0.428496	0.328054
C29	C	0.590317	-0.378199	0.378189
C30	C	1.134404	-0.582931	0.378114
C31	C	1.134421	-0.670181	0.378089
C32	C	1.084256	-0.711176	0.327871
C33	C	1.084269	-0.793157	0.327853
C34	C	1.134451	-0.834141	0.378050
C35	C	1.184619	-0.793140	0.428272
C36	C	1.184601	-0.711161	0.428294
C37	C	1.184653	-0.964010	0.428223
C38	C	1.184671	-1.045995	0.428201
C39	C	1.084320	-1.046006	0.327783
C40	C	1.084303	-0.964027	0.327804
C41	C	1.134471	-0.923032	0.378026
C42	C	1.339109	-0.378205	0.378198
C43	C	1.426359	-0.378213	0.378208
C44	C	1.134284	-0.378164	0.582123
C45	C	1.134321	-0.378180	0.669373
C46	C	1.134371	-0.174239	0.378179
C47	C	1.134506	-0.086990	0.377984
C48	C	1.184567	-0.328035	0.710358
C49	C	1.184604	-0.328058	0.792338
C50	C	1.134389	-0.378224	0.833332
C51	C	1.084141	-0.428375	0.792342
C52	C	1.084109	-0.428355	0.710363
C53	C	1.084209	-0.428412	0.963212
C54	C	1.084240	-0.428431	1.045197
C55	C	1.184704	-0.328115	1.045187
C56	C	1.184672	-0.328095	0.963208
C57	C	1.134422	-0.378245	0.922223
C58	C	1.134461	-0.378237	1.173431
C59	C	1.134486	-0.378285	1.086181
H60	H	0.835609	-0.469423	0.287202
H61	H	0.686760	-0.286946	0.469133
H62	H	0.582641	-0.286953	0.469152
Cl63	Cl	0.600935	-0.491719	0.265025
Cl64	Cl	0.415898	-0.491731	0.265035
H65	H	1.043194	-0.469190	0.676994
Cl66	Cl	0.415741	-0.264722	0.491393
Cl67	Cl	1.247701	-0.844663	0.491382
H68	H	0.835491	-0.286932	0.469123
Cl69	Cl	1.021018	-0.491446	0.843878
H70	H	1.043416	-0.826531	0.286964
H71	H	1.043443	-0.930660	0.286926
Cl72	Cl	1.247868	-0.265061	1.096710
Cl73	Cl	1.247776	-0.265017	0.843858
H74	H	1.043472	-1.079388	0.286889
Cl75	Cl	1.021169	-0.659661	0.264760
Cl76	Cl	1.247764	-1.097517	0.491301
H77	H	1.225512	-0.930634	0.469113
H78	H	0.686891	-0.469431	0.287215
Cl79	Cl	1.247666	-0.659624	0.491430
Cl80	Cl	1.247693	-0.264960	0.658830
H81	H	1.225557	-0.287242	0.929831
H82	H	1.043365	-0.469295	1.078572
H83	H	1.043293	-0.469253	0.929845
