data_functionalizedCrystal
_audit_creation_method	'MofGen! by Chris Wilmer'
_symmetry_space_group_name_H-M	'P1'
_symmetry_Int_Tables_number	1
_symmetry_cell_setting	triclinic
loop_
_symmetry_equiv_pos_as_xyz
  x,y,z
_cell_length_a	21.395362
_cell_length_b	21.395361
_cell_length_c	21.395356
_cell_angle_alpha	90.031183
_cell_angle_beta	90.035878
_cell_angle_gamma	90.046585
loop_
_atom_site_label
_atom_site_type_symbol
_atom_site_fract_x
_atom_site_fract_y
_atom_site_fract_z
Zn1	Zn	0.957810	-0.249186	0.354573
Zn2	Zn	1.457810	0.250814	0.854573
Zn3	Zn	0.957727	-0.353963	0.249790
Zn4	Zn	1.457727	0.146037	0.749790
Zn5	Zn	0.853039	-0.249233	0.249774
Zn6	Zn	1.353039	0.250767	0.749774
Zn7	Zn	0.852994	-0.353959	0.354494
Zn8	Zn	1.352994	0.146041	0.854494
O9	O	0.905392	-0.301585	0.302158
O10	O	1.405392	0.198415	0.802158
O11	O	1.045477	-0.263067	0.340712
O12	O	1.545477	0.236933	0.840712
O13	O	0.943824	-0.340092	0.162110
O14	O	1.443824	0.159908	0.662110
O15	O	0.866991	-0.161548	0.263702
O16	O	1.366991	0.338452	0.763702
O17	O	1.045416	-0.340047	0.263729
O18	O	1.545416	0.159953	0.763729
O19	O	0.943965	-0.161514	0.340697
O20	O	1.443965	0.338486	0.840697
O21	O	0.866911	-0.263147	0.162098
O22	O	1.366911	0.236853	0.662098
O23	O	0.765355	-0.263142	0.263626
O24	O	1.265355	0.236858	0.763626
O25	O	0.866913	-0.340039	0.442183
O26	O	1.366913	0.159961	0.942183
O27	O	0.765322	-0.340084	0.340564
O28	O	1.265322	0.159916	0.840564
O29	O	0.943921	-0.263062	0.442240
O30	O	1.443921	0.236938	0.942240
O31	O	0.943780	-0.441641	0.263653
O32	O	1.443780	0.058359	0.763653
O33	O	0.866833	-0.441637	0.340579
O34	O	1.366833	0.058363	0.840579
C35	C	0.742605	-0.301618	0.302085
C36	C	1.242605	0.198382	0.802085
C37	C	0.672963	-0.301647	0.302069
C38	C	1.172963	0.198353	0.802069
C39	C	0.640249	-0.341764	0.342070
C40	C	1.140249	0.158236	0.842070
C41	C	0.574814	-0.341749	0.342098
C42	C	1.074814	0.158251	0.842098
C43	C	0.542095	-0.301623	0.302113
C44	C	1.042095	0.198377	0.802113
C45	C	0.574817	-0.261499	0.262109
C46	C	1.074817	0.238501	0.762109
C47	C	0.640251	-0.261511	0.262087
C48	C	1.140251	0.238489	0.762087
C49	C	0.438378	-0.296585	0.245708
C50	C	0.938378	0.203415	0.745708
C51	C	0.372945	-0.296578	0.245730
C52	C	0.872945	0.203422	0.745730
C53	C	0.340274	-0.301582	0.302182
C54	C	0.840274	0.198418	0.802182
C55	C	0.373045	-0.306608	0.358616
C56	C	0.873045	0.193392	0.858616
C57	C	0.438479	-0.306620	0.358594
C58	C	0.938479	0.193380	0.858594
C59	C	0.471143	-0.301605	0.302133
C60	C	0.971143	0.198395	0.802133
C61	C	0.236608	-0.341685	0.342218
C62	C	0.736608	0.158315	0.842218
C63	C	0.171171	-0.341665	0.342247
C64	C	0.671171	0.158335	0.842247
C65	C	0.171176	-0.261418	0.262252
C66	C	0.671176	0.238582	0.762252
C67	C	0.236611	-0.261435	0.262229
C68	C	0.736611	0.238565	0.762229
C69	C	0.269323	-0.301571	0.302211
C70	C	0.769323	0.198429	0.802211
C71	C	0.905310	-0.464373	0.302123
C72	C	1.405310	0.035627	0.802123
C73	C	0.905332	-0.534014	0.302129
C74	C	1.405332	-0.034014	0.802129
C75	C	0.945433	-0.566708	0.262114
C76	C	1.445433	-0.066708	0.762114
C77	C	0.945463	-0.632143	0.262128
C78	C	1.445463	-0.132143	0.762128
C79	C	0.905379	-0.664882	0.302150
C80	C	1.405379	-0.164882	0.802150
C81	C	0.865274	-0.632180	0.342172
C82	C	1.365274	-0.132180	0.842172
C83	C	0.865251	-0.566746	0.342162
C84	C	1.365251	-0.066746	0.842162
C85	C	0.848963	-0.768612	0.307041
C86	C	1.348963	-0.268612	0.807041
C87	C	0.848986	-0.834045	0.307047
C88	C	1.348986	-0.334045	0.807047
C89	C	0.905452	-0.866703	0.302187
C90	C	1.405452	-0.366703	0.802187
C91	C	0.961897	-0.833920	0.297307
C92	C	1.461897	-0.333920	0.797307
C93	C	0.961873	-0.768486	0.297296
C94	C	1.461873	-0.268486	0.797296
C95	C	0.905400	-0.735835	0.302167
C96	C	1.405400	-0.235835	0.802167
C97	C	0.945588	-0.970350	0.262186
C98	C	1.445588	-0.470350	0.762186
C99	C	0.945619	-1.035786	0.262204
C100	C	1.445619	-0.535786	0.762204
C101	C	0.865425	-1.035822	0.342245
C102	C	1.365425	-0.535822	0.842245
C103	C	0.865400	-0.970386	0.342230
C104	C	1.365400	-0.470386	0.842230
C105	C	0.905481	-0.937654	0.302197
C106	C	1.405481	-0.437654	0.802197
C107	C	1.068816	-0.301552	0.302231
C108	C	1.568816	0.198448	0.802231
C109	C	1.138457	-0.301538	0.302262
C110	C	1.638457	0.198462	0.802262
C111	C	0.905421	-0.301545	0.465581
C112	C	1.405421	0.198455	0.965581
C113	C	0.905434	-0.301528	0.535222
C114	C	1.405434	0.198472	1.035222
C115	C	0.905493	-0.138162	0.302206
C116	C	1.405493	0.361838	0.802206
C117	C	0.905535	-0.068520	0.302227
C118	C	1.405535	0.431480	0.802227
C119	C	0.905400	-0.301580	0.139370
C120	C	1.405400	0.198420	0.639370
C121	C	0.905509	-0.301421	0.069729
C122	C	1.405509	0.198579	0.569729
C123	C	0.945591	-0.261346	1.037050
C124	C	1.445591	0.238654	1.537050
C125	C	0.945586	-0.261361	0.971614
C126	C	1.445586	0.238639	1.471614
C127	C	0.905488	-0.301444	0.938861
C128	C	1.405488	0.198556	1.438861
C129	C	0.865403	-0.341526	0.971548
C130	C	1.365403	0.158474	1.471548
C131	C	0.865413	-0.341514	1.036982
C132	C	1.365413	0.158486	1.536982
C133	C	0.849019	-0.306422	0.835165
C134	C	1.349019	0.193578	1.335165
C135	C	0.849007	-0.306429	0.769732
C136	C	1.349007	0.193571	1.269732
C137	C	0.905455	-0.301484	0.737040
C138	C	1.405455	0.198516	1.237040
C139	C	0.961917	-0.296519	0.769788
C140	C	1.461917	0.203481	1.269788
C141	C	0.961928	-0.296507	0.835223
C142	C	1.461928	0.203493	1.335223
C143	C	0.905472	-0.301462	0.867908
C144	C	1.405472	0.198538	1.367908
C145	C	0.945536	-0.261424	0.633408
C146	C	1.445536	0.238576	1.133408
C147	C	0.945532	-0.261444	0.567971
C148	C	1.445532	0.238556	1.067971
C149	C	0.865343	-0.341605	0.567906
C150	C	1.365343	0.158395	1.067906
C151	C	0.865352	-0.341589	0.633342
C152	C	1.365352	0.158411	1.133342
C153	C	0.905448	-0.301495	0.666089
C154	C	1.405448	0.198505	1.166089
H155	H	0.144536	-0.374331	0.374824
H156	H	0.644536	0.125669	0.874824
H157	H	0.832697	-0.374244	0.541239
H158	H	1.332697	0.125756	1.041239
Br159	Br	0.772383	-0.878530	0.313666
Br160	Br	1.272383	-0.378530	0.813666
Br161	Br	0.281012	-0.206988	0.207938
Br162	Br	0.781012	0.293012	0.707938
H163	H	1.007877	-0.860508	0.293349
H164	H	1.507877	-0.360508	0.793349
Br165	Br	0.530415	-0.207037	0.207849
Br166	Br	1.030415	0.292963	0.707849
H167	H	0.978183	-0.228777	0.660072
H168	H	1.478183	0.271223	1.160072
Br169	Br	1.038551	-0.289777	0.879666
Br170	Br	1.538551	0.210223	1.379666
Br171	Br	1.038473	-0.723995	0.290678
Br172	Br	1.538473	-0.223995	0.790678
H173	H	0.978071	-0.540059	0.229519
H174	H	1.478071	-0.040059	0.729519
Br175	Br	0.482711	-0.289793	0.169087
Br176	Br	0.982711	0.210207	0.669087
Br177	Br	0.126779	-0.206955	0.207992
Br178	Br	0.626779	0.293045	0.707992
H179	H	0.978227	-0.943698	0.229590
H180	H	1.478227	-0.443698	0.729590
Br181	Br	0.810987	-0.395929	0.927099
Br182	Br	1.310987	0.104071	1.427099
H183	H	0.978278	-1.062405	0.229621
H184	H	1.478278	-0.562405	0.729621
H185	H	0.346269	-0.292489	0.199778
H186	H	0.846269	0.207511	0.699778
Br187	Br	0.530406	-0.396195	0.396391
Br188	Br	1.030406	0.103805	0.896391
H189	H	0.465157	-0.310710	0.404543
H190	H	0.965157	0.189290	0.904543
H191	H	0.666887	-0.228841	0.229513
H192	H	1.166887	0.271159	0.729513
Br193	Br	0.999890	-0.676524	0.207819
Br194	Br	1.499890	-0.176524	0.707819
H195	H	0.832790	-1.062477	0.374834
H196	H	1.332790	-0.562477	0.874834
Br197	Br	0.810972	-0.926012	0.396537
Br198	Br	1.310972	-0.426012	0.896537
Br199	Br	0.810952	-0.395979	0.677696
Br200	Br	1.310952	0.104021	1.177696
Br201	Br	0.772381	-0.313159	0.725294
Br202	Br	1.272381	0.186841	1.225294
Br203	Br	0.772324	-0.724298	0.313640
Br204	Br	1.272324	-0.224298	0.813640
H205	H	0.978225	-0.228726	0.945001
H206	H	1.478225	0.271274	1.445001
H207	H	1.007883	-0.292490	0.743172
H208	H	1.507883	0.207510	1.243172
Br209	Br	0.810879	-0.676609	0.396493
Br210	Br	1.310879	-0.176609	0.896493
H211	H	0.803048	-0.310449	0.861778
H212	H	1.303048	0.189551	1.361778
Br213	Br	0.328714	-0.313399	0.435237
Br214	Br	0.828714	0.186601	0.935237
Br215	Br	0.999939	-0.207058	0.523619
Br216	Br	1.499939	0.292942	1.023619
Br217	Br	0.281007	-0.396151	0.396480
Br218	Br	0.781007	0.103849	0.896480
H219	H	0.832594	-0.540126	0.374747
H220	H	1.332594	-0.040126	0.874747
Br221	Br	1.000032	-0.206960	1.081489
Br222	Br	1.500032	0.293040	1.581489
H223	H	0.666879	-0.374445	0.374627
H224	H	1.166879	0.125555	0.874627
Br225	Br	0.811013	-0.395907	1.081337
Br226	Br	1.311013	0.104093	1.581337
