data_functionalizedCrystal
_audit_creation_method	'MofGen! by Chris Wilmer'
_symmetry_space_group_name_H-M	'P1'
_symmetry_Int_Tables_number	1
_symmetry_cell_setting	triclinic
loop_
_symmetry_equiv_pos_as_xyz
  x,y,z
_cell_length_a	17.077404
_cell_length_b	17.077402
_cell_length_c	17.077396
_cell_angle_alpha	90.026173
_cell_angle_beta	90.019501
_cell_angle_gamma	90.024621
loop_
_atom_site_label
_atom_site_type_symbol
_atom_site_fract_x
_atom_site_fract_y
_atom_site_fract_z
Zn1	Zn	1.200046	-0.312503	0.443855
Zn2	Zn	1.700046	0.187497	0.943855
Zn3	Zn	1.199950	-0.443778	0.312595
Zn4	Zn	1.699950	0.056222	0.812595
Zn5	Zn	1.068778	-0.312531	0.312603
Zn6	Zn	1.568778	0.187469	0.812603
Zn7	Zn	1.068743	-0.443732	0.443818
Zn8	Zn	1.568743	0.056268	0.943818
O9	O	1.134379	-0.378136	0.378218
O10	O	1.634379	0.121864	0.878218
O11	O	1.309881	-0.329925	0.426455
O12	O	1.809881	0.170075	0.926455
O13	O	1.182524	-0.426399	0.202749
O14	O	1.682524	0.073601	0.702749
O15	O	1.086246	-0.202680	0.330033
O16	O	1.586246	0.297320	0.830033
O17	O	1.309810	-0.426372	0.330019
O18	O	1.809810	0.073628	0.830019
O19	O	1.182689	-0.202660	0.426464
O20	O	1.682689	0.297340	0.926464
O21	O	1.086153	-0.329972	0.202755
O22	O	1.586153	0.170028	0.702755
O23	O	0.958927	-0.329927	0.329997
O24	O	1.458927	0.170073	0.829997
O25	O	1.086186	-0.426293	0.553670
O26	O	1.586186	0.073707	1.053670
O27	O	0.958901	-0.426320	0.426400
O28	O	1.458901	0.073680	0.926400
O29	O	1.182654	-0.329880	0.553697
O30	O	1.682654	0.170120	1.053697
O31	O	1.182490	-0.553619	0.329982
O32	O	1.682490	-0.053619	0.829982
O33	O	1.086092	-0.553585	0.426392
O34	O	1.586092	-0.053585	0.926392
C35	C	0.930431	-0.378122	0.378196
C36	C	1.430431	0.121878	0.878196
C37	C	0.843182	-0.378135	0.378206
C38	C	1.343182	0.121865	0.878206
C39	C	0.802198	-0.428402	0.428322
C40	C	1.302198	0.071598	0.928322
C41	C	0.720218	-0.428404	0.428335
C42	C	1.220218	0.071596	0.928335
C43	C	0.679222	-0.378141	0.378226
C44	C	1.179222	0.121859	0.878226
C45	C	0.720211	-0.327869	0.328107
C46	C	1.220211	0.172131	0.828107
C47	C	0.802190	-0.327863	0.328099
C48	C	1.302190	0.172137	0.828099
C49	C	0.549341	-0.327884	0.328126
C50	C	1.049341	0.172116	0.828126
C51	C	0.467357	-0.327890	0.328133
C52	C	0.967357	0.172110	0.828133
C53	C	0.467369	-0.428424	0.428362
C54	C	0.967369	0.071576	0.928362
C55	C	0.549348	-0.428419	0.428353
C56	C	1.049348	0.071581	0.928353
C57	C	0.590331	-0.378147	0.378233
C58	C	1.090331	0.121853	0.878233
C59	C	1.134298	-0.582084	0.378199
C60	C	1.634298	-0.082084	0.878199
C61	C	1.134335	-0.669334	0.378218
C62	C	1.634335	-0.169334	0.878218
C63	C	1.184735	-1.045140	0.328109
C64	C	1.684735	-0.545140	0.828109
C65	C	1.184695	-0.963159	0.328095
C66	C	1.684695	-0.463159	0.828095
C67	C	1.134449	-0.922183	0.378245
C68	C	1.634449	-0.422183	0.878245
C69	C	1.084234	-0.963191	0.428408
C70	C	1.584234	-0.463191	0.928408
C71	C	1.084271	-1.045169	0.428417
C72	C	1.584271	-0.545169	0.928417
C73	C	1.084162	-0.792321	0.428386
C74	C	1.584162	-0.292321	0.928386
C75	C	1.084126	-0.710336	0.428378
C76	C	1.584126	-0.210336	0.928378
C77	C	1.184586	-0.710310	0.328063
C78	C	1.684586	-0.210310	0.828063
C79	C	1.184623	-0.792289	0.328073
C80	C	1.684623	-0.292289	0.828073
C81	C	1.134409	-0.833292	0.378236
C82	C	1.634409	-0.333292	0.878236
C83	C	1.339124	-0.378151	0.378240
C84	C	1.839124	0.121849	0.878240
C85	C	1.426373	-0.378157	0.378249
C86	C	1.926373	0.121843	0.878249
C87	C	1.134427	-0.378078	0.582962
C88	C	1.634427	0.121922	1.082962
C89	C	1.134447	-0.378054	0.670212
C90	C	1.634447	0.121946	1.170212
C91	C	1.134482	-0.173392	0.378254
C92	C	1.634482	0.326608	0.878254
C93	C	1.134526	-0.086142	0.378269
C94	C	1.634526	0.413858	0.878269
C95	C	1.134377	-0.378137	0.174270
C96	C	1.634377	0.121863	0.674270
C97	C	1.134509	-0.377941	0.087021
C98	C	1.634509	0.122059	0.587021
C99	C	1.184680	-0.327847	0.711218
C100	C	1.684680	0.172153	1.211218
C101	C	1.184689	-0.327821	0.793198
C102	C	1.684689	0.172179	1.293198
C103	C	1.134469	-0.378006	0.834172
C104	C	1.634469	0.121994	1.334172
C105	C	1.084231	-0.428214	0.793160
C106	C	1.584231	0.071786	1.293160
C107	C	1.084218	-0.428236	0.711181
C108	C	1.584218	0.071764	1.211181
C109	C	1.084263	-0.428167	0.964030
C110	C	1.584263	0.071833	1.464030
C111	C	1.084276	-0.428147	1.046015
C112	C	1.584276	0.071853	1.546015
C113	C	1.184734	-0.327752	1.046047
C114	C	1.684734	0.172248	1.546047
C115	C	1.184721	-0.327774	0.964068
C116	C	1.684721	0.172226	1.464068
C117	C	1.134483	-0.377984	0.923063
C118	C	1.634483	0.122016	1.423063
H119	H	0.835571	-0.469334	0.469124
H120	H	1.335571	0.030666	0.969124
H121	H	0.433997	-0.469355	0.469173
H122	H	0.933997	0.030645	0.969173
F123	F	1.238181	-0.274412	0.836836
F124	F	1.738181	0.225588	1.336836
F125	F	1.030820	-0.481553	1.089620
F126	F	1.530820	0.018447	1.589620
F127	F	0.676604	-0.481905	0.481676
F128	F	1.176604	0.018095	0.981676
F129	F	1.030757	-0.919578	0.481781
F130	F	1.530757	-0.419578	0.981781
H131	H	0.835558	-0.286927	0.287293
H132	H	1.335558	0.213073	0.787293
H133	H	0.582725	-0.469352	0.469152
H134	H	1.082725	0.030648	0.969152
F135	F	1.238175	-0.274366	0.920463
F136	F	1.738175	0.225634	1.420463
H137	H	1.043342	-0.469041	0.930646
H138	H	1.543342	0.030959	1.430646
F139	F	1.030827	-1.088807	0.481801
F140	F	1.530827	-0.588807	0.981801
H141	H	0.686826	-0.286941	0.287311
H142	H	1.186826	0.213059	0.787311
H143	H	0.433980	-0.286953	0.287340
H144	H	0.933980	0.213047	0.787340
F145	F	1.238201	-0.274316	1.089689
F146	F	1.738201	0.225684	1.589689
F147	F	1.030713	-0.835956	0.481771
F148	F	1.530713	-0.335956	0.981771
H149	H	1.225542	-0.825650	0.287239
H150	H	1.725542	-0.325650	0.787239
F151	F	0.592957	-0.274377	0.274783
F152	F	1.092957	0.225623	0.774783
F153	F	1.238219	-1.088743	0.274734
F154	F	1.738219	-0.588743	0.774734
F155	F	1.238141	-0.919525	0.274714
F156	F	1.738141	-0.419525	0.774714
F157	F	1.030780	-0.481622	0.836769
F158	F	1.530780	0.018378	1.336769
H159	H	1.225472	-0.676922	0.287219
H160	H	1.725472	-0.176922	0.787219
H161	H	1.225577	-0.286983	0.677863
H162	H	1.725577	0.213017	1.177863
H163	H	1.043305	-0.469111	0.677795
H164	H	1.543305	0.030889	1.177795
H165	H	1.043209	-0.676977	0.469215
H166	H	1.543209	-0.176977	0.969215
