data_functionalizedCrystal
_audit_creation_method	'MofGen! by Chris Wilmer'
_symmetry_space_group_name_H-M	'P1'
_symmetry_Int_Tables_number	1
_symmetry_cell_setting	triclinic
loop_
_symmetry_equiv_pos_as_xyz
  x,y,z
_cell_length_a	17.077402
_cell_length_b	17.077404
_cell_length_c	17.077396
_cell_angle_alpha	89.976781
_cell_angle_beta	90.029038
_cell_angle_gamma	89.978358
loop_
_atom_site_label
_atom_site_type_symbol
_atom_site_fract_x
_atom_site_fract_y
_atom_site_fract_z
Zn1	Zn	-0.312583	-1.200042	0.443918
Zn2	Zn	-0.443858	-1.199944	0.312650
Zn3	Zn	-0.312602	-1.068774	0.312657
Zn4	Zn	-0.443803	-1.068736	0.443865
O5	O	-0.378212	-1.134374	0.378272
O6	O	-0.330012	-1.309876	0.426524
O7	O	-0.426478	-1.182518	0.202804
O8	O	-0.202753	-1.086243	0.330094
O9	O	-0.426459	-1.309804	0.330082
O10	O	-0.202739	-1.182686	0.426530
O11	O	-0.330044	-1.086148	0.202809
O12	O	-0.329991	-0.958922	0.330043
O13	O	-0.426365	-1.086180	0.553719
O14	O	-0.426383	-0.958894	0.426441
O15	O	-0.329959	-1.182649	0.553758
O16	O	-0.553698	-1.182482	0.330032
O17	O	-0.553657	-1.086084	0.426435
C18	C	-0.378184	-0.930426	0.378238
C19	C	-0.378191	-0.843176	0.378241
C20	C	-0.328082	-0.467396	0.428578
C21	C	-0.328079	-0.549377	0.428572
C22	C	-0.378211	-0.590327	0.378275
C23	C	-0.428354	-0.549293	0.327988
C24	C	-0.428361	-0.467314	0.327998
C25	C	-0.428336	-0.720163	0.327968
C26	C	-0.428329	-0.802148	0.327956
C27	C	-0.328054	-0.802226	0.428541
C28	C	-0.328061	-0.720247	0.428552
C29	C	-0.378204	-0.679218	0.378263
C30	C	-0.582159	-1.134290	0.378244
C31	C	-0.669409	-1.134326	0.378258
C32	C	-1.045153	-1.184677	0.428579
C33	C	-0.963172	-1.184642	0.428560
C34	C	-0.922258	-1.134450	0.378304
C35	C	-0.963329	-1.084295	0.328058
C36	C	-1.045307	-1.084335	0.328073
C37	C	-0.792459	-1.084214	0.328032
C38	C	-0.710474	-1.084173	0.328017
C39	C	-0.710323	-1.184521	0.428518
C40	C	-0.792302	-1.184561	0.428533
C41	C	-0.833367	-1.134405	0.378288
C42	C	-0.173467	-1.134480	0.378318
C43	C	-0.086217	-1.134525	0.378338
C44	C	-0.378154	-1.134421	0.583017
C45	C	-0.378129	-1.134442	0.670267
C46	C	-0.378232	-0.339118	0.378300
C47	C	-0.378220	-0.426368	0.378292
C48	C	-0.378212	-1.134372	0.174325
C49	C	-0.378016	-1.134504	0.087075
C50	C	-0.327926	-1.184675	0.711278
C51	C	-0.327900	-1.184685	0.793259
C52	C	-0.378081	-1.134464	0.834226
C53	C	-0.428287	-1.084225	0.793209
C54	C	-0.428308	-1.084212	0.711230
C55	C	-0.428239	-1.084256	0.964079
C56	C	-0.428219	-1.084270	1.046064
C57	C	-0.327831	-1.184729	1.046108
C58	C	-0.327853	-1.184716	0.964129
C59	C	-0.378059	-1.134478	0.923117
H60	H	-0.287225	-0.835635	0.469487
H61	H	-0.287065	-1.225573	0.677928
C62	C	-0.918320	-1.029082	0.272777
N63	N	-0.884420	-0.987491	0.231141
C64	C	-0.483496	-0.594341	0.272658
N65	N	-0.525027	-0.628271	0.230979
H66	H	-1.078741	-1.043495	0.287162
C67	C	-0.272674	-1.239947	0.838367
N68	N	-0.231075	-1.281573	0.872343
H69	H	-0.825891	-1.043373	0.287115
H70	H	-0.676884	-1.225360	0.469429
H71	H	-0.469171	-0.686760	0.287020
C72	C	-0.665470	-1.028980	0.272712
N73	N	-0.631573	-0.987415	0.231049
H74	H	-0.469181	-1.043299	0.677840
H75	H	-0.469079	-1.043374	1.079418
H76	H	-0.287236	-0.686907	0.469504
H77	H	-0.825612	-1.225430	0.469458
C78	C	-0.272933	-0.422359	0.483909
N79	N	-0.231395	-0.388438	0.525589
H80	H	-0.469190	-0.433910	0.287052
H81	H	-0.469153	-0.835487	0.287002
H82	H	-0.286995	-1.225615	0.930775
H83	H	-0.287254	-0.582779	0.469522
C84	C	-0.483472	-1.028994	0.918969
N85	N	-0.525077	-0.987375	0.884991
C86	C	-1.090151	-1.239895	0.483864
N87	N	-1.124041	-1.281490	0.525504
H88	H	-0.286950	-1.225634	1.079503
H89	H	-0.929738	-1.225481	0.469469
H90	H	-0.469142	-1.043331	0.826571
