data_functionalizedCrystal
_audit_creation_method	'MofGen! by Chris Wilmer'
_symmetry_space_group_name_H-M	'P1'
_symmetry_Int_Tables_number	1
_symmetry_cell_setting	triclinic
loop_
_symmetry_equiv_pos_as_xyz
  x,y,z
_cell_length_a	17.077402
_cell_length_b	17.077404
_cell_length_c	17.077396
_cell_angle_alpha	89.982480
_cell_angle_beta	89.971638
_cell_angle_gamma	90.018878
loop_
_atom_site_label
_atom_site_type_symbol
_atom_site_fract_x
_atom_site_fract_y
_atom_site_fract_z
Zn1	Zn	-0.312598	1.200034	-0.443854
Zn2	Zn	0.187402	1.700034	0.056146
Zn3	Zn	-0.443875	1.199945	-0.312590
Zn4	Zn	0.056125	1.699945	0.187410
Zn5	Zn	-0.312617	1.068771	-0.312601
Zn6	Zn	0.187383	1.568771	0.187399
Zn7	Zn	-0.443815	1.068732	-0.443813
Zn8	Zn	0.056185	1.568732	0.056187
O9	O	-0.378226	1.134370	-0.378214
O10	O	0.121774	1.634370	0.121786
O11	O	-0.330030	1.309869	-0.426454
O12	O	0.169970	1.809869	0.073546
O13	O	-0.426496	1.182523	-0.202744
O14	O	0.073504	1.682523	0.297256
O15	O	-0.202767	1.086237	-0.330034
O16	O	0.297233	1.586237	0.169966
O17	O	-0.426478	1.309803	-0.330015
O18	O	0.073522	1.809803	0.169985
O19	O	-0.202754	1.182675	-0.426464
O20	O	0.297246	1.682675	0.073536
O21	O	-0.330061	1.086150	-0.202753
O22	O	0.169939	1.586150	0.297247
O23	O	-0.330003	0.958919	-0.329994
O24	O	0.169997	1.458919	0.170006
O25	O	-0.426377	1.086171	-0.553665
O26	O	0.073623	1.586171	-0.053665
O27	O	-0.426394	0.958890	-0.426395
O28	O	0.073606	1.458890	0.073605
O29	O	-0.329972	1.182638	-0.553695
O30	O	0.170028	1.682638	-0.053695
O31	O	-0.553714	1.182486	-0.329975
O32	O	-0.053714	1.682486	0.170025
O33	O	-0.553670	1.086084	-0.426384
O34	O	-0.053670	1.586084	0.073616
C35	C	-0.378195	0.930423	-0.378192
C36	C	0.121805	1.430423	0.121808
C37	C	-0.378200	0.843173	-0.378201
C38	C	0.121800	1.343173	0.121799
C39	C	-0.428530	0.467364	-0.428354
C40	C	0.071470	0.967364	0.071646
C41	C	-0.428519	0.549345	-0.428342
C42	C	0.071481	1.049345	0.071658
C43	C	-0.378247	0.590324	-0.378227
C44	C	0.121753	1.090324	0.121773
C45	C	-0.327988	0.549318	-0.328115
C46	C	0.172012	1.049318	0.171885
C47	C	-0.328002	0.467339	-0.328123
C48	C	0.171998	0.967339	0.171877
C49	C	-0.327959	0.720188	-0.328102
C50	C	0.172041	1.220188	0.171898
C51	C	-0.327943	0.802173	-0.328094
C52	C	0.172057	1.302173	0.171906
C53	C	-0.428476	0.802194	-0.428320
C54	C	0.071524	1.302194	0.071680
C55	C	-0.428491	0.720215	-0.428329
C56	C	0.071509	1.220215	0.071671
C57	C	-0.378230	0.679215	-0.378218
C58	C	0.121770	1.179215	0.121782
C59	C	-0.582174	1.134292	-0.378191
C60	C	-0.082174	1.634292	0.121809
C61	C	-0.669424	1.134331	-0.378207
C62	C	-0.169424	1.634331	0.121793
C63	C	-0.710340	1.184519	-0.428459
C64	C	-0.210340	1.684519	0.071541
C65	C	-0.792320	1.184552	-0.428476
C66	C	-0.292320	1.684552	0.071524
C67	C	-0.833383	1.134400	-0.378236
C68	C	-0.333383	1.634400	0.121764
C69	C	-0.792462	1.084207	-0.327982
C70	C	-0.292462	1.584207	0.172018
C71	C	-0.710483	1.084170	-0.327970
C72	C	-0.210483	1.584170	0.172030
C73	C	-0.963332	1.084287	-0.328009
C74	C	-0.463332	1.584287	0.171991
C75	C	-1.045317	1.084324	-0.328020
C76	C	-0.545317	1.584324	0.171980
C77	C	-1.045169	1.184669	-0.428515
C78	C	-0.545169	1.684669	0.071485
C79	C	-0.963190	1.184633	-0.428503
C80	C	-0.463190	1.684633	0.071497
C81	C	-0.922274	1.134440	-0.378248
C82	C	-0.422274	1.634440	0.121752
C83	C	-0.173482	1.134470	-0.378255
C84	C	0.326518	1.634470	0.121745
C85	C	-0.086232	1.134512	-0.378272
C86	C	0.413768	1.634512	0.121728
C87	C	-0.378166	1.134410	-0.582959
C88	C	0.121834	1.634410	-0.082959
C89	C	-0.378140	1.134427	-0.670209
C90	C	0.121860	1.634427	-0.170209
C91	C	-0.378259	1.339115	-0.378237
C92	C	0.121741	1.839115	0.121763
C93	C	-0.378272	1.426364	-0.378247
C94	C	0.121728	1.926364	0.121753
C95	C	-0.327920	1.084261	-0.711202
C96	C	0.172080	1.584261	-0.211202
C97	C	-0.327902	1.084273	-0.793183
C98	C	0.172098	1.584273	-0.293183
C99	C	-0.378101	1.134457	-0.834168
C100	C	0.121899	1.634457	-0.334168
C101	C	-0.428326	1.184625	-0.793168
C102	C	0.071674	1.684625	-0.293168
C103	C	-0.428347	1.184608	-0.711189
C104	C	0.071653	1.684608	-0.211189
C105	C	-0.428277	1.184659	-0.964039
C106	C	0.071723	1.684659	-0.464039
C107	C	-0.428255	1.184678	-1.046023
C108	C	0.071745	1.684678	-0.546023
C109	C	-0.327832	1.084325	-1.046032
C110	C	0.172168	1.584325	-0.546032
C111	C	-0.327853	1.084307	-0.964053
C112	C	0.172147	1.584307	-0.464053
C113	C	-0.378078	1.134477	-0.923059
C114	C	0.121922	1.634477	-0.423059
C115	C	-0.378230	1.134376	-0.174266
C116	C	0.121770	1.634376	0.325734
C117	C	-0.378035	1.134512	-0.087017
C118	C	0.121965	1.634512	0.412983
H119	H	-0.469446	0.582723	-0.469142
H120	H	0.030554	1.082723	0.030858
O121	O	-0.273730	0.846376	-0.274036
O122	O	0.226270	1.346376	0.225964
H123	H	-0.212140	0.830653	-0.287597
H124	H	0.287860	1.330653	0.212403
O125	O	-0.273759	0.675952	-0.274055
O126	O	0.226241	1.175952	0.225945
H127	H	-0.212162	0.691687	-0.287628
H128	H	0.287838	1.191687	0.212372
H129	H	-0.469131	1.225541	-1.079391
H130	H	0.030869	1.725541	-0.579391
O131	O	-0.273770	0.593513	-0.274054
O132	O	0.226230	1.093513	0.225946
H133	H	-0.212182	0.577787	-0.287621
H134	H	0.287818	1.077787	0.212379
H135	H	-0.286974	1.043447	-0.930685
H136	H	0.213026	1.543447	-0.430685
H137	H	-0.287011	1.043420	-0.826556
H138	H	0.212989	1.543420	-0.326556
H139	H	-0.825630	1.225426	-0.469390
H140	H	-0.325630	1.725426	0.030610
O141	O	-0.482514	1.238718	-0.666975
O142	O	0.017486	1.738718	-0.166975
H143	H	-0.474102	1.230270	-0.603085
H144	H	0.025898	1.730270	-0.103085
H145	H	-1.078748	1.043483	-0.287114
H146	H	-0.578748	1.543483	0.212886
H147	H	-0.286936	1.043476	-1.079413
H148	H	0.213064	1.543476	-0.579413
H149	H	-0.469398	0.835580	-0.469125
H150	H	0.030602	1.335580	0.030875
H151	H	-1.078486	1.225537	-0.469436
H152	H	-0.578486	1.725537	0.030564
H153	H	-0.287076	0.433958	-0.287324
H154	H	0.212924	0.933958	0.212676
H155	H	-0.469168	1.225519	-0.930664
H156	H	0.030832	1.725519	-0.430664
O157	O	-0.666353	1.030038	-0.273766
O158	O	-0.166353	1.530038	0.226234
H159	H	-0.602450	1.038432	-0.282203
H160	H	-0.102450	1.538432	0.217797
H161	H	-0.825902	1.043369	-0.287079
H162	H	-0.325902	1.543369	0.212921
H163	H	-0.676911	1.225362	-0.469367
H164	H	-0.176911	1.725362	0.030633
H165	H	-0.929756	1.225474	-0.469408
H166	H	-0.429756	1.725474	0.030592
H167	H	-0.287038	1.043400	-0.677838
H168	H	0.212962	1.543400	-0.177838
H169	H	-0.469202	1.225481	-0.826545
H170	H	0.030798	1.725481	-0.326545
H171	H	-0.469463	0.434005	-0.469168
H172	H	0.030537	0.934005	0.030832
H173	H	-0.469423	0.686852	-0.469141
H174	H	0.030577	1.186852	0.030859
H175	H	-0.930021	1.043412	-0.287089
H176	H	-0.430021	1.543412	0.212911
