data_functionalizedCrystal
_audit_creation_method	'MofGen! by Chris Wilmer'
_symmetry_space_group_name_H-M	'P1'
_symmetry_Int_Tables_number	1
_symmetry_cell_setting	triclinic
loop_
_symmetry_equiv_pos_as_xyz
  x,y,z
_cell_length_a	17.077404
_cell_length_b	12.759400
_cell_length_c	17.077396
_cell_angle_alpha	90.024468
_cell_angle_beta	90.019501
_cell_angle_gamma	90.013391
loop_
_atom_site_label
_atom_site_type_symbol
_atom_site_fract_x
_atom_site_fract_y
_atom_site_fract_z
Zn1	Zn	1.200108	-0.418260	0.443865
Zn2	Zn	1.700108	0.081740	0.943865
Zn3	Zn	1.200037	-0.593960	0.312608
Zn4	Zn	1.700037	-0.093960	0.812608
Zn5	Zn	1.068839	-0.418297	0.312613
Zn6	Zn	1.568839	0.081703	0.812613
Zn7	Zn	1.068830	-0.593898	0.443831
Zn8	Zn	1.568830	-0.093898	0.943831
O9	O	1.134453	-0.506104	0.378229
O10	O	1.634453	-0.006104	0.878229
O11	O	1.309945	-0.441578	0.426465
O12	O	1.809945	0.058422	0.926465
O13	O	1.182608	-0.570700	0.202761
O14	O	1.682608	-0.070700	0.702761
O15	O	1.086286	-0.271271	0.330039
O16	O	1.586286	0.228729	0.830039
O17	O	1.309893	-0.570664	0.330031
O18	O	1.809893	-0.070664	0.830031
O19	O	1.182728	-0.271244	0.426470
O20	O	1.682728	0.228756	0.926470
O21	O	1.086218	-0.441641	0.202765
O22	O	1.586218	0.058359	0.702765
O23	O	0.958991	-0.441580	0.330007
O24	O	1.458991	0.058420	0.830007
O25	O	1.086269	-0.570558	0.553683
O26	O	1.586269	-0.070558	1.053683
O27	O	0.958984	-0.570594	0.426413
O28	O	1.458984	-0.070594	0.926413
O29	O	1.182719	-0.441517	0.553707
O30	O	1.682719	0.058483	1.053707
O31	O	1.182598	-0.740973	0.329999
O32	O	1.682598	-0.240973	0.829999
O33	O	1.086201	-0.740927	0.426408
O34	O	1.586201	-0.240927	0.926408
C35	C	0.930506	-0.506085	0.378207
C36	C	1.430506	-0.006085	0.878207
C37	C	0.843256	-0.506102	0.378217
C38	C	1.343256	-0.006102	0.878217
C39	C	0.802282	-0.573381	0.428335
C40	C	1.302282	-0.073381	0.928335
C41	C	0.720302	-0.573383	0.428347
C42	C	1.220302	-0.073383	0.928347
C43	C	0.679296	-0.506111	0.378237
C44	C	1.179296	-0.006111	0.878237
C45	C	0.720275	-0.438825	0.328117
C46	C	1.220275	0.061175	0.828117
C47	C	0.802254	-0.438818	0.328109
C48	C	1.302254	0.061182	0.828109
C49	C	0.549405	-0.438846	0.328136
C50	C	1.049405	0.061154	0.828136
C51	C	0.467421	-0.438854	0.328143
C52	C	0.967421	0.061146	0.828143
C53	C	0.467453	-0.573410	0.428374
C54	C	0.967453	-0.073410	0.928374
C55	C	0.549432	-0.573404	0.428366
C56	C	1.049432	-0.073404	0.928366
C57	C	0.590405	-0.506119	0.378245
C58	C	1.090405	-0.006119	0.878245
C59	C	1.134412	-0.779071	0.378217
C60	C	1.634412	-0.279071	0.878217
C61	C	1.134466	-0.895848	0.378238
C62	C	1.634466	-0.395848	0.878238
C63	C	1.184659	-0.950616	0.428490
C64	C	1.684659	-0.450616	0.928490
C65	C	1.184695	-1.060340	0.428509
C66	C	1.684695	-0.560340	0.928509
C67	C	1.084345	-1.060518	0.328017
C68	C	1.584345	-0.560518	0.828017
C69	C	1.084305	-0.950796	0.328002
C70	C	1.584305	-0.450796	0.828002
C71	C	1.242598	-0.950514	0.486506
C72	C	1.742598	-0.450514	0.986506
C73	C	1.242634	-1.060238	0.486525
C74	C	1.742634	-0.560238	0.986525
C75	C	1.339198	-0.506124	0.378251
C76	C	1.839198	-0.006124	0.878251
C77	C	1.426447	-0.506132	0.378261
C78	C	1.926447	-0.006132	0.878261
C79	C	1.134501	-0.506026	0.582973
C80	C	1.634501	-0.006026	1.082973
C81	C	1.134521	-0.505993	0.670223
C82	C	1.634521	-0.005993	1.170223
C83	C	1.134516	-0.232071	0.378259
C84	C	1.634516	0.267929	0.878259
C85	C	1.134543	-0.115294	0.378271
C86	C	1.634543	0.384706	0.878271
C87	C	1.134451	-0.506105	0.174281
C88	C	1.634451	-0.006105	0.674281
C89	C	1.134583	-0.505842	0.087032
C90	C	1.634583	-0.005842	0.587032
C91	C	1.184744	-0.438796	0.711227
C92	C	1.684744	0.061204	1.211227
C93	C	1.184754	-0.438761	0.793208
C94	C	1.684754	0.061239	1.293208
C95	C	1.134543	-0.505930	0.834183
C96	C	1.634543	-0.005930	1.334183
C97	C	1.084315	-0.573130	0.793173
C98	C	1.584315	-0.073130	1.293173
C99	C	1.084302	-0.573158	0.711194
C100	C	1.584302	-0.073158	1.211194
C101	C	1.084347	-0.573066	0.964043
C102	C	1.584347	-0.073066	1.464043
C103	C	1.084360	-0.573039	1.046028
C104	C	1.584360	-0.073039	1.546028
C105	C	1.184798	-0.438669	1.046057
C106	C	1.684798	0.061331	1.546057
C107	C	1.184785	-0.438698	0.964078
C108	C	1.684785	0.061302	1.464078
C109	C	1.134558	-0.505900	0.923074
C110	C	1.634558	-0.005900	1.423074
H111	H	0.835663	-0.628165	0.469138
H112	H	1.335663	-0.128165	0.969138
C113	C	1.029096	-0.646996	0.918940
C114	C	1.529096	-0.146996	1.418940
N115	N	0.987486	-0.702684	0.884969
N116	N	1.487486	-0.202684	1.384969
H117	H	0.686945	-0.628169	0.469158
H118	H	1.186945	-0.128169	0.969158
C119	C	1.324790	-1.100413	0.464601
C120	C	1.824790	-0.600413	0.964601
N121	N	1.386666	-1.130671	0.448085
N122	N	1.886666	-0.630671	0.948085
C123	C	0.594537	-0.647412	0.483486
C124	C	1.094537	-0.147412	0.983486
N125	N	0.628509	-0.703155	0.525003
N126	N	1.128509	-0.203155	1.025003
C127	C	0.675166	-0.364822	0.272997
C128	C	1.175166	0.135178	0.772997
N129	N	0.641191	-0.309084	0.231478
N130	N	1.141191	0.190916	0.731478
C131	C	1.029203	-1.120971	0.272728
C132	C	1.529203	-0.620971	0.772728
N133	N	0.987681	-1.166503	0.231071
N134	N	1.487681	-0.666503	0.731071
C135	C	1.320610	-0.904481	0.457141
C136	C	1.820610	-0.404481	0.957141
N137	N	1.379367	-0.869808	0.435018
N138	N	1.879367	-0.369808	0.935018
C139	C	0.847325	-0.364809	0.272974
C140	C	1.347325	0.135191	0.772974
N141	N	0.881271	-0.309060	0.231445
N142	N	1.381271	0.190940	0.731445
H143	H	1.225634	-0.384103	0.677872
H144	H	1.725634	0.115897	1.177872
H145	H	0.434089	-0.628193	0.469187
H146	H	0.934089	-0.128193	0.969187
H147	H	1.043430	-0.627815	0.826541
H148	H	1.543430	-0.127815	1.326541
C149	C	1.213187	-1.106181	0.564524
C150	C	1.713187	-0.606181	1.064524
N151	N	1.191004	-1.140787	0.623271
N152	N	1.691004	-0.640787	1.123271
H153	H	0.434036	-0.384062	0.287348
H154	H	0.934036	0.115938	0.787348
H155	H	1.225652	-0.384045	0.826590
H156	H	1.725652	0.115955	1.326590
H157	H	0.582763	-0.384046	0.287329
H158	H	1.082763	0.115954	0.787329
H159	H	1.225675	-0.384010	0.930719
H160	H	1.725675	0.115990	1.430719
H161	H	1.043428	-0.906205	0.287090
H162	H	1.543428	-0.406205	0.787090
H163	H	1.226272	-0.920705	0.547284
H164	H	1.726272	-0.420705	1.047284
H165	H	1.225694	-0.383950	1.079447
H166	H	1.725694	0.116050	1.579447
H167	H	1.043473	-0.627731	1.079387
H168	H	1.543473	-0.127731	1.579387
C169	C	1.029054	-0.647082	0.666090
C170	C	1.529054	-0.147082	1.166090
N171	N	0.987438	-0.702762	0.632118
N172	N	1.487438	-0.202762	1.132118
