data_functionalizedCrystal
_audit_creation_method	'MofGen! by Chris Wilmer'
_symmetry_space_group_name_H-M	'P1'
_symmetry_Int_Tables_number	1
_symmetry_cell_setting	triclinic
loop_
_symmetry_equiv_pos_as_xyz
  x,y,z
_cell_length_a	17.077402
_cell_length_b	12.759401
_cell_length_c	12.759393
_cell_angle_alpha	89.980198
_cell_angle_beta	89.965312
_cell_angle_gamma	90.021969
loop_
_atom_site_label
_atom_site_type_symbol
_atom_site_fract_x
_atom_site_fract_y
_atom_site_fract_z
Zn1	Zn	-0.312489	1.606207	-0.593958
Zn2	Zn	-0.443775	1.606073	-0.418265
Zn3	Zn	-0.312526	1.430505	-0.418296
Zn4	Zn	-0.443715	1.430472	-0.593906
O5	O	-0.378126	1.518314	-0.506106
O6	O	-0.329915	1.753210	-0.570660
O7	O	-0.426405	1.582741	-0.271248
O8	O	-0.202674	1.453882	-0.441633
O9	O	-0.426370	1.753111	-0.441580
O10	O	-0.202647	1.582969	-0.570691
O11	O	-0.329977	1.453753	-0.271271
O12	O	-0.329918	1.283480	-0.441583
O13	O	-0.426267	1.453826	-0.740934
O14	O	-0.426302	1.283456	-0.570602
O15	O	-0.329856	1.582937	-0.740972
O16	O	-0.553614	1.582709	-0.441529
O17	O	-0.553570	1.453696	-0.570572
C18	C	-0.378108	1.245347	-0.506091
C19	C	-0.378119	1.128570	-0.506109
C20	C	-0.328004	0.964023	-0.573432
C21	C	-0.327988	1.073747	-0.573425
C22	C	-0.428274	1.073664	-0.438803
C23	C	-0.428293	0.963942	-0.438816
C24	C	-0.582074	1.518213	-0.506064
C25	C	-0.669324	1.518265	-0.506081
C26	C	-0.710311	1.585511	-0.438961
C27	C	-0.792292	1.585563	-0.438988
C28	C	-0.833283	1.518362	-0.506130
C29	C	-0.792290	1.451114	-0.573258
C30	C	-0.710311	1.451068	-0.573236
C31	C	-0.963160	1.451211	-0.573298
C32	C	-1.045145	1.451255	-0.573319
C33	C	-1.045141	1.585705	-0.439050
C34	C	-0.963162	1.585660	-0.439028
C35	C	-0.922174	1.518410	-0.506154
C36	C	-0.173382	1.518445	-0.506171
C37	C	-0.086132	1.518500	-0.506199
C38	C	-0.378051	1.518393	-0.780140
C39	C	-0.378019	1.518426	-0.896916
C40	C	-0.378145	1.792347	-0.506122
C41	C	-0.378153	1.909124	-0.506129
C42	C	-0.327810	1.585660	-0.951800
C43	C	-0.327776	1.585677	-1.061524
C44	C	-0.428167	1.451226	-1.061471
C45	C	-0.428196	1.451203	-0.951749
C46	C	-0.378145	1.518296	-0.233139
C47	C	-0.377956	1.518466	-0.116363
H48	H	-0.469135	0.919242	-0.384009
H49	H	-0.676941	1.640229	-0.384281
H50	H	-1.078516	1.640466	-0.384397
Cl51	Cl	-0.843815	1.670107	-0.354607
Cl52	Cl	-0.491317	1.366668	-0.882747
H53	H	-1.078518	1.396554	-0.628012
Cl54	Cl	-0.911635	1.366668	-0.657689
H55	H	-0.287177	0.919394	-0.628243
H56	H	-0.287152	1.118441	-0.628231
H57	H	-0.929786	1.640374	-0.384350
H58	H	-0.825672	1.396402	-0.627931
Cl59	Cl	-0.264726	1.670164	-0.882871
H60	H	-0.676940	1.396311	-0.627893
H61	H	-0.286889	1.640424	-1.106205
Cl62	Cl	-0.491248	1.366727	-1.130412
H63	H	-0.469095	1.118309	-0.383997
