data_functionalizedCrystal
_audit_creation_method	'MofGen! by Chris Wilmer'
_symmetry_space_group_name_H-M	'P1'
_symmetry_Int_Tables_number	1
_symmetry_cell_setting	triclinic
loop_
_symmetry_equiv_pos_as_xyz
  x,y,z
_cell_length_a	12.759399
_cell_length_b	12.759401
_cell_length_c	12.759393
_cell_angle_alpha	90.019837
_cell_angle_beta	89.967969
_cell_angle_gamma	89.983359
loop_
_atom_site_label
_atom_site_type_symbol
_atom_site_fract_x
_atom_site_fract_y
_atom_site_fract_z
Zn1	Zn	-0.418161	-1.606252	-0.594017
Zn2	Zn	0.081839	-1.106252	-0.094017
Zn3	Zn	-0.593880	-1.606145	-0.418336
Zn4	Zn	-0.093880	-1.106145	0.081664
Zn5	Zn	-0.418220	-1.430554	-0.418352
Zn6	Zn	0.081780	-0.930554	0.081648
Zn7	Zn	-0.593803	-1.430541	-0.593973
Zn8	Zn	-0.093803	-0.930541	-0.093973
O9	O	-0.506016	-1.518373	-0.506170
O10	O	-0.006016	-1.018373	-0.006170
O11	O	-0.441478	-1.753259	-0.570724
O12	O	0.058522	-1.253259	-0.070724
O13	O	-0.570635	-1.582813	-0.271317
O14	O	-0.070635	-1.082813	0.228683
O15	O	-0.271191	-1.453911	-0.441680
O16	O	0.228809	-0.953911	0.058320
O17	O	-0.570578	-1.753180	-0.441652
O18	O	-0.070578	-1.253180	0.058348
O19	O	-0.271148	-1.582995	-0.570740
O20	O	0.228852	-1.082995	-0.070740
O21	O	-0.441579	-1.453807	-0.271329
O22	O	0.058421	-0.953807	0.228671
O23	O	-0.441505	-1.283531	-0.441637
O24	O	0.058495	-0.783531	0.058363
O25	O	-0.570447	-1.453889	-0.741000
O26	O	-0.070447	-0.953889	-0.241000
O27	O	-0.570504	-1.283522	-0.570665
O28	O	-0.070504	-0.783522	-0.070665
O29	O	-0.441403	-1.582983	-0.741032
O30	O	0.058597	-1.082983	-0.241032
O31	O	-0.740891	-1.582801	-0.441609
O32	O	-0.240891	-1.082801	0.058391
O33	O	-0.740834	-1.453785	-0.570649
O34	O	-0.240834	-0.953785	-0.070649
C35	C	-0.506003	-1.245406	-0.506149
C36	C	-0.006003	-0.745406	-0.006149
C37	C	-0.506023	-1.128629	-0.506165
C38	C	-0.006023	-0.628629	-0.006165
C39	C	-0.778984	-1.518309	-0.506146
C40	C	-0.278984	-1.018309	-0.006146
C41	C	-0.895760	-1.518377	-0.506171
C42	C	-0.395760	-1.018377	-0.006171
C43	C	-0.505910	-1.518446	-0.780203
C44	C	-0.005910	-1.018446	-0.280203
C45	C	-0.505865	-1.518478	-0.896980
C46	C	-0.005865	-1.018478	-0.396980
C47	C	-0.950617	-1.585632	-0.439056
C48	C	-0.450617	-1.085632	0.060944
C49	C	-1.060341	-1.585700	-0.439091
C50	C	-0.560341	-1.085700	0.060909
C51	C	-1.060342	-1.451248	-0.573359
C52	C	-0.560342	-0.951248	-0.073359
C53	C	-0.950620	-1.451187	-0.573328
C54	C	-0.450620	-0.951187	-0.073328
C55	C	-0.231983	-1.518466	-0.506217
C56	C	0.268017	-1.018466	-0.006217
C57	C	-0.115206	-1.518506	-0.506237
C58	C	0.384794	-1.018506	-0.006237
C59	C	-0.506030	-1.792406	-0.506191
C60	C	-0.006030	-1.292406	-0.006191
C61	C	-0.506036	-1.909183	-0.506200
C62	C	-0.006036	-1.409183	-0.006200
C63	C	-0.573296	-1.073790	-0.573244
C64	C	-0.073296	-0.573790	-0.073244
C65	C	-0.573300	-0.964066	-0.573265
C66	C	-0.073300	-0.464066	-0.073265
C67	C	-0.438756	-0.964030	-0.439118
C68	C	0.061244	-0.464030	0.060882
C69	C	-0.438747	-1.073752	-0.439104
C70	C	0.061253	-0.573752	0.060896
C71	C	-0.438653	-1.451328	-0.951848
C72	C	0.061347	-0.951328	-0.451848
C73	C	-0.438620	-1.451353	-1.061572
C74	C	0.061380	-0.951353	-0.561572
C75	C	-0.573015	-1.585685	-1.061551
C76	C	-0.073015	-1.085685	-0.561551
C77	C	-0.573052	-1.585654	-0.951829
C78	C	-0.073052	-1.085654	-0.451829
C79	C	-0.506046	-1.518360	-0.233202
C80	C	-0.006046	-1.018360	0.266798
C81	C	-0.505796	-1.518533	-0.116426
C82	C	-0.005796	-1.018533	0.383574
H83	H	-0.905952	-1.640344	-0.384374
H84	H	-0.405952	-1.140344	0.115626
H85	H	-0.628073	-1.118467	-0.627852
H86	H	-0.128073	-0.618467	-0.127852
N87	N	-1.119509	-1.658241	-0.366706
N88	N	-0.619509	-1.158241	0.133294
H89	H	-1.068102	-1.700794	-0.324161
H90	H	-0.568102	-1.200794	0.175839
H91	H	-1.165113	-1.615526	-0.318063
H92	H	-0.665113	-1.115526	0.181937
N93	N	-1.119512	-1.378777	-0.645785
N94	N	-0.619512	-0.878777	-0.145785
H95	H	-1.197346	-1.389016	-0.635619
H96	H	-0.697346	-0.889016	-0.135619
H97	H	-1.100408	-1.303742	-0.629360
H98	H	-0.600408	-0.803742	-0.129360
N99	N	-0.645869	-0.904920	-0.645605
N100	N	-0.145869	-0.404920	-0.145605
H101	H	-0.635668	-0.827084	-0.635444
H102	H	-0.135668	-0.327084	-0.135444
H103	H	-0.629611	-0.924142	-0.720666
H104	H	-0.129611	-0.424142	-0.220666
H105	H	-0.383959	-1.118403	-0.384480
H106	H	0.116041	-0.618403	0.115520
H107	H	-0.627715	-1.640379	-1.106222
H108	H	-0.127715	-1.140379	-0.606222
H109	H	-0.627788	-1.640338	-0.907154
H110	H	-0.127788	-1.140338	-0.407154
H111	H	-0.905953	-1.396420	-0.627986
H112	H	-0.405953	-0.896420	-0.127986
H113	H	-0.383984	-0.919336	-0.384518
H114	H	0.116016	-0.419336	0.115482
H115	H	-0.383945	-1.396629	-0.907193
H116	H	0.116055	-0.896629	-0.407193
H117	H	-0.383891	-1.396672	-1.106240
H118	H	0.116109	-0.896672	-0.606240
