data_functionalizedCrystal
_audit_creation_method	'MofGen! by Chris Wilmer'
_symmetry_space_group_name_H-M	'P1'
_symmetry_Int_Tables_number	1
_symmetry_cell_setting	triclinic
loop_
_symmetry_equiv_pos_as_xyz
  x,y,z
_cell_length_a	21.395361
_cell_length_b	21.395364
_cell_length_c	21.395356
_cell_angle_alpha	90.024334
_cell_angle_beta	89.969319
_cell_angle_gamma	89.952591
loop_
_atom_site_label
_atom_site_type_symbol
_atom_site_fract_x
_atom_site_fract_y
_atom_site_fract_z
Zn1	Zn	-0.249175	-0.957853	-0.354261
Zn2	Zn	-0.353952	-0.957758	-0.249478
Zn3	Zn	-0.249223	-0.853070	-0.249496
Zn4	Zn	-0.353949	-0.853037	-0.354217
O5	O	-0.301575	-0.905430	-0.301863
O6	O	-0.263055	-1.045519	-0.340372
O7	O	-0.340080	-0.943844	-0.161802
O8	O	-0.161538	-0.867023	-0.263420
O9	O	-0.340034	-1.045448	-0.263388
O10	O	-0.161504	-0.944007	-0.340390
O11	O	-0.263136	-0.866931	-0.161816
O12	O	-0.263134	-0.765388	-0.263377
O13	O	-0.340030	-0.866968	-0.441901
O14	O	-0.340076	-0.765364	-0.340315
O15	O	-0.263053	-0.943976	-0.441933
O16	O	-0.441629	-0.943813	-0.263346
O17	O	-0.441628	-0.866875	-0.340297
C18	C	-0.301610	-0.742642	-0.301843
C19	C	-0.301640	-0.673001	-0.301850
C20	C	-0.261624	-0.640347	-0.341997
C21	C	-0.261609	-0.574911	-0.341998
C22	C	-0.301622	-0.542132	-0.301859
C23	C	-0.341641	-0.574794	-0.261705
C24	C	-0.341651	-0.640229	-0.261700
C25	C	-0.358051	-0.438408	-0.296818
C26	C	-0.358043	-0.372975	-0.296827
C27	C	-0.301594	-0.340312	-0.301871
C28	C	-0.245151	-0.373089	-0.306919
C29	C	-0.245160	-0.438523	-0.306914
C30	C	-0.301617	-0.471180	-0.301860
C31	C	-0.261558	-0.236705	-0.342021
C32	C	-0.261543	-0.171268	-0.342019
C33	C	-0.341580	-0.171153	-0.261728
C34	C	-0.341590	-0.236588	-0.261728
C35	C	-0.301580	-0.269360	-0.301878
C36	C	-0.464362	-0.905347	-0.301828
C37	C	-0.534004	-0.905369	-0.301834
C38	C	-0.566697	-0.945466	-0.261807
C39	C	-0.632132	-0.945495	-0.261821
C40	C	-0.664872	-0.905416	-0.301856
C41	C	-0.632171	-0.865316	-0.341891
C42	C	-0.566737	-0.865293	-0.341880
C43	C	-0.768603	-0.849001	-0.306765
C44	C	-0.834036	-0.849024	-0.306771
C45	C	-0.866693	-0.905489	-0.301892
C46	C	-0.833909	-0.961933	-0.296994
C47	C	-0.768474	-0.961910	-0.296983
C48	C	-0.735824	-0.905437	-0.301872
C49	C	-0.970338	-0.945621	-0.261878
C50	C	-1.035775	-0.945651	-0.261896
C51	C	-1.035812	-0.865467	-0.341963
C52	C	-0.970377	-0.865442	-0.341948
C53	C	-0.937644	-0.905518	-0.301902
C54	C	-0.138151	-0.905530	-0.301912
C55	C	-0.068510	-0.905572	-0.301932
C56	C	-0.301536	-0.905479	-0.465286
C57	C	-0.301519	-0.905500	-0.534928
C58	C	-0.301547	-0.068853	-0.301880
C59	C	-0.301555	-0.138494	-0.301879
C60	C	-0.261450	-0.865462	-0.567638
C61	C	-0.261438	-0.865460	-0.633073
C62	C	-0.301490	-0.905507	-0.665796
C63	C	-0.341567	-0.945548	-0.633078
C64	C	-0.341582	-0.945544	-0.567644
C65	C	-0.306399	-0.961959	-0.769483
C66	C	-0.306380	-0.961963	-0.834916
C67	C	-0.301447	-0.905517	-0.867617
C68	C	-0.296521	-0.849065	-0.834877
C69	C	-0.296536	-0.849061	-0.769443
C70	C	-0.301478	-0.905515	-0.736748
C71	C	-0.261363	-0.865473	-0.971280
C72	C	-0.261356	-0.865470	-1.036716
C73	C	-0.341481	-0.945564	-1.036720
C74	C	-0.341491	-0.945561	-0.971284
C75	C	-0.301429	-0.905517	-0.938568
C76	C	-0.301568	-0.905417	-0.139075
C77	C	-0.301408	-0.905517	-0.069435
H78	H	-0.374220	-0.548102	-0.229023
H79	H	-1.062393	-0.978306	-0.229303
H80	H	-0.228831	-0.832852	-0.541005
H81	H	-0.228953	-0.144682	-0.374710
C82	C	-0.385047	-0.135686	-0.218078
C83	C	-0.420086	-0.178293	-0.182909
C84	C	-0.460127	-0.145640	-0.142683
H85	H	-0.412430	-0.110141	-0.241926
H86	H	-0.361052	-0.110185	-0.190791
H87	H	-0.444079	-0.203783	-0.210193
H88	H	-0.392720	-0.203838	-0.159048
H89	H	-0.436132	-0.120139	-0.115395
H90	H	-0.487506	-0.120097	-0.166535
H91	H	-0.483902	-0.174544	-0.118811
H92	H	-0.310388	-1.007930	-0.861568
C93	C	-0.217781	-0.821973	-1.072120
C94	C	-0.182690	-0.786918	-1.029460
C95	C	-0.142536	-0.746848	-1.062052
H96	H	-0.241677	-0.794601	-1.097629
H97	H	-0.190440	-0.845947	-1.097652
H98	H	-0.210027	-0.762946	-1.003939
H99	H	-0.158782	-0.814274	-1.003950
H100	H	-0.115195	-0.770822	-1.087583
H101	H	-0.166437	-0.719480	-1.087560
H102	H	-0.118718	-0.723063	-1.033112
H103	H	-0.228743	-0.832866	-0.944641
C104	C	-0.311731	-1.023316	-0.734095
C105	C	-0.316020	-1.072755	-0.776770
C106	C	-0.320926	-1.129283	-0.744195
H107	H	-0.348054	-1.022568	-0.708556
H108	H	-0.275817	-1.028879	-0.708595
H109	H	-0.351931	-1.067193	-0.802259
H110	H	-0.279702	-1.073523	-0.802311
H111	H	-0.285012	-1.134846	-0.718695
H112	H	-0.357249	-1.128529	-0.718657
H113	H	-0.323831	-1.162835	-0.773145
H114	H	-0.374177	-0.978154	-0.659725
C115	C	-0.217861	-0.821966	-0.668485
C116	C	-0.182770	-0.786907	-0.625828
C117	C	-0.142615	-0.746842	-0.658423
H118	H	-0.241756	-0.794597	-0.693997
H119	H	-0.190520	-0.845944	-0.694013
H120	H	-0.210108	-0.762931	-0.600310
H121	H	-0.158863	-0.814260	-0.600314
H122	H	-0.115274	-0.770820	-0.683952
H123	H	-0.166514	-0.719477	-0.683935
H124	H	-0.118797	-0.723054	-0.629486
H125	H	-0.374090	-0.978172	-1.063362
C126	C	-0.732993	-1.023256	-0.291699
C127	C	-0.775591	-1.072716	-0.287444
C128	C	-0.742928	-1.129238	-0.282586
H129	H	-0.707489	-1.022542	-0.255379
H130	H	-0.707450	-1.028766	-0.327621
H131	H	-0.801123	-1.067207	-0.251525
H132	H	-0.801096	-1.073451	-0.323759
H133	H	-0.717385	-1.134748	-0.318508
H134	H	-0.717425	-1.128517	-0.246266
H135	H	-0.771825	-1.162804	-0.279704
H136	H	-0.374210	-0.978151	-0.541011
C137	C	-0.934845	-0.822005	-0.385480
C138	C	-0.897220	-0.857446	-0.425677
C139	C	-0.864487	-0.817454	-0.465796
H140	H	-0.909317	-0.794696	-0.361555
H141	H	-0.963694	-0.798150	-0.409362
H142	H	-0.868374	-0.881291	-0.401797
H143	H	-0.922732	-0.884754	-0.449616
H144	H	-0.893336	-0.793599	-0.489678
H145	H	-0.838963	-0.790147	-0.441866
H146	H	-0.838959	-0.841495	-0.493078
C147	C	-0.385013	-0.989108	-0.935879
C148	C	-0.420075	-1.024192	-0.978539
C149	C	-0.460171	-1.064321	-0.945947
H150	H	-0.412380	-0.965194	-0.910332
H151	H	-0.361057	-1.016454	-0.910385
H152	H	-0.444030	-0.996850	-1.004021
H153	H	-0.392725	-1.048119	-1.004087
H154	H	-0.436215	-1.091667	-0.920453
H155	H	-0.487533	-1.040402	-0.920401
H156	H	-0.483961	-1.088134	-0.974886
H157	H	-0.943686	-0.978255	-0.229272
C158	C	-0.218110	-0.675814	-0.385603
C159	C	-0.183048	-0.633206	-0.420750
C160	C	-0.142949	-0.665857	-0.460918
H161	H	-0.242043	-0.701335	-0.412913
H162	H	-0.190748	-0.701338	-0.361695
H163	H	-0.210407	-0.607693	-0.444656
H164	H	-0.159102	-0.607683	-0.393457
H165	H	-0.115587	-0.691381	-0.437010
H166	H	-0.166887	-0.691377	-0.488223
H167	H	-0.119151	-0.636952	-0.484766
H168	H	-0.374179	-0.263176	-0.229039
C169	C	-0.419383	-0.337504	-0.291307
C170	C	-0.468818	-0.380112	-0.286862
C171	C	-0.525334	-0.347461	-0.281767
H172	H	-0.425027	-0.311989	-0.327188
H173	H	-0.418545	-0.311974	-0.254975
H174	H	-0.469657	-0.405632	-0.323190
H175	H	-0.463194	-0.405629	-0.250982
H176	H	-0.524496	-0.321932	-0.245434
H177	H	-0.530972	-0.321947	-0.317649
H178	H	-0.558881	-0.376366	-0.278744
H179	H	-0.860723	-0.803063	-0.310753
C180	C	-0.218266	-0.539367	-0.385627
C181	C	-0.253799	-0.501777	-0.425706
C182	C	-0.213894	-0.469020	-0.465900
H183	H	-0.194424	-0.568183	-0.409598
H184	H	-0.190941	-0.513817	-0.361732
H185	H	-0.281113	-0.527324	-0.449599
H186	H	-0.277640	-0.472948	-0.401753
H187	H	-0.186569	-0.443470	-0.442005
H188	H	-0.190054	-0.497841	-0.489866
H189	H	-0.237997	-0.443507	-0.493094
C190	C	-0.419305	-0.473950	-0.291443
C191	C	-0.427328	-0.511547	-0.344409
C192	C	-0.483740	-0.544303	-0.339475
H193	H	-0.452974	-0.445133	-0.288470
H194	H	-0.418454	-0.499496	-0.255143
H195	H	-0.428184	-0.486004	-0.380699
H196	H	-0.393673	-0.540375	-0.347392
H197	H	-0.482889	-0.569849	-0.303175
H198	H	-0.517405	-0.515482	-0.336501
H199	H	-0.489188	-0.569820	-0.375408
H200	H	-0.742020	-0.803017	-0.310740
C201	C	-0.384999	-0.675719	-0.218036
C202	C	-0.349476	-0.713291	-0.177932
C203	C	-0.389389	-0.745988	-0.137696
H204	H	-0.412346	-0.701279	-0.241881
H205	H	-0.408816	-0.646848	-0.194092
H206	H	-0.325670	-0.742159	-0.201873
H207	H	-0.322131	-0.687746	-0.154074
H208	H	-0.413206	-0.717117	-0.113752
H209	H	-0.416734	-0.771545	-0.161546
H210	H	-0.365292	-0.771480	-0.110477
H211	H	-0.199203	-0.465208	-0.311022
H212	H	-0.199185	-0.346496	-0.311026
H213	H	-0.292526	-0.803096	-0.742789
H214	H	-0.228976	-0.263389	-0.374710
H215	H	-0.540048	-0.978099	-0.229201
H216	H	-0.860496	-1.007913	-0.293022
C217	C	-0.667566	-0.989122	-0.218392
C218	C	-0.651569	-1.051108	-0.232063
C219	C	-0.684193	-1.091309	-0.192064
H220	H	-0.711232	-0.983472	-0.224099
H221	H	-0.656871	-0.980000	-0.176275
H222	H	-0.662268	-1.060227	-0.274170
H223	H	-0.607909	-1.056777	-0.226353
H224	H	-0.673499	-1.082187	-0.149946
H225	H	-0.727858	-1.085653	-0.197774
H226	H	-0.673340	-1.133370	-0.201330
H227	H	-1.062468	-0.832837	-0.374563
H228	H	-0.658832	-0.832685	-0.374489
C229	C	-0.531350	-0.821686	-0.385362
C230	C	-0.574024	-0.786582	-0.420419
C231	C	-0.541448	-0.746398	-0.460475
H232	H	-0.505772	-0.845560	-0.412734
H233	H	-0.505889	-0.794354	-0.361378
H234	H	-0.599474	-0.813910	-0.444402
H235	H	-0.599603	-0.762695	-0.393065
H236	H	-0.515987	-0.719067	-0.436490
H237	H	-0.515871	-0.770278	-0.487842
H238	H	-0.570397	-0.722571	-0.484262
H239	H	-0.292500	-0.803101	-0.861501
