data_functionalizedCrystal
_audit_creation_method	'MofGen! by Chris Wilmer'
_symmetry_space_group_name_H-M	'P1'
_symmetry_Int_Tables_number	1
_symmetry_cell_setting	triclinic
loop_
_symmetry_equiv_pos_as_xyz
  x,y,z
_cell_length_a	21.395362
_cell_length_b	12.759400
_cell_length_c	21.395355
_cell_angle_alpha	89.986153
_cell_angle_beta	89.956060
_cell_angle_gamma	90.030564
loop_
_atom_site_label
_atom_site_type_symbol
_atom_site_fract_x
_atom_site_fract_y
_atom_site_fract_z
Zn1	Zn	0.957929	-0.417943	-0.354606
Zn2	Zn	0.957861	-0.593607	-0.249837
Zn3	Zn	0.853144	-0.417992	-0.249807
Zn4	Zn	0.853143	-0.593629	-0.354542
O5	O	0.905519	-0.505793	-0.302198
O6	O	1.045598	-0.441215	-0.340747
O7	O	0.943942	-0.570323	-0.162155
O8	O	0.867073	-0.270964	-0.263723
O9	O	1.045548	-0.570275	-0.263774
O10	O	0.944058	-0.270928	-0.340719
O11	O	0.867007	-0.441299	-0.162133
O12	O	0.765466	-0.441320	-0.263661
O13	O	0.867071	-0.570312	-0.442228
O14	O	0.765465	-0.570360	-0.340609
O15	O	0.944057	-0.441236	-0.442275
O16	O	0.943941	-0.740631	-0.263712
O17	O	0.867005	-0.740647	-0.340638
C18	C	0.742732	-0.505848	-0.302125
C19	C	0.673090	-0.505897	-0.302109
C20	C	0.640393	-0.573177	-0.342116
C21	C	0.574958	-0.573152	-0.342144
C22	C	0.542222	-0.505857	-0.302154
C23	C	0.574927	-0.438564	-0.262144
C24	C	0.640361	-0.438584	-0.262122
C25	C	0.438496	-0.497393	-0.245748
C26	C	0.373063	-0.497380	-0.245769
C27	C	0.340401	-0.505788	-0.302223
C28	C	0.373181	-0.514231	-0.358657
C29	C	0.438615	-0.514251	-0.358635
C30	C	0.471270	-0.505827	-0.302174
C31	C	0.236752	-0.573044	-0.342263
C32	C	0.171315	-0.573011	-0.342292
C33	C	0.171286	-0.438428	-0.262287
C34	C	0.236721	-0.438456	-0.262264
C35	C	0.269450	-0.505769	-0.302251
C36	C	0.905482	-0.778760	-0.302185
C37	C	0.905523	-0.895537	-0.302200
C38	C	0.945629	-0.950355	-0.262189
C39	C	0.945667	-1.060079	-0.262209
C40	C	0.865490	-1.060156	-0.342252
C41	C	0.865455	-0.950434	-0.342235
C42	C	0.991916	-0.950312	-0.215975
C43	C	0.991955	-1.060036	-0.215994
C44	C	1.068943	-0.505738	-0.302271
C45	C	1.138584	-0.505714	-0.302303
C46	C	0.905571	-0.505771	-0.465621
C47	C	0.905593	-0.505762	-0.535263
C48	C	0.905574	-0.231759	-0.302225
C49	C	0.905597	-0.114983	-0.302236
C50	C	0.945678	-0.438550	-0.568001
C51	C	0.945678	-0.438504	-0.633437
C52	C	0.905598	-0.505691	-0.666131
C53	C	0.865505	-0.572908	-0.633384
C54	C	0.865503	-0.572944	-0.567950
C55	C	0.900638	-0.600292	-0.769799
C56	C	0.900645	-0.600258	-0.835232
C57	C	0.905602	-0.505580	-0.867952
C58	C	0.910566	-0.410932	-0.835230
C59	C	0.910563	-0.410968	-0.769796
C60	C	0.905596	-0.505659	-0.737083
C61	C	0.945688	-0.438312	-0.971643
C62	C	0.945683	-0.438265	-1.037080
C63	C	0.865514	-0.572678	-1.037026
C64	C	0.865516	-0.572716	-0.971591
C65	C	0.905607	-0.505534	-0.938903
C66	C	0.905503	-0.505738	-0.139410
C67	C	0.905603	-0.505451	-0.069770
H68	H	0.144694	-0.627796	-0.374875
H69	H	0.346379	-0.490512	-0.199817
C70	C	0.989785	-0.364342	-1.073096
H71	H	0.984043	-0.373936	-1.116748
H72	H	1.031876	-0.379727	-1.062402
H73	H	0.980637	-0.293751	-1.062364
C74	C	0.538983	-0.647101	-0.386189
H75	H	0.567847	-0.687177	-0.410010
H76	H	0.513523	-0.606916	-0.413526
H77	H	0.513393	-0.692832	-0.362211
C78	C	0.821341	-0.890136	-0.386249
H79	H	0.797480	-0.938548	-0.410088
H80	H	0.845282	-0.847265	-0.413570
H81	H	0.794035	-0.847407	-0.362237
H82	H	0.914603	-0.333903	-0.743157
C83	C	0.989772	-0.364571	-0.669460
H84	H	0.984028	-0.374169	-0.713112
H85	H	1.031866	-0.379941	-0.658769
H86	H	0.980616	-0.293984	-0.658728
H87	H	0.914603	-0.333836	-0.861869
C88	C	0.821415	-1.120546	-0.386283
H89	H	0.827177	-1.193745	-0.380561
H90	H	0.830558	-1.102510	-0.428389
H91	H	0.779314	-1.102650	-0.377054
H92	H	0.832875	-0.627372	-1.063645
H93	H	0.465084	-0.490542	-0.199774
C94	C	0.821427	-0.646659	-0.935576
H95	H	0.797559	-0.686672	-0.964418
H96	H	0.794135	-0.606493	-0.910028
H97	H	0.845388	-0.692446	-0.910072
H98	H	1.040427	-0.920439	-0.229025
H99	H	0.974545	-0.916349	-0.169854
H100	H	0.896434	-0.677371	-0.743165
H101	H	1.038057	-1.093969	-0.233433
H102	H	0.548270	-0.383770	-0.229585
H103	H	0.896607	-0.677325	-0.861869
C104	C	0.821422	-0.646816	-0.669345
H105	H	0.827170	-0.637177	-0.713005
H106	H	0.779327	-0.631463	-0.658593
H107	H	0.830583	-0.717412	-0.658629
C108	C	0.821417	-0.646896	-0.531936
H109	H	0.797549	-0.686911	-0.560777
H110	H	0.794124	-0.606740	-0.506382
H111	H	0.845385	-0.692681	-0.506437
H112	H	0.978989	-1.089879	-0.167457
C113	C	0.989771	-0.364645	-0.532048
H114	H	1.013641	-0.324602	-0.560922
H115	H	1.017061	-0.404836	-0.506543
H116	H	0.965808	-0.318883	-0.506505
H117	H	0.978329	-0.383603	-0.945027
C118	C	0.474673	-0.523534	-0.420704
H119	H	0.518320	-0.522350	-0.412602
H120	H	0.464006	-0.466446	-0.447125
H121	H	0.463945	-0.587548	-0.440675
H122	H	0.667037	-0.627988	-0.374678
H123	H	0.666983	-0.383793	-0.229543
C124	C	0.337265	-0.523470	-0.420761
H125	H	0.366158	-0.528505	-0.454365
H126	H	0.311775	-0.463260	-0.426338
H127	H	0.311709	-0.584363	-0.419897
C128	C	0.272759	-0.647069	-0.386253
H129	H	0.316413	-0.637454	-0.380505
H130	H	0.262090	-0.631789	-0.428370
H131	H	0.261994	-0.717638	-0.377014
H132	H	0.144633	-0.383631	-0.229729
H133	H	0.263344	-0.383674	-0.229683
