data_functionalizedCrystal
_audit_creation_method	'MofGen! by Chris Wilmer'
_symmetry_space_group_name_H-M	'P1'
_symmetry_Int_Tables_number	1
_symmetry_cell_setting	triclinic
loop_
_symmetry_equiv_pos_as_xyz
  x,y,z
_cell_length_a	17.077404
_cell_length_b	17.077402
_cell_length_c	17.077396
_cell_angle_alpha	89.971638
_cell_angle_beta	89.983895
_cell_angle_gamma	90.021463
loop_
_atom_site_label
_atom_site_type_symbol
_atom_site_fract_x
_atom_site_fract_y
_atom_site_fract_z
Zn1	Zn	1.200034	-0.312544	-0.443824
Zn2	Zn	1.450034	-0.062544	-0.193824
Zn3	Zn	1.700034	0.187456	0.056176
Zn4	Zn	1.950034	0.437456	0.306176
Zn5	Zn	1.199945	-0.443821	-0.312560
Zn6	Zn	1.449945	-0.193821	-0.062560
Zn7	Zn	1.699945	0.056179	0.187440
Zn8	Zn	1.949945	0.306179	0.437440
Zn9	Zn	1.068771	-0.312568	-0.312575
Zn10	Zn	1.318771	-0.062568	-0.062575
Zn11	Zn	1.568771	0.187432	0.187425
Zn12	Zn	1.818771	0.437432	0.437425
Zn13	Zn	1.068732	-0.443767	-0.443786
Zn14	Zn	1.318732	-0.193767	-0.193786
Zn15	Zn	1.568732	0.056233	0.056214
Zn16	Zn	1.818732	0.306233	0.306214
O17	O	1.134370	-0.378175	-0.378186
O18	O	1.384370	-0.128175	-0.128186
O19	O	1.634370	0.121825	0.121814
O20	O	1.884370	0.371825	0.371814
O21	O	1.309869	-0.329971	-0.426421
O22	O	1.559869	-0.079971	-0.176421
O23	O	1.809869	0.170029	0.073579
O24	O	2.059869	0.420029	0.323579
O25	O	1.182523	-0.426443	-0.202715
O26	O	1.432523	-0.176443	0.047285
O27	O	1.682523	0.073557	0.297285
O28	O	1.932523	0.323557	0.547285
O29	O	1.086237	-0.202718	-0.330007
O30	O	1.336237	0.047282	-0.080007
O31	O	1.586237	0.297282	0.169993
O32	O	1.836237	0.547282	0.419993
O33	O	1.309803	-0.426419	-0.329982
O34	O	1.559803	-0.176419	-0.079982
O35	O	1.809803	0.073581	0.170018
O36	O	2.059803	0.323581	0.420018
O37	O	1.182675	-0.202700	-0.426435
O38	O	1.432675	0.047300	-0.176435
O39	O	1.682675	0.297300	0.073565
O40	O	1.932675	0.547300	0.323565
O41	O	1.086150	-0.330012	-0.202726
O42	O	1.336150	-0.080012	0.047274
O43	O	1.586150	0.169988	0.297274
O44	O	1.836150	0.419988	0.547274
O45	O	0.958919	-0.329960	-0.329970
O46	O	1.208919	-0.079960	-0.079970
O47	O	1.458919	0.170040	0.170030
O48	O	1.708919	0.420040	0.420030
O49	O	1.086171	-0.426328	-0.553638
O50	O	1.336171	-0.176328	-0.303638
O51	O	1.586171	0.073672	-0.053638
O52	O	1.836171	0.323672	0.196362
O53	O	0.958890	-0.426351	-0.426371
O54	O	1.208890	-0.176351	-0.176371
O55	O	1.458890	0.073649	0.073629
O56	O	1.708890	0.323649	0.323629
O57	O	1.182638	-0.329919	-0.553666
O58	O	1.432638	-0.079919	-0.303666
O59	O	1.682638	0.170081	-0.053666
O60	O	1.932638	0.420081	0.196334
O61	O	1.182486	-0.553661	-0.329946
O62	O	1.432486	-0.303661	-0.079946
O63	O	1.682486	-0.053661	0.170054
O64	O	1.932486	0.196339	0.420054
O65	O	1.086084	-0.553621	-0.426357
O66	O	1.336084	-0.303621	-0.176357
O67	O	1.586084	-0.053621	0.073643
O68	O	1.836084	0.196379	0.323643
C69	C	0.930423	-0.378153	-0.378169
C70	C	1.180423	-0.128153	-0.128169
C71	C	1.430423	0.121847	0.121831
C72	C	1.680423	0.371847	0.371831
C73	C	0.843173	-0.378162	-0.378180
C74	C	1.093173	-0.128162	-0.128180
C75	C	1.343173	0.121838	0.121820
C76	C	1.593173	0.371838	0.371820
C77	C	0.802217	-0.328031	-0.428472
C78	C	1.052217	-0.078031	-0.178472
C79	C	1.302217	0.171969	0.071528
C80	C	1.552217	0.421969	0.321528
C81	C	0.720237	-0.328036	-0.428476
C82	C	0.970237	-0.078036	-0.178476
C83	C	1.220237	0.171964	0.071524
C84	C	1.470237	0.421964	0.321524
C85	C	0.679213	-0.378177	-0.378190
C86	C	0.929213	-0.128177	-0.128190
C87	C	1.179213	0.121823	0.121810
C88	C	1.429213	0.371823	0.371810
C89	C	0.720174	-0.428311	-0.327892
C90	C	0.970174	-0.178311	-0.077892
C91	C	1.220174	0.071689	0.172108
C92	C	1.470174	0.321689	0.422108
C93	C	0.802153	-0.428301	-0.327885
C94	C	1.052153	-0.178301	-0.077885
C95	C	1.302153	0.071699	0.172115
C96	C	1.552153	0.321699	0.422115
C97	C	0.549304	-0.428328	-0.327912
C98	C	0.799304	-0.178328	-0.077912
C99	C	1.049304	0.071672	0.172088
C100	C	1.299304	0.321672	0.422088
C101	C	0.467320	-0.428339	-0.327920
C102	C	0.717320	-0.178339	-0.077920
C103	C	0.967320	0.071661	0.172080
C104	C	1.217320	0.321661	0.422080
C105	C	0.467388	-0.328063	-0.428502
C106	C	0.717388	-0.078063	-0.178502
C107	C	0.967388	0.171937	0.071498
C108	C	1.217388	0.421937	0.321498
C109	C	0.549367	-0.328054	-0.428495
C110	C	0.799367	-0.078054	-0.178495
C111	C	1.049367	0.171946	0.071505
C112	C	1.299367	0.421946	0.321505
C113	C	0.590322	-0.378189	-0.378198
C114	C	0.840322	-0.128189	-0.128198
C115	C	1.090322	0.121811	0.121802
C116	C	1.340322	0.371811	0.371802
C117	C	1.134292	-0.582123	-0.378163
C118	C	1.384292	-0.332123	-0.128163
C119	C	1.634292	-0.082123	0.121837
C120	C	1.884292	0.167877	0.371837
C121	C	1.134331	-0.669373	-0.378179
C122	C	1.384331	-0.419373	-0.128179
C123	C	1.634331	-0.169373	0.121821
C124	C	1.884331	0.080627	0.371821
C125	C	1.184519	-0.710286	-0.428430
C126	C	1.434519	-0.460286	-0.178430
C127	C	1.684519	-0.210286	0.071570
C128	C	1.934519	0.039714	0.321570
C129	C	1.184552	-0.792267	-0.428447
C130	C	1.434552	-0.542267	-0.178447
C131	C	1.684552	-0.292267	0.071553
C132	C	1.934552	-0.042267	0.321553
C133	C	1.134400	-0.833332	-0.378208
C134	C	1.384400	-0.583332	-0.128208
C135	C	1.634400	-0.333332	0.121792
C136	C	1.884400	-0.083332	0.371792
C137	C	1.084207	-0.792413	-0.327955
C138	C	1.334207	-0.542413	-0.077955
C139	C	1.584207	-0.292413	0.172045
C140	C	1.834207	-0.042413	0.422045
C141	C	1.084170	-0.710434	-0.327943
C142	C	1.334170	-0.460434	-0.077943
C143	C	1.584170	-0.210434	0.172057
C144	C	1.834170	0.039566	0.422057
C145	C	1.084287	-0.963283	-0.327983
C146	C	1.334287	-0.713283	-0.077983
C147	C	1.584287	-0.463283	0.172017
C148	C	1.834287	-0.213283	0.422017
C149	C	1.084324	-1.045268	-0.327994
C150	C	1.334324	-0.795268	-0.077994
C151	C	1.584324	-0.545268	0.172006
C152	C	1.834324	-0.295268	0.422006
C153	C	1.184669	-1.045116	-0.428486
C154	C	1.434669	-0.795116	-0.178486
C155	C	1.684669	-0.545116	0.071514
C156	C	1.934669	-0.295116	0.321514
C157	C	1.184633	-0.963137	-0.428474
C158	C	1.434633	-0.713137	-0.178474
C159	C	1.684633	-0.463137	0.071526
C160	C	1.934633	-0.213137	0.321526
C161	C	1.134440	-0.922223	-0.378220
C162	C	1.384440	-0.672223	-0.128220
C163	C	1.634440	-0.422223	0.121780
C164	C	1.884440	-0.172223	0.371780
C165	C	1.339115	-0.378198	-0.378204
C166	C	1.589115	-0.128198	-0.128204
C167	C	1.839115	0.121802	0.121796
C168	C	2.089115	0.371802	0.371796
C169	C	1.426364	-0.378208	-0.378212
C170	C	1.676364	-0.128208	-0.128212
C171	C	1.926364	0.121792	0.121788
C172	C	2.176364	0.371792	0.371788
C173	C	1.134410	-0.378114	-0.582931
C174	C	1.384410	-0.128114	-0.332931
C175	C	1.634410	0.121886	-0.082931
C176	C	1.884410	0.371886	0.167069
C177	C	1.134427	-0.378089	-0.670181
C178	C	1.384427	-0.128089	-0.420181
C179	C	1.634427	0.121911	-0.170181
C180	C	1.884427	0.371911	0.079819
C181	C	1.134470	-0.173431	-0.378227
C182	C	1.384470	0.076569	-0.128227
C183	C	1.634470	0.326569	0.121773
C184	C	1.884470	0.576569	0.371773
C185	C	1.134512	-0.086181	-0.378244
C186	C	1.384512	0.163819	-0.128244
C187	C	1.634512	0.413819	0.121756
C188	C	1.884512	0.663819	0.371756
C189	C	1.084261	-0.327871	-0.711176
C190	C	1.334261	-0.077871	-0.461176
C191	C	1.584261	0.172129	-0.211176
C192	C	1.834261	0.422129	0.038824
C193	C	1.084273	-0.327853	-0.793156
C194	C	1.334273	-0.077853	-0.543156
C195	C	1.584273	0.172147	-0.293156
C196	C	1.834273	0.422147	-0.043156
C197	C	1.134457	-0.378050	-0.834140
C198	C	1.384457	-0.128050	-0.584140
C199	C	1.634457	0.121950	-0.334140
C200	C	1.884457	0.371950	-0.084140
C201	C	1.184625	-0.428272	-0.793139
C202	C	1.434625	-0.178272	-0.543139
C203	C	1.684625	0.071728	-0.293139
C204	C	1.934625	0.321728	-0.043139
C205	C	1.184608	-0.428294	-0.711160
C206	C	1.434608	-0.178294	-0.461160
C207	C	1.684608	0.071706	-0.211160
C208	C	1.934608	0.321706	0.038840
C209	C	1.184659	-0.428223	-0.964009
C210	C	1.434659	-0.178223	-0.714009
C211	C	1.684659	0.071777	-0.464009
C212	C	1.934659	0.321777	-0.214009
C213	C	1.184678	-0.428201	-1.045994
C214	C	1.434678	-0.178201	-0.795994
C215	C	1.684678	0.071799	-0.545994
C216	C	1.934678	0.321799	-0.295994
C217	C	1.084325	-0.327783	-1.046005
C218	C	1.334325	-0.077783	-0.796005
C219	C	1.584325	0.172217	-0.546005
C220	C	1.834325	0.422217	-0.296005
C221	C	1.084307	-0.327804	-0.964026
C222	C	1.334307	-0.077804	-0.714026
C223	C	1.584307	0.172196	-0.464026
C224	C	1.834307	0.422196	-0.214026
C225	C	1.134477	-0.378026	-0.923031
C226	C	1.384477	-0.128026	-0.673031
C227	C	1.634477	0.121974	-0.423031
C228	C	1.884477	0.371974	-0.173031
C229	C	1.134376	-0.378179	-0.174238
C230	C	1.384376	-0.128179	0.075762
C231	C	1.634376	0.121821	0.325762
C232	C	1.884376	0.371821	0.575762
C233	C	1.134512	-0.377984	-0.086989
C234	C	1.384512	-0.127984	0.163011
C235	C	1.634512	0.122016	0.413011
C236	C	1.884512	0.372016	0.663011
H237	H	0.582766	-0.287229	-0.469447
H238	H	0.832766	-0.037229	-0.219447
H239	H	1.082766	0.212771	0.030553
H240	H	1.332766	0.462771	0.280553
Br241	Br	1.016052	-0.654908	-0.259746
Br242	Br	1.266052	-0.404908	-0.009746
Br243	Br	1.516052	-0.154908	0.240254
Br244	Br	1.766052	0.095092	0.490254
Br245	Br	1.252792	-0.496318	-1.101615
Br246	Br	1.502792	-0.246318	-0.851615
Br247	Br	1.752792	0.003682	-0.601615
Br248	Br	2.002792	0.253682	-0.351615
Br249	Br	1.016145	-0.259741	-0.848790
Br250	Br	1.266145	-0.009741	-0.598790
Br251	Br	1.516145	0.240259	-0.348790
Br252	Br	1.766145	0.490259	-0.098790
H253	H	1.043447	-0.286926	-0.930659
H254	H	1.293447	-0.036926	-0.680659
H255	H	1.543447	0.213074	-0.430659
H256	H	1.793447	0.463074	-0.180659
H257	H	0.686766	-0.469133	-0.286945
H258	H	0.936766	-0.219133	-0.036945
H259	H	1.186766	0.030867	0.213055
H260	H	1.436766	0.280867	0.463055
H261	H	1.225519	-0.469113	-0.930634
H262	H	1.475519	-0.219113	-0.680634
H263	H	1.725519	0.030887	-0.430634
H264	H	1.975519	0.280887	-0.180634
Br265	Br	1.252592	-0.654562	-0.496609
Br266	Br	1.502592	-0.404562	-0.246609
Br267	Br	1.752592	-0.154562	0.003391
Br268	Br	2.002592	0.095438	0.253391
H269	H	0.433920	-0.469169	-0.286973
H270	H	0.683920	-0.219169	-0.036973
H271	H	0.933920	0.030831	0.213027
H272	H	1.183920	0.280831	0.463027
H273	H	1.043476	-0.286889	-1.079387
H274	H	1.293476	-0.036889	-0.829387
H275	H	1.543476	0.213111	-0.579387
H276	H	1.793476	0.463111	-0.329387
Br277	Br	1.016156	-0.259738	-0.655562
Br278	Br	1.266156	-0.009738	-0.405562
Br279	Br	1.516156	0.240262	-0.155562
Br280	Br	1.766156	0.490262	0.094438
H281	H	0.582648	-0.469152	-0.286953
H282	H	0.832648	-0.219152	-0.036953
H283	H	1.082648	0.030848	0.213047
H284	H	1.332648	0.280848	0.463047
Br285	Br	1.252654	-0.847789	-0.496661
Br286	Br	1.502654	-0.597789	-0.246661
Br287	Br	1.752654	-0.347789	0.003339
Br288	Br	2.002654	-0.097789	0.253339
H289	H	1.225474	-0.929701	-0.469378
H290	H	1.475474	-0.679701	-0.219378
H291	H	1.725474	-0.429701	0.030622
H292	H	1.975474	-0.179701	0.280622
H293	H	1.225481	-0.469147	-0.826515
H294	H	1.475481	-0.219147	-0.576515
H295	H	1.725481	0.030853	-0.326515
H296	H	1.975481	0.280853	-0.076515
H297	H	0.835498	-0.469123	-0.286932
H298	H	1.085498	-0.219123	-0.036932
H299	H	1.335498	0.030877	0.213068
H300	H	1.585498	0.280877	0.463068
H301	H	0.434038	-0.287240	-0.469455
H302	H	0.684038	-0.037240	-0.219455
H303	H	0.934038	0.212760	0.030545
H304	H	1.184038	0.462760	0.280545
Br305	Br	1.252793	-1.100639	-0.496684
Br306	Br	1.502793	-0.850639	-0.246684
Br307	Br	1.752793	-0.600639	0.003316
Br308	Br	2.002793	-0.350639	0.253316
H309	H	1.043483	-1.078701	-0.287088
H310	H	1.293483	-0.828701	-0.037088
H311	H	1.543483	-0.578701	0.212912
H312	H	1.793483	-0.328701	0.462912
H313	H	1.043412	-0.929974	-0.287063
H314	H	1.293412	-0.679974	-0.037063
H315	H	1.543412	-0.429974	0.212937
H316	H	1.793412	-0.179974	0.462937
H317	H	1.043369	-0.825855	-0.287053
H318	H	1.293369	-0.575855	-0.037053
H319	H	1.543369	-0.325855	0.212947
H320	H	1.793369	-0.075855	0.462947
H321	H	0.835613	-0.287202	-0.469423
H322	H	1.085613	-0.037202	-0.219423
H323	H	1.335613	0.212798	0.030577
H324	H	1.585613	0.462798	0.280577
Br325	Br	0.664657	-0.259998	-0.496734
Br326	Br	0.914657	-0.009998	-0.246734
Br327	Br	1.164657	0.240002	0.003266
Br328	Br	1.414657	0.490002	0.253266
Br329	Br	1.252687	-0.496455	-0.655523
Br330	Br	1.502687	-0.246455	-0.405523
Br331	Br	1.752687	0.003545	-0.155523
Br332	Br	2.002687	0.253545	0.094477
