data_functionalizedCrystal
_audit_creation_method	'MofGen! by Chris Wilmer'
_symmetry_space_group_name_H-M	'P1'
_symmetry_Int_Tables_number	1
_symmetry_cell_setting	triclinic
loop_
_symmetry_equiv_pos_as_xyz
  x,y,z
_cell_length_a	21.395361
_cell_length_b	21.395364
_cell_length_c	12.759393
_cell_angle_alpha	90.022699
_cell_angle_beta	89.960721
_cell_angle_gamma	89.971791
loop_
_atom_site_label
_atom_site_type_symbol
_atom_site_fract_x
_atom_site_fract_y
_atom_site_fract_z
Zn1	Zn	-0.249443	-0.957841	-0.594044
Zn2	Zn	-0.354235	-0.957749	-0.418341
Zn3	Zn	-0.249471	-0.853061	-0.418371
Zn4	Zn	-0.354182	-0.853025	-0.593969
O5	O	-0.301833	-0.905419	-0.506181
O6	O	-0.263354	-1.045507	-0.570756
O7	O	-0.340372	-0.943838	-0.271324
O8	O	-0.161789	-0.867014	-0.441718
O9	O	-0.340345	-1.045439	-0.441667
O10	O	-0.161769	-0.943996	-0.570785
O11	O	-0.263402	-0.866925	-0.271346
O12	O	-0.263351	-0.765379	-0.441645
O13	O	-0.340254	-0.866953	-0.741000
O14	O	-0.340281	-0.765352	-0.570657
O15	O	-0.263303	-0.943961	-0.741056
O16	O	-0.441906	-0.943803	-0.441595
O17	O	-0.441867	-0.866863	-0.570628
C18	C	-0.301814	-0.742632	-0.506147
C19	C	-0.301821	-0.672990	-0.506157
C20	C	-0.341953	-0.171197	-0.573274
C21	C	-0.341955	-0.236632	-0.573265
C22	C	-0.301837	-0.269352	-0.506198
C23	C	-0.261727	-0.236631	-0.439117
C24	C	-0.261732	-0.171197	-0.439121
C25	C	-0.245375	-0.373041	-0.498071
C26	C	-0.245370	-0.438474	-0.498075
C27	C	-0.301824	-0.471173	-0.506181
C28	C	-0.358285	-0.438430	-0.514305
C29	C	-0.358290	-0.372996	-0.514309
C30	C	-0.301828	-0.340304	-0.506186
C31	C	-0.341935	-0.574838	-0.573242
C32	C	-0.341938	-0.640275	-0.573225
C33	C	-0.261705	-0.640273	-0.439084
C34	C	-0.261708	-0.574837	-0.439095
C35	C	-0.301823	-0.542124	-0.506179
C36	C	-0.464621	-0.905336	-0.506123
C37	C	-0.534262	-0.905358	-0.506133
C38	C	-0.566974	-0.945457	-0.439014
C39	C	-0.632410	-0.945486	-0.439038
C40	C	-0.665130	-0.905406	-0.506169
C41	C	-0.632410	-0.865305	-0.573301
C42	C	-0.566975	-0.865281	-0.573283
C43	C	-0.768841	-0.848991	-0.514400
C44	C	-0.834274	-0.849013	-0.514411
C45	C	-0.866951	-0.905478	-0.506231
C46	C	-0.834186	-0.961923	-0.498018
C47	C	-0.768752	-0.961900	-0.498000
C48	C	-0.736082	-0.905427	-0.506196
C49	C	-0.970616	-0.945612	-0.439134
C50	C	-1.036053	-0.945642	-0.439165
C51	C	-1.036051	-0.865455	-0.573422
C52	C	-0.970616	-0.865430	-0.573397
C53	C	-0.937902	-0.905508	-0.506247
C54	C	-0.138410	-0.905519	-0.506263
C55	C	-0.068768	-0.905562	-0.506298
C56	C	-0.301770	-0.905463	-0.780215
C57	C	-0.301743	-0.905482	-0.896992
C58	C	-0.301849	-0.068842	-0.506210
C59	C	-0.301846	-0.138484	-0.506206
C60	C	-0.261657	-0.865447	-0.951864
C61	C	-0.261638	-0.865462	-1.061589
C62	C	-0.341791	-0.945551	-1.061557
C63	C	-0.341813	-0.945532	-0.951835
C64	C	-0.301851	-0.905412	-0.233214
C65	C	-0.301701	-0.905514	-0.116438
H66	H	-0.374620	-0.144566	-0.627896
H67	H	-0.199395	-0.465128	-0.491472
H68	H	-0.374458	-0.978135	-0.907156
H69	H	-0.374602	-0.666909	-0.627837
H70	H	-0.659050	-0.978141	-0.384382
O71	O	-0.733410	-1.022773	-0.489157
H72	H	-0.767120	-1.062045	-0.483479
O73	O	-0.419181	-0.473689	-0.523049
H74	H	-0.449902	-0.461091	-0.456159
H75	H	-0.229047	-0.548202	-0.384484
H76	H	-0.860790	-1.007903	-0.491357
O77	O	-0.935324	-0.988843	-0.366727
H78	H	-0.969068	-1.016740	-0.320071
O79	O	-0.184485	-0.337769	-0.489325
H80	H	-0.153767	-0.350350	-0.556228
H81	H	-0.229065	-0.263276	-0.384510
H82	H	-1.062686	-0.978298	-0.384510
H83	H	-0.229043	-0.666912	-0.384473
H84	H	-0.228997	-0.832861	-1.106261
O85	O	-1.071331	-0.822221	-0.645828
H86	H	-1.122328	-0.828970	-0.634560
O87	O	-0.869612	-0.788137	-0.523263
H88	H	-0.857042	-0.764739	-0.597980
H89	H	-0.374415	-0.978159	-1.106224
H90	H	-0.229070	-0.144562	-0.384506
O91	O	-0.218440	-0.822251	-0.892708
H92	H	-0.229177	-0.773073	-0.913743
H93	H	-0.404263	-0.346340	-0.520921
O94	O	-0.385208	-0.271928	-0.645614
H95	H	-0.413099	-0.238187	-0.692267
O96	O	-0.385223	-0.539547	-0.645551
H97	H	-0.413127	-0.573291	-0.692164
H98	H	-0.540341	-0.978091	-0.384339
H99	H	-0.943979	-0.832776	-0.628047
O100	O	-0.733603	-0.788082	-0.523222
H101	H	-0.682599	-0.797548	-0.521840
H102	H	-0.659055	-0.832672	-0.627962
H103	H	-0.540340	-0.832628	-0.627941
