data_functionalizedCrystal
_audit_creation_method	'MofGen! by Chris Wilmer'
_symmetry_space_group_name_H-M	'P1'
_symmetry_Int_Tables_number	1
_symmetry_cell_setting	triclinic
loop_
_symmetry_equiv_pos_as_xyz
  x,y,z
_cell_length_a	12.759401
_cell_length_b	21.395361
_cell_length_c	12.759393
_cell_angle_alpha	90.035693
_cell_angle_beta	89.980404
_cell_angle_gamma	89.969189
loop_
_atom_site_label
_atom_site_type_symbol
_atom_site_fract_x
_atom_site_fract_y
_atom_site_fract_z
Zn1	Zn	1.606151	0.249404	-0.593945
Zn2	Zn	1.605993	0.354194	-0.418249
Zn3	Zn	1.430449	0.249435	-0.418284
Zn4	Zn	1.430393	0.354148	-0.593890
O5	O	1.518247	0.301795	-0.506092
O6	O	1.753151	0.263311	-0.570646
O7	O	1.582665	0.340330	-0.271232
O8	O	1.453846	0.161753	-0.441623
O9	O	1.753035	0.340299	-0.441563
O10	O	1.582933	0.161730	-0.570680
O11	O	1.453694	0.263363	-0.271258
O12	O	1.283421	0.263319	-0.441570
O13	O	1.453750	0.340221	-0.740918
O14	O	1.283379	0.340251	-0.570587
O15	O	1.582878	0.263266	-0.740958
O16	O	1.582610	0.441866	-0.441510
O17	O	1.453597	0.441832	-0.570553
C18	C	1.245279	0.301784	-0.506077
C19	C	1.128503	0.301794	-0.506096
C20	C	0.963915	0.341923	-0.573177
C21	C	1.073639	0.341916	-0.573166
C22	C	1.073636	0.261681	-0.439025
C23	C	0.963914	0.261691	-0.439032
C24	C	1.518109	0.464583	-0.506045
C25	C	1.518146	0.534224	-0.506060
C26	C	1.585383	0.566934	-0.438939
C27	C	1.585432	0.632369	-0.438967
C28	C	1.518226	0.665092	-0.506106
C29	C	1.450984	0.632374	-0.573240
C30	C	1.450944	0.566940	-0.573217
C31	C	1.423628	0.768806	-0.514351
C32	C	1.423666	0.834239	-0.514367
C33	C	1.518349	0.866913	-0.506182
C34	C	1.612997	0.834146	-0.497959
C35	C	1.612957	0.768711	-0.497937
C36	C	1.518262	0.736045	-0.506138
C37	C	1.585645	0.970575	-0.439087
C38	C	1.585696	1.036012	-0.439123
C39	C	1.451239	1.036016	-0.573391
C40	C	1.451197	0.970580	-0.573361
C41	C	1.518399	0.937864	-0.506203
C42	C	1.792280	0.301807	-0.506107
C43	C	1.909056	0.301812	-0.506113
C44	C	1.518325	0.301735	-0.780125
C45	C	1.518359	0.301709	-0.896902
C46	C	1.518415	1.138372	-0.506180
C47	C	1.518490	1.068730	-0.506263
C48	C	1.585601	0.261632	-0.951786
C49	C	1.585619	0.261605	-1.061511
C50	C	1.451149	0.341738	-1.061456
C51	C	1.451127	0.341761	-0.951734
C52	C	1.518229	0.301810	-0.233124
C53	C	1.518399	0.301659	-0.116348
H54	H	0.919247	0.229027	-0.384416
H55	H	1.396414	0.374348	-1.106114
H56	H	1.396523	1.062658	-0.628061
H57	H	1.640343	0.229018	-0.907146
H58	H	1.396266	0.659022	-0.627907
Br59	Br	1.676841	0.926171	-0.347945
Br60	Br	1.676965	1.080406	-0.348032
H61	H	1.640372	0.228970	-1.106193
H62	H	1.118301	0.374580	-0.627774
H63	H	1.118314	0.229015	-0.384411
H64	H	1.396363	0.374396	-0.907046
Br65	Br	1.676688	0.676771	-0.347867
Br66	Br	0.889469	0.396373	-0.664213
H67	H	1.640105	0.540298	-0.384258
H68	H	1.690097	0.860747	-0.491295
Br69	Br	1.741400	0.724243	-0.486786
Br70	Br	1.359939	0.926185	-0.664457
H71	H	1.346598	0.860913	-0.521052
H72	H	1.346519	0.742210	-0.521021
Br73	Br	1.359689	0.522545	-0.664320
