data_functionalizedCrystal
_audit_creation_method	'MofGen! by Chris Wilmer'
_symmetry_space_group_name_H-M	'P1'
_symmetry_Int_Tables_number	1
_symmetry_cell_setting	triclinic
loop_
_symmetry_equiv_pos_as_xyz
  x,y,z
_cell_length_a	12.759401
_cell_length_b	21.395361
_cell_length_c	12.759393
_cell_angle_alpha	89.961845
_cell_angle_beta	89.980324
_cell_angle_gamma	90.031135
loop_
_atom_site_label
_atom_site_type_symbol
_atom_site_fract_x
_atom_site_fract_y
_atom_site_fract_z
Zn1	Zn	1.606149	-0.249401	-0.593929
Zn2	Zn	1.605991	-0.354191	-0.418225
Zn3	Zn	1.430448	-0.249432	-0.418268
Zn4	Zn	1.430391	-0.354146	-0.593866
O5	O	1.518245	-0.301793	-0.506072
O6	O	1.753150	-0.263308	-0.570630
O7	O	1.582663	-0.340327	-0.271210
O8	O	1.453845	-0.161750	-0.441613
O9	O	1.753033	-0.340297	-0.441541
O10	O	1.582932	-0.161727	-0.570671
O11	O	1.453692	-0.263361	-0.271241
O12	O	1.283420	-0.263317	-0.441553
O13	O	1.453748	-0.340219	-0.740896
O14	O	1.283378	-0.340249	-0.570565
O15	O	1.582877	-0.263263	-0.740942
O16	O	1.582608	-0.441863	-0.441481
O17	O	1.453595	-0.441830	-0.570524
C18	C	1.245278	-0.301782	-0.506057
C19	C	1.128501	-0.301792	-0.506076
C20	C	1.073700	-0.261777	-0.573396
C21	C	0.963976	-0.261783	-0.573403
C22	C	0.963864	-0.341826	-0.438767
C23	C	1.073586	-0.341816	-0.438755
C24	C	1.518106	-0.464580	-0.506014
C25	C	1.518143	-0.534222	-0.506024
C26	C	1.585380	-0.566931	-0.438900
C27	C	1.585429	-0.632367	-0.438924
C28	C	1.518222	-0.665090	-0.506060
C29	C	1.450981	-0.632372	-0.573197
C30	C	1.450941	-0.566938	-0.573179
C31	C	1.423624	-0.768804	-0.514298
C32	C	1.423662	-0.834237	-0.514309
C33	C	1.518344	-0.866911	-0.506121
C34	C	1.612992	-0.834143	-0.497901
C35	C	1.612953	-0.768709	-0.497884
C36	C	1.518258	-0.736042	-0.506087
C37	C	1.585640	-0.970573	-0.439020
C38	C	1.585690	-1.036009	-0.439050
C39	C	1.451233	-1.036014	-0.573318
C40	C	1.451192	-0.970578	-0.573293
C41	C	1.518394	-0.937862	-0.506138
C42	C	1.792278	-0.301804	-0.506088
C43	C	1.909055	-0.301809	-0.506094
C44	C	1.518324	-0.301732	-0.780106
C45	C	1.518357	-0.301707	-0.896882
C46	C	1.518413	-0.138369	-0.506154
C47	C	1.518484	-0.068728	-0.506189
C48	C	1.585600	-0.261630	-0.951770
C49	C	1.585617	-0.261603	-1.061494
C50	C	1.451147	-0.341735	-1.061433
C51	C	1.451125	-0.341759	-0.951711
C52	C	1.518227	-0.301807	-0.233105
C53	C	1.518397	-0.301656	-0.116329
H54	H	1.118206	-0.374402	-0.383930
O55	O	1.132930	-0.218600	-0.645988
H56	H	1.111895	-0.229398	-0.728414
O57	O	0.904635	-0.384997	-0.366163
H58	H	0.819131	-0.378286	-0.377486
O59	O	1.657963	-0.667665	-0.366545
H60	H	1.610989	-0.697539	-0.313072
O61	O	1.378662	-0.935297	-0.645687
H62	H	1.389930	-0.884299	-0.634402
H63	H	1.640371	-0.228967	-1.106179
H64	H	1.396412	-0.374345	-1.106089
O65	O	1.657872	-0.531643	-0.366487
H66	H	1.704643	-0.565386	-0.319824
H67	H	1.690018	-0.742031	-0.491193
H68	H	1.640342	-0.229015	-0.907131
H69	H	1.396188	-0.540305	-0.627840
H70	H	1.396517	-1.062656	-0.627986
H71	H	1.396361	-0.374394	-0.907021
O72	O	1.658215	-1.071297	-0.366655
H73	H	1.640219	-1.058798	-0.284178
O74	O	1.378495	-0.667666	-0.645608
H75	H	1.331738	-0.633924	-0.692288
H76	H	1.640363	-0.943934	-0.384341
H77	H	1.346593	-0.860911	-0.520991
H78	H	0.919362	-0.229197	-0.628220
H79	H	1.690092	-0.860744	-0.491235
O80	O	1.321495	-0.733564	-0.523122
H81	H	1.255689	-0.767340	-0.528821
