data_functionalizedCrystal
_audit_creation_method	'MofGen! by Chris Wilmer'
_symmetry_space_group_name_H-M	'P1'
_symmetry_Int_Tables_number	1
_symmetry_cell_setting	triclinic
loop_
_symmetry_equiv_pos_as_xyz
  x,y,z
_cell_length_a	12.759401
_cell_length_b	17.077402
_cell_length_c	12.759393
_cell_angle_alpha	89.964187
_cell_angle_beta	89.980163
_cell_angle_gamma	90.024408
loop_
_atom_site_label
_atom_site_type_symbol
_atom_site_fract_x
_atom_site_fract_y
_atom_site_fract_z
Zn1	Zn	1.606195	-0.312430	-0.593990
Zn2	Zn	1.939529	0.020904	-0.260656
Zn3	Zn	2.272862	0.354237	0.072677
Zn4	Zn	1.606065	-0.443718	-0.418297
Zn5	Zn	1.939398	-0.110385	-0.084963
Zn6	Zn	2.272731	0.222948	0.248370
Zn7	Zn	1.430497	-0.312474	-0.418325
Zn8	Zn	1.763831	0.020859	-0.084991
Zn9	Zn	2.097164	0.354193	0.248342
Zn10	Zn	1.430461	-0.443661	-0.593934
Zn11	Zn	1.763794	-0.110327	-0.260601
Zn12	Zn	2.097127	0.223006	0.072733
O13	O	1.518304	-0.378071	-0.506136
O14	O	1.851638	-0.044737	-0.172803
O15	O	2.184971	0.288596	0.160530
O16	O	1.753199	-0.329851	-0.570695
O17	O	2.086532	0.003483	-0.237362
O18	O	2.419866	0.336816	0.095972
O19	O	1.582736	-0.426351	-0.271279
O20	O	1.916069	-0.093018	0.062054
O21	O	2.249403	0.240316	0.395387
O22	O	1.453874	-0.202621	-0.441662
O23	O	1.787207	0.130712	-0.108329
O24	O	2.120541	0.464046	0.225005
O25	O	1.753103	-0.426308	-0.441614
O26	O	2.086436	-0.092975	-0.108281
O27	O	2.419770	0.240359	0.225052
O28	O	1.582958	-0.202588	-0.570722
O29	O	1.916292	0.130745	-0.237389
O30	O	2.249625	0.464078	0.095945
O31	O	1.453747	-0.329926	-0.271300
O32	O	1.787081	0.003407	0.062033
O33	O	2.120414	0.336740	0.395367
O34	O	1.283471	-0.329871	-0.441608
O35	O	1.616805	0.003463	-0.108275
O36	O	1.950138	0.336796	0.225059
O37	O	1.453812	-0.426210	-0.740962
O38	O	1.787145	-0.092877	-0.407629
O39	O	2.120478	0.240457	-0.074296
O40	O	1.283445	-0.426253	-0.570627
O41	O	1.616778	-0.092920	-0.237294
O42	O	1.950111	0.240414	0.096039
O43	O	1.582923	-0.329795	-0.741003
O44	O	1.916256	0.003538	-0.407670
O45	O	2.249590	0.336872	-0.074337
O46	O	1.582700	-0.553558	-0.441560
O47	O	1.916034	-0.220224	-0.108227
O48	O	2.249367	0.113109	0.225106
O49	O	1.453685	-0.553515	-0.570600
O50	O	1.787018	-0.220182	-0.237267
O51	O	2.120352	0.113151	0.096066
C52	C	1.245337	-0.378061	-0.506115
C53	C	1.578670	-0.044728	-0.172782
C54	C	1.912004	0.288606	0.160551
C55	C	1.128560	-0.378076	-0.506131
C56	C	1.461894	-0.044742	-0.172798
C57	C	1.795227	0.288591	0.160535
C58	C	1.073712	-0.428339	-0.573206
C59	C	1.407045	-0.095005	-0.239873
C60	C	1.740379	0.238328	0.093461
C61	C	0.963988	-0.428342	-0.573227
C62	C	1.297321	-0.095008	-0.239894
C63	C	1.630655	0.238325	0.093440
C64	C	0.963970	-0.327817	-0.439089
C65	C	1.297304	0.005516	-0.105756
C66	C	1.630637	0.338850	0.227577
C67	C	1.073693	-0.327811	-0.439075
C68	C	1.407026	0.005523	-0.105741
C69	C	1.740359	0.338856	0.227592
C70	C	1.518203	-0.582018	-0.506094
C71	C	1.851536	-0.248685	-0.172761
C72	C	2.184870	0.084648	0.160572
C73	C	1.518256	-0.669268	-0.506111
C74	C	1.851589	-0.335935	-0.172778
C75	C	2.184922	-0.002602	0.160555
C76	C	1.585503	-0.710254	-0.438993
C77	C	1.918836	-0.376921	-0.105659
C78	C	2.252169	-0.043588	0.227674
C79	C	1.585554	-0.792235	-0.439019
C80	C	1.918887	-0.458901	-0.105686
C81	C	2.252221	-0.125568	0.227647
C82	C	1.518352	-0.833228	-0.506161
C83	C	1.851686	-0.499894	-0.172827
C84	C	2.185019	-0.166561	0.160506
C85	C	1.451103	-0.792236	-0.573287
C86	C	1.784436	-0.458902	-0.239954
C87	C	2.117769	-0.125569	0.093380
C88	C	1.451057	-0.710257	-0.573265
C89	C	1.784391	-0.376924	-0.239931
C90	C	2.117724	-0.043590	0.093402
C91	C	1.451200	-0.963106	-0.573327
C92	C	1.784533	-0.629772	-0.239993
C93	C	2.117867	-0.296439	0.093340
C94	C	1.451244	-1.045090	-0.573348
C95	C	1.784577	-0.711757	-0.240015
C96	C	2.117910	-0.378424	0.093319
C97	C	1.585697	-1.045084	-0.439082
C98	C	1.919030	-0.711750	-0.105748
C99	C	2.252363	-0.378417	0.227585
C100	C	1.585651	-0.963105	-0.439059
C101	C	1.918985	-0.629771	-0.105726
C102	C	2.252318	-0.296438	0.227607
C103	C	1.518400	-0.922119	-0.506184
C104	C	1.851733	-0.588785	-0.172851
C105	C	2.185067	-0.255452	0.160482
C106	C	1.792338	-0.378081	-0.506158
C107	C	2.125671	-0.044747	-0.172824
C108	C	2.459004	0.288586	0.160509
C109	C	1.909114	-0.378085	-0.506167
C110	C	2.242448	-0.044752	-0.172834
C111	C	2.575781	0.288582	0.160500
C112	C	1.518378	-0.377991	-0.780170
C113	C	1.851711	-0.044658	-0.446836
C114	C	2.185045	0.288675	-0.113503
C115	C	1.518409	-0.377957	-0.896946
C116	C	1.851742	-0.044624	-0.563613
C117	C	2.185076	0.288709	-0.230280
C118	C	1.518435	-0.173326	-0.506201
C119	C	1.851768	0.160007	-0.172868
C120	C	2.185102	0.493340	0.160465
C121	C	1.518490	-0.086076	-0.506229
C122	C	1.851824	0.247257	-0.172896
C123	C	2.185157	0.580590	0.160438
C124	C	1.451269	-0.327740	-0.951819
C125	C	1.784602	0.005593	-0.618485
C126	C	2.117936	0.338927	-0.285152
C127	C	1.451293	-0.327716	-1.061543
C128	C	1.784627	0.005618	-0.728209
C129	C	2.117960	0.338951	-0.394876
C130	C	1.585607	-0.428129	-1.061513
C131	C	1.918941	-0.094795	-0.728180
C132	C	2.252274	0.238538	-0.394846
C133	C	1.585577	-0.428156	-0.951791
C134	C	1.918910	-0.094823	-0.618457
C135	C	2.252243	0.238510	-0.285124
C136	C	1.518292	-0.378093	-0.233169
C137	C	1.851625	-0.044760	0.100164
C138	C	2.184959	0.288574	0.433498
C139	C	1.518464	-0.377906	-0.116393
C140	C	1.851797	-0.044572	0.216941
C141	C	2.185131	0.288761	0.550274
H142	H	1.118351	-0.286876	-0.384454
H143	H	1.451685	0.046458	-0.051121
H144	H	1.785018	0.379791	0.282212
H145	H	1.640221	-0.676883	-0.384314
H146	H	1.973555	-0.343550	-0.050981
H147	H	2.306888	-0.010217	0.282353
H148	H	1.640367	-0.929728	-0.384383
H149	H	1.973700	-0.596395	-0.051049
H150	H	2.307033	-0.263062	0.282284
H151	H	1.118382	-0.469266	-0.627811
H152	H	1.451716	-0.135932	-0.294477
H153	H	1.785049	0.197401	0.038856
H154	H	1.640459	-1.078458	-0.384429
H155	H	1.973792	-0.745125	-0.051096
H156	H	2.307126	-0.411792	0.282238
F157	F	1.657131	-0.835852	-0.367585
F158	F	1.990464	-0.502518	-0.034252
F159	F	2.323797	-0.169185	0.299082
H160	H	0.919335	-0.469269	-0.627847
H161	H	1.252669	-0.135936	-0.294514
H162	H	1.586002	0.197397	0.038819
F163	F	1.379711	-1.088717	-0.644797
F164	F	1.713044	-0.755383	-0.311464
F165	F	2.046377	-0.422050	0.021869
F166	F	1.379487	-0.666637	-0.644705
F167	F	1.712820	-0.333304	-0.311371
F168	F	2.046153	0.000030	0.021962
H169	H	1.396620	-0.286824	-1.106215
H170	H	1.729954	0.046509	-0.772882
H171	H	2.063287	0.379842	-0.439548
H172	H	0.919284	-0.286894	-0.384493
H173	H	1.252617	0.046439	-0.051159
H174	H	1.585950	0.379773	0.282174
H175	H	1.396440	-0.929738	-0.627991
H176	H	1.729773	-0.596404	-0.294658
H177	H	2.063107	-0.263071	0.038676
H178	H	1.396390	-0.825619	-0.627959
H179	H	1.729724	-0.492285	-0.294626
H180	H	2.063057	-0.158952	0.038708
F181	F	1.379781	-0.274316	-0.893453
F182	F	1.713114	0.059017	-0.560120
F183	F	2.046447	0.392351	-0.226786
F184	F	1.657089	-0.481550	-1.119891
F185	F	1.990423	-0.148216	-0.786558
F186	F	2.323756	0.185117	-0.453225
H187	H	1.640253	-0.469052	-0.907113
H188	H	1.973586	-0.135719	-0.573779
H189	H	2.306920	0.197614	-0.240446
