data_functionalizedCrystal
_audit_creation_method	'MofGen! by Chris Wilmer'
_symmetry_space_group_name_H-M	'P1'
_symmetry_Int_Tables_number	1
_symmetry_cell_setting	triclinic
loop_
_symmetry_equiv_pos_as_xyz
  x,y,z
_cell_length_a	21.395355
_cell_length_b	21.395362
_cell_length_c	21.395361
_cell_angle_alpha	90.046585
_cell_angle_beta	90.021511
_cell_angle_gamma	90.043940
loop_
_atom_site_label
_atom_site_type_symbol
_atom_site_fract_x
_atom_site_fract_y
_atom_site_fract_z
Zn1	Zn	-0.354573	-0.957859	0.249246
Zn2	Zn	0.145427	-0.457859	0.749246
Zn3	Zn	-0.249790	-0.957762	0.354005
Zn4	Zn	0.250210	-0.457762	0.854005
Zn5	Zn	-0.249774	-0.853074	0.249275
Zn6	Zn	0.250226	-0.353074	0.749275
Zn7	Zn	-0.354494	-0.853044	0.354018
Zn8	Zn	0.145506	-0.353044	0.854018
O9	O	-0.302158	-0.905435	0.301636
O10	O	0.197842	-0.405435	0.801636
O11	O	-0.340712	-1.045524	0.263125
O12	O	0.159288	-0.545524	0.763125
O13	O	-0.162110	-0.943847	0.340119
O14	O	0.337890	-0.443847	0.840119
O15	O	-0.263702	-0.867028	0.161593
O16	O	0.236298	-0.367028	0.661593
O17	O	-0.263729	-1.045453	0.340091
O18	O	0.236271	-0.545453	0.840091
O19	O	-0.340697	-0.944013	0.161572
O20	O	0.159303	-0.444013	0.661572
O21	O	-0.162098	-0.866934	0.263174
O22	O	0.337902	-0.366934	0.763174
O23	O	-0.263626	-0.765392	0.263187
O24	O	0.236374	-0.265392	0.763187
O25	O	-0.442183	-0.866976	0.340113
O26	O	0.057817	-0.366976	0.840113
O27	O	-0.340564	-0.765370	0.340141
O28	O	0.159436	-0.265370	0.840141
O29	O	-0.442240	-0.943983	0.263137
O30	O	0.057760	-0.443983	0.763137
O31	O	-0.263653	-0.943817	0.441685
O32	O	0.236347	-0.443817	0.941685
O33	O	-0.340579	-0.866881	0.441695
O34	O	0.159421	-0.366881	0.941695
C35	C	-0.302085	-0.742647	0.301669
C36	C	0.197915	-0.242647	0.801669
C37	C	-0.302069	-0.673006	0.301698
C38	C	0.197931	-0.173006	0.801698
C39	C	-0.465581	-0.905487	0.301623
C40	C	0.034419	-0.405487	0.801623
C41	C	-0.535222	-0.905509	0.301618
C42	C	-0.035222	-0.405509	0.801618
C43	C	-0.302123	-0.905352	0.464424
C44	C	0.197877	-0.405352	0.964424
C45	C	-0.302129	-0.905374	0.534065
C46	C	0.197871	-0.405374	1.034065
C47	C	-0.567966	-0.945605	0.261535
C48	C	-0.067966	-0.445605	0.761535
C49	C	-0.633402	-0.945604	0.261508
C50	C	-0.133402	-0.445604	0.761508
C51	C	-0.666091	-0.905514	0.301575
C52	C	-0.166091	-0.405514	0.801575
C53	C	-0.633339	-0.865410	0.341661
C54	C	-0.133339	-0.365410	0.841661
C55	C	-0.567904	-0.865407	0.341682
C56	C	-0.067904	-0.365407	0.841682
C57	C	-0.769752	-0.900538	0.357992
C58	C	-0.269752	-0.400538	0.857992
C59	C	-0.835185	-0.900545	0.357972
C60	C	-0.335185	-0.400545	0.857972
C61	C	-0.867911	-0.905518	0.301509
C62	C	-0.367911	-0.405518	0.801509
C63	C	-0.835197	-0.910497	0.245065
C64	C	-0.335197	-0.410497	0.745065
C65	C	-0.769763	-0.910495	0.245086
C66	C	-0.269763	-0.410495	0.745086
C67	C	-0.737043	-0.905512	0.301556
C68	C	-0.237043	-0.405512	0.801556
C69	C	-0.971608	-0.945615	0.261393
C70	C	-0.471608	-0.445615	0.761393
C71	C	-1.037045	-0.945610	0.261365
C72	C	-0.537045	-0.445610	0.761365
C73	C	-1.036980	-0.865419	0.341524
C74	C	-0.536980	-0.365419	0.841524
C75	C	-0.971545	-0.865421	0.341547
C76	C	-0.471545	-0.365421	0.841547
C77	C	-0.938863	-0.905522	0.301482
C78	C	-0.438863	-0.405522	0.801482
C79	C	-0.139370	-0.905419	0.301603
C80	C	0.360630	-0.405419	0.801603
C81	C	-0.069729	-0.905518	0.301432
C82	C	0.430271	-0.405518	0.801432
C83	C	-0.302231	-1.068858	0.301603
C84	C	0.197769	-0.568858	0.801603
C85	C	-0.302262	-1.138499	0.301589
C86	C	0.197738	-0.638499	0.801589
C87	C	-0.342070	-0.640297	0.341822
C88	C	0.157930	-0.140297	0.841822
C89	C	-0.342098	-0.574862	0.341806
C90	C	0.157902	-0.074862	0.841806
C91	C	-0.302113	-0.542138	0.301674
C92	C	0.197887	-0.042138	0.801674
C93	C	-0.262109	-0.574854	0.261543
C94	C	0.237891	-0.074854	0.761543
C95	C	-0.262087	-0.640288	0.261555
C96	C	0.237913	-0.140288	0.761555
C97	C	-0.245708	-0.438413	0.296627
C98	C	0.254292	0.061587	0.796627
C99	C	-0.245730	-0.372980	0.296619
C100	C	0.254270	0.127020	0.796619
C101	C	-0.302182	-0.340317	0.301633
C102	C	0.197818	0.159683	0.801633
C103	C	-0.358616	-0.373095	0.306668
C104	C	0.141384	0.126905	0.806668
C105	C	-0.358594	-0.438529	0.306681
C106	C	0.141406	0.061471	0.806681
C107	C	-0.302133	-0.471185	0.301656
C108	C	0.197867	0.028815	0.801656
C109	C	-0.342218	-0.236656	0.341742
C110	C	0.157782	0.263344	0.841742
C111	C	-0.342247	-0.171219	0.341723
C112	C	0.157753	0.328781	0.841723
C113	C	-0.262252	-0.171213	0.261462
C114	C	0.237748	0.328787	0.761462
C115	C	-0.262229	-0.236648	0.261479
C116	C	0.237771	0.263352	0.761479
C117	C	-0.302211	-0.269366	0.301622
C118	C	0.197789	0.230634	0.801622
C119	C	-0.302206	-0.905535	0.138213
C120	C	0.197794	-0.405535	0.638213
C121	C	-0.302227	-0.905578	0.068571
C122	C	0.197773	-0.405578	0.568571
C123	C	-0.262114	-0.945470	0.566752
C124	C	0.237886	-0.445470	1.066752
C125	C	-0.262128	-0.945499	0.632188
C126	C	0.237872	-0.445499	1.132188
C127	C	-0.302150	-0.905421	0.664933
C128	C	0.197850	-0.405421	1.164933
C129	C	-0.342172	-0.865322	0.632238
C130	C	0.157828	-0.365322	1.132238
C131	C	-0.342162	-0.865299	0.566804
C132	C	0.157838	-0.365299	1.066804
C133	C	-0.307041	-0.849006	0.768664
C134	C	0.192959	-0.349006	1.268664
C135	C	-0.307047	-0.849029	0.834097
C136	C	0.192953	-0.349029	1.334097
C137	C	-0.302187	-0.905494	0.866754
C138	C	0.197813	-0.405494	1.366754
C139	C	-0.297307	-0.961939	0.833970
C140	C	0.202693	-0.461939	1.333970
C141	C	-0.297296	-0.961915	0.768536
C142	C	0.202704	-0.461915	1.268536
C143	C	-0.302167	-0.905443	0.735886
C144	C	0.197833	-0.405443	1.235886
C145	C	-0.262186	-0.945625	0.970394
C146	C	0.237814	-0.445625	1.470394
C147	C	-0.262204	-0.945655	1.035830
C148	C	0.237796	-0.445655	1.535830
C149	C	-0.342245	-0.865473	1.035879
C150	C	0.157755	-0.365473	1.535879
C151	C	-0.342230	-0.865448	0.970444
C152	C	0.157770	-0.365448	1.470444
C153	C	-0.302197	-0.905524	0.937705
C154	C	0.197803	-0.405524	1.437705
H155	H	-0.541360	-0.978258	0.228910
H156	H	-0.041360	-0.478258	0.728910
C157	C	-0.218159	-0.989712	0.934378
C158	C	0.281841	-0.489712	1.434378
H159	H	-0.194336	-1.013604	0.963220
H160	H	0.305664	-0.513604	1.463220
H161	H	-0.190823	-0.965750	0.908896
H162	H	0.309177	-0.465750	1.408896
H163	H	-0.242162	-1.016991	0.908807
H164	H	0.257838	-0.516991	1.408807
H165	H	-0.229544	-0.978153	0.658807
H166	H	0.270456	-0.478153	1.158807
C167	C	-0.386055	-0.676283	0.385970
C168	C	0.113945	-0.176283	0.885970
H169	H	-0.409887	-0.647428	0.409860
H170	H	0.090113	-0.147428	0.909860
H171	H	-0.362032	-0.701758	0.413239
H172	H	0.137968	-0.201758	0.913239
H173	H	-0.413394	-0.701860	0.362042
H174	H	0.086606	-0.201860	0.862042
C175	C	-0.386201	-0.272651	0.385888
C176	C	0.113799	0.227349	0.885888
H177	H	-0.380454	-0.316306	0.380154
H178	H	0.119546	0.183694	0.880154
H179	H	-0.428319	-0.261984	0.376776
H180	H	0.071681	0.238016	0.876776
H181	H	-0.376957	-0.261874	0.427973
H182	H	0.123043	0.238126	0.927973
C183	C	-0.218180	-0.989755	1.071790
C184	C	0.281820	-0.489755	1.571790
H185	H	-0.223921	-0.984033	1.115449
H186	H	0.276079	-0.484033	1.615449
H187	H	-0.176072	-0.980591	1.061098
H188	H	0.323928	-0.480591	1.561098
H189	H	-0.227393	-1.031850	1.061014
H190	H	0.272607	-0.531850	1.561014
H191	H	-0.229513	-0.666919	0.228880
H192	H	0.270487	-0.166919	0.728880
H193	H	-0.374824	-0.144589	0.374395
H194	H	0.125176	0.355411	0.874395
C195	C	-0.312415	-0.786944	0.870153
C196	C	0.187585	-0.286944	1.370153
H197	H	-0.315320	-0.753313	0.841334
H198	H	0.184680	-0.253313	1.341334
H199	H	-0.276505	-0.781459	0.895705
H200	H	0.223495	-0.281459	1.395705
H201	H	-0.348743	-0.787754	0.895659
H202	H	0.151257	-0.287754	1.395659
H203	H	-0.199734	-0.465002	0.292541
H204	H	0.300266	0.034998	0.792541
C205	C	-0.183655	-0.336927	0.291125
C206	C	0.316345	0.163073	0.791125
H207	H	-0.191750	-0.293279	0.291857
H208	H	0.308250	0.206721	0.791857
H209	H	-0.163661	-0.347649	0.252963
H210	H	0.336339	0.152351	0.752963
H211	H	-0.157257	-0.347605	0.325189
H212	H	0.342743	0.152395	0.825189
C213	C	-0.386138	-0.538875	0.385907
C214	C	0.113862	-0.038875	0.885907
H215	H	-0.409955	-0.567732	0.409807
H216	H	0.090045	-0.067732	0.909807
H217	H	-0.413478	-0.513422	0.361942
H218	H	0.086522	-0.013422	0.861942
H219	H	-0.362156	-0.513277	0.413179
H220	H	0.137844	-0.013277	0.913179
H221	H	-0.229519	-0.978103	0.540098
H222	H	0.270481	-0.478103	1.040098
H223	H	-0.944885	-0.832774	0.374190
H224	H	-0.444885	-0.332774	0.874190
H225	H	-0.374760	-0.832691	0.658904
H226	H	0.125240	-0.332691	1.158904
C227	C	-0.420663	-0.474586	0.312216
C228	C	0.079337	0.025414	0.812216
H229	H	-0.412561	-0.518233	0.311510
H230	H	0.087439	-0.018233	0.811510
H231	H	-0.447088	-0.463928	0.278171
H232	H	0.052912	0.036072	0.778171
H233	H	-0.440628	-0.463847	0.350392
H234	H	0.059372	0.036153	0.850392
C235	C	-0.386176	-0.821188	0.530846
C236	C	0.113824	-0.321188	1.030846
H237	H	-0.410013	-0.797320	0.559717
H238	H	0.089987	-0.297320	1.059717
H239	H	-0.413499	-0.845131	0.505274
H240	H	0.086501	-0.345131	1.005274
H241	H	-0.362164	-0.793887	0.505369
H242	H	0.137836	-0.293887	1.005369
C243	C	-0.420718	-0.337175	0.312182
C244	C	0.079282	0.162825	0.812182
H245	H	-0.412652	-0.293510	0.311446
H246	H	0.087348	0.206490	0.811446
H247	H	-0.440679	-0.347880	0.350357
H248	H	0.059321	0.152120	0.850357
H249	H	-0.447130	-0.347965	0.278135
H250	H	0.052870	0.152035	0.778135
C251	C	-0.386271	-0.821388	1.071889
C252	C	0.113729	-0.321388	1.571889
H253	H	-0.410103	-0.797506	1.043046
H254	H	0.089897	-0.297506	1.543046
H255	H	-0.362276	-0.794110	1.097462
H256	H	0.137724	-0.294110	1.597462
H257	H	-0.413608	-0.845357	1.097368
H258	H	0.086392	-0.345357	1.597368
C259	C	-0.871164	-0.895066	0.420056
C260	C	-0.371164	-0.395066	0.920056
H261	H	-0.842303	-0.892091	0.453685
H262	H	-0.342303	-0.392091	0.953685
H263	H	-0.896716	-0.930970	0.425554
H264	H	-0.396716	-0.430970	0.925554
H265	H	-0.896662	-0.858744	0.419234
H266	H	-0.396662	-0.358744	0.919234
C267	C	-0.669291	-0.821311	0.385736
C268	C	-0.169291	-0.321311	0.885736
H269	H	-0.640415	-0.797426	0.409609
H270	H	-0.140415	-0.297426	0.909609
H271	H	-0.694832	-0.845262	0.413023
H272	H	-0.194832	-0.345262	0.913023
H273	H	-0.694798	-0.794026	0.361761
H274	H	-0.194798	-0.294026	0.861761
C275	C	-0.386240	-0.821339	0.934483
C276	C	0.113760	-0.321339	1.434483
H277	H	-0.380506	-0.827068	0.890824
H278	H	0.119494	-0.327068	1.390824
H279	H	-0.377022	-0.779249	0.945261
H280	H	0.122978	-0.279249	1.445261
H281	H	-0.428353	-0.830497	0.945174
H282	H	0.071647	-0.330497	1.445174
C283	C	-1.072927	-0.821317	0.385597
C284	C	-0.572927	-0.321317	0.885597
H285	H	-1.044051	-0.797434	0.409471
H286	H	-0.544051	-0.297434	0.909471
H287	H	-1.098472	-0.845265	0.412883
H288	H	-0.598472	-0.345265	0.912883
H289	H	-1.098431	-0.794030	0.361620
H290	H	-0.598431	-0.294030	0.861620
C291	C	-0.312392	-0.786891	0.732748
C292	C	0.187608	-0.286891	1.232748
H293	H	-0.315292	-0.753280	0.761642
H294	H	0.184708	-0.253280	1.261642
H295	H	-0.348708	-0.787679	0.707202
H296	H	0.151292	-0.287679	1.207202
H297	H	-0.276470	-0.781392	0.707247
H298	H	0.223530	-0.281392	1.207247
H299	H	-0.660067	-0.978254	0.228864
H300	H	-0.160067	-0.478254	0.728864
C301	C	-0.218126	-0.538863	0.217397
C302	C	0.281874	-0.038863	0.717397
H303	H	-0.194302	-0.567718	0.193499
H304	H	0.305698	-0.067718	0.693499
H305	H	-0.190790	-0.513283	0.241318
H306	H	0.309210	-0.013283	0.741318
H307	H	-0.242158	-0.513392	0.190127
H308	H	0.257842	-0.013392	0.690127
C309	C	-0.733780	-0.915961	0.183003
C310	C	-0.233780	-0.415961	0.683003
H311	H	-0.762638	-0.918919	0.149370
H312	H	-0.262638	-0.418919	0.649370
H313	H	-0.708277	-0.952276	0.183815
H314	H	-0.208277	-0.452276	0.683815
H315	H	-0.708231	-0.880049	0.177517
H316	H	-0.208231	-0.380049	0.677517
C317	C	-0.531882	-0.821304	0.385777
C318	C	-0.031882	-0.321304	0.885777
H319	H	-0.488230	-0.827043	0.380050
H320	H	0.011770	-0.327043	0.880050
H321	H	-0.542611	-0.830445	0.427870
H322	H	-0.042611	-0.330445	0.927870
H323	H	-0.542572	-0.779209	0.376607
H324	H	-0.042572	-0.279209	0.876607
C325	C	-0.871187	-0.916375	0.182990
C326	C	-0.371187	-0.416375	0.682990
H327	H	-0.914842	-0.915780	0.191069
H328	H	-0.414842	-0.415780	0.691069
H329	H	-0.860341	-0.954630	0.163226
H330	H	-0.360341	-0.454630	0.663226
H331	H	-0.860590	-0.882452	0.156393
H332	H	-0.360590	-0.382452	0.656393
H333	H	-0.743111	-0.896321	0.403959
H334	H	-0.243111	-0.396321	0.903959
H335	H	-0.293325	-1.007873	0.741844
H336	H	0.206675	-0.507873	1.241844
H337	H	-1.063704	-0.978260	0.228721
H338	H	-0.563704	-0.478260	0.728721
C339	C	-0.935655	-0.989714	0.217315
C340	C	-0.435655	-0.489714	0.717315
H341	H	-0.964531	-1.013586	0.193430
H342	H	-0.464531	-0.513586	0.693430
H343	H	-0.910147	-1.017001	0.241280
H344	H	-0.410147	-0.517001	0.741280
H345	H	-0.910115	-0.965753	0.190029
H346	H	-0.410115	-0.465753	0.690029
H347	H	-0.229699	-0.144569	0.228783
H348	H	0.270301	0.355431	0.728783
H349	H	-0.229652	-0.263280	0.228809
H350	H	0.270348	0.236720	0.728809
H351	H	-0.293349	-1.007918	0.860558
H352	H	0.206651	-0.507918	1.360558
