data_functionalizedCrystal
_audit_creation_method	'MofGen! by Chris Wilmer'
_symmetry_space_group_name_H-M	'P1'
_symmetry_Int_Tables_number	1
_symmetry_cell_setting	triclinic
loop_
_symmetry_equiv_pos_as_xyz
  x,y,z
_cell_length_a	21.395361
_cell_length_b	12.759401
_cell_length_c	12.759393
_cell_angle_alpha	90.020566
_cell_angle_beta	89.961845
_cell_angle_gamma	89.971083
loop_
_atom_site_label
_atom_site_type_symbol
_atom_site_fract_x
_atom_site_fract_y
_atom_site_fract_z
Zn1	Zn	-0.249438	-1.606149	-0.593954
Zn2	Zn	0.250562	-1.106149	-0.093954
Zn3	Zn	-0.354228	-1.605991	-0.418250
Zn4	Zn	0.145772	-1.105991	0.081750
Zn5	Zn	-0.249465	-1.430448	-0.418290
Zn6	Zn	0.250535	-0.930448	0.081710
Zn7	Zn	-0.354179	-1.430391	-0.593889
Zn8	Zn	0.145821	-0.930391	-0.093889
O9	O	-0.301828	-1.518245	-0.506096
O10	O	0.198172	-1.018245	-0.006096
O11	O	-0.263348	-1.753150	-0.570657
O12	O	0.236652	-1.253150	-0.070657
O13	O	-0.340364	-1.582663	-0.271234
O14	O	0.159636	-1.082663	0.228766
O15	O	-0.161784	-1.453845	-0.441636
O16	O	0.338216	-0.953845	0.058364
O17	O	-0.340337	-1.753033	-0.441568
O18	O	0.159663	-1.253033	0.058432
O19	O	-0.161764	-1.582932	-0.570695
O20	O	0.338236	-1.082932	-0.070695
O21	O	-0.263395	-1.453692	-0.271264
O22	O	0.236605	-0.953692	0.228736
O23	O	-0.263346	-1.283420	-0.441573
O24	O	0.236654	-0.783420	0.058427
O25	O	-0.340252	-1.453748	-0.740918
O26	O	0.159748	-0.953748	-0.240918
O27	O	-0.340279	-1.283378	-0.570585
O28	O	0.159721	-0.783378	-0.070585
O29	O	-0.263300	-1.582877	-0.740966
O30	O	0.236700	-1.082877	-0.240966
O31	O	-0.441900	-1.582608	-0.441505
O32	O	0.058100	-1.082608	0.058495
O33	O	-0.441863	-1.453595	-0.570546
O34	O	0.058137	-0.953595	-0.070546
C35	C	-0.301811	-1.245278	-0.506077
C36	C	0.198189	-0.745278	-0.006077
C37	C	-0.301818	-1.128501	-0.506093
C38	C	0.198182	-0.628501	-0.006093
C39	C	-0.261801	-1.073700	-0.573413
C40	C	0.238199	-0.573700	-0.073413
C41	C	-0.261805	-0.963976	-0.573418
C42	C	0.238195	-0.463976	-0.073418
C43	C	-0.341848	-0.963863	-0.438782
C44	C	0.158152	-0.463863	0.061218
C45	C	-0.341841	-1.073586	-0.438772
C46	C	0.158159	-0.573586	0.061228
C47	C	-0.464615	-1.518106	-0.506037
C48	C	0.035385	-1.018106	-0.006037
C49	C	-0.534257	-1.518143	-0.506047
C50	C	-0.034257	-1.018143	-0.006047
C51	C	-0.566968	-1.585380	-0.438925
C52	C	-0.066968	-1.085380	0.061075
C53	C	-0.632403	-1.585428	-0.438948
C54	C	-0.132403	-1.085428	0.061052
C55	C	-0.665125	-1.518222	-0.506083
C56	C	-0.165125	-1.018222	-0.006083
C57	C	-0.632406	-1.450981	-0.573219
C58	C	-0.132406	-0.950981	-0.073219
C59	C	-0.566971	-1.450941	-0.573201
C60	C	-0.066971	-0.950941	-0.073201
C61	C	-0.768837	-1.423624	-0.514320
C62	C	-0.268837	-0.923624	-0.014320
C63	C	-0.834270	-1.423662	-0.514331
C64	C	-0.334270	-0.923662	-0.014331
C65	C	-0.866946	-1.518344	-0.506145
C66	C	-0.366946	-1.018344	-0.006145
C67	C	-0.834180	-1.612992	-0.497927
C68	C	-0.334180	-1.112992	0.002073
C69	C	-0.768746	-1.612953	-0.497909
C70	C	-0.268746	-1.112953	0.002091
C71	C	-0.736077	-1.518258	-0.506111
C72	C	-0.236077	-1.018258	-0.006111
C73	C	-0.970609	-1.585640	-0.439044
C74	C	-0.470609	-1.085640	0.060956
C75	C	-1.036046	-1.585690	-0.439075
C76	C	-0.536046	-1.085690	0.060925
C77	C	-1.036047	-1.451233	-0.573341
C78	C	-0.536047	-0.951233	-0.073341
C79	C	-0.970612	-1.451192	-0.573315
C80	C	-0.470612	-0.951192	-0.073315
C81	C	-0.937897	-1.518394	-0.506161
C82	C	-0.437897	-1.018394	-0.006161
C83	C	-0.138404	-1.518413	-0.506177
C84	C	0.361596	-1.018413	-0.006177
C85	C	-0.068763	-1.518484	-0.506212
C86	C	0.431237	-1.018484	-0.006212
C87	C	-0.301768	-1.518324	-0.780129
C88	C	0.198232	-1.018324	-0.280129
C89	C	-0.301742	-1.518357	-0.896906
C90	C	0.198258	-1.018357	-0.396906
C91	C	-0.301839	-0.792278	-0.506112
C92	C	0.198161	-0.292278	-0.006112
C93	C	-0.301830	-0.909055	-0.506108
C94	C	0.198170	-0.409055	-0.006108
C95	C	-0.261666	-1.585600	-0.951794
C96	C	0.238334	-1.085600	-0.451794
C97	C	-0.261639	-1.585617	-1.061519
C98	C	0.238361	-1.085617	-0.561519
C99	C	-0.341769	-1.451147	-1.061456
C100	C	0.158231	-0.951147	-0.561456
C101	C	-0.341792	-1.451125	-0.951734
C102	C	0.158208	-0.951125	-0.451734
C103	C	-0.301842	-1.518227	-0.233128
C104	C	0.198158	-1.018227	0.266872
C105	C	-0.301692	-1.518397	-0.116352
C106	C	0.198308	-1.018397	0.383648
H107	H	-0.374434	-0.919138	-0.383972
H108	H	0.125566	-0.419138	0.116028
H109	H	-0.659052	-1.396263	-0.627883
H110	H	-0.159052	-0.896263	-0.127883
H111	H	-0.229210	-1.118409	-0.628227
H112	H	0.270790	-0.618409	-0.128227
F113	F	-0.935796	-1.379624	-0.644753
F114	F	-0.435796	-0.879624	-0.144753
H115	H	-0.229053	-1.640341	-0.907157
H116	H	0.270947	-1.140341	-0.407157
F117	F	-0.384430	-1.131912	-0.367109
F118	F	0.115570	-0.631912	0.132891
F119	F	-1.070860	-1.657264	-0.367637
F120	F	-0.570860	-1.157264	0.132363
F121	F	-0.218990	-1.657193	-1.119930
F122	F	0.281010	-1.157193	-0.619930
H123	H	-0.374426	-1.396361	-0.907042
H124	H	0.125574	-0.896361	-0.407042
F125	F	-0.219213	-0.905658	-0.645067
F126	F	0.280787	-0.405658	-0.145067
H127	H	-0.540333	-1.640102	-0.384247
H128	H	-0.040333	-1.140102	0.115753
H129	H	-0.374378	-1.396412	-1.106110
H130	H	0.125622	-0.896412	-0.606110
F131	F	-0.869135	-1.322930	-0.523074
F132	F	-0.369135	-0.822930	-0.023074
F133	F	-0.667224	-1.656993	-0.367503
F134	F	-0.167224	-1.156993	0.132497
H135	H	-0.742070	-1.690017	-0.491220
H136	H	-0.242070	-1.190017	0.008780
F137	F	-1.070867	-1.379713	-0.644798
F138	F	-0.570867	-0.879713	-0.144798
F139	F	-0.935790	-1.657160	-0.367574
F140	F	-0.435790	-1.157160	0.132426
F141	F	-0.868951	-1.713768	-0.489205
F142	F	-0.368951	-1.213768	0.010795
H143	H	-0.742239	-1.346516	-0.520990
H144	H	-0.242239	-0.846516	-0.020990
H145	H	-0.540337	-1.396188	-0.627862
H146	H	-0.040337	-0.896188	-0.127862
