data_functionalizedCrystal
_audit_creation_method	'MofGen! by Chris Wilmer'
_symmetry_space_group_name_H-M	'P1'
_symmetry_Int_Tables_number	1
_symmetry_cell_setting	triclinic
loop_
_symmetry_equiv_pos_as_xyz
  x,y,z
_cell_length_a	17.077404
_cell_length_b	21.395361
_cell_length_c	17.077396
_cell_angle_alpha	89.966749
_cell_angle_beta	89.981638
_cell_angle_gamma	90.028678
loop_
_atom_site_label
_atom_site_type_symbol
_atom_site_fract_x
_atom_site_fract_y
_atom_site_fract_z
Zn1	Zn	1.200012	-0.249472	-0.443793
Zn2	Zn	1.700012	0.250528	0.056207
Zn3	Zn	1.199901	-0.354254	-0.312516
Zn4	Zn	1.699901	0.145746	0.187484
Zn5	Zn	1.068744	-0.249490	-0.312543
Zn6	Zn	1.568744	0.250510	0.187457
Zn7	Zn	1.068694	-0.354212	-0.443742
Zn8	Zn	1.568694	0.145788	0.056258
O9	O	1.134338	-0.301857	-0.378149
O10	O	1.634338	0.198143	0.121851
O11	O	1.309844	-0.263382	-0.426388
O12	O	1.809844	0.236618	0.073612
O13	O	1.182477	-0.340381	-0.202673
O14	O	1.682477	0.159619	0.297327
O15	O	1.086224	-0.161810	-0.329987
O16	O	1.586224	0.338190	0.170013
O17	O	1.309763	-0.340364	-0.329940
O18	O	1.809763	0.159636	0.170060
O19	O	1.182666	-0.161797	-0.426415
O20	O	1.682666	0.338203	0.073585
O21	O	1.086117	-0.263412	-0.202693
O22	O	1.586117	0.236588	0.297307
O23	O	0.958890	-0.263372	-0.329937
O24	O	1.458890	0.236628	0.170063
O25	O	1.086139	-0.340294	-0.553596
O26	O	1.586139	0.159706	-0.053596
O27	O	0.958854	-0.340311	-0.426329
O28	O	1.458854	0.159689	0.073671
O29	O	1.182618	-0.263342	-0.553633
O30	O	1.682618	0.236658	-0.053633
O31	O	1.182429	-0.441926	-0.329891
O32	O	1.682429	0.058074	0.170109
O33	O	1.086031	-0.441896	-0.426302
O34	O	1.586031	0.058104	0.073698
C35	C	0.930390	-0.301840	-0.378131
C36	C	1.430390	0.198160	0.121869
C37	C	0.843140	-0.301847	-0.378142
C38	C	1.343140	0.198153	0.121858
C39	C	0.802193	-0.261834	-0.428439
C40	C	1.302193	0.238166	0.071561
C41	C	0.720213	-0.261838	-0.428443
C42	C	1.220213	0.238162	0.071557
C43	C	0.679181	-0.301859	-0.378153
C44	C	1.179181	0.198141	0.121847
C45	C	0.720133	-0.341874	-0.327850
C46	C	1.220133	0.158126	0.172150
C47	C	0.802112	-0.341866	-0.327843
C48	C	1.302112	0.158134	0.172157
C49	C	0.549263	-0.341888	-0.327869
C50	C	1.049263	0.158112	0.172131
C51	C	0.467279	-0.341897	-0.327877
C52	C	0.967279	0.158103	0.172123
C53	C	0.467364	-0.261859	-0.428470
C54	C	0.967364	0.238141	0.071530
C55	C	0.549342	-0.261852	-0.428463
C56	C	1.049342	0.238148	0.071537
C57	C	0.590290	-0.301868	-0.378160
C58	C	1.090290	0.198132	0.121840
C59	C	1.134234	-0.464645	-0.378105
C60	C	1.634234	0.035355	0.121895
C61	C	1.134261	-0.534286	-0.378112
C62	C	1.634261	-0.034286	0.121888
C63	C	1.184500	-0.566994	-0.327962
C64	C	1.684500	-0.066994	0.172038
C65	C	1.184537	-0.632430	-0.327980
C66	C	1.684537	-0.132430	0.172020
C67	C	1.134320	-0.665154	-0.378139
C68	C	1.634320	-0.165154	0.121861
C69	C	1.084078	-0.632438	-0.428299
C70	C	1.584078	-0.132438	0.071701
C71	C	1.084049	-0.567004	-0.428286
C72	C	1.584049	-0.067004	0.071714
C73	C	1.063641	-0.768867	-0.384292
C74	C	1.563641	-0.268867	0.115708
C75	C	1.063669	-0.834300	-0.384300
C76	C	1.563669	-0.334300	0.115700
C77	C	1.134412	-0.866975	-0.378185
C78	C	1.634412	-0.366975	0.121815
C79	C	1.205129	-0.834210	-0.372046
C80	C	1.705129	-0.334210	0.127954
C81	C	1.205099	-0.768776	-0.372033
C82	C	1.705099	-0.268776	0.127967
C83	C	1.134347	-0.736107	-0.378160
C84	C	1.634347	-0.236107	0.121840
C85	C	1.184694	-0.970636	-0.328052
C86	C	1.684694	-0.470636	0.171948
C87	C	1.184732	-1.036072	-0.328075
C88	C	1.684732	-0.536072	0.171925
C89	C	1.084267	-1.036080	-0.428390
C90	C	1.584267	-0.536080	0.071610
C91	C	1.084236	-0.970645	-0.428371
C92	C	1.584236	-0.470645	0.071629
C93	C	1.134449	-0.937926	-0.378198
C94	C	1.634449	-0.437926	0.121802
C95	C	1.339082	-0.301876	-0.378167
C96	C	1.839082	0.198124	0.121833
C97	C	1.426332	-0.301883	-0.378174
C98	C	1.926332	0.198117	0.121826
C99	C	1.134385	-0.301811	-0.582893
C100	C	1.634385	0.198189	-0.082893
C101	C	1.134405	-0.301791	-0.670143
C102	C	1.634405	0.198209	-0.170143
C103	C	1.134463	-0.138434	-0.378210
C104	C	1.634463	0.361566	0.121790
C105	C	1.134516	-0.068793	-0.378236
C106	C	1.634516	0.431207	0.121764
C107	C	1.184644	-0.261719	-0.711154
C108	C	1.684644	0.238281	-0.211154
C109	C	1.184653	-0.261698	-0.793134
C110	C	1.684653	0.238302	-0.293134
C111	C	1.134428	-0.301753	-0.834102
C112	C	1.634428	0.198247	-0.334102
C113	C	1.084184	-0.341827	-0.793086
C114	C	1.584184	0.158173	-0.293086
C115	C	1.084171	-0.341845	-0.711107
C116	C	1.584171	0.158155	-0.211107
C117	C	1.084215	-0.341790	-0.963956
C118	C	1.584215	0.158210	-0.463956
C119	C	1.084229	-0.341773	-1.045940
C120	C	1.584229	0.158227	-0.545940
C121	C	1.184698	-0.261643	-1.045983
C122	C	1.684698	0.238357	-0.545983
C123	C	1.184685	-0.261661	-0.964004
C124	C	1.684685	0.238339	-0.464004
C125	C	1.134442	-0.301736	-0.922993
C126	C	1.634442	0.198264	-0.422993
C127	C	1.134335	-0.301858	-0.174201
C128	C	1.634335	0.198142	0.325799
C129	C	1.134467	-0.301701	-0.086951
C130	C	1.634467	0.198299	0.413049
H131	H	0.686719	-0.374457	-0.286899
H132	H	1.186719	0.125543	0.213101
Br133	Br	0.605029	-0.207544	-0.496723
Br134	Br	1.105029	0.292456	0.003277
H135	H	1.225388	-0.540357	-0.287110
H136	H	1.725388	-0.040357	0.212890
Br137	Br	1.016015	-0.396185	-0.848684
Br138	Br	1.516015	0.103815	-0.348684
Br139	Br	1.252873	-0.207341	-0.848789
Br140	Br	1.752873	0.292659	-0.348789
H141	H	1.043383	-1.062724	-0.469234
H142	H	1.543383	-0.562724	0.030766
H143	H	0.835450	-0.374449	-0.286885
H144	H	1.335450	0.125551	0.213115
Br145	Br	1.252723	-0.676829	-0.259915
Br146	Br	1.752723	-0.176829	0.240085
Br147	Br	1.015983	-0.396227	-0.655448
Br148	Br	1.515983	0.103773	-0.155448
H149	H	1.006029	-0.742269	-0.389275
H150	H	1.506029	-0.242269	0.110725
Br151	Br	0.411794	-0.207551	-0.496737
Br152	Br	0.911794	0.292449	0.003263
H153	H	1.043324	-0.944012	-0.469204
H154	H	1.543324	-0.444012	0.030796
Br155	Br	1.015933	-0.676849	-0.496379
Br156	Br	1.515933	-0.176849	0.003621
H157	H	1.225583	-0.943996	-0.287200
H158	H	1.725583	-0.443996	0.212800
Br159	Br	0.664644	-0.207532	-0.496708
Br160	Br	1.164644	0.292468	0.003292
Br161	Br	1.016058	-0.396128	-1.101540
Br162	Br	1.516058	0.103872	-0.601540
H163	H	0.433873	-0.374486	-0.286927
H164	H	0.933873	0.125514	0.213073
Br165	Br	0.604834	-0.396200	-0.259606
Br166	Br	1.104834	0.103800	0.240394
H167	H	1.225606	-0.229012	-1.079378
H168	H	1.725606	0.270988	-0.579378
Br169	Br	1.301066	-0.724310	-0.363707
Br170	Br	1.801066	-0.224310	0.136293
H171	H	0.835595	-0.229245	-0.469394
H172	H	1.335595	0.270755	0.030606
Br173	Br	1.301143	-0.878546	-0.363735
Br174	Br	1.801143	-0.378546	0.136265
H175	H	1.225647	-1.062702	-0.287238
H176	H	1.725647	-0.562702	0.212762
Br177	Br	0.967698	-0.878760	-0.392627
Br178	Br	1.467698	-0.378760	0.107373
H179	H	1.043138	-0.540373	-0.469125
H180	H	1.543138	-0.040373	0.030875
H181	H	1.225546	-0.229104	-0.677803
H182	H	1.725546	0.270896	-0.177803
Br183	Br	1.252856	-0.207305	-0.908404
Br184	Br	1.752856	0.292695	-0.408404
H185	H	1.043290	-0.374413	-0.930567
H186	H	1.543290	0.125587	-0.430567
