data_functionalizedCrystal
_audit_creation_method	'MofGen! by Chris Wilmer'
_symmetry_space_group_name_H-M	'P1'
_symmetry_Int_Tables_number	1
_symmetry_cell_setting	triclinic
loop_
_symmetry_equiv_pos_as_xyz
  x,y,z
_cell_length_a	21.395361
_cell_length_b	21.395364
_cell_length_c	21.395355
_cell_angle_alpha	89.974702
_cell_angle_beta	90.021511
_cell_angle_gamma	89.952591
loop_
_atom_site_label
_atom_site_type_symbol
_atom_site_fract_x
_atom_site_fract_y
_atom_site_fract_z
Zn1	Zn	-0.249232	-0.957859	0.354261
Zn2	Zn	0.000768	-0.707859	0.604261
Zn3	Zn	0.250768	-0.457859	0.854261
Zn4	Zn	0.500768	-0.207859	1.104261
Zn5	Zn	-0.353992	-0.957762	0.249478
Zn6	Zn	-0.103992	-0.707762	0.499478
Zn7	Zn	0.146008	-0.457762	0.749478
Zn8	Zn	0.396008	-0.207762	0.999478
Zn9	Zn	-0.249263	-0.853074	0.249496
Zn10	Zn	0.000737	-0.603074	0.499496
Zn11	Zn	0.250737	-0.353074	0.749496
Zn12	Zn	0.500737	-0.103074	0.999496
Zn13	Zn	-0.354006	-0.853043	0.354217
Zn14	Zn	-0.104006	-0.603043	0.604217
Zn15	Zn	0.145994	-0.353043	0.854217
Zn16	Zn	0.395994	-0.103043	1.104217
O17	O	-0.301623	-0.905435	0.301863
O18	O	-0.051623	-0.655435	0.551863
O19	O	0.198377	-0.405435	0.801863
O20	O	0.448377	-0.155435	1.051863
O21	O	-0.263110	-1.045524	0.340372
O22	O	-0.013110	-0.795524	0.590372
O23	O	0.236890	-0.545524	0.840372
O24	O	0.486890	-0.295524	1.090372
O25	O	-0.340106	-0.943847	0.161802
O26	O	-0.090106	-0.693847	0.411802
O27	O	0.159894	-0.443847	0.661802
O28	O	0.409894	-0.193847	0.911802
O29	O	-0.161581	-0.867028	0.263420
O30	O	0.088419	-0.617028	0.513420
O31	O	0.338419	-0.367028	0.763420
O32	O	0.588419	-0.117028	1.013420
O33	O	-0.340076	-1.045453	0.263388
O34	O	-0.090076	-0.795453	0.513388
O35	O	0.159924	-0.545453	0.763388
O36	O	0.409924	-0.295453	1.013388
O37	O	-0.161558	-0.944013	0.340390
O38	O	0.088442	-0.694013	0.590390
O39	O	0.338442	-0.444013	0.840390
O40	O	0.588442	-0.194013	1.090390
O41	O	-0.263162	-0.866933	0.161816
O42	O	-0.013162	-0.616933	0.411816
O43	O	0.236838	-0.366933	0.661816
O44	O	0.486838	-0.116933	0.911816
O45	O	-0.263176	-0.765392	0.263377
O46	O	-0.013176	-0.515392	0.513377
O47	O	0.236824	-0.265392	0.763377
O48	O	0.486824	-0.015392	1.013377
O49	O	-0.340101	-0.866975	0.441901
O50	O	-0.090101	-0.616975	0.691901
O51	O	0.159899	-0.366975	0.941901
O52	O	0.409899	-0.116975	1.191901
O53	O	-0.340131	-0.765370	0.340315
O54	O	-0.090131	-0.515370	0.590315
O55	O	0.159869	-0.265370	0.840315
O56	O	0.409869	-0.015370	1.090315
O57	O	-0.263124	-0.943983	0.441933
O58	O	-0.013124	-0.693983	0.691933
O59	O	0.236876	-0.443983	0.941933
O60	O	0.486876	-0.193983	1.191933
O61	O	-0.441672	-0.943817	0.263346
O62	O	-0.191672	-0.693817	0.513346
O63	O	0.058328	-0.443817	0.763346
O64	O	0.308328	-0.193817	1.013346
O65	O	-0.441682	-0.866881	0.340297
O66	O	-0.191682	-0.616881	0.590297
O67	O	0.058318	-0.366881	0.840297
O68	O	0.308318	-0.116881	1.090297
C69	C	-0.301659	-0.742647	0.301843
C70	C	-0.051659	-0.492647	0.551843
C71	C	0.198341	-0.242647	0.801843
C72	C	0.448341	0.007353	1.051843
C73	C	-0.301689	-0.673006	0.301850
C74	C	-0.051689	-0.423006	0.551850
C75	C	0.198311	-0.173006	0.801850
C76	C	0.448311	0.076994	1.051850
C77	C	-0.261679	-0.640352	0.341997
C78	C	-0.011679	-0.390352	0.591997
C79	C	0.238321	-0.140352	0.841997
C80	C	0.488321	0.109648	1.091997
C81	C	-0.261664	-0.574917	0.341998
C82	C	-0.011664	-0.324917	0.591998
C83	C	0.238336	-0.074917	0.841998
C84	C	0.488336	0.175083	1.091998
C85	C	-0.301671	-0.542137	0.301859
C86	C	-0.051671	-0.292137	0.551859
C87	C	0.198329	-0.042137	0.801859
C88	C	0.448329	0.207863	1.051859
C89	C	-0.341683	-0.574799	0.261705
C90	C	-0.091683	-0.324799	0.511705
C91	C	0.158317	-0.074799	0.761705
C92	C	0.408317	0.175201	1.011705
C93	C	-0.341692	-0.640233	0.261700
C94	C	-0.091692	-0.390233	0.511700
C95	C	0.158308	-0.140233	0.761700
C96	C	0.408308	0.109767	1.011700
C97	C	-0.358099	-0.438413	0.296818
C98	C	-0.108099	-0.188413	0.546818
C99	C	0.141901	0.061587	0.796818
C100	C	0.391901	0.311587	1.046818
C101	C	-0.358090	-0.372980	0.296827
C102	C	-0.108090	-0.122980	0.546827
C103	C	0.141910	0.127020	0.796827
C104	C	0.391910	0.377020	1.046827
C105	C	-0.301642	-0.340317	0.301871
C106	C	-0.051642	-0.090317	0.551871
C107	C	0.198358	0.159683	0.801871
C108	C	0.448358	0.409683	1.051871
C109	C	-0.245200	-0.373094	0.306919
C110	C	0.004800	-0.123094	0.556919
C111	C	0.254800	0.126906	0.806919
C112	C	0.504800	0.376906	1.056919
C113	C	-0.245210	-0.438528	0.306914
C114	C	0.004790	-0.188528	0.556914
C115	C	0.254790	0.061472	0.806914
C116	C	0.504790	0.311472	1.056914
C117	C	-0.301665	-0.471185	0.301860
C118	C	-0.051665	-0.221185	0.551860
C119	C	0.198335	0.028815	0.801860
C120	C	0.448335	0.278815	1.051860
C121	C	-0.261613	-0.236711	0.342021
C122	C	-0.011613	0.013289	0.592021
C123	C	0.238387	0.263289	0.842021
C124	C	0.488387	0.513289	1.092021
C125	C	-0.261597	-0.171274	0.342019
C126	C	-0.011597	0.078726	0.592019
C127	C	0.238403	0.328726	0.842019
C128	C	0.488403	0.578726	1.092019
C129	C	-0.341622	-0.171157	0.261728
C130	C	-0.091622	0.078843	0.511728
C131	C	0.158378	0.328843	0.761728
C132	C	0.408378	0.578843	1.011728
C133	C	-0.341632	-0.236593	0.261728
C134	C	-0.091632	0.013407	0.511728
C135	C	0.158368	0.263407	0.761728
C136	C	0.408368	0.513407	1.011728
C137	C	-0.301629	-0.269365	0.301878
C138	C	-0.051629	-0.019365	0.551878
C139	C	0.198371	0.230635	0.801878
C140	C	0.448371	0.480635	1.051878
C141	C	-0.464411	-0.905352	0.301828
C142	C	-0.214411	-0.655352	0.551828
C143	C	0.035589	-0.405352	0.801828
C144	C	0.285589	-0.155352	1.051828
C145	C	-0.534052	-0.905374	0.301834
C146	C	-0.284052	-0.655374	0.551834
C147	C	-0.034052	-0.405374	0.801834
C148	C	0.215948	-0.155374	1.051834
C149	C	-0.566739	-0.945470	0.261807
C150	C	-0.316739	-0.695470	0.511807
C151	C	-0.066739	-0.445470	0.761807
C152	C	0.183261	-0.195470	1.011807
C153	C	-0.632174	-0.945499	0.261821
C154	C	-0.382174	-0.695499	0.511821
C155	C	-0.132174	-0.445499	0.761821
C156	C	0.117826	-0.195499	1.011821
C157	C	-0.664920	-0.905421	0.301856
C158	C	-0.414920	-0.655421	0.551856
C159	C	-0.164920	-0.405421	0.801856
C160	C	0.085080	-0.155421	1.051856
C161	C	-0.632226	-0.865322	0.341891
C162	C	-0.382226	-0.615322	0.591891
C163	C	-0.132226	-0.365322	0.841891
C164	C	0.117774	-0.115322	1.091891
C165	C	-0.566791	-0.865298	0.341880
C166	C	-0.316791	-0.615298	0.591880
C167	C	-0.066791	-0.365298	0.841880
C168	C	0.183209	-0.115298	1.091880
C169	C	-0.768652	-0.849006	0.306765
C170	C	-0.518652	-0.599006	0.556765
C171	C	-0.268652	-0.349006	0.806765
C172	C	-0.018652	-0.099006	1.056765
C173	C	-0.834085	-0.849029	0.306771
C174	C	-0.584085	-0.599029	0.556771
C175	C	-0.334085	-0.349029	0.806771
C176	C	-0.084085	-0.099029	1.056771
C177	C	-0.866741	-0.905494	0.301892
C178	C	-0.616741	-0.655494	0.551892
C179	C	-0.366741	-0.405494	0.801892
C180	C	-0.116741	-0.155494	1.051892
C181	C	-0.833956	-0.961938	0.296994
C182	C	-0.583956	-0.711938	0.546994
C183	C	-0.333956	-0.461938	0.796994
C184	C	-0.083956	-0.211938	1.046994
C185	C	-0.768522	-0.961915	0.296983
C186	C	-0.518522	-0.711915	0.546983
C187	C	-0.268522	-0.461915	0.796983
C188	C	-0.018522	-0.211915	1.046983
C189	C	-0.735873	-0.905442	0.301872
C190	C	-0.485873	-0.655442	0.551872
C191	C	-0.235873	-0.405442	0.801872
C192	C	0.014127	-0.155442	1.051872
C193	C	-0.970380	-0.945625	0.261878
C194	C	-0.720380	-0.695625	0.511878
C195	C	-0.470380	-0.445625	0.761878
C196	C	-0.220380	-0.195625	1.011878
C197	C	-1.035817	-0.945655	0.261896
C198	C	-0.785817	-0.695655	0.511896
C199	C	-0.535817	-0.445655	0.761896
C200	C	-0.285817	-0.195655	1.011896
C201	C	-1.035867	-0.865473	0.341963
C202	C	-0.785867	-0.615473	0.591963
C203	C	-0.535867	-0.365473	0.841963
C204	C	-0.285867	-0.115473	1.091963
C205	C	-0.970432	-0.865448	0.341948
C206	C	-0.720432	-0.615448	0.591948
C207	C	-0.470432	-0.365448	0.841948
C208	C	-0.220432	-0.115448	1.091948
C209	C	-0.937692	-0.905523	0.301902
C210	C	-0.687692	-0.655523	0.551902
C211	C	-0.437692	-0.405523	0.801902
C212	C	-0.187692	-0.155523	1.051902
C213	C	-0.138200	-0.905535	0.301912
C214	C	0.111800	-0.655535	0.551912
C215	C	0.361800	-0.405535	0.801912
C216	C	0.611800	-0.155535	1.051912
C217	C	-0.068558	-0.905577	0.301932
C218	C	0.181442	-0.655577	0.551932
C219	C	0.431442	-0.405577	0.801932
C220	C	0.681442	-0.155577	1.051932
C221	C	-0.301610	-0.905487	0.465286
C222	C	-0.051610	-0.655487	0.715286
C223	C	0.198390	-0.405487	0.965286
C224	C	0.448390	-0.155487	1.215286
C225	C	-0.301605	-0.905509	0.534928
C226	C	-0.051605	-0.655509	0.784928
C227	C	0.198395	-0.405509	1.034928
C228	C	0.448395	-0.155509	1.284928
C229	C	-0.301596	-0.068858	0.301880
C230	C	-0.051596	0.181142	0.551880
C231	C	0.198404	0.431142	0.801880
C232	C	0.448404	0.681142	1.051880
C233	C	-0.301604	-0.138499	0.301879
C234	C	-0.051604	0.111501	0.551879
C235	C	0.198396	0.361501	0.801879
C236	C	0.448396	0.611501	1.051879
C237	C	-0.301591	-0.905419	0.139075
C238	C	-0.051591	-0.655419	0.389075
C239	C	0.198409	-0.405419	0.639075
C240	C	0.448409	-0.155419	0.889075
C241	C	-0.301419	-0.905518	0.069435
C242	C	-0.051419	-0.655518	0.319435
C243	C	0.198581	-0.405518	0.569435
C244	C	0.448581	-0.155518	0.819435
C245	C	-0.261521	-0.945605	0.567659
C246	C	-0.011521	-0.695605	0.817659
C247	C	0.238479	-0.445605	1.067659
C248	C	0.488479	-0.195605	1.317659
C249	C	-0.261494	-0.945604	0.633094
C250	C	-0.011494	-0.695604	0.883094
C251	C	0.238506	-0.445604	1.133094
C252	C	0.488506	-0.195604	1.383094
C253	C	-0.301562	-0.905514	0.665796
C254	C	-0.051562	-0.655514	0.915796
C255	C	0.198438	-0.405514	1.165796
C256	C	0.448438	-0.155514	1.415796
C257	C	-0.341649	-0.865410	0.633057
C258	C	-0.091649	-0.615410	0.883057
C259	C	0.158351	-0.365410	1.133057
C260	C	0.408351	-0.115410	1.383057
C261	C	-0.341670	-0.865407	0.567623
C262	C	-0.091670	-0.615407	0.817623
C263	C	0.158330	-0.365407	1.067623
C264	C	0.408330	-0.115407	1.317623
C265	C	-0.357979	-0.900538	0.769459
C266	C	-0.107979	-0.650538	1.019459
C267	C	0.142021	-0.400538	1.269459
C268	C	0.392021	-0.150538	1.519459
C269	C	-0.357959	-0.900545	0.834892
C270	C	-0.107959	-0.650545	1.084892
C271	C	0.142041	-0.400545	1.334892
C272	C	0.392041	-0.150545	1.584892
C273	C	-0.301496	-0.905518	0.867617
C274	C	-0.051496	-0.655518	1.117617
C275	C	0.198504	-0.405518	1.367617
C276	C	0.448504	-0.155518	1.617617
C277	C	-0.245052	-0.910497	0.834901
C278	C	0.004948	-0.660497	1.084901
C279	C	0.254948	-0.410497	1.334901
C280	C	0.504948	-0.160497	1.584901
C281	C	-0.245073	-0.910494	0.769467
C282	C	0.004927	-0.660494	1.019467
C283	C	0.254927	-0.410494	1.269467
C284	C	0.504927	-0.160494	1.519467
C285	C	-0.301543	-0.905512	0.736748
C286	C	-0.051543	-0.655512	0.986748
C287	C	0.198457	-0.405512	1.236748
C288	C	0.448457	-0.155512	1.486748
C289	C	-0.261380	-0.945615	0.971300
C290	C	-0.011380	-0.695615	1.221300
C291	C	0.238620	-0.445615	1.471300
C292	C	0.488620	-0.195615	1.721300
C293	C	-0.261352	-0.945610	1.036737
C294	C	-0.011352	-0.695610	1.286737
C295	C	0.238648	-0.445610	1.536737
C296	C	0.488648	-0.195610	1.786737
C297	C	-0.341512	-0.865419	1.036699
C298	C	-0.091512	-0.615419	1.286699
C299	C	0.158488	-0.365419	1.536699
C300	C	0.408488	-0.115419	1.786699
C301	C	-0.341534	-0.865421	0.971263
C302	C	-0.091534	-0.615421	1.221263
C303	C	0.158466	-0.365421	1.471263
C304	C	0.408466	-0.115421	1.721263
C305	C	-0.301469	-0.905522	0.938568
C306	C	-0.051469	-0.655522	1.188568
C307	C	0.198531	-0.405522	1.438568
C308	C	0.448531	-0.155522	1.688568
H309	H	-0.404069	-0.465002	0.292710
H310	H	-0.154069	-0.215002	0.542710
H311	H	0.095931	0.034998	0.792710
H312	H	0.345931	0.284998	1.042710
N313	N	-0.384829	-0.539449	0.218407
N314	N	-0.134829	-0.289449	0.468407
N315	N	0.115171	-0.039449	0.718407
N316	N	0.365171	0.210551	0.968407
H317	H	-0.378753	-0.493041	0.224502
H318	H	-0.128753	-0.243041	0.474502
H319	H	0.121247	0.006959	0.724502
H320	H	0.371247	0.256959	0.974502
H321	H	-0.429594	-0.550848	0.228071
H322	H	-0.179594	-0.300848	0.478071
H323	H	0.070406	-0.050848	0.728071
H324	H	0.320406	0.199152	0.978071
N325	N	-1.071077	-0.988901	0.218720
N326	N	-0.821077	-0.738901	0.468720
N327	N	-0.571077	-0.488901	0.718720
N328	N	-0.321077	-0.238901	0.968720
H329	H	-1.098175	-1.017937	0.244212
H330	H	-0.848175	-0.767937	0.494212
H331	H	-0.598175	-0.517937	0.744212
H332	H	-0.348175	-0.267937	0.994212
H333	H	-1.040367	-1.014240	0.193358
H334	H	-0.790367	-0.764240	0.443358
H335	H	-0.540367	-0.514240	0.693358
H336	H	-0.290367	-0.264240	0.943358
H337	H	-0.228850	-0.978254	0.659749
H338	H	0.021150	-0.728254	0.909749
H339	H	0.271150	-0.478254	1.159749
H340	H	0.521150	-0.228254	1.409749
H341	H	-1.062528	-0.832843	0.374563
H342	H	-0.812528	-0.582843	0.624563
H343	H	-0.562528	-0.332843	0.874563
H344	H	-0.312528	-0.082843	1.124563
N345	N	-0.869169	-1.022845	0.291728
N346	N	-0.619169	-0.772845	0.541728
N347	N	-0.369169	-0.522845	0.791728
N348	N	-0.119169	-0.272845	1.041728
H349	H	-0.896287	-1.028716	0.329909
H350	H	-0.646287	-0.778716	0.579909
H351	H	-0.396287	-0.528716	0.829909
H352	H	-0.146287	-0.278716	1.079909
H353	H	-0.838431	-1.058557	0.288603
H354	H	-0.588431	-0.808557	0.538603
H355	H	-0.338431	-0.558557	0.788603
H356	H	-0.088431	-0.308557	1.038603
H357	H	-0.943723	-0.978259	0.229272
H358	H	-0.693723	-0.728259	0.479272
H359	H	-0.443723	-0.478259	0.729272
H360	H	-0.193723	-0.228259	0.979272
N361	N	-0.218174	-0.988864	0.936025
N362	N	0.031826	-0.738864	1.186025
N363	N	0.281826	-0.488864	1.436025
N364	N	0.531826	-0.238864	1.686025
H365	H	-0.173401	-0.979166	0.947399
H366	H	0.076599	-0.729166	1.197399
H367	H	0.326599	-0.479166	1.447399
H368	H	0.576599	-0.229166	1.697399
H369	H	-0.224335	-0.982757	0.889618
H370	H	0.025665	-0.732757	1.139618
H371	H	0.275665	-0.482757	1.389618
H372	H	0.525665	-0.232757	1.639618
N373	N	-0.218519	-0.675690	0.385291
N374	N	0.031481	-0.425690	0.635291
N375	N	0.281481	-0.175690	0.885291
N376	N	0.531481	0.074310	1.135291
H377	H	-0.189449	-0.702850	0.359877
H378	H	0.060551	-0.452850	0.609877
H379	H	0.310551	-0.202850	0.859877
H380	H	0.560551	0.047150	1.109877
H381	H	-0.244063	-0.702797	0.414274
H382	H	0.005937	-0.452797	0.664274
H383	H	0.255937	-0.202797	0.914274
H384	H	0.505937	0.047203	1.164274
H385	H	-0.374274	-0.666819	0.229006
H386	H	-0.124274	-0.416819	0.479006
H387	H	0.125726	-0.166819	0.729006
H388	H	0.375726	0.083181	0.979006
N389	N	-0.418833	-0.895174	0.870176
N390	N	-0.168833	-0.645174	1.120176
N391	N	0.081167	-0.395174	1.370176
N392	N	0.331167	-0.145174	1.620176
H393	H	-0.424697	-0.933341	0.897337
H394	H	-0.174697	-0.683341	1.147337
H395	H	0.075303	-0.433341	1.397337
H396	H	0.325303	-0.183341	1.647337
H397	H	-0.454567	-0.891995	0.839478
H398	H	-0.204567	-0.641995	1.089478
H399	H	0.045433	-0.391995	1.339478
H400	H	0.295433	-0.141995	1.589478
H401	H	-0.540084	-0.978103	0.229201
H402	H	-0.290084	-0.728103	0.479201
H403	H	-0.040084	-0.478103	0.729201
H404	H	0.209916	-0.228103	0.979201
N405	N	-0.667440	-0.988748	0.218648
N406	N	-0.417440	-0.738748	0.468648
N407	N	-0.167440	-0.488748	0.718648
N408	N	0.082560	-0.238748	0.968648
H409	H	-0.636771	-1.014132	0.193279
H410	H	-0.386771	-0.764132	0.443279
H411	H	-0.136771	-0.514132	0.693279
H412	H	0.113229	-0.264132	0.943279
H413	H	-0.694634	-0.963263	0.189637
H414	H	-0.444634	-0.713263	0.439637
H415	H	-0.194634	-0.463263	0.689637
H416	H	0.055366	-0.213263	0.939637
N417	N	-0.218112	-0.988862	1.072034
N418	N	0.031888	-0.738862	1.322034
N419	N	0.281888	-0.488862	1.572034
N420	N	0.531888	-0.238862	1.822034
H421	H	-0.243557	-1.017881	1.099196
H422	H	0.006443	-0.767881	1.349196
H423	H	0.256443	-0.517881	1.599196
H424	H	0.506443	-0.267881	1.849196
H425	H	-0.189075	-0.963377	1.099134
H426	H	0.060925	-0.713377	1.349134
H427	H	0.310925	-0.463377	1.599134
H428	H	0.560925	-0.213377	1.849134
N429	N	-0.218511	-0.539692	0.385307
N430	N	0.031489	-0.289692	0.635307
N431	N	0.281489	-0.039692	0.885307
N432	N	0.531489	0.210308	1.135307
H433	H	-0.244019	-0.512535	0.414293
H434	H	0.005981	-0.262535	0.664293
H435	H	0.255981	-0.012535	0.914293
H436	H	0.505981	0.237465	1.164293
H437	H	-0.189440	-0.512593	0.359860
H438	H	0.060560	-0.262593	0.609860
H439	H	0.310560	-0.012593	0.859860
H440	H	0.560560	0.237407	1.109860
H441	H	-0.199253	-0.465213	0.311022
H442	H	0.050747	-0.215213	0.561022
H443	H	0.300747	0.034787	0.811022
H444	H	0.550747	0.284787	1.061022
H445	H	-0.860773	-0.803068	0.310753
H446	H	-0.610773	-0.553068	0.560753
H447	H	-0.360773	-0.303068	0.810753
H448	H	-0.110773	-0.053068	1.060753
H449	H	-0.741830	-1.007873	0.292997
H450	H	-0.491830	-0.757873	0.542997
H451	H	-0.241830	-0.507873	0.792997
H452	H	0.008170	-0.257873	1.042997
H453	H	-0.742070	-0.803022	0.310740
H454	H	-0.492070	-0.553022	0.560740
H455	H	-0.242070	-0.303022	0.810740
H456	H	0.007930	-0.053022	1.060740
H457	H	-0.943816	-0.832795	0.374540
H458	H	-0.693816	-0.582795	0.624540
H459	H	-0.443816	-0.332795	0.874540
H460	H	-0.193816	-0.082795	1.124540
N461	N	-0.667540	-0.822096	0.385074
N462	N	-0.417540	-0.572096	0.635074
N463	N	-0.167540	-0.322096	0.885074
N464	N	0.082460	-0.072096	1.135074
H465	H	-0.713953	-0.828193	0.379006
H466	H	-0.463953	-0.578193	0.629006
H467	H	-0.213953	-0.328193	0.879006
H468	H	0.036047	-0.078193	1.129006
H469	H	-0.656159	-0.777349	0.375279
H470	H	-0.406159	-0.527349	0.625279
H471	H	-0.156159	-0.277349	0.875279
H472	H	0.093841	-0.027349	1.125279
N473	N	-0.531532	-0.822049	0.385053
N474	N	-0.281532	-0.572049	0.635053
N475	N	-0.031532	-0.322049	0.885053
N476	N	0.218468	-0.072049	1.135053
H477	H	-0.562203	-0.796664	0.410420
H478	H	-0.312203	-0.546664	0.660420
H479	H	-0.062203	-0.296664	0.910420
H480	H	0.187797	-0.046664	1.160420
H481	H	-0.504433	-0.793056	0.359515
H482	H	-0.254433	-0.543056	0.609515
H483	H	-0.004433	-0.293056	0.859515
H484	H	0.245567	-0.043056	1.109515
H485	H	-0.228896	-0.978258	0.541042
H486	H	0.021104	-0.728258	0.791042
H487	H	0.271104	-0.478258	1.041042
H488	H	0.521104	-0.228258	1.291042
H489	H	-0.374130	-0.832770	1.063324
H490	H	-0.124130	-0.582770	1.313324
H491	H	0.125870	-0.332770	1.563324
H492	H	0.375870	-0.082770	1.813324
H493	H	-0.199115	-0.914547	0.742833
H494	H	0.050885	-0.664547	0.992833
H495	H	0.300885	-0.414547	1.242833
H496	H	0.550885	-0.164547	1.492833
H497	H	-0.199075	-0.914547	0.861545
H498	H	0.050925	-0.664547	1.111545
H499	H	0.300925	-0.414547	1.361545
H500	H	0.550925	-0.164547	1.611545
H501	H	-0.374179	-0.832774	0.944614
H502	H	-0.124179	-0.582774	1.194614
H503	H	0.125821	-0.332774	1.444614
H504	H	0.375821	-0.082774	1.694614
N505	N	-0.418883	-0.895182	0.734165
N506	N	-0.168883	-0.645182	0.984165
N507	N	0.081117	-0.395182	1.234165
N508	N	0.331117	-0.145182	1.484165
H509	H	-0.454635	-0.892038	0.764817
H510	H	-0.204635	-0.642038	1.014817
H511	H	0.045365	-0.392038	1.264817
H512	H	0.295365	-0.142038	1.514817
H513	H	-0.424692	-0.933358	0.707036
H514	H	-0.174692	-0.683358	0.957036
H515	H	0.075308	-0.433358	1.207036
H516	H	0.325308	-0.183358	1.457036
H517	H	-0.374270	-0.832766	0.659687
H518	H	-0.124270	-0.582766	0.909687
H519	H	0.125730	-0.332766	1.159687
H520	H	0.375730	-0.082766	1.409687
H521	H	-0.374310	-0.832753	0.540974
H522	H	-0.124310	-0.582753	0.790974
H523	H	0.125690	-0.332753	1.040974
H524	H	0.375690	-0.082753	1.290974
H525	H	-0.199235	-0.346501	0.311026
H526	H	0.050765	-0.096501	0.561026
H527	H	0.300765	0.153499	0.811026
H528	H	0.550765	0.403499	1.061026
H529	H	-0.229036	-0.263396	0.374710
H530	H	0.020964	-0.013396	0.624710
H531	H	0.270964	0.236604	0.874710
H532	H	0.520964	0.486604	1.124710
H533	H	-0.374196	-0.144469	0.229047
H534	H	-0.124196	0.105531	0.479047
H535	H	0.125804	0.355531	0.729047
H536	H	0.375804	0.605531	0.979047
N537	N	-0.218431	-0.136051	0.385311
N538	N	0.031569	0.113949	0.635311
N539	N	0.281569	0.363949	0.885311
N540	N	0.531569	0.613949	1.135311
H541	H	-0.193090	-0.166745	0.410741
H542	H	0.056910	0.083255	0.660741
H543	H	0.306910	0.333255	0.910741
H544	H	0.556910	0.583255	1.160741
H545	H	-0.243967	-0.108886	0.414260
H546	H	0.006033	0.141114	0.664260
H547	H	0.256033	0.391114	0.914260
H548	H	0.506033	0.641114	1.164260
N549	N	-0.384791	-0.271811	0.218426
N550	N	-0.134791	-0.021811	0.468426
N551	N	0.115209	0.228189	0.718426
N552	N	0.365209	0.478189	0.968426
H553	H	-0.429570	-0.260385	0.228075
H554	H	-0.179570	-0.010385	0.478075
H555	H	0.070430	0.239615	0.728075
H556	H	0.320430	0.489615	0.978075
H557	H	-0.378674	-0.318226	0.224531
H558	H	-0.128674	-0.068226	0.474531
H559	H	0.121326	0.181774	0.724531
H560	H	0.371326	0.431774	0.974531
N561	N	-0.418963	-0.337630	0.291383
N562	N	-0.168963	-0.087630	0.541383
N563	N	0.081037	0.162370	0.791383
N564	N	0.331037	0.412370	1.041383
H565	H	-0.454723	-0.368249	0.288177
H566	H	-0.204723	-0.118249	0.538177
H567	H	0.045277	0.131751	0.788177
H568	H	0.295277	0.381751	1.038177
H569	H	-0.417994	-0.310462	0.252781
H570	H	-0.167994	-0.060462	0.502781
H571	H	0.082006	0.189538	0.752781
H572	H	0.332006	0.439538	1.002781
