data_functionalizedCrystal
_audit_creation_method	'MofGen! by Chris Wilmer'
_symmetry_space_group_name_H-M	'P1'
_symmetry_Int_Tables_number	1
_symmetry_cell_setting	triclinic
loop_
_symmetry_equiv_pos_as_xyz
  x,y,z
_cell_length_a	11.169416
_cell_length_b	12.759401
_cell_length_c	11.169417
_cell_angle_alpha	89.994747
_cell_angle_beta	89.998867
_cell_angle_gamma	90.014613
loop_
_atom_site_label
_atom_site_type_symbol
_atom_site_fract_x
_atom_site_fract_y
_atom_site_fract_z
Zn1	Zn	0.477980	-1.606115	0.678627
Zn2	Zn	0.977980	-1.106115	1.178627
Zn3	Zn	0.678626	-1.606060	0.477960
Zn4	Zn	1.178626	-1.106060	0.977960
Zn5	Zn	0.477961	-1.430462	0.477957
Zn6	Zn	0.977961	-0.930462	0.977957
Zn7	Zn	0.678625	-1.430411	0.678599
Zn8	Zn	1.178625	-0.930411	1.178599
O9	O	0.578298	-1.518262	0.578286
O10	O	1.078298	-1.018262	1.078286
O11	O	0.504604	-1.753129	0.652022
O12	O	1.004604	-1.253129	1.152022
O13	O	0.652000	-1.582764	0.310010
O14	O	1.152000	-1.082764	0.810010
O15	O	0.310014	-1.453808	0.504587
O16	O	0.810014	-0.953808	1.004587
O17	O	0.652018	-1.753088	0.504592
O18	O	1.152018	-1.253088	1.004592
O19	O	0.310028	-1.582860	0.652019
O20	O	0.810028	-1.082860	1.152019
O21	O	0.504572	-1.453754	0.310007
O22	O	1.004572	-0.953754	0.810007
O23	O	0.504571	-1.283434	0.504559
O24	O	1.004571	-0.783434	1.004559
O25	O	0.652016	-1.453721	0.846552
O26	O	1.152016	-0.953721	1.346552
O27	O	0.651998	-1.283397	0.651970
O28	O	1.151998	-0.783397	1.151970
O29	O	0.504603	-1.582810	0.846573
O30	O	1.004603	-1.082810	1.346573
O31	O	0.846576	-1.582715	0.504564
O32	O	1.346576	-1.082715	1.004564
O33	O	0.846575	-1.453666	0.651973
O34	O	1.346575	-0.953666	1.151973
C35	C	0.890123	-1.518207	0.578292
C36	C	1.390123	-1.018207	1.078292
C37	C	1.023523	-1.518280	0.578335
C38	C	1.523523	-1.018280	1.078335
C39	C	0.578283	-1.245295	0.578262
C40	C	1.078283	-0.745295	1.078262
C41	C	0.578306	-1.128518	0.578280
C42	C	1.078306	-0.628518	1.078280
C43	C	0.578312	-1.518266	0.891328
C44	C	1.078312	-1.018266	1.391328
C45	C	0.578317	-1.518267	1.024728
C46	C	1.078317	-1.018267	1.524728
C47	C	1.265256	-1.518335	0.578318
C48	C	1.765256	-1.018335	1.078318
C49	C	1.131856	-1.518339	0.578364
C50	C	1.631856	-1.018339	1.078364
C51	C	0.578313	-1.792295	0.578310
C52	C	1.078313	-1.292295	1.078310
C53	C	0.578320	-1.909072	0.578321
C54	C	1.078320	-1.409072	1.078321
C55	C	0.655188	-1.073664	0.654916
C56	C	1.155188	-0.573664	1.154916
C57	C	0.655192	-0.963940	0.654940
C58	C	1.155192	-0.463940	1.154940
C59	C	0.501430	-0.963934	0.501681
C60	C	1.001430	-0.463934	1.001681
C61	C	0.501420	-1.073656	0.501664
C62	C	1.001420	-0.573656	1.001664
C63	C	0.578315	-1.518254	1.266461
C64	C	1.078315	-1.018254	1.766461
C65	C	0.578322	-1.518263	1.133061
C66	C	1.078322	-1.018263	1.633061
H67	H	0.717790	-1.118330	0.717305
H68	H	1.217790	-0.618330	1.217305
H69	H	0.717796	-0.919283	0.717347
H70	H	1.217796	-0.419283	1.217347
H71	H	0.438834	-0.919251	0.439302
H72	H	0.938834	-0.419251	0.939302
C73	C	0.416847	-1.133999	0.417359
C74	C	0.916847	-0.633999	0.917359
H75	H	0.371071	-1.085612	0.371720
H76	H	0.871071	-0.585612	0.871720
H77	H	0.364628	-1.176820	0.463350
H78	H	0.864628	-0.676820	0.963350
H79	H	0.462679	-1.176783	0.364981
H80	H	0.962679	-0.676783	0.864981
