data_functionalizedCrystal
_audit_creation_method	'MofGen! by Chris Wilmer'
_symmetry_space_group_name_H-M	'P1'
_symmetry_Int_Tables_number	1
_symmetry_cell_setting	triclinic
loop_
_symmetry_equiv_pos_as_xyz
  x,y,z
_cell_length_a	21.395361
_cell_length_b	12.759401
_cell_length_c	12.759393
_cell_angle_alpha	90.019676
_cell_angle_beta	90.038155
_cell_angle_gamma	90.031135
loop_
_atom_site_label
_atom_site_type_symbol
_atom_site_fract_x
_atom_site_fract_y
_atom_site_fract_z
Zn1	Zn	-0.249401	1.606149	0.593929
Zn2	Zn	0.250599	2.106149	1.093929
Zn3	Zn	-0.354191	1.605991	0.418225
Zn4	Zn	0.145809	2.105991	0.918225
Zn5	Zn	-0.249432	1.430448	0.418268
Zn6	Zn	0.250568	1.930448	0.918268
Zn7	Zn	-0.354146	1.430391	0.593866
Zn8	Zn	0.145854	1.930391	1.093866
O9	O	-0.301793	1.518245	0.506072
O10	O	0.198207	2.018245	1.006072
O11	O	-0.263308	1.753150	0.570630
O12	O	0.236692	2.253150	1.070630
O13	O	-0.340327	1.582663	0.271210
O14	O	0.159673	2.082663	0.771210
O15	O	-0.161750	1.453845	0.441613
O16	O	0.338250	1.953845	0.941613
O17	O	-0.340297	1.753033	0.441541
O18	O	0.159703	2.253033	0.941541
O19	O	-0.161727	1.582932	0.570671
O20	O	0.338273	2.082932	1.070671
O21	O	-0.263361	1.453692	0.271241
O22	O	0.236639	1.953692	0.771241
O23	O	-0.263317	1.283420	0.441553
O24	O	0.236683	1.783420	0.941553
O25	O	-0.340219	1.453748	0.740896
O26	O	0.159781	1.953748	1.240896
O27	O	-0.340249	1.283378	0.570565
O28	O	0.159751	1.783378	1.070565
O29	O	-0.263263	1.582877	0.740942
O30	O	0.236737	2.082877	1.240942
O31	O	-0.441863	1.582608	0.441481
O32	O	0.058137	2.082608	0.941481
O33	O	-0.441830	1.453595	0.570524
O34	O	0.058170	1.953595	1.070524
C35	C	-0.301782	1.245278	0.506057
C36	C	0.198218	1.745278	1.006057
C37	C	-0.301792	1.128501	0.506076
C38	C	0.198208	1.628501	1.006076
C39	C	-0.261777	1.073700	0.573396
C40	C	0.238223	1.573700	1.073396
C41	C	-0.261783	0.963976	0.573403
C42	C	0.238217	1.463976	1.073403
C43	C	-0.341826	0.963864	0.438767
C44	C	0.158174	1.463864	0.938767
C45	C	-0.341816	1.073586	0.438755
C46	C	0.158184	1.573586	0.938755
C47	C	-0.464580	1.518106	0.506014
C48	C	0.035420	2.018106	1.006014
C49	C	-0.534222	1.518143	0.506024
C50	C	-0.034222	2.018143	1.006024
C51	C	-0.566931	1.585380	0.438900
C52	C	-0.066931	2.085380	0.938900
C53	C	-0.632367	1.585429	0.438924
C54	C	-0.132367	2.085429	0.938924
C55	C	-0.665090	1.518222	0.506060
C56	C	-0.165090	2.018222	1.006060
C57	C	-0.632372	1.450981	0.573197
C58	C	-0.132372	1.950981	1.073197
C59	C	-0.566938	1.450941	0.573179
C60	C	-0.066938	1.950941	1.073179
C61	C	-0.768804	1.423624	0.514298
C62	C	-0.268804	1.923624	1.014298
C63	C	-0.834237	1.423662	0.514309
C64	C	-0.334237	1.923662	1.014309
C65	C	-0.866911	1.518344	0.506121
C66	C	-0.366911	2.018344	1.006121
C67	C	-0.834143	1.612992	0.497901
C68	C	-0.334143	2.112992	0.997901
C69	C	-0.768709	1.612953	0.497884
C70	C	-0.268709	2.112953	0.997884
C71	C	-0.736042	1.518258	0.506087
C72	C	-0.236042	2.018258	1.006087
C73	C	-0.970573	1.585640	0.439020
C74	C	-0.470573	2.085640	0.939020
C75	C	-1.036009	1.585690	0.439050
C76	C	-0.536009	2.085690	0.939050
C77	C	-1.036014	1.451233	0.573318
C78	C	-0.536014	1.951233	1.073318
C79	C	-0.970578	1.451192	0.573293
C80	C	-0.470578	1.951192	1.073293
C81	C	-0.937862	1.518394	0.506138
C82	C	-0.437862	2.018394	1.006138
C83	C	-0.138369	1.518413	0.506154
C84	C	0.361631	2.018413	1.006154
C85	C	-0.068728	1.518484	0.506189
C86	C	0.431272	2.018484	1.006189
C87	C	-0.301732	1.518324	0.780106
C88	C	0.198268	2.018324	1.280106
C89	C	-0.301707	1.518357	0.896882
C90	C	0.198293	2.018357	1.396882
C91	C	-0.301804	1.792278	0.506088
C92	C	0.198196	2.292278	1.006088
C93	C	-0.301809	1.909055	0.506094
C94	C	0.198191	2.409055	1.006094
C95	C	-0.301807	1.518227	0.233105
C96	C	0.198193	2.018227	0.733105
C97	C	-0.301656	1.518397	0.116329
C98	C	0.198344	2.018397	0.616329
C99	C	-0.261630	1.585600	0.951770
C100	C	0.238370	2.085600	1.451770
C101	C	-0.261603	1.585617	1.061494
C102	C	0.238397	2.085617	1.561494
C103	C	-0.341735	1.451147	1.061433
C104	C	0.158265	1.951147	1.561433
C105	C	-0.341759	1.451125	0.951711
C106	C	0.158241	1.951125	1.451711
H107	H	-0.540296	1.640102	0.384221
H108	H	-0.040296	2.140102	0.884221
O109	O	-0.218430	1.658112	0.892636
O110	O	0.281570	2.158112	1.392636
H111	H	-0.225183	1.646811	0.807117
H112	H	0.274817	2.146811	1.307117
O113	O	-0.218620	0.904874	0.646013
O114	O	0.281380	1.404874	1.146013
H115	H	-0.225343	0.819351	0.634704
H116	H	0.274657	1.319351	1.134704
O117	O	-0.384997	0.904635	0.366163
O118	O	0.115003	1.404635	0.866163
H119	H	-0.378286	0.819131	0.377486
H120	H	0.121714	1.319131	0.877486
O121	O	-1.071289	1.658226	0.366656
O122	O	-0.571289	2.158226	0.866656
H123	H	-1.122287	1.646978	0.377960
H124	H	-0.622287	2.146978	0.877960
H125	H	-0.229185	1.118409	0.628209
H126	H	0.270815	1.618409	1.128209
H127	H	-1.062656	1.396517	0.627986
H128	H	-0.562656	1.896517	1.127986
H129	H	-0.228967	1.640371	1.106179
H130	H	0.271033	2.140371	1.606179
H131	H	-0.374345	1.396412	1.106089
H132	H	0.125655	1.896412	1.606089
H133	H	-0.374394	1.396361	0.907021
H134	H	0.125606	1.896361	1.407021
H135	H	-0.374402	1.118206	0.383930
H136	H	0.125598	1.618206	0.883930
O137	O	-0.935299	1.378642	0.645671
O138	O	-0.435299	1.878642	1.145671
H139	H	-0.947810	1.396606	0.728150
H140	H	-0.447810	1.896606	1.228150
O141	O	-0.667659	1.657941	0.366515
O142	O	-0.167659	2.157941	0.866515
H143	H	-0.633916	1.704657	0.319810
H144	H	-0.133916	2.204657	0.819810
H145	H	-0.943934	1.640363	0.384341
H146	H	-0.443934	2.140363	0.884341
H147	H	-0.742031	1.690018	0.491193
H148	H	-0.242031	2.190018	0.991193
H149	H	-0.860911	1.346593	0.520991
H150	H	-0.360911	1.846593	1.020991
H151	H	-0.860744	1.690092	0.491235
H152	H	-0.360744	2.190092	0.991235
H153	H	-0.742208	1.346516	0.520969
H154	H	-0.242208	1.846516	1.020969
H155	H	-0.659019	1.396263	0.627861
H156	H	-0.159019	1.896263	1.127861
H157	H	-0.540305	1.396188	0.627840
H158	H	-0.040305	1.896188	1.127840
