data_functionalizedCrystal
_audit_creation_method	'MofGen! by Chris Wilmer'
_symmetry_space_group_name_H-M	'P1'
_symmetry_Int_Tables_number	1
_symmetry_cell_setting	triclinic
loop_
_symmetry_equiv_pos_as_xyz
  x,y,z
_cell_length_a	17.077404
_cell_length_b	17.077402
_cell_length_c	17.077396
_cell_angle_alpha	89.970216
_cell_angle_beta	89.980499
_cell_angle_gamma	90.023108
loop_
_atom_site_label
_atom_site_type_symbol
_atom_site_fract_x
_atom_site_fract_y
_atom_site_fract_z
Zn1	Zn	1.200055	-0.312503	-0.443836
Zn2	Zn	1.533388	0.020830	-0.110502
Zn3	Zn	1.866721	0.354163	0.222831
Zn4	Zn	1.199962	-0.443778	-0.312567
Zn5	Zn	1.533295	-0.110445	0.020767
Zn6	Zn	1.866628	0.222888	0.354100
Zn7	Zn	1.068786	-0.312531	-0.312584
Zn8	Zn	1.402120	0.020802	0.020750
Zn9	Zn	1.735453	0.354136	0.354083
Zn10	Zn	1.068754	-0.443732	-0.443790
Zn11	Zn	1.402088	-0.110398	-0.110457
Zn12	Zn	1.735421	0.222935	0.222876
O13	O	1.134389	-0.378136	-0.378194
O14	O	1.467723	-0.044803	-0.044861
O15	O	1.801056	0.288531	0.288473
O16	O	1.309889	-0.329925	-0.426434
O17	O	1.643223	0.003408	-0.093101
O18	O	1.976556	0.336741	0.240232
O19	O	1.182536	-0.426399	-0.202722
O20	O	1.515869	-0.093066	0.130611
O21	O	1.849202	0.240268	0.463945
O22	O	1.086252	-0.202680	-0.330021
O23	O	1.419585	0.130653	0.003313
O24	O	1.752918	0.463986	0.336646
O25	O	1.309821	-0.426372	-0.329992
O26	O	1.643154	-0.093039	0.003342
O27	O	1.976488	0.240294	0.336675
O28	O	1.182694	-0.202660	-0.426451
O29	O	1.516027	0.130673	-0.093118
O30	O	1.849361	0.464007	0.240216
O31	O	1.086162	-0.329972	-0.202734
O32	O	1.419495	0.003361	0.130599
O33	O	1.752828	0.336694	0.463932
O34	O	0.958935	-0.329927	-0.329976
O35	O	1.292269	0.003406	0.003357
O36	O	1.625602	0.336740	0.336690
O37	O	1.086197	-0.426293	-0.553643
O38	O	1.419531	-0.092960	-0.220310
O39	O	1.752864	0.240374	0.113023
O40	O	0.958912	-0.426320	-0.426373
O41	O	1.292245	-0.092986	-0.093040
O42	O	1.625578	0.240347	0.240293
O43	O	1.182663	-0.329880	-0.553677
O44	O	1.515996	0.003453	-0.220343
O45	O	1.849330	0.336787	0.112990
O46	O	1.182505	-0.553619	-0.329948
O47	O	1.515838	-0.220286	0.003386
O48	O	1.849171	0.113048	0.336719
O49	O	1.086107	-0.553585	-0.426357
O50	O	1.419440	-0.220251	-0.093024
O51	O	1.752774	0.113082	0.240310
C52	C	0.930441	-0.378122	-0.378172
C53	C	1.263775	-0.044789	-0.044839
C54	C	1.597108	0.288545	0.288494
C55	C	0.843192	-0.378135	-0.378182
C56	C	1.176525	-0.044801	-0.044848
C57	C	1.509858	0.288532	0.288485
C58	C	0.802210	-0.428402	-0.428295
C59	C	1.135543	-0.095069	-0.094962
C60	C	1.468876	0.238265	0.238372
C61	C	0.720229	-0.428404	-0.428308
C62	C	1.053563	-0.095070	-0.094974
C63	C	1.386896	0.238263	0.238359
C64	C	0.679232	-0.378141	-0.378202
C65	C	1.012566	-0.044808	-0.044869
C66	C	1.345899	0.288525	0.288464
C67	C	0.720220	-0.327869	-0.328087
C68	C	1.053553	0.005465	0.005247
C69	C	1.386887	0.338798	0.338580
C70	C	0.802199	-0.327863	-0.328079
C71	C	1.135532	0.005470	0.005255
C72	C	1.468865	0.338803	0.338588
C73	C	0.549350	-0.327884	-0.328106
C74	C	0.882683	0.005449	0.005228
C75	C	1.216016	0.338783	0.338561
C76	C	0.467365	-0.327890	-0.328112
C77	C	0.800699	0.005443	0.005221
C78	C	1.134032	0.338777	0.338554
C79	C	0.467380	-0.428424	-0.428335
C80	C	0.800714	-0.095091	-0.095001
C81	C	1.134047	0.238242	0.238332
C82	C	0.549359	-0.428419	-0.428327
C83	C	0.882693	-0.095086	-0.094993
C84	C	1.216026	0.238247	0.238340
C85	C	0.590341	-0.378147	-0.378210
C86	C	0.923675	-0.044814	-0.044876
C87	C	1.257008	0.288520	0.288457
C88	C	1.134314	-0.582084	-0.378163
C89	C	1.467647	-0.248751	-0.044829
C90	C	1.800980	0.084583	0.288504
C91	C	1.134353	-0.669334	-0.378176
C92	C	1.467686	-0.336000	-0.044842
C93	C	1.801020	-0.002667	0.288491
C94	C	1.184598	-0.710316	-0.328029
C95	C	1.517932	-0.376982	0.005304
C96	C	1.851265	-0.043649	0.338638
C97	C	1.184637	-0.792296	-0.328049
C98	C	1.517970	-0.458963	0.005284
C99	C	1.851303	-0.125629	0.338618
C100	C	1.134425	-0.833293	-0.378212
C101	C	1.467759	-0.499960	-0.044879
C102	C	1.801092	-0.166626	0.288454
C103	C	1.084178	-0.792305	-0.428364
C104	C	1.417511	-0.458972	-0.095031
C105	C	1.750844	-0.125639	0.238302
C106	C	1.084144	-0.710327	-0.428348
C107	C	1.417477	-0.376993	-0.095014
C108	C	1.750810	-0.043660	0.238319
C109	C	1.084250	-0.963175	-0.428394
C110	C	1.417584	-0.629842	-0.095061
C111	C	1.750917	-0.296509	0.238273
C112	C	1.084283	-1.045160	-0.428410
C113	C	1.417616	-0.711827	-0.095076
C114	C	1.750950	-0.378493	0.238257
C115	C	1.184743	-1.045145	-0.328096
C116	C	1.518077	-0.711812	0.005238
C117	C	1.851410	-0.378478	0.338571
C118	C	1.184709	-0.963166	-0.328079
C119	C	1.518043	-0.629833	0.005254
C120	C	1.851376	-0.296499	0.338588
C121	C	1.134461	-0.922184	-0.378230
C122	C	1.467794	-0.588851	-0.044897
C123	C	1.801127	-0.255517	0.288437
C124	C	1.339134	-0.378151	-0.378216
C125	C	1.672467	-0.044818	-0.044883
C126	C	2.005800	0.288516	0.288450
C127	C	1.426383	-0.378157	-0.378226
C128	C	1.759717	-0.044824	-0.044892
C129	C	2.093050	0.288509	0.288441
C130	C	1.134437	-0.378078	-0.582938
C131	C	1.467770	-0.044745	-0.249605
C132	C	1.801103	0.288588	0.083728
C133	C	1.134457	-0.378054	-0.670188
C134	C	1.467790	-0.044720	-0.336855
C135	C	1.801124	0.288613	-0.003522
C136	C	1.134487	-0.173392	-0.378243
C137	C	1.467820	0.159942	-0.044909
C138	C	1.801153	0.493275	0.288424
C139	C	1.134528	-0.086142	-0.378263
C140	C	1.467862	0.247191	-0.044930
C141	C	1.801195	0.580525	0.288403
C142	C	1.184689	-0.327847	-0.711197
C143	C	1.518022	0.005486	-0.377864
C144	C	1.851355	0.338819	-0.044530
C145	C	1.184698	-0.327821	-0.793178
C146	C	1.518031	0.005512	-0.459844
C147	C	1.851365	0.338846	-0.126511
C148	C	1.134479	-0.378006	-0.834148
C149	C	1.467813	-0.044673	-0.500814
C150	C	1.801146	0.288661	-0.167481
C151	C	1.084242	-0.428214	-0.793133
C152	C	1.417576	-0.094881	-0.459800
C153	C	1.750909	0.238452	-0.126467
C154	C	1.084229	-0.428236	-0.711154
C155	C	1.417563	-0.094903	-0.377821
C156	C	1.750896	0.238431	-0.044488
C157	C	1.084274	-0.428167	-0.964003
C158	C	1.417607	-0.094834	-0.630670
C159	C	1.750941	0.238499	-0.297337
C160	C	1.084288	-0.428147	-1.045988
C161	C	1.417621	-0.094814	-0.712655
C162	C	1.750954	0.238520	-0.379321
C163	C	1.184742	-0.327752	-1.046027
C164	C	1.518076	0.005581	-0.712693
C165	C	1.851409	0.338914	-0.379360
C166	C	1.184730	-0.327774	-0.964048
C167	C	1.518063	0.005559	-0.630714
C168	C	1.851396	0.338893	-0.297381
C169	C	1.134493	-0.377984	-0.923039
C170	C	1.467827	-0.044650	-0.589705
C171	C	1.801160	0.288683	-0.256372
C172	C	1.134387	-0.378137	-0.174246
C173	C	1.467721	-0.044804	0.159087
C174	C	1.801054	0.288530	0.492421
C175	C	1.134519	-0.377941	-0.086997
C176	C	1.467852	-0.044607	0.246337
C177	C	1.801186	0.288726	0.579670
H178	H	0.582737	-0.469352	-0.469122
H179	H	0.916070	-0.136018	-0.135789
H180	H	1.249404	0.197315	0.197544
H181	H	0.686866	-0.469337	-0.469114
H182	H	1.020199	-0.136004	-0.135781
H183	H	1.353532	0.197329	0.197552
H184	H	0.835565	-0.286927	-0.287275
H185	H	1.168899	0.046407	0.046058
H186	H	1.502232	0.379740	0.379391
N187	N	1.238875	-0.273678	-0.837420
N188	N	1.572209	0.059655	-0.504087
N189	N	1.905542	0.392988	-0.170753
H190	H	1.206994	-0.237291	-0.871434
H191	H	1.540327	0.096043	-0.538100
H192	H	1.873661	0.429376	-0.204767
H193	H	1.270684	-0.241941	-0.798986
H194	H	1.604017	0.091392	-0.465652
H195	H	1.937351	0.424726	-0.132319
H196	H	1.043318	-0.469111	-0.677766
H197	H	1.376651	-0.135778	-0.344433
H198	H	1.709985	0.197555	-0.011099
N199	N	0.846427	-0.482613	-0.482338
N200	N	1.179760	-0.149279	-0.149005
N201	N	1.513093	0.184054	0.184329
H202	H	0.880411	-0.518948	-0.450368
H203	H	1.213745	-0.185615	-0.117035
H204	H	1.547078	0.147718	0.216298
H205	H	0.807973	-0.514403	-0.514077
H206	H	1.141307	-0.181070	-0.180743
H207	H	1.474640	0.152263	0.152590
N208	N	0.676009	-0.273661	-0.274035
N209	N	1.009342	0.059672	0.059298
N210	N	1.342676	0.393006	0.392631
H211	H	0.690258	-0.285787	-0.217931
H212	H	1.023591	0.047546	0.115403
H213	H	1.356925	0.380880	0.448736
H214	H	0.690317	-0.217610	-0.286389
H215	H	1.023651	0.115723	0.046944
H216	H	1.356984	0.449056	0.380277
N217	N	0.423185	-0.482649	-0.482389
N218	N	0.756518	-0.149316	-0.149055
N219	N	1.089851	0.184017	0.184278
H220	H	0.365030	-0.475025	-0.474795
H221	H	0.698364	-0.141692	-0.141462
H222	H	1.031697	0.191641	0.191871
H223	H	0.437545	-0.470507	-0.538471
H224	H	0.770879	-0.137174	-0.205138
H225	H	1.104212	0.196160	0.128195
N226	N	1.029952	-0.666115	-0.482430
N227	N	1.363285	-0.332782	-0.149097
N228	N	1.696618	0.000551	0.184236
H229	H	1.042116	-0.680332	-0.538531
H230	H	1.375450	-0.346999	-0.205197
H231	H	1.708783	-0.013665	0.128136
H232	H	0.973899	-0.680451	-0.470125
H233	H	1.307232	-0.347117	-0.136791
H234	H	1.640566	-0.013784	0.196542
H235	H	0.433988	-0.286953	-0.287321
H236	H	0.767321	0.046381	0.046012
H237	H	1.100654	0.379714	0.379345
N238	N	1.030020	-0.836526	-0.482465
N239	N	1.363353	-0.503192	-0.149132
N240	N	1.696687	-0.169859	0.184201
H241	H	0.973936	-0.822310	-0.470219
H242	H	1.307269	-0.488977	-0.136886
H243	H	1.640603	-0.155644	0.196448
H244	H	1.042239	-0.822194	-0.538539
H245	H	1.375572	-0.488861	-0.205206
H246	H	1.708905	-0.155528	0.128127
N247	N	1.238886	-0.273645	-0.919851
N248	N	1.572219	0.059688	-0.586517
N249	N	1.905552	0.393022	-0.253184
H250	H	1.275240	-0.305558	-0.885834
H251	H	1.608573	0.027775	-0.552501
H252	H	1.941906	0.361108	-0.219168
H253	H	1.270659	-0.241840	-0.958313
H254	H	1.603992	0.091493	-0.624980
H255	H	1.937326	0.424827	-0.291646
H256	H	1.225645	-0.286868	-1.079420
H257	H	1.558979	0.046465	-0.746087
H258	H	1.892312	0.379798	-0.412753
N259	N	0.593557	-0.273669	-0.274049
N260	N	0.926891	0.059665	0.059284
N261	N	1.260224	0.392998	0.392618
H262	H	0.627597	-0.237329	-0.306010
H263	H	0.960930	0.096004	0.027324
H264	H	1.294264	0.429337	0.360657
H265	H	0.555100	-0.241882	-0.242315
H266	H	0.888434	0.091451	0.091018
H267	H	1.221767	0.424784	0.424352
N268	N	1.030125	-0.482273	-1.090180
N269	N	1.363459	-0.148940	-0.756847
N270	N	1.696792	0.184393	-0.423514
H271	H	0.998295	-0.514080	-1.051764
H272	H	1.331628	-0.180747	-0.718430
H273	H	1.664961	0.152586	-0.385097
H274	H	0.993825	-0.450304	-1.124198
H275	H	1.327159	-0.116971	-0.790865
H276	H	1.660492	0.216363	-0.457531
N277	N	1.030088	-0.482317	-0.919770
N278	N	1.363421	-0.148984	-0.586436
N279	N	1.696755	0.184350	-0.253103
H280	H	0.998278	-0.514108	-0.958162
H281	H	1.331611	-0.180774	-0.624829
H282	H	1.664944	0.152559	-0.291495
H283	H	1.062019	-0.518654	-0.885752
H284	H	1.395352	-0.185321	-0.552419
H285	H	1.728685	0.148012	-0.219086
N286	N	1.238753	-0.666100	-0.273921
N287	N	1.572086	-0.332767	0.059412
N288	N	1.905420	0.000566	0.392745
H289	H	1.270590	-0.704505	-0.242159
H290	H	1.603924	-0.371172	0.091174
H291	H	1.937257	-0.037838	0.424508
H292	H	1.275047	-0.632034	-0.305902
H293	H	1.608380	-0.298701	0.027431
H294	H	1.941713	0.034633	0.360765
N295	N	1.030083	-0.482348	-0.837321
N296	N	1.363416	-0.149014	-0.503988
N297	N	1.696750	0.184319	-0.170654
H298	H	0.998259	-0.514156	-0.798900
H299	H	1.331592	-0.180823	-0.465567
H300	H	1.664925	0.152511	-0.132233
H301	H	0.993777	-0.450386	-0.871339
H302	H	1.327110	-0.117052	-0.538005
H303	H	1.660444	0.216281	-0.204672
N304	N	1.238827	-0.836500	-0.273961
N305	N	1.572160	-0.503167	0.059372
N306	N	1.905494	-0.169834	0.392705
H307	H	1.294900	-0.822175	-0.286196
H308	H	1.628233	-0.488841	0.047137
H309	H	1.961567	-0.155508	0.380470
H310	H	1.226590	-0.822268	-0.217883
H311	H	1.559923	-0.488934	0.115450
H312	H	1.893256	-0.155601	0.448783
N313	N	1.238866	-0.918945	-0.273978
N314	N	1.572199	-0.585611	0.059356
N315	N	1.905533	-0.252278	0.392689
H316	H	1.270707	-0.957345	-0.242213
H317	H	1.604040	-0.624011	0.091120
H318	H	1.937374	-0.290678	0.424454
H319	H	1.275156	-0.884882	-0.305965
H320	H	1.608489	-0.551548	0.027368
H321	H	1.941823	-0.218215	0.360701
N322	N	1.030130	-1.089377	-0.482518
N323	N	1.363464	-0.756044	-0.149185
N324	N	1.696797	-0.422711	0.184148
H325	H	1.062029	-1.123342	-0.518923
H326	H	1.395363	-0.790008	-0.185590
H327	H	1.728696	-0.456675	0.147743
H328	H	0.993794	-1.123396	-0.450535
H329	H	1.327128	-0.790062	-0.117202
H330	H	1.660461	-0.456729	0.216131
N331	N	1.238941	-1.089341	-0.274002
N332	N	1.572275	-0.756008	0.059331
N333	N	1.905608	-0.422674	0.392665
H334	H	1.231349	-1.147495	-0.281626
H335	H	1.564682	-0.814162	0.051708
H336	H	1.898015	-0.480828	0.385041
H337	H	1.294990	-1.074953	-0.286265
H338	H	1.628323	-0.741620	0.047068
H339	H	1.961657	-0.408287	0.380401
H340	H	1.043335	-0.929811	-0.469235
H341	H	1.376668	-0.596477	-0.135902
H342	H	1.710002	-0.263144	0.197431
H343	H	1.225585	-0.286983	-0.677845
H344	H	1.558918	0.046350	-0.344512
H345	H	1.892252	0.379683	-0.011178
