data_functionalizedCrystal
_audit_creation_method	'MofGen! by Chris Wilmer'
_symmetry_space_group_name_H-M	'P1'
_symmetry_Int_Tables_number	1
_symmetry_cell_setting	triclinic
loop_
_symmetry_equiv_pos_as_xyz
  x,y,z
_cell_length_a	12.759401
_cell_length_b	12.759400
_cell_length_c	12.759393
_cell_angle_alpha	89.970670
_cell_angle_beta	89.980591
_cell_angle_gamma	90.013397
loop_
_atom_site_label
_atom_site_type_symbol
_atom_site_fract_x
_atom_site_fract_y
_atom_site_fract_z
Zn1	Zn	1.606264	-0.418209	-0.594021
Zn2	Zn	1.606164	-0.593925	-0.418344
Zn3	Zn	1.430567	-0.418261	-0.418357
Zn4	Zn	1.430560	-0.593848	-0.593982
O5	O	1.518389	-0.506061	-0.506176
O6	O	1.753272	-0.441529	-0.570728
O7	O	1.582832	-0.570677	-0.271325
O8	O	1.453919	-0.271233	-0.441680
O9	O	1.753198	-0.570626	-0.441659
O10	O	1.583003	-0.271195	-0.570740
O11	O	1.453821	-0.441617	-0.271334
O12	O	1.283545	-0.441542	-0.441643
O13	O	1.453906	-0.570495	-0.741009
O14	O	1.283540	-0.570545	-0.570674
O15	O	1.582996	-0.441454	-0.741037
O16	O	1.582825	-0.740936	-0.441622
O17	O	1.453809	-0.740879	-0.570662
C18	C	1.245422	-0.506042	-0.506157
C19	C	1.128645	-0.506059	-0.506173
C20	C	1.073748	-0.573172	-0.438875
C21	C	0.964024	-0.573190	-0.438893
C22	C	0.964103	-0.438973	-0.573510
C23	C	1.073825	-0.438961	-0.573497
C24	C	1.073701	-0.650659	-0.361152
C25	C	0.963977	-0.650677	-0.361170
C26	C	1.518334	-0.779028	-0.506160
C27	C	1.518406	-0.895805	-0.506188
C28	C	1.585587	-0.950567	-0.573444
C29	C	1.585636	-1.060291	-0.573469
C30	C	1.451321	-1.060481	-0.438973
C31	C	1.451267	-0.950759	-0.438954
C32	C	1.663136	-0.950459	-0.651091
C33	C	1.663185	-1.060183	-0.651117
C34	C	1.792422	-0.506081	-0.506196
C35	C	1.909199	-0.506089	-0.506205
C36	C	1.518461	-0.505960	-0.780210
C37	C	1.518492	-0.505917	-0.896986
C38	C	1.518473	-0.232027	-0.506216
C39	C	1.518509	-0.115251	-0.506233
C40	C	1.585671	-0.573093	-0.951841
C41	C	1.585703	-0.573048	-1.061565
C42	C	1.451368	-0.438649	-1.061570
C43	C	1.451342	-0.438689	-0.951848
C44	C	1.663226	-0.650690	-0.951839
C45	C	1.663257	-0.650645	-1.061563
C46	C	1.518377	-0.506085	-0.233209
C47	C	1.518550	-0.505832	-0.116433
H48	H	0.919456	-0.384344	-0.628323
H49	H	0.929952	-0.728015	-0.390184
H50	H	1.396697	-0.383914	-1.106252
H51	H	1.744596	-0.628917	-0.922075
O52	O	1.634344	-0.758400	-1.101006
H53	H	1.692333	-0.816370	-1.071969
H54	H	1.103477	-0.732052	-0.382799
O55	O	1.133032	-0.366583	-0.646095
H56	H	1.218539	-0.377852	-0.634786
O57	O	1.634169	-0.910948	-0.758829
H58	H	1.620021	-0.978621	-0.811591
H59	H	1.740574	-0.621499	-1.095605
O60	O	1.770992	-1.099596	-0.622349
H61	H	1.792189	-1.070629	-0.543129
H62	H	1.396647	-0.383980	-0.907190
H63	H	1.107702	-0.621414	-0.283905
H64	H	0.934163	-0.628786	-0.279842
O65	O	1.765514	-0.905315	-0.612574
H66	H	1.819838	-0.970116	-0.592174
H67	H	1.634057	-0.727997	-0.917792
H68	H	1.396657	-1.105237	-0.384235
O69	O	1.378813	-0.891688	-0.366411
H70	H	1.332149	-0.948337	-0.319655
O71	O	1.624552	-1.105232	-0.753476
H72	H	1.676039	-1.078258	-0.818232
