data_functionalizedCrystal
_audit_creation_method	'MofGen! by Chris Wilmer'
_symmetry_space_group_name_H-M	'P1'
_symmetry_Int_Tables_number	1
_symmetry_cell_setting	triclinic
loop_
_symmetry_equiv_pos_as_xyz
  x,y,z
_cell_length_a	12.759401
_cell_length_b	17.077402
_cell_length_c	17.077396
_cell_angle_alpha	89.970216
_cell_angle_beta	89.983593
_cell_angle_gamma	90.023044
loop_
_atom_site_label
_atom_site_type_symbol
_atom_site_fract_x
_atom_site_fract_y
_atom_site_fract_z
Zn1	Zn	1.606174	-0.312505	-0.443771
Zn2	Zn	1.606050	-0.443780	-0.312502
Zn3	Zn	1.430482	-0.312532	-0.312526
Zn4	Zn	1.430439	-0.443733	-0.443732
O5	O	1.518286	-0.378137	-0.378133
O6	O	1.753178	-0.329927	-0.426364
O7	O	1.582726	-0.426400	-0.202658
O8	O	1.453858	-0.202682	-0.329962
O9	O	1.753087	-0.426374	-0.329921
O10	O	1.582938	-0.202661	-0.426387
O11	O	1.453738	-0.329973	-0.202676
O12	O	1.283456	-0.329928	-0.329925
O13	O	1.453785	-0.426294	-0.553585
O14	O	1.283424	-0.426321	-0.426322
O15	O	1.582897	-0.329881	-0.553613
O16	O	1.582685	-0.553620	-0.329884
O17	O	1.453665	-0.553586	-0.426298
C18	C	1.518185	-0.582085	-0.378101
C19	C	1.518238	-0.669335	-0.378114
C20	C	1.245319	-0.378123	-0.378122
C21	C	1.128542	-0.378136	-0.378136
C22	C	1.585487	-0.710317	-0.327965
C23	C	1.585538	-0.792297	-0.327985
C24	C	1.518334	-0.833294	-0.378151
C25	C	1.451082	-0.792307	-0.428306
C26	C	1.451037	-0.710328	-0.428289
C27	C	1.451179	-0.963177	-0.428335
C28	C	1.451223	-1.045161	-0.428351
C29	C	1.585681	-1.045146	-0.328032
C30	C	1.585636	-0.963167	-0.328015
C31	C	1.518382	-0.922185	-0.378169
C32	C	1.073691	-0.428408	-0.428247
C33	C	0.963967	-0.428418	-0.428256
C34	C	0.963955	-0.327881	-0.328036
C35	C	1.073677	-0.327868	-0.328032
C36	C	1.073698	-0.486454	-0.486106
C37	C	0.963974	-0.486464	-0.486114
C38	C	1.792320	-0.378152	-0.378144
C39	C	1.909096	-0.378159	-0.378149
C40	C	1.518350	-0.378080	-0.582877
C41	C	1.518377	-0.378055	-0.670127
C42	C	1.518417	-0.173393	-0.378181
C43	C	1.518472	-0.086143	-0.378202
C44	C	1.585608	-0.327849	-0.711133
C45	C	1.585620	-0.327822	-0.793114
C46	C	1.518407	-0.378007	-0.834086
C47	C	1.451169	-0.428216	-0.793075
C48	C	1.451152	-0.428237	-0.711096
C49	C	1.451211	-0.428168	-0.963945
C50	C	1.451229	-0.428148	-1.045929
C51	C	1.585680	-0.327754	-1.045963
C52	C	1.585663	-0.327775	-0.963984
C53	C	1.518426	-0.377985	-0.922978
C54	C	1.518283	-0.378138	-0.174185
C55	C	1.518460	-0.377942	-0.086936
H56	H	1.640208	-0.676943	-0.287111
Br57	Br	0.907299	-0.450304	-0.582438
H58	H	1.396368	-0.825693	-0.469155
Br59	Br	1.148115	-0.259622	-0.260039
H60	H	1.640369	-0.286941	-0.826497
H61	H	0.934167	-0.547243	-0.469723
Br62	Br	1.676816	-0.847913	-0.259927
Br63	Br	1.360000	-0.496249	-1.101536
Br64	Br	1.359956	-0.496308	-0.908294
H65	H	1.396418	-0.929812	-0.469179
Br66	Br	1.676839	-0.259743	-0.655535
Br67	Br	1.359773	-0.654708	-0.496356
H68	H	1.640425	-0.286870	-1.079354
Br69	Br	0.889488	-0.259662	-0.260042
Br70	Br	1.676891	-0.259674	-0.908377
H71	H	1.103506	-0.470248	-0.546930
Br72	Br	1.676840	-0.907529	-0.259930
H73	H	1.396438	-0.469074	-0.826441
Br74	Br	1.130385	-0.582680	-0.449712
Br75	Br	1.359900	-0.496372	-0.655443
H76	H	1.640445	-1.078518	-0.287197
H77	H	1.396519	-1.078539	-0.469215
