data_functionalizedCrystal
_audit_creation_method	'MofGen! by Chris Wilmer'
_symmetry_space_group_name_H-M	'P1'
_symmetry_Int_Tables_number	1
_symmetry_cell_setting	triclinic
loop_
_symmetry_equiv_pos_as_xyz
  x,y,z
_cell_length_a	21.395362
_cell_length_b	21.395361
_cell_length_c	21.395355
_cell_angle_alpha	90.021511
_cell_angle_beta	90.043940
_cell_angle_gamma	90.046585
loop_
_atom_site_label
_atom_site_type_symbol
_atom_site_fract_x
_atom_site_fract_y
_atom_site_fract_z
Zn1	Zn	0.957859	-0.249246	0.354573
Zn2	Zn	0.957762	-0.354005	0.249790
Zn3	Zn	0.853074	-0.249275	0.249774
Zn4	Zn	0.853044	-0.354018	0.354494
O5	O	0.905435	-0.301636	0.302158
O6	O	1.045524	-0.263125	0.340712
O7	O	0.943847	-0.340119	0.162110
O8	O	0.867028	-0.161593	0.263702
O9	O	1.045453	-0.340091	0.263729
O10	O	0.944013	-0.161572	0.340697
O11	O	0.866934	-0.263174	0.162098
O12	O	0.765392	-0.263187	0.263626
O13	O	0.866976	-0.340113	0.442183
O14	O	0.765370	-0.340141	0.340564
O15	O	0.943983	-0.263137	0.442240
O16	O	0.943817	-0.441685	0.263653
O17	O	0.866881	-0.441695	0.340579
C18	C	0.742647	-0.301669	0.302085
C19	C	0.673006	-0.301698	0.302069
C20	C	0.640297	-0.341822	0.342070
C21	C	0.574862	-0.341806	0.342098
C22	C	0.542138	-0.301674	0.302113
C23	C	0.574854	-0.261543	0.262109
C24	C	0.640288	-0.261555	0.262087
C25	C	0.438413	-0.296627	0.245708
C26	C	0.372980	-0.296619	0.245730
C27	C	0.340317	-0.301633	0.302182
C28	C	0.373095	-0.306668	0.358616
C29	C	0.438529	-0.306681	0.358594
C30	C	0.471185	-0.301656	0.302133
C31	C	0.236656	-0.341742	0.342218
C32	C	0.171219	-0.341723	0.342247
C33	C	0.171213	-0.261462	0.262252
C34	C	0.236648	-0.261479	0.262229
C35	C	0.269366	-0.301622	0.302211
C36	C	0.905352	-0.464424	0.302123
C37	C	0.905374	-0.534065	0.302129
C38	C	0.945470	-0.566752	0.262114
C39	C	0.945499	-0.632188	0.262128
C40	C	0.905421	-0.664933	0.302150
C41	C	0.865322	-0.632238	0.342172
C42	C	0.865299	-0.566804	0.342162
C43	C	0.849006	-0.768664	0.307041
C44	C	0.849029	-0.834097	0.307047
C45	C	0.905494	-0.866754	0.302187
C46	C	0.961939	-0.833970	0.297307
C47	C	0.961915	-0.768536	0.297296
C48	C	0.905443	-0.735886	0.302167
C49	C	0.945625	-0.970394	0.262186
C50	C	0.945655	-1.035830	0.262204
C51	C	0.865473	-1.035879	0.342245
C52	C	0.865448	-0.970444	0.342230
C53	C	0.905524	-0.937705	0.302197
C54	C	1.068858	-0.301603	0.302231
C55	C	1.138499	-0.301589	0.302262
C56	C	0.905487	-0.301623	0.465581
C57	C	0.905509	-0.301618	0.535222
C58	C	0.905535	-0.138213	0.302206
C59	C	0.905578	-0.068571	0.302227
C60	C	0.905419	-0.301603	0.139370
C61	C	0.905518	-0.301432	0.069729
C62	C	0.945605	-0.261535	0.567966
C63	C	0.945604	-0.261508	0.633402
C64	C	0.905514	-0.301575	0.666091
C65	C	0.865410	-0.341661	0.633339
C66	C	0.865407	-0.341682	0.567904
C67	C	0.900538	-0.357992	0.769752
C68	C	0.900545	-0.357972	0.835185
C69	C	0.905518	-0.301509	0.867911
C70	C	0.910497	-0.245065	0.835197
C71	C	0.910495	-0.245086	0.769763
C72	C	0.905512	-0.301556	0.737043
C73	C	0.945615	-0.261393	0.971608
C74	C	0.945610	-0.261365	1.037045
C75	C	0.865419	-0.341524	1.036980
C76	C	0.865421	-0.341547	0.971545
C77	C	0.905522	-0.301482	0.938863
H78	H	0.346502	-0.310751	0.404585
H79	H	0.978310	-1.062443	0.229621
H80	H	0.896494	-0.403932	0.861815
O81	O	0.895778	-0.412824	0.737918
C82	C	0.949106	-0.420944	0.700111
H83	H	0.971316	-0.373507	0.690291
H84	H	0.934919	-0.443824	0.654104
H85	H	0.984203	-0.452067	0.725365
O86	O	0.826393	-0.380536	0.536067
C87	C	0.785957	-0.344888	0.498173
H88	H	0.782116	-0.295534	0.517889
H89	H	0.737726	-0.367560	0.497392
H90	H	0.805332	-0.342744	0.448597
O91	O	0.826498	-0.380671	0.665020
C92	C	0.840161	-0.443121	0.649047
H93	H	0.864243	-0.444428	0.601554
H94	H	0.794925	-0.471224	0.646774
H95	H	0.872363	-0.464207	0.685895
H96	H	0.144569	-0.228783	0.229699
H97	H	0.832795	-0.943828	0.374811
O98	O	0.826520	-1.067583	0.381182
C99	C	0.791109	-1.024697	0.416484
H100	H	0.816754	-0.978021	0.418677
H101	H	0.784408	-1.043583	0.465845
H102	H	0.743533	-1.017807	0.393478
H103	H	0.144589	-0.374395	0.374824
H104	H	0.978259	-0.943737	0.229590
O105	O	0.984496	-0.222383	0.939882
C106	C	0.970851	-0.159934	0.955870
H107	H	0.920799	-0.156774	0.973821
H108	H	0.976265	-0.128997	0.912841
H109	H	1.004454	-0.143533	0.993876
H110	H	0.263280	-0.228809	0.229652
H111	H	0.978254	-0.228864	0.660067
H112	H	1.007918	-0.860558	0.293349
O113	O	0.671981	-0.380832	0.380970
C114	C	0.629075	-0.416254	0.416272
H115	H	0.582459	-0.390585	0.418503
H116	H	0.648026	-0.423015	0.465619
H117	H	0.622043	-0.463803	0.393240
H118	H	0.548226	-0.374479	0.374674
H119	H	0.465214	-0.310778	0.404543
O120	O	0.984574	-0.222554	0.536317
C121	C	1.019975	-0.187180	0.579255
H122	H	0.994315	-0.185002	0.625880
H123	H	1.026689	-0.137818	0.560359
H124	H	1.067546	-0.210113	0.586246
O125	O	0.794149	-0.865843	0.311818
C126	C	0.744305	-0.822991	0.316099
H127	H	0.762547	-0.776317	0.334273
H128	H	0.707447	-0.841923	0.349579
H129	H	0.722617	-0.816080	0.267910
H130	H	0.978153	-0.658807	0.229544
H131	H	0.346297	-0.292523	0.199778
O132	O	0.268346	-0.380749	0.381119
C133	C	0.225441	-0.416167	0.416427
H134	H	0.178826	-0.390497	0.418660
H135	H	0.244396	-0.422923	0.465774
H136	H	0.218407	-0.463718	0.393401
H137	H	0.832691	-0.658904	0.374760
H138	H	0.465002	-0.292541	0.199734
H139	H	0.832774	-0.374190	0.944885
O140	O	0.543139	-0.222591	0.223178
C141	C	0.559038	-0.236205	0.160701
H142	H	0.606522	-0.260297	0.159345
H143	H	0.561292	-0.190945	0.132690
H144	H	0.522157	-0.268380	0.139549
O145	O	0.794182	-0.736879	0.311677
C146	C	0.786113	-0.699079	0.258316
H147	H	0.833569	-0.689228	0.236205
H148	H	0.763249	-0.653087	0.272433
H149	H	0.754998	-0.724355	0.223161
H150	H	0.832647	-0.540189	0.374747
H151	H	0.914547	-0.199128	0.743130
H152	H	0.666919	-0.228880	0.229513
H153	H	0.978103	-0.540098	0.229519
O154	O	0.915207	-0.190215	0.867003
C155	C	0.861874	-0.182152	0.904816
H156	H	0.821574	-0.210931	0.885064
H157	H	0.848263	-0.130653	0.905540
H158	H	0.872660	-0.198351	0.954419
H159	H	1.007873	-0.741844	0.293325
O160	O	0.984469	-0.222354	1.068880
C161	C	0.948824	-0.181887	1.106711
H162	H	0.899479	-0.178035	1.086954
H163	H	0.971514	-0.133664	1.107466
H164	H	0.946654	-0.201237	1.156302
H165	H	0.832770	-0.374141	1.063595
