data_functionalizedCrystal
_audit_creation_method	'MofGen! by Chris Wilmer'
_symmetry_space_group_name_H-M	'P1'
_symmetry_Int_Tables_number	1
_symmetry_cell_setting	triclinic
loop_
_symmetry_equiv_pos_as_xyz
  x,y,z
_cell_length_a	21.395364
_cell_length_b	21.395362
_cell_length_c	17.077396
_cell_angle_alpha	89.967711
_cell_angle_beta	89.980400
_cell_angle_gamma	90.044742
loop_
_atom_site_label
_atom_site_type_symbol
_atom_site_fract_x
_atom_site_fract_y
_atom_site_fract_z
Zn1	Zn	0.957833	-0.249189	-0.443824
Zn2	Zn	0.957746	-0.353970	-0.312549
Zn3	Zn	0.853057	-0.249238	-0.312572
Zn4	Zn	0.853018	-0.353960	-0.443773
O5	O	0.905413	-0.301589	-0.378180
O6	O	1.045499	-0.263072	-0.426422
O7	O	0.943838	-0.340102	-0.202705
O8	O	0.867008	-0.161553	-0.330014
O9	O	1.045435	-0.340054	-0.329975
O10	O	0.943986	-0.161517	-0.426444
O11	O	0.866924	-0.263155	-0.202722
O12	O	0.765374	-0.263145	-0.329964
O13	O	0.866943	-0.340037	-0.553627
O14	O	0.765346	-0.340084	-0.426357
O15	O	0.943949	-0.263062	-0.553664
O16	O	0.943801	-0.441646	-0.329926
O17	O	0.866858	-0.441639	-0.426335
C18	C	0.742626	-0.301619	-0.378158
C19	C	0.672985	-0.301648	-0.378167
C20	C	0.640327	-0.261628	-0.428464
C21	C	0.574892	-0.261612	-0.428467
C22	C	0.542116	-0.301625	-0.378181
C23	C	0.574782	-0.341647	-0.327874
C24	C	0.640216	-0.341658	-0.327867
C25	C	0.438393	-0.358051	-0.371867
C26	C	0.372960	-0.358041	-0.371880
C27	C	0.340295	-0.301591	-0.378198
C28	C	0.373072	-0.245149	-0.384521
C29	C	0.438506	-0.245160	-0.384514
C30	C	0.471164	-0.301618	-0.378183
C31	C	0.236685	-0.261550	-0.428502
C32	C	0.171249	-0.261533	-0.428500
C33	C	0.171140	-0.341574	-0.327910
C34	C	0.236575	-0.341586	-0.327908
C35	C	0.269344	-0.301575	-0.378209
C36	C	0.905333	-0.464377	-0.378139
C37	C	0.905356	-0.534018	-0.378148
C38	C	0.945416	-0.566655	-0.428395
C39	C	0.945438	-0.632091	-0.428415
C40	C	0.905407	-0.664886	-0.378173
C41	C	0.865339	-0.632241	-0.327922
C42	C	0.865314	-0.566807	-0.327910
C43	C	0.900535	-0.768599	-0.307464
C44	C	0.900564	-0.834032	-0.307474
C45	C	0.905481	-0.866707	-0.378211
C46	C	0.910382	-0.833940	-0.448938
C47	C	0.910356	-0.768506	-0.448926
C48	C	0.905430	-0.735838	-0.378181
C49	C	0.945567	-0.970297	-0.428483
C50	C	0.945585	-1.035733	-0.428503
C51	C	0.865489	-1.035882	-0.328004
C52	C	0.865468	-0.970447	-0.327990
C53	C	0.905511	-0.937658	-0.378229
C54	C	1.068837	-0.301559	-0.378202
C55	C	1.138478	-0.301546	-0.378212
C56	C	0.905451	-0.301543	-0.582924
C57	C	0.905467	-0.301523	-0.670174
C58	C	0.905511	-0.138166	-0.378237
C59	C	0.905552	-0.068524	-0.378262
C60	C	0.945566	-0.261439	-0.711185
C61	C	0.945574	-0.261418	-0.793165
C62	C	0.905485	-0.301485	-0.834133
C63	C	0.865382	-0.341571	-0.793116
C64	C	0.865372	-0.341588	-0.711137
C65	C	0.865407	-0.341533	-0.963987
C66	C	0.865418	-0.341517	-1.045971
C67	C	0.945609	-0.261363	-1.046015
C68	C	0.945599	-0.261380	-0.964036
C69	C	0.905496	-0.301467	-0.923024
C70	C	0.905412	-0.301590	-0.174232
C71	C	0.905517	-0.301433	-0.086982
H72	H	0.548297	-0.229020	-0.469424
F73	F	0.271562	-0.218964	-0.482030
H74	H	0.832744	-0.658947	-0.287016
H75	H	0.978228	-0.228779	-0.826553
H76	H	0.144660	-0.228940	-0.469457
F77	F	0.895354	-0.868898	-0.232201
H78	H	0.832742	-0.374166	-0.930598
F79	F	0.473151	-0.418137	-0.365133
H80	H	0.832739	-0.374192	-0.826479
H81	H	0.346279	-0.403999	-0.366735
H82	H	0.978261	-0.228722	-1.079410
H83	H	0.667003	-0.229048	-0.469422
H84	H	0.832713	-0.374222	-0.677747
F85	F	0.473386	-0.185092	-0.391240
H86	H	0.978246	-0.228758	-0.930682
F87	F	0.822746	-0.384155	-1.089571
F88	F	0.822831	-0.935710	-0.274509
F89	F	0.988181	-0.935398	-0.481953
H90	H	0.346478	-0.199182	-0.389666
F91	F	0.988238	-0.218797	-0.667591
H92	H	0.548092	-0.374226	-0.286930
F93	F	0.674973	-0.384253	-0.274329
F94	F	0.988218	-1.070469	-0.481994
F95	F	0.988030	-0.531763	-0.481868
H96	H	0.978054	-0.658669	-0.469341
H97	H	0.144455	-0.374154	-0.286966
H98	H	0.832891	-1.062583	-0.287101
H99	H	0.914345	-0.741829	-0.506514
F100	F	0.915617	-0.868710	-0.524227
F101	F	0.822674	-0.532070	-0.274428
H102	H	0.896528	-0.742001	-0.249858
F103	F	0.271333	-0.384178	-0.274372
