data_functionalizedCrystal
_audit_creation_method	'MofGen! by Chris Wilmer'
_symmetry_space_group_name_H-M	'P1'
_symmetry_Int_Tables_number	1
_symmetry_cell_setting	triclinic
loop_
_symmetry_equiv_pos_as_xyz
  x,y,z
_cell_length_a	12.759401
_cell_length_b	12.759400
_cell_length_c	12.759393
_cell_angle_alpha	89.974992
_cell_angle_beta	90.021396
_cell_angle_gamma	89.995733
loop_
_atom_site_label
_atom_site_type_symbol
_atom_site_fract_x
_atom_site_fract_y
_atom_site_fract_z
Zn1	Zn	-1.606337	-0.418181	-0.594112
Zn2	Zn	-1.606266	-0.593900	-0.418453
Zn3	Zn	-1.430639	-0.418238	-0.418442
Zn4	Zn	-1.430662	-0.593821	-0.594085
O5	O	-1.518476	-0.506035	-0.506273
O6	O	-1.753349	-0.441499	-0.570826
O7	O	-1.582929	-0.570655	-0.271430
O8	O	-1.453966	-0.271209	-0.441753
O9	O	-1.753297	-0.570599	-0.441770
O10	O	-1.583051	-0.271167	-0.570816
O11	O	-1.453897	-0.441597	-0.271423
O12	O	-1.283621	-0.441520	-0.441726
O13	O	-1.454005	-0.570465	-0.741110
O14	O	-1.283638	-0.570520	-0.570770
O15	O	-1.583073	-0.441423	-0.741130
O16	O	-1.582952	-0.740910	-0.441743
O17	O	-1.453936	-0.740852	-0.570780
C18	C	-1.245509	-0.506019	-0.506245
C19	C	-1.128732	-0.506037	-0.506258
C20	C	-1.518467	-0.779002	-0.506283
C21	C	-1.518560	-0.895779	-0.506322
C22	C	-1.518514	-0.232001	-0.506286
C23	C	-1.518530	-0.115225	-0.506292
C24	C	-1.073907	-0.573309	-0.573343
C25	C	-0.964183	-0.573311	-0.573361
C26	C	-0.964119	-0.438767	-0.439198
C27	C	-1.073841	-0.438760	-0.439187
C28	C	-0.792509	-0.506049	-0.506295
C29	C	-0.909286	-0.506047	-0.506287
C30	C	-1.518550	-0.505928	-0.780306
C31	C	-1.518581	-0.505883	-0.897083
C32	C	-1.451333	-0.060383	-0.439101
C33	C	-1.451345	0.049341	-0.439118
C34	C	-1.585759	0.049372	-0.573520
C35	C	-1.585741	-0.060350	-0.573508
C36	C	-1.451418	-0.438670	-0.951941
C37	C	-1.451442	-0.438638	-1.061665
C38	C	-1.585802	-0.573034	-1.061664
C39	C	-1.585771	-0.573071	-0.951942
C40	C	-1.518464	-0.506065	-0.233306
C41	C	-1.518636	-0.505814	-0.116529
H42	H	-0.919548	-0.628089	-0.627991
N43	N	-1.132980	-0.366205	-0.366817
H44	H	-1.210818	-0.376409	-0.376991
H45	H	-1.113812	-0.291191	-0.383292
N46	N	-1.133113	-0.645866	-0.645681
H47	H	-1.081727	-0.688482	-0.688183
H48	H	-1.178663	-0.603156	-0.694366
N49	N	-0.904916	-0.366236	-0.366833
H50	H	-0.827087	-0.376457	-0.377008
H51	H	-0.924075	-0.382524	-0.291780
H52	H	-1.396603	-0.105059	-0.384372
H53	H	-1.640483	0.094062	-0.628244
N54	N	-1.378936	-0.366220	-0.892773
H55	H	-1.389107	-0.376439	-0.814940
H56	H	-1.395302	-0.291180	-0.911962
H57	H	-1.396627	0.093990	-0.384407
H58	H	-1.640460	-0.105004	-0.628230
N59	N	-1.658222	-0.645567	-0.892772
H60	H	-1.706900	-0.602887	-0.847256
H61	H	-1.615431	-0.694252	-0.847301
N62	N	-1.378997	-0.366146	-1.120829
H63	H	-1.395323	-0.291087	-1.101747
H64	H	-1.389237	-0.376407	-1.198643
H65	H	-1.640507	-0.627735	-1.106344
