data_functionalizedCrystal
_audit_creation_method	'MofGen! by Chris Wilmer'
_symmetry_space_group_name_H-M	'P1'
_symmetry_Int_Tables_number	1
_symmetry_cell_setting	triclinic
loop_
_symmetry_equiv_pos_as_xyz
  x,y,z
_cell_length_a	21.395355
_cell_length_b	17.077404
_cell_length_c	17.077402
_cell_angle_alpha	90.020853
_cell_angle_beta	89.981955
_cell_angle_gamma	89.976690
loop_
_atom_site_label
_atom_site_type_symbol
_atom_site_fract_x
_atom_site_fract_y
_atom_site_fract_z
Zn1	Zn	-0.354243	1.200093	-0.312642
Zn2	Zn	0.145757	1.700093	0.187358
Zn3	Zn	-0.249466	1.199989	-0.443890
Zn4	Zn	0.250534	1.699989	0.056110
Zn5	Zn	-0.249482	1.068813	-0.312637
Zn6	Zn	0.250518	1.568813	0.187363
Zn7	Zn	-0.354209	1.068793	-0.443865
Zn8	Zn	0.145791	1.568793	0.056135
O9	O	-0.301850	1.134422	-0.378258
O10	O	0.198150	1.634422	0.121742
O11	O	-0.340352	1.309926	-0.330064
O12	O	0.159648	1.809926	0.169936
O13	O	-0.161790	1.182553	-0.426487
O14	O	0.338210	1.682553	0.073513
O15	O	-0.263399	1.086280	-0.202791
O16	O	0.236601	1.586280	0.297209
O17	O	-0.263373	1.309849	-0.426492
O18	O	0.236627	1.809849	0.073508
O19	O	-0.340367	1.182731	-0.202794
O20	O	0.159633	1.682731	0.297206
O21	O	-0.161802	1.086179	-0.330057
O22	O	0.338198	1.586179	0.169943
O23	O	-0.263366	0.958964	-0.330032
O24	O	0.236634	1.458964	0.169968
O25	O	-0.441891	1.086245	-0.426449
O26	O	0.058109	1.586245	0.073551
O27	O	-0.340309	0.958949	-0.426445
O28	O	0.159691	1.458949	0.073555
O29	O	-0.441916	1.182711	-0.330040
O30	O	0.058084	1.682711	0.169960
O31	O	-0.263340	1.182533	-0.553733
O32	O	0.236660	1.682533	-0.053733
O33	O	-0.340293	1.086144	-0.553715
O34	O	0.159707	1.586144	-0.053715
C35	C	-0.301836	0.930474	-0.378236
C36	C	0.198164	1.430474	0.121764
C37	C	-0.301845	0.843224	-0.378245
C38	C	0.198155	1.343224	0.121755
C39	C	-0.341989	0.802275	-0.328125
C40	C	0.158011	1.302275	0.171875
C41	C	-0.341992	0.720294	-0.328130
C42	C	0.158008	1.220294	0.171870
C43	C	-0.301853	0.679265	-0.378260
C44	C	0.198147	1.179265	0.121740
C45	C	-0.261705	0.720220	-0.428383
C46	C	0.238295	1.220220	0.071617
C47	C	-0.261699	0.802199	-0.428373
C48	C	0.238301	1.302199	0.071627
C49	C	-0.261720	0.549350	-0.428400
C50	C	0.238280	1.049350	0.071600
C51	C	-0.261726	0.467365	-0.428411
C52	C	0.238274	0.967365	0.071589
C53	C	-0.342013	0.467445	-0.328157
C54	C	0.157987	0.967445	0.171843
C55	C	-0.342007	0.549424	-0.328148
C56	C	0.157993	1.049424	0.171852
C57	C	-0.301859	0.590374	-0.378272
C58	C	0.198141	1.090374	0.121728
C59	C	-0.465273	1.134487	-0.378242
C60	C	0.034727	1.634487	0.121758
C61	C	-0.534914	1.134515	-0.378236
C62	C	-0.034914	1.634515	0.121764
C63	C	-0.567642	1.184742	-0.328033
C64	C	-0.067642	1.684742	0.171967
C65	C	-0.633077	1.184741	-0.328000
C66	C	-0.133077	1.684741	0.172000
C67	C	-0.665783	1.134521	-0.378182
C68	C	-0.165783	1.634521	0.121818
C69	C	-0.633048	1.084284	-0.428388
C70	C	-0.133048	1.584284	0.071612
C71	C	-0.567613	1.084281	-0.428415
C72	C	-0.067613	1.584281	0.071585
C73	C	-0.769449	1.128297	-0.448862
C74	C	-0.269449	1.628297	0.051138
C75	C	-0.834882	1.128305	-0.448836
C76	C	-0.334882	1.628305	0.051164
C77	C	-0.867604	1.134526	-0.378099
C78	C	-0.367604	1.634526	0.121901
C79	C	-0.834884	1.140754	-0.307385
C80	C	-0.334884	1.640754	0.192615
C81	C	-0.769450	1.140751	-0.307412
C82	C	-0.269450	1.640751	0.192588
C83	C	-0.736735	1.134518	-0.378158
C84	C	-0.236735	1.634518	0.121842
C85	C	-0.971283	1.184755	-0.327856
C86	C	-0.471283	1.684755	0.172144
C87	C	-1.036720	1.184748	-0.327821
C88	C	-0.536720	1.684748	0.172179
C89	C	-1.036689	1.084295	-0.428216
C90	C	-0.536689	1.584295	0.071784
C91	C	-0.971254	1.084297	-0.428244
C92	C	-0.471254	1.584297	0.071756
C93	C	-0.938555	1.134531	-0.378065
C94	C	-0.438555	1.634531	0.121935
C95	C	-0.139062	1.134402	-0.378217
C96	C	0.360938	1.634402	0.121783
C97	C	-0.069421	1.134527	-0.378003
C98	C	0.430579	1.634527	0.121997
C99	C	-0.301825	1.134346	-0.582206
C100	C	0.198175	1.634346	-0.082206
C101	C	-0.301835	1.134386	-0.669456
C102	C	0.198165	1.634386	-0.169456
C103	C	-0.301864	1.339166	-0.378281
C104	C	0.198136	1.839166	0.121719
C105	C	-0.301870	1.426416	-0.378291
C106	C	0.198130	1.926416	0.121709
C107	C	-0.261808	1.184627	-0.710429
C108	C	0.238192	1.684627	-0.210429
C109	C	-0.261824	1.184665	-0.792410
C110	C	0.238176	1.684665	-0.292410
C111	C	-0.301864	1.134458	-0.833415
C112	C	0.198136	1.634458	-0.333415
C113	C	-0.341896	1.084214	-0.792436
C114	C	0.158104	1.584214	-0.292436
C115	C	-0.341882	1.084181	-0.710457
C116	C	0.158118	1.584181	-0.210457
C117	C	-0.341919	1.084287	-0.963306
C118	C	0.158081	1.584287	-0.463306
C119	C	-0.341932	1.084320	-1.045291
C120	C	0.158068	1.584320	-0.545291
C121	C	-0.261861	1.184772	-1.045259
C122	C	0.238139	1.684772	-0.545259
C123	C	-0.261848	1.184738	-0.963280
C124	C	0.238152	1.684738	-0.463280
C125	C	-0.301879	1.134493	-0.922306
C126	C	0.198121	1.634493	-0.422306
C127	C	-0.301889	1.134519	-0.173514
C128	C	0.198111	1.634519	0.326486
C129	C	-0.301905	1.134561	-0.086264
C130	C	0.198095	1.634561	0.413736
H131	H	-0.374695	0.582828	-0.287332
H132	H	0.125305	1.082828	0.212668
H133	H	-1.063318	1.043396	-0.469068
H134	H	-0.563318	1.543396	0.030932
H135	H	-0.374682	0.686957	-0.287318
H136	H	0.125318	1.186957	0.212682
F137	F	-0.219187	1.238060	-0.666796
F138	F	0.280813	1.738060	-0.166796
H139	H	-0.944607	1.043401	-0.469129
H140	H	-0.444607	1.543401	0.030871
F141	F	-0.384526	1.030813	-0.919701
F142	F	0.115474	1.530813	-0.419701
H143	H	-0.229230	1.225576	-0.825767
H144	H	0.270770	1.725576	-0.325767
H145	H	-0.944658	1.225654	-0.286993
H146	H	-0.444658	1.725654	0.213007
F147	F	-0.384513	1.030784	-0.836079
F148	F	0.115487	1.530784	-0.336079
H149	H	-0.229026	0.582689	-0.469215
H150	H	0.270974	1.082689	0.030785
F151	F	-1.071551	1.238219	-0.274395
F152	F	-0.571551	1.738219	0.225605
H153	H	-0.374477	1.043270	-0.677097
H154	H	0.125523	1.543270	-0.177097
H155	H	-0.742812	1.123021	-0.506449
H156	H	-0.242812	1.623021	-0.006449
F157	F	-0.384713	0.845934	-0.274772
F158	F	0.115287	1.345934	0.225228
H159	H	-0.229020	0.686807	-0.469196
H160	H	0.270980	1.186807	0.030804
F161	F	-0.667915	1.238190	-0.274552
F162	F	-0.167915	1.738190	0.225448
F163	F	-0.532782	1.030819	-0.481849
F164	F	-0.032782	1.530819	0.018151
F165	F	-0.734630	1.147376	-0.232156
F166	F	-0.234630	1.647376	0.267844
F167	F	-0.667856	1.030833	-0.481793
F168	F	-0.167856	1.530833	0.018207
F169	F	-0.869698	1.121683	-0.524096
F170	F	-0.369698	1.621683	-0.024096
H171	H	-0.229009	0.835539	-0.469186
H172	H	0.270991	1.335539	0.030814
F173	F	-0.384740	0.423863	-0.274810
F174	F	0.115260	0.923863	0.225190
F175	F	-0.219232	1.238173	-0.919641
F176	F	0.280768	1.738173	-0.419641
F177	F	-0.384541	1.030877	-1.088930
F178	F	0.115459	1.530877	-0.588930
H179	H	-0.229042	0.433961	-0.469232
H180	H	0.270958	0.933961	0.030768
F181	F	-0.219253	1.238240	-1.088867
F182	F	0.280747	1.738240	-0.588867
H183	H	-0.861525	1.145821	-0.249785
H184	H	-0.361525	1.645821	0.250215
F185	F	-0.532845	1.238203	-0.274625
F186	F	-0.032845	1.738203	0.225375
