data_functionalizedCrystal
_audit_creation_method	'MofGen! by Chris Wilmer'
_symmetry_space_group_name_H-M	'P1'
_symmetry_Int_Tables_number	1
_symmetry_cell_setting	triclinic
loop_
_symmetry_equiv_pos_as_xyz
  x,y,z
_cell_length_a	12.759401
_cell_length_b	12.759399
_cell_length_c	12.759393
_cell_angle_alpha	89.969094
_cell_angle_beta	89.979434
_cell_angle_gamma	90.013324
loop_
_atom_site_label
_atom_site_type_symbol
_atom_site_fract_x
_atom_site_fract_y
_atom_site_fract_z
Zn1	Zn	-1.606263	0.418266	0.594007
Zn2	Zn	-1.606153	0.593981	0.418326
Zn3	Zn	-1.430562	0.418311	0.418343
Zn4	Zn	-1.430553	0.593898	0.593964
O5	O	-1.518383	0.506114	0.506160
O6	O	-1.753270	0.441591	0.570713
O7	O	-1.582818	0.570732	0.271307
O8	O	-1.453919	0.271284	0.441670
O9	O	-1.753189	0.570688	0.441641
O10	O	-1.583006	0.271251	0.570730
O11	O	-1.453812	0.441669	0.271320
O12	O	-1.283540	0.441587	0.441629
O13	O	-1.453903	0.570546	0.740991
O14	O	-1.283533	0.570590	0.570657
O15	O	-1.582997	0.441510	0.741022
O16	O	-1.582809	0.740991	0.441599
O17	O	-1.453796	0.740930	0.570640
C18	C	-1.245415	0.506085	0.506141
C19	C	-1.128639	0.506098	0.506157
C20	C	-1.073820	0.438997	0.573468
C21	C	-0.964096	0.439003	0.573473
C22	C	-0.964020	0.573222	0.438854
C23	C	-1.073742	0.573210	0.438845
C24	C	-1.518318	0.779081	0.506136
C25	C	-1.518387	0.895858	0.506161
C26	C	-1.518461	0.506013	0.780193
C27	C	-1.518495	0.505970	0.896970
C28	C	-0.792416	0.506134	0.506176
C29	C	-0.909193	0.506117	0.506172
C30	C	-1.518476	0.232081	0.506207
C31	C	-1.518516	0.115304	0.506227
C32	C	-1.585641	0.950717	0.439046
C33	C	-1.585708	1.060441	0.439081
C34	C	-1.451259	1.060437	0.573349
C35	C	-1.451198	0.950715	0.573319
C36	C	-1.518365	0.506139	0.233192
C37	C	-1.518535	0.505886	0.116416
C38	C	-1.585719	0.438770	0.951850
C39	C	-1.585737	0.438725	1.061574
C40	C	-1.451303	0.573088	1.061529
C41	C	-1.451281	0.573128	0.951806
H42	H	-0.919467	0.384361	0.628283
H43	H	-1.640352	0.906055	0.384363
H44	H	-1.396532	0.627849	0.907122
O45	O	-0.910853	0.638453	0.373380
C46	C	-0.922359	0.771633	0.239910
C47	C	-0.982697	0.697789	0.313985
H48	H	-0.980419	0.819641	0.191886
H49	H	-0.870996	0.723394	0.184992
H50	H	-0.870981	0.826586	0.288077
H51	H	-1.034133	0.642821	0.265903
H52	H	-1.033995	0.746094	0.368907
O53	O	-1.127115	0.638450	0.373602
C54	C	-1.250929	0.780302	0.359216
C55	C	-1.190569	0.706475	0.433218
H56	H	-1.302229	0.835334	0.407386
H57	H	-1.302350	0.732050	0.304378
H58	H	-1.192827	0.828228	0.311091
H59	H	-1.248595	0.658534	0.481412
H60	H	-1.139132	0.754788	0.487986
O61	O	-1.385924	0.638364	1.114636
C62	C	-1.252634	0.771689	1.103009
C63	C	-1.326602	0.697797	1.042738
H64	H	-1.204669	0.819776	1.044906
H65	H	-1.197656	0.723483	1.154353
H66	H	-1.300881	0.826567	1.154401
H67	H	-1.278440	0.642904	0.991289
H68	H	-1.381584	0.746068	0.991460
O69	O	-1.127033	0.373855	0.638993
C70	C	-1.160737	0.323107	0.817794
C71	C	-1.100393	0.396933	0.743706
H72	H	-1.139237	0.341754	0.902471
H73	H	-1.139146	0.238354	0.799579
H74	H	-1.248570	0.334607	0.806174
H75	H	-1.012546	0.385526	0.755284
H76	H	-1.122071	0.481659	0.761939
O77	O	-1.651069	1.113568	0.373783
C78	C	-1.784458	1.101985	0.240645
C79	C	-1.710468	1.041690	0.314525
H80	H	-1.832517	1.043898	0.192731
H81	H	-1.736330	1.153412	0.185615
H82	H	-1.839357	1.153297	0.288958
H83	H	-1.655554	0.990321	0.266297
H84	H	-1.758661	0.990329	0.369559
O85	O	-1.650937	0.373478	1.115046
C86	C	-1.710585	0.313896	1.284097
C87	C	-1.636677	0.387831	1.223672
H88	H	-1.699096	0.325490	1.371931
H89	H	-1.692157	0.229164	1.262606
H90	H	-1.795280	0.332351	1.262476
H91	H	-1.551956	0.369471	1.245260
H92	H	-1.655194	0.472540	1.245167
H93	H	-1.396432	0.906046	0.627977
O94	O	-1.386022	1.113890	0.638477
C95	C	-1.326567	1.282921	0.698069
C96	C	-1.400489	1.222520	0.624244
H97	H	-1.338253	1.370758	0.686604
H98	H	-1.241826	1.261505	0.679537
H99	H	-1.344948	1.261203	0.782785
H100	H	-1.382202	1.244205	0.539504
H101	H	-1.485208	1.243941	0.642867
H102	H	-1.640446	0.384083	0.907205
