data_functionalizedCrystal
_audit_creation_method	'MofGen! by Chris Wilmer'
_symmetry_space_group_name_H-M	'P1'
_symmetry_Int_Tables_number	1
_symmetry_cell_setting	triclinic
loop_
_symmetry_equiv_pos_as_xyz
  x,y,z
_cell_length_a	21.395361
_cell_length_b	17.077404
_cell_length_c	17.077396
_cell_angle_alpha	89.980301
_cell_angle_beta	90.033251
_cell_angle_gamma	89.972224
loop_
_atom_site_label
_atom_site_type_symbol
_atom_site_fract_x
_atom_site_fract_y
_atom_site_fract_z
Zn1	Zn	-0.249488	-1.200012	0.443821
Zn2	Zn	-0.354269	-1.199901	0.312544
Zn3	Zn	-0.249504	-1.068744	0.312568
Zn4	Zn	-0.354226	-1.068694	0.443767
O5	O	-0.301872	-1.134338	0.378175
O6	O	-0.263398	-1.309844	0.426419
O7	O	-0.340396	-1.182477	0.202700
O8	O	-0.161824	-1.086224	0.330012
O9	O	-0.340381	-1.309763	0.329970
O10	O	-0.161812	-1.182666	0.426443
O11	O	-0.263426	-1.086117	0.202718
O12	O	-0.263384	-0.958890	0.329960
O13	O	-0.340307	-1.086139	0.553621
O14	O	-0.340323	-0.958854	0.426351
O15	O	-0.263357	-1.182618	0.553661
O16	O	-0.441941	-1.182429	0.329918
O17	O	-0.441909	-1.086031	0.426327
C18	C	-0.301851	-0.930390	0.378153
C19	C	-0.301858	-0.843140	0.378162
C20	C	-0.261844	-0.802193	0.428458
C21	C	-0.261847	-0.720213	0.428460
C22	C	-0.301867	-0.679181	0.378168
C23	C	-0.341883	-0.720133	0.327866
C24	C	-0.341876	-0.802112	0.327861
C25	C	-0.341895	-0.549263	0.327882
C26	C	-0.341903	-0.467279	0.327888
C27	C	-0.261865	-0.467364	0.428480
C28	C	-0.261859	-0.549342	0.428475
C29	C	-0.301875	-0.590290	0.378174
C30	C	-0.464659	-1.134234	0.378131
C31	C	-0.534300	-1.134261	0.378139
C32	C	-0.567009	-1.184500	0.327990
C33	C	-0.632445	-1.184537	0.328008
C34	C	-0.665169	-1.134320	0.378166
C35	C	-0.632452	-1.084078	0.428324
C36	C	-0.567018	-1.084049	0.428311
C37	C	-0.768880	-1.063641	0.384317
C38	C	-0.834313	-1.063669	0.384325
C39	C	-0.866989	-1.134412	0.378212
C40	C	-0.834225	-1.205129	0.372074
C41	C	-0.768791	-1.205099	0.372061
C42	C	-0.736121	-1.134347	0.378186
C43	C	-0.970651	-1.184694	0.328079
C44	C	-1.036087	-1.184732	0.328102
C45	C	-1.036094	-1.084267	0.428415
C46	C	-0.970658	-1.084236	0.428396
C47	C	-0.937941	-1.134449	0.378224
C48	C	-0.138448	-1.134463	0.378236
C49	C	-0.068807	-1.134516	0.378262
C50	C	-0.301825	-1.134385	0.582919
C51	C	-0.301806	-1.134405	0.670169
C52	C	-0.301889	-0.339082	0.378192
C53	C	-0.301889	-0.426332	0.378184
C54	C	-0.301872	-1.134335	0.174227
C55	C	-0.301715	-1.134467	0.086978
C56	C	-0.261734	-1.184644	0.711181
C57	C	-0.261713	-1.184653	0.793162
C58	C	-0.301768	-1.134428	0.834129
C59	C	-0.341841	-1.084184	0.793111
C60	C	-0.341858	-1.084171	0.711132
C61	C	-0.341803	-1.084215	0.963981
C62	C	-0.341787	-1.084229	1.045966
C63	C	-0.261658	-1.184698	1.046011
C64	C	-0.261676	-1.184685	0.964032
C65	C	-0.301750	-1.134442	0.923020
H66	H	-0.374459	-0.835450	0.286904
O67	O	-0.531719	-1.238666	0.273890
H68	H	-0.565462	-1.273613	0.239027
O69	O	-0.869646	-0.987398	0.390945
H70	H	-0.899488	-0.979422	0.338354
H71	H	-0.742281	-1.006029	0.389298
O72	O	-0.667744	-1.238721	0.273923
H73	H	-0.655243	-1.225283	0.212297
H74	H	-0.229027	-1.225606	1.079407
H75	H	-0.374479	-0.582600	0.286919
O76	O	-0.385042	-1.030010	0.837295
H77	H	-0.374286	-0.968409	0.821557
O78	O	-0.733449	-1.281365	0.365453
H79	H	-0.767159	-1.330566	0.361209
H80	H	-0.374482	-1.043254	0.677741
O81	O	-0.869454	-1.281440	0.365466
H82	H	-0.856832	-1.319956	0.415402
O83	O	-0.218672	-0.846444	0.482697
H84	H	-0.229474	-0.830725	0.544282
O85	O	-0.218689	-0.676045	0.482707
H86	H	-0.190864	-0.718350	0.517683
O87	O	-0.935352	-1.238871	0.273994
H88	H	-0.905587	-1.203759	0.234009
O89	O	-0.218691	-0.593604	0.482710
H90	H	-0.190859	-0.551360	0.517681
H91	H	-1.062718	-1.225647	0.287267
O92	O	-0.218697	-0.423207	0.482730
H93	H	-0.225417	-0.359308	0.474279
H94	H	-0.374491	-0.433873	0.286937
O95	O	-0.385046	-0.675882	0.273616
H96	H	-0.416967	-0.638537	0.308675
O97	O	-1.071378	-1.030099	0.482513
H98	H	-1.122374	-1.038555	0.474095
H99	H	-0.374402	-1.043329	1.079319
H100	H	-0.659100	-1.043193	0.469165
O101	O	-0.385021	-1.030018	0.919745
H102	H	-0.434195	-1.043446	0.935456
O103	O	-0.935373	-1.030030	0.482465
H104	H	-0.969119	-0.995107	0.517338
O105	O	-0.531733	-1.029847	0.482387
H106	H	-0.565478	-0.994927	0.517264
H107	H	-0.229119	-1.225546	0.677832
H108	H	-0.229063	-1.225587	0.930679
O109	O	-0.218497	-1.238843	0.837399
H110	H	-0.190655	-1.273774	0.795140
