data_functionalizedCrystal
_audit_creation_method	'MofGen! by Chris Wilmer'
_symmetry_space_group_name_H-M	'P1'
_symmetry_Int_Tables_number	1
_symmetry_cell_setting	triclinic
loop_
_symmetry_equiv_pos_as_xyz
  x,y,z
_cell_length_a	18.215407
_cell_length_b	18.215405
_cell_length_c	21.395355
_cell_angle_alpha	90.019851
_cell_angle_beta	90.021756
_cell_angle_gamma	90.022344
loop_
_atom_site_label
_atom_site_type_symbol
_atom_site_fract_x
_atom_site_fract_y
_atom_site_fract_z
Zn1	Zn	1.125107	-0.293119	0.354209
Zn2	Zn	1.458440	0.040214	0.687542
Zn3	Zn	1.791774	0.373547	1.020876
Zn4	Zn	1.125005	-0.416168	0.249429
Zn5	Zn	1.458338	-0.082834	0.582762
Zn6	Zn	1.791672	0.250499	0.916096
Zn7	Zn	1.002029	-0.293114	0.249451
Zn8	Zn	1.335363	0.040219	0.582784
Zn9	Zn	1.668696	0.373553	0.916117
Zn10	Zn	1.002006	-0.416143	0.354174
Zn11	Zn	1.335339	-0.082810	0.687508
Zn12	Zn	1.668672	0.250523	1.020841
O13	O	1.063537	-0.354636	0.301816
O14	O	1.396870	-0.021303	0.635149
O15	O	1.730203	0.312031	0.968482
O16	O	1.228078	-0.309454	0.340315
O17	O	1.561411	0.023879	0.673648
O18	O	1.894745	0.357212	1.006982
O19	O	1.108659	-0.399852	0.161754
O20	O	1.441993	-0.066519	0.495087
O21	O	1.775326	0.266814	0.828421
O22	O	1.018408	-0.190131	0.263371
O23	O	1.351742	0.143203	0.596704
O24	O	1.685075	0.476536	0.930037
O25	O	1.228003	-0.399858	0.263334
O26	O	1.561336	-0.066524	0.596667
O27	O	1.894670	0.266809	0.930000
O28	O	1.108833	-0.190134	0.340336
O29	O	1.442167	0.143199	0.673669
O30	O	1.775500	0.476532	1.007003
O31	O	1.018310	-0.309445	0.161770
O32	O	1.351643	0.023888	0.495103
O33	O	1.684976	0.357221	0.828437
O34	O	0.899042	-0.309422	0.263337
O35	O	1.232375	0.023912	0.596670
O36	O	1.565709	0.357245	0.930004
O37	O	1.018368	-0.399816	0.441857
O38	O	1.351701	-0.066483	0.775190
O39	O	1.685035	0.266851	1.108523
O40	O	0.899024	-0.399811	0.340277
O41	O	1.232358	-0.066477	0.673610
O42	O	1.565691	0.266856	1.006944
O43	O	1.108810	-0.309431	0.441882
O44	O	1.442144	0.023903	0.775215
O45	O	1.775477	0.357236	1.108549
O46	O	1.108636	-0.519149	0.263300
O47	O	1.441970	-0.185815	0.596633
O48	O	1.775303	0.147518	0.929967
O49	O	1.018269	-0.519131	0.340256
O50	O	1.351602	-0.185797	0.673589
O51	O	1.684936	0.147536	1.006923
C52	C	0.872331	-0.354614	0.301806
C53	C	1.205664	-0.021280	0.635139
C54	C	1.538997	0.312053	0.968473
C55	C	0.790532	-0.354622	0.301817
C56	C	1.123865	-0.021288	0.635150
C57	C	1.457198	0.312045	0.968483
C58	C	0.525484	-0.401779	0.341823
C59	C	0.858818	-0.068446	0.675157
C60	C	1.192151	0.264888	1.008490
C61	C	0.602343	-0.401773	0.341820
C62	C	0.935676	-0.068439	0.675154
C63	C	1.269010	0.264894	1.008487
C64	C	0.602331	-0.307510	0.261819
C65	C	0.935664	0.025823	0.595152
C66	C	1.268997	0.359157	0.928486
C67	C	0.525473	-0.307520	0.261819
C68	C	0.858807	0.025813	0.595153
C69	C	1.192140	0.359146	0.928486
C70	C	0.487052	-0.354654	0.301825
C71	C	0.820385	-0.021320	0.635158
C72	C	1.153719	0.312013	0.968492
C73	C	0.640768	-0.354637	0.301822
C74	C	0.974101	-0.021304	0.635155
C75	C	1.307435	0.312030	0.968488
C76	C	0.724102	-0.354630	0.301818
C77	C	1.057435	-0.021297	0.635151
C78	C	1.390768	0.312037	0.968485
C79	C	0.403713	-0.354662	0.301828
C80	C	0.737046	-0.021329	0.635161
C81	C	1.070380	0.312004	0.968495
C82	C	1.063459	-0.545842	0.301786
C83	C	1.396792	-0.212509	0.635119
C84	C	1.730126	0.120824	0.968452
C85	C	1.063493	-0.627641	0.301794
C86	C	1.396826	-0.294308	0.635127
C87	C	1.730160	0.039025	0.968460
C88	C	1.110658	-0.815820	0.261796
C89	C	1.443991	-0.482487	0.595130
C90	C	1.777325	-0.149153	0.928463
C91	C	1.110691	-0.892679	0.261812
C92	C	1.444024	-0.559346	0.595145
C93	C	1.777357	-0.226012	0.928478
C94	C	1.016510	-0.892700	0.341880
C95	C	1.349843	-0.559367	0.675213
C96	C	1.683177	-0.226033	1.008547
C97	C	1.016481	-0.815843	0.341868
C98	C	1.349815	-0.482509	0.675201
C99	C	1.683148	-0.149176	1.008534
C100	C	1.063554	-0.777405	0.301822
C101	C	1.396887	-0.444071	0.635155
C102	C	1.730221	-0.110738	0.968489
C103	C	1.063616	-0.931121	0.301850
C104	C	1.396949	-0.597788	0.635183
C105	C	1.730282	-0.264454	0.968516
C106	C	1.063651	-1.014454	0.301867
C107	C	1.396984	-0.681121	0.635200
C108	C	1.730318	-0.347788	0.968533
C109	C	1.063520	-0.694066	0.301806
C110	C	1.396853	-0.360732	0.635139
C111	C	1.730187	-0.027399	0.968473
C112	C	1.255490	-0.354659	0.301826
C113	C	1.588823	-0.021326	0.635159
C114	C	1.922156	0.312007	0.968492
C115	C	1.337289	-0.354669	0.301830
C116	C	1.670622	-0.021336	0.635163
C117	C	2.003955	0.311997	0.968497
C118	C	1.063598	-0.354621	0.465239
C119	C	1.396931	-0.021288	0.798572
C120	C	1.730265	0.312045	1.131906
C121	C	1.063624	-0.354615	0.534880
C122	C	1.396957	-0.021282	0.868214
C123	C	1.730291	0.312052	1.201547
C124	C	1.063635	-0.162683	0.301860
C125	C	1.396968	0.170650	0.635193
C126	C	1.730302	0.503983	0.968526
C127	C	1.063677	-0.080884	0.301878
C128	C	1.397010	0.252449	0.635212
C129	C	1.730343	0.585782	0.968545
C130	C	1.063518	-0.354598	0.139028
C131	C	1.396852	-0.021265	0.472361
C132	C	1.730185	0.312069	0.805695
C133	C	1.063635	-0.354397	0.069387
C134	C	1.396968	-0.021064	0.402721
C135	C	1.730302	0.312270	0.736054
C136	C	1.110715	-0.307549	0.567608
C137	C	1.444048	0.025784	0.900941
C138	C	1.777382	0.359117	1.234274
C139	C	1.110714	-0.307518	0.633043
C140	C	1.444047	0.025816	0.966376
C141	C	1.777381	0.359149	1.299710
C142	C	1.063630	-0.354565	0.665749
C143	C	1.396963	-0.021231	0.999082
C144	C	1.730296	0.312102	1.332415
C145	C	1.016529	-0.401634	0.633013
C146	C	1.349863	-0.068300	0.966347
C147	C	1.683196	0.265033	1.299680
C148	C	1.016526	-0.401659	0.567579
C149	C	1.349860	-0.068325	0.900913
C150	C	1.683193	0.265008	1.234246
C151	C	1.057792	-0.420829	0.769413
C152	C	1.391125	-0.087495	1.102746
C153	C	1.724458	0.245838	1.436080
C154	C	1.057800	-0.420805	0.834846
C155	C	1.391133	-0.087471	1.168179
C156	C	1.724466	0.245862	1.501513
C157	C	1.063634	-0.354487	0.867570
C158	C	1.396968	-0.021154	1.200903
C159	C	1.730301	0.312180	1.534236
C160	C	1.069476	-0.288191	0.834852
C161	C	1.402809	0.045142	1.168185
C162	C	1.736143	0.378476	1.501519
C163	C	1.069473	-0.288216	0.769418
C164	C	1.402806	0.045117	1.102751
C165	C	1.736140	0.378450	1.436084
C166	C	1.063627	-0.354542	0.736701
C167	C	1.396961	-0.021209	1.070034
C168	C	1.730294	0.312124	1.403368
C169	C	1.110727	-0.307383	0.971250
C170	C	1.444060	0.025950	1.304583
C171	C	1.777394	0.359283	1.637916
C172	C	1.110721	-0.307350	1.036686
C173	C	1.444054	0.025983	1.370019
C174	C	1.777387	0.359316	1.703353
C175	C	1.016540	-0.401473	1.036655
C176	C	1.349873	-0.068139	1.369989
C177	C	1.683206	0.265194	1.703322
C178	C	1.016542	-0.401499	0.971220
C179	C	1.349875	-0.068166	1.304553
C180	C	1.683209	0.265168	1.637886
C181	C	1.063639	-0.354455	0.938521
C182	C	1.396973	-0.021122	1.271854
C183	C	1.730306	0.312211	1.605188
H184	H	0.633622	-0.269134	0.229249
H185	H	0.966956	0.064199	0.562582
H186	H	1.300289	0.397532	0.895915
H187	H	1.052844	-0.474819	0.742775
H188	H	1.386177	-0.141485	1.076109
H189	H	1.719510	0.191848	1.409442
H190	H	1.074228	-0.234189	0.861494
H191	H	1.407561	0.099144	1.194827
H192	H	1.740895	0.432478	1.528160
H193	H	0.978124	-0.784563	0.374464
H194	H	1.311457	-0.451230	0.707798
H195	H	1.644790	-0.117896	1.041131
N196	N	0.965733	-0.934155	0.385066
N197	N	1.299066	-0.600822	0.718399
N198	N	1.632400	-0.267488	1.051733
H199	H	0.995631	-0.966005	0.414130
H200	H	1.328965	-0.632672	0.747463
H201	H	1.662298	-0.299338	1.080796
H202	H	0.931666	-0.966040	0.359536
H203	H	1.264999	-0.632707	0.692869
H204	H	1.598332	-0.299373	1.026203
H205	H	0.978190	-0.439937	0.659646
H206	H	1.311524	-0.106604	0.992980
H207	H	1.644857	0.226729	1.326313
H208	H	1.149065	-0.269242	0.540988
H209	H	1.482398	0.064092	0.874322
H210	H	1.815731	0.397425	1.207655
N211	N	1.161436	-0.774358	0.218616
N212	N	1.494769	-0.441025	0.551950
N213	N	1.828103	-0.107691	0.885283
H214	H	1.131538	-0.742511	0.189550
H215	H	1.464872	-0.409178	0.522883
H216	H	1.798205	-0.075844	0.856217
H217	H	1.191273	-0.810404	0.193306
H218	H	1.524607	-0.477071	0.526639
H219	H	1.857940	-0.143738	0.859973
N220	N	1.161507	-0.256752	0.668353
N221	N	1.494840	0.076581	1.001686
N222	N	1.828173	0.409915	1.335019
H223	H	1.191341	-0.226954	0.637709
H224	H	1.524674	0.106379	0.971042
H225	H	1.858007	0.439713	1.304376
H226	H	1.195545	-0.286709	0.695510
H227	H	1.528878	0.046624	1.028843
H228	H	1.862212	0.379958	1.362177
H229	H	0.494181	-0.269144	0.229245
H230	H	0.827514	0.064189	0.562578
H231	H	1.160848	0.397522	0.895912
N232	N	1.161494	-0.934106	0.218635
N233	N	1.494827	-0.600773	0.551968
N234	N	1.828160	-0.267440	0.885301
H235	H	1.131615	-0.966037	0.189583
H236	H	1.464948	-0.632704	0.522916
H237	H	1.798282	-0.299370	0.856250
H238	H	1.195589	-0.965908	0.244170
H239	H	1.528923	-0.632575	0.577503
H240	H	1.862256	-0.299242	0.910836
H241	H	1.149067	-0.269020	1.063332
H242	H	1.482400	0.064314	1.396665
H243	H	1.815734	0.397647	1.729998
H244	H	0.978195	-0.439772	1.063283
H245	H	1.311528	-0.106438	1.396617
H246	H	1.644862	0.226895	1.729950
H247	H	1.074228	-0.234236	0.742782
H248	H	1.407561	0.099098	1.076115
H249	H	1.740894	0.432431	1.409448
N250	N	0.484049	-0.452624	0.384965
N251	N	0.817382	-0.119290	0.718298
N252	N	1.150715	0.214043	1.051632
H253	H	0.452141	-0.486688	0.359450
H254	H	0.785474	-0.153355	0.692783
H255	H	1.118807	0.179979	1.026116
H256	H	0.452223	-0.422721	0.414040
H257	H	0.785557	-0.089387	0.747374
H258	H	1.118890	0.243946	1.080707
N259	N	0.643790	-0.452605	0.384961
N260	N	0.977123	-0.119271	0.718294
N261	N	1.310457	0.214062	1.051628
H262	H	0.630440	-0.441249	0.429745
H263	H	0.963773	-0.107915	0.763078
H264	H	1.297106	0.225418	1.096412
H265	H	0.698297	-0.445429	0.378838
H266	H	1.031630	-0.112096	0.712172
H267	H	1.364963	0.221238	1.045505
H268	H	1.149072	-0.269073	0.944625
H269	H	1.482406	0.064260	1.277958
H270	H	1.815739	0.397593	1.611291
H271	H	0.978200	-0.439829	0.944573
H272	H	1.311533	-0.106496	1.277906
H273	H	1.644866	0.226837	1.611240
N274	N	1.051505	-0.492305	0.870132
N275	N	1.384838	-0.158972	1.203465
N276	N	1.718171	0.174361	1.536799
H277	H	1.047799	-0.534320	0.839474
H278	H	1.381133	-0.200987	1.172808
H279	H	1.714466	0.132346	1.506141
H280	H	1.006163	-0.491227	0.897269
H281	H	1.339496	-0.157893	1.230603
H282	H	1.672829	0.175440	1.563936
N283	N	0.965723	-0.452414	0.532276
N284	N	1.299056	-0.119080	0.865609
N285	N	1.632390	0.214253	1.198942
H286	H	0.935888	-0.482209	0.562921
H287	H	1.269222	-0.148876	0.896254
H288	H	1.602555	0.184457	1.229588
H289	H	0.995651	-0.486490	0.505132
H290	H	1.328985	-0.153157	0.838465
H291	H	1.662318	0.180177	1.171798
