data_functionalizedCrystal
_audit_creation_method	'MofGen! by Chris Wilmer'
_symmetry_space_group_name_H-M	'P1'
_symmetry_Int_Tables_number	1
_symmetry_cell_setting	triclinic
loop_
_symmetry_equiv_pos_as_xyz
  x,y,z
_cell_length_a	9.065218
_cell_length_b	26.210047
_cell_length_c	9.065218
_cell_angle_alpha	89.995968
_cell_angle_beta	94.984115
_cell_angle_gamma	90.024526
loop_
_atom_site_label
_atom_site_type_symbol
_atom_site_fract_x
_atom_site_fract_y
_atom_site_fract_z
O1	O	1.960444	0.042428	-0.216356
O2	O	1.531160	0.042429	-0.234102
O3	O	1.754675	0.042427	-0.010586
O4	O	1.736929	0.042429	-0.439871
O5	O	1.754570	-0.042431	-0.010582
O6	O	1.531054	-0.042429	-0.234097
O7	O	1.960339	-0.042430	-0.216351
Cu8	Cu	1.745687	-0.050178	-0.225224
Cu9	Cu	1.745812	0.050177	-0.225229
O10	O	1.736823	-0.042429	-0.439867
C11	C	1.476120	-0.000000	-0.232394
C12	C	1.312277	-0.000000	-0.227294
N13	N	1.745610	-0.120762	-0.225219
C14	C	1.646741	-0.526729	-0.324152
C15	C	1.646670	-0.313070	-0.324152
O16	O	1.562433	-0.285451	-0.408251
N17	N	1.745657	-0.286346	-0.225215
C18	C	1.844662	-0.313039	-0.126265
O19	O	1.928844	-0.285406	-0.042103
C20	C	1.844725	-0.526697	-0.126260
C21	C	1.745742	-0.553418	-0.225213
C22	C	1.547765	-0.553451	-0.423096
C23	C	1.547790	-0.606862	-0.423101
C24	C	1.646790	-0.633552	-0.324162
C25	C	1.745766	-0.606830	-0.225217
C26	C	1.943721	-0.553389	-0.027303
C27	C	1.943725	-0.606807	-0.027308
C28	C	1.844743	-0.633529	-0.126262
C29	C	1.844790	-0.686931	-0.126283
N30	N	1.745804	-0.713655	-0.225219
C31	C	1.646803	-0.686966	-0.324159
C32	C	1.844624	-0.200866	-0.126277
C33	C	1.844610	-0.147452	-0.126279
C34	C	1.646617	-0.147486	-0.324165
C35	C	1.646638	-0.200902	-0.324168
C36	C	1.745637	-0.227590	-0.225213
C37	C	1.646863	-0.799134	-0.324162
C38	C	1.646900	-0.852550	-0.324162
C39	C	1.844888	-0.852510	-0.126272
C40	C	1.844856	-0.799099	-0.126277
C41	C	1.745832	-0.772412	-0.225227
O42	O	1.928973	-0.714583	-0.042217
O43	O	1.562612	-0.714608	-0.408286
C44	C	1.646717	-0.473317	-0.324148
C45	C	1.745693	-0.446596	-0.225204
C46	C	1.844693	-0.473285	-0.126264
C47	C	1.745680	-0.393181	-0.225206
C48	C	1.646679	-0.366492	-0.324146
C49	C	1.547693	-0.393216	-0.423083
C50	C	1.547717	-0.446628	-0.423087
C51	C	1.943680	-0.446561	-0.027327
C52	C	1.943649	-0.393149	-0.027332
C53	C	1.844649	-0.366460	-0.126272
C54	C	2.015378	0.000000	-0.218059
C55	C	2.179221	0.000003	-0.223158
C56	C	1.752917	-0.000001	0.044403
C57	C	1.747817	0.000001	0.208245
N58	N	1.745900	0.120760	-0.225222
C59	C	1.738582	0.000001	-0.494855
C60	C	1.743681	0.000002	-0.658698
H61	H	1.566296	-0.874305	-0.404747
H62	H	2.024341	-0.628534	0.053277
F63	F	1.950000	-0.229265	-0.020953
F64	F	1.442365	-0.475061	-0.528406
F65	F	1.541287	-0.229336	-0.429485
F66	F	1.949979	-0.119018	-0.020979
F67	F	1.442433	-0.635296	-0.528413
H68	H	1.467088	-0.371477	-0.503649
H69	H	1.566009	-0.125747	-0.404728
H70	H	1.925497	-0.874249	-0.045721
F71	F	2.049070	-0.524959	0.078018
F72	F	1.950222	-0.770661	-0.020974
H73	H	2.024266	-0.371396	0.053245
H74	H	2.024296	-0.468287	0.053243
H75	H	1.467141	-0.531725	-0.503665
F76	F	1.541469	-0.770739	-0.429476
