data_functionalizedCrystal
_audit_creation_method	'MofGen! by Chris Wilmer'
_symmetry_space_group_name_H-M	'P1'
_symmetry_Int_Tables_number	1
_symmetry_cell_setting	triclinic
loop_
_symmetry_equiv_pos_as_xyz
  x,y,z
_cell_length_a	10.540539
_cell_length_b	12.811524
_cell_length_c	11.892095
_cell_angle_alpha	80.668479
_cell_angle_beta	93.930600
_cell_angle_gamma	84.285494
loop_
_atom_site_label
_atom_site_type_symbol
_atom_site_fract_x
_atom_site_fract_y
_atom_site_fract_z
O1	O	0.150541	1.410817	-0.238558
O2	O	0.171828	1.103146	-0.207034
O3	O	-0.023623	1.264001	-0.223514
O4	O	0.345992	1.249962	-0.222078
O5	O	-0.007352	1.250589	-0.034132
O6	O	0.188099	1.089734	-0.017652
O7	O	0.166812	1.397405	-0.049176
Zn8	Zn	0.180039	1.241440	-0.003346
Zn9	Zn	0.158601	1.259111	-0.252864
O10	O	0.362263	1.236550	-0.032697
C11	C	0.179267	1.057043	-0.108307
C12	C	0.177175	0.939652	-0.096279
C13	C	-0.062775	1.256242	-0.128717
C14	C	-0.203679	1.253093	-0.128401
C15	C	0.159373	1.443509	-0.147906
C16	C	0.161464	1.560900	-0.159941
C17	C	-0.385404	1.132426	-0.116459
C18	C	-0.238795	1.135589	-0.116360
C19	C	-0.256859	1.301982	-0.026048
C20	C	-0.403338	1.297965	-0.025546
C21	C	-0.422394	1.315607	-0.241153
C22	C	-0.275551	1.316790	-0.242694
C23	C	0.401415	1.244309	-0.127496
C24	C	0.542318	1.247459	-0.127820
C25	C	0.155530	1.733660	-0.280137
C26	C	0.153574	1.623359	-0.268828
C27	C	0.171315	1.608748	-0.062355
C28	C	0.173271	1.719048	-0.073663
C29	C	0.165377	1.781501	-0.182558
C30	C	0.167324	1.891804	-0.193865
C31	C	0.185074	1.877190	0.012607
C32	C	0.183118	1.766889	0.023915
N33	N	0.194669	1.229388	0.166943
N34	N	0.143961	1.271171	-0.423154
C35	C	0.042085	1.355035	0.390718
C36	C	0.052320	1.346619	0.509922
C37	C	0.225369	1.204134	0.524558
C38	C	0.215133	1.212550	0.405354
C39	C	0.123490	1.288005	0.338438
C40	C	0.113261	1.296426	0.219231
C41	C	0.286303	1.153936	0.233869
C42	C	0.296538	1.145520	0.353073
H43	H	-0.202212	1.096584	-0.189324
H44	H	-0.013969	1.401201	0.552485
H45	H	-0.423990	1.250448	0.059577
H46	H	0.145559	1.584412	-0.348287
H47	H	0.193090	1.916153	0.092063
C48	C	0.012454	1.379417	0.145625
H49	H	-0.034570	1.418124	0.193840
H50	H	0.053987	1.427060	0.094566
H51	H	-0.044270	1.344258	0.103074
H52	H	0.299975	1.142693	0.579057
C53	C	0.191747	1.698192	0.143688
H54	H	0.189149	1.625651	0.136449
H55	H	0.269698	1.705753	0.185055
H56	H	0.121679	1.720786	0.183447
C57	C	-0.058712	1.438032	0.317107
H58	H	-0.105732	1.476747	0.365318
H59	H	-0.017168	1.485667	0.266049
H60	H	-0.115441	1.402879	0.274555
H61	H	0.371150	1.084083	0.407570
C62	C	0.375857	1.080198	0.176365
H63	H	0.431906	1.034064	0.233293
H64	H	0.326338	1.039126	0.134411
H65	H	0.424598	1.121925	0.125923
C66	C	-0.432148	1.077128	-0.214788
H67	H	-0.496168	1.123693	-0.263650
H68	H	-0.362261	1.059576	-0.257203
H69	H	-0.466886	1.014000	-0.184169
H70	H	-0.206779	1.257001	0.058455
H71	H	-0.189722	1.085283	-0.034116
C72	C	-0.416342	1.062597	-0.005876
H73	H	-0.473112	1.103244	0.033402
H74	H	-0.455473	1.003216	-0.024474
H75	H	-0.339518	1.038270	0.041682
C76	C	-0.245297	1.433157	-0.263367
H77	H	-0.289974	1.469703	-0.332939
H78	H	-0.271379	1.466825	-0.201887
H79	H	-0.155876	1.434738	-0.268037
C80	C	-0.469218	1.411649	-0.030593
H81	H	-0.406423	1.460079	-0.032930
H82	H	-0.527201	1.430459	-0.097256
H83	H	-0.514654	1.414543	0.035320
C84	C	-0.487926	1.430330	-0.253896
H85	H	-0.466234	1.471123	-0.322525
H86	H	-0.578084	1.429448	-0.256562
H87	H	-0.459866	1.461199	-0.190456
C88	C	-0.227868	1.418165	-0.032547
H89	H	-0.182960	1.437933	-0.097893
H90	H	-0.305864	1.463493	-0.038185
H91	H	-0.176865	1.424738	0.034427
H92	H	-0.460442	1.283382	-0.319225
H93	H	0.177754	1.557879	0.026301
H94	H	-0.240970	1.281081	-0.318458
C95	C	0.146845	1.802360	-0.399911
H96	H	0.140705	1.758069	-0.456408
H97	H	0.073240	1.853195	-0.409379
H98	H	0.221253	1.838187	-0.407846
C99	C	0.158650	1.960500	-0.313641
H100	H	0.152520	1.916204	-0.370135
H101	H	0.085045	2.011334	-0.323121
H102	H	0.233059	1.996326	-0.321570
