data_functionalizedCrystal
_audit_creation_method	'MofGen! by Chris Wilmer'
_symmetry_space_group_name_H-M	'P1'
_symmetry_Int_Tables_number	1
_symmetry_cell_setting	triclinic
loop_
_symmetry_equiv_pos_as_xyz
  x,y,z
_cell_length_a	19.188930
_cell_length_b	14.519709
_cell_length_c	12.996460
_cell_angle_alpha	89.999966
_cell_angle_beta	89.988736
_cell_angle_gamma	96.587536
loop_
_atom_site_label
_atom_site_type_symbol
_atom_site_fract_x
_atom_site_fract_y
_atom_site_fract_z
O1	O	0.091525	-1.223300	-0.085445
O2	O	0.424858	-0.889967	0.247888
O3	O	0.758191	-0.556634	0.581222
O4	O	0.102303	-0.954756	-0.085478
O5	O	0.435636	-0.621423	0.247855
O6	O	0.768969	-0.288090	0.581189
O7	O	-0.004714	-1.096778	-0.085440
O8	O	0.328619	-0.763445	0.247893
O9	O	0.661952	-0.430111	0.581226
O10	O	0.198542	-1.081279	-0.085482
O11	O	0.531875	-0.747945	0.247851
O12	O	0.865208	-0.414612	0.581184
O13	O	-0.004720	-1.096763	0.085693
O14	O	0.328613	-0.763430	0.419027
O15	O	0.661946	-0.430096	0.752360
O16	O	0.102297	-0.954742	0.085656
O17	O	0.435630	-0.621408	0.418989
O18	O	0.768963	-0.288075	0.752323
O19	O	0.091519	-1.223285	0.085689
O20	O	0.424852	-0.889952	0.419022
O21	O	0.758185	-0.556619	0.752356
Cu22	Cu	0.096907	-1.089012	0.101298
Cu23	Cu	0.430240	-0.755679	0.434632
Cu24	Cu	0.763574	-0.422346	0.767965
Cu25	Cu	0.096914	-1.089030	-0.101087
Cu26	Cu	0.430247	-0.755696	0.232246
Cu27	Cu	0.763581	-0.422363	0.565579
O28	O	0.198536	-1.081264	0.085651
O29	O	0.531869	-0.747931	0.418985
O30	O	0.865202	-0.414597	0.752318
C31	C	0.101797	-0.920392	0.000085
C32	C	0.435131	-0.587059	0.333418
C33	C	0.768464	-0.253726	0.666752
C34	C	0.100292	-0.818020	0.000073
C35	C	0.433625	-0.484687	0.333407
C36	C	0.766959	-0.151354	0.666740
N37	N	0.096902	-1.089007	0.243645
N38	N	0.430235	-0.755673	0.576979
N39	N	0.763568	-0.422340	0.910312
C40	C	-0.030730	-1.096269	0.000129
C41	C	0.302603	-0.762935	0.333463
C42	C	0.635936	-0.429602	0.666796
C43	C	-0.108240	-1.094762	0.000138
C44	C	0.225093	-0.761429	0.333471
C45	C	0.558427	-0.428095	0.666805
C46	C	-0.152867	-1.178095	0.000153
C47	C	0.180466	-0.844762	0.333487
C48	C	0.513799	-0.511429	0.666820
C49	C	-0.225696	-1.176680	0.000137
C50	C	0.107637	-0.843347	0.333470
C51	C	0.440970	-0.510013	0.666803
C52	C	-0.253895	-1.091926	0.000125
C53	C	0.079439	-0.758593	0.333459
C54	C	0.412772	-0.425259	0.666792
C55	C	-0.209257	-1.008582	0.000105
C56	C	0.124076	-0.675248	0.333438
C57	C	0.457409	-0.341915	0.666771
C58	C	-0.136430	-1.009999	0.000111
C59	C	0.196903	-0.676666	0.333444
C60	C	0.530236	-0.343333	0.666778
N61	N	-0.362132	-1.027137	0.058358
N62	N	-0.028799	-0.693804	0.391691
N63	N	0.304534	-0.360470	0.725024
N64	N	-0.431316	-1.025796	0.058354
N65	N	-0.097982	-0.692462	0.391687
N66	N	0.235351	-0.359129	0.725020
C67	C	-0.473318	-1.087649	0.000104
C68	C	-0.139985	-0.754316	0.333437
C69	C	0.193348	-0.420982	0.666771
N70	N	-0.443526	-1.150908	-0.058129
N71	N	-0.110192	-0.817575	0.275205
N72	N	0.223141	-0.484242	0.608538
N73	N	-0.374336	-1.152252	-0.058120
N74	N	-0.041003	-0.818919	0.275213
N75	N	0.292330	-0.485586	0.608546
C76	C	-0.332863	-1.090379	0.000118
C77	C	0.000471	-0.757046	0.333451
C78	C	0.333804	-0.423713	0.666785
C79	C	-0.596916	-1.169454	0.000100
C80	C	-0.263582	-0.836120	0.333433
C81	C	0.069751	-0.502787	0.666766
C82	C	-0.669745	-1.168035	0.000077
C83	C	-0.336412	-0.834701	0.333410
C84	C	-0.003079	-0.501368	0.666743
C85	C	-0.653305	-0.999934	0.000055
C86	C	-0.319972	-0.666600	0.333388
C87	C	0.013362	-0.333267	0.666722
C88	C	-0.580477	-1.001355	0.000068
C89	C	-0.247144	-0.668022	0.333401
C90	C	0.086190	-0.334689	0.666734
C91	C	-0.552287	-1.086118	0.000095
C92	C	-0.218953	-0.752784	0.333428
C93	C	0.114380	-0.419451	0.666762
C94	C	0.224551	-1.081773	0.000079
C95	C	0.557885	-0.748440	0.333413
C96	C	0.891218	-0.415107	0.666746
C97	C	0.302061	-1.083280	0.000064
C98	C	0.635395	-0.749947	0.333397
C99	C	0.968728	-0.416613	0.666731
C100	C	0.092024	-1.257649	0.000124
C101	C	0.425357	-0.924316	0.333457
C102	C	0.758691	-0.590983	0.666790
C103	C	0.093529	-1.360021	0.000128
C104	C	0.426862	-1.026688	0.333462
C105	C	0.760196	-0.693355	0.666795
C106	C	0.094751	-0.443159	0.000121
C107	C	0.428084	-0.109826	0.333455
C108	C	0.761417	0.223508	0.666788
C109	C	0.096290	-0.547457	0.000108
C110	C	0.429623	-0.214124	0.333441
C111	C	0.762956	0.119209	0.666774
C112	C	0.097521	-0.630586	0.000097
C113	C	0.430855	-0.297253	0.333430
C114	C	0.764188	0.036080	0.666763
C115	C	0.099060	-0.734891	0.000085
C116	C	0.432394	-0.401558	0.333418
C117	C	0.765727	-0.068225	0.666751
N118	N	0.096914	-1.089042	-0.243434
N119	N	0.430247	-0.755709	0.089899
N120	N	0.763581	-0.422376	0.423232
C121	C	0.096915	-1.089028	0.663460
C122	C	0.430248	-0.755695	0.996793
C123	C	0.763581	-0.422362	1.330126
C124	C	0.096914	-1.089020	0.546655
C125	C	0.430247	-0.755686	0.879988
C126	C	0.763580	-0.422353	1.213321
C127	C	0.096909	-1.089018	0.453556
C128	C	0.430242	-0.755685	0.786890
C129	C	0.763575	-0.422351	1.120223
C130	C	0.096906	-1.089008	0.336744
C131	C	0.430240	-0.755675	0.670077
C132	C	0.763573	-0.422342	1.003410
H133	H	-0.129920	-1.247116	0.000172
H134	H	0.203413	-0.913782	0.333505
H135	H	0.536747	-0.580449	0.666839
H136	H	-0.573962	-1.238472	0.000117
H137	H	-0.240629	-0.905139	0.333451
H138	H	0.092705	-0.571805	0.666784
Br139	Br	-0.691566	-0.884908	0.000030
Br140	Br	-0.358233	-0.551575	0.333363
Br141	Br	-0.024899	-0.218242	0.666696
Br142	Br	-0.075860	-0.896895	0.000087
Br143	Br	0.257473	-0.563562	0.333421
Br144	Br	0.590806	-0.230228	0.666754
H145	H	-0.706081	-1.235898	0.000083
H146	H	-0.372748	-0.902564	0.333417
H147	H	-0.039414	-0.569231	0.666750
H148	H	-0.544140	-0.933496	0.000061
H149	H	-0.210807	-0.600162	0.333394
H150	H	0.122527	-0.266829	0.666728
Br151	Br	-0.286274	-1.289783	0.000153
Br152	Br	0.047060	-0.956450	0.333486
Br153	Br	0.380393	-0.623117	0.666819
H154	H	-0.232221	-0.939574	0.000093
H155	H	0.101112	-0.606241	0.333427
H156	H	0.434445	-0.272908	0.666760
