data_functionalizedCrystal
_audit_creation_method	'MofGen! by Chris Wilmer'
_symmetry_space_group_name_H-M	'P1'
_symmetry_Int_Tables_number	1
_symmetry_cell_setting	triclinic
loop_
_symmetry_equiv_pos_as_xyz
  x,y,z
_cell_length_a	12.759399
_cell_length_b	18.050591
_cell_length_c	12.759393
_cell_angle_alpha	90.029518
_cell_angle_beta	89.968801
_cell_angle_gamma	89.991160
loop_
_atom_site_label
_atom_site_type_symbol
_atom_site_fract_x
_atom_site_fract_y
_atom_site_fract_z
Zn1	Zn	-0.418388	-1.135408	-0.594293
Zn2	Zn	0.081612	-0.635408	-0.094293
Zn3	Zn	-0.594107	-1.135332	-0.418614
Zn4	Zn	-0.094107	-0.635332	0.081386
Zn5	Zn	-0.418423	-1.011213	-0.418599
Zn6	Zn	0.081577	-0.511213	0.081401
Zn7	Zn	-0.594006	-1.011203	-0.594222
Zn8	Zn	-0.094006	-0.511203	-0.094222
O9	O	-0.506231	-1.073289	-0.506432
O10	O	-0.006231	-0.573289	-0.006432
O11	O	-0.441726	-1.239323	-0.571025
O12	O	0.058274	-0.739323	-0.071025
O13	O	-0.570859	-1.118840	-0.271591
O14	O	-0.070859	-0.618840	0.228409
O15	O	-0.271397	-1.027724	-0.441928
O16	O	0.228603	-0.527724	0.058072
O17	O	-0.570826	-1.239267	-0.441955
O18	O	-0.070826	-0.739267	0.058045
O19	O	-0.271372	-1.118969	-0.571010
O20	O	0.228628	-0.618969	-0.071010
O21	O	-0.441784	-1.027650	-0.271579
O22	O	0.058216	-0.527650	0.228421
O23	O	-0.441686	-0.907287	-0.441859
O24	O	0.058314	-0.407287	0.058141
O25	O	-0.570653	-1.027707	-0.741252
O26	O	-0.070653	-0.527707	-0.241252
O27	O	-0.570686	-0.907280	-0.570889
O28	O	-0.070686	-0.407280	-0.070889
O29	O	-0.441627	-1.118960	-0.741305
O30	O	0.058373	-0.618960	-0.241305
O31	O	-0.741115	-1.118830	-0.441886
O32	O	-0.241115	-0.618830	0.058114
O33	O	-0.741040	-1.027633	-0.570904
O34	O	-0.241040	-0.527633	-0.070904
C35	C	-0.506180	-0.880337	-0.506365
C36	C	-0.006180	-0.380337	-0.006365
C37	C	-0.506183	-0.797791	-0.506361
C38	C	-0.006183	-0.297791	-0.006361
C39	C	-0.435942	-0.548948	-0.436343
C40	C	0.064058	-0.048948	0.063657
C41	C	-0.410345	-0.598384	-0.532227
C42	C	0.089655	-0.098384	-0.032227
C43	C	-0.506214	-0.500671	-0.506426
C44	C	-0.006214	-0.000671	-0.006426
C45	C	-0.531746	-0.598317	-0.410515
C46	C	-0.031746	-0.098317	0.089485
C47	C	-0.506196	-0.646656	-0.506389
C48	C	-0.006196	-0.146656	-0.006389
C49	C	-0.480569	-0.549020	-0.602361
C50	C	0.019431	-0.049020	-0.102361
C51	C	-0.602014	-0.548948	-0.480584
C52	C	-0.102014	-0.048948	0.019416
C53	C	-0.576454	-0.598362	-0.576535
C54	C	-0.076454	-0.098362	-0.076535
C55	C	-0.506222	-0.416573	-0.506445
C56	C	-0.006222	0.083427	-0.006445
C57	C	-0.506189	-0.730753	-0.506380
C58	C	-0.006189	-0.230753	-0.006380
C59	C	-0.779198	-1.073243	-0.506412
C60	C	-0.279198	-0.573243	-0.006412
C61	C	-0.895975	-1.073291	-0.506438
C62	C	-0.395975	-0.573291	-0.006438
C63	C	-1.060566	-1.120882	-0.439365
C64	C	-0.560566	-0.620882	0.060635
C65	C	-0.950842	-1.120834	-0.439334
C66	C	-0.450842	-0.620834	0.060666
C67	C	-0.950838	-1.025788	-0.573570
C68	C	-0.450838	-0.525788	-0.073570
C69	C	-1.060560	-1.025833	-0.573595
C70	C	-0.560560	-0.525833	-0.073595
C71	C	-1.115427	-1.168434	-0.372264
C72	C	-0.615427	-0.668434	0.127736
C73	C	-1.060571	-1.215936	-0.305130
C74	C	-0.560571	-0.715936	0.194870
C75	C	-0.950847	-1.215887	-0.305099
C76	C	-0.450847	-0.715887	0.194901
C77	C	-0.895979	-1.168337	-0.372202
C78	C	-0.395979	-0.668337	0.127798
C79	C	-0.232198	-1.073356	-0.506475
C80	C	0.267802	-0.573356	-0.006475
C81	C	-0.115421	-1.073385	-0.506494
C82	C	0.384579	-0.573385	-0.006494
C83	C	-0.506125	-1.073341	-0.780465
C84	C	-0.006125	-0.573341	-0.280465
C85	C	-0.506080	-1.073363	-0.897242
C86	C	-0.006080	-0.573363	-0.397242
C87	C	-0.506265	-0.266995	-0.506481
C88	C	-0.006265	0.233005	-0.006481
C89	C	-0.506231	-0.349541	-0.506455
C90	C	-0.006231	0.150459	-0.006455
C91	C	-0.438890	-1.120885	-0.952133
C92	C	0.061110	-0.620885	-0.452133
C93	C	-0.438852	-1.120903	-1.061857
C94	C	0.061148	-0.620903	-0.561857
C95	C	-0.573203	-1.025875	-1.061790
C96	C	-0.073203	-0.525875	-0.561790
C97	C	-0.573235	-1.025854	-0.952068
C98	C	-0.073235	-0.525854	-0.452068
C99	C	-0.371735	-1.168395	-0.897307
C100	C	0.128265	-0.668395	-0.397307
C101	C	-0.304540	-1.215921	-0.952198
C102	C	0.195460	-0.715921	-0.452198
C103	C	-0.304502	-1.215939	-1.061923
C104	C	0.195498	-0.715939	-0.561923
C105	C	-0.371659	-1.168430	-1.116756
C106	C	0.128341	-0.668430	-0.616756
C107	C	-0.506261	-1.073280	-0.233464
C108	C	-0.006261	-0.573280	0.266536
C109	C	-0.506010	-1.073402	-0.116688
C110	C	-0.006010	-0.573402	0.383312
H111	H	-0.553347	-0.619973	-0.329421
H112	H	-0.053347	-0.119973	0.170579
O113	O	-0.451812	-0.520460	-0.709808
O114	O	0.048188	-0.020460	-0.209808
H115	H	-0.509804	-0.540711	-0.767955
H116	H	-0.009804	-0.040711	-0.267955
O117	O	-0.891684	-1.267120	-0.232694
O118	O	-0.391684	-0.767120	0.267306
H119	H	-0.841614	-1.304858	-0.279770
H120	H	-0.341614	-0.804858	0.220230
H121	H	-0.371610	-1.168440	-1.206101
H122	H	0.128390	-0.668440	-0.706101
O123	O	-0.645637	-0.974637	-1.120924
O124	O	-0.145637	-0.474637	-0.620924
H125	H	-0.634332	-0.982640	-1.206442
H126	H	-0.134332	-0.482640	-0.706442
O127	O	-0.303024	-0.627155	-0.561162
O128	O	0.196976	-0.127155	-0.061162
H129	H	-0.281320	-0.606555	-0.640195
H130	H	0.218680	-0.106555	-0.140195
H131	H	-1.105253	-1.254646	-0.250492
H132	H	-0.605253	-0.754646	0.249508
O133	O	-0.371770	-1.168384	-0.778963
O134	O	0.128230	-0.668384	-0.278963
H135	H	-0.451028	-1.183372	-0.750027
H136	H	0.048972	-0.683372	-0.250027
O137	O	-0.709302	-0.520148	-0.451611
O138	O	-0.209302	-0.020148	0.048389
H139	H	-0.730327	-0.539852	-0.371940
H140	H	-0.230327	-0.039852	0.128060
O141	O	-0.232034	-1.267195	-1.121133
O142	O	0.267966	-0.767195	-0.621133
H143	H	-0.185352	-1.300230	-1.064572
H144	H	0.314648	-0.800230	-0.564572
O145	O	-0.777632	-1.168281	-0.372174
O146	O	-0.277632	-0.668281	0.127826
H147	H	-0.748702	-1.209300	-0.314224
H148	H	-0.248702	-0.709300	0.185776
H149	H	-0.249858	-1.254596	-0.907546
H150	H	0.250142	-0.754596	-0.407546
O151	O	-0.891670	-0.974504	-0.645948
O152	O	-0.391670	-0.474504	-0.145948
H153	H	-0.841613	-1.007701	-0.699448
H154	H	-0.341613	-0.507701	-0.199448
O155	O	-0.357184	-0.520199	-0.357955
O156	O	0.142816	-0.020199	0.142045
H157	H	-0.277715	-0.539999	-0.379647
H158	H	0.222285	-0.039999	0.120353
O159	O	-0.655163	-0.626930	-0.655100
O160	O	-0.155163	-0.126930	-0.155100
H161	H	-0.633715	-0.607081	-0.734587
H162	H	-0.133715	-0.107081	-0.234587
O163	O	-1.233771	-1.168478	-0.372290
O164	O	-0.733771	-0.668478	0.127710
H165	H	-1.262706	-1.209516	-0.314347
H166	H	-0.762706	-0.709516	0.185653
O167	O	-0.645700	-0.974599	-0.892851
O168	O	-0.145700	-0.474599	-0.392851
H169	H	-0.692401	-0.941573	-0.949406
H170	H	-0.192401	-0.441573	-0.449406
O171	O	-1.119738	-0.974610	-0.646001
O172	O	-0.619738	-0.474610	-0.146001
H173	H	-1.063158	-0.941545	-0.692669
H174	H	-0.563158	-0.441545	-0.192669
