data_functionalizedCrystal
_audit_creation_method	'MofGen! by Chris Wilmer'
_symmetry_space_group_name_H-M	'P1'
_symmetry_Int_Tables_number	1
_symmetry_cell_setting	triclinic
loop_
_symmetry_equiv_pos_as_xyz
  x,y,z
_cell_length_a	17.699083
_cell_length_b	8.559649
_cell_length_c	16.776229
_cell_angle_alpha	89.994739
_cell_angle_beta	89.998886
_cell_angle_gamma	76.530840
loop_
_atom_site_label
_atom_site_type_symbol
_atom_site_fract_x
_atom_site_fract_y
_atom_site_fract_z
O1	O	0.992507	0.202110	-0.066174
O2	O	0.770623	0.228404	-0.066200
O3	O	0.901113	-0.017421	-0.066184
O4	O	0.862017	0.447935	-0.066190
O5	O	0.901098	-0.017436	0.066393
O6	O	0.770608	0.228389	0.066377
O7	O	0.992492	0.202095	0.066403
Zn8	Zn	0.881548	0.215240	0.087439
Zn9	Zn	0.881567	0.215259	-0.087236
O10	O	0.862002	0.447920	0.066387
C11	C	0.742473	0.227455	0.000085
C12	C	0.658616	0.224628	0.000075
C13	C	0.601734	0.368922	0.000074
C14	C	0.522943	0.366257	0.000084
C15	C	0.501037	0.219296	0.000090
C16	C	0.557926	0.074990	0.000094
C17	C	0.636715	0.077657	0.000090
C18	C	0.240179	0.064231	0.000114
C19	C	0.161383	0.061575	0.000116
C20	C	0.126407	0.352831	0.000108
C21	C	0.205196	0.355498	0.000104
C22	C	0.262078	0.211193	0.000112
C23	C	0.347512	0.214085	0.000102
C24	C	0.415605	0.216402	0.000094
C25	C	0.904069	-0.076970	0.000103
C26	C	0.912888	-0.254384	0.000100
C27	C	1.020643	0.203044	0.000116
C28	C	1.104499	0.205871	0.000120
C29	C	0.859047	0.507469	0.000098
C30	C	0.850227	0.684883	0.000096
N31	N	0.881540	0.215225	0.206650
N32	N	0.881581	0.215261	-0.206447
C33	C	0.939335	0.106418	0.248374
C34	C	0.939339	0.106417	0.331827
C35	C	0.881552	0.215231	0.373553
C36	C	0.823752	0.324043	0.331823
C37	C	0.823745	0.324036	0.248372
C38	C	0.823777	0.324075	0.668370
C39	C	0.823790	0.324077	0.751827
C40	C	0.939371	0.106456	0.751824
C41	C	0.939364	0.106448	0.668374
C42	C	0.881563	0.215254	0.626651
C43	C	0.881558	0.215252	0.536163
C44	C	0.881559	0.215242	0.464040
H45	H	0.080083	0.470330	0.000106
H46	H	0.143552	-0.058106	0.000123
H47	H	0.286484	-0.053271	0.000122
H48	H	0.776682	0.412635	0.214401
H49	H	0.540084	-0.044668	0.000111
H50	H	0.683029	-0.039842	0.000091
H51	H	0.619562	0.488595	0.000068
O52	O	0.995508	0.000560	0.207968
C53	C	1.046529	-0.095450	0.262695
H54	H	1.015604	-0.097165	0.322185
H55	H	1.065497	-0.223120	0.238592
H56	H	1.099742	-0.043704	0.271560
O57	O	0.778233	-0.215010	0.000048
C58	C	0.785158	-0.054216	0.000064
H59	H	0.844272	-0.048212	-0.025028
H60	H	0.737295	0.021581	-0.038436
H61	H	0.779504	-0.005994	0.063665
O62	O	0.984984	-0.354110	0.000005
C63	C	1.025618	-0.325275	-0.068666
H64	H	0.999749	-0.198720	-0.091566
H65	H	1.089448	-0.337406	-0.053218
H66	H	1.020515	-0.416378	-0.116742
H67	H	0.476631	0.483756	0.000082
H68	H	0.986399	0.017817	0.365798
O69	O	0.995536	0.000590	0.627965
C70	C	1.046560	-0.095424	0.682688
H71	H	1.015637	-0.097141	0.742180
H72	H	1.065525	-0.223093	0.658583
H73	H	1.099774	-0.043681	0.691551
O74	O	0.995420	0.000588	0.792393
C75	C	0.960620	-0.097882	0.840688
H76	H	0.901082	-0.100427	0.815545
H77	H	0.998892	-0.224996	0.841639
H78	H	0.953748	-0.047851	0.903932
H79	H	0.776729	0.412690	0.785799
H80	H	0.776714	0.412671	0.634406
H81	H	0.776697	0.412637	0.365802
H82	H	0.223027	0.475168	0.000095
