data_functionalizedCrystal
_audit_creation_method	'MofGen! by Chris Wilmer'
_symmetry_space_group_name_H-M	'P1'
_symmetry_Int_Tables_number	1
_symmetry_cell_setting	triclinic
loop_
_symmetry_equiv_pos_as_xyz
  x,y,z
_cell_length_a	12.645331
_cell_length_b	12.645330
_cell_length_c	13.897441
_cell_angle_alpha	90.027301
_cell_angle_beta	90.015143
_cell_angle_gamma	90.016927
loop_
_atom_site_label
_atom_site_type_symbol
_atom_site_fract_x
_atom_site_fract_y
_atom_site_fract_z
Zn1	Zn	1.620725	-0.422027	0.545259
Zn2	Zn	1.620608	-0.599323	0.383970
Zn3	Zn	1.443441	-0.422071	0.383993
Zn4	Zn	1.443421	-0.599247	0.545238
O5	O	1.532049	-0.510667	0.464615
O6	O	1.769057	-0.445559	0.523863
O7	O	1.597067	-0.575860	0.248991
O8	O	1.467016	-0.273718	0.405404
O9	O	1.768971	-0.575817	0.405364
O10	O	1.597265	-0.273686	0.523886
O11	O	1.466903	-0.445634	0.249009
O12	O	1.295091	-0.445561	0.405384
O13	O	1.466981	-0.575688	0.680223
O14	O	1.295077	-0.575731	0.523850
O15	O	1.597246	-0.445486	0.680238
O16	O	1.597047	-0.747660	0.405344
O17	O	1.466868	-0.747604	0.523827
C18	C	1.256619	-0.510643	0.464618
C19	C	1.138789	-0.510658	0.464642
C20	C	1.531972	-0.786097	0.464602
C21	C	1.532036	-0.903927	0.464628
C22	C	0.971251	-0.592997	0.538780
C23	C	1.093811	-0.592732	0.539090
C24	C	1.094311	-0.399002	0.492413
C25	C	0.971713	-0.399505	0.492935
C26	C	0.971545	-0.539076	0.362497
C27	C	1.094151	-0.541518	0.363048
C28	C	1.450478	-1.071500	0.539396
C29	C	1.450061	-0.948940	0.539156
C30	C	1.501791	-0.948525	0.362975
C31	C	1.501294	-1.071124	0.363429
C32	C	1.644336	-1.071016	0.490689
C33	C	1.643648	-0.948409	0.492912
C34	C	1.808554	-0.510692	0.464613
C35	C	1.926384	-0.510702	0.464613
C36	C	1.532124	-0.510573	0.716208
C37	C	1.532156	-0.510533	0.823422
C38	C	1.532156	-0.234162	0.464650
C39	C	1.532201	-0.116332	0.464665
C40	C	1.532035	-0.510684	0.214001
C41	C	1.532208	-0.510425	0.106788
C42	C	1.532185	-0.510462	1.019718
C43	C	1.532166	-0.510505	0.910485
H44	H	1.123884	-0.675531	0.521685
H45	H	1.468983	-0.918783	0.614531
H46	H	1.123444	-0.336020	0.440081
H47	H	0.942032	-0.335991	0.441392
H48	H	1.671925	-1.101857	0.563554
H49	H	1.123234	-0.623681	0.342102
H50	H	0.940623	-0.619108	0.337254
H51	H	1.125035	-0.374498	0.566255
H52	H	1.366929	-0.919705	0.521915
H53	H	0.941760	-0.676071	0.521567
H54	H	1.705222	-1.100008	0.436259
H55	H	1.666456	-0.919256	0.567723
H56	H	0.943137	-0.375439	0.567587
H57	H	0.940459	-0.574462	0.614004
H58	H	1.124768	-0.485927	0.304823
H59	H	1.123159	-0.573953	0.614754
H60	H	1.419322	-1.099815	0.341382
H61	H	1.367865	-1.102400	0.522376
H62	H	1.469227	-1.100908	0.615018
H63	H	0.942528	-0.479133	0.307235
H64	H	1.558234	-1.100784	0.305851
H65	H	1.707742	-0.917762	0.442445
H66	H	1.559427	-0.919370	0.305774
H67	H	1.420674	-0.917914	0.340529
