data_functionalizedCrystal
_audit_creation_method	'MofGen! by Chris Wilmer'
_symmetry_space_group_name_H-M	'P1'
_symmetry_Int_Tables_number	1
_symmetry_cell_setting	triclinic
loop_
_symmetry_equiv_pos_as_xyz
  x,y,z
_cell_length_a	19.805407
_cell_length_b	13.032721
_cell_length_c	19.805399
_cell_angle_alpha	82.844098
_cell_angle_beta	90.019573
_cell_angle_gamma	97.204665
loop_
_atom_site_label
_atom_site_type_symbol
_atom_site_fract_x
_atom_site_fract_y
_atom_site_fract_z
Zn1	Zn	1.000535	-0.416068	0.416943
Zn2	Zn	1.333868	-0.082734	0.750277
Zn3	Zn	1.667201	0.250599	1.083610
Zn4	Zn	0.986084	-0.590828	0.318130
Zn5	Zn	1.319417	-0.257494	0.651463
Zn6	Zn	1.652751	0.075839	0.984797
Zn7	Zn	0.887347	-0.416097	0.303770
Zn8	Zn	1.220680	-0.082763	0.637104
Zn9	Zn	1.554014	0.250570	0.970437
Zn10	Zn	0.872952	-0.590772	0.431272
Zn11	Zn	1.206285	-0.257439	0.764606
Zn12	Zn	1.539619	0.075895	1.097939
O13	O	0.936729	-0.503441	0.367529
O14	O	1.270063	-0.170108	0.700862
O15	O	1.603396	0.163226	1.034196
O16	O	1.093333	-0.439261	0.403849
O17	O	1.426667	-0.105928	0.737182
O18	O	1.760000	0.227405	1.070515
O19	O	0.972963	-0.567684	0.221512
O20	O	1.306296	-0.234351	0.554845
O21	O	1.639630	0.098982	0.888178
O22	O	0.914433	-0.269853	0.306777
O23	O	1.247767	0.063480	0.640110
O24	O	1.581100	0.396814	0.973443
O25	O	1.082717	-0.567656	0.331251
O26	O	1.416050	-0.234323	0.664584
O27	O	1.749383	0.099010	0.997917
O28	O	0.997592	-0.269832	0.389925
O29	O	1.330925	0.063501	0.723258
O30	O	1.664259	0.396835	1.056591
O31	O	0.900421	-0.439310	0.210962
O32	O	1.233755	-0.105977	0.544295
O33	O	1.567088	0.227356	0.877628
O34	O	0.790722	-0.439257	0.320671
O35	O	1.124055	-0.105923	0.654004
O36	O	1.457388	0.227410	0.987338
O37	O	0.889899	-0.567562	0.524085
O38	O	1.223233	-0.234228	0.857419
O39	O	1.556566	0.099105	1.190752
O40	O	0.780146	-0.567590	0.414346
O41	O	1.113479	-0.234256	0.747679
O42	O	1.446813	0.099077	1.081013
O43	O	0.983634	-0.439207	0.513558
O44	O	1.316967	-0.105874	0.846891
O45	O	1.650300	0.227459	1.180225
O46	O	0.959005	-0.737060	0.345145
O47	O	1.292338	-0.403727	0.678478
O48	O	1.625672	-0.070393	1.011812
O49	O	0.875887	-0.737019	0.428270
O50	O	1.209221	-0.403686	0.761603
O51	O	1.542554	-0.070352	1.094937
C52	C	0.760875	-0.503421	0.367506
C53	C	1.094208	-0.170088	0.700839
C54	C	1.427542	0.163246	1.034172
C55	C	0.685642	-0.503438	0.367514
C56	C	1.018975	-0.170104	0.700847
C57	C	1.352308	0.163229	1.034180
C58	C	0.644800	-0.570361	0.416228
C59	C	0.978133	-0.237028	0.749562
C60	C	1.311467	0.096305	1.082895
C61	C	0.574112	-0.570363	0.416238
C62	C	0.907445	-0.237030	0.749571
C63	C	1.240778	0.096304	1.082905
C64	C	0.544265	-0.503446	0.367529
C65	C	0.877599	-0.170112	0.700863
C66	C	1.210932	0.163221	1.034196
C67	C	0.585113	-0.436515	0.318812
C68	C	0.918446	-0.103181	0.652145
C69	C	1.251779	0.230152	0.985479
C70	C	0.655800	-0.436508	0.318806
C71	C	0.989134	-0.103175	0.652139
C72	C	1.322467	0.230158	0.985473
C73	C	0.300037	-0.436538	0.318836
C74	C	0.633371	-0.103204	0.652170
C75	C	0.966704	0.230129	0.985503
C76	C	0.229344	-0.436551	0.318845
C77	C	0.562677	-0.103218	0.652178
C78	C	0.896011	0.230115	0.985512
C79	C	0.218349	-0.570393	0.416269
C80	C	0.551682	-0.237059	0.749602
C81	C	0.885015	0.096274	1.082935
C82	C	0.289036	-0.570386	0.416262
C83	C	0.622370	-0.237053	0.749596
C84	C	0.955703	0.096280	1.082929
C85	C	0.329878	-0.503452	0.367548
C86	C	0.663211	-0.170118	0.700881
C87	C	0.996544	0.163215	1.034214
C88	C	0.406526	-0.503449	0.367538
C89	C	0.739860	-0.170116	0.700872
C90	C	1.073193	0.163217	1.034205
C91	C	0.467618	-0.503453	0.367535
C92	C	0.800951	-0.170120	0.700868
C93	C	1.134284	0.163214	1.034202
C94	C	0.914334	-0.774958	0.389835
C95	C	1.247668	-0.441624	0.723169
C96	C	1.581001	-0.108291	1.056502
C97	C	0.904816	-0.891114	0.399401
C98	C	1.238149	-0.557781	0.732734
C99	C	1.571482	-0.224447	1.066067
C100	C	0.941733	-0.942886	0.362567
C101	C	1.275067	-0.609552	0.695901
C102	C	1.608400	-0.276219	1.029234
C103	C	0.931896	-1.062939	0.372453
C104	C	1.265229	-0.729606	0.705786
C105	C	1.598563	-0.396272	1.039119
C106	C	1.113270	-0.503462	0.367553
C107	C	1.446604	-0.170128	0.700886
C108	C	1.779937	0.163205	1.034220
C109	C	1.188502	-0.503471	0.367563
C110	C	1.521835	-0.170137	0.700897
C111	C	1.855168	0.163196	1.034230
C112	C	0.936773	-0.503375	0.544066
C113	C	1.270106	-0.170042	0.877400
C114	C	1.603439	0.163291	1.210733
C115	C	0.936791	-0.503347	0.619296
C116	C	1.270125	-0.170014	0.952629
C117	C	1.603458	0.163320	1.285963
C118	C	0.959230	-0.230864	0.345151
C119	C	1.292564	0.102469	0.678484
C120	C	1.625897	0.435803	1.011817
C121	C	0.968819	-0.114708	0.335614
C122	C	1.302152	0.218626	0.668947
C123	C	1.635486	0.551959	1.002281
C124	C	0.936731	-0.503431	0.191672
C125	C	1.270065	-0.170098	0.525006
C126	C	1.603398	0.163236	0.858339
C127	C	0.936868	-0.503165	0.116419
C128	C	1.270202	-0.169831	0.449752
C129	C	1.603535	0.163502	0.783085
C130	C	0.985600	-0.436510	0.649160
C131	C	1.318933	-0.103176	0.982493
C132	C	1.652267	0.230157	1.315826
C133	C	0.985609	-0.436479	0.719846
C134	C	1.318943	-0.103146	1.053179
C135	C	1.652276	0.230187	1.386512
C136	C	0.936813	-0.503293	0.760667
C137	C	1.270146	-0.169959	1.094001
C138	C	1.603479	0.163374	1.427334
C139	C	0.887999	-0.570133	0.730799
C140	C	1.221332	-0.236800	1.064133
C141	C	1.554665	0.096534	1.397466
C142	C	0.887987	-0.570157	0.660114
C143	C	1.221320	-0.236824	0.993447
C144	C	1.554654	0.096509	1.326781
C145	C	0.888045	-0.570036	1.015865
C146	C	1.221378	-0.236702	1.349198
C147	C	1.554712	0.096631	1.682531
C148	C	0.888062	-0.570008	1.086555
C149	C	1.221395	-0.236675	1.419888
C150	C	1.554729	0.096658	1.753221
C151	C	0.985668	-0.436358	1.075596
C152	C	1.319001	-0.103024	1.408930
C153	C	1.652334	0.230309	1.742263
C154	C	0.985656	-0.436382	1.004911
C155	C	1.318989	-0.103049	1.338244
C156	C	1.652322	0.230285	1.671578
C157	C	0.936840	-0.503218	0.975049
C158	C	1.270173	-0.169885	1.308382
C159	C	1.603507	0.163449	1.641715
C160	C	0.936830	-0.503249	0.898403
C161	C	1.270163	-0.169915	1.231736
C162	C	1.603496	0.163418	1.565069
C163	C	0.936825	-0.503268	0.837312
C164	C	1.270159	-0.169935	1.170646
C165	C	1.603492	0.163399	1.503979
H166	H	0.669095	-0.624857	0.455891
H167	H	1.002428	-0.291523	0.789224
H168	H	1.335761	0.041810	1.122557
F169	F	1.037540	-0.365402	0.605720
F170	F	1.370874	-0.032069	0.939054
F171	F	1.704207	0.301265	1.272387
F172	F	0.530648	-0.641592	0.468087
F173	F	0.863981	-0.308259	0.801421
F174	F	1.197314	0.025074	1.134754
F175	F	0.343495	-0.365297	0.266991
F176	F	0.676828	-0.031964	0.600325
F177	F	1.010162	0.301369	0.933658
F178	F	0.553347	-0.365289	0.266976
F179	F	0.886680	-0.031956	0.600309
F180	F	1.220014	0.301377	0.933643
H181	H	0.865929	-0.935669	0.438256
H182	H	1.199262	-0.602336	0.771589
H183	H	1.532596	-0.269003	1.104923
H184	H	1.007714	-1.070157	0.296761
H185	H	1.341047	-0.736824	0.630094
H186	H	1.674380	-0.403491	0.963428
H187	H	1.025356	-0.382056	0.744157
H188	H	1.358689	-0.048723	1.077490
H189	H	1.692023	0.284611	1.410824
F190	F	1.037594	-0.365274	0.961469
F191	F	1.370927	-0.031941	1.294802
F192	F	1.704261	0.301393	1.628136
F193	F	0.992570	-0.884654	0.311786
F194	F	1.325903	-0.551321	0.645120
F195	F	1.659236	-0.217987	0.978453
F196	F	0.881064	-1.121166	0.423243
F197	F	1.214398	-0.787833	0.756577
F198	F	1.547731	-0.454500	1.089910
H199	H	0.313333	-0.624881	0.455924
H200	H	0.646666	-0.291547	0.789257
H201	H	0.979999	0.041786	1.122591
H202	H	0.185087	-0.624890	0.455937
H203	H	0.518421	-0.291557	0.789270
H204	H	0.851754	0.041777	1.122603
F205	F	0.699267	-0.365277	0.266958
F206	F	1.032600	-0.031944	0.600291
F207	F	1.365934	0.301390	0.933625
F208	F	0.836063	-0.641237	0.774246
F209	F	1.169396	-0.307903	1.107580
F210	F	1.502730	0.025430	1.440913
F211	F	1.037620	-0.365221	1.107383
F212	F	1.370954	-0.031887	1.440716
F213	F	1.704287	0.301446	1.774050
H214	H	0.848322	-0.624418	1.119791
H215	H	1.181656	-0.291084	1.453124
H216	H	1.514989	0.042249	1.786457
H217	H	0.848305	-0.624473	0.991561
H218	H	1.181638	-0.291140	1.324894
H219	H	1.514972	0.042194	1.658228
F220	F	0.197582	-0.365324	0.267001
F221	F	0.530915	-0.031991	0.600334
F222	F	0.864249	0.301343	0.933667
H223	H	0.848236	-0.624573	0.635800
H224	H	1.181569	-0.291239	0.969133
H225	H	1.514903	0.042094	1.302467
