data_functionalizedCrystal
_audit_creation_method	'MofGen! by Chris Wilmer'
_symmetry_space_group_name_H-M	'P1'
_symmetry_Int_Tables_number	1
_symmetry_cell_setting	triclinic
loop_
_symmetry_equiv_pos_as_xyz
  x,y,z
_cell_length_a	17.077404
_cell_length_b	12.594516
_cell_length_c	12.594510
_cell_angle_alpha	90.032321
_cell_angle_beta	90.020711
_cell_angle_gamma	90.016278
loop_
_atom_site_label
_atom_site_type_symbol
_atom_site_fract_x
_atom_site_fract_y
_atom_site_fract_z
Zn1	Zn	1.200101	-0.423639	0.601864
Zn2	Zn	1.200021	-0.601669	0.423891
Zn3	Zn	1.068830	-0.423705	0.423894
Zn4	Zn	1.068817	-0.601577	0.601823
O5	O	1.134442	-0.512647	0.512868
O6	O	1.309938	-0.447266	0.578271
O7	O	1.182591	-0.578127	0.274946
O8	O	1.086283	-0.274751	0.447520
O9	O	1.309879	-0.578063	0.447516
O10	O	1.182727	-0.274702	0.578274
O11	O	1.086205	-0.447378	0.274947
O12	O	0.958982	-0.447289	0.447480
O13	O	1.086260	-0.577907	0.750774
O14	O	0.958972	-0.577971	0.578204
O15	O	1.182714	-0.447177	0.750804
O16	O	1.182578	-0.750602	0.447476
O17	O	1.086182	-0.750535	0.578201
C18	C	0.930495	-0.512628	0.512838
C19	C	0.843245	-0.512646	0.512851
C20	C	0.802270	-0.580794	0.580810
C21	C	0.720290	-0.580797	0.580827
C22	C	0.679285	-0.512655	0.512879
C23	C	0.720266	-0.444499	0.444917
C24	C	0.802245	-0.444492	0.444906
C25	C	0.549396	-0.444520	0.444943
C26	C	0.467411	-0.444528	0.444952
C27	C	0.467441	-0.580824	0.580863
C28	C	0.549419	-0.580817	0.580852
C29	C	0.590394	-0.512662	0.512889
C30	C	1.134391	-0.789188	0.512857
C31	C	1.134441	-0.907494	0.512888
C32	C	1.082006	-0.976749	0.583940
C33	C	1.062881	-1.047625	0.486817
C34	C	1.153638	-1.047417	0.610028
C35	C	1.115277	-0.976812	0.415714
C36	C	1.206068	-0.976597	0.538991
C37	C	1.186970	-1.047441	0.441801
C38	C	1.339187	-0.512668	0.512898
C39	C	1.426436	-0.512676	0.512911
C40	C	1.134494	-0.512525	0.790489
C41	C	1.134516	-0.512472	0.908794
C42	C	1.134515	-0.235027	0.512901
C43	C	1.134547	-0.116721	0.512916
C44	C	1.134436	-0.512693	0.236327
C45	C	1.134566	-0.512446	0.118022
C46	C	1.186993	-0.441363	0.978064
C47	C	1.115400	-0.415311	1.048855
C48	C	1.206151	-0.538450	1.048803
C49	C	1.062885	-0.486370	0.978027
C50	C	1.153684	-0.609554	0.977969
C51	C	1.082042	-0.583539	1.048727
H52	H	0.582803	-0.636310	0.636175
H53	H	1.037585	-0.945708	0.643938
C54	C	1.307685	-0.970012	0.670620
C55	C	1.287753	-0.934439	0.568826
H56	H	1.358112	-0.943977	0.689047
H57	H	1.308203	-1.045419	0.671481
H58	H	1.270263	-0.944750	0.720368
H59	H	1.325172	-0.959708	0.519076
H60	H	1.287241	-0.859016	0.567956
H61	H	1.002356	-1.078847	0.464762
H62	H	1.099013	-0.945925	0.333553
C63	C	1.121413	-0.795061	0.973127
C64	C	1.175576	-0.720370	0.935897
H65	H	1.134939	-0.863474	0.947157
H66	H	1.070507	-0.776688	0.948932
H67	H	1.122070	-0.795686	1.048545
H68	H	1.174914	-0.719739	0.860479
H69	H	1.226495	-0.738748	0.960087
C70	C	1.120459	-1.053592	0.795159
C71	C	1.175506	-1.089284	0.720910
H72	H	1.133960	-1.079432	0.863613
H73	H	1.069982	-1.078962	0.776140
H74	H	1.120114	-0.978173	0.796088
H75	H	1.175847	-1.164703	0.719975
H76	H	1.225997	-1.063920	0.739933
H77	H	1.266711	-0.560431	1.079896
H78	H	1.231357	-1.078285	0.381657
C79	C	1.154751	-0.265183	1.153655
C80	C	1.093545	-0.304465	1.090900
H81	H	1.141262	-0.196752	1.179613
H82	H	1.201046	-0.260379	1.112158
H83	H	1.163445	-0.311771	1.211764
H84	H	1.084854	-0.257880	1.032786
H85	H	1.047236	-0.309262	1.132398
H86	H	1.002308	-0.464291	0.947068
C87	C	0.794056	-0.715506	0.715162
C88	C	0.847338	-0.655696	0.655505
H89	H	0.821879	-0.761741	0.761284
H90	H	0.762062	-0.756172	0.668726
H91	H	0.762100	-0.669166	0.755951
H92	H	0.879290	-0.702036	0.614710
H93	H	0.879345	-0.615027	0.701948
C94	C	0.641600	-0.301309	0.430366
C95	C	0.594433	-0.369603	0.370232
H96	H	0.669399	-0.255060	0.384239
H97	H	0.677751	-0.341886	0.470821
H98	H	0.609635	-0.260651	0.476809
H99	H	0.626400	-0.410267	0.323795
H100	H	0.558278	-0.329021	0.329759
H101	H	1.037634	-0.643663	1.079559
H102	H	0.434075	-0.636316	0.636205
H103	H	0.434028	-0.389028	0.389636
C104	C	0.628157	-0.595772	0.723999
C105	C	0.675256	-0.655715	0.655528
H106	H	0.600362	-0.642029	0.770123
H107	H	0.592003	-0.555202	0.683542
H108	H	0.660169	-0.549445	0.764782
H109	H	0.643243	-0.702037	0.614739
H110	H	0.711414	-0.696304	0.695990
C111	C	1.208270	-0.284660	0.873484
C112	C	1.246797	-0.360145	0.936160
H113	H	1.245190	-0.234523	0.847608
H114	H	1.169942	-0.249144	0.915007
H115	H	1.183562	-0.319121	0.815318
H116	H	1.271501	-0.325685	0.994331
H117	H	1.285140	-0.395664	0.894635
H118	H	0.686874	-0.389012	0.389598
H119	H	0.835606	-0.388993	0.389573
