data_functionalizedCrystal
_audit_creation_method	'MofGen! by Chris Wilmer'
_symmetry_space_group_name_H-M	'P1'
_symmetry_Int_Tables_number	1
_symmetry_cell_setting	triclinic
loop_
_symmetry_equiv_pos_as_xyz
  x,y,z
_cell_length_a	19.377369
_cell_length_b	19.377372
_cell_length_c	19.377574
_cell_angle_alpha	104.019690
_cell_angle_beta	82.425876
_cell_angle_gamma	62.069167
loop_
_atom_site_label
_atom_site_type_symbol
_atom_site_fract_x
_atom_site_fract_y
_atom_site_fract_z
Zr1	Zr	0.939011	0.435570	-0.001113
O2	O	1.041014	0.307931	-0.072909
O3	O	0.808642	0.485573	0.000753
O4	O	0.940576	0.439850	-0.115422
O5	O	0.917738	0.377351	0.157819
O6	O	0.974077	0.531539	-0.126042
O7	O	0.909081	0.353654	0.043265
O8	O	0.738072	0.613330	0.081772
O9	O	1.153743	0.295560	-0.049995
O10	O	0.897772	0.562187	0.017959
O11	O	0.879232	0.511445	0.111376
O12	O	1.034566	0.457612	-0.025404
O13	O	1.016026	0.406869	0.068012
Zr14	Zr	1.006249	0.619599	0.164649
Zr15	Zr	0.992442	0.581805	-0.018052
Zr16	Zr	0.952819	0.473364	0.181587
Zr17	Zr	1.118801	0.415841	0.035432
Zr18	Zr	0.826460	0.639328	0.128104
O19	O	1.136618	0.569596	0.162783
O20	O	1.116985	0.515857	-0.096994
O21	O	1.060647	0.361669	0.186867
O22	O	0.904246	0.747238	0.236445
O23	O	0.884614	0.693500	-0.023332
O24	O	0.828275	0.539311	0.260529
O25	O	1.027522	0.677818	0.005716
O26	O	1.004685	0.615319	0.278957
O27	O	0.971184	0.523629	0.289578
O28	O	1.036180	0.701515	0.120271
O29	O	1.196213	0.411797	-0.063459
O30	O	0.749047	0.643371	0.226995
O31	O	0.791518	0.759608	0.213531
O32	O	0.780542	0.729567	0.068308
O33	O	1.164718	0.325602	0.095227
O34	O	1.207188	0.441839	0.081763
O35	O	0.910694	0.597557	0.188940
O36	O	0.929235	0.648299	0.095523
O37	O	1.066029	0.543724	0.052160
O38	O	1.047488	0.492981	0.145576
C39	C	0.747741	0.552262	0.036055
C40	C	0.671416	0.560638	0.020541
C41	C	0.905797	0.344667	0.102955
C42	C	0.883114	0.282587	0.110146
C43	C	0.371817	0.456089	0.213536
C44	C	0.300045	0.464065	0.199008
C45	C	0.319409	0.517036	0.101489
C46	C	0.391182	0.509069	0.116011
C47	C	0.417380	0.478594	0.172035
C48	C	0.436745	0.531573	0.074510
C49	C	0.508514	0.523601	0.089029
C50	C	0.534719	0.493126	0.145049
C51	C	0.489148	0.470622	0.186554
C52	C	0.410549	0.562042	0.018482
C53	C	0.456112	0.584546	-0.023019
C54	C	0.527879	0.576581	-0.008497
C55	C	0.554084	0.546105	0.047523
C56	C	0.573449	0.599084	-0.050002
C57	C	0.645218	0.591113	-0.035483
C58	C	0.625852	0.538133	0.062042
C59	C	1.165530	-0.194519	0.020617
C60	C	1.144197	-0.252839	0.027380
C61	C	1.001395	-0.143661	0.072649
C62	C	1.022716	-0.085330	0.065892
C63	C	1.104785	-0.110766	0.039875
C64	C	0.961971	-0.001577	0.085150
C65	C	0.983290	0.056748	0.078390
C66	C	1.065354	0.031319	0.052372
C67	C	1.126104	-0.052442	0.033115
C68	C	0.879902	0.023857	0.111162
C69	C	0.819157	0.107610	0.130421
C70	C	0.840476	0.165937	0.123666
C71	C	0.922540	0.140509	0.097648
C72	C	0.779726	0.249698	0.142923
C73	C	0.801045	0.308023	0.136163
C74	C	0.943859	0.198833	0.090888
C75	C	1.197519	0.502906	0.127480
C76	C	1.273845	0.494531	0.142994
C77	C	0.955359	0.480310	-0.146763
C78	C	0.949497	0.464265	-0.224324
C79	C	1.039464	0.710502	0.060580
C80	C	1.062146	0.772582	0.053389
C81	C	1.022486	0.664042	-0.508686
C82	C	1.016973	0.648947	-0.581565
C83	C	0.980063	0.547928	-0.569845
C84	C	0.985577	0.563011	-0.496965
C85	C	1.006787	0.621070	-0.466391
C86	C	0.969878	0.520039	-0.454670
C87	C	0.975388	0.535125	-0.381795
C88	C	0.996595	0.593182	-0.351215
C89	C	1.012297	0.636155	-0.393516
C90	C	0.948662	0.461985	-0.485244
C91	C	0.932964	0.419013	-0.442949
C92	C	0.938478	0.434094	-0.370074
C93	C	0.959686	0.492152	-0.339494
C94	C	0.922777	0.391121	-0.327773
C95	C	0.928286	0.406206	-0.254898
C96	C	0.965195	0.507237	-0.266619
C97	C	0.989902	0.574859	0.310298
C98	C	0.995763	0.590904	0.387859
C99	C	0.814574	0.735180	0.014868
C100	C	0.760932	0.805635	-0.007837
C101	C	0.765012	0.599537	0.264586
C102	C	0.694549	0.623957	0.326633
C103	C	0.831846	0.782454	0.243398
C104	C	0.784065	0.868955	0.298254
C105	C	1.113415	0.272714	-0.079863
C106	C	1.161196	0.186214	-0.134719
C107	C	1.130686	0.319989	0.148668
C108	C	1.184329	0.249533	0.171373
C109	C	1.180248	0.455632	-0.101050
C110	C	1.250712	0.431211	-0.163097
C111	C	0.719317	0.793771	-0.058996
C112	C	0.668920	0.859962	-0.080344
C113	C	0.660136	0.938018	-0.050529
C114	C	0.701757	0.949880	0.000632
C115	C	0.752157	0.883689	0.021975
C116	C	0.677882	0.680376	0.396266
C117	C	0.611684	0.703319	0.454575
C118	C	0.562150	0.669847	0.443247
C119	C	0.578821	0.613421	0.373608
C120	C	0.645022	0.590474	0.315302
C121	C	0.771307	0.936069	0.275252
C122	C	0.726423	1.017349	0.326789
C123	C	0.694293	1.031512	0.401328
C124	C	0.707056	0.964390	0.424330
C125	C	0.751944	0.883112	0.372794
C126	C	1.173963	0.119098	-0.111715
C127	C	1.218869	0.037816	-0.163248
C128	C	1.251002	0.023652	-0.237785
C129	C	1.238235	0.090775	-0.260789
C130	C	1.193334	0.172055	-0.209255
C131	C	1.225951	0.261395	0.222525
C132	C	1.276365	0.195198	0.243857
C133	C	1.285152	0.117141	0.214041
C134	C	1.243528	0.105280	0.162882
C135	C	1.193119	0.171475	0.141547
C136	C	1.300228	0.464699	-0.151748
C137	C	1.366432	0.441770	-0.210044
C138	C	1.383122	0.385348	-0.279687
C139	C	1.333598	0.351860	-0.291036
C140	C	1.267392	0.374795	-0.232742
H141	H	0.647184	0.513318	0.107663
H142	H	1.182940	0.226700	-0.227995
H143	H	0.635036	0.850288	-0.122001
H144	H	0.619093	0.991908	-0.067914
H145	H	1.406748	0.469043	-0.200789
H146	H	0.982476	0.554508	-0.241727
H147	H	1.437033	0.366680	-0.327148
H148	H	1.347198	0.305920	-0.347747
H149	H	1.287561	-0.042535	-0.279739
H150	H	0.786035	0.893361	0.063635
H151	H	1.264404	0.079232	-0.321483
H152	H	1.001077	0.605466	-0.291874
H153	H	1.227081	0.347518	-0.241993
H154	H	1.147798	0.130616	-0.051027
H155	H	1.218801	0.324948	0.246814
H156	H	1.010690	0.178124	0.069727
H157	H	0.593160	0.486632	0.156866
H158	H	1.310250	0.204872	0.285515
H159	H	0.694597	1.013442	0.024902
H160	H	1.082711	0.078813	0.046867
H161	H	0.718208	0.707638	0.405503
H162	H	0.352113	0.568525	0.006660
H163	H	0.598120	0.749266	0.511273
H164	H	0.905499	0.343856	-0.352674
H165	H	1.229254	-0.016827	-0.144504
H166	H	1.326201	0.063248	0.231420
H167	H	0.434775	0.609356	-0.068636
H168	H	1.192934	-0.073151	0.011954
H169	H	0.762323	0.828470	0.391533
H170	H	0.716037	1.071994	0.308047
H171	H	0.944173	0.449708	-0.544582
H172	H	0.751581	0.376223	0.151860
H173	H	0.262950	0.445735	0.232806
H174	H	0.862546	-0.023639	0.116659
H175	H	0.510479	0.445807	0.232175
H176	H	1.232361	-0.215229	-0.000544
H177	H	0.393148	0.431274	0.259157
H178	H	1.193670	-0.321038	0.011694
H179	H	1.286651	0.510640	-0.095045
H180	H	0.298072	0.541846	0.055872
H181	H	0.508247	0.688538	0.490730
H182	H	1.250691	0.041718	0.138610
H183	H	0.552113	0.623889	-0.095622
H184	H	0.682317	0.609437	-0.069279
H185	H	0.934575	-0.122961	0.093830
H186	H	1.159228	0.161806	0.099897
H187	H	0.752336	0.128310	0.151602
H188	H	0.915502	0.371215	-0.220460
H189	H	0.712906	0.270396	0.164100
H190	H	1.029577	0.683426	-0.368624
H191	H	1.039766	0.711313	-0.483794
H192	H	0.538481	0.586172	0.364395
H193	H	0.680890	0.975935	0.485026
H194	H	0.658582	0.544536	0.258604
H195	H	1.029757	0.683946	-0.615998
H196	H	0.657744	1.097699	0.443284
H197	H	0.962790	0.500659	-0.594746
H198	H	0.915691	0.371744	-0.467850
H199	H	0.726468	0.730217	-0.083287
H200	H	0.797461	0.924552	0.214562
