data_functionalizedCrystal
_audit_creation_method	'MofGen! by Chris Wilmer'
_symmetry_space_group_name_H-M	'P1'
_symmetry_Int_Tables_number	1
_symmetry_cell_setting	triclinic
loop_
_symmetry_equiv_pos_as_xyz
  x,y,z
_cell_length_a	10.654556
_cell_length_b	10.654551
_cell_length_c	13.101018
_cell_angle_alpha	93.393175
_cell_angle_beta	86.606645
_cell_angle_gamma	84.486483
loop_
_atom_site_label
_atom_site_type_symbol
_atom_site_fract_x
_atom_site_fract_y
_atom_site_fract_z
O1	O	1.674690	0.169575	-0.085172
O2	O	1.309214	0.186371	-0.085182
O3	O	1.500354	-0.004766	-0.085174
O4	O	1.483550	0.360712	-0.085179
O5	O	1.486624	0.008960	0.085255
O6	O	1.295484	0.200097	0.085248
O7	O	1.660961	0.183300	0.085258
Zn8	Zn	1.476042	0.193878	0.112312
Zn9	Zn	1.494132	0.175794	-0.112236
O10	O	1.469820	0.374438	0.085251
C11	C	1.255551	0.191999	0.000032
C12	C	1.116109	0.188304	0.000028
C13	C	0.927047	0.175620	-0.092866
C14	C	1.058070	0.179083	-0.092872
C15	C	1.043119	0.194048	0.092940
C16	C	0.912100	0.190575	0.092945
C17	C	1.492255	-0.044701	0.000039
C18	C	1.488563	-0.184145	0.000034
C19	C	1.714623	0.177672	0.000042
C20	C	1.854066	0.181367	0.000039
C21	C	1.494314	-0.257130	-0.092868
C22	C	1.490834	-0.388151	-0.092869
C23	C	1.475857	-0.373188	0.092943
C24	C	1.479328	-0.242169	0.092943
C25	C	1.477919	0.414373	0.000035
C26	C	1.481612	0.553816	0.000033
N27	N	1.463706	0.206220	0.265561
N28	N	1.506479	0.163442	-0.265485
C29	C	1.523256	0.146646	0.525473
C30	C	1.446932	0.223011	0.474597
C31	C	1.456267	0.213666	0.358278
C32	C	1.513923	0.155990	0.641802
H33	H	1.117485	0.174401	-0.168525
H34	H	1.090386	0.201547	0.168581
H35	H	1.474637	-0.182740	0.168599
H36	H	1.595607	0.074255	0.481676
H37	H	1.495515	-0.447571	-0.168520
H38	H	1.468340	-0.420448	0.168585
C39	C	1.349195	0.320829	0.533769
N40	N	1.275589	0.394508	0.578342
H41	H	0.852677	0.195255	0.168604
C42	C	1.504459	-0.193307	-0.195070
N43	N	1.512095	-0.145238	-0.272052
C44	C	0.863217	0.165475	-0.195064
N45	N	0.815145	0.157828	-0.272044
