data_functionalizedCrystal
_audit_creation_method	'MofGen! by Chris Wilmer'
_symmetry_space_group_name_H-M	'P1'
_symmetry_Int_Tables_number	1
_symmetry_cell_setting	triclinic
loop_
_symmetry_equiv_pos_as_xyz
  x,y,z
_cell_length_a	13.339070
_cell_length_b	14.519709
_cell_length_c	11.804365
_cell_angle_alpha	101.851959
_cell_angle_beta	74.875130
_cell_angle_gamma	99.654719
loop_
_atom_site_label
_atom_site_type_symbol
_atom_site_fract_x
_atom_site_fract_y
_atom_site_fract_z
O1	O	1.363544	0.449147	-0.099080
O2	O	1.863544	0.949147	0.400920
O3	O	1.068905	0.388436	-0.099072
O4	O	1.568905	0.888436	0.400928
O5	O	1.224034	0.286542	-0.099066
O6	O	1.724034	0.786542	0.400934
O7	O	1.208414	0.551041	-0.099087
O8	O	1.708414	1.051041	0.400913
O9	O	1.183194	0.313329	0.098989
O10	O	1.683194	0.813329	0.598989
O11	O	1.028065	0.415223	0.098982
O12	O	1.528065	0.915223	0.598982
O13	O	1.322704	0.475934	0.098974
O14	O	1.822704	0.975934	0.598974
Cu15	Cu	1.171656	0.448024	0.117062
Cu16	Cu	1.671656	0.948024	0.617062
Cu17	Cu	1.219953	0.416345	-0.117160
Cu18	Cu	1.719953	0.916345	0.382840
O19	O	1.167575	0.577828	0.098968
O20	O	1.667575	1.077828	0.598968
C21	C	1.010777	0.391574	-0.000044
C22	C	1.510777	0.891574	0.499956
C23	C	0.898419	0.361005	-0.000040
C24	C	1.398419	0.861005	0.499960
C25	C	0.534064	0.598691	-0.000078
C26	C	1.034064	1.098691	0.499922
C27	C	0.639630	0.627415	-0.000085
C28	C	1.139630	1.127415	0.499915
C29	C	0.704332	0.560815	-0.000073
C30	C	1.204332	1.060815	0.499927
C31	C	0.663459	0.465486	-0.000055
C32	C	1.163459	0.965486	0.499945
C33	C	0.557884	0.436759	-0.000058
C34	C	1.057884	0.936759	0.499942
C35	C	0.728152	0.398882	-0.000053
C36	C	1.228152	0.898882	0.499947
C37	C	0.687279	0.303554	-0.000035
C38	C	1.187279	0.803554	0.499965
C39	C	0.581714	0.274831	-0.000037
C40	C	1.081714	0.774831	0.499963
C41	C	0.517012	0.341431	-0.000048
C42	C	1.017012	0.841431	0.499952
C43	C	0.833727	0.427610	-0.000051
C44	C	1.333727	0.927610	0.499949
C45	C	0.857547	0.265677	-0.000031
C46	C	1.357547	0.765677	0.499969
C47	C	0.751981	0.236954	-0.000024
C48	C	1.251981	0.736954	0.499976
C49	C	1.202886	0.265390	-0.000038
C50	C	1.702886	0.765390	0.499962
C51	C	1.200704	0.162454	-0.000038
C52	C	1.700704	0.662454	0.499962
C53	C	1.192677	-0.214489	-0.000068
C54	C	1.692677	0.285511	0.499932
C55	C	1.194906	-0.109613	-0.000059
C56	C	1.694906	0.390387	0.499941
C57	C	1.196690	-0.026021	-0.000052
C58	C	1.696690	0.473979	0.499948
C59	C	1.198920	0.078862	-0.000045
C60	C	1.698920	0.578862	0.499955
C61	C	1.380832	0.472796	-0.000057
C62	C	1.880832	0.972796	0.499943
C63	C	1.493192	0.503364	-0.000068
C64	C	1.993192	1.003364	0.499932
C65	C	1.188723	0.598979	-0.000062
C66	C	1.688723	1.098979	0.499938
C67	C	1.190907	0.701915	-0.000071
C68	C	1.690907	1.201915	0.499929
N69	N	1.137693	0.470307	0.281801
N70	N	1.637693	0.970307	0.781801
N71	N	1.253924	0.394058	-0.281899
N72	N	1.753924	0.894058	0.218101
C73	C	1.335480	0.340531	0.655758
C74	C	1.835480	0.840531	1.155758
C75	C	1.361172	0.323670	0.531097
C76	C	1.861172	0.823670	1.031097
C77	C	1.305304	0.360328	0.468767
C78	C	1.805304	0.860328	0.968767
C79	C	1.223741	0.413850	0.531110
C80	C	1.723741	0.913850	1.031110
C81	C	1.198052	0.430719	0.655783
C82	C	1.698052	0.930719	1.155783
C83	C	1.167876	0.450515	0.468792
C84	C	1.667876	0.950515	0.968792
C85	C	1.086313	0.504037	0.531135
C86	C	1.586313	1.004037	1.031135
C87	C	1.060628	0.520903	0.655795
C88	C	1.560628	1.020903	1.155795
C89	C	1.116496	0.484245	0.718126
C90	C	1.616496	0.984245	1.218126
C91	C	1.193565	0.433646	0.344119
C92	C	1.693565	0.933646	0.844119
C93	C	1.056137	0.523834	0.344144
C94	C	1.556137	1.023834	0.844144
C95	C	1.030445	0.540695	0.468805
C96	C	1.530445	1.040695	0.968805
H97	H	0.672904	0.705029	-0.000109
H98	H	1.172904	1.205029	0.499891
H99	H	0.718688	0.159335	-0.000019
H100	H	1.218688	0.659335	0.499981
H101	H	0.964035	0.584274	0.519580
H102	H	1.464035	1.084274	1.019580
H103	H	1.427580	0.280094	0.480342
H104	H	1.927580	0.780094	0.980342
C105	C	1.004891	0.663128	0.305757
C106	C	1.504891	1.163128	0.805757
C107	C	0.994719	0.564134	0.275644
C108	C	1.494719	1.064134	0.775644
H109	H	0.966984	0.688006	0.263456
H110	H	1.466984	1.188006	0.763456
H111	H	0.977919	0.680827	0.388915
H112	H	1.477919	1.180827	0.888915
H113	H	1.076669	0.687688	0.285301
H114	H	1.576669	1.187688	0.785301
H115	H	0.922941	0.539574	0.296108
H116	H	1.422941	1.039574	0.796108
H117	H	1.021687	0.546427	0.192468
H118	H	1.521687	1.046427	0.692468
C119	C	0.931359	0.122727	-0.101830
C120	C	1.431359	0.622727	0.398170
C121	C	0.928659	0.192462	-0.000019
C122	C	1.428659	0.692462	0.499981
H123	H	0.975270	0.077535	-0.101827
H124	H	1.475270	0.577535	0.398173
H125	H	0.862644	0.091980	-0.101822
H126	H	1.362644	0.591980	0.398178
H127	H	0.958011	0.151374	-0.170889
H128	H	1.458011	0.651374	0.329111
H129	H	0.901999	0.163816	0.069041
H130	H	1.401999	0.663816	0.569041
H131	H	0.997387	0.223212	-0.000016
H132	H	1.497387	0.723212	0.499984
H133	H	0.866995	0.505227	-0.000061
H134	H	1.366995	1.005227	0.499939
C135	C	0.883043	0.544109	-0.101879
C136	C	1.383043	1.044109	0.398121
C137	C	0.820372	0.592389	-0.000076
C138	C	1.320372	1.092389	0.499924
H139	H	0.954682	0.563612	-0.101878
H140	H	1.454682	1.063612	0.398122
H141	H	0.867962	0.477814	-0.101858
H142	H	1.367962	0.977814	0.398142
H143	H	0.868997	0.558174	-0.170943
H144	H	1.368997	1.058174	0.329057
H145	H	0.834412	0.578318	0.068989
H146	H	1.334412	1.078318	0.568989
H147	H	0.835458	0.658699	-0.000086
H148	H	1.335458	1.158699	0.499914
H149	H	0.481377	0.652905	-0.000097
H150	H	0.981377	1.152905	0.499903
H151	H	1.095575	0.497970	0.819635
H152	H	1.595575	0.997970	1.319635
H153	H	1.380966	0.310695	0.706515
H154	H	1.880966	0.810695	1.206515
H155	H	0.548441	0.197207	-0.000035
H156	H	1.048441	0.697207	0.499965
H157	H	0.431050	0.318049	-0.000042
H158	H	0.931050	0.818049	0.499958
H159	H	0.994223	0.564492	0.706555
H160	H	1.494223	1.064492	1.206555
H161	H	1.259973	0.390069	0.293371
H162	H	1.759973	0.890069	0.793371
C163	C	1.416917	0.287062	0.290180
C164	C	1.916917	0.787062	0.790180
C165	C	1.333534	0.341785	0.331738
C166	C	1.833534	0.841785	0.831738
H167	H	1.434339	0.275607	0.205580
H168	H	1.934339	0.775607	0.705580
H169	H	1.475806	0.320097	0.318355
H170	H	1.975806	0.820097	0.818355
H171	H	1.397146	0.228362	0.318406
H172	H	1.897146	0.728362	0.818406
H173	H	1.353308	0.400489	0.303518
H174	H	1.853308	0.900489	0.803518
H175	H	1.274633	0.308751	0.303550
H176	H	1.774633	0.808751	0.803550
