data_functionalizedCrystal
_audit_creation_method	'MofGen! by Chris Wilmer'
_symmetry_space_group_name_H-M	'P1'
_symmetry_Int_Tables_number	1
_symmetry_cell_setting	triclinic
loop_
_symmetry_equiv_pos_as_xyz
  x,y,z
_cell_length_a	18.215407
_cell_length_b	13.897447
_cell_length_c	18.215399
_cell_angle_alpha	89.974944
_cell_angle_beta	89.983101
_cell_angle_gamma	90.016989
loop_
_atom_site_label
_atom_site_type_symbol
_atom_site_fract_x
_atom_site_fract_y
_atom_site_fract_z
Zn1	Zn	1.125099	-0.384090	-0.416073
Zn2	Zn	1.125019	-0.545400	-0.293013
Zn3	Zn	1.002032	-0.384113	-0.293027
Zn4	Zn	1.002009	-0.545338	-0.416044
O5	O	1.063540	-0.464735	-0.354539
O6	O	1.228073	-0.405505	-0.399755
O7	O	1.108681	-0.524041	-0.190030
O8	O	1.018400	-0.249129	-0.309367
O9	O	1.228014	-0.524018	-0.309343
O10	O	1.108817	-0.249112	-0.399769
O11	O	1.018322	-0.405544	-0.190041
O12	O	0.899045	-0.405484	-0.309339
O13	O	1.018361	-0.523912	-0.519032
O14	O	0.899028	-0.523935	-0.399719
O15	O	1.108795	-0.405444	-0.519054
O16	O	1.108659	-0.680373	-0.309315
O17	O	1.018284	-0.680328	-0.399706
C18	C	0.872334	-0.464706	-0.354528
C19	C	0.790535	-0.464716	-0.354541
C20	C	1.063480	-0.715350	-0.354522
C21	C	1.063522	-0.822564	-0.354539
C22	C	0.525488	-0.526514	-0.401536
C23	C	0.602347	-0.526506	-0.401532
C24	C	0.602333	-0.402978	-0.307556
C25	C	0.525476	-0.402992	-0.307556
C26	C	0.487055	-0.464758	-0.354550
C27	C	0.640771	-0.464736	-0.354546
C28	C	0.724105	-0.464727	-0.354542
C29	C	0.403716	-0.464769	-0.354554
C30	C	1.063557	-0.909633	-0.354556
C31	C	1.063609	-1.018866	-0.354575
C32	C	1.255493	-0.464766	-0.354551
C33	C	1.337292	-0.464779	-0.354556
C34	C	1.063585	-0.464669	-0.546492
C35	C	1.063604	-0.464640	-0.628291
C36	C	1.063620	-0.213142	-0.354572
C37	C	1.063654	-0.105928	-0.354587
C38	C	1.110710	-0.402897	-0.816497
C39	C	1.110718	-0.402868	-0.893356
C40	C	1.016550	-0.526235	-0.893323
C41	C	1.016538	-0.526258	-0.816465
C42	C	1.063622	-0.464590	-0.778055
C43	C	1.063643	-0.464539	-0.931771
C44	C	1.063652	-0.464509	-1.015105
C45	C	1.063612	-0.464618	-0.694716
C46	C	1.063538	-0.464732	-0.163333
C47	C	1.063661	-0.464489	-0.081534
H48	H	0.633635	-0.576794	-0.439792
H49	H	0.494208	-0.576809	-0.439801
C50	C	0.644598	-0.335032	-0.255873
H51	H	0.695877	-0.343860	-0.262607
H52	H	0.631988	-0.349067	-0.206408
H53	H	0.632011	-0.270239	-0.266733
H54	H	0.494183	-0.352702	-0.269291
C55	C	1.162490	-0.335053	-0.774248
H56	H	1.190529	-0.298300	-0.808154
H57	H	1.194543	-0.371956	-0.744262
H58	H	1.134337	-0.293029	-0.744272
C59	C	1.162518	-0.335010	-0.935640
H60	H	1.190560	-0.298294	-0.901754
H61	H	1.134387	-0.292967	-0.965625
H62	H	1.194579	-0.371912	-0.965620
H63	H	0.978218	-0.576445	-0.924606
C64	C	0.964744	-0.594130	-0.774176
H65	H	0.936713	-0.630865	-0.808058
H66	H	0.932685	-0.557240	-0.744193
H67	H	0.992888	-0.636170	-0.744193
