data_functionalizedCrystal
_audit_creation_method	'MofGen! by Chris Wilmer'
_symmetry_space_group_name_H-M	'P1'
_symmetry_Int_Tables_number	1
_symmetry_cell_setting	triclinic
loop_
_symmetry_equiv_pos_as_xyz
  x,y,z
_cell_length_a	14.519731
_cell_length_b	12.996460
_cell_length_c	10.723024
_cell_angle_alpha	89.999097
_cell_angle_beta	84.078361
_cell_angle_gamma	90.006310
loop_
_atom_site_label
_atom_site_type_symbol
_atom_site_fract_x
_atom_site_fract_y
_atom_site_fract_z
O1	O	1.224694	0.085566	0.163692
O2	O	1.724694	0.585566	0.663692
O3	O	0.956318	0.085568	0.182928
O4	O	1.456318	0.585568	0.682928
O5	O	1.096697	0.085563	-0.008323
O6	O	1.596697	0.585563	0.491677
O7	O	1.084316	0.085571	0.354944
O8	O	1.584316	0.585571	0.854944
O9	O	1.096679	-0.085571	-0.008312
O10	O	1.596679	0.414429	0.491688
O11	O	0.956300	-0.085566	0.182939
O12	O	1.456300	0.414434	0.682939
O13	O	1.224676	-0.085567	0.163704
O14	O	1.724676	0.414433	0.663704
Cu15	Cu	1.090487	-0.101193	0.173322
Cu16	Cu	1.590487	0.398807	0.673322
Cu17	Cu	1.090508	0.101193	0.173309
Cu18	Cu	1.590508	0.601193	0.673309
O19	O	1.084298	-0.085563	0.354955
O20	O	1.584298	0.414437	0.854955
C21	C	0.921945	0.000001	0.182032
C22	C	1.421945	0.500001	0.682032
C23	C	0.819551	0.000001	0.179331
C24	C	1.319551	0.500001	0.679331
C25	C	0.736396	0.000006	0.177137
C26	C	1.236396	0.500006	0.677137
C27	C	0.632073	0.000006	0.174395
C28	C	1.132073	0.500006	0.674395
C29	C	0.548923	0.000006	0.172218
C30	C	1.048923	0.500006	0.672218
C31	C	0.444594	0.000008	0.169476
C32	C	0.944594	0.500008	0.669476
N33	N	1.090478	-0.243540	0.173331
N34	N	1.590478	0.256460	0.673331
C35	C	1.090483	-0.336646	0.173334
C36	C	1.590483	0.163354	0.673334
C37	C	1.090491	-0.453451	0.173325
C38	C	1.590491	0.046549	0.673325
C39	C	1.090502	-0.546549	0.173312
C40	C	1.590502	-0.046549	0.673312
C41	C	1.090512	-0.663362	0.173305
C42	C	1.590512	-0.163362	0.673305
C43	C	1.259049	0.000002	0.164599
C44	C	1.759049	0.500002	0.664599
C45	C	1.361443	0.000008	0.167300
C46	C	1.861443	0.500008	0.667300
C47	C	1.095787	-0.000003	-0.054809
C48	C	1.595787	0.499997	0.445191
C49	C	1.093091	0.000001	-0.193338
C50	C	1.593091	0.500001	0.306662
N51	N	1.090524	0.243540	0.173291
N52	N	1.590524	0.743540	0.673291
C53	C	1.171640	0.000002	-0.269047
C54	C	1.671640	0.500002	0.230953
C55	C	1.168855	0.000006	-0.412225
C56	C	1.668855	0.500006	0.087775
C57	C	1.085208	0.000005	0.401440
C58	C	1.585208	0.500005	0.901440
C59	C	1.087904	0.000008	0.539970
C60	C	1.587904	0.500008	1.039970
H61	H	1.240949	-0.000004	-0.227866
H62	H	1.740949	0.499996	0.272134
H63	H	1.236099	0.000002	-0.477280
H64	H	1.736099	0.500002	0.022720
H65	H	1.020656	0.000000	-0.394983
H66	H	1.520656	0.500000	0.105017
H67	H	1.023782	0.000008	-0.234520
H68	H	1.523782	0.500008	0.265480
