data_functionalizedCrystal
_audit_creation_method	'MofGen! by Chris Wilmer'
_symmetry_space_group_name_H-M	'P1'
_symmetry_Int_Tables_number	1
_symmetry_cell_setting	triclinic
loop_
_symmetry_equiv_pos_as_xyz
  x,y,z
_cell_length_a	16.625547
_cell_length_b	12.759395
_cell_length_c	12.759387
_cell_angle_alpha	89.979491
_cell_angle_beta	90.024633
_cell_angle_gamma	89.994264
loop_
_atom_site_label
_atom_site_type_symbol
_atom_site_fract_x
_atom_site_fract_y
_atom_site_fract_z
Zn1	Zn	0.320926	1.606345	-0.594050
Zn2	Zn	0.820926	2.106345	-0.094050
Zn3	Zn	0.455781	1.606268	-0.418390
Zn4	Zn	0.955781	2.106268	0.081610
Zn5	Zn	0.320970	1.430644	-0.418387
Zn6	Zn	0.820970	1.930644	0.081613
Zn7	Zn	0.455724	1.430668	-0.594029
Zn8	Zn	0.955724	1.930668	-0.094029
O9	O	0.388350	1.518481	-0.506214
O10	O	0.888350	2.018481	-0.006214
O11	O	0.338820	1.753356	-0.570758
O12	O	0.838820	2.253356	-0.070758
O13	O	0.437941	1.582929	-0.271368
O14	O	0.937941	2.082929	0.228632
O15	O	0.208132	1.453973	-0.441697
O16	O	0.708132	1.953973	0.058303
O17	O	0.437898	1.753299	-0.441701
O18	O	0.937898	2.253299	0.058299
O19	O	0.208099	1.583060	-0.570756
O20	O	0.708099	2.083060	-0.070756
O21	O	0.338895	1.453898	-0.271366
O22	O	0.838895	1.953898	0.228634
O23	O	0.338840	1.283626	-0.441676
O24	O	0.838840	1.783626	0.058324
O25	O	0.437800	1.454015	-0.741053
O26	O	0.937800	1.954015	-0.241053
O27	O	0.437843	1.283644	-0.570719
O28	O	0.937843	1.783644	-0.070719
O29	O	0.338765	1.583084	-0.741068
O30	O	0.838765	2.083084	-0.241068
O31	O	0.568606	1.582952	-0.441680
O32	O	1.068606	2.082952	0.058320
O33	O	0.568564	1.453940	-0.570722
O34	O	1.068564	1.953940	-0.070722
C35	C	0.388340	1.245514	-0.506196
C36	C	0.888340	1.745514	-0.006196
C37	C	0.388356	1.128737	-0.506213
C38	C	0.888356	1.628737	-0.006213
C39	C	0.178041	1.518522	-0.506229
C40	C	0.678041	2.018522	-0.006229
C41	C	0.088420	1.518540	-0.506235
C42	C	0.588420	2.018540	-0.006235
C43	C	0.491614	1.128794	-0.640368
C44	C	0.991614	1.628794	-0.140368
C45	C	0.543250	1.073962	-0.707449
C46	C	1.043250	1.573962	-0.207449
C47	C	0.543260	0.964241	-0.707462
C48	C	1.043260	1.464241	-0.207462
C49	C	0.491627	0.909349	-0.640389
C50	C	0.991627	1.409349	-0.140389
C51	C	0.439991	0.964181	-0.573308
C52	C	0.939991	1.464181	-0.073308
C53	C	0.439989	1.073905	-0.573300
C54	C	0.939989	1.573905	-0.073300
C55	C	0.336729	0.964123	-0.439160
C56	C	0.836729	1.464123	0.060840
C57	C	0.336722	1.073845	-0.439140
C58	C	0.836722	1.573845	0.060860
C59	C	0.285096	0.909231	-0.372087
C60	C	0.785096	1.409231	0.127913
C61	C	0.233463	0.964064	-0.305000
C62	C	0.733463	1.464064	0.195000
C63	C	0.233456	1.073792	-0.304989
C64	C	0.733456	1.573792	0.195011
C65	C	0.285087	1.128677	-0.372060
C66	C	0.785087	1.628677	0.127940
C67	C	0.015638	1.518552	-0.506244
C68	C	0.515638	2.018552	-0.006244
C69	C	-0.075671	1.518557	-0.506252
C70	C	0.424329	2.018557	-0.006252
C71	C	-0.148447	1.518555	-0.506253
C72	C	0.351553	2.018555	-0.006253
C73	C	-0.239761	1.518561	-0.506259
C74	C	0.260239	2.018561	-0.006259
C75	C	0.597841	1.518469	-0.506222
C76	C	1.097841	2.018469	-0.006222
C77	C	0.687462	1.518560	-0.506261
C78	C	1.187462	2.018560	-0.006261
C79	C	0.388271	1.518561	-0.780247
C80	C	0.888271	2.018561	-0.280247
C81	C	0.388238	1.518594	-0.897024
C82	C	0.888238	2.018594	-0.397024
C83	C	0.388361	1.792515	-0.506233
C84	C	0.888361	2.292515	-0.006233
C85	C	0.388365	1.909291	-0.506241
C86	C	0.888365	2.409291	-0.006241
C87	C	0.285119	1.653003	-0.897060
C88	C	0.785119	2.153003	-0.397060
C89	C	0.233547	1.720223	-0.951939
C90	C	0.733547	2.220223	-0.451939
C91	C	0.233518	1.720248	-1.061661
C92	C	0.733518	2.220248	-0.561661
C93	C	0.285064	1.653045	-1.116506
C94	C	0.785064	2.153045	-0.616506
C95	C	0.336635	1.585826	-1.061627
C96	C	0.836635	2.085826	-0.561627
C97	C	0.336661	1.585810	-0.951903
C98	C	0.836661	2.085810	-0.451903
C99	C	0.439749	1.451413	-1.061591
C100	C	0.939749	1.951413	-0.561591
C101	C	0.439783	1.451391	-0.951869
C102	C	0.939783	1.951391	-0.451869
C103	C	0.491295	1.384210	-1.116436
C104	C	0.991295	1.884210	-0.616436
C105	C	0.542872	1.316995	-1.061557
C106	C	1.042872	1.816995	-0.561557
C107	C	0.542899	1.316973	-0.951829
C108	C	1.042899	1.816973	-0.451829
C109	C	0.491355	1.384172	-0.896990
C110	C	0.991355	1.884172	-0.396990
C111	C	0.388371	1.518463	-0.233246
C112	C	0.888371	2.018463	0.266754
C113	C	0.388177	1.518632	-0.116470
C114	C	0.888177	2.018632	0.383530
H115	H	0.491618	1.218136	-0.640357
H116	H	0.991618	1.718136	-0.140357
H117	H	0.191424	0.919362	-0.250399
H118	H	0.691424	1.419362	0.249601
H119	H	0.491632	0.820008	-0.640414
H120	H	0.991632	1.320008	-0.140414
H121	H	0.191519	1.774977	-1.106343
H122	H	0.691519	2.274977	-0.606343
H123	H	0.585287	1.118668	-0.762060
H124	H	1.085287	1.618668	-0.262060
H125	H	0.285028	1.653063	-1.205848
H126	H	0.785028	2.153063	-0.705848
H127	H	0.491264	1.384232	-1.205778
H128	H	0.991264	1.884232	-0.705778
H129	H	0.585302	0.919597	-0.762090
H130	H	1.085302	1.419597	-0.262090
H131	H	0.285105	0.819890	-0.372107
H132	H	0.785105	1.319890	0.127893
H133	H	0.191578	1.774936	-0.907272
H134	H	0.691578	2.274936	-0.407272
H135	H	0.584832	1.262278	-1.106221
H136	H	1.084832	1.762278	-0.606221
H137	H	0.191402	1.118430	-0.250371
H138	H	0.691402	1.618430	0.249629
H139	H	0.584887	1.262223	-0.907153
H140	H	1.084887	1.762223	-0.407153
H141	H	0.285088	1.218018	-0.372054
H142	H	0.785088	1.718018	0.127946
H143	H	0.285145	1.652999	-0.807719
H144	H	0.785145	2.152999	-0.307719
H145	H	0.491376	1.384165	-0.807649
H146	H	0.991376	1.884165	-0.307649
