data_functionalizedCrystal
_audit_creation_method	'MofGen! by Chris Wilmer'
_symmetry_space_group_name_H-M	'P1'
_symmetry_Int_Tables_number	1
_symmetry_cell_setting	triclinic
loop_
_symmetry_equiv_pos_as_xyz
  x,y,z
_cell_length_a	18.215407
_cell_length_b	14.908520
_cell_length_c	18.215399
_cell_angle_alpha	93.269364
_cell_angle_beta	89.980167
_cell_angle_gamma	93.321174
loop_
_atom_site_label
_atom_site_type_symbol
_atom_site_fract_x
_atom_site_fract_y
_atom_site_fract_z
Zn1	Zn	1.108178	-0.359158	-0.433017
Zn2	Zn	1.100989	-0.510027	-0.317051
Zn3	Zn	0.985109	-0.359188	-0.309966
Zn4	Zn	0.977982	-0.509977	-0.440073
O5	O	1.043064	-0.434588	-0.375027
O6	O	1.210208	-0.379180	-0.417646
O7	O	1.085592	-0.490052	-0.213128
O8	O	1.007425	-0.232939	-0.320371
O9	O	1.204927	-0.490023	-0.332446
O10	O	1.097843	-0.232917	-0.410776
O11	O	1.000455	-0.379230	-0.207923
O12	O	0.881180	-0.379182	-0.327213
O13	O	0.995278	-0.489937	-0.542120
O14	O	0.875943	-0.489966	-0.422802
O15	O	1.090932	-0.379131	-0.536936
O16	O	1.078681	-0.636266	-0.339288
O17	O	0.988308	-0.636229	-0.429672
C18	C	0.851859	-0.434572	-0.375005
C19	C	0.770059	-0.434587	-0.375014
C20	C	0.579154	-0.492363	-0.424733
C21	C	0.502295	-0.492366	-0.424742
C22	C	0.507726	-0.376828	-0.325338
C23	C	0.584584	-0.376822	-0.325333
C24	C	0.620295	-0.434594	-0.375029
C25	C	0.466579	-0.434604	-0.375044
C26	C	0.383245	-0.434606	-0.375053
C27	C	0.703635	-0.434591	-0.375021
C28	C	1.031961	-0.668981	-0.386030
C29	C	1.027278	-0.769256	-0.390762
C30	C	1.112681	-0.957660	-0.305613
C31	C	1.108284	-1.051877	-0.310057
C32	C	1.014091	-1.051908	-0.404097
C33	C	1.018488	-0.957691	-0.399653
C34	C	1.067784	-0.910570	-0.350409
C35	C	1.072177	-0.816352	-0.345962
C36	C	0.977988	-0.816385	-0.440005
C37	C	0.973591	-0.910602	-0.444449
C38	C	1.235017	-0.434604	-0.375049
C39	C	1.316815	-0.434611	-0.375059
C40	C	1.043112	-0.434526	-0.566977
C41	C	1.043133	-0.434499	-0.648775
C42	C	1.054231	-0.199279	-0.363996
C43	C	1.058990	-0.099004	-0.359296
C44	C	1.092959	-0.376748	-0.834268
C45	C	1.092969	-0.376722	-0.911126
C46	C	0.993364	-0.492110	-0.916513
C47	C	0.993351	-0.492131	-0.839656
C48	C	1.043153	-0.434452	-0.798536
C49	C	1.043176	-0.434404	-0.952250
C50	C	1.043186	-0.434376	-1.035582
C51	C	1.043142	-0.434478	-0.715198
C52	C	1.043062	-0.434585	-0.183820
C53	C	1.043196	-0.434357	-0.102011
H54	H	0.468801	-0.539406	-0.465216
H55	H	0.952788	-0.539119	-0.810563
N56	N	0.628970	-0.314517	-0.271722
H57	H	0.662846	-0.272756	-0.299726
H58	H	0.594642	-0.277981	-0.240246
N59	N	0.939662	-0.554317	-0.960877
H60	H	0.948029	-0.618782	-0.950527
H61	H	0.887764	-0.540231	-0.946821
N62	N	0.617669	-0.554673	-0.478334
H63	H	0.604976	-0.540741	-0.530281
H64	H	0.672589	-0.545879	-0.470725
N65	N	0.469207	-0.314543	-0.271721
H66	H	0.414275	-0.323321	-0.279258
H67	H	0.481970	-0.328525	-0.219805
N68	N	0.960927	-1.102738	-0.457208
H69	H	0.988995	-1.141767	-0.493181
H70	H	0.925030	-1.141840	-0.429058
H71	H	1.112315	-0.777987	-0.305863
H72	H	1.133525	-0.329733	-0.940215
H73	H	1.152815	-0.919293	-0.265511
H74	H	1.144846	-1.090213	-0.273581
N75	N	1.146673	-0.314539	-0.789919
H76	H	1.179035	-0.351218	-0.759762
H77	H	1.178175	-0.277999	-0.824272
N78	N	0.920421	-0.961423	-0.497558
H79	H	0.948481	-1.000456	-0.533536
H80	H	0.884522	-1.000521	-0.469407
N81	N	0.929554	-0.765597	-0.488320
H82	H	0.939817	-0.698760	-0.478033
H83	H	0.940207	-0.782010	-0.541666
