data_functionalizedCrystal
_audit_creation_method	'MofGen! by Chris Wilmer'
_symmetry_space_group_name_H-M	'P1'
_symmetry_Int_Tables_number	1
_symmetry_cell_setting	triclinic
loop_
_symmetry_equiv_pos_as_xyz
  x,y,z
_cell_length_a	16.109318
_cell_length_b	10.540539
_cell_length_c	14.586319
_cell_angle_alpha	89.998343
_cell_angle_beta	90.000075
_cell_angle_gamma	83.997027
loop_
_atom_site_label
_atom_site_type_symbol
_atom_site_fract_x
_atom_site_fract_y
_atom_site_fract_z
O1	O	1.104120	0.163264	-0.076160
O2	O	0.862184	0.183546	-0.076178
O3	O	0.988672	-0.011380	-0.076167
O4	O	0.977633	0.358189	-0.076170
O5	O	0.988663	-0.011383	0.076314
O6	O	0.862175	0.183543	0.076303
O7	O	1.104111	0.163261	0.076321
Cu8	Cu	0.983142	0.173401	0.090235
Cu9	Cu	0.983153	0.173405	-0.090091
O10	O	0.977624	0.358186	0.076311
C11	C	0.831200	0.182719	0.000060
C12	C	0.738890	0.180244	0.000053
C13	C	0.987839	-0.058673	0.000072
C14	C	0.985363	-0.199586	0.000066
C15	C	0.439773	0.172253	-0.083048
C16	C	0.526508	0.174570	-0.083053
C17	C	0.526517	0.174549	0.083190
C18	C	0.439784	0.172224	0.083194
C19	C	0.396413	0.171082	0.000073
C20	C	0.569882	0.175724	0.000063
C21	C	0.663924	0.178236	0.000057
C22	C	0.302365	0.168567	0.000078
C23	C	0.890454	-0.381669	-0.000283
C24	C	0.892964	-0.235086	0.000061
C25	C	1.029824	-0.261875	0.087144
C26	C	1.026670	-0.408375	0.087217
C27	C	1.028560	-0.408916	-0.086182
C28	C	1.029411	-0.261946	-0.087333
C29	C	1.135095	0.164088	0.000081
C30	C	1.227405	0.166562	0.000082
C31	C	0.978456	0.405479	0.000070
C32	C	0.980933	0.546392	0.000069
N33	N	0.983141	0.173398	0.217067
N34	N	0.983161	0.173398	-0.216923
C35	C	1.039169	0.087114	0.452078
C36	C	1.039171	0.087111	0.548059
C37	C	0.927127	0.259686	0.548059
C38	C	0.927122	0.259682	0.452080
C39	C	0.983147	0.173398	0.404091
C40	C	0.983155	0.173399	0.596052
C41	C	0.983157	0.173396	0.700119
C42	C	0.983144	0.173398	0.300018
H43	H	0.404463	0.171322	-0.150731
H44	H	0.996879	-0.220626	-0.151751
H45	H	1.084787	0.016854	0.413008
Cl46	Cl	0.982129	-0.195439	0.187186
Cl47	Cl	0.581014	0.176037	-0.187553
H48	H	0.561840	0.175481	0.150864
Cl49	Cl	1.109600	-0.021367	0.608382
Cl50	Cl	0.838949	-0.168537	-0.096311
H51	H	0.881514	0.329939	0.587141
H52	H	0.404480	0.171269	0.150885
Cl53	Cl	0.838558	-0.169839	0.096584
Cl54	Cl	0.856685	0.368155	0.391748
H55	H	0.998659	-0.440044	-0.152181
Cl56	Cl	1.134587	-0.228849	0.092156
H57	H	0.853958	-0.409751	-0.062728
Cl58	Cl	0.975923	-0.451201	0.187703
H59	H	0.854099	-0.411362	0.061807
Cl60	Cl	1.129262	-0.483893	0.093337
H61	H	1.096776	-0.238679	-0.092586
H62	H	1.095299	-0.457087	-0.086763
