data_functionalizedCrystal
_audit_creation_method	'MofGen! by Chris Wilmer'
_symmetry_space_group_name_H-M	'P1'
_symmetry_Int_Tables_number	1
_symmetry_cell_setting	triclinic
loop_
_symmetry_equiv_pos_as_xyz
  x,y,z
_cell_length_a	10.723023
_cell_length_b	23.532407
_cell_length_c	9.798715
_cell_angle_alpha	89.995833
_cell_angle_beta	89.997007
_cell_angle_gamma	96.341888
loop_
_atom_site_label
_atom_site_type_symbol
_atom_site_fract_x
_atom_site_fract_y
_atom_site_fract_z
O1	O	1.654699	-0.079869	-0.113452
O2	O	1.291309	-0.087515	-0.113455
O3	O	1.483962	-0.000831	-0.113471
O4	O	1.462046	-0.166552	-0.113436
O5	O	1.483949	-0.000830	0.113512
O6	O	1.291295	-0.087514	0.113527
O7	O	1.654686	-0.079868	0.113530
Zn8	Zn	1.472989	-0.083691	0.149567
Zn9	Zn	1.473006	-0.083692	-0.149492
O10	O	1.462033	-0.166552	0.113546
C11	C	1.244820	-0.086958	0.000035
C12	C	1.106317	-0.085293	0.000033
C13	C	0.901433	-0.082832	-0.117552
C14	C	1.044583	-0.084552	-0.117552
C15	C	1.462597	-0.187772	0.000059
C16	C	1.464275	-0.251000	0.000072
C17	C	1.360791	-0.649431	0.000001
C18	C	1.362350	-0.708842	-0.000008
O19	O	1.266419	-0.744964	-0.000060
N20	N	1.476882	-0.732211	-0.000006
C21	C	1.589863	-0.696166	-0.000007
O22	O	1.687425	-0.721499	-0.000007
C23	C	1.588303	-0.636757	-0.000007
C24	C	1.473764	-0.613391	0.000004
C25	C	1.246261	-0.626065	0.000011
C26	C	1.244703	-0.566659	0.000023
C27	C	1.357675	-0.530619	0.000025
C28	C	1.472205	-0.553985	0.000016
C29	C	1.701283	-0.600714	-0.000019
C30	C	1.699713	-0.541301	-0.000020
C31	C	1.585173	-0.517935	-0.000009
C32	C	1.583620	-0.458539	0.000030
N33	N	1.469087	-0.435170	0.000028
C34	C	1.356115	-0.471210	0.000025
C35	C	1.593131	-0.820930	-0.000009
C36	C	1.594692	-0.880338	0.000001
C37	C	1.367178	-0.893009	-0.000003
C38	C	1.365618	-0.833600	-0.000003
C39	C	1.478599	-0.797561	-0.000012
C40	C	1.352851	-0.346452	0.000052
C41	C	1.351303	-0.287040	0.000069
C42	C	1.578816	-0.274373	0.000066
C43	C	1.580365	-0.333780	0.000056
C44	C	1.467372	-0.369818	0.000044
O45	O	1.679500	-0.422382	0.000076
O46	O	1.258569	-0.445869	0.000007
C47	C	1.701175	-0.080425	0.000037
C48	C	1.839677	-0.082089	0.000031
C49	C	1.483397	0.020389	0.000013
C50	C	1.481719	0.083617	-0.000009
N51	N	1.472986	-0.083690	0.353667
N52	N	1.473019	-0.083688	-0.353592
C53	C	1.554076	-0.047215	0.578592
C54	C	1.554059	-0.047216	0.421429
H55	H	1.097690	-0.085194	-0.218218
C56	C	1.818177	-0.814382	0.000018
C57	C	1.717331	-0.781317	0.000008
H58	H	1.894850	-0.789928	0.000036
H59	H	1.814057	-0.837811	-0.079134
H60	H	1.814026	-0.837823	0.079174
H61	H	1.721477	-0.757879	-0.079154
H62	H	1.721453	-0.757878	0.079168
H63	H	1.053216	-0.084658	0.100704
C64	C	1.147591	-0.722759	0.000006
C65	C	1.122067	-0.665675	0.000008
H66	H	1.070912	-0.747209	0.000002
H67	H	1.194572	-0.729895	0.079152
H68	H	1.194583	-0.729889	-0.079156
H69	H	1.075083	-0.658544	0.079175
H70	H	1.075067	-0.658536	-0.079147
C71	C	1.000824	-0.034981	0.143372
C72	C	0.911358	-0.082950	0.135934
H73	H	1.045078	-0.035515	0.227273
H74	H	0.959972	-0.001227	0.138301
H75	H	1.058110	-0.035675	0.069594
H76	H	0.854066	-0.082253	0.209707
H77	H	0.952212	-0.116712	0.141019
C78	C	0.701818	-0.080435	-0.227150
C79	C	0.829754	-0.081972	-0.253457
H80	H	0.657571	-0.079908	-0.311057
H81	H	0.690482	-0.047030	-0.176300
H82	H	0.670634	-0.113332	-0.176271
H83	H	0.860940	-0.049073	-0.304328
H84	H	0.841098	-0.115380	-0.304329
H85	H	1.258027	-0.268019	0.000085
C86	C	1.628460	0.051056	0.622825
C87	C	1.647771	-0.005055	0.657273
H88	H	1.686309	0.077085	0.671395
H89	H	1.545248	0.057558	0.646190
H90	H	1.640750	0.056580	0.527529
H91	H	1.635472	-0.010580	0.752568
H92	H	1.731003	-0.011559	0.633918
H93	H	1.687962	-0.899357	0.000013
H94	H	1.794553	-0.619727	-0.000029
C95	C	1.141259	-0.481223	0.000014
C96	C	1.118797	-0.540980	0.000012
H97	H	1.063524	-0.465374	0.000010
H98	H	1.187745	-0.468881	-0.079128
H99	H	1.187726	-0.468887	0.079180
H100	H	1.072337	-0.553316	-0.079159
H101	H	1.072291	-0.553326	0.079162
C102	C	1.127805	-0.352993	0.000067
C103	C	1.228649	-0.386059	0.000050
H104	H	1.051131	-0.377446	0.000080
H105	H	1.131937	-0.329555	-0.079080
H106	H	1.131949	-0.329560	0.079228
H107	H	1.224510	-0.409489	-0.079117
H108	H	1.224515	-0.409506	0.079204
H109	H	1.272350	-0.814580	0.000011
C110	C	1.772247	-0.245267	-0.116630
C111	C	1.702992	-0.234751	0.000061
H112	H	1.848911	-0.220806	-0.116634
H113	H	1.725244	-0.238133	-0.195761
H114	H	1.789571	-0.283993	-0.116617
H115	H	1.685661	-0.196026	0.000043
H116	H	1.750005	-0.241881	0.079213
H117	H	1.791718	-0.511960	-0.000034
H118	H	1.673633	-0.352805	0.000066
C119	C	1.268564	-0.989711	-0.000043
C120	C	1.242994	-0.932633	-0.000028
H121	H	1.191901	-1.014172	-0.000068
H122	H	1.315539	-0.996843	0.079110
H123	H	1.315577	-0.996827	-0.079198
H124	H	1.195988	-0.925515	0.079133
H125	H	1.195999	-0.925497	-0.079189
C126	C	1.770393	-0.014635	0.376985
C127	C	1.647693	-0.005058	0.342647
H128	H	1.828182	0.011396	0.328331
H129	H	1.783478	-0.052700	0.353649
H130	H	1.782737	-0.009086	0.472263
H131	H	1.635346	-0.010611	0.247369
H132	H	1.634603	0.033017	0.365973
H133	H	1.403581	-0.114916	0.411977
C134	C	1.445152	-0.161015	0.485564
C135	C	1.379316	-0.125846	0.567730
H136	H	1.387300	-0.187040	0.436989
H137	H	1.496790	-0.181729	0.541305
H138	H	1.496000	-0.138127	0.422658
H139	H	1.328474	-0.148735	0.630643
H140	H	1.327656	-0.105130	0.511984
