data_functionalizedCrystal
_audit_creation_method	'MofGen! by Chris Wilmer'
_symmetry_space_group_name_H-M	'P1'
_symmetry_Int_Tables_number	1
_symmetry_cell_setting	triclinic
loop_
_symmetry_equiv_pos_as_xyz
  x,y,z
_cell_length_a	19.077105
_cell_length_b	12.594516
_cell_length_c	19.077258
_cell_angle_alpha	92.303825
_cell_angle_beta	90.096589
_cell_angle_gamma	87.712633
loop_
_atom_site_label
_atom_site_type_symbol
_atom_site_fract_x
_atom_site_fract_y
_atom_site_fract_z
Zn1	Zn	1.058242	-0.461598	0.440451
Zn2	Zn	1.558242	0.038402	0.940451
Zn3	Zn	1.062919	-0.646964	0.322954
Zn4	Zn	1.562919	-0.146964	0.822954
Zn5	Zn	0.945480	-0.462137	0.318243
Zn6	Zn	1.445480	0.037863	0.818243
Zn7	Zn	0.940721	-0.632669	0.435707
Zn8	Zn	1.440721	-0.132669	0.935707
O9	O	1.001840	-0.550842	0.379339
O10	O	1.501840	-0.050842	0.879339
O11	O	1.157194	-0.491944	0.428821
O12	O	1.657194	0.008056	0.928821
O13	O	1.051289	-0.628654	0.223998
O14	O	1.551289	-0.128654	0.723998
O15	O	0.960473	-0.313121	0.334467
O16	O	1.460473	0.186879	0.834467
O17	O	1.160630	-0.628131	0.342498
O18	O	1.660630	-0.128131	0.842498
O19	O	1.043319	-0.312725	0.424253
O20	O	1.543319	0.187275	0.924253
O21	O	0.965007	-0.492863	0.220536
O22	O	1.465007	0.007137	0.720536
O23	O	0.846517	-0.479002	0.329868
O24	O	1.346517	0.020998	0.829868
O25	O	0.952361	-0.603768	0.534668
O26	O	1.452361	-0.103768	1.034668
O27	O	0.843020	-0.604291	0.416168
O28	O	1.343020	-0.104291	0.916168
O29	O	1.038704	-0.478083	0.538153
O30	O	1.538704	0.021917	1.038153
O31	O	1.046674	-0.794012	0.337898
O32	O	1.546674	-0.294012	0.837898
O33	O	0.956896	-0.783510	0.420737
O34	O	1.456896	-0.283510	0.920737
C35	C	0.819272	-0.540154	0.371992
C36	C	1.319272	-0.040154	0.871992
C37	C	0.741168	-0.535607	0.368866
C38	C	1.241168	-0.035607	0.868866
C39	C	0.702676	-0.598808	0.412259
C40	C	1.202676	-0.098808	0.912259
C41	C	0.629288	-0.594521	0.409325
C42	C	1.129288	-0.094521	0.909325
C43	C	0.594395	-0.527037	0.362995
C44	C	1.094395	-0.027037	0.862995
C45	C	0.632893	-0.463828	0.319600
C46	C	1.132893	0.036172	0.819600
C47	C	0.706279	-0.468110	0.322538
C48	C	1.206279	0.031890	0.822538
C49	C	0.375108	-0.507218	0.349401
C50	C	0.875108	-0.007218	0.849401
C51	C	0.301717	-0.502942	0.346464
C52	C	0.801717	-0.002942	0.846464
C53	C	0.298118	-0.633635	0.436191
C54	C	0.798118	-0.133635	0.936191
C55	C	0.371505	-0.637916	0.439122
C56	C	0.871505	-0.137916	0.939122
C57	C	0.409996	-0.574703	0.395730
C58	C	0.909996	-0.074703	0.895730
N59	N	0.519382	-0.522656	0.359993
N60	N	1.019382	-0.022656	0.859993
N61	N	0.485008	-0.579079	0.398736
N62	N	0.985008	-0.079079	0.898736
C63	C	1.001795	-0.827381	0.379330
C64	C	1.501795	-0.327381	0.879330
C65	C	1.001838	-0.945687	0.379352
C66	C	1.501838	-0.445687	0.879352
C67	C	0.953005	-1.009269	0.424375
C68	C	1.453005	-0.509269	0.924375
C69	C	0.938475	-1.083150	0.359570
C70	C	1.438475	-0.583150	0.859570
C71	C	1.016431	-1.082608	0.444171
C72	C	1.516431	-0.582608	0.944171
C73	C	0.987276	-1.018010	0.314512
C74	C	1.487276	-0.518010	0.814512
C75	C	1.065261	-1.017461	0.399158
C76	C	1.565261	-0.517461	0.899158
C77	C	1.050757	-1.091315	0.334309
C78	C	1.550757	-0.591315	0.834309
C79	C	1.185121	-0.561572	0.386714
C80	C	1.685121	-0.061572	0.886714
C81	C	1.263225	-0.566144	0.389857
C82	C	1.763225	-0.066144	0.889857
C83	C	0.994480	-0.539271	0.562620
C84	C	1.494480	-0.039271	1.062620
C85	C	0.991343	-0.534340	0.640723
C86	C	1.491343	-0.034340	1.140723
C87	C	1.001905	-0.273223	0.379364
C88	C	1.501905	0.226777	0.879364
C89	C	1.001932	-0.154919	0.379374
C90	C	1.501932	0.345081	0.879374
C91	C	1.034789	-0.602719	0.679221
C92	C	1.534789	-0.102719	1.179221
C93	C	1.031841	-0.598073	0.752608
C94	C	1.531841	-0.098073	1.252608
C95	C	0.985445	-0.525052	0.787495
C96	C	1.485445	-0.025052	1.287495
C97	C	0.941998	-0.456666	0.748991
C98	C	1.441998	0.043334	1.248991
C99	C	0.944949	-0.461307	0.675606
C100	C	1.444949	0.038693	1.175606
C101	C	0.971805	-0.503584	1.006779
C102	C	1.471805	-0.003584	1.506779
C103	C	0.968856	-0.498949	1.080169
C104	C	1.468856	0.001051	1.580169
C105	C	1.058700	-0.640355	1.083780
C106	C	1.558700	-0.140355	1.583780
C107	C	1.061644	-0.644995	1.010394
C108	C	1.561644	-0.144995	1.510394
C109	C	1.018200	-0.576605	0.971897
C110	C	1.518200	-0.076605	1.471897
N111	N	0.982430	-0.520303	0.862507
N112	N	1.482430	-0.020303	1.362507
N113	N	1.021219	-0.581349	0.896886
N114	N	1.521219	-0.081349	1.396886
C115	C	1.009166	-0.562393	1.196770
C116	C	1.509166	-0.062393	1.696770
C117	C	1.012301	-0.567328	1.118667
C118	C	1.512301	-0.067328	1.618667
H119	H	0.266770	-0.685098	0.471519
H120	H	0.766770	-0.185098	0.971519
Br121	Br	0.966667	-0.970770	0.223130
Br122	Br	1.466667	-0.470770	0.723130
Br123	Br	1.119662	-1.150730	0.270793
Br124	Br	1.619662	-0.650730	0.770793
H125	H	0.884884	-1.112115	0.342835
H126	H	1.384884	-0.612115	0.842835
H127	H	1.118839	-0.988496	0.415922
H128	H	1.618839	-0.488496	0.915922
H129	H	0.936427	-0.447900	0.975443
H130	H	1.436427	0.052100	1.475443
H131	H	1.099414	-0.704472	0.981993
H132	H	1.599414	-0.204472	1.481993
Br133	Br	0.758520	-0.382327	0.263649
Br134	Br	1.258520	0.117673	0.763649
Br135	Br	1.117658	-0.733164	1.136029
Br136	Br	1.617658	-0.233164	1.636029
H137	H	1.067219	-0.653754	0.783950
H138	H	1.567219	-0.153754	1.283950
Br139	Br	1.036940	-1.130076	0.535519
Br140	Br	1.536940	-0.630076	1.035519
Br141	Br	0.577050	-0.680297	0.468220
Br142	Br	1.077050	-0.180297	0.968220
H143	H	1.072572	-0.662177	0.650822
H144	H	1.572572	-0.162177	1.150822
Br145	Br	0.905914	-0.399800	1.127516
Br146	Br	1.405914	0.100200	1.627516
H147	H	0.904224	-0.397206	0.777402
H148	H	1.404224	0.102794	1.277402
Br149	Br	0.885990	-0.368497	0.623358
Br150	Br	1.385990	0.131503	1.123358
H151	H	0.399910	-0.692871	0.476847
H152	H	0.899910	-0.192871	0.976847
Br153	Br	0.750023	-0.690407	0.475134
Br154	Br	1.250023	-0.190407	0.975134
H155	H	0.406440	-0.455754	0.314062
H156	H	0.906440	0.044246	0.814062
H157	H	0.604477	-0.408876	0.281880
H158	H	1.104477	0.091124	0.781880
Br159	Br	0.254363	-0.411363	0.283575
Br160	Br	0.754363	0.088637	0.783575
Br161	Br	0.884064	-0.949531	0.487737
Br162	Br	1.384064	-0.449531	0.987737
