data_functionalizedCrystal
_audit_creation_method	'MofGen! by Chris Wilmer'
_symmetry_space_group_name_H-M	'P1'
_symmetry_Int_Tables_number	1
_symmetry_cell_setting	triclinic
loop_
_symmetry_equiv_pos_as_xyz
  x,y,z
_cell_length_a	18.215407
_cell_length_b	13.897447
_cell_length_c	13.897441
_cell_angle_alpha	90.028354
_cell_angle_beta	90.017432
_cell_angle_gamma	90.016973
loop_
_atom_site_label
_atom_site_type_symbol
_atom_site_fract_x
_atom_site_fract_y
_atom_site_fract_z
Zn1	Zn	1.125100	-0.384059	0.545360
Zn2	Zn	1.125020	-0.545378	0.384065
Zn3	Zn	1.002032	-0.384092	0.384081
Zn4	Zn	1.002010	-0.545307	0.545321
O5	O	1.063540	-0.464709	0.464707
O6	O	1.228073	-0.405475	0.523973
O7	O	1.108681	-0.524027	0.249085
O8	O	1.018400	-0.249106	0.405499
O9	O	1.228014	-0.523995	0.405470
O10	O	1.108818	-0.249082	0.523989
O11	O	1.018323	-0.405530	0.249097
O12	O	0.899045	-0.405461	0.405461
O13	O	1.018362	-0.523873	0.680307
O14	O	0.899028	-0.523905	0.523922
O15	O	1.108796	-0.405406	0.680336
O16	O	1.108659	-0.680350	0.405432
O17	O	1.018284	-0.680298	0.523906
C18	C	0.872334	-0.464679	0.464690
C19	C	0.790535	-0.464690	0.464705
C20	C	1.063480	-0.715323	0.464684
C21	C	1.063522	-0.822537	0.464707
C22	C	0.602371	-0.403103	0.526507
C23	C	0.525512	-0.403112	0.526510
C24	C	0.525462	-0.526342	0.402923
C25	C	0.602319	-0.526328	0.402916
C26	C	0.640772	-0.464710	0.464713
C27	C	0.487056	-0.464732	0.464724
C28	C	0.403722	-0.464742	0.464727
C29	C	0.724111	-0.464699	0.464709
C30	C	1.063558	-0.909607	0.464729
C31	C	1.063609	-1.018839	0.464754
C32	C	1.255493	-0.464739	0.464724
C33	C	1.337292	-0.464752	0.464732
C34	C	1.063585	-0.464628	0.716300
C35	C	1.063605	-0.464593	0.823514
C36	C	1.063620	-0.213116	0.464750
C37	C	1.063655	-0.105902	0.464769
C38	C	1.063538	-0.464720	0.214092
C39	C	1.063661	-0.464483	0.106879
C40	C	1.063620	-0.464566	0.910584
C41	C	1.063641	-0.464523	1.019816
H42	H	0.633677	-0.352927	0.576824
C43	C	0.483579	-0.593208	0.335943
C44	C	0.408051	-0.580056	0.349194
C45	C	0.369447	-0.641650	0.287519
H46	H	0.496067	-0.579075	0.271116
H47	H	0.496130	-0.658053	0.349960
H48	H	0.395505	-0.515226	0.335170
H49	H	0.395540	-0.594197	0.414008
H50	H	0.381998	-0.706495	0.301536
H51	H	0.381942	-0.627511	0.222695
H52	H	0.318198	-0.632741	0.296507
C53	C	0.643978	-0.593382	0.335941
C54	C	0.625295	-0.688851	0.356800
C55	C	0.663664	-0.750642	0.295132
H56	H	0.631398	-0.579319	0.271120
H57	H	0.695265	-0.584611	0.344794
H58	H	0.574019	-0.697618	0.347939
H59	H	0.637877	-0.702944	0.421609
H60	H	0.714951	-0.741870	0.303986
H61	H	0.651081	-0.736570	0.230316
H62	H	0.650998	-0.815424	0.309283
C63	C	0.483953	-0.336189	0.593711
C64	C	0.534081	-0.282245	0.647841
C65	C	0.495824	-0.220592	0.709766
H66	H	0.453964	-0.294034	0.556995
H67	H	0.453993	-0.373123	0.635729
H68	H	0.564029	-0.245315	0.605828
H69	H	0.564072	-0.324375	0.684576
H70	H	0.465864	-0.257526	0.751785
H71	H	0.465837	-0.178443	0.673043
H72	H	0.529830	-0.183990	0.746508
