data_functionalizedCrystal
_audit_creation_method	'MofGen! by Chris Wilmer'
_symmetry_space_group_name_H-M	'P1'
_symmetry_Int_Tables_number	1
_symmetry_cell_setting	triclinic
loop_
_symmetry_equiv_pos_as_xyz
  x,y,z
_cell_length_a	11.169417
_cell_length_b	10.686285
_cell_length_c	11.169409
_cell_angle_alpha	85.599660
_cell_angle_beta	89.980487
_cell_angle_gamma	85.633103
loop_
_atom_site_label
_atom_site_type_symbol
_atom_site_fract_x
_atom_site_fract_y
_atom_site_fract_z
Zn1	Zn	1.871632	-0.502207	-0.641950
Zn2	Zn	2.371632	-0.002207	-0.141950
Zn3	Zn	1.886932	-0.713259	-0.425893
Zn4	Zn	2.386932	-0.213259	0.074107
Zn5	Zn	1.670924	-0.502285	-0.441279
Zn6	Zn	2.170924	-0.002285	0.058721
Zn7	Zn	1.686328	-0.713158	-0.626546
Zn8	Zn	2.186328	-0.213158	-0.126546
O9	O	1.778954	-0.607727	-0.533917
O10	O	2.278954	-0.107727	-0.033917
O11	O	2.041612	-0.530213	-0.613296
O12	O	2.541612	-0.030213	-0.113296
O13	O	1.858234	-0.685348	-0.259978
O14	O	2.358234	-0.185348	0.240022
O15	O	1.684698	-0.325698	-0.480785
O16	O	2.184698	0.174302	0.019215
O17	O	2.052853	-0.685272	-0.454560
O18	O	2.552853	-0.185272	0.045440
O19	O	1.832158	-0.325640	-0.628216
O20	O	2.332158	0.174360	-0.128216
O21	O	1.699534	-0.530347	-0.271283
O22	O	2.199534	-0.030347	0.228717
O23	O	1.505017	-0.530248	-0.465848
O24	O	2.005017	-0.030248	0.034152
O25	O	1.710953	-0.685100	-0.796545
O26	O	2.210953	-0.185100	-0.296545
O27	O	1.516334	-0.685176	-0.601963
O28	O	2.016334	-0.185176	-0.101963
O29	O	1.847095	-0.530115	-0.807862
O30	O	2.347095	-0.030115	-0.307862
O31	O	1.873171	-0.889823	-0.439624
O32	O	2.373171	-0.389823	0.060376
O33	O	1.725789	-0.889748	-0.587043
O34	O	2.225789	-0.389748	-0.087043
C35	C	1.467128	-0.607710	-0.533904
C36	C	1.967128	-0.107710	-0.033904
C37	C	1.333730	-0.607734	-0.533925
C38	C	1.833730	-0.107734	-0.033925
C39	C	1.802844	-0.935570	-0.510018
C40	C	2.302844	-0.435570	-0.010018
C41	C	1.813175	-1.075823	-0.499834
C42	C	2.313175	-0.575823	0.000166
C43	C	2.091998	-0.607745	-0.533930
C44	C	2.591998	-0.107745	-0.033930
C45	C	2.225398	-0.607753	-0.533936
C46	C	2.725398	-0.107753	-0.033936
C47	C	1.779036	-0.607587	-0.846970
C48	C	2.279036	-0.107587	-0.346970
C49	C	1.779071	-0.607528	-0.980374
C50	C	2.279071	-0.107528	-0.480374
C51	C	1.755003	-0.278605	-0.557935
C52	C	2.255003	0.221395	-0.057935
C53	C	1.744796	-0.138352	-0.568170
C54	C	2.244796	0.361648	-0.068170
C55	C	1.778935	-0.607776	-0.222089
C56	C	2.278935	-0.107776	0.277911
C57	C	1.779106	-0.607480	-0.088711
C58	C	2.279106	-0.107480	0.411289
H59	H	1.678352	-1.084590	-0.634468
H60	H	2.178352	-0.584590	-0.134468
O61	O	1.901212	-1.147029	-0.412020
O62	O	2.401212	-0.647029	0.087980
H63	H	1.895797	-1.249710	-0.417539
H64	H	2.395797	-0.749710	0.082461
