data_functionalizedCrystal
_audit_creation_method	'MofGen! by Chris Wilmer'
_symmetry_space_group_name_H-M	'P1'
_symmetry_Int_Tables_number	1
_symmetry_cell_setting	triclinic
loop_
_symmetry_equiv_pos_as_xyz
  x,y,z
_cell_length_a	19.805407
_cell_length_b	19.077068
_cell_length_c	19.805398
_cell_angle_alpha	92.270943
_cell_angle_beta	89.984135
_cell_angle_gamma	92.327086
loop_
_atom_site_label
_atom_site_type_symbol
_atom_site_fract_x
_atom_site_fract_y
_atom_site_fract_z
Zn1	Zn	1.023878	-0.280230	-0.393534
Zn2	Zn	1.523878	0.219770	0.106466
Zn3	Zn	1.019250	-0.397926	-0.284888
Zn4	Zn	1.519250	0.102074	0.215112
Zn5	Zn	0.910699	-0.280246	-0.280360
Zn6	Zn	1.410699	0.219754	0.219640
Zn7	Zn	0.906108	-0.397892	-0.398034
Zn8	Zn	1.406108	0.102108	0.101966
O9	O	0.964984	-0.339073	-0.339204
O10	O	1.464984	0.160927	0.160796
O11	O	1.117980	-0.295850	-0.379134
O12	O	1.617980	0.204150	0.120866
O13	O	1.004836	-0.382336	-0.189572
O14	O	1.504836	0.117664	0.310428
O15	O	0.929571	-0.181752	-0.291594
O16	O	1.429571	0.318248	0.208406
O17	O	1.114581	-0.382321	-0.299313
O18	O	1.614581	0.117679	0.200687
O19	O	1.012723	-0.181741	-0.374743
O20	O	1.512723	0.318259	0.125257
O21	O	0.925084	-0.295877	-0.186244
O22	O	1.425084	0.204123	0.313756
O23	O	0.815374	-0.295844	-0.295957
O24	O	1.315374	0.204156	0.204043
O25	O	0.921745	-0.382263	-0.492153
O26	O	1.421745	0.117737	0.007847
O27	O	0.812001	-0.382278	-0.382412
O28	O	1.312001	0.117722	0.117588
O29	O	1.008271	-0.295817	-0.488847
O30	O	1.508271	0.204183	0.011153
O31	O	1.000384	-0.496413	-0.303675
O32	O	1.500384	0.003587	0.196325
O33	O	0.917258	-0.496388	-0.386803
O34	O	1.417258	0.003612	0.113197
C35	C	0.789128	-0.339060	-0.339182
C36	C	1.289128	0.160940	0.160818
C37	C	0.713896	-0.339071	-0.339189
C38	C	1.213896	0.160929	0.160811
C39	C	0.676810	-0.384145	-0.384138
C40	C	1.176810	0.115855	0.115862
C41	C	0.606122	-0.384146	-0.384148
C42	C	1.106122	0.115854	0.115852
C43	C	0.572520	-0.339077	-0.339204
C44	C	1.072520	0.160923	0.160796
C45	C	0.609611	-0.293998	-0.294252
C46	C	1.109611	0.206002	0.205748
C47	C	0.680298	-0.293993	-0.294247
C48	C	1.180298	0.206007	0.205753
C49	C	0.324537	-0.294013	-0.294275
C50	C	0.824537	0.205987	0.205725
C51	C	0.253845	-0.294022	-0.294283
C52	C	0.753845	0.205978	0.205717
C53	C	0.250361	-0.384166	-0.384176
C54	C	0.750361	0.115834	0.115824
C55	C	0.321048	-0.384162	-0.384171
C56	C	0.821048	0.115838	0.115829
C57	C	0.358133	-0.339081	-0.339222
C58	C	0.858133	0.160919	0.160778
C59	C	0.434781	-0.339079	-0.339213
C60	C	0.934781	0.160921	0.160787
C61	C	0.495873	-0.339081	-0.339209
C62	C	0.995873	0.160919	0.160791
C63	C	0.957839	-0.521938	-0.346234
C64	C	1.457839	-0.021938	0.153766
C65	C	0.954844	-0.600168	-0.349264
C66	C	1.454844	-0.100168	0.150736
C67	C	0.996750	-0.636910	-0.307443
C68	C	1.496750	-0.136910	0.192557
C69	C	0.993937	-0.710416	-0.310297
C70	C	1.493937	-0.210416	0.189703
C71	C	0.949215	-0.747178	-0.354968
C72	C	1.449215	-0.247178	0.145032
C73	C	0.907307	-0.710430	-0.396793
C74	C	1.407307	-0.210430	0.103207
C75	C	0.910124	-0.636926	-0.393943
C76	C	1.410124	-0.136926	0.106057
C77	C	0.936149	-0.967013	-0.368135
C78	C	1.436149	-0.467013	0.131865
C79	C	0.933334	-1.040522	-0.370981
C80	C	1.433334	-0.540522	0.129019
C81	C	1.019965	-1.040503	-0.284485
C82	C	1.519965	-0.540503	0.215515
C83	C	1.022775	-0.966997	-0.281635
C84	C	1.522775	-0.466997	0.218365
C85	C	0.980870	-0.930256	-0.323463
C86	C	1.480870	-0.430256	0.176537
N87	N	0.946337	-0.822312	-0.357885
N88	N	1.446337	-0.322312	0.142115
N89	N	0.983752	-0.855123	-0.320549
N90	N	1.483752	-0.355123	0.179451
C91	C	1.141526	-0.339087	-0.339227
C92	C	1.641526	0.160913	0.160773
C93	C	1.216758	-0.339093	-0.339237
C94	C	1.716758	0.160907	0.160763
C95	C	0.965012	-0.339034	-0.515745
C96	C	1.465012	0.160966	-0.015745
C97	C	0.965024	-0.339018	-0.590977
C98	C	1.465024	0.160982	-0.090977
C99	C	0.972175	-0.155495	-0.332162
C100	C	1.472175	0.344505	0.167838
C101	C	0.975240	-0.077265	-0.329161
C102	C	1.475240	0.422735	0.170839
C103	C	1.010164	-0.293881	-1.051043
C104	C	1.510164	0.206119	-0.551043
C105	C	1.010153	-0.293902	-0.980355
C106	C	1.510153	0.206098	-0.480355
C107	C	0.965097	-0.338920	-0.946735
C108	C	1.465097	0.161080	-0.446735
C109	C	0.920055	-0.383924	-0.983806
C110	C	1.420055	0.116076	-0.483806
C111	C	0.920070	-0.383905	-1.054492
C112	C	1.420070	0.116095	-0.554492
C113	C	0.919993	-0.384000	-0.698735
C114	C	1.419993	0.116000	-0.198735
C115	C	0.919980	-0.384014	-0.628044
C116	C	1.419980	0.115986	-0.128044
C117	C	1.010076	-0.293997	-0.624598
C118	C	1.510076	0.206003	-0.124598
C119	C	1.010091	-0.293979	-0.695285
C120	C	1.510091	0.206021	-0.195285
C121	C	0.965051	-0.338985	-0.732350
C122	C	1.465051	0.161015	-0.232350
C123	C	0.965065	-0.338962	-0.808997
C124	C	1.465065	0.161038	-0.308997
C125	C	0.965080	-0.338940	-0.870088
C126	C	1.465080	0.161060	-0.370088
C127	C	0.964997	-0.339061	-0.163347
C128	C	1.464997	0.160939	0.336653
C129	C	0.965124	-0.338880	-0.088109
C130	C	1.465124	0.161120	0.411891
H131	H	0.575930	-0.420851	-0.420750
H132	H	1.075930	0.079149	0.079250
H133	H	0.710493	-0.257286	-0.257648
H134	H	1.210493	0.242714	0.242352
H135	H	0.883286	-0.420672	-0.600672
H136	H	1.383286	0.079328	-0.100672
H137	H	1.054083	-1.070425	-0.250432
H138	H	1.554083	-0.570425	0.249568
H139	H	0.348403	-0.420864	-0.420766
H140	H	0.848403	0.079136	0.079234
C141	C	1.045946	-0.596479	-0.258305
C142	C	1.545946	-0.096479	0.241695
H143	H	1.070504	-0.628891	-0.233812
H144	H	1.570504	-0.128891	0.266188
H145	H	1.021174	-0.567845	-0.227678
H146	H	1.521174	-0.067845	0.272322
H147	H	1.076522	-0.567764	-0.283116
H148	H	1.576522	-0.067764	0.216884
H149	H	0.902027	-0.937104	-0.402191
H150	H	1.402027	-0.437104	0.097809
H151	H	0.896924	-1.070452	-0.407370
H152	H	1.396924	-0.570452	0.092630
C153	C	0.209566	-0.433748	-0.433627
C154	C	0.709566	0.066252	0.066373
H155	H	0.162655	-0.427292	-0.427201
H156	H	0.662655	0.072708	0.072799
H157	H	0.219301	-0.481023	-0.425463
H158	H	0.719301	0.018977	0.074537
H159	H	0.221570	-0.423506	-0.478727
H160	H	0.721570	0.076494	0.021273
C161	C	0.858115	-0.750863	-0.445934
C162	C	1.358115	-0.250863	0.054066
H163	H	0.833566	-0.718451	-0.470438
H164	H	1.333566	-0.218451	0.029562
H165	H	0.827539	-0.779580	-0.421131
H166	H	1.327539	-0.279580	0.078869
H167	H	0.882896	-0.779494	-0.476562
H168	H	1.382896	-0.279494	0.023438
C169	C	0.365324	-0.244431	-0.244833
C170	C	0.865324	0.255569	0.255167
H171	H	0.412236	-0.250874	-0.251268
H172	H	0.912236	0.249126	0.248732
H173	H	0.353324	-0.254667	-0.199734
H174	H	0.853324	0.245333	0.300266
H175	H	0.355585	-0.197154	-0.253002
H176	H	0.855585	0.302846	0.246998
H177	H	1.028060	-0.740328	-0.276241
H178	H	1.528060	-0.240328	0.223759
C179	C	1.059692	-0.244401	-0.939582
C180	C	1.559692	0.255599	-0.439582
H181	H	1.053236	-0.250863	-0.892669
H182	H	1.553236	0.249137	-0.392669
H183	H	1.051637	-0.197109	-0.949350
H184	H	1.551637	0.302891	-0.449350
H185	H	1.104771	-0.254702	-0.951567
H186	H	1.604771	0.245298	-0.451567
H187	H	0.226488	-0.257317	-0.257684
H188	H	0.726488	0.242683	0.242316
H189	H	0.876001	-0.607011	-0.427998
H190	H	1.376001	-0.107011	0.072002
C191	C	1.059727	-0.244363	-1.088019
C192	C	1.559727	0.255637	-0.588019
H193	H	1.086554	-0.217571	-1.055818
H194	H	1.586554	0.282429	-0.555818
H195	H	1.035046	-0.213686	-1.114416
H196	H	1.535046	0.286314	-0.614416
H197	H	1.088172	-0.271287	-1.116628
H198	H	1.588172	0.228713	-0.616628
C199	C	0.870528	-0.433403	-1.095268
C200	C	1.370528	0.066597	-0.595268
H201	H	0.876994	-0.426950	-1.142181
H202	H	1.376994	0.073050	-0.642181
H203	H	0.825450	-0.423106	-1.083287
H204	H	1.325450	0.076894	-0.583287
H205	H	0.878586	-0.480698	-1.085498
H206	H	1.378586	0.019302	-0.585498
H207	H	1.046777	-0.257318	-0.722655
H208	H	1.546777	0.242682	-0.222655
H209	H	0.704164	-0.420848	-0.420734
H210	H	1.204164	0.079152	0.079266
H211	H	1.046751	-0.257353	-0.594411
H212	H	1.546751	0.242647	-0.094411
C213	C	0.870444	-0.433497	-0.739498
C214	C	1.370444	0.066503	-0.239498
H215	H	0.843604	-0.460302	-0.709349
H216	H	1.343604	0.039698	-0.209349
H217	H	0.895135	-0.464161	-0.768253
H218	H	1.395135	0.035839	-0.268253
H219	H	0.842012	-0.406558	-0.766034
H220	H	1.342012	0.093442	-0.266034
H221	H	0.582247	-0.257298	-0.257661
H222	H	1.082247	0.242702	0.242339
C223	C	1.071974	-0.926564	-0.232501
C224	C	1.571974	-0.426564	0.267499
H225	H	1.096533	-0.958975	-0.208006
H226	H	1.596533	-0.458975	0.291994
H227	H	1.047201	-0.897930	-0.201875
H228	H	1.547201	-0.397930	0.298125
H229	H	1.102550	-0.897850	-0.257313
H230	H	1.602550	-0.397850	0.242687
C231	C	0.870494	-0.433441	-0.946825
C232	C	1.370494	0.066559	-0.446825
H233	H	0.876929	-0.427002	-0.899418
H234	H	1.376929	0.072998	-0.399418
H235	H	0.878547	-0.480729	-0.960224
H236	H	1.378547	0.019271	-0.460224
H237	H	0.825421	-0.423128	-0.958013
H238	H	1.325421	0.076872	-0.458013
