data_functionalizedCrystal
_audit_creation_method	'MofGen! by Chris Wilmer'
_symmetry_space_group_name_H-M	'P1'
_symmetry_Int_Tables_number	1
_symmetry_cell_setting	triclinic
loop_
_symmetry_equiv_pos_as_xyz
  x,y,z
_cell_length_a	12.759401
_cell_length_b	11.169416
_cell_length_c	12.759393
_cell_angle_alpha	89.971356
_cell_angle_beta	89.981504
_cell_angle_gamma	90.010501
loop_
_atom_site_label
_atom_site_type_symbol
_atom_site_fract_x
_atom_site_fract_y
_atom_site_fract_z
Zn1	Zn	1.606287	-0.477731	-0.594003
Zn2	Zn	1.606195	-0.678464	-0.418332
Zn3	Zn	1.430589	-0.477794	-0.418342
Zn4	Zn	1.430591	-0.678372	-0.593973
O5	O	1.518416	-0.578090	-0.506162
O6	O	1.753296	-0.504371	-0.570708
O7	O	1.582861	-0.651910	-0.271312
O8	O	1.453934	-0.309836	-0.441660
O9	O	1.753228	-0.651849	-0.441643
O10	O	1.583018	-0.309790	-0.570718
O11	O	1.453844	-0.504478	-0.271320
O12	O	1.283568	-0.504389	-0.441632
O13	O	1.453937	-0.651691	-0.740998
O14	O	1.283570	-0.651752	-0.570667
O15	O	1.583020	-0.504282	-0.741020
O16	O	1.582863	-0.846401	-0.441614
O17	O	1.453848	-0.846333	-0.570657
C18	C	1.245448	-0.578068	-0.506148
C19	C	1.128672	-0.578088	-0.506167
C20	C	1.073838	-0.654943	-0.573245
C21	C	0.964114	-0.654958	-0.573256
C22	C	0.964067	-0.501260	-0.439103
C23	C	1.073789	-0.501239	-0.439098
C24	C	1.073864	-0.743683	-0.650694
C25	C	0.964140	-0.743698	-0.650705
C26	C	1.518374	-0.889915	-0.506154
C27	C	1.518452	-1.023315	-0.506186
C28	C	1.792449	-0.578113	-0.506177
C29	C	1.909226	-0.578123	-0.506184
C30	C	1.518489	-0.577969	-0.780196
C31	C	1.518521	-0.577917	-0.896973
C32	C	1.518486	-0.265048	-0.506193
C33	C	1.518516	-0.131648	-0.506207
C34	C	1.585743	-0.501154	-0.951848
C35	C	1.585768	-0.501111	-1.061572
C36	C	1.451345	-0.654605	-1.061536
C37	C	1.451315	-0.654641	-0.951814
C38	C	1.663355	-0.412539	-0.951869
C39	C	1.663380	-0.412496	-1.061593
C40	C	1.518403	-0.578124	-0.233195
C41	C	1.518575	-0.577838	-0.116419
H42	H	1.107884	-0.831932	-0.621413
H43	H	1.740629	-0.445860	-0.917835
C44	C	1.624091	-0.293169	-1.107591
N45	N	1.594510	-0.203289	-1.142237
H46	H	1.103671	-0.718894	-0.732099
C47	C	1.377421	-0.738994	-1.121872
N48	N	1.321740	-0.802558	-1.167316
H49	H	0.930140	-0.710519	-0.728055
C50	C	0.923891	-0.869236	-0.621073
N51	N	0.893576	-0.963787	-0.598752
H52	H	1.396572	-0.717145	-0.907139
C53	C	1.633930	-0.286978	-0.911660
N54	N	1.611765	-0.192408	-0.881374
H55	H	1.744752	-0.437390	-1.091373
C56	C	1.134102	-0.416683	-0.365317
N57	N	1.179530	-0.352991	-0.309741
H58	H	0.919368	-0.438691	-0.384499
