data_functionalizedCrystal
_audit_creation_method	'MofGen! by Chris Wilmer'
_symmetry_space_group_name_H-M	'P1'
_symmetry_Int_Tables_number	1
_symmetry_cell_setting	triclinic
loop_
_symmetry_equiv_pos_as_xyz
  x,y,z
_cell_length_a	12.759395
_cell_length_b	18.101396
_cell_length_c	12.759387
_cell_angle_alpha	89.967821
_cell_angle_beta	90.019431
_cell_angle_gamma	89.963131
loop_
_atom_site_label
_atom_site_type_symbol
_atom_site_fract_x
_atom_site_fract_y
_atom_site_fract_z
Zn1	Zn	1.606106	0.294794	0.593965
Zn2	Zn	1.605928	0.418654	0.418281
Zn3	Zn	1.430404	0.294830	0.418305
Zn4	Zn	1.430328	0.418598	0.593923
O5	O	1.518191	0.356719	0.506118
O6	O	1.753103	0.311232	0.570667
O7	O	1.582602	0.402267	0.271263
O8	O	1.453817	0.191193	0.441634
O9	O	1.752973	0.402232	0.441593
O10	O	1.582905	0.191166	0.570690
O11	O	1.453645	0.311295	0.271281
O12	O	1.283373	0.311240	0.441594
O13	O	1.453688	0.402136	0.740950
O14	O	1.283317	0.402171	0.570620
O15	O	1.582831	0.311178	0.740980
O16	O	1.582528	0.522279	0.441553
O17	O	1.453515	0.522238	0.570597
C18	C	1.245224	0.356704	0.506106
C19	C	1.128447	0.356716	0.506125
C20	C	1.128564	0.262111	0.640747
C21	C	1.073761	0.214818	0.708066
C22	C	0.964040	0.214831	0.708080
C23	C	0.909118	0.262141	0.640764
C24	C	0.963921	0.309434	0.573444
C25	C	1.073645	0.309417	0.573441
C26	C	0.963804	0.404034	0.438818
C27	C	1.073525	0.404026	0.438809
C28	C	0.908882	0.451344	0.371503
C29	C	0.963685	0.498642	0.304187
C30	C	1.073413	0.498628	0.304177
C31	C	1.128328	0.451319	0.371490
C32	C	1.518023	0.549129	0.506091
C33	C	1.518046	0.631444	0.506114
C34	C	1.518233	0.930534	0.506175
C35	C	1.437255	0.899214	0.587567
C36	C	1.436882	0.813596	0.587311
C37	C	1.518141	0.782152	0.506146
C38	C	1.488153	0.813311	0.395421
C39	C	1.487618	0.898956	0.395910
C40	C	1.629381	0.898876	0.534532
C41	C	1.628740	0.813225	0.536959
C42	C	1.518090	0.698292	0.506122
C43	C	1.518281	1.014394	0.506191
C44	C	1.792225	0.356734	0.506132
C45	C	1.909001	0.356741	0.506138
C46	C	1.518271	0.356646	0.780152
C47	C	1.518305	0.356615	0.896929
C48	C	1.518353	1.163557	0.506173
C49	C	1.518327	1.081243	0.506207
C50	C	1.518173	0.356738	0.233151
C51	C	1.518343	0.356560	0.116375
C52	C	1.652791	0.261907	0.896980
C53	C	1.720048	0.214541	0.951867
C54	C	1.720074	0.214514	1.061589
C55	C	1.652832	0.261856	1.116426
C56	C	1.585575	0.309222	1.061540
C57	C	1.585559	0.309245	0.951815
C58	C	1.451085	0.403925	1.061488
C59	C	1.451063	0.403957	0.951767
C60	C	1.383843	0.451267	1.116326
C61	C	1.316589	0.498637	1.061439
C62	C	1.316567	0.498663	0.951711
C63	C	1.383805	0.451323	0.896880
H64	H	0.918959	0.537155	0.249379
H65	H	1.407771	0.791927	0.370967
O66	O	1.665581	0.927400	0.639667
H67	H	1.739838	0.958517	0.629657
O68	O	0.904918	0.163822	0.780680
H69	H	0.925992	0.176595	0.863105
H70	H	1.544041	0.919678	0.333199
O71	O	1.792616	0.163432	1.120798
H72	H	1.839374	0.130520	1.064239
O73	O	1.652847	0.261825	1.234769
H74	H	1.710912	0.220936	1.263722
O75	O	1.132994	0.163788	0.780667
H76	H	1.182979	0.196974	0.834037
O77	O	1.246907	0.262094	0.640735
H78	H	1.275861	0.277124	0.719938
O79	O	1.652793	0.261939	0.778637
H80	H	1.673968	0.317807	0.749706
H81	H	0.819777	0.262141	0.640772
H82	H	0.819541	0.451349	0.371515
O83	O	1.246671	0.451298	0.371466
H84	H	1.275649	0.410450	0.429574
H85	H	1.355371	0.920802	0.569020
O86	O	1.383864	0.451242	1.234669
H87	H	1.441934	0.410359	1.263625
O88	O	1.132522	0.549636	0.231566
H89	H	1.075894	0.582535	0.184768
O90	O	1.709360	0.925869	0.456186
H91	H	1.670199	0.961638	0.397311
H92	H	1.692272	0.791817	0.481998
O93	O	1.461653	0.785677	0.696078
H94	H	1.474012	0.833348	0.749334
O95	O	1.461464	0.926779	0.696581
H96	H	1.531519	0.963051	0.693935
H97	H	1.354504	0.793174	0.568527
H98	H	1.406370	0.919000	0.371887
O99	O	1.658718	0.786236	0.644888
H100	H	1.595121	0.750834	0.676460
O101	O	1.563818	0.786336	0.312889
H102	H	1.623740	0.750346	0.350002
O103	O	1.792581	0.163487	0.892725
H104	H	1.781278	0.171467	0.807207
O105	O	1.244064	0.549691	1.120580
H106	H	1.255379	0.541713	1.206097
O107	O	1.244004	0.549736	0.892511
H108	H	1.197253	0.582645	0.949080
O109	O	1.383777	0.451359	0.778537
H110	H	1.362597	0.395508	0.749618
