data_functionalizedCrystal
_audit_creation_method	'MofGen! by Chris Wilmer'
_symmetry_space_group_name_H-M	'P1'
_symmetry_Int_Tables_number	1
_symmetry_cell_setting	triclinic
loop_
_symmetry_equiv_pos_as_xyz
  x,y,z
_cell_length_a	14.519709
_cell_length_b	13.339070
_cell_length_c	12.996460
_cell_angle_alpha	90.002942
_cell_angle_beta	89.999398
_cell_angle_gamma	99.654720
loop_
_atom_site_label
_atom_site_type_symbol
_atom_site_fract_x
_atom_site_fract_y
_atom_site_fract_z
O1	O	-1.257617	-0.132664	0.085426
O2	O	-0.757617	0.367336	0.585426
O3	O	-0.993115	-0.148288	0.085456
O4	O	-0.493115	0.351712	0.585456
O5	O	-1.095010	0.006843	0.085441
O6	O	-0.595010	0.506843	0.585441
O7	O	-1.155722	-0.287794	0.085440
O8	O	-0.655722	0.212206	0.585440
O9	O	-1.094994	0.006834	-0.085692
O10	O	-0.594994	0.506834	0.414308
O11	O	-0.993099	-0.148297	-0.085678
O12	O	-0.493099	0.351703	0.414322
O13	O	-1.257601	-0.132673	-0.085708
O14	O	-0.757601	0.367327	0.414292
Cu15	Cu	-1.125349	-0.140485	-0.101319
Cu16	Cu	-0.625349	0.359515	0.398681
Cu17	Cu	-1.125367	-0.140475	0.101067
Cu18	Cu	-0.625367	0.359525	0.601067
O19	O	-1.155706	-0.287803	-0.085693
O20	O	-0.655706	0.212197	0.414307
C21	C	-1.084746	0.044546	-0.000123
C22	C	-0.584746	0.544546	0.499877
C23	C	-1.054177	0.156903	-0.000115
C24	C	-0.554177	0.656903	0.499885
C25	C	-0.958562	-0.147564	-0.000107
C26	C	-0.458562	0.352436	0.499893
C27	C	-0.855625	-0.145382	-0.000095
C28	C	-0.355625	0.354618	0.499905
C29	C	-1.292154	-0.133396	-0.000143
C30	C	-0.792154	0.366604	0.499857
C31	C	-1.395091	-0.135578	-0.000148
C32	C	-0.895091	0.364422	0.499852
C33	C	-0.478686	-0.137349	-0.000141
C34	C	0.021314	0.362651	0.499859
C35	C	-0.583562	-0.139580	-0.000128
C36	C	-0.083562	0.360420	0.499872
C37	C	-0.667153	-0.141365	-0.000117
C38	C	-0.167153	0.358635	0.499883
C39	C	-0.772035	-0.143597	-0.000106
C40	C	-0.272035	0.356403	0.499894
C41	C	-1.165970	-0.325506	-0.000127
C42	C	-0.665970	0.174494	0.499873
C43	C	-1.196539	-0.437863	-0.000128
C44	C	-0.696539	0.062137	0.499872
N45	N	-1.125342	-0.140492	-0.243666
N46	N	-0.625342	0.359508	0.256334
C47	C	-1.291868	0.521266	-0.000143
C48	C	-0.791868	1.021266	0.499857
C49	C	-1.320592	0.415701	-0.000156
C50	C	-0.820592	0.915701	0.499844
C51	C	-1.253991	0.350997	-0.000146
C52	C	-0.753991	0.850997	0.499854
C53	C	-1.158660	0.391867	-0.000123
C54	C	-0.658660	0.891867	0.499877
C55	C	-1.129933	0.497442	-0.000118
C56	C	-0.629933	0.997442	0.499882
C57	C	-1.092056	0.327173	-0.000120
C58	C	-0.592056	0.827173	0.499880
C59	C	-0.996725	0.368043	-0.000097
C60	C	-0.496725	0.868043	0.499903
C61	C	-0.968003	0.473608	-0.000092
C62	C	-0.468003	0.973608	0.499908
C63	C	-1.034604	0.538312	-0.000102
C64	C	-0.534604	1.038312	0.499898
C65	C	-1.120783	0.221598	-0.000125
C66	C	-0.620783	0.721598	0.499875
C67	C	-0.958848	0.197774	-0.000100
C68	C	-0.458848	0.697774	0.499900
C69	C	-0.930124	0.303338	-0.000087
C70	C	-0.430124	0.803338	0.499913
C71	C	-1.125347	-0.140495	-0.336772
C72	C	-0.625347	0.359505	0.163228
C73	C	-1.125354	-0.140488	-0.453577
C74	C	-0.625354	0.359512	0.046423
C75	C	-1.125362	-0.140477	-0.546675
C76	C	-0.625362	0.359523	-0.046675
C77	C	-1.125371	-0.140471	-0.663488
C78	C	-0.625371	0.359529	-0.163488
N79	N	-1.125379	-0.140460	0.243414
N80	N	-0.625379	0.359540	0.743414
H81	H	-1.198402	0.188332	-0.000144
H82	H	-0.698402	0.688332	0.499856
H83	H	-0.890378	0.506880	-0.000081
H84	H	-0.390378	1.006880	0.499919
H85	H	-1.346085	0.573957	-0.000160
H86	H	-0.846085	1.073957	0.499840
H87	H	-0.904615	0.145091	-0.000096
H88	H	-0.404615	0.645091	0.499904
H89	H	-0.852504	0.336630	-0.000069
H90	H	-0.352504	0.836630	0.499931
Br91	Br	-1.292975	0.207728	-0.000160
Br92	Br	-0.792975	0.707728	0.499840
Br93	Br	-1.449964	0.360241	-0.000166
Br94	Br	-0.949964	0.860241	0.499834
Br95	Br	-0.995624	0.681586	0.000055
Br96	Br	-0.495624	1.181586	0.500055
