data_functionalizedCrystal
_audit_creation_method	'MofGen! by Chris Wilmer'
_symmetry_space_group_name_H-M	'P1'
_symmetry_Int_Tables_number	1
_symmetry_cell_setting	triclinic
loop_
_symmetry_equiv_pos_as_xyz
  x,y,z
_cell_length_a	9.065218
_cell_length_b	17.699083
_cell_length_c	7.540329
_cell_angle_alpha	89.995522
_cell_angle_beta	89.996962
_cell_angle_gamma	84.149450
loop_
_atom_site_label
_atom_site_type_symbol
_atom_site_fract_x
_atom_site_fract_y
_atom_site_fract_z
O1	O	1.957110	0.110973	-0.147491
O2	O	2.457110	0.610973	0.352509
O3	O	1.527555	0.120075	-0.147494
O4	O	2.027555	0.620075	0.352506
O5	O	1.754468	0.005430	-0.147477
O6	O	2.254468	0.505430	0.352523
O7	O	1.730196	0.225619	-0.147508
O8	O	2.230196	0.725619	0.352492
O9	O	1.754455	0.005428	0.147488
O10	O	2.254455	0.505428	0.647488
O11	O	1.527542	0.120074	0.147471
O12	O	2.027542	0.620074	0.647471
O13	O	1.957096	0.110971	0.147474
O14	O	2.457096	0.610971	0.647474
Cu15	Cu	1.742318	0.115522	0.174405
Cu16	Cu	2.242318	0.615522	0.674405
Cu17	Cu	1.742334	0.115524	-0.174425
Cu18	Cu	2.242334	0.615524	0.325575
O19	O	1.730183	0.225617	0.147457
O20	O	2.230183	0.725617	0.647457
C21	C	1.472588	0.119200	-0.000012
C22	C	1.972588	0.619200	0.499988
C23	C	1.308822	0.116584	-0.000012
C24	C	1.808822	0.616584	0.499988
C25	C	1.753592	-0.022775	0.000006
C26	C	2.253592	0.477225	0.500006
C27	C	1.750983	-0.106813	0.000007
C28	C	2.250983	0.393187	0.500007
C29	C	1.884176	-0.154396	0.000010
C30	C	2.384176	0.345604	0.500010
C31	C	1.881716	-0.233358	-0.000006
C32	C	2.381716	0.266642	0.499994
C33	C	1.746060	-0.264737	-0.000012
C34	C	2.246060	0.235263	0.499988
C35	C	1.612857	-0.217149	-0.000021
C36	C	2.112857	0.282851	0.499979
C37	C	1.615319	-0.138188	-0.000018
C38	C	2.115319	0.361812	0.499982
C39	C	1.602925	-0.535589	-0.000035
C40	C	2.102925	-0.035589	0.499965
C41	C	1.600474	-0.614556	-0.000033
C42	C	2.100474	-0.114556	0.499967
C43	C	1.869322	-0.630760	-0.000023
C44	C	2.369322	-0.130760	0.499977
C45	C	1.871784	-0.551799	-0.000020
C46	C	2.371784	-0.051799	0.499980
C47	C	1.738581	-0.504217	-0.000038
C48	C	2.238581	-0.004217	0.499962
C49	C	1.741251	-0.418597	-0.000025
C50	C	2.241251	0.081403	0.499975
C51	C	1.743390	-0.350355	-0.000013
C52	C	2.243390	0.149645	0.499987
C53	C	2.012064	0.111847	-0.000012
C54	C	2.512064	0.611847	0.499988
C55	C	2.175829	0.114463	-0.000023
C56	C	2.675829	0.614463	0.499977
C57	C	1.731059	0.253822	-0.000030
C58	C	2.231059	0.753822	0.499970
C59	C	1.733669	0.337860	-0.000042
C60	C	2.233669	0.837860	0.499958
N61	N	1.742317	0.115521	0.419754
N62	N	2.242317	0.615521	0.919754
N63	N	1.742346	0.115520	-0.419774
N64	N	2.242346	0.615520	0.080226
H65	H	1.994642	-0.128854	0.000026
H66	H	2.494642	0.371146	0.500026
H67	H	1.977782	-0.669510	-0.000018
H68	H	2.477782	-0.169510	0.499982
C69	C	1.451235	-0.649070	-0.000055
C70	C	1.951235	-0.149070	0.499945
N71	N	1.338835	-0.675066	-0.000072
N72	N	1.838835	-0.175066	0.499928
C73	C	1.463634	-0.251668	-0.000013
C74	C	1.963634	0.248332	0.499987
N75	N	1.351237	-0.277667	0.000006
N76	N	1.851237	0.222333	0.500006
C77	C	2.028239	-0.285696	0.000027
C78	C	2.528239	0.214304	0.500027
N79	N	2.138608	-0.325116	0.000060
N80	N	2.638608	0.174884	0.500060
C81	C	2.021015	-0.517287	-0.000013
C82	C	2.521015	-0.017287	0.499987
N83	N	2.133419	-0.491294	-0.000016
N84	N	2.633419	0.008706	0.499984
C85	C	1.456398	-0.483259	-0.000065
C86	C	1.956398	0.016741	0.499935
N87	N	1.346026	-0.443842	-0.000092
N88	N	1.846026	0.056158	0.499908
C89	C	1.468796	-0.085847	-0.000017
C90	C	1.968796	0.414153	0.499983
N91	N	1.358430	-0.046425	-0.000021
N92	N	1.858430	0.453575	0.499979
