data_functionalizedCrystal
_audit_creation_method	'MofGen! by Chris Wilmer'
_symmetry_space_group_name_H-M	'P1'
_symmetry_Int_Tables_number	1
_symmetry_cell_setting	triclinic
loop_
_symmetry_equiv_pos_as_xyz
  x,y,z
_cell_length_a	12.759401
_cell_length_b	12.759400
_cell_length_c	12.759393
_cell_angle_alpha	90.023884
_cell_angle_beta	89.977503
_cell_angle_gamma	89.995733
loop_
_atom_site_label
_atom_site_type_symbol
_atom_site_fract_x
_atom_site_fract_y
_atom_site_fract_z
Zn1	Zn	-1.606349	-0.418192	0.594112
Zn2	Zn	-1.606274	-0.593908	0.418453
Zn3	Zn	-1.430647	-0.418246	0.418442
Zn4	Zn	-1.430674	-0.593832	0.594085
O5	O	-1.518486	-0.506045	0.506273
O6	O	-1.753360	-0.441511	0.570826
O7	O	-1.582935	-0.570660	0.271430
O8	O	-1.453975	-0.271218	0.441753
O9	O	-1.753305	-0.570608	0.441770
O10	O	-1.583061	-0.271178	0.570816
O11	O	-1.453902	-0.441602	0.271423
O12	O	-1.283630	-0.441529	0.441726
O13	O	-1.454019	-0.570479	0.741110
O14	O	-1.283649	-0.570531	0.570770
O15	O	-1.583087	-0.441437	0.741130
O16	O	-1.582960	-0.740919	0.441743
O17	O	-1.453947	-0.740863	0.570780
C18	C	-1.245519	-0.506028	0.506245
C19	C	-1.128742	-0.506047	0.506258
C20	C	-1.073918	-0.573320	0.573343
C21	C	-0.964194	-0.573323	0.573361
C22	C	-0.964128	-0.438776	0.439198
C23	C	-1.073850	-0.438769	0.439187
C24	C	-1.518477	-0.779012	0.506283
C25	C	-1.518569	-0.895789	0.506322
C26	C	-0.792519	-0.506059	0.506295
C27	C	-0.909296	-0.506057	0.506287
C28	C	-1.518565	-0.505944	0.780306
C29	C	-1.518598	-0.505901	0.897083
C30	C	-1.518523	-0.232011	0.506286
C31	C	-1.518539	-0.115235	0.506292
C32	C	-1.451342	-0.060392	0.439101
C33	C	-1.451354	0.049332	0.439118
C34	C	-1.585770	0.049361	0.573520
C35	C	-1.585752	-0.060361	0.573508
C36	C	-1.518468	-0.506069	0.233306
C37	C	-1.518638	-0.505816	0.116529
C38	C	-1.585808	-0.438698	0.951957
C39	C	-1.585826	-0.438653	1.061681
C40	C	-1.451420	-0.573022	1.061648
C41	C	-1.451398	-0.573061	0.951926
H42	H	-1.118607	-0.628099	0.627960
H43	H	-1.640554	-0.383928	1.106355
C44	C	-1.659712	-0.364812	0.891634
H45	H	-1.699733	-0.324774	0.940034
H46	H	-1.705477	-0.405012	0.848834
H47	H	-1.619508	-0.319045	0.848831
C48	C	-0.903891	-0.647321	0.647158
H49	H	-0.952301	-0.687388	0.687095
H50	H	-0.861116	-0.607187	0.693006
H51	H	-0.861065	-0.693056	0.606897
C52	C	-1.377516	-0.646902	1.121978
H53	H	-1.387162	-0.637263	1.195184
H54	H	-1.306923	-0.631530	1.103986
H55	H	-1.392886	-0.717503	1.103992
H56	H	-1.640495	0.094049	0.628244
C57	C	-0.903743	-0.364788	0.365415
H58	H	-0.830544	-0.374435	0.375020
H59	H	-0.921730	-0.294213	0.380897
H60	H	-0.921694	-0.380090	0.294796
C61	C	-1.377470	-0.646995	0.891560
H62	H	-1.337463	-0.687000	0.939935
H63	H	-1.331691	-0.606820	0.848748
H64	H	-1.417656	-0.692791	0.848766
H65	H	-1.118489	-0.383981	0.384557
H66	H	-1.396610	-0.105066	0.384372
C67	C	-1.377438	0.109660	0.365211
H68	H	-1.387063	0.182866	0.374851
H69	H	-1.392790	0.091660	0.294619
H70	H	-1.306846	0.091684	0.380583
C71	C	-1.659676	-0.120693	0.647418
H72	H	-1.699719	-0.072300	0.687440
H73	H	-1.619491	-0.163479	0.693183
H74	H	-1.705437	-0.163510	0.607220
