data_functionalizedCrystal
_audit_creation_method	'MofGen! by Chris Wilmer'
_symmetry_space_group_name_H-M	'P1'
_symmetry_Int_Tables_number	1
_symmetry_cell_setting	triclinic
loop_
_symmetry_equiv_pos_as_xyz
  x,y,z
_cell_length_a	10.723024
_cell_length_b	10.723024
_cell_length_c	15.455313
_cell_angle_alpha	92.703187
_cell_angle_beta	92.698308
_cell_angle_gamma	95.532131
loop_
_atom_site_label
_atom_site_type_symbol
_atom_site_fract_x
_atom_site_fract_y
_atom_site_fract_z
O1	O	0.180439	-1.651755	0.072136
O2	O	0.680439	-1.151755	0.572136
O3	O	0.197193	-1.288602	0.072136
O4	O	0.697193	-0.788602	0.572136
O5	O	0.007239	-1.478555	0.072132
O6	O	0.507239	-0.978555	0.572132
O7	O	0.370392	-1.461802	0.072139
O8	O	0.870392	-0.961802	0.572139
O9	O	-0.003590	-1.489406	-0.072130
O10	O	0.496410	-0.989406	0.427870
O11	O	0.186363	-1.299453	-0.072127
O12	O	0.686363	-0.799453	0.427873
O13	O	0.169610	-1.662605	-0.072127
O14	O	0.669610	-1.162605	0.427873
Cu15	Cu	0.176998	-1.482020	-0.085299
Cu16	Cu	0.676998	-0.982020	0.414701
Cu17	Cu	0.189805	-1.469188	0.085308
Cu18	Cu	0.689805	-0.969188	0.585308
O19	O	0.359563	-1.472652	-0.072123
O20	O	0.859563	-0.972652	0.427877
C21	C	0.190559	-1.247528	0.000005
C22	C	0.690559	-0.747528	0.500005
C23	C	0.186911	-1.108974	0.000005
C24	C	0.686911	-0.608974	0.500005
C25	C	0.073604	-0.917217	0.000003
C26	C	0.573604	-0.417217	0.500003
C27	C	0.077371	-1.060420	0.000003
C28	C	0.577371	-0.560420	0.500003
C29	C	-0.044675	-1.482761	0.000002
C30	C	0.455325	-0.982761	0.500002
C31	C	-0.183229	-1.479113	0.000005
C32	C	0.316771	-0.979113	0.500005
C33	C	-0.374986	-1.365806	0.000010
C34	C	0.125014	-0.865806	0.500010
C35	C	-0.231783	-1.369574	0.000007
C36	C	0.268217	-0.869574	0.500007
C37	C	0.411477	-1.468446	0.000009
C38	C	0.911477	-0.968446	0.500009
C39	C	0.550032	-1.472093	0.000011
C40	C	1.050032	-0.972093	0.500011
C41	C	0.176244	-0.703679	0.000005
C42	C	0.676244	-0.203679	0.500005
C43	C	0.179891	-0.842234	0.000005
C44	C	0.679891	-0.342234	0.500005
N45	N	0.198803	-1.460163	0.205304
N46	N	0.698803	-0.960163	0.705304
N47	N	0.167989	-1.491054	-0.205295
N48	N	0.667989	-0.991054	0.294705
C49	C	0.118263	-1.541018	0.250696
C50	C	0.618263	-1.041018	0.750696
C51	C	0.125066	-1.534191	0.341504
C52	C	0.625066	-1.034191	0.841504
C53	C	0.212404	-1.446501	0.386918
C54	C	0.712404	-0.946501	0.886918
C55	C	0.292953	-1.365643	0.341519
C56	C	0.792953	-0.865643	0.841519
C57	C	0.286155	-1.372477	0.250713
C58	C	0.786155	-0.872477	0.750713
C59	C	0.241741	-1.417030	0.658500
C60	C	0.741741	-0.917030	1.158500
C61	C	0.248530	-1.410199	0.749313
C62	C	0.748530	-0.910199	1.249313
C63	C	0.080643	-1.578750	0.749292
C64	C	0.580643	-1.078750	1.249292
C65	C	0.073848	-1.585571	0.658484
C66	C	0.573848	-1.085571	1.158484
C67	C	0.154402	-1.504717	0.613093
C68	C	0.654402	-1.004717	1.113093
N69	N	0.219357	-1.439518	0.479738
N70	N	0.719357	-0.939518	0.979738
N71	N	0.147454	-1.511707	0.520274
N72	N	0.647454	-1.011707	1.020274
H73	H	0.273677	-0.884056	0.000001
H74	H	0.773677	-0.384056	0.500001
H75	H	0.047138	-1.612419	0.213727
H76	H	0.547138	-1.112419	0.713727
H77	H	0.015062	-1.644579	0.786258
H78	H	0.515062	-1.144579	1.286258
H79	H	-0.167350	-1.278584	0.000000
H80	H	0.332650	-0.778584	0.500000
H81	H	0.059484	-1.600030	0.378463
H82	H	0.559484	-1.100030	0.878463
H83	H	0.277907	-1.044548	0.000010
H84	H	0.777907	-0.544548	0.500010
H85	H	0.002731	-1.656975	0.621510
H86	H	0.502731	-1.156975	1.121510
H87	H	-0.416807	-1.272020	0.000016
H88	H	0.083193	-0.772020	0.500016
H89	H	0.364072	-1.294248	0.378500
H90	H	0.864072	-0.794248	0.878500
H91	H	-0.247654	-1.570109	0.000003
H92	H	0.252346	-1.070109	0.500003
H93	H	-0.408144	-1.565877	0.000041
H94	H	0.091856	-1.065877	0.500041
H95	H	-0.020183	-0.875395	-0.000012
H96	H	0.479817	-0.375395	0.499988
H97	H	0.319655	-1.338787	0.786284
H98	H	0.819655	-0.838787	1.286284
H99	H	0.307328	-1.351193	0.621550
H100	H	0.807328	-0.851193	1.121550
H101	H	0.351741	-1.306638	0.213755
H102	H	0.851741	-0.806638	0.713755
H103	H	-0.013619	-1.124852	0.000006
H104	H	0.486381	-0.624852	0.500006
