data_functionalizedCrystal
_audit_creation_method	'MofGen! by Chris Wilmer'
_symmetry_space_group_name_H-M	'P1'
_symmetry_Int_Tables_number	1
_symmetry_cell_setting	triclinic
loop_
_symmetry_equiv_pos_as_xyz
  x,y,z
_cell_length_a	31.640172
_cell_length_b	27.440280
_cell_length_c	27.440280
_cell_angle_alpha	119.994654
_cell_angle_beta	89.990744
_cell_angle_gamma	60.004358
loop_
_atom_site_label
_atom_site_type_symbol
_atom_site_fract_x
_atom_site_fract_y
_atom_site_fract_z
Zr1	Zr	0.407240	0.533323	0.063881
O2	O	0.339759	0.634985	0.141700
O3	O	0.427918	0.431661	0.040026
O4	O	0.427927	0.533311	0.141687
O5	O	0.339753	0.533345	-0.040155
O6	O	0.497484	0.533301	0.141677
O7	O	0.339751	0.533336	0.040038
O8	O	0.497469	0.351468	-0.040177
O9	O	0.339768	0.715178	0.141699
O10	O	0.488657	0.473468	0.029843
O11	O	0.436749	0.473483	-0.029996
O12	O	0.436759	0.593162	0.089697
O13	O	0.384851	0.593177	0.029858
Zr14	Zr	0.518179	0.533322	-0.064035
Zr15	Zr	0.518175	0.533307	0.063864
Zr16	Zr	0.407243	0.533338	-0.064018
Zr17	Zr	0.407254	0.661221	0.063879
Zr18	Zr	0.518165	0.405424	-0.064034
O19	O	0.497500	0.634984	-0.040181
O20	O	0.497495	0.634962	0.141676
O21	O	0.339764	0.635007	-0.040156
O22	O	0.585659	0.431660	-0.141855
O23	O	0.585654	0.431638	0.040002
O24	O	0.427923	0.431683	-0.141830
O25	O	0.585666	0.533300	0.040000
O26	O	0.497492	0.533334	-0.141842
O27	O	0.427935	0.533344	-0.141832
O28	O	0.585668	0.533309	-0.040193
O29	O	0.427947	0.715165	0.141685
O30	O	0.497472	0.351480	-0.141840
O31	O	0.585650	0.351467	-0.141854
O32	O	0.585648	0.351455	-0.040191
O33	O	0.339771	0.715190	0.040036
O34	O	0.427950	0.715177	0.040023
O35	O	0.488660	0.473483	-0.089852
O36	O	0.540568	0.473468	-0.030012
O37	O	0.488670	0.593162	0.029842
O38	O	0.436762	0.593176	-0.029998
C39	C	0.462691	0.373342	-0.000075
C40	C	0.462685	0.319046	-0.000075
C41	C	0.323946	0.533343	-0.000056
C42	C	0.276851	0.533349	-0.000049
C43	C	0.489819	-0.017703	0.031153
C44	C	0.489824	-0.068727	0.031151
O45	O	0.512883	-0.095140	0.057698
N46	N	0.462728	-0.094236	-0.000083
C47	C	0.435630	-0.068723	-0.031323
O48	O	0.412584	-0.095106	-0.057891
C49	C	0.435629	-0.017703	-0.031324
C50	C	0.462722	0.007807	-0.000083
C51	C	0.516911	0.007807	0.062391
C52	C	0.516905	0.058828	0.062394
C53	C	0.489808	0.084339	0.031158
C54	C	0.462716	0.058829	-0.000080
C55	C	0.408534	0.007805	-0.062567
C56	C	0.408535	0.058828	-0.062566
C57	C	0.435629	0.084339	-0.031325
C58	C	0.435613	0.135361	-0.031314
N59	N	0.462709	0.160869	-0.000080
C60	C	0.489807	0.135359	0.031156
C61	C	0.435636	-0.175868	-0.031318
C62	C	0.435634	-0.226883	-0.031313
C63	C	0.489828	-0.226885	0.031160
C64	C	0.489827	-0.175866	0.031158
C65	C	0.462731	-0.150360	-0.000084
C66	C	0.489792	0.242507	0.031159
C67	C	0.489783	0.293535	0.031161
C68	C	0.435590	0.293530	-0.031315
C69	C	0.435598	0.242509	-0.031314
C70	C	0.462702	0.216997	-0.000076
O71	O	0.412568	0.161804	-0.057849
O72	O	0.512855	0.161741	0.057713
C73	C	0.011935	0.470837	-0.031333
C74	C	-0.165050	0.470825	-0.031344
O75	O	-0.164897	0.417689	-0.057937
N76	N	-0.214270	0.533304	-0.000100
C77	C	-0.219243	0.595790	0.031146
O78	O	-0.265168	0.648931	0.057715
C79	C	-0.042258	0.595801	0.031153
C80	C	0.006961	0.533318	-0.000088
C81	C	0.061152	0.408359	-0.062572
C82	C	0.105396	0.408363	-0.062566
C83	C	0.100422	0.470844	-0.031321
C84	C	0.051205	0.533322	-0.000082
C85	C	-0.047231	0.658286	0.062396
C86	C	-0.002980	0.658283	0.062393
C87	C	0.046239	0.595801	0.031152
C88	C	0.090474	0.595807	0.031169
N89	N	0.139694	0.533328	-0.000075
C90	C	0.144668	0.470847	-0.031320
C91	C	-0.312160	0.595779	0.031140
C92	C	-0.356406	0.595777	0.031139
C93	C	-0.302210	0.470812	-0.031352
C94	C	-0.257964	0.470815	-0.031347
C95	C	-0.262940	0.533301	-0.000104
C96	C	0.237580	0.470859	-0.031305
C97	C	0.281825	0.470868	-0.031294
C98	C	0.227625	0.595833	0.031194
C99	C	0.183384	0.595824	0.031186
C100	C	0.188365	0.533332	-0.000067
O101	O	0.090360	0.648915	0.057743
O102	O	0.190598	0.417713	-0.057896
C103	C	-0.032308	0.470833	-0.031339
C104	C	-0.081525	0.533311	-0.000099
C105	C	-0.086499	0.595792	0.031146
C106	C	-0.125771	0.533308	-0.000100
C107	C	-0.120798	0.470827	-0.031345
C108	C	-0.071578	0.408349	-0.062589
C109	C	-0.027334	0.408352	-0.062583
C110	C	-0.135719	0.658271	0.062389
C111	C	-0.179960	0.658262	0.062382
C112	C	-0.174986	0.595781	0.031137
C113	C	0.601473	0.533302	-0.000099
C114	C	0.648568	0.533295	-0.000106
C115	C	0.462705	0.533304	0.159905
C116	C	0.462703	0.533297	0.214202
C117	C	0.462727	0.693303	-0.000079
C118	C	0.462733	0.747599	-0.000080
C119	C	0.435615	0.595813	0.582179
C120	C	0.435616	0.595817	0.633201
O121	O	0.412592	0.648953	0.686160
N122	N	0.462704	0.533338	0.627475
C123	C	0.489799	0.470852	0.570723
O124	O	0.512840	0.417710	0.570538
C125	C	0.489801	0.470849	0.519702
C126	C	0.462706	0.533332	0.525432
C127	C	0.408523	0.658290	0.587907
C128	C	0.408521	0.658286	0.536888
C129	C	0.435612	0.595805	0.480141
C130	C	0.462704	0.533327	0.474413
C131	C	0.516898	0.408364	0.462950
C132	C	0.516898	0.408366	0.411929
C133	C	0.489803	0.470848	0.417659
C134	C	0.489794	0.470842	0.366648
N135	N	0.462705	0.533320	0.372373
C136	C	0.435614	0.595802	0.429120
C137	C	0.489793	0.470863	0.677873
C138	C	0.489788	0.470866	0.728892
C139	C	0.435606	0.595831	0.791367
C140	C	0.435608	0.595828	0.740346
C141	C	0.462704	0.533342	0.683598
C142	C	0.435613	0.595788	0.321975
C143	C	0.435612	0.595779	0.270948
C144	C	0.489797	0.470814	0.208478
C145	C	0.489795	0.470824	0.259499
C146	C	0.462703	0.533316	0.316249
O147	O	0.512808	0.417733	0.313670
O148	O	0.412582	0.648935	0.429295
C149	C	0.462710	0.533341	0.839940
C150	C	0.462699	0.533348	0.785644
C151	C	0.601455	0.373322	-0.000097
C152	C	0.648544	0.319019	-0.000103
C153	C	0.462696	0.373361	-0.160058
C154	C	0.462691	0.319071	-0.214354
C155	C	0.601459	0.373341	-0.160079
C156	C	0.648550	0.319044	-0.214382
C157	C	0.323959	0.693304	0.159924
C158	C	0.276869	0.747601	0.214228
C159	C	0.323964	0.693323	-0.000058
C160	C	0.276875	0.747626	-0.000051
C161	C	0.462723	0.693284	0.159903
C162	C	0.462727	0.747574	0.214199
C163	C	0.643560	0.293518	0.031143
C164	C	0.687801	0.242502	0.031149
C165	C	0.737025	0.216984	-0.000096
C166	C	0.742008	0.242490	-0.031343
C167	C	0.697767	0.293509	-0.031345
C168	C	0.489786	0.293576	-0.271101
C169	C	0.489780	0.242572	-0.322123
C170	C	0.462682	0.217061	-0.316396
C171	C	0.435583	0.242562	-0.259643
C172	C	0.435587	0.293568	-0.208622
C173	C	0.697764	0.293538	-0.208648
C174	C	0.742015	0.242528	-0.259667
C175	C	0.737050	0.217021	-0.316419
C176	C	0.687831	0.242532	-0.322152
C177	C	0.643581	0.293545	-0.271134
C178	C	0.227655	0.773113	0.208493
C179	C	0.183404	0.824139	0.259512
C180	C	0.188369	0.849648	0.316264
C181	C	0.237588	0.824134	0.321998
C182	C	0.281838	0.773113	0.270979
C183	C	0.281859	0.773132	-0.031292
C184	C	0.237618	0.824162	-0.031284
C185	C	0.188394	0.849682	-0.000038
C186	C	0.183411	0.824174	0.031207
C187	C	0.227651	0.773148	0.031202
C188	C	0.489831	0.773069	0.208453
C189	C	0.489845	0.824073	0.259465
C190	C	0.462753	0.849584	0.316222
C191	C	0.435648	0.824085	0.321967
C192	C	0.435637	0.773078	0.270956
H193	H	0.511845	0.314306	0.056604
H194	H	0.511849	0.221816	-0.368328
H195	H	0.152375	0.891230	-0.000038
H196	H	0.538963	0.357481	0.365722
H197	H	0.223584	0.646703	0.056635
C198	C	0.519596	0.321632	-0.277415
N199	N	0.542047	0.342765	-0.282176
H200	H	0.511916	0.844829	0.254776
C201	C	0.378768	-0.020291	-0.096981
N202	N	0.356361	-0.041469	-0.122921
C203	C	0.682308	0.214449	0.065518
N204	N	0.678170	0.193319	0.091403
C205	C	0.796151	0.214470	-0.253347
N206	N	0.836925	0.193335	-0.248585
C207	C	0.682378	0.214461	-0.384586
N208	N	0.678273	0.193313	-0.431612
H209	H	0.511864	0.221741	0.056595
H210	H	0.511845	0.419986	0.724219
C211	C	0.129260	0.852243	0.065566
N212	N	0.088471	0.873381	0.091439
C213	C	0.378726	0.086882	-0.096935
N214	N	0.356273	0.108012	-0.122821
H215	H	0.462683	0.175529	-0.357945
H216	H	0.773085	0.175483	-0.357957
H217	H	0.603510	0.314305	-0.275811
C218	C	0.129268	0.852194	0.253192
N219	N	0.088493	0.873323	0.248430
H220	H	0.321909	0.752341	0.275655
C221	C	0.589417	0.321582	0.065520
N222	N	0.548638	0.342720	0.091419
H223	H	0.773044	0.175441	-0.000090
C224	C	0.243111	0.852207	-0.065662
N225	N	0.247249	0.873326	-0.091557
C226	C	0.796159	0.214408	-0.065714
N227	N	0.836947	0.193251	-0.091606
C228	C	0.336001	0.745073	-0.065665
N229	N	0.376780	0.723946	-0.091552
H230	H	0.152333	0.891193	0.357802
H231	H	0.413590	0.844864	0.368186
H232	H	0.701832	0.314265	-0.056793
C233	C	0.405780	0.214488	-0.253353
N234	N	0.383335	0.193338	-0.248618
C235	C	0.335967	0.402130	-0.065664
N236	N	0.376745	0.350357	-0.091553
H237	H	0.413525	0.314319	-0.162418
C238	C	0.703238	0.321590	-0.146225
N239	N	0.707365	0.342719	-0.099209
C240	C	0.519595	0.402120	0.615450
N241	N	0.542042	0.350342	0.568435
C242	C	0.243040	0.852196	0.384431
N243	N	0.247146	0.873329	0.431457
H244	H	0.223586	0.752382	0.056640
H245	H	0.538962	0.357484	0.458272
H246	H	0.538969	0.079594	0.087831
H247	H	0.223602	0.752346	0.162287
C248	C	0.519641	0.745012	0.146025
N249	N	0.542098	0.723879	0.099005
C250	C	0.462769	0.905695	0.372331
N251	N	0.462782	0.947958	0.414590
C252	C	0.519636	-0.147813	0.065521
N253	N	0.542090	-0.126688	0.091403
H254	H	0.538979	-0.012961	0.087827
H255	H	0.511893	-0.247666	0.056593
C256	C	0.405825	-0.147815	-0.065688
N257	N	0.383374	-0.126690	-0.091578
C258	C	0.405811	0.745049	0.277287
N259	N	0.383342	0.723941	0.282059
H260	H	0.413565	-0.247642	-0.056746
H261	H	0.413529	0.221745	-0.056745
H262	H	0.413527	0.314312	-0.056744
H263	H	0.241643	0.419972	-0.056755
H264	H	0.511852	0.419944	0.162266
C265	C	0.159534	0.339627	-0.096939
N266	N	0.200309	0.287850	-0.122834
C267	C	0.519600	0.402090	0.253195
N268	N	0.542054	0.350319	0.248443
H269	H	-0.217890	0.419936	-0.056792
C270	C	0.066635	0.339619	-0.096940
N271	N	0.070770	0.287839	-0.122823
H272	H	-0.396480	0.646656	0.056586
C273	C	-0.101366	0.727023	0.096762
N274	N	-0.142141	0.778800	0.122648
C275	C	-0.008460	0.727024	0.096767
N276	N	-0.012588	0.778800	0.122659
C277	C	-0.317644	0.664523	0.065520
N278	N	-0.321777	0.716301	0.091420
H279	H	-0.298167	0.419937	-0.056789
H280	H	0.143307	0.646702	0.056633
H281	H	-0.067535	0.357474	-0.088027
C282	C	0.405804	0.664533	0.384394
N283	N	0.383348	0.716312	0.431407
C284	C	-0.234101	0.727003	0.096753
N285	N	-0.274878	0.778777	0.122636
H286	H	-0.139777	0.709151	0.087834
H287	H	0.413546	0.646662	0.275621
H288	H	0.386460	0.709166	0.541561
C289	C	0.405806	0.664562	0.746657
N290	N	0.383360	0.716336	0.751414
C291	C	0.378707	0.727031	0.650326
N292	N	0.356241	0.778811	0.697339
H293	H	0.012739	0.357472	-0.088024
H294	H	0.413546	0.646706	0.837582
