data_functionalizedCrystal
_audit_creation_method	'MofGen! by Chris Wilmer'
_symmetry_space_group_name_H-M	'P1'
_symmetry_Int_Tables_number	1
_symmetry_cell_setting	triclinic
loop_
_symmetry_equiv_pos_as_xyz
  x,y,z
_cell_length_a	12.827893
_cell_length_b	21.295417
_cell_length_c	12.827893
_cell_angle_alpha	90.014534
_cell_angle_beta	90.003786
_cell_angle_gamma	90.029863
loop_
_atom_site_label
_atom_site_type_symbol
_atom_site_fract_x
_atom_site_fract_y
_atom_site_fract_z
Zn1	Zn	1.597406	-0.250716	0.590795
Zn2	Zn	2.097406	0.249284	1.090795
Zn3	Zn	1.597304	-0.355957	0.416034
Zn4	Zn	2.097304	0.144043	0.916034
Zn5	Zn	1.422695	-0.250706	0.416069
Zn6	Zn	1.922695	0.249294	0.916069
Zn7	Zn	1.422589	-0.355952	0.590733
Zn8	Zn	1.922589	0.144048	1.090733
O9	O	1.509998	-0.303332	0.503408
O10	O	2.009998	0.196668	1.003408
O11	O	1.743628	-0.264683	0.567624
O12	O	2.243628	0.235317	1.067624
O13	O	1.574143	-0.341993	0.269802
O14	O	2.074143	0.158007	0.769802
O15	O	1.445957	-0.162618	0.439288
O16	O	1.945957	0.337382	0.939288
O17	O	1.743553	-0.342003	0.439227
O18	O	2.243553	0.157997	0.939227
O19	O	1.574317	-0.162625	0.567658
O20	O	2.074317	0.337375	1.067658
O21	O	1.445858	-0.264665	0.269828
O22	O	1.945858	0.235335	0.769828
O23	O	1.276445	-0.264660	0.439228
O24	O	1.776445	0.235340	0.939228
O25	O	1.445777	-0.341994	0.736978
O26	O	1.945777	0.158006	1.236978
O27	O	1.276367	-0.341984	0.567553
O28	O	1.776367	0.158016	1.067553
O29	O	1.574215	-0.264678	0.737023
O30	O	2.074215	0.235322	1.237023
O31	O	1.574040	-0.444045	0.439167
O32	O	2.074040	0.055955	0.939167
O33	O	1.445678	-0.444042	0.567518
O34	O	1.945678	0.055958	1.067518
C35	C	1.238488	-0.303321	0.503388
C36	C	1.738488	0.196679	1.003388
C37	C	1.122335	-0.303331	0.503404
C38	C	1.622335	0.196669	1.003404
C39	C	1.070587	-0.265139	0.567038
C40	C	1.570587	0.234861	1.067038
C41	C	0.950537	-0.265148	0.567056
C42	C	1.450537	0.234852	1.067056
C43	C	1.509865	-0.466884	0.503355
C44	C	2.009865	0.033116	1.003355
C45	C	1.509904	-0.536852	0.503367
C46	C	2.009904	-0.036852	1.003367
C47	C	1.576702	-0.569666	0.570258
C48	C	2.076702	-0.069666	1.070258
C49	C	1.576739	-0.635408	0.570283
C50	C	2.076739	-0.135408	1.070283
C51	C	1.509988	-0.668335	0.503400
C52	C	2.009988	-0.168335	1.003400
C53	C	1.443177	-0.635513	0.436505
C54	C	1.943177	-0.135513	0.936505
C55	C	1.443134	-0.569772	0.436489
C56	C	1.943134	-0.069772	0.936489
N57	N	1.502117	-0.771581	0.411945
N58	N	2.002117	-0.271581	0.911945
N59	N	1.502164	-0.834033	0.411963
N60	N	2.002164	-0.334033	0.911963
C61	C	1.510110	-0.866409	0.503447
C62	C	2.010110	-0.366409	1.003447
N63	N	1.518030	-0.833975	0.594914
N64	N	2.018030	-0.333975	1.094914
N65	N	1.517989	-0.771518	0.594894
N66	N	2.017989	-0.271518	1.094894
C67	C	1.510026	-0.739620	0.503411
C68	C	2.010026	-0.239620	1.003411
C69	C	1.576953	-0.970508	0.570371
C70	C	2.076953	-0.470508	1.070371
C71	C	1.576982	-1.036252	0.570399
C72	C	2.076982	-0.536252	1.070399
C73	C	1.443425	-1.036356	0.436611
C74	C	1.943425	-0.536356	0.936611
C75	C	1.443390	-0.970613	0.436593
C76	C	1.943390	-0.470613	0.936593
C77	C	1.510159	-0.937694	0.503472
C78	C	2.010159	-0.437694	1.003472
C79	C	1.782568	-0.303345	0.503428
C80	C	2.282568	0.196655	1.003428
C81	C	1.898721	-0.303350	0.503437
C82	C	2.398721	0.196650	1.003437
C83	C	1.509996	-0.303337	0.775978
C84	C	2.009996	0.196663	1.275978
C85	C	1.509995	-0.303338	0.892131
C86	C	2.009995	0.196662	1.392131
C87	C	1.510160	-0.139142	0.503484
C88	C	2.010160	0.360858	1.003484
C89	C	1.510229	-0.069174	0.503516
C90	C	2.010229	0.430826	1.003516
C91	C	1.573542	-0.265085	0.943938
C92	C	2.073542	0.234915	1.443938
C93	C	1.573543	-0.265086	1.063989
C94	C	2.073543	0.234914	1.563989
C95	C	1.509993	-0.303342	1.231898
C96	C	2.009993	0.196658	1.731898
C97	C	1.509994	-0.303341	1.115745
C98	C	2.009994	0.196659	1.615745
H99	H	0.943217	-0.336053	0.448961
H100	H	1.443217	0.163947	0.948961
H101	H	1.115161	-0.232431	0.621500
H102	H	1.615161	0.267569	1.121500
H103	H	1.388738	-0.543055	0.382018
H104	H	1.888738	-0.043055	0.882018
O105	O	1.641686	-0.667357	0.635121
O106	O	2.141686	-0.167357	1.135121
C107	C	1.709271	-0.705349	0.575690
C108	C	2.209271	-0.205349	1.075690
H109	H	1.672481	-0.715240	0.496469
H110	H	2.172481	-0.215240	0.996469
H111	H	1.723278	-0.751559	0.618282
H112	H	2.223278	-0.251559	1.118282
H113	H	1.786704	-0.679971	0.564264
H114	H	2.286704	-0.179971	1.064264
H115	H	1.455583	-0.336085	0.936654
H116	H	1.955583	0.163915	1.436654
O117	O	0.897341	-0.226226	0.632105
O118	O	1.397341	0.273774	1.132105
C119	C	0.834219	-0.262170	0.699462
C120	C	1.334219	0.237830	1.199462
H121	H	0.817936	-0.309850	0.662449
H122	H	1.317936	0.190150	1.162449
H123	H	0.757441	-0.236591	0.713488
H124	H	1.257441	0.263409	1.213488
H125	H	0.876233	-0.269133	0.776915
H126	H	1.376233	0.230867	1.276915
O127	O	1.069285	-0.342438	0.438475
O128	O	1.569285	0.157562	0.938475
C129	C	1.095823	-0.405212	0.461115
C130	C	1.595823	0.094788	0.961115
H131	H	1.175105	-0.406592	0.501199
H132	H	1.675105	0.093408	1.001199
H133	H	1.099412	-0.433370	0.385607
H134	H	1.599412	0.066630	0.885607
H135	H	1.034414	-0.426436	0.514842
H136	H	1.534414	0.073564	1.014842
O137	O	1.641589	-0.537786	0.635324
O138	O	2.141589	-0.037786	1.135324
C139	C	1.700576	-0.580851	0.694349
C140	C	2.200576	-0.080851	1.194349
H141	H	1.657798	-0.627736	0.697943
H142	H	2.157798	-0.127736	1.197943
H143	H	1.711650	-0.561831	0.776690
H144	H	2.211650	-0.061831	1.276690
H145	H	1.779975	-0.587809	0.656147
H146	H	2.279975	-0.087809	1.156147
H147	H	1.388826	-0.662326	0.382051
H148	H	1.888826	-0.162326	0.882051
H149	H	1.631317	-0.943704	0.624831
H150	H	2.131317	-0.443704	1.124831
O151	O	1.445199	-0.342508	1.062653
O152	O	1.945199	0.157492	1.562653
C153	C	1.467939	-0.405261	1.089244
C154	C	1.967939	0.094739	1.589244
H155	H	1.551391	-0.408456	1.119327
H156	H	2.051391	0.091544	1.619327
H157	H	1.458982	-0.436321	1.017402
H158	H	1.958982	0.063679	1.517402
H159	H	1.411835	-0.421750	1.152502
H160	H	1.911835	0.078250	1.652502
O161	O	1.641976	-1.068032	0.635411
O162	O	2.141976	-0.568032	1.135411
C163	C	1.700878	-1.024875	0.694446
C164	C	2.200878	-0.524875	1.194446
H165	H	1.704496	-0.978021	0.651633
H166	H	2.204496	-0.478021	1.151633
H167	H	1.783218	-1.043823	0.705658
H168	H	2.283218	-0.543823	1.205658
H169	H	1.662554	-1.017884	0.773783
H170	H	2.162554	-0.517884	1.273783
H171	H	1.389069	-1.063164	0.382160
H172	H	1.889069	-0.563164	0.882160
O173	O	1.378478	-0.938832	0.371506
O174	O	1.878478	-0.438832	0.871506
C175	C	1.319550	-0.981989	0.312495
C176	C	1.819550	-0.481989	0.812495
H177	H	1.362384	-1.028829	0.308929
H178	H	1.862384	-0.528829	0.808929
H179	H	1.308462	-0.963020	0.230144
H180	H	1.808462	-0.463020	0.730144
H181	H	1.240155	-0.989013	0.350692
H182	H	1.740155	-0.489013	0.850692
O183	O	1.638308	-0.225982	0.890716
O184	O	2.138308	0.274018	1.390716
C185	C	1.578797	-0.185344	0.827613
C186	C	2.078797	0.314656	1.327613
H187	H	1.499563	-0.207548	0.811356
H188	H	1.999563	0.292452	1.311356
H189	H	1.621300	-0.176955	0.750822
H190	H	2.121300	0.323045	1.250822
H191	H	1.567406	-0.138670	0.869631
H192	H	2.067406	0.361330	1.369631
H193	H	1.627952	-0.232337	1.108542
H194	H	2.127952	0.267663	1.608542
