data_functionalizedCrystal
_audit_creation_method	'MofGen! by Chris Wilmer'
_symmetry_space_group_name_H-M	'P1'
_symmetry_Int_Tables_number	1
_symmetry_cell_setting	triclinic
loop_
_symmetry_equiv_pos_as_xyz
  x,y,z
_cell_length_a	12.594517
_cell_length_b	17.077402
_cell_length_c	17.077396
_cell_angle_alpha	90.029784
_cell_angle_beta	89.980091
_cell_angle_gamma	89.977317
loop_
_atom_site_label
_atom_site_type_symbol
_atom_site_fract_x
_atom_site_fract_y
_atom_site_fract_z
Zn1	Zn	1.627202	0.312512	-0.443844
Zn2	Zn	1.627076	0.443787	-0.312575
Zn3	Zn	1.449210	0.312539	-0.312591
Zn4	Zn	1.449166	0.443740	-0.443798
O5	O	1.538163	0.378145	-0.378202
O6	O	1.776131	0.329935	-0.426444
O7	O	1.603447	0.426408	-0.202730
O8	O	1.472892	0.202688	-0.330028
O9	O	1.776038	0.426382	-0.330001
O10	O	1.603661	0.202669	-0.426459
O11	O	1.472770	0.329980	-0.202742
O12	O	1.300258	0.329934	-0.329983
O13	O	1.472818	0.426301	-0.553651
O14	O	1.300226	0.426327	-0.426380
O15	O	1.603619	0.329889	-0.553685
O16	O	1.603405	0.553628	-0.329956
O17	O	1.472696	0.553593	-0.426365
C18	C	1.538061	0.582092	-0.378171
C19	C	1.538114	0.669342	-0.378184
C20	C	1.261622	0.378129	-0.378179
C21	C	1.143317	0.378141	-0.378188
C22	C	1.538228	0.378087	-0.582946
C23	C	1.538255	0.378062	-0.670196
C24	C	1.074050	0.325641	-0.325857
C25	C	1.003228	0.397243	-0.306544
C26	C	1.003340	0.306575	-0.397514
C27	C	1.074053	0.449780	-0.358837
C28	C	1.074171	0.359063	-0.449841
C29	C	1.003381	0.430714	-0.430554
C30	C	1.815784	0.378161	-0.378226
C31	C	1.934090	0.378168	-0.378236
C32	C	1.538295	0.173400	-0.378251
C33	C	1.538352	0.086150	-0.378271
C34	C	1.606244	0.710324	-0.328037
C35	C	1.606296	0.792305	-0.328057
C36	C	1.538212	0.833302	-0.378220
C37	C	1.470079	0.792314	-0.428372
C38	C	1.470033	0.710335	-0.428355
C39	C	1.470178	0.963184	-0.428402
C40	C	1.470222	1.045168	-0.428418
C41	C	1.606440	1.045154	-0.328104
C42	C	1.606394	0.963175	-0.328087
C43	C	1.538260	0.922193	-0.378238
C44	C	1.606366	0.327856	-0.711205
C45	C	1.606379	0.327830	-0.793186
C46	C	1.538285	0.378014	-0.834156
C47	C	1.470167	0.428223	-0.793141
C48	C	1.470150	0.428244	-0.711162
C49	C	1.470210	0.428175	-0.964011
C50	C	1.470228	0.428155	-1.045996
C51	C	1.606439	0.327761	-1.046035
C52	C	1.606422	0.327783	-0.964056
C53	C	1.538304	0.377992	-0.923047
C54	C	1.538160	0.378145	-0.174254
C55	C	1.538339	0.377949	-0.087005
H56	H	1.105080	0.281288	-0.281549
H57	H	1.414778	0.469018	-1.079351
H58	H	1.661773	0.825669	-0.287223
H59	H	1.414725	0.469049	-0.930624
O60	O	1.672579	0.923262	-0.279468
C61	C	1.816271	0.830653	-0.268994
C62	C	1.741366	0.875793	-0.324141
H63	H	1.871918	0.792276	-0.305091
H64	H	1.767467	0.792279	-0.227924
H65	H	1.864929	0.874038	-0.233135
H66	H	1.692691	0.832465	-0.360051
H67	H	1.790230	0.914179	-0.365160
O68	O	1.672708	1.085081	-0.279545
C69	C	1.733369	1.211367	-0.235270
C70	C	1.658222	1.166244	-0.290262
H71	H	1.721667	1.276996	-0.243904
H72	H	1.819143	1.195180	-0.249220
H73	H	1.714877	1.195323	-0.171927
H74	H	1.676618	1.182265	-0.353623
H75	H	1.572470	1.182436	-0.276245
O76	O	1.404063	1.084872	-0.477226
C77	C	1.268929	1.076240	-0.576708
C78	C	1.343812	1.031178	-0.521482
H79	H	1.220180	1.032848	-0.612491
H80	H	1.317749	1.114540	-0.617837
H81	H	1.213364	1.114703	-0.540633
H82	H	1.399393	0.992673	-0.557494
H83	H	1.294926	0.992929	-0.480350
H84	H	1.414676	0.469119	-0.677773
O85	O	1.404171	0.477054	-0.832973
C86	C	1.389800	0.582978	-0.925536
C87	C	1.464660	0.527735	-0.880464
H88	H	1.438674	0.623956	-0.963956
H89	H	1.341132	0.618922	-0.882177
H90	H	1.334159	0.546908	-0.963884
H91	H	1.520366	0.563745	-0.842114
H92	H	1.513254	0.491788	-0.923865
O93	O	1.111438	0.339907	-0.522104
C94	C	1.215262	0.380296	-0.633525
C95	C	1.173100	0.402111	-0.551704
H96	H	1.265142	0.430570	-0.657475
H97	H	1.145600	0.368795	-0.674554
H98	H	1.266319	0.325340	-0.629094
H99	H	1.122059	0.457078	-0.556060
H100	H	1.242811	0.413562	-0.510707
O101	O	1.404146	0.923334	-0.477201
C102	C	1.389692	0.830668	-0.583116
C103	C	1.464593	0.875764	-0.527919
H104	H	1.438532	0.792184	-0.624125
H105	H	1.341051	0.874011	-0.619030
H106	H	1.334027	0.792381	-0.547011
H107	H	1.520322	0.914051	-0.563963
H108	H	1.513159	0.832379	-0.492003
O109	O	1.403795	0.832048	-0.477064
C110	C	1.222725	0.857243	-0.515022
C111	C	1.297675	0.812185	-0.459842
H112	H	1.136910	0.841213	-0.501107
H113	H	1.241273	0.841052	-0.578340
H114	H	1.234510	0.922872	-0.506434
H115	H	1.285932	0.746546	-0.468360
H116	H	1.279109	0.828441	-0.396545
O117	O	1.672228	0.670468	-0.279224
C118	C	1.686584	0.577945	-0.173265
C119	C	1.611731	0.623044	-0.228484
H120	H	1.637703	0.539580	-0.132239
H121	H	1.735270	0.621286	-0.137371
H122	H	1.742209	0.539540	-0.209351
H123	H	1.556041	0.661451	-0.192458
H124	H	1.563119	0.579661	-0.264380
O125	O	0.966096	0.416385	-0.234234
C126	C	0.960025	0.382720	-0.097295
C127	C	1.002122	0.360949	-0.179146
H128	H	0.989154	0.337921	-0.052731
H129	H	0.869514	0.383070	-0.098111
H130	H	0.990303	0.443329	-0.080442
H131	H	0.971922	0.300336	-0.196050
H132	H	1.092631	0.360652	-0.178286
O133	O	0.966102	0.234398	-0.416953
C134	C	0.812139	0.153771	-0.439518
C135	C	0.854163	0.235543	-0.417487
H136	H	0.721632	0.154673	-0.439974
H137	H	0.841092	0.109050	-0.394812
H138	H	0.842595	0.137063	-0.500140
H139	H	0.823725	0.252325	-0.356884
H140	H	0.825219	0.280216	-0.462244
H141	H	1.104985	0.510332	-0.342443
O142	O	1.404004	0.670485	-0.477149
C143	C	1.389562	0.577823	-0.583070
C144	C	1.464456	0.622917	-0.527867
H145	H	1.438406	0.539341	-0.624078
H146	H	1.340923	0.621167	-0.618984
H147	H	1.333894	0.539534	-0.546970
H148	H	1.520189	0.661207	-0.563906
H149	H	1.513020	0.579531	-0.491950
H150	H	0.972547	0.475174	-0.474829
H151	H	1.661819	0.286992	-0.677854
O152	O	1.672647	0.279038	-0.832901
C153	C	1.807711	0.179437	-0.824288
C154	C	1.732732	0.234670	-0.779215
H155	H	1.856293	0.143540	-0.780903
H156	H	1.863417	0.215434	-0.862647
H157	H	1.758866	0.138408	-0.862692
H158	H	1.781491	0.275710	-0.740769
H159	H	1.677023	0.198624	-0.740905
H160	H	1.661875	0.286923	-0.930701
O161	O	1.672706	0.278959	-1.085746
C162	C	1.807766	0.179355	-1.077133
C163	C	1.732790	0.234590	-1.032060
H164	H	1.856348	0.143457	-1.033748
H165	H	1.863473	0.215350	-1.115493
H166	H	1.758919	0.138327	-1.115536
H167	H	1.781551	0.275629	-0.993615
H168	H	1.677080	0.198546	-0.993750
