data_functionalizedCrystal
_audit_creation_method	'MofGen! by Chris Wilmer'
_symmetry_space_group_name_H-M	'P1'
_symmetry_Int_Tables_number	1
_symmetry_cell_setting	triclinic
loop_
_symmetry_equiv_pos_as_xyz
  x,y,z
_cell_length_a	16.992694
_cell_length_b	19.188924
_cell_length_c	15.455313
_cell_angle_alpha	92.653849
_cell_angle_beta	87.142206
_cell_angle_gamma	86.905094
loop_
_atom_site_label
_atom_site_type_symbol
_atom_site_fract_x
_atom_site_fract_y
_atom_site_fract_z
O1	O	1.043321	0.145161	-0.072029
O2	O	1.376655	0.478494	0.261305
O3	O	1.709988	0.811827	0.594638
O4	O	0.815043	0.143536	-0.072054
O5	O	1.148376	0.476869	0.261279
O6	O	1.481710	0.810203	0.594613
O7	O	0.935772	0.043078	-0.072030
O8	O	1.269105	0.376412	0.261303
O9	O	1.602439	0.709745	0.594636
O10	O	0.922592	0.245618	-0.072052
O11	O	1.255926	0.578952	0.261281
O12	O	1.589259	0.912285	0.594614
O13	O	0.928868	0.048798	0.072230
O14	O	1.262202	0.382131	0.405564
O15	O	1.595535	0.715464	0.738897
O16	O	0.808139	0.149255	0.072207
O17	O	1.141472	0.482589	0.405540
O18	O	1.474806	0.815922	0.738873
O19	O	1.036418	0.150880	0.072232
O20	O	1.369751	0.484213	0.405566
O21	O	1.703084	0.817547	0.738899
Cu22	Cu	0.921648	0.150590	0.085392
Cu23	Cu	1.254981	0.483923	0.418725
Cu24	Cu	1.588315	0.817257	0.752058
Cu25	Cu	0.929813	0.143826	-0.085213
Cu26	Cu	1.263146	0.477159	0.248120
Cu27	Cu	1.596479	0.810493	0.581453
O28	O	0.915688	0.251338	0.072209
O29	O	1.249022	0.584671	0.405542
O30	O	1.582355	0.918004	0.738875
C31	C	0.782386	0.144306	0.000073
C32	C	1.115719	0.477640	0.333407
C33	C	1.449053	0.810973	0.666740
C34	C	0.695364	0.138073	0.000064
C35	C	1.028697	0.471406	0.333397
C36	C	1.362030	0.804740	0.666731
C37	C	0.931894	0.019902	0.000101
C38	C	1.265228	0.353235	0.333434
C39	C	1.598561	0.686569	0.666767
C40	C	0.930616	-0.057677	0.000103
C41	C	1.263949	0.275656	0.333436
C42	C	1.597282	0.608989	0.666770
C43	C	0.644916	0.198212	0.000058
C44	C	0.978249	0.531546	0.333391
C45	C	1.311582	0.864879	0.666725
C46	C	0.563149	0.192352	0.000071
C47	C	0.896482	0.525686	0.333404
C48	C	1.229815	0.859019	0.666737
C49	C	0.531832	0.126352	0.000083
C50	C	0.865165	0.459685	0.333416
C51	C	1.198498	0.793018	0.666750
C52	C	0.582286	0.066208	0.000091
C53	C	0.915619	0.399541	0.333425
C54	C	1.248953	0.732875	0.666758
C55	C	0.664051	0.072069	0.000085
C56	C	0.997385	0.405402	0.333418
C57	C	1.330718	0.738736	0.666752
C58	C	0.288317	0.102060	0.000109
C59	C	0.621650	0.435393	0.333442
C60	C	0.954983	0.768727	0.666775
C61	C	0.206545	0.096203	0.000113
C62	C	0.539879	0.429537	0.333446
C63	C	0.873212	0.762870	0.666779
C64	C	0.187413	0.222348	0.000093
C65	C	0.520747	0.555682	0.333427
C66	C	0.854080	0.889015	0.666760
C67	C	0.269181	0.228203	0.000082
C68	C	0.602514	0.561537	0.333415
C69	C	0.935848	0.894870	0.666749
C70	C	0.319628	0.168060	0.000095
C71	C	0.652961	0.501393	0.333428
C72	C	0.986295	0.834726	0.666762
N73	N	0.448253	0.120360	0.000093
N74	N	0.781586	0.453693	0.333426
N75	N	1.114920	0.787027	0.666760
N76	N	0.403205	0.174052	0.000091
N77	N	0.736538	0.507386	0.333424
N78	N	1.069871	0.840719	0.666758
C79	C	0.933782	-0.097229	-0.078534
C80	C	1.267115	0.236104	0.254800
C81	C	1.600449	0.569438	0.588133
C82	C	0.932570	-0.170123	-0.078541
C83	C	1.265903	0.163211	0.254793
C84	C	1.599236	0.496544	0.588126
C85	C	0.928207	-0.203463	0.000094
C86	C	1.261540	0.129870	0.333427
C87	C	1.594873	0.463203	0.666761
C88	C	0.925035	-0.163902	0.078741
C89	C	1.258369	0.169431	0.412075
C90	C	1.591702	0.502764	0.745408
C91	C	0.926240	-0.091009	0.078746
C92	C	1.259573	0.242324	0.412079
C93	C	1.592906	0.575657	0.745412
N94	N	0.968126	-0.318306	0.058625
N95	N	1.301459	0.015027	0.391958
N96	N	1.634793	0.348361	0.725291
N97	N	0.966984	-0.387552	0.058615
N98	N	1.300317	-0.054218	0.391948
N99	N	1.633650	0.279115	0.725282
C100	C	0.924576	-0.423085	0.000085
C101	C	1.257909	-0.089752	0.333419
C102	C	1.591243	0.243581	0.666752
N103	N	0.883364	-0.386758	-0.058448
N104	N	1.216697	-0.053425	0.274885
N105	N	1.550031	0.279908	0.608219
N106	N	0.884510	-0.317507	-0.058441
N107	N	1.217843	0.015826	0.274893
N108	N	1.551176	0.349160	0.608226
C109	C	0.926900	-0.282503	0.000098
C110	C	1.260233	0.050830	0.333431
C111	C	1.593566	0.384164	0.666765
C112	C	0.926427	-0.541677	-0.078564
C113	C	1.259760	-0.208343	0.254769
C114	C	1.593094	0.124990	0.588102
C115	C	0.925210	-0.614572	-0.078568
C116	C	1.258543	-0.281238	0.254766
C117	C	1.591876	0.052095	0.588099
C118	C	0.917683	-0.608350	0.078716
C119	C	1.251017	-0.275017	0.412050
C120	C	1.584350	0.058317	0.745383
C121	C	0.918893	-0.535456	0.078717
C122	C	1.252226	-0.202123	0.412051
C123	C	1.585559	0.131210	0.745384
C124	C	0.923268	-0.502124	0.000075
C125	C	1.256602	-0.168791	0.333408
C126	C	1.589935	0.164542	0.666741
C127	C	1.069075	0.150109	0.000103
C128	C	1.402408	0.483443	0.333436
C129	C	1.735741	0.816776	0.666770
C130	C	1.156097	0.156343	0.000107
C131	C	1.489431	0.489676	0.333440
C132	C	1.822764	0.823009	0.666773
C133	C	0.919566	0.274514	0.000075
C134	C	1.252900	0.607847	0.333409
C135	C	1.586233	0.941180	0.666742
C136	C	0.920845	0.352093	0.000068
C137	C	1.254179	0.685426	0.333401
C138	C	1.587512	1.018760	0.666734
N139	N	0.915911	0.155347	0.205386
N140	N	1.249245	0.488680	0.538719
N141	N	1.582578	0.822014	0.872053
N142	N	0.935555	0.139064	-0.205208
N143	N	1.268889	0.472397	0.128125
N144	N	1.602222	0.805730	0.461459
C145	C	0.967219	0.112687	0.250790
C146	C	1.300552	0.446020	0.584124
C147	C	1.633886	0.779354	0.917457
C148	C	0.962888	0.116291	0.341597
C149	C	1.296221	0.449625	0.674931
C150	C	1.629554	0.782958	1.008264
C151	C	0.907252	0.162560	0.386998
C152	C	1.240585	0.495893	0.720332
C153	C	1.573919	0.829227	1.053665
C154	C	0.855939	0.205222	0.341588
C155	C	1.189272	0.538555	0.674921
C156	C	1.522605	0.871889	1.008255
C157	C	0.860267	0.201613	0.250783
C158	C	1.193600	0.534947	0.584116
C159	C	1.526934	0.868280	0.917449
C160	C	0.888570	0.178117	0.658576
C161	C	1.221904	0.511450	0.991910
C162	C	1.555237	0.844784	1.325243
C163	C	0.884248	0.181724	0.749388
C164	C	1.217581	0.515057	1.082721
C165	C	1.550914	0.848390	1.416055
C166	C	0.991196	0.092792	0.749391
C167	C	1.324530	0.426125	1.082724
C168	C	1.657863	0.759459	1.416058
C169	C	0.995523	0.089191	0.658584
C170	C	1.328856	0.422524	0.991917
C171	C	1.662189	0.755857	1.325251
C172	C	0.944207	0.131850	0.613181
C173	C	1.277540	0.465183	0.946515
C174	C	1.610873	0.798516	1.279848
N175	N	0.902825	0.166247	0.479818
N176	N	1.236158	0.499580	0.813151
N177	N	1.569492	0.832914	1.146484
N178	N	0.948630	0.128159	0.520364
N179	N	1.281964	0.461492	0.853697
N180	N	1.615297	0.794825	1.187030
H181	H	0.670407	0.251957	0.000047
H182	H	1.003740	0.585290	0.333381
H183	H	1.337074	0.918624	0.666714
H184	H	0.818486	0.236351	0.213815
H185	H	1.151819	0.569684	0.547149
H186	H	1.485152	0.903018	0.880482
H187	H	0.181051	0.042455	0.000122
H188	H	0.514384	0.375788	0.333455
H189	H	0.847718	0.709122	0.666788
H190	H	1.012527	0.075013	0.213831
H191	H	1.345860	0.408347	0.547164
H192	H	1.679193	0.741680	0.880497
H193	H	0.846788	0.212853	0.621617
H194	H	1.180122	0.546187	0.954950
H195	H	1.513455	0.879520	1.288283
H196	H	0.916321	-0.503253	0.142752
H197	H	1.249654	-0.169920	0.476086
H198	H	1.582987	0.163413	0.809419
H199	H	0.935144	-0.202332	-0.142578
H200	H	1.268477	0.131002	0.190755
H201	H	1.601810	0.464335	0.524089
H202	H	0.522076	0.241324	0.000065
H203	H	0.855410	0.574658	0.333398
H204	H	1.188743	0.907991	0.666732
H205	H	0.927785	-0.646773	-0.142606
H206	H	1.261118	-0.313440	0.190727
H207	H	1.594451	0.019893	0.524061
H208	H	0.923658	-0.058806	0.142783
H209	H	1.256991	0.274527	0.476117
H210	H	1.590324	0.607860	0.809450
H211	H	0.810635	0.242892	0.378559
H212	H	1.143968	0.576226	0.711892
H213	H	1.477302	0.909559	1.045225
H214	H	0.838940	0.219404	0.786349
H215	H	1.172273	0.552737	1.119683
H216	H	1.505607	0.886071	1.453016
H217	H	0.929986	-0.514536	-0.142600
H218	H	1.263319	-0.181203	0.190733
H219	H	1.596652	0.152131	0.524067
H220	H	0.329381	0.053086	0.000120
H221	H	0.662715	0.386420	0.333453
H222	H	0.996048	0.719753	0.666787
H223	H	0.294673	0.281947	0.000062
H224	H	0.628007	0.615281	0.333395
H225	H	0.961340	0.948614	0.666729
H226	H	0.705126	0.023097	0.000089
H227	H	1.038459	0.356430	0.333423
H228	H	1.371793	0.689764	0.666756
H229	H	0.146331	0.271314	0.000085
H230	H	0.479664	0.604647	0.333418
H231	H	0.812998	0.937980	0.666751
H232	H	0.556781	0.012469	0.000114
H233	H	0.890114	0.345803	0.333447
H234	H	1.223448	0.679136	0.666780
H235	H	1.040826	0.051515	0.621620
H236	H	1.374159	0.384848	0.954953
H237	H	1.707492	0.718182	1.288287
H238	H	0.937343	-0.070095	-0.142571
H239	H	1.270676	0.263239	0.190762
H240	H	1.604009	0.596572	0.524096
H241	H	1.032974	0.058060	0.786366
H242	H	1.366308	0.391393	1.119700
H243	H	1.699641	0.724727	1.453033
H244	H	0.914125	-0.635495	0.142742
H245	H	1.247458	-0.302161	0.476075
H246	H	1.580791	0.031172	0.809409
H247	H	0.921481	-0.191053	0.142766
H248	H	1.254814	0.142281	0.476099
H249	H	1.588147	0.475614	0.809433
H250	H	1.004666	0.081554	0.378565
H251	H	1.337999	0.414887	0.711898
H252	H	1.671333	0.748220	1.045232
