data_functionalizedCrystal
_audit_creation_method	'MofGen! by Chris Wilmer'
_symmetry_space_group_name_H-M	'P1'
_symmetry_Int_Tables_number	1
_symmetry_cell_setting	triclinic
loop_
_symmetry_equiv_pos_as_xyz
  x,y,z
_cell_length_a	15.298068
_cell_length_b	16.120444
_cell_length_c	15.298259
_cell_angle_alpha	82.663646
_cell_angle_beta	91.587309
_cell_angle_gamma	103.030534
loop_
_atom_site_label
_atom_site_type_symbol
_atom_site_fract_x
_atom_site_fract_y
_atom_site_fract_z
Zn1	Zn	1.252523	-0.015347	-0.728111
Zn2	Zn	1.752523	0.484653	-0.228111
Zn3	Zn	1.267798	-0.174649	-0.588631
Zn4	Zn	1.767798	0.325351	-0.088631
Zn5	Zn	1.128437	-0.062361	-0.558327
Zn6	Zn	1.628437	0.437639	-0.058327
Zn7	Zn	1.095542	-0.182690	-0.710020
Zn8	Zn	1.595542	0.317310	-0.210020
O9	O	1.186075	-0.108762	-0.646272
O10	O	1.686075	0.391238	-0.146272
O11	O	1.378570	-0.013438	-0.729862
O12	O	1.878570	0.486562	-0.229862
O13	O	1.269471	-0.176064	-0.462754
O14	O	1.769471	0.323936	0.037246
O15	O	1.152272	0.060902	-0.575739
O16	O	1.652272	0.560902	-0.075739
O17	O	1.389792	-0.130476	-0.627386
O18	O	1.889792	0.369524	-0.127386
O19	O	1.243438	0.095443	-0.700478
O20	O	1.743438	0.595443	-0.200478
O21	O	1.167083	-0.093567	-0.440491
O22	O	1.667083	0.406433	0.059509
O23	O	1.000053	-0.101364	-0.558197
O24	O	1.500053	0.398636	-0.058197
O25	O	1.096206	-0.144182	-0.834276
O26	O	1.596206	0.355818	-0.334276
O27	O	0.975885	-0.189770	-0.669644
O28	O	1.475885	0.310230	-0.169644
O29	O	1.211540	-0.021235	-0.847568
O30	O	1.711540	0.478765	-0.347568
O31	O	1.237573	-0.292742	-0.609844
O32	O	1.737573	0.207258	-0.109844
O33	O	1.111017	-0.298650	-0.699028
O34	O	1.611017	0.201350	-0.199028
C35	C	0.955812	-0.151542	-0.608669
C36	C	1.455812	0.348458	-0.108669
C37	C	0.857299	-0.169861	-0.592604
C38	C	1.357299	0.330139	-0.092604
C39	C	0.556162	0.021956	-0.761103
C40	C	1.056162	0.521956	-0.261103
C41	C	0.648718	0.039166	-0.776202
C42	C	1.148718	0.539166	-0.276202
C43	C	0.700868	-0.013089	-0.730303
C44	C	1.200868	0.486911	-0.230303
C45	C	0.660452	-0.082557	-0.669304
C46	C	1.160452	0.417443	-0.169304
C47	C	0.567886	-0.099773	-0.654209
C48	C	1.067886	0.400227	-0.154209
C49	C	0.712592	-0.134818	-0.623409
C50	C	1.212592	0.365182	-0.123409
C51	C	0.672177	-0.204286	-0.562410
C52	C	1.172177	0.295714	-0.062410
C53	C	0.579619	-0.221498	-0.547317
C54	C	1.079619	0.278502	-0.047317
C55	C	0.527469	-0.169243	-0.593215
C56	C	1.027469	0.330757	-0.093215
C57	C	0.805159	-0.117602	-0.638505
C58	C	1.305159	0.382398	-0.138505
C59	C	0.816883	-0.239331	-0.531611
C60	C	1.316883	0.260669	-0.031611
C61	C	0.724327	-0.256541	-0.516512
C62	C	1.224327	0.243459	-0.016512
C63	C	1.172404	-0.326033	-0.655784
C64	C	1.672404	0.173967	-0.155784
C65	C	1.166632	-0.418963	-0.659896
C66	C	1.666632	0.081037	-0.159896
C67	C	1.216205	-0.627543	-0.625166
C68	C	1.716205	-0.127543	-0.125166
C69	C	1.156108	-0.589098	-0.667414
C70	C	1.656108	-0.089098	-0.167414
C71	C	1.161965	-0.494426	-0.663230
C72	C	1.661965	0.005574	-0.163230
C73	C	1.210349	-0.722223	-0.629349
C74	C	1.710349	-0.222223	-0.129349
C75	C	1.417237	-0.065815	-0.684022
C76	C	1.917237	0.434185	-0.184022
C77	C	1.515745	-0.047514	-0.700109
C78	C	2.015745	0.452486	-0.200109
C79	C	1.148500	-0.078361	-0.873401
C80	C	1.648500	0.421639	-0.373401
C81	C	1.132488	-0.065406	-0.970190
C82	C	1.632488	0.434594	-0.470190
C83	C	1.199820	0.109364	-0.636746
C84	C	1.699820	0.609364	-0.136746
C85	C	1.205678	0.202317	-0.632687
C86	C	1.705678	0.702317	-0.132687
C87	C	1.300587	-0.200703	-1.289382
C88	C	1.800587	0.299297	-0.789382
C89	C	1.315626	-0.212881	-1.198443
C90	C	1.815626	0.287119	-0.698443
C91	C	1.269843	-0.176013	-1.141376
C92	C	1.769843	0.323987	-0.641376
C93	C	1.209017	-0.126966	-1.175256
C94	C	1.709017	0.373034	-0.675256
C95	C	1.193971	-0.114792	-1.266202
C96	C	1.693971	0.385208	-0.766202
C97	C	1.163228	-0.090102	-1.118196
C98	C	1.663228	0.409898	-0.618196
C99	C	1.102402	-0.041055	-1.152076
C100	C	1.602402	0.458945	-0.652076
C101	C	1.087359	-0.028883	-1.243014
C102	C	1.587359	0.471117	-0.743014
C103	C	1.133142	-0.065751	-1.300082
C104	C	1.633142	0.434249	-0.800082
C105	C	1.178274	-0.102276	-1.027249
C106	C	1.678274	0.397724	-0.527249
C107	C	1.071659	-0.016365	-1.004070
C108	C	1.571659	0.483635	-0.504070
C109	C	1.056619	-0.004187	-1.095008
C110	C	1.556619	0.495813	-0.595008
C111	C	1.223559	-0.138974	-0.420032
C112	C	1.723559	0.361026	0.079968
C113	C	1.239757	-0.151662	-0.323261
C114	C	1.739757	0.348338	0.176739
H115	H	0.452101	-0.183256	-0.580931
H116	H	0.952101	0.316744	-0.080931
N117	N	1.117788	-0.053357	-1.392980
N118	N	1.617788	0.446643	-0.892980
N119	N	1.133705	0.020723	-1.433815
N120	N	1.633705	0.520723	-0.933815
H121	H	1.122868	0.029455	-1.499428
H122	H	1.622868	0.529455	-0.999428
N123	N	1.086037	-0.637013	-0.716714
N124	N	1.586037	-0.137013	-0.216714
N125	N	1.031710	-0.700417	-0.678915
N126	N	1.531710	-0.200417	-0.178915
H127	H	0.982221	-0.734262	-0.713728
H128	H	1.482221	-0.234262	-0.213728
N129	N	1.285212	-0.188462	-1.048487
N130	N	1.785212	0.311538	-0.548487
N131	N	1.339522	-0.232254	-1.018248
N132	N	1.839522	0.267746	-0.518248
H133	H	1.350381	-0.241046	-0.952642
H134	H	1.850381	0.258954	-0.452642
H135	H	1.337850	-0.230723	-1.335853
H136	H	1.837850	0.269277	-0.835853
H137	H	1.272050	-0.589360	-0.585855
H138	H	1.772050	-0.089360	-0.085855
H139	H	0.681617	0.095725	-0.825870
H140	H	1.181617	0.595725	-0.325870
H141	H	1.227804	-0.142205	-0.999675
H142	H	1.727804	0.357795	-0.499675
N143	N	0.795413	0.004475	-0.745713
N144	N	1.295413	0.504475	-0.245713
N145	N	0.829646	-0.050679	-0.773388
N146	N	1.329646	0.449321	-0.273388
H147	H	0.896423	-0.038272	-0.784270
H148	H	1.396423	0.461728	-0.284270
H149	H	1.365141	-0.252825	-1.170864
H150	H	1.865141	0.247175	-0.670864
H151	H	1.034378	0.013655	-0.957605
H152	H	1.534378	0.513655	-0.457605
N153	N	1.025213	0.021205	-1.277607
N154	N	1.525213	0.521205	-0.777607
N155	N	0.984337	0.054116	-1.226649
N156	N	1.484337	0.554116	-0.726649
H157	H	0.940444	0.089490	-1.251078
H158	H	1.440444	0.589490	-0.751078
H159	H	1.007094	0.035748	-1.122606
H160	H	1.507094	0.535748	-0.622606
N161	N	0.846424	-0.046634	-0.700801
N162	N	1.346424	0.453366	-0.200801
N163	N	0.841856	0.027856	-0.690088
N164	N	1.341856	0.527856	-0.190088
H165	H	0.870998	0.077984	-0.734086
H166	H	1.370998	0.577984	-0.234086
N167	N	0.502879	0.075303	-0.807996
N168	N	1.002879	0.575303	-0.307996
N169	N	0.440222	0.043590	-0.856298
N170	N	0.940222	0.543590	-0.356298
H171	H	0.402584	0.081264	-0.889422
H172	H	0.902584	0.581264	-0.389422
N173	N	0.538353	-0.292460	-0.485003
N174	N	1.038353	0.207540	0.014997
N175	N	0.562324	-0.295623	-0.406097
N176	N	1.062324	0.204377	0.093903
H177	H	0.533183	-0.345741	-0.362086
H178	H	1.033183	0.154259	0.137914
N179	N	0.683025	-0.327493	-0.454205
N180	N	1.183025	0.172507	0.045795
N181	N	0.600381	-0.342847	-0.440736
N182	N	1.100381	0.157153	0.059264
H183	H	0.571210	-0.392957	-0.396731
H184	H	1.071210	0.107043	0.103269
H185	H	0.859343	-0.281885	-0.494241
H186	H	1.359343	0.218115	0.005759
