data_functionalizedCrystal
_audit_creation_method	'MofGen! by Chris Wilmer'
_symmetry_space_group_name_H-M	'P1'
_symmetry_Int_Tables_number	1
_symmetry_cell_setting	triclinic
loop_
_symmetry_equiv_pos_as_xyz
  x,y,z
_cell_length_a	19.377369
_cell_length_b	19.851628
_cell_length_c	19.377372
_cell_angle_alpha	89.999666
_cell_angle_beta	62.058157
_cell_angle_gamma	48.641315
loop_
_atom_site_label
_atom_site_type_symbol
_atom_site_fract_x
_atom_site_fract_y
_atom_site_fract_z
Zr1	Zr	0.759549	0.527667	0.055782
O2	O	0.943945	0.371433	-0.042135
O3	O	0.607754	0.588287	0.064441
O4	O	0.806582	0.530305	-0.072942
O5	O	0.696649	0.460675	0.227913
O6	O	0.806597	0.641151	-0.072946
O7	O	0.745117	0.429414	0.095247
O8	O	0.450931	0.744869	0.172806
O9	O	1.052315	0.356957	-0.017839
O10	O	0.658127	0.681488	0.093935
O11	O	0.621943	0.622095	0.192946
O12	O	0.856037	0.553829	0.031195
O13	O	0.819854	0.494436	0.130206
Zr14	Zr	0.682271	0.754309	0.267362
Zr15	Zr	0.759574	0.704452	0.055775
Zr16	Zr	0.682247	0.577524	0.267369
Zr17	Zr	0.932386	0.504579	0.094532
Zr18	Zr	0.509434	0.777397	0.228613
O19	O	0.834066	0.693689	0.258704
O20	O	0.943980	0.622799	-0.042146
O21	O	0.834031	0.442323	0.258714
O22	O	0.497875	0.910543	0.365280
O23	O	0.607789	0.839653	0.064431
O24	O	0.497840	0.659177	0.365290
O25	O	0.745172	0.821301	0.095231
O26	O	0.635239	0.751671	0.396086
O27	O	0.635223	0.640825	0.396091
O28	O	0.696703	0.852562	0.227897
O29	O	1.052334	0.497478	-0.017845
O30	O	0.389486	0.784498	0.340990
O31	O	0.389506	0.925019	0.340984
O32	O	0.450951	0.885389	0.172800
O33	O	0.990870	0.396586	0.150344
O34	O	0.990889	0.537107	0.150338
O35	O	0.585783	0.728147	0.291949
O36	O	0.621966	0.787540	0.192939
O37	O	0.819877	0.659881	0.130199
O38	O	0.783694	0.600488	0.229209
C39	C	0.504717	0.669867	0.113103
C40	C	0.431343	0.679668	0.096652
C41	C	0.095178	0.557307	0.301242
C42	C	0.026115	0.566647	0.285855
C43	C	0.063897	0.628649	0.182496
C44	C	0.132960	0.619319	0.197877
C45	C	0.148595	0.583647	0.257251
C46	C	0.186377	0.645658	0.153886
C47	C	0.255438	0.636324	0.169263
C48	C	0.271083	0.600651	0.228632
C49	C	0.217656	0.574313	0.272628
C50	C	0.170747	0.681324	0.094508
C51	C	0.224164	0.707663	0.050517
C52	C	0.293220	0.698336	0.065898
C53	C	0.308865	0.662663	0.125267
C54	C	0.346647	0.724675	0.021902
C55	C	0.415708	0.715341	0.037279
C56	C	0.377926	0.653329	0.140644
C57	C	0.720879	0.419856	0.161581
C58	C	0.720869	0.344806	0.161584
C59	C	0.612985	0.233039	0.195785
C60	C	0.642772	0.168922	0.244798
C61	C	0.720898	0.207369	0.161577
C62	C	0.691093	0.137759	0.112597
C63	C	0.720919	0.074614	0.161569
C64	C	0.750665	0.144253	0.210645
C65	C	0.798993	0.113090	0.078388
C66	C	0.828852	0.048946	0.127393
C67	C	0.720882	0.283847	0.161583
C68	C	0.720941	-0.001867	0.161566
C69	C	0.937103	0.612109	0.210042
C70	C	1.010477	0.602308	0.226492
C71	C	0.817604	0.578624	-0.103091
C72	C	0.850420	0.557459	-0.192915
C73	C	0.720941	0.862120	0.161563
C74	C	0.720951	0.937170	0.161560
C75	C	0.441827	0.821001	-0.324591
C76	C	0.472690	0.801091	-0.409003
C77	C	0.679294	0.667825	-0.474489
C78	C	0.648447	0.687727	-0.390081
C79	C	0.529712	0.764315	-0.315137
C80	C	0.736333	0.631042	-0.380628
C81	C	0.705488	0.650939	-0.296227
C82	C	0.586759	0.727521	-0.221279
C83	C	0.498868	0.784212	-0.230736
C84	C	0.855068	0.554449	-0.455573
C85	C	0.942953	0.497764	-0.446119
C86	C	0.912109	0.517665	-0.361717
C87	C	0.793379	0.594247	-0.286770
C88	C	1.000000	0.460974	-0.352260
C89	C	0.969156	0.480871	-0.267859
C90	C	0.762535	0.614144	-0.202369
C91	C	0.624217	0.703352	0.426235
C92	C	0.591400	0.724517	0.516059
C93	C	0.504748	0.890999	0.113094
C94	C	0.431384	0.975850	0.096640
C95	C	0.408024	0.732231	0.377766
C96	C	0.301833	0.763198	0.451140
C97	C	0.408055	0.953362	0.377757
C98	C	0.301874	1.059379	0.451127
C99	C	1.033766	0.328614	-0.054612
C100	C	1.139946	0.222597	-0.127983
C101	C	0.937073	0.390977	0.210051
C102	C	1.010436	0.306126	0.226504
C103	C	1.033797	0.549745	-0.054621
C104	C	1.139987	0.518778	-0.127995
C105	C	0.415811	0.960337	0.037226
C106	C	0.346895	1.040051	0.021749
C107	C	0.293547	1.135280	0.065692
C108	C	0.309127	1.150791	0.125109
C109	C	0.378048	1.071075	0.140581
C110	C	0.233086	0.833100	0.537285
C111	C	0.133315	0.862194	0.606238
C112	C	0.102289	0.821390	0.589043
C113	C	0.171046	0.751479	0.502889
C114	C	0.270819	0.722381	0.433939
C115	C	0.270898	1.140176	0.433901
C116	C	0.171143	1.239794	0.502835
C117	C	0.102361	1.258613	0.588994
C118	C	0.133344	1.177807	0.606220
C119	C	0.233103	1.078191	0.537288
C120	C	1.170931	0.141799	-0.110754
C121	C	1.270707	0.042178	-0.179684
C122	C	1.339493	0.023358	-0.265842
C123	C	1.308505	0.104165	-0.283069
C124	C	1.208735	0.203783	-0.214139
C125	C	1.026020	0.321636	0.285911
C126	C	1.094964	0.241914	0.301370
C127	C	1.148315	0.146684	0.257424
C128	C	1.132731	0.131175	0.198010
C129	C	1.063795	0.210894	0.182548
C130	C	1.170981	0.559601	-0.110773
C131	C	1.270746	0.530524	-0.179710
C132	C	1.339521	0.460618	-0.265867
C133	C	1.308521	0.419795	-0.283088
C134	C	1.208752	0.448878	-0.214153
H135	H	0.107907	0.528260	0.349590
H136	H	0.864983	0.090276	0.008047
F137	F	0.344591	0.590712	0.244993
F138	F	1.445675	-0.082670	-0.339195
F139	F	1.381735	0.345389	-0.374787
F140	F	0.472563	0.743373	-0.009542
F141	F	0.138185	1.325780	0.484483
F142	F	0.948195	-0.053615	0.089602
H143	H	1.183530	0.415627	-0.228187
H144	H	0.576743	0.191776	0.315149
H145	H	0.265681	1.228336	0.160883
F146	F	1.175766	0.289768	-0.232490
F147	F	-0.030732	0.538606	0.332679
H148	H	1.420757	0.436945	-0.321990
H149	H	1.107638	0.254562	0.349752
F150	F	0.266084	0.876543	0.555604
F151	F	0.343973	0.647986	0.342257
H152	H	1.114930	0.157105	-0.040607
H153	H	0.775800	0.147688	0.252146
H154	H	1.295919	-0.023605	-0.165640
H155	H	1.051109	0.198253	0.134176
H156	H	0.459253	0.882800	0.001429
F157	F	0.658143	0.133223	0.058455
H158	H	1.364523	0.088829	-0.353227
H159	H	0.665849	0.676514	-0.141343
F160	F	0.060129	1.197852	0.697922
F161	F	0.553931	0.748692	-0.131451
F162	F	0.234291	0.536354	0.335826
H163	H	0.521716	0.311604	0.224775
F164	F	0.969252	0.422979	0.332689
F165	F	1.221679	0.061848	0.273890
F166	F	1.189517	0.029818	0.151248
F167	F	0.047253	0.666608	0.119306
F168	F	0.372495	0.865751	-0.150970
H169	H	1.114996	0.616522	-0.040625
F170	F	0.330324	1.023524	-0.041488
H171	H	0.237428	1.200181	0.053086
H172	H	0.114519	0.688915	0.081985
H173	H	0.345140	0.883371	-0.263566
H174	H	0.390656	0.624281	0.188992
F175	F	0.207520	0.745623	-0.012673
H176	H	0.390715	1.083722	0.188966
F177	F	0.379141	0.861430	-0.419057
H178	H	1.039627	0.435404	-0.507148
F179	F	-0.003810	1.364640	0.662350
H180	H	1.295973	0.563771	-0.165671
H181	H	0.333916	0.753710	-0.026446
F182	F	0.060152	0.936602	0.697921
H183	H	0.021044	0.845093	0.645194
F184	F	1.126362	0.379455	-0.432028
F185	F	0.805656	0.586313	-0.554256
F186	F	0.887892	0.533273	-0.545400
H187	H	0.145768	0.718262	0.488901
H188	H	0.326889	1.124871	0.363751
F189	F	1.062693	0.420550	-0.257796
F190	F	0.266053	0.992208	0.555634
