data_functionalizedCrystal
_audit_creation_method	'MofGen! by Chris Wilmer'
_symmetry_space_group_name_H-M	'P1'
_symmetry_Int_Tables_number	1
_symmetry_cell_setting	triclinic
loop_
_symmetry_equiv_pos_as_xyz
  x,y,z
_cell_length_a	12.645331
_cell_length_b	12.645330
_cell_length_c	17.077396
_cell_angle_alpha	89.975096
_cell_angle_beta	89.987134
_cell_angle_gamma	90.018103
loop_
_atom_site_label
_atom_site_type_symbol
_atom_site_fract_x
_atom_site_fract_y
_atom_site_fract_z
Zn1	Zn	1.620677	-0.422019	-0.443775
Zn2	Zn	1.620575	-0.599307	-0.312519
Zn3	Zn	1.443408	-0.422059	-0.312533
Zn4	Zn	1.443374	-0.599242	-0.443753
O5	O	1.532008	-0.510657	-0.378145
O6	O	1.769011	-0.445547	-0.426367
O7	O	1.597045	-0.575839	-0.202674
O8	O	1.466980	-0.273707	-0.329958
O9	O	1.768936	-0.575800	-0.329934
O10	O	1.597219	-0.273677	-0.426381
O11	O	1.466881	-0.445616	-0.202684
O12	O	1.295056	-0.445553	-0.329936
O13	O	1.466922	-0.575689	-0.553603
O14	O	1.295031	-0.575728	-0.426343
O15	O	1.597186	-0.445484	-0.553619
O16	O	1.597012	-0.747646	-0.329912
O17	O	1.466823	-0.747598	-0.426329
C18	C	1.256579	-0.510639	-0.378139
C19	C	1.138749	-0.510656	-0.378155
C20	C	1.093887	-0.592689	-0.438716
C21	C	0.971327	-0.593026	-0.438536
C22	C	0.970805	-0.540495	-0.295328
C23	C	1.093403	-0.541074	-0.295679
C24	C	1.093600	-0.398611	-0.399697
C25	C	0.970994	-0.399230	-0.401521
C26	C	1.531931	-0.786087	-0.378134
C27	C	1.531995	-0.903917	-0.378156
C28	C	1.450431	-1.071495	-0.438998
C29	C	1.450014	-0.948935	-0.438803
C30	C	1.501760	-0.948511	-0.295430
C31	C	1.501262	-1.071109	-0.295800
C32	C	1.644293	-1.071005	-0.399367
C33	C	1.643605	-0.948398	-0.401176
C34	C	1.808514	-0.510676	-0.378152
C35	C	1.926344	-0.510684	-0.378154
C36	C	1.532062	-0.510575	-0.582889
C37	C	1.532084	-0.510540	-0.670139
C38	C	1.532115	-0.234152	-0.378173
C39	C	1.532160	-0.116322	-0.378185
C40	C	1.464329	-0.442725	-0.711134
C41	C	1.464346	-0.442700	-0.793115
C42	C	1.532125	-0.510487	-0.834099
C43	C	1.599884	-0.578310	-0.793098
C44	C	1.599860	-0.578339	-0.711119
C45	C	1.599930	-0.578244	-0.963968
C46	C	1.599955	-0.578214	-1.045953
C47	C	1.464415	-0.442606	-1.045964
C48	C	1.464392	-0.442634	-0.963985
C49	C	1.532152	-0.510456	-0.922990
C50	C	1.532016	-0.510662	-0.174197
C51	C	1.532199	-0.510399	-0.086948
H52	H	0.940078	-0.621494	-0.276811
H53	H	1.124548	-0.371372	-0.459076
N54	N	0.934270	-0.467839	-0.237164
N55	N	0.955846	-0.371679	-0.242942
H56	H	0.930043	-0.320363	-0.201864
N57	N	0.934563	-0.371038	-0.477998
N58	N	0.875928	-0.432743	-0.515198
H59	H	0.850200	-0.412841	-0.569213
H60	H	0.941970	-0.676060	-0.424244
H61	H	1.707704	-0.917748	-0.360108
H62	H	1.409205	-0.387432	-0.930618
N63	N	1.398440	-1.107114	-0.273277
N64	N	1.361648	-1.082669	-0.207801
H65	H	1.289028	-1.108093	-0.191894
H66	H	1.366883	-0.919701	-0.424770
H67	H	1.123397	-0.574307	-0.500311
N68	N	1.395113	-0.373463	-0.669271
N69	N	1.402192	-0.275641	-0.678441
H70	H	1.353307	-0.226722	-0.648876
N71	N	1.395122	-0.373428	-0.834977
N72	N	1.334612	-0.312908	-0.798375
H73	H	1.285717	-0.263983	-0.827940
N74	N	1.400002	-0.910104	-0.272517
N75	N	1.349575	-0.849904	-0.316969
H76	H	1.277706	-0.822777	-0.300791
H77	H	1.558207	-1.100766	-0.248944
N78	N	1.678890	-1.109709	-0.473753
N79	N	1.621313	-1.171171	-0.512062
H80	H	1.645736	-1.198509	-0.564599
H81	H	0.940375	-0.334886	-0.360662
H82	H	1.666407	-0.919248	-0.462057
N83	N	1.574077	-0.911933	-0.237041
N84	N	1.648884	-0.852445	-0.255791
H85	H	1.699961	-0.826610	-0.214556
H86	H	1.655042	-0.633553	-0.677742
H87	H	1.705184	-1.099993	-0.355074
N88	N	1.473756	-0.911088	-0.515746
N89	N	1.553080	-0.853991	-0.526805
H90	H	1.569850	-0.827267	-0.581149
H91	H	1.409244	-0.387381	-1.079346
H92	H	1.655147	-0.633412	-1.079320
H93	H	1.655117	-0.633462	-0.930593
N94	N	1.669120	-0.647533	-0.834978
N95	N	1.736694	-0.610210	-0.880727
H96	H	1.785596	-0.659095	-0.910307
N97	N	1.132476	-0.696258	-0.420994
N98	N	1.068971	-0.769053	-0.405391
H99	H	1.096226	-0.842198	-0.392870
H100	H	0.941266	-0.574430	-0.499940
H101	H	1.121970	-0.622963	-0.277471
H102	H	1.123080	-0.483878	-0.249009
H103	H	1.122613	-0.337497	-0.355592
H104	H	1.469173	-1.100907	-0.500540
H105	H	1.367820	-1.102396	-0.425145
