data_functionalizedCrystal
_audit_creation_method	'MofGen! by Chris Wilmer'
_symmetry_space_group_name_H-M	'P1'
_symmetry_Int_Tables_number	1
_symmetry_cell_setting	triclinic
loop_
_symmetry_equiv_pos_as_xyz
  x,y,z
_cell_length_a	12.827893
_cell_length_b	12.827892
_cell_length_c	12.827885
_cell_angle_alpha	89.970024
_cell_angle_beta	89.980728
_cell_angle_gamma	90.015362
loop_
_atom_site_label
_atom_site_type_symbol
_atom_site_fract_x
_atom_site_fract_y
_atom_site_fract_z
Zn1	Zn	1.597671	-0.415978	-0.590847
Zn2	Zn	1.597566	-0.590755	-0.416107
Zn3	Zn	1.422912	-0.416029	-0.416121
Zn4	Zn	1.422898	-0.590678	-0.590807
O5	O	1.510262	-0.503360	-0.503471
O6	O	1.743893	-0.439173	-0.567679
O7	O	1.574359	-0.567631	-0.269873
O8	O	1.446144	-0.269787	-0.439321
O9	O	1.743816	-0.567582	-0.439298
O10	O	1.574539	-0.269749	-0.567692
O11	O	1.446042	-0.439261	-0.269883
O12	O	1.276674	-0.439186	-0.439282
O13	O	1.446120	-0.567450	-0.737048
O14	O	1.276664	-0.567500	-0.567623
O15	O	1.574525	-0.439098	-0.737078
O16	O	1.574346	-0.736981	-0.439259
O17	O	1.446018	-0.736924	-0.567610
C18	C	1.238752	-0.503341	-0.503451
C19	C	1.122599	-0.503358	-0.503467
C20	C	0.950732	-0.566817	-0.439874
C21	C	1.070782	-0.566801	-0.439856
C22	C	1.510197	-0.774870	-0.503451
C23	C	1.510265	-0.891023	-0.503478
C24	C	1.446750	-0.942814	-0.566944
C25	C	1.446819	-1.062865	-0.566973
C26	C	1.782832	-0.503380	-0.503491
C27	C	1.898985	-0.503389	-0.503500
C28	C	1.510333	-0.503260	-0.776041
C29	C	1.510363	-0.503217	-0.892194
C30	C	1.510355	-0.230790	-0.503513
C31	C	1.510395	-0.114637	-0.503531
C32	C	1.446878	-0.566658	-1.064009
C33	C	1.446845	-0.566704	-0.943958
C34	C	1.510251	-0.503385	-0.231961
C35	C	1.510423	-0.503133	-0.115808
H36	H	1.078104	-0.449056	-0.557946
H37	H	1.564773	-0.448832	-0.936734
H38	H	1.392316	-0.898281	-0.621254
H39	H	1.392445	-1.107404	-0.621312
H40	H	1.564780	-1.070105	-0.449196
H41	H	1.115283	-0.621109	-0.385389
H42	H	0.943560	-0.449070	-0.557954
H43	H	1.564798	-0.448776	-1.071279
H44	H	0.906157	-0.621127	-0.385411
H45	H	1.564691	-0.935560	-0.449161
H46	H	1.392495	-0.621007	-1.108538
H47	H	1.392445	-0.621093	-0.899412
