data_functionalizedCrystal
_audit_creation_method	'MofGen! by Chris Wilmer'
_symmetry_space_group_name_H-M	'P1'
_symmetry_Int_Tables_number	1
_symmetry_cell_setting	triclinic
loop_
_symmetry_equiv_pos_as_xyz
  x,y,z
_cell_length_a	12.759401
_cell_length_b	15.299816
_cell_length_c	12.759393
_cell_angle_alpha	99.650111
_cell_angle_beta	89.981503
_cell_angle_gamma	80.350733
loop_
_atom_site_label
_atom_site_type_symbol
_atom_site_fract_x
_atom_site_fract_y
_atom_site_fract_z
Zn1	Zn	1.678530	-0.358994	-0.666428
Zn2	Zn	1.708801	-0.509837	-0.521176
Zn3	Zn	1.502845	-0.359042	-0.490774
Zn4	Zn	1.533180	-0.509767	-0.696800
O5	O	1.605839	-0.434410	-0.593794
O6	O	1.829568	-0.379012	-0.647173
O7	O	1.681454	-0.489883	-0.370132
O8	O	1.500786	-0.232827	-0.488640
O9	O	1.851809	-0.489837	-0.540457
O10	O	1.629861	-0.232792	-0.617693
O11	O	1.530139	-0.379094	-0.347795
O12	O	1.359846	-0.379026	-0.518091
O13	O	1.552488	-0.489718	-0.839782
O14	O	1.382133	-0.489764	-0.669457
O15	O	1.659276	-0.378945	-0.817468
O16	O	1.710869	-0.636036	-0.569907
O17	O	1.581841	-0.635985	-0.698937
C18	C	1.332868	-0.434394	-0.593772
C19	C	1.216095	-0.434408	-0.593791
C20	C	1.172798	-0.492022	-0.538114
C21	C	1.063077	-0.492038	-0.538135
C22	C	1.039958	-0.376818	-0.649513
C23	C	1.149678	-0.376808	-0.649497
C24	C	1.239215	-0.549623	-0.482408
C25	C	1.195920	-0.607240	-0.426725
C26	C	1.086199	-0.607256	-0.426746
C27	C	1.019774	-0.549654	-0.482451
C28	C	1.652960	-0.668735	-0.641040
C29	C	1.673214	-0.768980	-0.661287
C30	C	1.461766	-1.051926	-0.449443
C31	C	1.442730	-0.957740	-0.430423
C32	C	1.500350	-0.910546	-0.488137
C33	C	1.577008	-0.957545	-0.564875
C34	C	1.596039	-1.051740	-0.583903
C35	C	1.634623	-0.910360	-0.622597
C36	C	1.711281	-0.957359	-0.699335
C37	C	1.730310	-1.051544	-0.718360
C38	C	1.672690	-1.098739	-0.660646
C39	C	1.615592	-0.816165	-0.603569
C40	C	1.749865	-0.815979	-0.738029
C41	C	1.768901	-0.910164	-0.757049
C42	C	1.879876	-0.434427	-0.593818
C43	C	1.996654	-0.434434	-0.593828
C44	C	1.605889	-0.434318	-0.867809
C45	C	1.605910	-0.434279	-0.984578
C46	C	1.558563	-0.199170	-0.546387
C47	C	1.538417	-0.098925	-0.526185
C48	C	1.527147	-0.376581	-1.027813
C49	C	1.527173	-0.376554	-1.137532
C50	C	1.684736	-0.491926	-1.160771
C51	C	1.684704	-0.491957	-1.051055
C52	C	1.448352	-0.318903	-0.961336
C53	C	1.369583	-0.261199	-1.004571
C54	C	1.369610	-0.261172	-1.114290
C55	C	1.448405	-0.318849	-1.180774
C56	C	1.605837	-0.434436	-0.320832
C57	C	1.605968	-0.434221	-0.204013
H58	H	1.184929	-0.329891	-0.694831
C59	C	1.766218	-1.157354	-0.881078
C60	C	1.814568	-1.103203	-0.802718
H61	H	1.818237	-1.189238	-0.933159
H62	H	1.734638	-1.198938	-0.849430
H63	H	1.713000	-1.120606	-0.913798
H64	H	1.867781	-1.139952	-0.769992
H65	H	1.846165	-1.061615	-0.834369
H66	H	1.328557	-0.549615	-0.482382
C67	C	1.804785	-1.015987	-0.919754
C68	C	1.853151	-0.961836	-0.841409
H69	H	1.856796	-1.047884	-0.971836
H70	H	1.773198	-1.057560	-0.888094
H71	H	1.751570	-0.979238	-0.952477
H72	H	1.906360	-0.998587	-0.808680
H73	H	1.884755	-0.920259	-0.873072
H74	H	1.448418	-0.318825	-1.270114
C75	C	1.754752	-0.543094	-1.339277
C76	C	1.771353	-0.555311	-1.233846
H77	H	1.808234	-0.582220	-1.384386
H78	H	1.686829	-0.556289	-1.359914
H79	H	1.757952	-0.482488	-1.345033
H80	H	1.768146	-0.615916	-1.228088
H81	H	1.839294	-0.542123	-1.213203
C82	C	1.374377	-0.658375	-0.377232
C83	C	1.268930	-0.670556	-0.365499
H84	H	1.419446	-0.697461	-0.339427
H85	H	1.395059	-0.671646	-0.450461
H86	H	1.380141	-0.597756	-0.349747
H87	H	1.263164	-0.731173	-0.392992
H88	H	1.248242	-0.657290	-0.292255
H89	H	1.688189	-1.175433	-0.676124
C90	C	1.780324	-0.671514	-0.768561
C91	C	1.813211	-0.764112	-0.801472
H92	H	1.819431	-0.639492	-0.807724
H93	H	1.706624	-0.656125	-0.780769
H94	H	1.792631	-0.656127	-0.694872
H95	H	1.800896	-0.779500	-0.875161
H96	H	1.886928	-0.779508	-0.789274
C97	C	1.362527	-0.256128	-0.791512
C98	C	1.448318	-0.318934	-0.840733
H99	H	1.362506	-0.256153	-0.717059
H100	H	1.369018	-0.197932	-0.804609
H101	H	1.297870	-0.271715	-0.819479
H102	H	1.512975	-0.303344	-0.812773
H103	H	1.441835	-0.377142	-0.827629
H104	H	1.050952	-0.654177	-0.381415
H105	H	0.930434	-0.549677	-0.482472
H106	H	1.305426	-0.214245	-0.950434
H107	H	1.305466	-0.214193	-1.149489
H108	H	1.748852	-0.538928	-1.015850
C109	C	0.861495	-0.325669	-0.698979
C110	C	0.966944	-0.313497	-0.710728
H111	H	0.816422	-0.286571	-0.736765
H112	H	0.855719	-0.386276	-0.726464
H113	H	0.840827	-0.312401	-0.625736
H114	H	0.987615	-0.326772	-0.783971
H115	H	0.972725	-0.252877	-0.683247
H116	H	1.553176	-0.777906	-0.541088
C117	C	1.446248	-0.775571	-0.560794
C118	C	1.479431	-0.807015	-0.467226
H119	H	1.433328	-0.711653	-0.547875
H120	H	1.500147	-0.796804	-0.614744
H121	H	1.382753	-0.796920	-0.583209
H122	H	1.542931	-0.785671	-0.444814
H123	H	1.425528	-0.785773	-0.413258
C124	C	1.311935	-0.967393	-0.299418
C125	C	1.358484	-0.906081	-0.346065
H126	H	1.259930	-0.935498	-0.247330
H127	H	1.279141	-1.004123	-0.352575
H128	H	1.365168	-1.004128	-0.266699
H129	H	1.305252	-0.869350	-0.378792
H130	H	1.391279	-0.869335	-0.292899
H131	H	1.414855	-1.090360	-0.402466
