data_functionalizedCrystal
_audit_creation_method	'MofGen! by Chris Wilmer'
_symmetry_space_group_name_H-M	'P1'
_symmetry_Int_Tables_number	1
_symmetry_cell_setting	triclinic
loop_
_symmetry_equiv_pos_as_xyz
  x,y,z
_cell_length_a	15.944551
_cell_length_b	17.699083
_cell_length_c	16.176319
_cell_angle_alpha	90.001389
_cell_angle_beta	89.992246
_cell_angle_gamma	96.609123
loop_
_atom_site_label
_atom_site_type_symbol
_atom_site_fract_x
_atom_site_fract_y
_atom_site_fract_z
O1	O	0.106222	-1.004260	-0.068632
O2	O	0.120042	-0.783905	-0.068660
O3	O	-0.009156	-0.900100	-0.068638
O4	O	0.235419	-0.888065	-0.068654
O5	O	-0.009164	-0.900084	0.068855
O6	O	0.120033	-0.783889	0.068833
O7	O	0.106214	-1.004244	0.068861
Cu8	Cu	0.113123	-0.894065	0.081401
Cu9	Cu	0.113133	-0.894084	-0.081200
O10	O	0.235411	-0.888049	0.068839
C11	C	0.119542	-0.755700	0.000083
C12	C	0.118057	-0.671679	0.000073
C13	C	-0.040453	-0.899593	0.000109
C14	C	-0.133696	-0.898095	0.000109
N15	N	0.113116	-0.894058	0.195767
C16	C	-0.348393	-0.822492	0.000088
C17	C	-0.409488	-0.857591	0.067885
C18	C	-0.304416	-0.895385	0.000102
C19	C	-0.409464	-0.857624	-0.067672
C20	C	-0.469323	-0.892762	0.000092
C21	C	-0.364283	-0.930505	0.067955
C22	C	-0.364252	-0.930527	-0.067663
C23	C	-0.425329	-0.965680	0.000150
C24	C	-0.209417	-0.896894	0.000109
C25	C	-0.564321	-0.891259	0.000092
C26	C	0.266708	-0.888557	0.000090
C27	C	0.359951	-0.890055	0.000085
C28	C	0.106713	-1.032450	0.000116
C29	C	0.108199	-1.116471	0.000121
C30	C	0.193893	-0.623187	0.000068
C31	C	0.192492	-0.544242	0.000079
C32	C	0.115254	-0.513789	0.000089
C33	C	0.039412	-0.562287	0.000096
C34	C	0.040814	-0.641231	0.000091
C35	C	0.033758	-0.243914	0.000117
C36	C	0.032362	-0.164964	0.000119
C37	C	0.185436	-0.146925	0.000105
C38	C	0.186837	-0.225869	0.000100
C39	C	0.110996	-0.274360	0.000112
C40	C	0.112516	-0.359962	0.000102
C41	C	0.113733	-0.428189	0.000093
N42	N	0.113133	-0.894098	-0.195565
C43	C	0.055930	-0.945524	0.239040
C44	C	0.055929	-0.945528	0.325588
C45	C	0.113118	-0.894068	0.368859
C46	C	0.170306	-0.842596	0.325579
C47	C	0.170303	-0.842589	0.239034
C48	C	0.170322	-0.842622	0.674608
C49	C	0.170323	-0.842634	0.761159
C50	C	0.055949	-0.945561	0.761161
C51	C	0.055945	-0.945554	0.674616
C52	C	0.113130	-0.894080	0.631343
C53	C	0.113129	-0.894075	0.537499
C54	C	0.113124	-0.894076	0.462702
H55	H	-0.314958	-0.761987	0.000149
O56	O	-0.337895	-0.971301	0.143961
H57	H	-0.369509	-1.030546	0.144138
H58	H	-0.344183	-0.961339	-0.124975
H59	H	0.256789	-0.647975	0.000060
O60	O	0.274290	-0.491943	0.000073
H61	H	0.260343	-0.431932	0.000089
H62	H	0.249732	-0.250659	0.000088
O63	O	-0.043898	-0.529448	0.000110
H64	H	-0.032134	-0.466406	0.000105
H65	H	0.247189	-0.107434	0.000100
H66	H	-0.429472	-0.826790	-0.124993
O67	O	-0.050948	-0.132114	0.000144
H68	H	-0.103451	-0.179094	0.000163
H69	H	-0.458615	-1.026238	0.000196
H70	H	-0.027997	-0.283386	0.000127
H71	H	-0.429535	-0.826754	0.125194
O72	O	-0.005767	-1.001012	0.192367
H73	H	0.029524	-1.037800	0.152921
H74	H	-0.020940	-0.680713	0.000095
H75	H	0.009364	-0.987435	0.360821
H76	H	0.009379	-0.987460	0.639387
H77	H	0.009383	-0.987472	0.796403
O78	O	0.232021	-0.787141	0.807836
H79	H	0.271785	-0.751346	0.763207
H80	H	0.216885	-0.800711	0.639382
H81	H	0.216868	-0.800679	0.203801
H82	H	0.216868	-0.800693	0.360816
