data_functionalizedCrystal
_audit_creation_method	'MofGen! by Chris Wilmer'
_symmetry_space_group_name_H-M	'P1'
_symmetry_Int_Tables_number	1
_symmetry_cell_setting	triclinic
loop_
_symmetry_equiv_pos_as_xyz
  x,y,z
_cell_length_a	10.723024
_cell_length_b	10.723024
_cell_length_c	9.798715
_cell_angle_alpha	89.998022
_cell_angle_beta	89.996609
_cell_angle_gamma	84.467869
loop_
_atom_site_label
_atom_site_type_symbol
_atom_site_fract_x
_atom_site_fract_y
_atom_site_fract_z
O1	O	1.657187	0.175024	-0.113478
O2	O	1.294035	0.191778	-0.113483
O3	O	1.483988	0.001825	-0.113475
O4	O	1.467234	0.364977	-0.113486
O5	O	1.483974	0.001824	0.113507
O6	O	1.294021	0.191777	0.113499
O7	O	1.657173	0.175024	0.113504
Zn8	Zn	1.475595	0.183401	0.149540
Zn9	Zn	1.475613	0.183401	-0.149519
O10	O	1.467220	0.364977	0.113496
C11	C	1.247528	0.190558	0.000008
C12	C	1.108974	0.186911	0.000006
C13	C	1.033991	0.293198	0.000002
C14	C	0.890788	0.289431	0.000001
C15	C	1.482762	-0.044675	0.000014
C16	C	1.479114	-0.183229	0.000009
C17	C	1.585401	-0.258212	0.000009
C18	C	1.581634	-0.401415	0.000004
C19	C	1.703680	0.176243	0.000010
C20	C	1.842234	0.179891	0.000003
C21	C	1.468447	0.411477	0.000004
C22	C	1.472094	0.550031	-0.000000
N23	N	1.475591	0.183399	0.353640
N24	N	1.475627	0.183393	-0.353619
C25	C	1.555347	0.103292	0.421420
C26	C	1.555367	0.103288	0.578582
H27	H	0.906659	0.088896	-0.000002
N28	N	0.805471	0.409979	0.000038
H29	H	0.821985	0.460266	-0.084094
H30	H	0.715297	0.390120	0.000100
H31	H	1.075814	0.386984	0.000007
H32	H	1.067152	0.093125	-0.000026
H33	H	1.381099	-0.385544	0.000010
N34	N	1.702165	-0.486759	0.000015
H35	H	1.705743	-0.541388	-0.084127
H36	H	1.775716	-0.434591	0.000071
N37	N	1.709640	-0.202831	0.000026
H38	H	1.694721	-0.108381	0.000036
H39	H	1.758640	-0.231607	0.084180
N40	N	1.645788	0.012436	0.344202
H41	H	1.630428	-0.076216	0.369016
H42	H	1.632923	0.025409	0.242899
N43	N	1.645829	0.012443	0.655777
H44	H	1.633023	0.025319	0.757106
H45	H	1.630428	-0.076173	0.630881
H46	H	1.385328	-0.225051	-0.000001
N47	N	1.385167	0.274252	0.569204
H48	H	1.433532	0.329745	0.509907
H49	H	1.329423	0.226090	0.510010
N50	N	1.385157	0.274240	0.430887
H51	H	1.400505	0.362900	0.406089
H52	H	1.296421	0.259220	0.406077
