data_functionalizedCrystal
_audit_creation_method	'MofGen! by Chris Wilmer'
_symmetry_space_group_name_H-M	'P1'
_symmetry_Int_Tables_number	1
_symmetry_cell_setting	triclinic
loop_
_symmetry_equiv_pos_as_xyz
  x,y,z
_cell_length_a	16.959455
_cell_length_b	16.959453
_cell_length_c	16.959447
_cell_angle_alpha	90.031064
_cell_angle_beta	90.016723
_cell_angle_gamma	90.018936
loop_
_atom_site_label
_atom_site_type_symbol
_atom_site_fract_x
_atom_site_fract_y
_atom_site_fract_z
Zn1	Zn	1.208384	-0.314688	0.446955
Zn2	Zn	1.541718	0.018645	0.780289
Zn3	Zn	1.875051	0.351979	1.113622
Zn4	Zn	1.208307	-0.446881	0.314775
Zn5	Zn	1.541640	-0.113547	0.648108
Zn6	Zn	1.874974	0.219786	0.981442
Zn7	Zn	1.076213	-0.314718	0.314787
Zn8	Zn	1.409546	0.018616	0.648121
Zn9	Zn	1.742879	0.351949	0.981454
Zn10	Zn	1.076178	-0.446826	0.446908
Zn11	Zn	1.409511	-0.113493	0.780241
Zn12	Zn	1.742844	0.219841	1.113575
O13	O	1.142270	-0.380778	0.380856
O14	O	1.475604	-0.047445	0.714190
O15	O	1.808937	0.285889	1.047523
O16	O	1.318985	-0.332234	0.429436
O17	O	1.652318	0.001099	0.762769
O18	O	1.985652	0.334432	1.096103
O19	O	1.190767	-0.429384	0.204166
O20	O	1.524100	-0.096051	0.537499
O21	O	1.857433	0.237283	0.870832
O22	O	1.093793	-0.204103	0.332344
O23	O	1.427126	0.129231	0.665678
O24	O	1.760459	0.462564	0.999011
O25	O	1.318928	-0.429355	0.332324
O26	O	1.652261	-0.096022	0.665657
O27	O	1.985595	0.237311	0.998990
O28	O	1.190898	-0.204081	0.429448
O29	O	1.524232	0.129252	0.762781
O30	O	1.857565	0.462586	1.096114
O31	O	1.093718	-0.332284	0.204175
O32	O	1.427051	0.001049	0.537508
O33	O	1.760384	0.334382	0.870841
O34	O	0.965597	-0.332232	0.332299
O35	O	1.298931	0.001102	0.665632
O36	O	1.632264	0.334435	0.998965
O37	O	1.093733	-0.429263	0.557525
O38	O	1.427066	-0.095929	0.890859
O39	O	1.760399	0.237404	1.224192
O40	O	0.965571	-0.429291	0.429367
O41	O	1.298905	-0.095958	0.762701
O42	O	1.632238	0.237376	1.096034
O43	O	1.190864	-0.332181	0.557560
O44	O	1.524198	0.001152	0.890893
O45	O	1.857531	0.334485	1.224227
O46	O	1.190733	-0.557484	0.332278
O47	O	1.524066	-0.224151	0.665611
O48	O	1.857399	0.109182	0.998944
O49	O	1.093658	-0.557444	0.429355
O50	O	1.426991	-0.224111	0.762689
O51	O	1.760324	0.109222	1.096022
C52	C	0.936904	-0.380759	0.380830
C53	C	1.270237	-0.047426	0.714163
C54	C	1.603571	0.285907	1.047496
C55	C	0.849048	-0.380770	0.380837
C56	C	1.182381	-0.047437	0.714170
C57	C	1.515714	0.285897	1.047504
C58	C	0.807764	-0.330164	0.330379
C59	C	1.141097	0.003170	0.663712
C60	C	1.474430	0.336503	0.997045
C61	C	0.807778	-0.431383	0.431307
C62	C	1.141111	-0.098049	0.764640
C63	C	1.474445	0.235284	1.097973
C64	C	0.725232	-0.431392	0.431318
C65	C	1.058565	-0.098058	0.764652
C66	C	1.391899	0.235275	1.097985
C67	C	0.683948	-0.380785	0.380860
C68	C	1.017281	-0.047452	0.714194
C69	C	1.350615	0.285882	1.047527
C70	C	0.725210	-0.330169	0.330391
C71	C	1.058543	0.003164	0.663724
C72	C	1.391877	0.336497	0.997057
C73	C	0.683964	-0.482001	0.481793
C74	C	1.017297	-0.148667	0.815126
C75	C	1.350631	0.184666	1.148460
C76	C	0.601413	-0.482011	0.481807
C77	C	0.934746	-0.148678	0.815140
C78	C	1.268080	0.184655	1.148474
C79	C	0.560128	-0.431408	0.431344
C80	C	0.893461	-0.098075	0.764678
C81	C	1.226794	0.235259	1.098011
C82	C	0.601395	-0.380791	0.380872
C83	C	0.934728	-0.047458	0.714205
C84	C	1.268061	0.285876	1.047539
C85	C	0.560111	-0.330184	0.330414
C86	C	0.893444	0.003149	0.663747
C87	C	1.226777	0.336482	0.997080
C88	C	0.601376	-0.279571	0.279937
C89	C	0.934709	0.053763	0.613270
C90	C	1.268043	0.387096	0.946603
C91	C	0.683924	-0.279566	0.279928
C92	C	1.017258	0.053767	0.613261
C93	C	1.350591	0.387101	0.946594
C94	C	0.477579	-0.431413	0.431353
C95	C	0.810913	-0.098079	0.764687
C96	C	1.144246	0.235254	1.098020
C97	C	0.477557	-0.330190	0.330426
C98	C	0.810890	0.003143	0.663759
C99	C	1.144224	0.336476	0.997092
C100	C	1.142204	-0.586144	0.380827
C101	C	1.475538	-0.252811	0.714161
C102	C	1.808871	0.080522	1.047494
C103	C	1.142249	-0.674001	0.380841
C104	C	1.475582	-0.340668	0.714175
C105	C	1.808915	-0.007334	1.047508
C106	C	1.192898	-1.045407	0.431513
C107	C	1.526231	-0.712073	0.764847
C108	C	1.859565	-0.378740	1.098180
C109	C	1.091863	-1.045546	0.330317
C110	C	1.425197	-0.712213	0.663650
C111	C	1.758530	-0.378880	0.996983
C112	C	1.091834	-0.963000	0.330298
C113	C	1.425167	-0.629667	0.663632
C114	C	1.758501	-0.296334	0.996965
C115	C	1.142337	-0.921654	0.380889
C116	C	1.475670	-0.588321	0.714223
C117	C	1.809003	-0.254987	1.047556
C118	C	1.192869	-0.962853	0.431499
C119	C	1.526202	-0.629520	0.764832
C120	C	1.859535	-0.296187	1.098165
C121	C	1.041297	-0.921795	0.279696
C122	C	1.374631	-0.588461	0.613029
C123	C	1.707964	-0.255128	0.946363
C124	C	1.041265	-0.839244	0.279676
C125	C	1.374599	-0.505911	0.613010
C126	C	1.707932	-0.172577	0.946343
C127	C	1.091773	-0.797896	0.330264
C128	C	1.425106	-0.464563	0.663597
C129	C	1.758439	-0.131229	0.996931
C130	C	1.142307	-0.839100	0.380875
C131	C	1.475641	-0.505767	0.714208
C132	C	1.808974	-0.172434	1.047541
C133	C	1.192810	-0.797754	0.431465
C134	C	1.526143	-0.464420	0.764799
C135	C	1.859477	-0.131087	1.098132
C136	C	1.243349	-0.838957	0.482073
C137	C	1.576683	-0.505623	0.815406
C138	C	1.910016	-0.172290	1.148739
C139	C	1.243376	-0.921505	0.482086
C140	C	1.576709	-0.588172	0.815419
C141	C	1.910043	-0.254839	1.148753
C142	C	1.091746	-0.715347	0.330250
C143	C	1.425079	-0.382014	0.663584
C144	C	1.758413	-0.048681	0.996917
C145	C	1.192781	-0.715200	0.431451
C146	C	1.526114	-0.381867	0.764784
C147	C	1.859447	-0.048534	1.098117
C148	C	1.348439	-0.380798	0.380884
C149	C	1.681772	-0.047464	0.714217
C150	C	2.015105	0.285869	1.047550
C151	C	1.436295	-0.380806	0.380895
C152	C	1.769628	-0.047473	0.714229
C153	C	2.102962	0.285861	1.047562
C154	C	1.142303	-0.380713	0.587025
C155	C	1.475637	-0.047379	0.920358
C156	C	1.808970	0.285954	1.253691
C157	C	1.142317	-0.380685	0.674881
C158	C	1.475651	-0.047351	1.008215
C159	C	1.808984	0.285982	1.341548
C160	C	1.142358	-0.174610	0.380903
C161	C	1.475691	0.158723	0.714236
C162	C	1.809025	0.492057	1.047569
C163	C	1.142395	-0.086753	0.380923
C164	C	1.475729	0.246580	0.714256
C165	C	1.809062	0.579913	1.047589
C166	C	1.142283	-0.380786	0.175490
C167	C	1.475616	-0.047453	0.508823
C168	C	1.808950	0.285880	0.842157
C169	C	1.142422	-0.380591	0.087634
C170	C	1.475756	-0.047258	0.420967
C171	C	1.809089	0.286075	0.754301
C172	C	1.091840	-0.431147	1.046342
C173	C	1.425173	-0.097814	1.379675
C174	C	1.758506	0.235520	1.713008
C175	C	1.192984	-0.330056	1.046373
C176	C	1.526317	0.003278	1.379706
C177	C	1.859650	0.336611	1.713039
C178	C	1.192963	-0.330072	0.963827
C179	C	1.526296	0.003261	1.297160
C180	C	1.859629	0.336594	1.630493
C181	C	1.142380	-0.380628	0.922534
C182	C	1.475714	-0.047295	1.255868
C183	C	1.809047	0.286039	1.589201
C184	C	1.091819	-0.431167	0.963788
C185	C	1.425152	-0.097834	1.297121
C186	C	1.758485	0.235500	1.630455
C187	C	1.243529	-0.279540	0.922567
C188	C	1.576862	0.053793	1.255900
C189	C	1.910196	0.387127	1.589234
C190	C	1.243511	-0.279555	0.840016
C191	C	1.576844	0.053778	1.173349
C192	C	1.910177	0.387111	1.506683
C193	C	1.192923	-0.330108	0.798722
C194	C	1.526257	0.003226	1.132056
C195	C	1.859590	0.336559	1.465389
C196	C	1.142359	-0.380648	0.839981
C197	C	1.475693	-0.047315	1.173314
C198	C	1.809026	0.286019	1.506648
C199	C	1.091777	-0.431204	0.798688
C200	C	1.425110	-0.097870	1.132022
C201	C	1.758443	0.235463	1.465355
C202	C	1.041208	-0.481741	0.839946
C203	C	1.374541	-0.148407	1.173279
C204	C	1.707875	0.184926	1.506612
C205	C	1.041232	-0.481719	0.922494
C206	C	1.374565	-0.148386	1.255827
C207	C	1.707898	0.184947	1.589161
C208	C	1.192900	-0.330129	0.716174
C209	C	1.526233	0.003204	1.049507
C210	C	1.859567	0.336538	1.382840
C211	C	1.091756	-0.431224	0.716135
C212	C	1.425089	-0.097890	1.049468
C213	C	1.758422	0.235443	1.382802
H214	H	0.443985	-0.472616	0.472456
H215	H	0.777318	-0.139283	0.805789
H216	H	1.110651	0.194050	1.139123
N217	N	0.986679	-0.536208	0.966991
N218	N	1.320012	-0.202874	1.300324
N219	N	1.653345	0.130459	1.633658
H220	H	0.994366	-0.528520	1.025551
H221	H	1.327700	-0.195187	1.358884
H222	H	1.661033	0.138147	1.692217
H223	H	0.998937	-0.592670	0.952553
H224	H	1.332270	-0.259337	1.285887
H225	H	1.665604	0.073997	1.619220
H226	H	1.284465	-0.805283	0.523268
H227	H	1.617799	-0.471950	0.856601
H228	H	1.951132	-0.138616	1.189934
H229	H	1.284686	-0.238405	0.806432
H230	H	1.618020	0.094929	1.139765
H231	H	1.951353	0.428262	1.473098
H232	H	1.000179	-0.955465	0.238510
H233	H	1.333512	-0.622132	0.571843
H234	H	1.666845	-0.288799	0.905176
H235	H	0.567752	-0.238363	0.238857
H236	H	0.901085	0.094970	0.572191
H237	H	1.234418	0.428304	0.905524
N238	N	0.728489	-0.536585	0.536208
N239	N	1.061822	-0.203251	0.869541
N240	N	1.395155	0.130082	1.202875
H241	H	0.787044	-0.528906	0.528534
H242	H	1.120377	-0.195572	0.861868
H243	H	1.453711	0.137761	1.195201
H244	H	0.714033	-0.593020	0.523805
H245	H	1.047367	-0.259687	0.857138
H246	H	1.380700	0.073646	1.190472
N247	N	0.556911	-0.536610	0.536237
N248	N	0.890245	-0.203277	0.869570
N249	N	1.223578	0.130057	1.202903
H250	H	0.498352	-0.528940	0.528587
H251	H	0.831685	-0.195606	0.861920
H252	H	1.165019	0.137727	1.195253
H253	H	0.571364	-0.524375	0.592709
H254	H	0.904697	-0.191042	0.926043
H255	H	1.238031	0.142291	1.259376
H256	H	1.050666	-0.472291	1.079937
H257	H	1.383999	-0.138957	1.413270
H258	H	1.717332	0.194376	1.746603
H259	H	1.234170	-0.288900	1.079998
H260	H	1.567503	0.044433	1.413331
H261	H	1.900837	0.377767	1.746665
H262	H	0.717530	-0.238359	0.238833
H263	H	1.050863	0.094975	0.572166
H264	H	1.384197	0.428308	0.905499
H265	H	1.000027	-0.522907	0.806315
H266	H	1.333361	-0.189573	1.139648
H267	H	1.666694	0.143760	1.472981
N268	N	1.247247	-0.670610	0.486025
N269	N	1.580580	-0.337277	0.819359
N270	N	1.913914	-0.003943	1.152692
H271	H	1.239559	-0.612063	0.478341
H272	H	1.572892	-0.278730	0.811675
H273	H	1.906226	0.054604	1.145008
H274	H	1.303713	-0.685005	0.473779
H275	H	1.637046	-0.351672	0.807112
H276	H	1.970380	-0.018339	1.140446
H277	H	0.841365	-0.288957	0.289279
H278	H	1.174699	0.044376	0.622613
H279	H	1.508032	0.377709	0.955946
N280	N	1.247440	-0.275635	0.671674
N281	N	1.580773	0.057698	1.005007
N282	N	1.914106	0.391032	1.338341
H283	H	1.279490	-0.243609	0.710359
H284	H	1.612823	0.089724	1.043692
H285	H	1.946157	0.423058	1.377025
H286	H	1.215275	-0.239057	0.637435
H287	H	1.548608	0.094276	0.970768
H288	H	1.881942	0.427610	1.304101
H289	H	0.443949	-0.288981	0.289335
H290	H	0.777283	0.044353	0.622668
H291	H	1.110616	0.377686	0.956001
H292	H	1.234048	-1.078958	0.472714
H293	H	1.567381	-0.745624	0.806048
H294	H	1.900715	-0.412291	1.139381
N295	N	0.852301	-0.485964	0.485726
N296	N	1.185634	-0.152631	0.819059
N297	N	1.518967	0.180703	1.152393
H298	H	0.910857	-0.478280	0.478060
H299	H	1.244190	-0.144947	0.811393
H300	H	1.577523	0.188386	1.144726
H301	H	0.837852	-0.542401	0.473321
H302	H	1.171185	-0.209067	0.806654
H303	H	1.504518	0.124266	1.139988
N304	N	0.986763	-0.794806	0.225092
N305	N	1.320097	-0.461473	0.558426
N306	N	1.653430	-0.128140	0.891759
H307	H	0.954776	-0.833526	0.193046
H308	H	1.288109	-0.500193	0.526379
H309	H	1.621443	-0.166860	0.859713
H310	H	1.018956	-0.760566	0.188537
H311	H	1.352289	-0.427232	0.521871
H312	H	1.685622	-0.093899	0.855204
H313	H	1.284522	-0.955060	0.523288
H314	H	1.617855	-0.621727	0.856622
H315	H	1.951188	-0.288393	1.189955
H316	H	1.284715	-0.238385	0.956193
H317	H	1.618049	0.094948	1.289527
H318	H	1.951382	0.428281	1.622860
H319	H	1.050594	-0.681804	0.289051
H320	H	1.383927	-0.348470	0.622384
H321	H	1.717261	-0.015137	0.955717
N322	N	1.037397	-1.090136	0.275751
N323	N	1.370731	-0.756803	0.609084
N324	N	1.704064	-0.423470	0.942417
H325	H	1.045085	-1.148683	0.283439
H326	H	1.378418	-0.815349	0.616772
H327	H	1.711751	-0.482016	0.950106
H328	H	1.049741	-1.075739	0.219310
H329	H	1.383074	-0.742405	0.552644
H330	H	1.716408	-0.409072	0.885977
H331	H	1.050558	-0.472386	0.682520
H332	H	1.383891	-0.139052	1.015854
H333	H	1.717224	0.194281	1.349187
