data_functionalizedCrystal
_audit_creation_method	'MofGen! by Chris Wilmer'
_symmetry_space_group_name_H-M	'P1'
_symmetry_Int_Tables_number	1
_symmetry_cell_setting	triclinic
loop_
_symmetry_equiv_pos_as_xyz
  x,y,z
_cell_length_a	16.109318
_cell_length_b	14.853559
_cell_length_c	14.586319
_cell_angle_alpha	89.998399
_cell_angle_beta	90.000075
_cell_angle_gamma	83.550009
loop_
_atom_site_label
_atom_site_type_symbol
_atom_site_fract_x
_atom_site_fract_y
_atom_site_fract_z
O1	O	1.103281	0.115956	-0.076160
O2	O	0.861241	0.130360	-0.076178
O3	O	0.988730	-0.008083	-0.076167
O4	O	0.975792	0.254399	-0.076170
O5	O	0.988721	-0.008085	0.076314
O6	O	0.861232	0.130358	0.076303
O7	O	1.103273	0.115954	0.076321
Cu8	Cu	0.982252	0.123156	0.090235
Cu9	Cu	0.982262	0.123158	-0.090091
O10	O	0.975784	0.254396	0.076311
C11	C	0.830261	0.129773	0.000060
C12	C	0.737964	0.128016	0.000053
C13	C	0.438888	0.122340	-0.083048
C14	C	0.525611	0.123986	-0.083053
C15	C	0.525620	0.123971	0.083190
C16	C	0.438899	0.122319	0.083194
C17	C	0.395535	0.121508	0.000073
C18	C	0.568979	0.124806	0.000063
C19	C	0.663009	0.126590	0.000057
C20	C	0.301499	0.119722	0.000078
C21	C	0.988141	-0.041671	0.000072
C22	C	0.986388	-0.141753	0.000066
C23	C	0.978956	-0.564915	-0.083052
C24	C	0.978947	-0.564912	0.083189
C25	C	0.980601	-0.470881	0.083190
C26	C	0.981431	-0.423863	0.000069
C27	C	0.980608	-0.470875	-0.083053
C28	C	0.981415	-0.423861	0.166310
C29	C	0.983068	-0.329824	0.166314
C30	C	0.983905	-0.282805	0.083192
C31	C	0.983083	-0.329823	0.000067
C32	C	0.983913	-0.282805	-0.083054
C33	C	0.983097	-0.329822	-0.166180
C34	C	0.981445	-0.423856	-0.166175
C35	C	0.985557	-0.188771	0.083187
C36	C	0.985565	-0.188765	-0.083056
C37	C	1.134252	0.116541	0.000081
C38	C	1.226549	0.118298	0.000082
C39	C	0.976373	0.287985	0.000070
C40	C	0.978126	0.388067	0.000069
N41	N	0.982250	0.123154	0.217067
N42	N	0.982270	0.123153	-0.216923
C43	C	1.038721	0.061872	0.452078
C44	C	1.038724	0.061869	0.548059
C45	C	0.925793	0.184438	0.548059
C46	C	0.925787	0.184435	0.452080
C47	C	0.982256	0.123153	0.404091
C48	C	0.982264	0.123154	0.596052
C49	C	0.982266	0.123152	0.700119
C50	C	0.982253	0.123154	0.300018
H51	H	0.983767	-0.291527	-0.233857
C52	C	1.100838	-0.005539	0.600845
C53	C	1.162956	-0.072937	0.548058
C54	C	1.225073	-0.140348	0.600844
C55	C	1.225071	-0.140362	0.706418
C56	C	1.162951	-0.072962	0.759211
C57	C	1.100834	-0.005550	0.706425
H58	H	1.162959	-0.072928	0.469900
H59	H	1.271058	-0.190243	0.561762
H60	H	1.271054	-0.190265	0.745493
H61	H	1.162948	-0.072970	0.837368
H62	H	1.054849	0.044344	0.745506
C63	C	1.100829	-0.005544	0.399290
C64	C	1.068263	-0.074505	0.333313
C65	C	1.130371	-0.141925	0.280528
C66	C	1.225044	-0.140384	0.293722
C67	C	1.257614	-0.071420	0.359702
C68	C	1.195507	-0.004000	0.412487
H69	H	0.998176	-0.075649	0.323543
H70	H	1.106259	-0.192977	0.231685
H71	H	1.271019	-0.190292	0.254648
H72	H	1.327701	-0.070277	0.369472
H73	H	1.219618	0.047051	0.461330
C74	C	0.391187	0.121437	-0.174478
C75	C	0.438880	0.122345	-0.265909
C76	C	0.391182	0.121438	-0.357343
C77	C	0.295792	0.119622	-0.357345
C78	C	0.248094	0.118714	-0.265911
C79	C	0.295792	0.119621	-0.174477
H80	H	0.509498	0.123689	-0.265910
H81	H	0.426492	0.122110	-0.425028
H82	H	0.260484	0.118951	-0.425030
H83	H	0.177476	0.117370	-0.265910
H84	H	0.260482	0.118949	-0.106792
H85	H	0.986245	-0.150490	-0.150744
C86	C	0.863686	0.251854	0.600847
C87	C	0.863733	0.251914	0.706420
C88	C	0.801625	0.319334	0.759205
C89	C	0.739471	0.386694	0.706415
C90	C	0.739421	0.386636	0.600836
C91	C	0.801529	0.319216	0.548051
H92	H	0.909746	0.202048	0.745504
H93	H	0.801663	0.319377	0.837362
H94	H	0.693495	0.436602	0.745489
H95	H	0.693408	0.436502	0.561752
H96	H	0.801491	0.319174	0.469894
H97	H	0.978295	-0.603201	-0.150731
H98	H	0.560906	0.124662	-0.150738
C99	C	0.573322	0.124873	0.174620
C100	C	0.668712	0.126696	0.174620
C101	C	0.716411	0.127601	0.266052
C102	C	0.668721	0.126684	0.357484
C103	C	0.573327	0.124861	0.357487
C104	C	0.525627	0.123956	0.266055
H105	H	0.704019	0.127375	0.106933
H106	H	0.787029	0.128950	0.266049
H107	H	0.704031	0.127354	0.425168
H108	H	0.538019	0.124182	0.425174
H109	H	0.455010	0.122606	0.266058
C110	C	0.391205	0.121403	0.174634
C111	C	0.393773	0.199862	0.243214
C112	C	0.346080	0.198941	0.334648
C113	C	0.295818	0.119562	0.357504
C114	C	0.293248	0.041097	0.288922
C115	C	0.340941	0.042018	0.197488
H116	H	0.430982	0.258629	0.226296
H117	H	0.347983	0.257026	0.385417
H118	H	0.260513	0.118880	0.425189
H119	H	0.256039	-0.017670	0.305840
H120	H	0.339038	-0.016067	0.146719
H121	H	0.980779	-0.462146	-0.233852
C122	C	0.978024	-0.616640	0.174611
C123	C	0.904743	-0.671027	0.197445
C124	C	0.903818	-0.722765	0.288868
C125	C	0.976174	-0.720115	0.357456
C126	C	1.049460	-0.665726	0.334624
C127	C	1.050385	-0.613988	0.243201
H128	H	0.851176	-0.672990	0.146671
H129	H	0.849566	-0.763028	0.305770
H130	H	0.975489	-0.758415	0.425133
H131	H	1.103027	-0.663763	0.385398
H132	H	1.104637	-0.573726	0.226299
C133	C	0.983976	-0.278113	0.257750
C134	C	0.912978	-0.203206	0.280614
C135	C	0.913889	-0.151495	0.372050
C136	C	0.985798	-0.174691	0.440624
C137	C	1.056801	-0.249601	0.417763
C138	C	1.055890	-0.301312	0.326326
H139	H	0.859741	-0.186032	0.229850
H140	H	0.861327	-0.096042	0.388974
H141	H	0.986472	-0.136411	0.508311
H142	H	1.110037	-0.266775	0.468526
H143	H	1.108452	-0.356765	0.309403
C144	C	0.980487	-0.475599	0.257725
C145	C	0.907207	-0.529996	0.280537
C146	C	0.906274	-0.581749	0.371950
C147	C	0.978620	-0.579106	0.440552
C148	C	1.051905	-0.524707	0.417742
C149	C	1.052839	-0.472953	0.326329
H150	H	0.853647	-0.531955	0.229752
H151	H	0.852023	-0.622019	0.388835
H152	H	0.977929	-0.617417	0.508221
H153	H	1.105465	-0.522748	0.468526
H154	H	1.107090	-0.432684	0.309444
H155	H	0.879803	0.234339	0.413007
H156	H	0.986203	-0.150491	0.150867
