data_functionalizedCrystal
_audit_creation_method	'MofGen! by Chris Wilmer'
_symmetry_space_group_name_H-M	'P1'
_symmetry_Int_Tables_number	1
_symmetry_cell_setting	triclinic
loop_
_symmetry_equiv_pos_as_xyz
  x,y,z
_cell_length_a	12.837943
_cell_length_b	12.837942
_cell_length_c	11.892095
_cell_angle_alpha	85.697431
_cell_angle_beta	85.689438
_cell_angle_gamma	85.171060
loop_
_atom_site_label
_atom_site_type_symbol
_atom_site_fract_x
_atom_site_fract_y
_atom_site_fract_z
O1	O	1.408367	-0.266110	-0.093982
O2	O	1.105234	-0.252667	-0.093989
O3	O	1.250078	-0.107822	-0.093979
O4	O	1.263522	-0.410955	-0.093992
O5	O	1.237999	-0.119879	0.094028
O6	O	1.093155	-0.264723	0.094018
O7	O	1.396288	-0.278167	0.094025
Zn8	Zn	1.242803	-0.273359	0.123871
Zn9	Zn	1.258718	-0.257474	-0.123836
O10	O	1.251443	-0.423011	0.094014
C11	C	1.060125	-0.254153	0.000014
C12	C	0.943710	-0.240609	0.000011
C13	C	0.718835	-0.403439	0.000020
C14	C	0.609453	-0.390717	0.000019
C15	C	0.615561	-0.202446	0.000015
C16	C	0.724943	-0.215167	0.000017
C17	C	0.776577	-0.315667	0.000017
C18	C	0.885961	-0.328387	0.000011
C19	C	0.892066	-0.140117	0.000015
C20	C	0.782684	-0.127395	0.000014
C21	C	1.239497	-0.074781	0.000024
C22	C	1.225953	0.041634	0.000022
C23	C	1.441397	-0.276680	0.000020
C24	C	1.557812	-0.290224	0.000015
C25	C	1.262024	-0.456052	0.000009
C26	C	1.275569	-0.572467	0.000004
N27	N	1.231950	-0.284200	0.292925
C28	C	1.388784	0.266509	0.000002
C29	C	1.376062	0.375892	-0.000000
C30	C	1.187791	0.369784	0.000007
C31	C	1.200512	0.260402	0.000009
C32	C	1.301011	0.208768	0.000008
C33	C	1.313731	0.099383	0.000019
C34	C	1.125461	0.093278	0.000018
C35	C	1.112740	0.202660	0.000016
N36	N	1.269579	-0.246626	-0.292889
C37	C	1.345098	-0.171130	0.529580
C38	C	1.337519	-0.178716	0.647922
C39	C	1.209210	-0.306952	0.647951
C40	C	1.216788	-0.299366	0.529610
C41	C	1.284736	-0.231454	0.470428
C42	C	1.292319	-0.223874	0.352085
C43	C	1.164005	-0.352104	0.352116
C44	C	1.156426	-0.359690	0.470458
H45	H	0.573495	-0.120630	0.000108
H46	H	0.760876	-0.485269	0.000019
C47	C	1.007680	-0.376795	0.603581
C48	C	1.081745	-0.434337	0.535521
H49	H	0.961582	-0.422883	0.643752
H50	H	0.968676	-0.326536	0.557422
H51	H	1.042557	-0.341954	0.655741
H52	H	1.046869	-0.469171	0.483355
H53	H	1.120755	-0.484614	0.581685
H54	H	1.470613	0.224468	0.000012
C55	C	1.024821	-0.039006	-0.096639
C56	C	0.955538	-0.043628	0.000010
H57	H	1.064009	0.020558	-0.096641
H58	H	0.986229	-0.033755	-0.162186
H59	H	1.071226	-0.100681	-0.096626
H60	H	0.909128	0.018043	-0.000008
H61	H	0.994133	-0.048870	0.065573
C62	C	1.441028	-0.206690	0.218908
C63	C	1.366952	-0.149193	0.287000
H64	H	1.487090	-0.160571	0.178728
H65	H	1.406163	-0.241548	0.166768
H66	H	1.480079	-0.256935	0.265057
H67	H	1.327895	-0.098953	0.240850
H68	H	1.401821	-0.114317	0.339147
C69	C	0.942146	0.224935	0.096667
C70	C	1.002272	0.259417	0.000017
H71	H	0.873945	0.259968	0.096662
H72	H	0.974530	0.239927	0.162213
H73	H	0.937173	0.151525	0.096660
H74	H	1.007252	0.332826	0.000028
H75	H	0.969881	0.244433	-0.065546
C76	C	0.975095	0.060593	-0.096615
C77	C	1.028969	0.029811	0.000027
H78	H	0.915523	0.021415	-0.096600
H79	H	1.020063	0.048109	-0.162167
H80	H	0.953149	0.133130	-0.096608
H81	H	1.050922	-0.042724	0.000016
H82	H	0.983993	0.042287	0.065595
H83	H	1.447536	0.422901	-0.000009
C84	C	1.471171	-0.045142	0.541433
C85	C	1.419785	-0.096487	0.464521
H86	H	1.517275	0.000944	0.501267
H87	H	1.510173	-0.095417	0.587578
H88	H	1.420912	-0.006116	0.587604
H89	H	1.470044	-0.135519	0.418355
H90	H	1.380781	-0.046205	0.418357
C91	C	1.050926	-0.431488	-0.000001
C92	C	0.942722	-0.438852	0.000007
H93	H	1.085963	-0.499687	-0.000009
H94	H	1.065892	-0.399103	0.065557
H95	H	1.074306	-0.390691	-0.065568
H96	H	0.919341	-0.479643	0.065579
H97	H	0.927749	-0.471252	-0.065557
C98	C	0.617720	-0.024297	0.000005
C99	C	0.725922	-0.016930	0.000007
H100	H	0.582682	0.043903	-0.000008
H101	H	0.594335	-0.065079	0.065567
H102	H	0.602761	-0.056696	-0.065557
H103	H	0.740882	0.015462	0.065574
H104	H	0.749316	0.023868	-0.065562
H105	H	1.395563	0.057344	0.000022
H106	H	0.562444	-0.462191	0.000024
C107	C	1.337640	-0.047032	0.780998
C108	C	1.403871	-0.112407	0.712944
H109	H	1.378605	-0.006089	0.821134
H110	H	1.296104	-0.088563	0.833178
H111	H	1.293304	-0.002094	0.734829
H112	H	1.448201	-0.157351	0.759113
H113	H	1.445425	-0.070872	0.660758
H114	H	1.114857	-0.401227	0.303941
H115	H	1.105969	0.411844	-0.000004
C116	C	1.060469	-0.324028	0.781080
C117	C	1.134525	-0.381587	0.713026
H118	H	1.014366	-0.370107	0.821261
H119	H	1.021468	-0.273772	0.734915
H120	H	1.095353	-0.289184	0.833231
H121	H	1.099641	-0.416426	0.660869
H122	H	1.173531	-0.431863	0.759195
