data_functionalizedCrystal
_audit_creation_method	'MofGen! by Chris Wilmer'
_symmetry_space_group_name_H-M	'P1'
_symmetry_Int_Tables_number	1
_symmetry_cell_setting	triclinic
loop_
_symmetry_equiv_pos_as_xyz
  x,y,z
_cell_length_a	16.992697
_cell_length_b	15.455438
_cell_length_c	16.992695
_cell_angle_alpha	87.143447
_cell_angle_beta	90.668337
_cell_angle_gamma	92.853811
loop_
_atom_site_label
_atom_site_type_symbol
_atom_site_fract_x
_atom_site_fract_y
_atom_site_fract_z
O1	O	-1.047630	0.072005	-0.170139
O2	O	-0.547630	0.572005	0.329861
O3	O	-0.819228	0.072035	-0.168309
O4	O	-0.319228	0.572035	0.331691
O5	O	-0.932514	0.072013	-0.055024
O6	O	-0.432514	0.572013	0.444976
O7	O	-0.934344	0.072027	-0.283424
O8	O	-0.434344	0.572027	0.216576
O9	O	-0.938956	-0.072247	-0.048567
O10	O	-0.438956	0.427753	0.451433
O11	O	-0.825670	-0.072226	-0.161852
O12	O	-0.325670	0.427774	0.338148
O13	O	-1.054072	-0.072255	-0.163683
O14	O	-0.554072	0.427745	0.336317
Cu15	Cu	-0.940459	-0.085413	-0.162178
Cu16	Cu	-0.440459	0.414587	0.337822
Cu17	Cu	-0.932841	0.085192	-0.169814
Cu18	Cu	-0.432841	0.585192	0.330186
O19	O	-0.940786	-0.072234	-0.276968
O20	O	-0.440786	0.427766	0.223032
C21	C	-0.793089	-0.000092	-0.162725
C22	C	-0.293089	0.499908	0.337275
C23	C	-0.705604	-0.000081	-0.155696
C24	C	-0.205604	0.499919	0.344304
N25	N	-0.945823	-0.205407	-0.156807
N26	N	-0.445823	0.294593	0.343193
C27	C	-0.659613	-0.000077	-0.223515
C28	C	-0.159613	0.499923	0.276485
C29	C	-0.577413	-0.000088	-0.216905
C30	C	-0.077413	0.499912	0.283095
C31	C	-0.541205	-0.000097	-0.142477
C32	C	-0.041205	0.499903	0.357523
C33	C	-0.587202	-0.000104	-0.074654
C34	C	-0.087202	0.499896	0.425346
C35	C	-0.669401	-0.000099	-0.081264
C36	C	-0.169401	0.499901	0.418736
C37	C	-0.295891	-0.000118	-0.115081
C38	C	0.204109	0.499882	0.384919
C39	C	-0.213686	-0.000120	-0.108476
C40	C	0.286314	0.499880	0.391524
C41	C	-0.203903	-0.000106	-0.250728
C42	C	0.296097	0.499894	0.249272
C43	C	-0.286103	-0.000096	-0.257332
C44	C	0.213897	0.499904	0.242668
C45	C	-0.332094	-0.000107	-0.189508
C46	C	0.167906	0.499893	0.310492
N47	N	-0.457183	-0.000105	-0.135719
N48	N	0.042817	0.499895	0.364281
N49	N	-0.416114	-0.000105	-0.196266
N50	N	0.083886	0.499895	0.303734
C51	C	-0.897685	-0.250813	-0.204914
C52	C	-0.397685	0.249187	0.295086
C53	C	-0.901764	-0.341620	-0.200851
C54	C	-0.401764	0.158380	0.299149
C55	C	-0.953978	-0.387019	-0.148676
C56	C	-0.453978	0.112981	0.351324
C57	C	-1.002121	-0.341606	-0.100567
C58	C	-0.502121	0.158394	0.399433
C59	C	-0.998046	-0.250801	-0.104635
C60	C	-0.498046	0.249199	0.395365
C61	C	-0.971551	-0.658596	-0.131137
C62	C	-0.471551	-0.158596	0.368863
C63	C	-0.975621	-0.749407	-0.127071
C64	C	-0.475621	-0.249407	0.372929
C65	C	-0.875264	-0.749415	-0.227357
C66	C	-0.375264	-0.249415	0.272643
C67	C	-0.871190	-0.658608	-0.231417
C68	C	-0.371190	-0.158608	0.268583
C69	C	-0.919336	-0.613203	-0.183311
C70	C	-0.419336	-0.113203	0.316689
N71	N	-0.958147	-0.479838	-0.144520
N72	N	-0.458147	0.020162	0.355480
N73	N	-0.915171	-0.520386	-0.187472
N74	N	-0.415171	-0.020386	0.312528
C75	C	-0.080211	-0.000123	-0.169266
C76	C	0.419789	0.499877	0.330734
C77	C	-0.167695	-0.000116	-0.176294
C78	C	0.332305	0.499884	0.323706
C79	C	-0.933379	-0.000117	-0.022435
C80	C	-0.433379	0.499883	0.477565
C81	C	-0.926350	-0.000116	0.065049
C82	C	-0.426350	0.499884	0.565049
N83	N	-0.927482	0.205186	-0.175178
N84	N	-0.427482	0.705186	0.324822
C85	C	-0.939921	-0.000102	-0.309556
C86	C	-0.439921	0.499898	0.190444
C87	C	-0.946950	-0.000098	-0.397041
C88	C	-0.446950	0.499902	0.102959
C89	C	-0.994169	-0.000125	0.111040
C90	C	-0.494169	0.499875	0.611040
C91	C	-0.987559	-0.000116	0.193241
C92	C	-0.487559	0.499884	0.693241
C93	C	-0.913131	-0.000104	0.229449
C94	C	-0.413131	0.499896	0.729449
C95	C	-0.845307	-0.000091	0.183451
C96	C	-0.345307	0.499909	0.683451
C97	C	-0.851917	-0.000094	0.101252
C98	C	-0.351917	0.499906	0.601252
C99	C	-0.885736	-0.000088	0.474762
C100	C	-0.385736	0.499912	0.974762
C101	C	-0.879131	-0.000088	0.556968
C102	C	-0.379131	0.499912	1.056968
C103	C	-1.021384	-0.000111	0.566752
C104	C	-0.521384	0.499889	1.066752
C105	C	-1.027987	-0.000119	0.484551
C106	C	-0.527987	0.499881	0.984551
C107	C	-0.960163	-0.000102	0.438560
C108	C	-0.460163	0.499898	0.938560
N109	N	-0.906374	-0.000097	0.313471
N110	N	-0.406374	0.499903	0.813471
N111	N	-0.966921	-0.000103	0.354540
N112	N	-0.466921	0.499897	0.854540
H113	H	-0.689087	-0.000069	-0.284122
H114	H	-0.189087	0.499931	0.215878
Br115	Br	-1.036889	-0.596980	-0.065851
Br116	Br	-0.536889	-0.096980	0.434149
Br117	Br	-0.793688	-0.000060	0.412357
Br118	Br	-0.293688	0.499940	0.912357
Br119	Br	-0.826814	-0.189210	-0.275721
Br120	Br	-0.326814	0.310790	0.224279
H121	H	-0.315577	-0.000079	-0.317939
H122	H	0.184423	0.499921	0.182061
H123	H	-0.828673	-0.621646	-0.273902
H124	H	-0.328673	-0.121646	0.226098
H125	H	-0.836066	-0.786392	-0.266524
H126	H	-0.336066	-0.286392	0.233476
Br127	Br	-0.514999	-0.000080	-0.308948
Br128	Br	-0.014999	0.499920	0.191052
Br129	Br	-0.358297	-0.000135	-0.023034
Br130	Br	0.141703	0.499865	0.476966
H131	H	-1.088594	-0.000129	0.455076
H132	H	-0.588594	0.499871	0.955076
H133	H	-1.018142	-0.786367	-0.084581
H134	H	-0.518142	-0.286367	0.415419
H135	H	-0.818520	-0.000092	0.586446
H136	H	-0.318520	0.499908	1.086446
Br137	Br	-1.113425	-0.000134	0.629171
Br138	Br	-0.613425	0.499866	1.129171
H139	H	-0.784706	-0.000076	0.212938
H140	H	-0.284706	0.499924	0.712938
Br141	Br	-1.072991	-0.403215	-0.029762
Br142	Br	-0.572991	0.096785	0.470238
H143	H	-0.557716	-0.000123	-0.014052
H144	H	-0.057716	0.499877	0.485948
Br145	Br	-0.731819	-0.000112	0.010779
Br146	Br	-0.231819	0.499888	0.510779
H147	H	-0.796692	-0.000086	0.063807
H148	H	-0.296692	0.499914	0.563807
H149	H	-0.166449	-0.000099	-0.305946
H150	H	0.333551	0.499901	0.194054
H151	H	-1.054776	-0.000141	0.081567
H152	H	-0.554776	0.499859	0.581567
Br153	Br	-1.063385	-0.189178	-0.039349
Br154	Br	-0.563385	0.310822	0.460651
H155	H	-0.862567	-0.378590	-0.240024
H156	H	-0.362567	0.121410	0.259976
H157	H	-1.042784	-0.000126	0.230684
H158	H	-0.542784	0.499874	0.730684
H159	H	-0.184209	-0.000126	-0.047865
H160	H	0.315791	0.499874	0.452135
