data_functionalizedCrystal
_audit_creation_method	'MofGen! by Chris Wilmer'
_symmetry_space_group_name_H-M	'P1'
_symmetry_Int_Tables_number	1
_symmetry_cell_setting	triclinic
loop_
_symmetry_equiv_pos_as_xyz
  x,y,z
_cell_length_a	13.032831
_cell_length_b	16.120484
_cell_length_c	13.032268
_cell_angle_alpha	99.642751
_cell_angle_beta	90.886977
_cell_angle_gamma	86.078521
loop_
_atom_site_label
_atom_site_type_symbol
_atom_site_fract_x
_atom_site_fract_y
_atom_site_fract_z
Zn1	Zn	1.458766	-0.562103	-0.811459
Zn2	Zn	1.471747	-0.686112	-0.646236
Zn3	Zn	1.311081	-0.527333	-0.615806
Zn4	Zn	1.278313	-0.681612	-0.796116
O5	O	1.379976	-0.614290	-0.717404
O6	O	1.603247	-0.594988	-0.808698
O7	O	1.469580	-0.652382	-0.497592
O8	O	1.338953	-0.415480	-0.635446
O9	O	1.612784	-0.686097	-0.687309
O10	O	1.447456	-0.441026	-0.779192
O11	O	1.351539	-0.535727	-0.475236
O12	O	1.163974	-0.531364	-0.620568
O13	O	1.283104	-0.678427	-0.942758
O14	O	1.139900	-0.644712	-0.753041
O15	O	1.415682	-0.590624	-0.954031
O16	O	1.437806	-0.801980	-0.672431
O17	O	1.295691	-0.798674	-0.782547
C18	C	1.114921	-0.583777	-0.681838
C19	C	1.001525	-0.570746	-0.666648
C20	C	0.939092	-0.621091	-0.725332
C21	C	0.821890	-0.607624	-0.709634
C22	C	1.364626	-0.830530	-0.729153
C23	C	1.358148	-0.923053	-0.734226
C24	C	1.346324	-1.092455	-0.743510
C25	C	1.413810	-1.135307	-0.691340
C26	C	1.407231	-1.229569	-0.696506
C27	C	1.352901	-0.998185	-0.738345
C28	C	1.646067	-0.644923	-0.753110
C29	C	1.759458	-0.657977	-0.768325
C30	C	1.344290	-0.637902	-0.986938
C31	C	1.329082	-0.647964	-1.101797
C32	C	1.395412	-0.397210	-0.705636
C33	C	1.401989	-0.304704	-0.700622
C34	C	1.387900	-0.609007	-1.158582
C35	C	1.372183	-0.619405	-1.277296
C36	C	1.415587	-0.590717	-0.448924
C37	C	1.431009	-0.580443	-0.334079
H38	H	0.788578	-0.554544	-0.647771
H39	H	1.310182	-0.660453	-1.316561
H40	H	1.492999	-0.539383	-1.294813
C41	C	0.984090	-0.692791	-0.808908
C42	C	1.058696	-0.762503	-0.777292
C43	C	1.103692	-0.834204	-0.860871
C44	C	1.074081	-0.836194	-0.976067
C45	C	0.999470	-0.766479	-1.007689
C46	C	0.954475	-0.694778	-0.924110
H47	H	1.080620	-0.761033	-0.692012
H48	H	1.158924	-0.885812	-0.837461
H49	H	1.107389	-0.889271	-1.037937
H50	H	0.977547	-0.767949	-1.092969
H51	H	0.899243	-0.643170	-0.947520
C52	C	1.471649	-0.553546	-1.105544
C53	C	1.585203	-0.574971	-1.136216
C54	C	1.668955	-0.519508	-1.083182
C55	C	1.639153	-0.442622	-0.999477
C56	C	1.525594	-0.421194	-0.968802
C57	C	1.441842	-0.476656	-1.021835
H58	H	1.607268	-0.631890	-1.198183
H59	H	1.753019	-0.535371	-1.105891
H60	H	1.701151	-0.401565	-0.960219
H61	H	1.503528	-0.364275	-0.906834
H62	H	1.357778	-0.460793	-0.999127
C63	C	0.804445	-0.729684	-0.851906
C64	C	0.879047	-0.799399	-0.820288
C65	C	0.924033	-0.871105	-0.903867
C66	C	0.894417	-0.873096	-1.019062
C67	C	0.819811	-0.803379	-1.050684
C68	C	0.774825	-0.731673	-0.967106
H69	H	0.900974	-0.797927	-0.735009
H70	H	0.979262	-0.922715	-0.880457
H71	H	0.927718	-0.926178	-1.080931
H72	H	0.797884	-0.804851	-1.135964
H73	H	0.719597	-0.680063	-0.990516
H74	H	0.968208	-0.517670	-0.604790
C75	C	1.245333	-0.703424	-1.154837
C76	C	1.131779	-0.682000	-1.124168
C77	C	1.048028	-0.737461	-1.177205
C78	C	1.077831	-0.814347	-1.260911
C79	C	1.191390	-0.835774	-1.291584
C80	C	1.275142	-0.780313	-1.238547
H81	H	1.109713	-0.625081	-1.062200
H82	H	0.963964	-0.721599	-1.154498
H83	H	1.015833	-0.855402	-1.300172
H84	H	1.213457	-0.892693	-1.353552
H85	H	1.359206	-0.796176	-1.261255
C86	C	1.498530	-1.089239	-0.625746
C87	C	1.505069	-0.993609	-0.620595
C88	C	1.589780	-0.947536	-0.554997
C89	C	1.667954	-0.997091	-0.494550
C90	C	1.661418	-1.092726	-0.499699
C91	C	1.576707	-1.138800	-0.565297
H92	H	1.447198	-0.956921	-0.665343
H93	H	1.594618	-0.876740	-0.551186
H94	H	1.730663	-0.962985	-0.445991
H95	H	1.719289	-1.129415	-0.454951
H96	H	1.571869	-1.209595	-0.569108
H97	H	1.283610	-1.126557	-0.792048
