data_functionalizedCrystal
_audit_creation_method	'MofGen! by Chris Wilmer'
_symmetry_space_group_name_H-M	'P1'
_symmetry_Int_Tables_number	1
_symmetry_cell_setting	triclinic
loop_
_symmetry_equiv_pos_as_xyz
  x,y,z
_cell_length_a	14.853567
_cell_length_b	19.188930
_cell_length_c	13.930277
_cell_angle_alpha	89.993194
_cell_angle_beta	89.998167
_cell_angle_gamma	83.389856
loop_
_atom_site_label
_atom_site_type_symbol
_atom_site_fract_x
_atom_site_fract_y
_atom_site_fract_z
O1	O	1.195859	0.091152	-0.079776
O2	O	0.933339	0.102011	-0.079794
O3	O	1.072175	-0.005049	-0.079766
O4	O	1.057023	0.198212	-0.079804
O5	O	1.072161	-0.005046	0.079896
O6	O	0.933325	0.102014	0.079868
O7	O	1.195845	0.091155	0.079886
Zn8	Zn	1.064583	0.096585	0.105227
Zn9	Zn	1.064601	0.096581	-0.105135
O10	O	1.057009	0.198215	0.079858
C11	C	0.899746	0.101521	0.000035
C12	C	0.799671	0.100046	0.000029
C13	C	1.071677	-0.031060	0.000068
C14	C	1.070204	-0.108569	0.000076
C15	C	0.387525	0.030218	0.000064
C16	C	0.365537	0.157407	0.000039
C17	C	0.459563	0.158794	0.000036
C18	C	0.517574	0.095891	0.000045
C19	C	0.481560	0.031602	0.000058
C20	C	0.495585	0.223081	0.000013
C21	C	0.589616	0.224470	0.000009
C22	C	0.647629	0.161567	0.000025
C23	C	0.611610	0.097276	0.000039
C24	C	0.669621	0.034373	0.000048
C25	C	0.633603	-0.029919	0.000069
C26	C	0.539574	-0.031301	0.000074
C27	C	0.741659	0.162949	0.000020
C28	C	0.763656	0.035757	0.000042
C29	C	1.151668	-0.153221	0.000086
C30	C	1.150285	-0.226050	0.000071
C31	C	1.067432	-0.254223	0.000065
C32	C	0.985957	-0.209561	0.000049
C33	C	0.987343	-0.136734	0.000055
N34	N	1.004096	-0.362438	0.054396
N35	N	1.002785	-0.431621	0.054393
C36	C	1.063251	-0.473645	0.000045
N37	N	1.125091	-0.443875	-0.054287
N38	N	1.126405	-0.374686	-0.054279
C39	C	1.065920	-0.333190	0.000058
C40	C	1.143220	-0.597267	0.000037
C41	C	1.141833	-0.670096	0.000015
C42	C	0.977503	-0.653606	0.000003
C43	C	0.978893	-0.580778	0.000015
C44	C	1.061754	-0.552613	0.000036
C45	C	1.229438	0.091646	0.000055
C46	C	1.329513	0.093120	0.000055
C47	C	1.057507	0.224226	0.000022
C48	C	1.058980	0.301736	0.000008
N49	N	1.064577	0.096588	0.248793
N50	N	1.064614	0.096573	-0.248701
C51	C	1.003093	0.143979	0.299044
C52	C	1.126068	0.049193	0.299047
C53	C	1.126077	0.049190	0.399543
C54	C	1.064593	0.096582	0.449794
C55	C	1.003098	0.143976	0.399549
C56	C	1.187564	0.001792	0.449795
C57	C	1.187576	0.001787	0.550297
C58	C	1.126095	0.049182	0.600550
C59	C	1.064599	0.096579	0.550299
C60	C	1.003114	0.143971	0.600549
C61	C	0.941621	0.191371	0.550300
C62	C	0.941617	0.191372	0.449801
C63	C	1.126099	0.049182	0.701049
C64	C	1.003120	0.143968	0.701055
H65	H	0.810884	-0.015466	0.000053
C66	C	1.255211	-0.050360	0.605562
N67	N	1.306152	-0.089639	0.647188
H68	H	1.237619	-0.036796	0.408878
H69	H	1.219140	-0.130295	0.000100
H70	H	0.358195	-0.022127	0.000085
C71	C	1.193737	-0.002954	0.756318
N72	N	1.244689	-0.042224	0.797946
C73	C	1.239905	-0.275176	0.000088
N74	N	1.307408	-0.312176	0.000104
H75	H	0.953054	0.182563	0.741963
H76	H	0.918498	-0.232504	0.000042
H77	H	0.510239	-0.083644	0.000114
H78	H	0.318299	0.208620	0.000023
C79	C	0.873975	0.243503	0.394520
N80	N	0.823025	0.282765	0.352878
H81	H	0.680849	-0.081134	0.000070
C82	C	0.886364	-0.684591	-0.000007
N83	N	0.817715	-0.707933	-0.000017
H84	H	0.770981	0.215294	0.000005
H85	H	0.448345	0.274293	-0.000004
C86	C	0.935453	0.196116	0.243770
N87	N	0.884505	0.235386	0.202136
H88	H	0.618933	0.276821	-0.000008
C89	C	0.889274	-0.531658	0.000009
N90	N	0.821769	-0.494661	0.000001
C91	C	1.234368	-0.566283	0.000046
N92	N	1.303022	-0.542949	0.000050
H93	H	0.891556	0.229955	0.591226
C94	C	1.193677	-0.002950	0.243768
N95	N	1.244597	-0.042231	0.202127
H96	H	1.208174	-0.706452	0.000018
H97	H	0.921003	-0.100377	0.000047
