data_functionalizedCrystal
_audit_creation_method	'MofGen! by Chris Wilmer'
_symmetry_space_group_name_H-M	'P1'
_symmetry_Int_Tables_number	1
_symmetry_cell_setting	triclinic
loop_
_symmetry_equiv_pos_as_xyz
  x,y,z
_cell_length_a	12.759399
_cell_length_b	17.077404
_cell_length_c	12.759393
_cell_angle_alpha	89.977064
_cell_angle_beta	89.968523
_cell_angle_gamma	90.013363
loop_
_atom_site_label
_atom_site_type_symbol
_atom_site_fract_x
_atom_site_fract_y
_atom_site_fract_z
Zn1	Zn	-0.418259	1.200109	-0.594119
Zn2	Zn	-0.593976	1.200030	-0.418438
Zn3	Zn	-0.418306	1.068837	-0.418443
Zn4	Zn	-0.593891	1.068826	-0.594064
O5	O	-0.506108	1.134450	-0.506266
O6	O	-0.441584	1.309945	-0.570836
O7	O	-0.570729	1.182599	-0.271418
O8	O	-0.271279	1.086288	-0.441772
O9	O	-0.570682	1.309887	-0.441764
O10	O	-0.271244	1.182733	-0.570841
O11	O	-0.441665	1.086212	-0.271422
O12	O	-0.441582	0.958989	-0.441719
O13	O	-0.570537	1.086269	-0.741093
O14	O	-0.570583	0.958981	-0.570747
O15	O	-0.441501	1.182722	-0.741133
O16	O	-0.740986	1.182588	-0.441710
O17	O	-0.740923	1.086193	-0.570742
C18	C	-0.506079	0.930503	-0.506228
C19	C	-0.506093	0.843253	-0.506237
C20	C	-0.439036	0.467466	-0.573620
C21	C	-0.439028	0.549446	-0.573608
C22	C	-0.506130	0.590404	-0.506293
C23	C	-0.573251	0.549377	-0.438992
C24	C	-0.573263	0.467398	-0.439010
C25	C	-0.573220	0.720247	-0.438958
C26	C	-0.573206	0.802232	-0.438939
C27	C	-0.438985	0.802295	-0.573557
C28	C	-0.438997	0.720316	-0.573575
C29	C	-0.506117	0.679295	-0.506272
C30	C	-0.779075	1.134402	-0.506243
C31	C	-0.895852	1.134454	-0.506267
C32	C	-0.950712	1.184704	-0.439157
C33	C	-1.060436	1.184754	-0.439192
C34	C	-1.060431	1.084298	-0.573451
C35	C	-0.950709	1.084252	-0.573421
C36	C	-1.210319	1.277408	-0.401813
C37	C	-1.265182	1.327651	-0.334686
C38	C	-1.229643	1.339729	-0.232177
C39	C	-1.139243	1.301553	-0.196773
C40	C	-1.084385	1.251304	-0.263895
C41	C	-1.119922	1.239241	-0.366418
C42	C	-0.800824	0.991597	-0.610789
C43	C	-0.745964	0.941343	-0.677906
C44	C	-0.781501	0.929257	-0.780417
C45	C	-0.871904	0.967419	-0.815816
C46	C	-0.926764	1.017673	-0.748700
C47	C	-0.891220	1.029761	-0.646190
C48	C	-0.232075	1.134520	-0.506313
C49	C	-0.115298	1.134550	-0.506333
C50	C	-0.506004	1.134503	-0.780300
C51	C	-0.505960	1.134526	-0.897077
C52	C	-0.506137	1.339195	-0.506305
C53	C	-0.506150	1.426444	-0.506322
C54	C	-0.438707	1.084378	-1.061671
C55	C	-0.438743	1.084356	-0.951947
C56	C	-0.573139	1.184726	-0.951936
C57	C	-0.573098	1.184751	-1.061659
C58	C	-0.314889	1.056308	-0.802014
C59	C	-0.247722	1.006101	-0.747158
C60	C	-0.231566	0.929519	-0.782762
C61	C	-0.282592	0.903130	-0.873220
C62	C	-0.349767	0.953333	-0.928071
C63	C	-0.365903	1.029925	-0.892468
C64	C	-0.696953	1.212791	-1.211593
C65	C	-0.764134	1.262991	-1.266445
C66	C	-0.780301	1.339574	-1.230843
C67	C	-0.729293	1.365960	-1.140382
C68	C	-0.662112	1.315761	-1.085530
C69	C	-0.645944	1.239179	-1.121139
C70	C	-0.506135	1.134443	-0.233299
C71	C	-0.505883	1.134573	-0.116523
H72	H	-0.627880	0.686850	-0.384158
H73	H	-0.384387	0.434123	-0.628430
C74	C	-0.157673	0.874295	-0.722422
N75	N	-0.102011	0.832705	-0.676972
H76	H	-1.105108	1.043424	-0.628123
C77	C	-0.332647	1.140554	-0.762846
N78	N	-0.346025	1.204009	-0.733339
H79	H	-0.391311	0.931847	-1.001720
H80	H	-0.269441	0.840766	-0.902195
C81	C	-0.647032	0.847284	-0.364899
N82	N	-0.702641	0.881217	-0.309133
H83	H	-0.805666	1.241500	-1.340105
H84	H	-1.110321	1.311385	-0.113296
H85	H	-0.384352	0.686970	-0.628384
H86	H	-0.736824	0.888334	-0.835061
C87	C	-0.647060	0.594434	-0.364940
N88	N	-0.702649	0.628370	-0.309157
H89	H	-0.627916	0.434000	-0.384211
H90	H	-0.906050	1.225582	-0.384478
H91	H	-0.627865	1.225579	-0.907252
H92	H	-0.620579	1.337251	-1.011871
C93	C	-0.984946	1.209316	-0.224959
N94	N	-0.910042	1.177696	-0.195633
H95	H	-1.274320	1.380640	-0.177522
C96	C	-0.365189	0.594565	-0.647633
N97	N	-0.309568	0.628549	-0.703389
H98	H	-1.338786	1.358735	-0.363521
H99	H	-1.000373	1.048750	-0.777532
H100	H	-0.742459	1.428320	-1.111392
C101	C	-1.249416	1.264130	-0.514581
N102	N	-1.278872	1.254127	-0.599518
H103	H	-0.900839	0.957579	-0.899290
H104	H	-0.771875	1.001440	-0.527319
C105	C	-0.646525	0.899355	-0.638957
N106	N	-0.571629	0.867729	-0.609620
C107	C	-0.854206	1.394792	-1.291186
N108	N	-0.909866	1.436384	-1.336635
H109	H	-0.383973	1.043521	-1.106338
H110	H	-0.384331	0.835698	-0.628356
H111	H	-0.206177	1.027594	-0.673507
C112	C	-0.679180	1.128542	-1.250758
N113	N	-0.665803	1.065085	-1.280255
