data_functionalizedCrystal
_audit_creation_method	'MofGen! by Chris Wilmer'
_symmetry_space_group_name_H-M	'P1'
_symmetry_Int_Tables_number	1
_symmetry_cell_setting	triclinic
loop_
_symmetry_equiv_pos_as_xyz
  x,y,z
_cell_length_a	23.196402
_cell_length_b	23.196402
_cell_length_c	23.196402
_cell_angle_alpha	60.004943
_cell_angle_beta	59.998254
_cell_angle_gamma	90.003744
loop_
_atom_site_label
_atom_site_type_symbol
_atom_site_fract_x
_atom_site_fract_y
_atom_site_fract_z
Zr1	Zr	0.555342	-0.075659	0.631027
O2	O	0.463282	-0.167704	0.751294
O3	O	0.583566	-0.047445	0.510759
O4	O	0.583553	-0.167711	0.631026
O5	O	0.463303	0.047432	0.631028
O6	O	0.678423	-0.167714	0.631028
O7	O	0.463295	-0.047438	0.631026
O8	O	0.678446	0.047420	0.415891
O9	O	0.463280	-0.167702	0.846165
O10	O	0.666401	-0.035412	0.560229
O11	O	0.595606	0.035391	0.560229
O12	O	0.595592	-0.106207	0.701828
O13	O	0.524797	-0.035404	0.701828
Zr14	Zr	0.706662	0.075642	0.631032
Zr15	Zr	0.706649	-0.075665	0.631030
Zr16	Zr	0.555355	0.075647	0.631030
Zr17	Zr	0.555339	-0.075656	0.782335
Zr18	Zr	0.706665	0.075639	0.479724
O19	O	0.678439	0.047427	0.751301
O20	O	0.678420	-0.167711	0.751297
O21	O	0.463300	0.047434	0.751297
O22	O	0.798722	0.167686	0.510765
O23	O	0.798704	-0.047452	0.510762
O24	O	0.583584	0.167694	0.510762
O25	O	0.798702	-0.047450	0.631032
O26	O	0.678451	0.167693	0.631033
O27	O	0.583581	0.167696	0.631032
O28	O	0.798710	0.047420	0.631033
O29	O	0.583549	-0.167706	0.846166
O30	O	0.678456	0.167689	0.415893
O31	O	0.798724	0.167684	0.415895
O32	O	0.798714	0.047416	0.415893
O33	O	0.463290	-0.047433	0.846166
O34	O	0.583559	-0.047438	0.846168
O35	O	0.666413	0.106189	0.560231
O36	O	0.737207	0.035386	0.560231
O37	O	0.666398	-0.035409	0.701831
O38	O	0.595604	0.035394	0.701831
C39	C	0.441741	-0.000002	0.631027
C40	C	0.377507	0.000000	0.631026
C41	C	0.631006	-0.000013	0.441767
C42	C	0.631007	-0.000014	0.377533
C43	C	0.631018	0.189253	0.631033
C44	C	0.631024	0.253486	0.631034
C45	C	0.384294	0.036947	0.557114
C46	C	0.323939	0.036950	0.557113
C47	C	0.256799	-0.000008	0.631028
C48	C	0.250015	-0.036957	0.704949
C49	C	0.310369	-0.036953	0.704948
C50	C	0.132863	-0.061917	0.687656
C51	C	0.072512	-0.061923	0.687654
C52	C	0.070645	-0.000019	0.631034
C53	C	0.129144	0.061890	0.574402
C54	C	0.189498	0.061894	0.574401
C55	C	0.191351	-0.000016	0.631037
C56	C	0.011991	0.036935	0.557116
C57	C	-0.048366	0.036940	0.557118
C58	C	-0.122291	-0.036974	0.704956
C59	C	-0.061934	-0.036972	0.704952
C60	C	0.005205	-0.000019	0.631030
C61	C	0.820264	-0.000015	0.631033
C62	C	0.884497	-0.000018	0.631034
C63	C	0.630986	-0.189270	0.631027
C64	C	0.630981	-0.253504	0.631026
C65	C	0.594065	0.246707	0.704945
C66	C	0.594055	0.307062	0.704946
C67	C	0.631017	0.374195	0.631032
C68	C	0.667977	0.380971	0.557110
C69	C	0.667980	0.320617	0.557112
C70	C	0.692920	0.498128	0.574403
C71	C	0.692918	0.558480	0.574405
C72	C	0.631005	0.560348	0.631025
C73	C	0.569094	0.501851	0.687657
C74	C	0.569097	0.441497	0.687658
C75	C	0.631017	0.439643	0.631022
C76	C	0.594032	0.619010	0.704943
C77	C	0.594019	0.679367	0.704941
C78	C	0.667948	0.753276	0.557103
C79	C	0.667954	0.692920	0.557107
C80	C	0.630997	0.625789	0.631029
C81	C	0.667958	-0.036955	-0.085310
C82	C	0.667956	-0.036961	-0.024952
C83	C	0.631003	-0.000003	0.005230
C84	C	0.594034	0.036950	-0.024936
C85	C	0.594031	0.036950	-0.085288
C86	C	0.636288	0.061901	0.067259
C87	C	0.636296	0.061904	0.127606
C88	C	0.631008	-0.000002	0.191379
C89	C	0.625726	-0.061910	0.194789
C90	C	0.625723	-0.061911	0.134437
C91	C	0.631002	0.000002	0.070672
C92	C	0.667968	-0.036964	0.286990
C93	C	0.667962	-0.036972	0.347354
C94	C	0.594045	0.036946	0.347362
C95	C	0.594047	0.036948	0.287005
C96	C	0.631013	-0.000006	0.256820
C97	C	0.630998	-0.000005	0.820293
C98	C	0.630997	-0.000004	0.884527
C99	C	0.820268	-0.000019	0.441770
C100	C	0.884502	-0.000023	0.377537
C101	C	0.631022	0.189249	0.441770
C102	C	0.631029	0.253481	0.377537
C103	C	0.820284	0.189242	0.441773
C104	C	0.884524	0.253472	0.377541
C105	C	0.441721	-0.189260	0.820287
C106	C	0.377480	-0.253490	0.884519
C107	C	0.441737	0.000002	0.820290
C108	C	0.377502	0.000005	0.884523
C109	C	0.630982	-0.189266	0.820290
C110	C	0.630976	-0.253499	0.884523
C111	C	0.877708	-0.036987	0.347371
C112	C	0.938057	-0.037004	0.287025
C113	C	1.005201	-0.000053	0.256843
C114	C	1.011995	0.036912	0.287014
C115	C	0.951646	0.036924	0.347363
C116	C	0.667992	0.320607	0.347373
C117	C	0.667996	0.380966	0.287028
C118	C	0.631040	0.374197	0.256843
C119	C	0.594072	0.307064	0.287012
C120	C	0.594065	0.246706	0.347361
C121	C	0.951652	0.246677	0.347376
C122	C	1.012019	0.307022	0.287032
C123	C	1.005255	0.374162	0.256849
C124	C	0.938120	0.380956	0.287019
C125	C	0.877755	0.320611	0.347366
C126	C	0.310352	-0.246695	0.914690
C127	C	0.249986	-0.307040	0.975053
C128	C	0.256749	-0.374179	1.005240
C129	C	0.323884	-0.380973	0.975066
C130	C	0.384249	-0.320629	0.914708
C131	C	0.384297	0.036963	0.914695
C132	C	0.323947	0.036964	0.975057
C133	C	0.256803	0.000011	1.005242
C134	C	0.250010	-0.036951	0.975067
C135	C	0.310359	-0.036956	0.914710
C136	C	0.667939	-0.246707	0.914689
C137	C	0.667946	-0.307054	0.975034
C138	C	0.630986	-0.374192	1.005217
C139	C	0.594022	-0.380983	0.975045
C140	C	0.594019	-0.320636	0.914697
H141	H	0.438957	0.067033	0.496921
H142	H	0.698053	0.698443	0.496921
N143	N	0.707815	0.825674	0.477376
H144	H	0.673917	0.852357	0.474080
H145	H	0.745005	0.852313	0.474125
N146	N	0.707872	0.453368	0.254493
H147	H	0.731287	0.448492	0.282769
H148	H	0.745029	0.480019	0.193907
H149	H	0.698066	-0.067056	0.262415
H150	H	0.438907	-0.326170	0.890143
N151	N	0.554224	0.299774	0.254440
H152	H	0.573614	0.273119	0.229391
H153	H	0.502525	0.273137	0.300510
H154	H	0.630994	-0.423325	1.054357
N155	N	0.805294	-0.076844	0.379915
H156	H	0.768087	-0.071230	0.422721
H157	H	0.799714	-0.057439	0.333815
H158	H	0.563929	-0.435655	0.999630
H159	H	0.631052	0.423350	0.207703
H160	H	0.563916	-0.326176	0.890142
N161	N	0.502325	0.378410	0.748721
H162	H	0.510636	0.335955	0.783556
H163	H	0.463132	0.388810	0.784536
N164	N	0.930713	-0.076870	0.254490
H165	H	0.954111	-0.042980	0.193906
H166	H	0.954079	-0.114073	0.265056
N167	N	1.084420	0.076769	0.254443
H168	H	1.090084	0.128471	0.229393
H169	H	1.090043	0.057338	0.300512
H170	H	0.563932	0.067041	-0.109847
N171	N	0.759691	0.621566	0.513334
H172	H	0.798911	0.611229	0.477460
H173	H	0.751312	0.663991	0.478560
N174	N	0.958979	0.076798	0.379893
H175	H	1.010674	0.100203	0.351609
H176	H	0.935559	0.113959	0.369381
N177	N	0.707857	0.327918	0.379920
H178	H	0.731268	0.379606	0.351650
H179	H	0.673918	0.304486	0.440506
N180	N	0.331278	0.076827	1.007601
H181	H	0.357938	0.128527	0.961557
H182	H	0.282835	0.071161	1.050433
N183	N	0.191715	0.000019	1.070341
H184	H	0.206215	0.029042	1.084868
H185	H	0.162694	0.021039	1.049292
N186	N	0.303040	-0.174287	0.882143
H187	H	0.276383	-0.168633	0.928192
H188	H	0.351485	-0.137125	0.839314
N189	N	0.331250	0.076803	0.477392
H190	H	0.382940	0.100214	0.430564
H191	H	0.307816	0.042862	0.474180
N192	N	0.554184	0.174320	0.379870
H193	H	0.588062	0.147617	0.369365
H194	H	0.516978	0.147682	0.440442
H195	H	0.237124	0.112304	0.528294
H196	H	0.743339	0.496619	0.528289
N197	N	0.177589	-0.076793	1.007614
H198	H	0.140395	-0.071170	1.050420
H199	H	0.172007	-0.057373	0.961514
N200	N	0.303016	-0.076813	0.882168
H201	H	0.326405	-0.042919	0.821586
H202	H	0.326391	-0.114010	0.892721
H203	H	0.698070	0.435635	0.496929
N204	N	0.707805	-0.174299	0.882143
H205	H	0.731221	-0.179164	0.910414
H206	H	0.744960	-0.147651	0.821557
H207	H	0.698077	0.326142	0.496922
N208	N	0.084408	0.076798	0.477393
H209	H	0.111095	0.042903	0.474095
H210	H	0.079489	0.100210	0.430614
N211	N	0.707812	-0.299712	1.007570
H212	H	0.673917	-0.323104	1.068154
H213	H	0.745012	-0.323084	0.997004
N214	N	0.554175	0.076811	0.007615
H215	H	0.559787	0.071207	0.050423
H216	H	0.573582	0.128493	-0.038478
H217	H	0.207590	-0.423310	1.054387
N218	N	0.127144	0.128664	0.513327
H219	H	0.080033	0.119272	0.521921
H220	H	0.133905	0.166772	0.520912
N221	N	0.177603	-0.076814	0.784672
H222	H	0.140397	-0.071211	0.773458
H223	H	0.172010	-0.128496	0.816954
H224	H	0.438963	0.067059	0.890123
N225	N	0.331174	-0.453390	1.007628
H226	H	0.282743	-0.490581	1.050438
H227	H	0.357854	-0.458988	0.961538
H228	H	-0.042834	0.067032	0.496928
H229	H	0.698055	-0.067046	-0.109883
H230	H	0.621420	-0.112319	0.137218
N231	N	0.958957	0.174267	0.379917
H232	H	1.010647	0.179129	0.351645
H233	H	0.935520	0.147613	0.440503
N234	N	1.084422	0.299685	0.254498
H235	H	1.079541	0.247995	0.282773
H236	H	1.111081	0.323116	0.193912
N237	N	1.070366	0.439245	0.191759
H238	H	1.113916	0.424746	0.177233
H239	H	1.070341	0.468267	0.141717
H240	H	0.195327	-0.301494	0.999611
N241	N	0.502310	0.503852	0.748735
H242	H	0.511699	0.550962	0.740141
H243	H	0.464203	0.497084	0.741153
N244	N	0.554198	0.174314	0.784685
H245	H	0.517000	0.147611	0.787999
H246	H	0.588141	0.147686	0.787940
N247	N	0.930827	0.453371	0.254459
H248	H	0.954225	0.480058	0.264960
H249	H	0.954222	0.479991	0.193884
N250	N	-0.194699	-0.076831	0.784680
H251	H	-0.231904	-0.071226	0.773467
H252	H	-0.200292	-0.128513	0.816960
H253	H	-0.067463	-0.067064	0.765139
H254	H	0.621418	-0.112321	0.246716
N255	N	0.009426	-0.128695	0.748721
H256	H	0.019763	-0.167909	0.784594
H257	H	-0.033009	-0.120320	0.783497
N258	N	0.805353	0.327945	0.379894
H259	H	0.810236	0.379636	0.351609
H260	H	0.778703	0.304523	0.369380
H261	H	0.134369	-0.112327	0.733775
N262	N	1.070291	-0.000062	0.191745
H263	H	1.099341	-0.021097	0.212745
H264	H	1.055736	-0.029074	0.177241
N265	N	0.303052	-0.076809	0.784669
H266	H	0.251362	-0.100222	0.831496
H267	H	0.326482	-0.113962	0.787884
H268	H	0.563955	0.301541	0.765135
H269	H	0.563919	0.673841	0.765131
N270	N	0.554169	0.546602	0.784667
H271	H	0.530748	0.551467	0.831492
H272	H	0.517018	0.519946	0.787884
N273	N	0.707821	-0.076819	0.007592
H274	H	0.759524	-0.057430	-0.038457
H275	H	0.702156	-0.071197	0.050415
N276	N	0.707821	-0.076835	0.379897
H277	H	0.731237	-0.100243	0.351614
H278	H	0.744976	-0.042902	0.369398
N279	N	0.554181	0.076803	0.379913
H280	H	0.559788	0.071195	0.422725
H281	H	0.573587	0.128486	0.333823
H282	H	0.640604	0.112315	0.124818
N283	N	0.554194	0.076815	0.254455
H284	H	0.502491	0.057435	0.300500
H285	H	0.573646	0.128505	0.229406
N286	N	0.641985	0.128674	-0.001519
H287	H	0.645336	0.167891	0.005474
H288	H	0.685599	0.142445	-0.055256
