data_functionalizedCrystal
_audit_creation_method	'MofGen! by Chris Wilmer'
_symmetry_space_group_name_H-M	'P1'
_symmetry_Int_Tables_number	1
_symmetry_cell_setting	triclinic
loop_
_symmetry_equiv_pos_as_xyz
  x,y,z
_cell_length_a	17.077404
_cell_length_b	21.295417
_cell_length_c	17.077396
_cell_angle_alpha	89.967856
_cell_angle_beta	89.980499
_cell_angle_gamma	90.029927
loop_
_atom_site_label
_atom_site_type_symbol
_atom_site_fract_x
_atom_site_fract_y
_atom_site_fract_z
Zn1	Zn	1.200017	-0.250605	-0.443823
Zn2	Zn	1.533351	0.082728	-0.110489
Zn3	Zn	1.866684	0.416061	0.222844
Zn4	Zn	1.199909	-0.355878	-0.312548
Zn5	Zn	1.533242	-0.022545	0.020785
Zn6	Zn	1.866576	0.310788	0.354118
Zn7	Zn	1.068749	-0.250628	-0.312571
Zn8	Zn	1.402083	0.082706	0.020763
Zn9	Zn	1.735416	0.416039	0.354096
Zn10	Zn	1.068702	-0.355841	-0.443772
Zn11	Zn	1.402035	-0.022508	-0.110439
Zn12	Zn	1.735368	0.310826	0.222895
O13	O	1.134344	-0.303238	-0.378178
O14	O	1.467678	0.030095	-0.044845
O15	O	1.801011	0.363429	0.288488
O16	O	1.309850	-0.264577	-0.426421
O17	O	1.643183	0.068757	-0.093087
O18	O	1.976517	0.402090	0.240246
O19	O	1.182485	-0.341942	-0.202704
O20	O	1.515818	-0.008608	0.130629
O21	O	1.849151	0.324725	0.463962
O22	O	1.086228	-0.162535	-0.330012
O23	O	1.419561	0.170798	0.003321
O24	O	1.752894	0.504131	0.336655
O25	O	1.309770	-0.341920	-0.329974
O26	O	1.643104	-0.008587	0.003359
O27	O	1.976437	0.324746	0.336693
O28	O	1.182670	-0.162519	-0.426442
O29	O	1.516003	0.170814	-0.093109
O30	O	1.849336	0.504148	0.240224
O31	O	1.086122	-0.264614	-0.202721
O32	O	1.419456	0.068719	0.130613
O33	O	1.752789	0.402053	0.463946
O34	O	0.958896	-0.264578	-0.329963
O35	O	1.292229	0.068755	0.003370
O36	O	1.625563	0.402089	0.336704
O37	O	1.086146	-0.341856	-0.553626
O38	O	1.419480	-0.008523	-0.220292
O39	O	1.752813	0.324810	0.113041
O40	O	0.958861	-0.341878	-0.426356
O41	O	1.292194	-0.008545	-0.093023
O42	O	1.625528	0.324789	0.240311
O43	O	1.182624	-0.264540	-0.553663
O44	O	1.515957	0.068793	-0.220330
O45	O	1.849290	0.402126	0.113004
O46	O	1.182439	-0.443963	-0.329925
O47	O	1.515772	-0.110630	0.003409
O48	O	1.849105	0.222704	0.336742
O49	O	1.086041	-0.443935	-0.426334
O50	O	1.419375	-0.110602	-0.093001
O51	O	1.752708	0.222731	0.240332
C52	C	0.930396	-0.303227	-0.378157
C53	C	1.263730	0.030107	-0.044823
C54	C	1.597063	0.363440	0.288510
C55	C	0.843147	-0.303237	-0.378166
C56	C	1.176480	0.030096	-0.044833
C57	C	1.509813	0.363430	0.288501
C58	C	0.802159	-0.343548	-0.428277
C59	C	1.135492	-0.010215	-0.094944
C60	C	1.468825	0.323119	0.238389
C61	C	0.720178	-0.343549	-0.428290
C62	C	1.053512	-0.010216	-0.094957
C63	C	1.386845	0.323117	0.238377
C64	C	0.679187	-0.303242	-0.378187
C65	C	1.012521	0.030091	-0.044853
C66	C	1.345854	0.363424	0.288480
C67	C	0.720181	-0.262927	-0.328073
C68	C	1.053514	0.070406	0.005260
C69	C	1.386847	0.403739	0.338594
C70	C	0.802160	-0.262923	-0.328065
C71	C	1.135493	0.070410	0.005268
C72	C	1.468826	0.403744	0.338602
C73	C	0.549311	-0.262940	-0.328092
C74	C	0.882644	0.070394	0.005241
C75	C	1.215977	0.403727	0.338575
C76	C	0.467326	-0.262944	-0.328099
C77	C	0.800660	0.070389	0.005235
C78	C	1.133993	0.403722	0.338568
C79	C	0.467329	-0.343566	-0.428317
C80	C	0.800663	-0.010232	-0.094984
C81	C	1.133996	0.323101	0.238350
C82	C	0.549308	-0.343562	-0.428309
C83	C	0.882642	-0.010228	-0.094976
C84	C	1.215975	0.323105	0.238358
C85	C	0.590296	-0.303247	-0.378194
C86	C	0.923630	0.030086	-0.044861
C87	C	1.256963	0.363420	0.288473
C88	C	1.134244	-0.466790	-0.378139
C89	C	1.467578	-0.133456	-0.044805
C90	C	1.800911	0.199877	0.288528
C91	C	1.134273	-0.536758	-0.378148
C92	C	1.467607	-0.203425	-0.044815
C93	C	1.800940	0.129909	0.288519
C94	C	1.184462	-0.569559	-0.428395
C95	C	1.517795	-0.236226	-0.095062
C96	C	1.851129	0.097108	0.238272
C97	C	1.184490	-0.635301	-0.428414
C98	C	1.517823	-0.301968	-0.095081
C99	C	1.851156	0.031365	0.238252
C100	C	1.134337	-0.668240	-0.378173
C101	C	1.467670	-0.334907	-0.044839
C102	C	1.801004	-0.001574	0.288494
C103	C	1.084138	-0.635431	-0.327922
C104	C	1.417472	-0.302098	0.005411
C105	C	1.750805	0.031235	0.338745
C106	C	1.084107	-0.569690	-0.327910
C107	C	1.417440	-0.236357	0.005424
C108	C	1.750773	0.096977	0.338757
N109	N	1.128408	-0.771504	-0.309474
N110	N	1.461741	-0.438170	0.023859
N111	N	1.795074	-0.104837	0.357192
N112	N	1.128443	-0.833955	-0.309488
N113	N	1.461776	-0.500622	0.023845
N114	N	1.795109	-0.167289	0.357178
C115	C	1.134429	-0.866315	-0.378208
C116	C	1.467762	-0.532982	-0.044875
C117	C	1.801095	-0.199648	0.288459
N118	N	1.140394	-0.833864	-0.446915
N119	N	1.473727	-0.500531	-0.113581
N120	N	1.807060	-0.167197	0.219752
N121	N	1.140363	-0.771407	-0.446900
N122	N	1.473696	-0.438074	-0.113567
N123	N	1.807030	-0.104740	0.219767
C124	C	1.134366	-0.739526	-0.378181
C125	C	1.467699	-0.406192	-0.044847
C126	C	1.801032	-0.072859	0.288486
C127	C	1.184650	-0.970402	-0.428480
C128	C	1.517983	-0.637068	-0.095147
C129	C	1.851317	-0.303735	0.238186
C130	C	1.184672	-1.036145	-0.428501
C131	C	1.518006	-0.702812	-0.095168
C132	C	1.851339	-0.369479	0.238166
C133	C	1.084325	-1.036274	-0.328002
C134	C	1.417658	-0.702941	0.005332
C135	C	1.750992	-0.369607	0.338665
C136	C	1.084299	-0.970532	-0.327988
C137	C	1.417632	-0.637198	0.005345
C138	C	1.750965	-0.303865	0.338679
C139	C	1.134465	-0.937599	-0.378226
C140	C	1.467799	-0.604266	-0.044893
C141	C	1.801132	-0.270933	0.288440
C142	C	1.339089	-0.303250	-0.378201
C143	C	1.672422	0.030083	-0.044867
C144	C	2.005755	0.363417	0.288466
C145	C	1.426338	-0.303255	-0.378210
C146	C	1.759672	0.030078	-0.044877
C147	C	2.093005	0.363412	0.288457
C148	C	1.134392	-0.303192	-0.582923
C149	C	1.467725	0.030142	-0.249589
C150	C	1.801058	0.363475	0.083744
C151	C	1.134412	-0.303172	-0.670173
C152	C	1.467745	0.030161	-0.336839
C153	C	1.801079	0.363495	-0.003506
C154	C	1.134466	-0.139048	-0.378235
C155	C	1.467799	0.194285	-0.044902
C156	C	1.801133	0.527619	0.288431
C157	C	1.134518	-0.069080	-0.378260
C158	C	1.467851	0.264254	-0.044926
C159	C	1.801185	0.597587	0.288407
C160	C	1.184650	-0.262910	-0.711183
C161	C	1.517983	0.070423	-0.377850
C162	C	1.851316	0.403757	-0.044517
C163	C	1.184659	-0.262889	-0.793164
C164	C	1.517992	0.070444	-0.459831
C165	C	1.851326	0.403778	-0.126497
C166	C	1.134434	-0.303134	-0.834132
C167	C	1.467768	0.030200	-0.500799
C168	C	1.801101	0.363533	-0.167465
C169	C	1.084191	-0.343397	-0.793116
C170	C	1.417525	-0.010064	-0.459782
C171	C	1.750858	0.323269	-0.126449
C172	C	1.084178	-0.343415	-0.711137
C173	C	1.417512	-0.010081	-0.377803
C174	C	1.750845	0.323252	-0.044470
C175	C	1.084223	-0.343360	-0.963986
C176	C	1.417556	-0.010026	-0.630652
C177	C	1.750890	0.323307	-0.297319
C178	C	1.084237	-0.343343	-1.045970
C179	C	1.417570	-0.010010	-0.712637
C180	C	1.750903	0.323323	-0.379304
C181	C	1.184703	-0.262834	-1.046013
C182	C	1.518037	0.070499	-0.712680
C183	C	1.851370	0.403833	-0.379346
C184	C	1.184691	-0.262851	-0.964034
C185	C	1.518024	0.070482	-0.630701
C186	C	1.851357	0.403815	-0.297367
C187	C	1.134448	-0.303116	-0.923023
C188	C	1.467782	0.030217	-0.589690
C189	C	1.801115	0.363551	-0.256357
C190	C	1.134342	-0.303239	-0.174231
C191	C	1.467676	0.030094	0.159103
C192	C	1.801009	0.363428	0.492436
C193	C	1.134474	-0.303081	-0.086981
C194	C	1.467807	0.030252	0.246352
C195	C	1.801141	0.363585	0.579685
H196	H	0.835531	-0.230095	-0.287263
H197	H	1.168864	0.103239	0.046070
H198	H	1.502198	0.436572	0.379403
H199	H	0.686799	-0.230106	-0.287282
H200	H	1.020133	0.103227	0.046052
H201	H	1.353466	0.436561	0.379385
H202	H	0.686810	-0.376375	-0.469095
H203	H	1.020143	-0.043042	-0.135762
H204	H	1.353476	0.290292	0.197572
Cl205	Cl	1.247866	-0.212216	-1.097569
Cl206	Cl	1.581199	0.121117	-0.764236
Cl207	Cl	1.914533	0.454450	-0.430902
Cl208	Cl	1.021018	-0.394030	-0.659580
Cl209	Cl	1.354351	-0.060697	-0.326246
Cl210	Cl	1.687684	0.272637	0.007087
H211	H	1.043298	-0.376137	-0.930597
H212	H	1.376631	-0.042804	-0.597264
H213	H	1.709965	0.290529	-0.263930
Cl214	Cl	1.247797	-0.212317	-0.659689
Cl215	Cl	1.581130	0.121016	-0.326355
Cl216	Cl	1.914464	0.454350	0.006978
H217	H	1.043485	-1.063092	-0.287099
H218	H	1.376818	-0.729759	0.046235
H219	H	1.710151	-0.396426	0.379568
Cl220	Cl	1.247836	-0.212261	-0.912532
Cl221	Cl	1.581169	0.121072	-0.579199
Cl222	Cl	1.914502	0.454406	-0.245866
H223	H	0.835528	-0.376372	-0.469075
H224	H	1.168861	-0.043039	-0.135741
H225	H	1.502195	0.290294	0.197592
Cl226	Cl	1.021087	-0.393930	-1.097472
Cl227	Cl	1.354421	-0.060597	-0.764139
Cl228	Cl	1.687754	0.272736	-0.430806
H229	H	1.043302	-0.662255	-0.287017
H230	H	1.376635	-0.328921	0.046317
H231	H	1.709969	0.004412	0.379650
Cl232	Cl	1.021201	-0.929294	-0.264816
Cl233	Cl	1.354534	-0.595960	0.068517
Cl234	Cl	1.687868	-0.262627	0.401851
H235	H	0.582681	-0.376386	-0.469103
H236	H	0.916014	-0.043053	-0.135770
H237	H	1.249348	0.290280	0.197564
H238	H	1.043295	-0.376163	-0.826478
H239	H	1.376628	-0.042830	-0.493145
H240	H	1.709961	0.290504	-0.159812
Cl241	Cl	1.247852	-0.212300	-0.844717
Cl242	Cl	1.581186	0.121034	-0.511384
Cl243	Cl	1.914519	0.454367	-0.178050
Cl244	Cl	1.247523	-0.528162	-0.491557
Cl245	Cl	1.580856	-0.194828	-0.158224
Cl246	Cl	1.914190	0.138505	0.175109
H247	H	0.433953	-0.376389	-0.469124
H248	H	0.767286	-0.043056	-0.135791
H249	H	1.100620	0.290277	0.197542
Cl250	Cl	1.021006	-0.528452	-0.264737
Cl251	Cl	1.354340	-0.195119	0.068596
Cl252	Cl	1.687673	0.138214	0.401930
Cl253	Cl	0.415795	-0.212275	-0.265107
Cl254	Cl	0.749129	0.121058	0.068226
Cl255	Cl	1.082462	0.454392	0.401559
Cl256	Cl	1.247594	-0.676546	-0.491582
Cl257	Cl	1.580927	-0.343212	-0.158249
Cl258	Cl	1.914261	-0.009879	0.175085
Cl259	Cl	0.600837	-0.212257	-0.265090
Cl260	Cl	0.934171	0.121076	0.068244
Cl261	Cl	1.267504	0.454409	0.401577
Cl262	Cl	1.247763	-1.077382	-0.491685
Cl263	Cl	1.581096	-0.744048	-0.158351
Cl264	Cl	1.914430	-0.410715	0.174982
Cl265	Cl	1.247712	-0.928998	-0.491639
Cl266	Cl	1.581045	-0.595665	-0.158306
Cl267	Cl	1.914378	-0.262331	0.175027
