data_functionalizedCrystal
_audit_creation_method	'MofGen! by Chris Wilmer'
_symmetry_space_group_name_H-M	'P1'
_symmetry_Int_Tables_number	1
_symmetry_cell_setting	triclinic
loop_
_symmetry_equiv_pos_as_xyz
  x,y,z
_cell_length_a	12.759401
_cell_length_b	12.594516
_cell_length_c	12.594509
_cell_angle_alpha	90.026199
_cell_angle_beta	90.017895
_cell_angle_gamma	90.015097
loop_
_atom_site_label
_atom_site_type_symbol
_atom_site_fract_x
_atom_site_fract_y
_atom_site_fract_z
Zn1	Zn	1.606239	-0.423737	0.601778
Zn2	Zn	1.606131	-0.601747	0.423805
Zn3	Zn	1.430543	-0.423780	0.423817
Zn4	Zn	1.430525	-0.601671	0.601746
O5	O	1.518359	-0.512734	0.512787
O6	O	1.753245	-0.447365	0.578178
O7	O	1.582801	-0.578190	0.274861
O8	O	1.453901	-0.274829	0.447442
O9	O	1.753166	-0.578148	0.447422
O10	O	1.582985	-0.274797	0.578189
O11	O	1.453797	-0.447438	0.274870
O12	O	1.283519	-0.447364	0.447411
O13	O	1.453872	-0.578018	0.750696
O14	O	1.283506	-0.578060	0.578135
O15	O	1.582967	-0.447291	0.750719
O16	O	1.582784	-0.750683	0.447391
O17	O	1.453767	-0.750627	0.578124
C18	C	1.245392	-0.512709	0.512772
C19	C	1.128615	-0.512724	0.512791
C20	C	1.073787	-0.444754	0.580981
C21	C	0.964063	-0.444774	0.580987
C22	C	0.964005	-0.580744	0.444611
C23	C	1.073727	-0.580718	0.444600
C24	C	1.073821	-0.366255	0.659719
C25	C	0.964096	-0.366276	0.659726
C26	C	1.518290	-0.789275	0.512776
C27	C	1.518357	-0.907580	0.512807
C28	C	1.448178	-0.976842	0.583863
C29	C	1.422580	-1.047707	0.486741
C30	C	1.544051	-1.047514	0.609945
C31	C	1.492708	-0.976887	0.415634
C32	C	1.614224	-0.976689	0.538904
C33	C	1.588662	-1.047522	0.441716
C34	C	1.792392	-0.512760	0.512802
C35	C	1.909169	-0.512771	0.512809
C36	C	1.518430	-0.512641	0.790408
C37	C	1.518460	-0.512601	0.908713
C38	C	1.518457	-0.235113	0.512820
C39	C	1.518499	-0.116808	0.512835
C40	C	1.518350	-0.512750	0.236246
C41	C	1.518523	-0.512490	0.117941
C42	C	1.448266	-0.583663	0.977954
C43	C	1.544132	-0.609671	1.048739
C44	C	1.422669	-0.486529	1.048727
C45	C	1.614375	-0.538660	0.977940
C46	C	1.492848	-0.415473	0.977922
C47	C	1.588779	-0.441444	1.048675
H48	H	1.118363	-0.636056	0.389063
Br49	Br	1.687870	-0.341201	1.100113
Br50	Br	1.287556	-1.099695	0.449954
H51	H	0.934350	-0.388462	0.742128
H52	H	0.919301	-0.636103	0.389093
Br53	Br	1.349404	-0.683974	0.926193
Br54	Br	1.580175	-1.099232	0.746843
Br55	Br	1.123448	-0.228804	0.623158
H56	H	1.565829	-0.691763	1.079846
Br57	Br	1.349091	-0.925111	0.683873
Br58	Br	1.456431	-0.925401	0.278691
Br59	Br	1.130607	-0.415627	0.790136
Br60	Br	1.687687	-1.098923	0.341474
Br61	Br	0.907350	-0.235711	0.610747
Br62	Br	1.456639	-0.278684	0.926033
H63	H	1.695213	-0.945474	0.561001
H64	H	1.695434	-0.560758	0.946977
Br65	Br	1.287607	-0.449851	1.100556
