data_functionalizedCrystal
_audit_creation_method	'MofGen! by Chris Wilmer'
_symmetry_space_group_name_H-M	'P1'
_symmetry_Int_Tables_number	1
_symmetry_cell_setting	triclinic
loop_
_symmetry_equiv_pos_as_xyz
  x,y,z
_cell_length_a	19.288840
_cell_length_b	16.974813
_cell_length_c	17.766277
_cell_angle_alpha	86.339073
_cell_angle_beta	89.983415
_cell_angle_gamma	83.260449
loop_
_atom_site_label
_atom_site_type_symbol
_atom_site_fract_x
_atom_site_fract_y
_atom_site_fract_z
O1	O	0.921541	0.098544	-0.068721
O2	O	0.719302	0.111871	-0.069507
O3	O	0.826059	-0.009917	-0.062099
O4	O	0.814785	0.220332	-0.076130
O5	O	0.826040	-0.009923	0.063090
O6	O	0.719284	0.111865	0.055682
O7	O	0.921523	0.098538	0.056467
Cu8	Cu	0.820401	0.105201	0.067505
Cu9	Cu	0.820424	0.105208	-0.080545
O10	O	0.814766	0.220326	0.049059
C11	C	0.693415	0.111442	-0.006883
C12	C	0.616309	0.110165	-0.006795
C13	C	0.580114	0.109555	-0.075000
C14	C	0.507665	0.108346	-0.074936
C15	C	0.471415	0.107731	-0.006662
C16	C	0.507618	0.108346	0.061552
C17	C	0.580064	0.109563	0.061485
C18	C	0.361993	0.059487	0.048547
C19	C	0.289548	0.058265	0.048611
C20	C	0.247965	0.103981	-0.006453
C21	C	0.278836	0.150909	-0.061593
C22	C	0.351283	0.152126	-0.061660
C23	C	0.392859	0.106412	-0.006582
C24	C	0.133213	0.102061	-0.074593
C25	C	0.060762	0.100857	-0.074526
C26	C	0.060717	0.100849	0.061965
C27	C	0.133165	0.102061	0.061895
C28	C	0.169409	0.102663	-0.006385
C29	C	0.825621	-0.039377	0.002289
C30	C	0.824334	-0.127149	0.007634
C31	C	0.823741	-0.168377	-0.058095
C32	C	0.822527	-0.250848	-0.053071
C33	C	0.821911	-0.292090	0.017683
C34	C	0.822502	-0.250856	0.083417
C35	C	0.823711	-0.168386	0.078392
C36	C	0.818291	-0.538738	0.040029
C37	C	0.817084	-0.621214	0.045049
C38	C	0.817108	-0.621200	-0.091440
C39	C	0.818321	-0.538729	-0.096458
C40	C	0.818908	-0.497502	-0.030724
N41	N	0.820673	-0.376388	0.022820
N42	N	0.820141	-0.413204	-0.035862
C43	C	0.947410	0.098966	-0.006158
C44	C	1.024516	0.100244	-0.006251
C45	C	0.815204	0.249786	-0.015331
C46	C	0.816491	0.337558	-0.020680
N47	N	0.820391	0.105195	0.171636
N48	N	0.820440	0.105207	-0.184675
C49	C	0.867678	0.051294	0.214302
C50	C	0.867682	0.051290	0.293104
C51	C	0.820406	0.105201	0.329236
C52	C	0.773109	0.159107	0.286561
C53	C	0.773102	0.159104	0.207761
C54	C	0.811236	0.177247	0.449685
C55	C	0.811248	0.177251	0.528483
C56	C	0.820424	0.105211	0.572282
C57	C	0.829602	0.033163	0.537273
C58	C	0.829595	0.033160	0.458473
C59	C	0.820408	0.105210	0.414681
C60	C	0.867718	0.051301	0.700394
C61	C	0.867717	0.051296	0.779198
C62	C	0.773148	0.159120	0.772653
C63	C	0.773146	0.159118	0.693851
C64	C	0.820434	0.105209	0.657727
H65	H	0.609534	0.110060	0.117028
H66	H	0.824246	-0.134804	-0.115711
H67	H	0.609620	0.110045	-0.130600
H68	H	0.906190	0.007396	0.327849
H69	H	0.244980	0.188139	-0.106429
H70	H	0.822048	-0.284412	-0.106595
H71	H	0.031202	0.100354	0.117555
H72	H	0.837074	-0.025499	0.572932
H73	H	0.395845	0.022257	0.093390
H74	H	0.816629	-0.654776	-0.144956
H75	H	0.816579	-0.654791	0.102668
H76	H	0.376416	0.190338	-0.106555
H77	H	0.162636	0.102553	0.117436
H78	H	0.837066	-0.025504	0.429971
H79	H	0.824184	-0.134818	0.131916
H80	H	0.734652	0.203012	0.802071
H81	H	0.818823	-0.505156	-0.154074
H82	H	0.906222	0.007403	0.670981
H83	H	0.906222	0.007399	0.813937
H84	H	0.818783	-0.505183	0.093554
H85	H	0.031293	0.100365	-0.130069
H86	H	0.734643	0.203012	0.659110
H87	H	0.162723	0.102560	-0.130191
H88	H	0.803779	0.235917	0.556982
H89	H	0.803752	0.235915	0.414029
H90	H	0.821996	-0.284441	0.141026
H91	H	0.906182	0.007397	0.184892
H92	H	0.734615	0.203001	0.315984
H93	H	0.734594	0.202997	0.173021
H94	H	0.478190	0.107850	-0.130478
H95	H	0.478098	0.107847	0.117141
H96	H	0.264418	0.020050	0.093506
