data_functionalizedCrystal
_audit_creation_method	'MofGen! by Chris Wilmer'
_symmetry_space_group_name_H-M	'P1'
_symmetry_Int_Tables_number	1
_symmetry_cell_setting	triclinic
loop_
_symmetry_equiv_pos_as_xyz
  x,y,z
_cell_length_a	10.868271
_cell_length_b	13.339070
_cell_length_c	13.339071
_cell_angle_alpha	64.370714
_cell_angle_beta	90.002839
_cell_angle_gamma	89.995583
loop_
_atom_site_label
_atom_site_type_symbol
_atom_site_fract_x
_atom_site_fract_y
_atom_site_fract_z
O1	O	0.102360	-1.496807	0.550527
O2	O	0.602360	-0.996807	1.050527
O3	O	0.102353	-1.181997	0.478267
O4	O	0.602353	-0.681997	0.978267
O5	O	0.102351	-1.303272	0.356992
O6	O	0.602351	-0.803272	0.856992
O7	O	0.102362	-1.375532	0.671802
O8	O	0.602362	-0.875532	1.171802
O9	O	-0.102294	-1.303257	0.356982
O10	O	0.397706	-0.803257	0.856982
O11	O	-0.102291	-1.181982	0.478257
O12	O	0.397709	-0.681982	0.978257
O13	O	-0.102285	-1.496791	0.550517
O14	O	0.397715	-0.996791	1.050517
Zn15	Zn	-0.134780	-1.339384	0.514385
Zn16	Zn	0.365220	-0.839384	1.014385
Zn17	Zn	0.134848	-1.339405	0.514399
Zn18	Zn	0.634848	-0.839405	1.014399
O19	O	-0.102282	-1.375516	0.671791
O20	O	0.397718	-0.875516	1.171791
C21	C	0.000030	-1.140874	0.466056
C22	C	0.500030	-0.640874	0.966056
C23	C	0.000028	-1.018360	0.429672
C24	C	0.500028	-0.518360	0.929672
N25	N	-0.318794	-1.339378	0.514377
N26	N	0.181206	-0.839378	1.014377
C27	C	0.000029	-1.291058	0.315872
C28	C	0.500029	-0.791058	0.815872
C29	C	0.000033	-1.254675	0.193358
C30	C	0.500033	-0.754675	0.693358
C31	C	-0.569800	-1.339398	0.514395
C32	C	-0.069800	-0.839398	1.014395
C33	C	-0.430122	-1.339384	0.514387
C34	C	0.069878	-0.839384	1.014387
N35	N	0.318862	-1.339417	0.514400
N36	N	0.818862	-0.839417	1.014400
C37	C	0.000041	-1.537914	0.562728
C38	C	0.500041	-1.037914	1.062728
C39	C	0.000052	-1.660428	0.599111
C40	C	0.500052	-1.160428	1.099111
C41	C	0.000058	-0.732973	0.712571
C42	C	0.500058	-0.232973	1.212571
C43	C	0.000064	-0.848081	0.746759
C44	C	0.500064	-0.348081	1.246759
C45	C	0.000054	-0.890657	0.667490
C46	C	0.500054	-0.390657	1.167490
C47	C	0.000040	-0.818112	0.554028
C48	C	0.500040	-0.318112	1.054028
C49	C	0.000043	-0.702992	0.519837
C50	C	0.500043	-0.202992	1.019837
C51	C	0.000040	-0.860676	0.474756
C52	C	0.500040	-0.360676	0.974756
C53	C	0.000025	-0.788132	0.361294
C54	C	0.500025	-0.288132	0.861294
C55	C	0.000027	-0.673023	0.327108
C56	C	0.500027	-0.173023	0.827108
C57	C	0.000037	-0.630448	0.406377
C58	C	0.500037	-0.130448	0.906377
C59	C	0.000036	-0.975796	0.508947
C60	C	0.500036	-0.475796	1.008947
C61	C	0.000022	-0.945816	0.316212
C62	C	0.500022	-0.445816	0.816212
C63	C	0.000015	-0.830707	0.282025
C64	C	0.500015	-0.330707	0.782025
C65	C	0.000042	-1.387730	0.712912
C66	C	0.500042	-0.887730	1.212912
C67	C	0.000047	-1.424114	0.835426
C68	C	0.500047	-0.924114	1.335426
C69	C	0.000053	-1.537574	0.907970
C70	C	0.500053	-1.037574	1.407970
C71	C	0.000046	-1.571761	1.023079
C72	C	0.500046	-1.071761	1.523079
C73	C	0.000043	-1.492492	1.065654
C74	C	0.500043	-0.992492	1.565654
C75	C	0.000046	-1.379030	0.993110
C76	C	0.500046	-0.879030	1.493110
C77	C	0.000043	-1.344839	0.877990
C78	C	0.500043	-0.844839	1.377990
C79	C	0.000033	-1.299758	1.035674
C80	C	0.500033	-0.799758	1.535674
C81	C	0.000036	-1.186296	0.963129
C82	C	0.500036	-0.686296	1.463129
C83	C	0.000034	-1.152111	0.848021
C84	C	0.500034	-0.652111	1.348021
C85	C	0.000037	-1.231380	0.805445
C86	C	0.500037	-0.731380	1.305445
C87	C	0.000036	-1.333949	1.150794
C88	C	0.500036	-0.833949	1.650794
C89	C	0.000027	-1.141215	1.120813
C90	C	0.500027	-0.641215	1.620813
C91	C	0.000033	-1.107027	1.005705
C92	C	0.500033	-0.607027	1.505705
H93	H	0.000043	-1.034852	0.601328
H94	H	0.500043	-0.534852	1.101328
H95	H	0.000062	-0.984384	0.695332
H96	H	0.500062	-0.484384	1.195332
H97	H	0.000042	-1.664142	1.082137
H98	H	0.500042	-1.164142	1.582137
H99	H	0.000045	-1.602102	0.873293
H100	H	0.500045	-1.102102	1.373293
H101	H	0.000076	-0.698296	0.777099
H102	H	0.500076	-0.198296	1.277099
H103	H	0.000029	-0.613959	0.234720
H104	H	0.500029	-0.113959	0.734720
H105	H	0.000085	-0.907139	0.839139
H106	H	0.500085	-0.407139	1.339139
H107	H	0.000019	-0.980479	0.251665
H108	H	0.500019	-0.480479	0.751665
F109	F	0.000033	-1.454700	1.227988
F110	F	0.500033	-0.954700	1.727988
H111	H	0.000046	-1.203549	0.711716
H112	H	0.500046	-0.703549	1.211716
H113	H	0.000038	-1.520335	1.159382
H114	H	0.500038	-1.020335	1.659382
F115	F	0.000038	-0.986275	0.928485
F116	F	0.500038	-0.486275	1.428485
F117	F	0.000027	-0.507935	0.369997
F118	F	0.500027	-0.007935	0.869997
H119	H	0.000014	-0.771625	0.189642
H120	H	0.500014	-0.271625	0.689642
H121	H	0.000027	-1.059723	0.788957
H122	H	0.500027	-0.559723	1.288957
H123	H	0.000018	-1.076667	1.155477
H124	H	0.500018	-0.576667	1.655477
