data_functionalizedCrystal
_audit_creation_method	'MofGen! by Chris Wilmer'
_symmetry_space_group_name_H-M	'P1'
_symmetry_Int_Tables_number	1
_symmetry_cell_setting	triclinic
loop_
_symmetry_equiv_pos_as_xyz
  x,y,z
_cell_length_a	17.699103
_cell_length_b	9.065215
_cell_length_c	16.176319
_cell_angle_alpha	90.007020
_cell_angle_beta	90.005565
_cell_angle_gamma	84.152879
loop_
_atom_site_label
_atom_site_type_symbol
_atom_site_fract_x
_atom_site_fract_y
_atom_site_fract_z
O1	O	0.110958	1.957138	0.068749
O2	O	0.120062	1.527584	0.068754
O3	O	0.005416	1.754482	0.068736
O4	O	0.225604	1.730240	0.068767
O5	O	0.005422	1.754448	-0.068758
O6	O	0.120069	1.527550	-0.068740
O7	O	0.110964	1.957104	-0.068744
Cu8	Cu	0.115517	1.742324	-0.081296
Cu9	Cu	0.115509	1.742364	0.081306
O10	O	0.225610	1.730206	-0.068726
C11	C	0.119191	1.472606	0.000007
C12	C	0.116576	1.308840	0.000008
C13	C	-0.022784	1.753591	-0.000013
C14	C	-0.106822	1.750970	-0.000020
N15	N	0.115521	1.742306	-0.195661
C16	C	-0.622662	1.734959	0.074982
C17	C	-0.543699	1.737419	0.074974
C18	C	-0.504228	1.738628	0.000022
C19	C	-0.543724	1.737391	-0.074928
C20	C	-0.622686	1.734941	-0.074920
C21	C	-0.225281	1.747273	-0.074963
C22	C	-0.146313	1.749719	-0.074965
C23	C	-0.146294	1.749751	0.074931
C24	C	-0.225256	1.747301	0.074940
C25	C	-0.264745	1.746072	-0.000010
C26	C	-0.350366	1.743407	-0.000001
C27	C	-0.418608	1.741282	0.000012
C28	C	0.253810	1.731097	0.000025
C29	C	0.337848	1.733718	0.000037
C30	C	0.111835	2.012082	0.000004
C31	C	0.114450	2.175848	0.000009
C32	C	0.064752	1.842877	-0.761052
C33	C	0.064757	1.842870	-0.674505
C34	C	0.115506	1.742373	-0.631236
C35	C	0.166258	1.641885	-0.674520
C36	C	0.166256	1.641900	-0.761065
C37	C	0.166268	1.641825	-0.325492
C38	C	0.166265	1.641815	-0.238940
C39	C	0.064770	1.842795	-0.238931
C40	C	0.064768	1.842810	-0.325476
C41	C	0.115522	1.742328	-0.368752
C42	C	0.115517	1.742338	-0.462596
C43	C	0.115508	1.742354	-0.537394
N44	N	0.115499	1.742394	0.195671
H45	H	-0.654793	1.733961	0.136017
O46	O	0.215638	1.544416	-0.367563
C47	C	0.262885	1.623255	-0.417626
H48	H	0.264999	1.739583	-0.391530
H49	H	0.239253	1.631084	-0.483218
C50	C	0.340968	1.398783	-0.451008
C51	C	0.343569	1.541655	-0.418953
H52	H	0.390737	1.348447	-0.451830
H53	H	0.309136	1.345666	-0.417282
H54	H	0.321271	1.405327	-0.505666
H55	H	0.363257	1.535109	-0.364293
H56	H	0.375407	1.594769	-0.452669
O57	O	-0.107843	1.750744	0.147691
C58	C	-0.054495	1.624418	0.152175
H59	H	-0.040104	1.582216	0.087097
H60	H	-0.079544	1.534039	0.189148
C61	C	0.000502	1.717354	0.274969
C62	C	0.018182	1.665528	0.195038
H63	H	0.045332	1.742709	0.301412
H64	H	-0.035441	1.802461	0.271950
H65	H	-0.020373	1.642030	0.305769
H66	H	0.039048	1.740859	0.164236
H67	H	0.054131	1.580435	0.198052
H68	H	-0.511550	1.738433	0.136001
O69	O	0.015409	1.940188	-0.196818
C70	C	-0.031856	1.861293	-0.146808
H71	H	-0.002509	1.745781	-0.133833
H72	H	-0.087842	1.851400	-0.180199
C73	C	-0.083544	2.086389	-0.080540
C74	C	-0.047497	1.944519	-0.064597
H75	H	-0.093196	2.137728	-0.029829
H76	H	-0.051703	2.139543	-0.114234
H77	H	-0.130196	2.078124	-0.108368
H78	H	-0.000842	1.952786	-0.036779
H79	H	-0.079330	1.891367	-0.030896
H80	H	-0.114177	1.750695	-0.136004
H81	H	-0.257424	1.746274	-0.135992
H82	H	0.207583	1.560063	-0.639286
H83	H	-0.257389	1.746310	0.135974
H84	H	-0.511581	1.738384	-0.135956
O85	O	-0.660928	1.733669	-0.147795
C86	C	-0.609162	1.735297	-0.213953
H87	H	-0.550060	1.690357	-0.191987
H88	H	-0.607891	1.853859	-0.236999
C89	C	-0.706758	1.692816	-0.311740
C90	C	-0.634170	1.637609	-0.284763
H91	H	-0.722185	1.632563	-0.355422
H92	H	-0.741635	1.691725	-0.267169
H93	H	-0.705690	1.791617	-0.330940
H94	H	-0.635241	1.538817	-0.265555
H95	H	-0.599293	1.638681	-0.329333
O96	O	0.215575	1.544141	-0.802980
C97	C	0.260380	1.455456	-0.746234
H98	H	0.229339	1.453891	-0.684544
H99	H	0.316947	1.503151	-0.737020
C100	C	0.312963	1.298190	-0.855798
C101	C	0.274835	1.296257	-0.780031
H102	H	0.321883	1.199990	-0.876646
H103	H	0.282779	1.357941	-0.894029
H104	H	0.360098	1.337943	-0.848109
H105	H	0.227697	1.256523	-0.787723
H106	H	0.305011	1.236495	-0.741802
H107	H	0.207593	1.559975	-0.203713
H108	H	0.023424	1.924707	-0.796275
H109	H	0.023436	1.924692	-0.639269
O110	O	0.015443	1.940577	-0.367378
C111	C	-0.029359	2.029244	-0.310620
H112	H	0.001683	2.030789	-0.248924
H113	H	-0.085927	1.981548	-0.301429
C114	C	-0.081944	2.186547	-0.420158
C115	C	-0.043815	2.188454	-0.344382
H116	H	-0.090864	2.284754	-0.440984
H117	H	-0.051762	2.126807	-0.458397
H118	H	-0.129079	2.146793	-0.412488
H119	H	0.003323	2.228190	-0.352055
H120	H	-0.073989	2.248204	-0.306145
