data_functionalizedCrystal
_audit_creation_method	'MofGen! by Chris Wilmer'
_symmetry_space_group_name_H-M	'P1'
_symmetry_Int_Tables_number	1
_symmetry_cell_setting	triclinic
loop_
_symmetry_equiv_pos_as_xyz
  x,y,z
_cell_length_a	13.033748
_cell_length_b	13.031981
_cell_length_c	10.686551
_cell_angle_alpha	100.978188
_cell_angle_beta	86.659449
_cell_angle_gamma	105.194673
loop_
_atom_site_label
_atom_site_type_symbol
_atom_site_fract_x
_atom_site_fract_y
_atom_site_fract_z
Zn1	Zn	1.602159	-0.184294	0.439820
Zn2	Zn	1.562394	-0.379096	0.205003
Zn3	Zn	1.410896	-0.220583	0.252554
Zn4	Zn	1.401969	-0.384503	0.439690
O5	O	1.494355	-0.292119	0.334267
O6	O	1.744067	-0.192686	0.388825
O7	O	1.529392	-0.370993	0.034721
O8	O	1.456646	-0.065643	0.297350
O9	O	1.714851	-0.335806	0.216306
O10	O	1.597166	-0.038982	0.434934
O11	O	1.418087	-0.254534	0.069657
O12	O	1.262530	-0.259777	0.297224
O13	O	1.441431	-0.345021	0.616296
O14	O	1.255971	-0.380208	0.434712
O15	O	1.588509	-0.197928	0.616392
O16	O	1.520735	-0.529940	0.216179
O17	O	1.402872	-0.533912	0.388603
C18	C	1.221087	-0.324518	0.371114
C19	C	1.104181	-0.338401	0.386904
C20	C	1.456550	-0.570847	0.297241
C21	C	1.440477	-0.690073	0.281430
C22	C	1.055300	-0.284898	0.326054
C23	C	0.934472	-0.299246	0.342372
C24	C	1.502801	-0.729953	0.342536
C25	C	1.486190	-0.853179	0.326196
C26	C	1.768689	-0.259595	0.297276
C27	C	1.885594	-0.245735	0.281513
C28	C	1.518410	-0.268030	0.663412
C29	C	1.528661	-0.257765	0.803674
C30	C	1.532337	-0.012298	0.371461
C31	C	1.548523	0.106946	0.387311
C32	C	1.470464	-0.316030	0.006404
C33	C	1.460458	-0.325969	-0.133845
H34	H	1.102904	-0.228473	0.261871
O35	O	1.616396	-0.170006	0.874967
H36	H	1.694628	-0.180442	0.836180
H37	H	0.933192	-0.189305	0.217326
H38	H	0.886870	-0.355682	0.406549
H39	H	1.056576	-0.394834	0.451077
H40	H	1.394226	-0.392218	0.812343
H41	H	1.568454	-0.672870	0.406954
H42	H	1.420525	-0.910262	0.261787
H43	H	1.374816	-0.747159	0.217025
O44	O	1.635506	-0.817458	0.472636
H45	H	1.634913	-0.732534	0.472074
