data_functionalizedCrystal
_audit_creation_method	'MofGen! by Chris Wilmer'
_symmetry_space_group_name_H-M	'P1'
_symmetry_Int_Tables_number	1
_symmetry_cell_setting	triclinic
loop_
_symmetry_equiv_pos_as_xyz
  x,y,z
_cell_length_a	13.339070
_cell_length_b	13.339070
_cell_length_c	9.198806
_cell_angle_alpha	90.000879
_cell_angle_beta	90.004272
_cell_angle_gamma	115.629294
loop_
_atom_site_label
_atom_site_type_symbol
_atom_site_fract_x
_atom_site_fract_y
_atom_site_fract_z
O1	O	1.496805	0.550524	0.120931
O2	O	1.181996	0.478264	0.120924
O3	O	1.303271	0.356990	0.120922
O4	O	1.375531	0.671799	0.120932
O5	O	1.303258	0.356985	-0.120863
O6	O	1.181983	0.478260	-0.120861
O7	O	1.496793	0.550519	-0.120855
Cu8	Cu	1.339387	0.514389	-0.142935
Cu9	Cu	1.339402	0.514395	0.143004
O10	O	1.375518	0.671794	-0.120853
C11	C	1.140874	0.466056	0.000030
C12	C	1.018360	0.429672	0.000028
C13	C	0.732973	0.712571	0.000060
C14	C	0.848081	0.746759	0.000067
C15	C	0.890657	0.667490	0.000057
C16	C	0.818112	0.554028	0.000040
C17	C	0.702992	0.519837	0.000045
C18	C	0.860676	0.474756	0.000042
C19	C	0.788132	0.361294	0.000025
C20	C	0.673023	0.327109	0.000029
C21	C	0.630448	0.406377	0.000039
C22	C	0.975796	0.508947	0.000037
C23	C	0.945816	0.316213	0.000022
C24	C	0.830707	0.282025	0.000015
C25	C	1.291058	0.315872	0.000031
C26	C	1.254675	0.193358	0.000036
C27	C	1.537574	-0.092030	0.000042
C28	C	1.571761	0.023079	0.000029
C29	C	1.492492	0.065654	0.000031
C30	C	1.379030	-0.006890	0.000046
C31	C	1.344839	-0.122010	0.000047
C32	C	1.299758	0.035674	0.000037
C33	C	1.186296	-0.036871	0.000051
C34	C	1.152111	-0.151979	0.000053
C35	C	1.231380	-0.194555	0.000051
C36	C	1.333949	0.150794	0.000035
C37	C	1.141215	0.120813	0.000040
C38	C	1.107028	0.005705	0.000053
C39	C	1.537914	0.562728	0.000042
C40	C	1.660428	0.599111	0.000054
C41	C	1.387730	0.712912	0.000041
C42	C	1.424114	0.835426	0.000046
N43	N	1.339384	0.514387	-0.344049
C44	C	1.288561	0.565617	-0.416280
C45	C	1.288575	0.565619	-0.583693
N46	N	1.339411	0.514391	0.344118
H47	H	0.613959	0.234721	0.000032
F48	F	1.194999	-0.317067	0.000202
H49	H	1.034852	0.601328	0.000045
H50	H	1.382911	0.470534	-0.406147
F51	F	1.013167	0.703879	0.000062
F52	F	0.925280	0.867508	0.000090
F53	F	1.454700	0.227988	0.000019
F54	F	1.231694	0.622943	-0.664879
F55	F	1.056845	0.166119	0.000034
H56	H	0.698296	0.777099	0.000081
H57	H	0.536718	0.378547	0.000033
F58	F	0.753487	0.161273	-0.000001
H59	H	1.059723	-0.211043	0.000054
F60	F	1.528881	0.188164	0.000022
H61	H	0.980479	0.251665	0.000020
H62	H	1.382920	0.470523	-0.593775
F63	F	1.231680	0.622952	-0.335122
H64	H	1.602102	-0.126707	0.000028
H65	H	1.014645	-0.053377	0.000064
H66	H	1.664142	0.082137	0.000015
