data_functionalizedCrystal
_audit_creation_method	'MofGen! by Chris Wilmer'
_symmetry_space_group_name_H-M	'P1'
_symmetry_Int_Tables_number	1
_symmetry_cell_setting	triclinic
loop_
_symmetry_equiv_pos_as_xyz
  x,y,z
_cell_length_a	30.706062
_cell_length_b	30.711257
_cell_length_c	30.700862
_cell_angle_alpha	89.997854
_cell_angle_beta	60.005163
_cell_angle_gamma	59.983279
loop_
_atom_site_label
_atom_site_type_symbol
_atom_site_fract_x
_atom_site_fract_y
_atom_site_fract_z
O1	O	-0.311751	-0.371028	0.012946
O2	O	-0.222559	-0.307737	-0.012905
O3	O	-0.311750	-0.307706	0.076286
O4	O	-0.222560	-0.371059	-0.076244
O5	O	-0.384192	-0.235263	0.076281
O6	O	-0.295001	-0.235294	-0.012909
O7	O	-0.384193	-0.298585	0.012941
Cu8	Cu	-0.346212	-0.260324	0.000016
Cu9	Cu	-0.260540	-0.345997	0.000021
O10	O	-0.295002	-0.298615	-0.076249
C11	C	-0.216018	-0.155797	-0.018773
C12	C	-0.246599	-0.098348	-0.015067
C13	C	-0.241982	-0.182235	-0.019145
C14	C	-0.137137	-0.234675	-0.018780
C15	C	-0.083379	-0.261564	-0.015083
C16	C	-0.163221	-0.260993	-0.019153
C17	C	-0.216012	-0.234649	-0.018783
C18	C	-0.246586	-0.261510	-0.015089
C19	C	-0.163227	-0.182261	-0.019143
C20	C	-0.614218	-0.496057	0.039261
C21	C	-0.588131	-0.469740	0.039628
C22	C	-0.535345	-0.574931	0.039266
C23	C	-0.509378	-0.548494	0.039633
C24	C	-0.535342	-0.496083	0.039261
C25	C	-0.588134	-0.548468	0.039633
C26	C	-0.790144	-0.447851	0.024977
C27	C	-0.839970	-0.423017	0.020938
C28	C	-0.864963	-0.371081	0.018908
C29	C	-0.918981	-0.344155	0.014518
C30	C	-0.840128	-0.343978	0.020922
C31	C	-0.790311	-0.368810	0.024968
C32	C	-0.765319	-0.420749	0.026996
C33	C	-0.472892	-0.368386	0.024973
C34	C	-0.444028	-0.343403	0.020934
C35	C	-0.390055	-0.370362	0.018907
C36	C	-0.358749	-0.343282	0.014520
C37	C	-0.364952	-0.422305	0.020925
C38	C	-0.393822	-0.447283	0.024974
C39	C	-0.447794	-0.420318	0.026994
C40	C	-0.472908	-0.765093	0.024998
C41	C	-0.444042	-0.818951	0.020957
C42	C	-0.390069	-0.845980	0.018932
C43	C	-0.358766	-0.904377	0.014548
C44	C	-0.364964	-0.819152	0.020944
C45	C	-0.393830	-0.765296	0.024982
C46	C	-0.447807	-0.738269	0.027014
C47	C	-0.711296	-0.447672	0.031378
C48	C	-0.668236	-0.469133	0.034874
C49	C	-0.504047	-0.633325	0.034885
C50	C	-0.479101	-0.679872	0.031394
C51	C	-0.504041	-0.468999	0.034874
C52	C	-0.479091	-0.447409	0.031379
C53	C	-0.071083	-0.496238	-0.503877
C54	C	-0.018295	-0.548659	-0.530210
C55	C	-0.071082	-0.496239	-0.425001
C56	C	-0.018294	-0.548659	-0.451454
C57	C	0.007791	-0.575113	-0.503874
C58	C	-0.097048	-0.469904	-0.451457
C59	C	-0.213124	-0.368471	-0.552047
C60	C	-0.242162	-0.343469	-0.576874
C61	C	-0.217238	-0.370420	-0.628819
C62	C	-0.248727	-0.343316	-0.655738
C63	C	-0.163270	-0.422373	-0.655937
C64	C	-0.134232	-0.447369	-0.631113
C65	C	-0.159161	-0.420415	-0.579165
C66	C	0.183714	-0.765313	-0.631630
C67	C	0.233540	-0.819176	-0.656629
C68	C	0.258534	-0.846199	-0.629678
C69	C	0.312552	-0.904601	-0.656776
C70	C	0.233702	-0.819352	-0.577726
C71	C	0.183885	-0.765489	-0.552731
C72	C	0.158891	-0.738473	-0.579689
C73	C	-0.213122	-0.368473	-0.234798
C74	C	-0.242164	-0.343474	-0.180932
C75	C	-0.217239	-0.370425	-0.153909
C76	C	-0.248728	-0.343322	-0.095503
C77	C	-0.163277	-0.422376	-0.180754
C78	C	-0.134239	-0.447373	-0.234618
C79	C	-0.159163	-0.420415	-0.261638
C80	C	-0.127672	-0.447526	-0.552249
C81	C	-0.102572	-0.469133	-0.530793
C82	C	-0.102571	-0.469134	-0.366598
C83	C	-0.127670	-0.447527	-0.320044
C84	C	0.061809	-0.633515	-0.530976
C85	C	0.104869	-0.680068	-0.552580
O86	O	0.063333	-0.298739	0.012947
O87	O	-0.063357	-0.235368	-0.012895
O88	O	-0.063351	-0.235383	0.076292
O89	O	0.063327	-0.298725	-0.076240
O90	O	-0.063346	-0.307806	0.076282
O91	O	-0.063352	-0.307792	-0.012905
O92	O	0.063338	-0.371163	0.012938
Cu93	Cu	-0.000006	-0.346090	0.000016
Cu94	Cu	-0.000013	-0.260441	0.000027
O95	O	0.063333	-0.371148	-0.076249
O96	O	-0.384217	0.076381	0.012980
O97	O	-0.295018	-0.076132	-0.012883
O98	O	-0.384207	0.013047	0.076312
O99	O	-0.295027	-0.012798	-0.076215
O100	O	-0.311764	0.013023	0.076315
O101	O	-0.222574	-0.076155	-0.012880
O102	O	-0.311773	0.076357	0.012982
Cu103	Cu	-0.260559	0.000099	0.000051
Cu104	Cu	-0.346232	0.000127	0.000048
O105	O	-0.222584	-0.012821	-0.076213
O106	O	0.456918	-1.076382	-0.692374
O107	O	0.330236	-0.923861	-0.629035
O108	O	0.330234	-1.013019	-0.629032
O109	O	0.456921	-0.987224	-0.692377
O110	O	0.330232	-1.013017	-0.701476
O111	O	0.330235	-0.923859	-0.701480
O112	O	0.456916	-1.076380	-0.764818
Cu113	Cu	0.393576	-1.000119	-0.739764
Cu114	Cu	0.393577	-1.000121	-0.654090
O115	O	0.456919	-0.987222	-0.764822
O116	O	-0.311750	-0.307706	-0.764507
O117	O	-0.222563	-0.371055	-0.701160
O118	O	-0.311753	-0.371026	-0.701160
O119	O	-0.222561	-0.307735	-0.764507
O120	O	-0.384196	-0.298582	-0.628718
O121	O	-0.295007	-0.298611	-0.628719
O122	O	-0.384194	-0.235262	-0.692065
Cu123	Cu	-0.346215	-0.260322	-0.653777
Cu124	Cu	-0.260542	-0.345995	-0.739448
O125	O	-0.295004	-0.235291	-0.692065
C126	C	-0.469617	-0.155718	0.234818
C127	C	-0.523372	-0.098264	0.261693
C128	C	-0.443532	-0.182172	0.261154
C129	C	-0.390743	-0.234592	0.155945
C130	C	-0.360166	-0.261472	0.098491
C131	C	-0.364778	-0.260927	0.182401
C132	C	-0.390744	-0.234592	0.234821
C133	C	-0.360167	-0.261471	0.261701
C134	C	-0.443531	-0.182172	0.182398
C135	C	-0.216008	-0.234683	0.234815
C136	C	-0.246583	-0.261547	0.261687
C137	C	-0.241978	-0.182272	0.261154
C138	C	-0.137133	-0.234700	0.155948
C139	C	-0.083374	-0.261581	0.098494
C140	C	-0.163223	-0.182289	0.182407
C141	C	-0.216014	-0.155831	0.234826
C142	C	-0.246596	-0.098385	0.261708
C143	C	-0.163217	-0.261022	0.182396
C144	C	-0.390746	0.018905	0.234847
C145	C	-0.360166	0.015193	0.261724
C146	C	-0.443533	0.019286	0.261180
C147	C	-0.390752	0.018917	0.155974
C148	C	-0.360179	0.015218	0.098521
C149	C	-0.443539	0.019298	0.182427
C150	C	-0.469620	0.018930	0.234845
C151	C	-0.523374	0.015246	0.261721
C152	C	-0.364784	0.019273	0.182428
C153	C	0.464678	-0.574880	-0.503872
C154	C	0.490642	-0.548438	-0.530201
C155	C	0.385797	-0.496011	-0.424995
C156	C	0.411881	-0.469689	-0.451443
C157	C	0.464672	-0.496028	-0.503862
C158	C	0.411887	-0.548422	-0.451453
C159	C	0.527135	-0.765046	-0.552055
C160	C	0.556002	-0.818901	-0.576885
C161	C	0.609977	-0.845926	-0.628830
C162	C	0.641286	-0.904322	-0.655751
C163	C	0.635080	-0.819091	-0.655944
C164	C	0.606209	-0.765237	-0.631116
C165	C	0.552233	-0.738215	-0.579169
C166	C	0.606710	-0.447909	-0.631604
C167	C	0.635747	-0.423096	-0.656599
C168	C	0.610822	-0.371163	-0.629645
C169	C	0.642305	-0.344258	-0.656737
C170	C	0.556852	-0.344039	-0.577693
C171	C	0.527811	-0.368846	-0.552703
C172	C	0.552749	-0.420787	-0.579664
C173	C	0.209864	-0.447824	-0.234798
C174	C	0.160039	-0.422998	-0.180932
C175	C	0.135041	-0.371061	-0.153906
C176	C	0.081019	-0.344141	-0.095501
C177	C	0.159872	-0.343957	-0.180746
C178	C	0.209697	-0.368786	-0.234610
C179	C	0.234686	-0.420720	-0.261633
C180	C	0.520934	-0.679820	-0.552250
C181	C	0.495982	-0.633274	-0.530792
C182	C	0.331775	-0.469092	-0.366592
C183	C	0.288713	-0.447636	-0.320038
C184	C	0.496159	-0.469127	-0.530959
C185	C	0.521257	-0.447685	-0.552560
O186	O	-0.311788	0.076324	0.298846
O187	O	-0.222578	-0.076186	0.235498
O188	O	-0.311784	0.012996	0.235508
O189	O	-0.222582	-0.012858	0.298837
O190	O	-0.384214	0.013006	0.307955
O191	O	-0.295008	-0.076177	0.307945
O192	O	-0.384218	0.076334	0.371293
Cu193	Cu	-0.346226	0.000079	0.346234
Cu194	Cu	-0.260569	0.000068	0.260558
O195	O	-0.295012	-0.012849	0.371283
C196	C	0.007395	-0.039129	-0.503833
C197	C	-0.018693	-0.039484	-0.530167
C198	C	-0.071472	-0.039115	-0.424962
C199	C	-0.097441	-0.039471	-0.451416
C200	C	-0.071480	-0.039103	-0.503834
C201	C	-0.018686	-0.039497	-0.451415
C202	C	0.183317	-0.024903	-0.551992
C203	C	0.233142	-0.020879	-0.576817
C204	C	0.258131	-0.018853	-0.628761
C205	C	0.312147	-0.014480	-0.655676
C206	C	0.233296	-0.020855	-0.655880
C207	C	0.183480	-0.024886	-0.631058
C208	C	0.158491	-0.026910	-0.579112
C209	C	-0.133936	-0.024786	-0.631591
C210	C	-0.162803	-0.020737	-0.656591
C211	C	-0.216773	-0.018695	-0.629643
C212	C	-0.248081	-0.014296	-0.656741
C213	C	-0.241873	-0.020709	-0.577692
C214	C	-0.213002	-0.024768	-0.552697
C215	C	-0.159032	-0.026803	-0.579652
C216	C	-0.133901	-0.024849	-0.234760
C217	C	-0.162764	-0.020805	-0.180895
C218	C	-0.216735	-0.018765	-0.153875
C219	C	-0.248035	-0.014378	-0.095471
C220	C	-0.241842	-0.020765	-0.180721
C221	C	-0.212978	-0.024807	-0.234584
C222	C	-0.159003	-0.026854	-0.261601
C223	C	0.104470	-0.031276	-0.552199
C224	C	0.061412	-0.034758	-0.530746
C225	C	-0.102768	-0.034730	-0.366559
C226	C	-0.127712	-0.031236	-0.320006
C227	C	-0.102783	-0.034704	-0.530937
C228	C	-0.127733	-0.031200	-0.552542
H229	H	-0.609956	-0.426680	0.040208
C230	C	0.695111	-0.452931	-0.713736
H231	H	0.708831	-0.430714	-0.724760
H232	H	0.726074	-0.484583	-0.714503
H233	H	0.687046	-0.461893	-0.737199
C234	C	-0.473015	0.020077	0.319358
H235	H	-0.449898	0.020222	0.331320
H236	H	-0.514102	0.051180	0.341264
H237	H	-0.473221	-0.010693	0.321376
H238	H	-0.465376	0.019910	0.161188
H239	H	-0.141382	-0.304060	-0.019753
H240	H	-0.141396	-0.161034	-0.019736
C241	C	0.156572	-0.735959	-0.495591
H242	H	0.123323	-0.700010	-0.484567
H243	H	0.142086	-0.752987	-0.472134
H244	H	0.187457	-0.736654	-0.494822
C245	C	0.011013	-0.577449	-0.588301
H246	H	0.046199	-0.612549	-0.600234
H247	H	-0.018097	-0.579192	-0.590108
H248	H	0.022974	-0.558399	-0.610373
C249	C	-0.299364	-0.153573	0.319336
H250	H	-0.311157	-0.118509	0.331302
H251	H	-0.332170	-0.151742	0.321366
H252	H	-0.290159	-0.172761	0.341236
C253	C	-0.451984	-0.577199	0.040418
H254	H	-0.440180	-0.612268	0.040579
H255	H	-0.419188	-0.579018	0.009642
H256	H	-0.461180	-0.558023	0.071522
H257	H	-0.516840	-0.346426	0.026622
H258	H	-0.609966	-0.569692	0.040223
H259	H	-0.141393	-0.161061	0.161169
C260	C	-0.154821	-0.040257	-0.422730
H261	H	-0.166618	-0.040415	-0.446008
H262	H	-0.145617	-0.071352	-0.412746
H263	H	-0.187632	-0.009479	-0.391742
C264	C	-0.299400	-0.153517	-0.019894
H265	H	-0.311219	-0.118441	-0.020032
H266	H	-0.290240	-0.172674	-0.050985
H267	H	-0.332179	-0.151709	0.010896
H268	H	-0.465367	-0.160931	0.304225
C269	C	-0.154427	-0.411720	-0.422768
H270	H	-0.166228	-0.399755	-0.446042
H271	H	-0.187233	-0.409674	-0.391775
H272	H	-0.145211	-0.389836	-0.412795
C273	C	-0.471660	-0.848457	0.018748
H274	H	-0.507942	-0.824645	0.020540
H275	H	-0.442529	-0.877643	-0.013686
H276	H	-0.481561	-0.861279	0.048038
C277	C	-0.307395	-0.319109	0.153716
H278	H	-0.295600	-0.331069	0.176995
H279	H	-0.316594	-0.340999	0.143728
H280	H	-0.274584	-0.321148	0.122730
H281	H	-0.142326	-0.019163	-0.159037
C282	C	-0.471634	-0.286276	0.018706
H283	H	-0.507907	-0.273798	0.020484
H284	H	-0.481535	-0.263542	0.047985
H285	H	-0.442491	-0.286246	-0.013737
C286	C	-0.532275	-0.735366	0.027225
H287	H	-0.543088	-0.759058	0.025440
H288	H	-0.564699	-0.706173	0.059660
H289	H	-0.525655	-0.722534	-0.002063
H290	H	-0.233440	-0.026411	-0.510400
C291	C	-0.473020	-0.153485	0.153701
H292	H	-0.449908	-0.176764	0.118629
H293	H	-0.514108	-0.143488	0.172890
H294	H	-0.473226	-0.122510	0.151873
H295	H	-0.769801	-0.490141	0.026630
C296	C	-0.133725	-0.319191	0.153695
H297	H	-0.156836	-0.331147	0.176964
H298	H	-0.133507	-0.321214	0.122705
H299	H	-0.092639	-0.341100	0.143718
H300	H	-0.322307	0.019853	0.161192
C301	C	0.382387	-0.411517	-0.422748
H302	H	0.347147	-0.399547	-0.387675
H303	H	0.411342	-0.409494	-0.420931
H304	H	0.370465	-0.389619	-0.441935
H305	H	-0.860184	-0.445088	0.019296
C306	C	0.548037	-0.577137	-0.588378
H307	H	0.559849	-0.612208	-0.600343
H308	H	0.538846	-0.557958	-0.610285
H309	H	0.580834	-0.578958	-0.590392
C310	C	0.382399	-0.577099	-0.422765
H311	H	0.405513	-0.612169	-0.446041
H312	H	0.382179	-0.578912	-0.391774
H313	H	0.341314	-0.557908	-0.412790
H314	H	0.162976	-0.026552	-0.509697
H315	H	0.139830	-0.445073	-0.159080
C316	C	-0.867618	-0.286854	0.018687
H317	H	-0.900842	-0.275947	0.015985
H318	H	-0.882171	-0.263339	0.050206
H319	H	-0.836797	-0.286036	-0.011517
C320	C	0.529430	-0.286913	-0.548042
H321	H	0.554455	-0.276022	-0.570362
H322	H	0.488948	-0.263390	-0.539080
H323	H	0.527983	-0.286087	-0.516392
C324	C	-0.762996	-0.339001	0.027180
H325	H	-0.785010	-0.304515	0.025387
H326	H	-0.766245	-0.335700	0.059615
H327	H	-0.720878	-0.358395	-0.002108
H328	H	-0.321010	-0.444253	0.019281
H329	H	0.230210	-0.490112	-0.256797
H330	H	0.483868	-0.346759	-0.510406
C331	C	-0.366210	-0.504415	0.027191
H332	H	-0.329929	-0.516897	0.025401
H333	H	-0.395345	-0.504457	0.059626
H334	H	-0.356307	-0.527142	-0.002097
C335	C	-0.366208	-0.735791	0.027187
H336	H	-0.329932	-0.759600	0.025403
H337	H	-0.356309	-0.722970	-0.002102
H338	H	-0.395340	-0.706603	0.059622
C339	C	-0.305587	-0.848885	0.018704
H340	H	-0.291990	-0.884801	0.016012
H341	H	-0.274561	-0.848275	-0.011499
H342	H	-0.313584	-0.831923	0.050224
H343	H	0.003535	-0.569897	-0.430212
C344	C	0.010804	-0.040309	-0.422720
H345	H	-0.012307	-0.040472	-0.387647
H346	H	0.051892	-0.071410	-0.441909
H347	H	0.011005	-0.009537	-0.420891
C348	C	0.467762	-0.735323	-0.494920
H349	H	0.456943	-0.759015	-0.482332
H350	H	0.474368	-0.722490	-0.472244
H351	H	0.435340	-0.706131	-0.494940
H352	H	-0.233415	-0.346516	-0.256798
H353	H	0.535561	-0.840746	-0.554805
C354	C	0.694450	-0.848817	-0.713076
H355	H	0.708053	-0.884736	-0.723979
H356	H	0.686452	-0.831853	-0.736595
H357	H	0.725479	-0.848210	-0.713899
C358	C	0.633822	-0.735724	-0.660937
H359	H	0.670105	-0.759531	-0.695427
H360	H	0.604689	-0.706537	-0.664238
H361	H	0.643721	-0.722904	-0.641546
H362	H	0.627018	-0.490199	-0.653560
H363	H	0.229910	-0.346712	-0.256461
H364	H	0.139516	-0.301667	-0.158739
H365	H	-0.286103	-0.301175	-0.159078
C366	C	0.010799	-0.040295	-0.588352
H367	H	0.046034	-0.040465	-0.600315
H368	H	0.022715	-0.071393	-0.610247
H369	H	-0.018159	-0.009521	-0.590386
H370	H	0.163370	-0.743319	-0.653584
H371	H	-0.089953	-0.026513	-0.256755
C372	C	0.260450	-0.018670	-0.546984
H373	H	0.238429	-0.020447	-0.512492
H374	H	0.302568	-0.047953	-0.566367
H375	H	0.257189	0.013763	-0.543681
H376	H	-0.233426	-0.346519	-0.509750
H377	H	-0.286102	-0.301170	-0.554790
C378	C	-0.301209	-0.018523	-0.151005
H379	H	-0.312028	-0.020289	-0.174707
H380	H	-0.294594	-0.047801	-0.138168
H381	H	-0.333634	0.013915	-0.121811
H382	H	0.253648	-0.019208	-0.698174
H383	H	0.253754	-0.841030	-0.698928
H384	H	-0.142979	-0.444310	-0.698232
C385	C	0.156161	-0.027081	-0.660885
H386	H	0.178172	-0.025292	-0.695373
H387	H	0.159409	-0.059506	-0.664189
H388	H	0.114042	0.002212	-0.641493
C389	C	-0.074877	-0.504512	-0.660939
H390	H	-0.064194	-0.516985	-0.695429
H391	H	-0.042390	-0.504575	-0.664239
H392	H	-0.081437	-0.527233	-0.641550
C393	C	-0.074568	-0.027034	-0.661243
H394	H	-0.063751	-0.025261	-0.695762
H395	H	-0.081179	0.002239	-0.641789
H396	H	-0.042143	-0.059476	-0.664477
H397	H	0.254059	-0.841353	-0.555784
H398	H	-0.142364	-0.019094	-0.698888
C399	C	-0.301241	-0.018460	-0.548043
H400	H	-0.312052	-0.020243	-0.513526
H401	H	-0.333662	0.013980	-0.544810
H402	H	-0.294632	-0.047734	-0.567497
C403	C	-0.074879	-0.504514	-0.264145
H404	H	-0.064190	-0.516983	-0.240340
H405	H	-0.081427	-0.527239	-0.276978
H406	H	-0.042394	-0.504568	-0.293329
C407	C	-0.135855	-0.452024	-0.151033
H408	H	-0.160872	-0.429696	-0.115110
H409	H	-0.134405	-0.483663	-0.151648
H410	H	-0.095370	-0.460994	-0.168003
C411	C	-0.240592	-0.027014	-0.264112
H412	H	-0.276864	-0.025226	-0.240309
H413	H	-0.250496	0.002265	-0.276944
H414	H	-0.211451	-0.059450	-0.293299
