data_functionalizedCrystal
_audit_creation_method	'MofGen! by Chris Wilmer'
_symmetry_space_group_name_H-M	'P1'
_symmetry_Int_Tables_number	1
_symmetry_cell_setting	triclinic
loop_
_symmetry_equiv_pos_as_xyz
  x,y,z
_cell_length_a	18.101398
_cell_length_b	19.121063
_cell_length_c	18.101389
_cell_angle_alpha	92.419391
_cell_angle_beta	89.975673
_cell_angle_gamma	92.464489
loop_
_atom_site_label
_atom_site_type_symbol
_atom_site_fract_x
_atom_site_fract_y
_atom_site_fract_z
Zn1	Zn	1.119554	-0.279777	-0.431404
Zn2	Zn	1.619554	0.220223	0.068596
Zn3	Zn	1.114175	-0.397213	-0.312837
Zn4	Zn	1.614175	0.102787	0.187163
Zn5	Zn	0.995713	-0.279770	-0.307565
Zn6	Zn	1.495713	0.220230	0.192435
Zn7	Zn	0.990390	-0.397183	-0.436624
Zn8	Zn	1.490390	0.102817	0.063376
O9	O	1.054958	-0.338486	-0.372107
O10	O	1.554958	0.161514	0.127893
O11	O	1.222473	-0.295371	-0.415698
O12	O	1.722473	0.204629	0.084302
O13	O	1.098437	-0.381644	-0.208505
O14	O	1.598437	0.118356	0.291495
O15	O	1.016620	-0.181486	-0.319601
O16	O	1.516620	0.318514	0.180399
O17	O	1.218521	-0.381651	-0.328587
O18	O	1.718521	0.118349	0.171413
O19	O	1.107605	-0.181491	-0.410586
O20	O	1.607605	0.318509	0.089414
O21	O	1.011404	-0.295359	-0.204632
O22	O	1.511404	0.204641	0.295368
O23	O	0.891375	-0.295330	-0.324663
O24	O	1.391375	0.204670	0.175337
O25	O	1.007547	-0.381599	-0.539564
O26	O	1.507547	0.118401	-0.039564
O27	O	0.887464	-0.381592	-0.419482
O28	O	1.387464	0.118408	0.080518
O29	O	1.102443	-0.295342	-0.535729
O30	O	1.602443	0.204658	-0.035729
O31	O	1.093276	-0.495494	-0.333648
O32	O	1.593276	0.004506	0.166352
O33	O	1.002331	-0.495472	-0.424594
O34	O	1.502331	0.004528	0.075406
C35	C	0.862549	-0.338457	-0.372067
C36	C	1.362549	0.161543	0.127933
C37	C	0.780234	-0.338462	-0.372069
C38	C	1.280234	0.161538	0.127931
C39	C	0.481141	-0.338506	-0.372133
C40	C	0.981141	0.161494	0.127867
C41	C	0.514915	-0.283961	-0.312742
C42	C	1.014915	0.216039	0.187258
C43	C	0.600526	-0.284107	-0.312506
C44	C	1.100526	0.215893	0.187494
C45	C	0.629525	-0.338484	-0.372101
C46	C	1.129525	0.161516	0.127899
C47	C	0.595084	-0.412466	-0.354099
C48	C	1.095084	0.087534	0.145901
C49	C	0.509452	-0.412163	-0.353690
C50	C	1.009452	0.087837	0.146310
C51	C	0.513600	-0.319712	-0.449688
C52	C	1.013600	0.180288	0.050312
C53	C	0.599325	-0.318065	-0.449186
C54	C	1.099325	0.181935	0.050814
C55	C	0.713385	-0.338476	-0.372084
C56	C	1.213385	0.161524	0.127916
C57	C	0.397281	-0.338519	-0.372148
C58	C	0.897281	0.161481	0.127852
C59	C	1.046662	-0.520967	-0.380276
C60	C	1.546662	-0.020967	0.119724
C61	C	1.043181	-0.599034	-0.383795
C62	C	1.543181	-0.099034	0.116205
C63	C	1.088932	-0.635698	-0.338137
C64	C	1.588932	-0.135698	0.161863
C65	C	1.085662	-0.709049	-0.341451
C66	C	1.585662	-0.209049	0.158549
C67	C	1.036637	-0.745735	-0.390420
C68	C	1.536637	-0.245735	0.109580
C69	C	0.990884	-0.709066	-0.436083
C70	C	1.490884	-0.209066	0.063917
C71	C	0.994158	-0.635716	-0.432772
C72	C	1.494158	-0.135716	0.067228
C73	C	1.024385	-0.967206	-0.402788
C74	C	1.524385	-0.467206	0.097212
C75	C	1.021113	-1.040562	-0.406094
C76	C	1.521113	-0.540562	0.093906
C77	C	1.115892	-1.040539	-0.311462
C78	C	1.615892	-0.540539	0.188538
C79	C	1.119159	-0.967188	-0.308152
C80	C	1.619159	-0.467188	0.191848
C81	C	1.073408	-0.930525	-0.353818
C82	C	1.573408	-0.430525	0.146182
C83	C	1.033292	-0.820713	-0.393807
C84	C	1.533292	-0.320713	0.106193
C85	C	1.076758	-0.855549	-0.350434
C86	C	1.576758	-0.355549	0.149566
C87	C	1.248119	-0.338515	-0.372148
C88	C	1.748119	0.161485	0.127852
C89	C	1.330432	-0.338528	-0.372165
C90	C	1.830432	0.161472	0.127835
C91	C	1.055002	-0.338468	-0.565269
C92	C	1.555002	0.161532	-0.065269
C93	C	1.055020	-0.338461	-0.647582
C94	C	1.555020	0.161539	-0.147582
C95	C	1.063306	-0.155292	-0.363923
C96	C	1.563306	0.344708	0.136077
C97	C	1.066864	-0.077226	-0.360436
C98	C	1.566864	0.422774	0.139564
C99	C	1.055069	-0.338329	-0.946668
C100	C	1.555069	0.161671	-0.446668
C101	C	0.995174	-0.392427	-0.917747
C102	C	1.495174	0.107573	-0.417747
C103	C	0.995318	-0.392678	-0.832140
C104	C	1.495318	0.107322	-0.332140
C105	C	1.055044	-0.338394	-0.798288
C106	C	1.555044	0.161606	-0.298288
C107	C	1.132167	-0.358491	-0.830296
C108	C	1.632167	0.141509	-0.330296
C109	C	1.131831	-0.358846	-0.915957
C110	C	1.631831	0.141154	-0.415957
C111	C	1.038526	-0.264013	-0.911754
C112	C	1.538526	0.235987	-0.411754
C113	C	1.036771	-0.264443	-0.826122
C114	C	1.536771	0.235557	-0.326122
C115	C	1.055035	-0.338430	-0.714430
C116	C	1.555035	0.161570	-0.214430
C117	C	1.055084	-0.338295	-1.030526
C118	C	1.555084	0.161705	-0.530526
C119	C	1.054959	-0.338453	-0.179695
C120	C	1.554959	0.161547	0.320305
C121	C	1.055093	-0.338263	-0.097373
C122	C	1.555093	0.161737	0.402627
H123	H	0.624031	-0.229245	-0.323408
H124	H	1.124031	0.270755	0.176592
F125	F	0.491260	-0.212031	-0.326789
F126	F	0.991260	0.287969	0.173211
H127	H	0.937700	-0.379979	-0.937774
H128	H	1.437700	0.120021	-0.437774
H129	H	0.486843	-0.454179	-0.395241
H130	H	0.986843	0.045821	0.104759
F131	F	0.981117	-0.859763	-0.445922
F132	F	1.481117	-0.359763	0.054078
H133	H	0.613574	-0.454195	-0.396148
H134	H	1.113574	0.045805	0.103852
F135	F	0.626535	-0.300342	-0.237302
F136	F	1.126535	0.199658	0.262698
F137	F	1.134359	-0.748066	-0.292857
F138	F	1.634359	-0.248066	0.207143
F139	F	1.150670	-0.429854	-0.945268
F140	F	1.650670	0.070146	-0.445268
H141	H	0.615770	-0.428682	-0.298133
H142	H	1.115770	0.071318	0.201867
H143	H	1.077478	-0.221996	-0.802832
H144	H	1.577478	0.278004	-0.302832
F145	F	1.191874	-0.309549	-0.940855
F146	F	1.691874	0.190451	-0.440855
F147	F	1.095600	-0.211330	-0.935889
F148	F	1.595600	0.288670	-0.435889
F149	F	0.488519	-0.250426	-0.471918
F150	F	0.988519	0.249574	0.028082
F151	F	1.151424	-0.428744	-0.805426
F152	F	1.651424	0.071256	-0.305426
F153	F	1.191876	-0.308609	-0.801465
F154	F	1.691876	0.191391	-0.301465
F155	F	1.164583	-1.079564	-0.262868
F156	F	1.664583	-0.579564	0.237132
F157	F	1.141107	-0.596660	-0.286012
F158	F	1.641107	-0.096660	0.213988
H159	H	0.983441	-0.245705	-0.932518
H160	H	1.483441	0.254295	-0.432518
F161	F	1.171346	-0.928149	-0.256041
F162	F	1.671346	-0.428149	0.243959
H163	H	0.956904	-0.605865	-0.469953
H164	H	1.456904	-0.105865	0.030047
F165	F	0.968924	-1.079605	-0.458208
F166	F	1.468924	-0.579605	0.041792
F167	F	0.629122	-0.246909	-0.467015
F168	F	1.129122	0.253091	0.032985
H169	H	0.492814	-0.296243	-0.255539
H170	H	0.992814	0.203757	0.244461
F171	F	0.975692	-0.928197	-0.451389
F172	F	1.475692	-0.428197	0.048611
F173	F	0.938712	-0.748113	-0.488204
F174	F	1.438712	-0.248113	0.011796
H175	H	0.488724	-0.428103	-0.297092
H176	H	0.988724	0.071897	0.202908
F177	F	1.128935	-0.816504	-0.298323
F178	F	1.628935	-0.316504	0.201677
F179	F	0.962605	-0.244635	-0.798666
F180	F	1.462605	0.255365	-0.298666
H181	H	0.938024	-0.380101	-0.810543
H182	H	1.438024	0.119899	-0.310543
F183	F	1.008910	-0.463980	-0.949139
F184	F	1.508910	0.036020	-0.449139
F185	F	1.009275	-0.464671	-0.808598
F186	F	1.509275	0.035329	-0.308598
H187	H	0.619076	-0.354899	-0.495539
H188	H	1.119076	0.145101	0.004461
H189	H	0.491559	-0.359441	-0.493899
H190	H	0.991559	0.140559	0.006101
