data_functionalizedCrystal
_audit_creation_method	'MofGen! by Chris Wilmer'
_symmetry_space_group_name_H-M	'P1'
_symmetry_Int_Tables_number	1
_symmetry_cell_setting	triclinic
loop_
_symmetry_equiv_pos_as_xyz
  x,y,z
_cell_length_a	11.792254
_cell_length_b	10.268362
_cell_length_c	14.971486
_cell_angle_alpha	89.994507
_cell_angle_beta	96.093637
_cell_angle_gamma	90.004525
loop_
_atom_site_label
_atom_site_type_symbol
_atom_site_fract_x
_atom_site_fract_y
_atom_site_fract_z
O1	O	1.506109	0.108300	-0.122652
O2	O	1.839442	0.441633	0.210682
O3	O	2.172776	0.774966	0.544015
O4	O	1.175688	0.108303	-0.135275
O5	O	1.509022	0.441636	0.198059
O6	O	1.842355	0.774969	0.531392
O7	O	1.349755	0.108292	0.001201
O8	O	1.683088	0.441625	0.334534
O9	O	2.016421	0.774959	0.667868
O10	O	1.332043	0.108311	-0.259128
O11	O	1.665376	0.441644	0.074206
O12	O	1.998709	0.774977	0.407539
O13	O	1.349740	-0.108309	0.001207
O14	O	1.683073	0.225025	0.334540
O15	O	2.016406	0.558358	0.667873
O16	O	1.175673	-0.108298	-0.135269
O17	O	1.509007	0.225035	0.198064
O18	O	1.842340	0.558369	0.531398
O19	O	1.506094	-0.108301	-0.122646
O20	O	1.839427	0.225033	0.210687
O21	O	2.172761	0.558366	0.544021
Cu22	Cu	1.340882	-0.128077	-0.128957
Cu23	Cu	1.674215	0.205257	0.204376
Cu24	Cu	2.007549	0.538590	0.537710
Cu25	Cu	1.340900	0.128079	-0.128964
Cu26	Cu	1.674233	0.461412	0.204370
Cu27	Cu	2.007567	0.794745	0.537703
O28	O	1.332027	-0.108290	-0.259122
O29	O	1.665361	0.225043	0.074212
O30	O	1.998694	0.558377	0.407545
C31	C	1.133395	0.000003	-0.134477
C32	C	1.466729	0.333336	0.198857
C33	C	1.800062	0.666669	0.532190
C34	C	1.007398	0.000004	-0.132097
C35	C	1.340731	0.333337	0.201237
C36	C	1.674064	0.666670	0.534570
C37	C	0.905073	0.000009	-0.130163
C38	C	1.238407	0.333342	0.203170
C39	C	1.571740	0.666676	0.536504
C40	C	0.776702	0.000010	-0.127745
C41	C	1.110036	0.333343	0.205589
C42	C	1.443369	0.666676	0.538922
N43	N	1.340878	-0.308243	-0.128952
N44	N	1.674211	0.025091	0.204382
N45	N	2.007545	0.358424	0.537715
C46	C	1.340894	-0.573913	-0.128962
C47	C	1.674228	-0.240580	0.204371
C48	C	2.007561	0.092754	0.537705
C49	C	1.340881	-0.426075	-0.128959
C50	C	1.674215	-0.092742	0.204374
C51	C	2.007548	0.240591	0.537708
C52	C	1.548387	0.000002	-0.123444
C53	C	1.881720	0.333335	0.209889
C54	C	2.215054	0.666669	0.543223
C55	C	1.674385	0.000010	-0.125824
C56	C	2.007718	0.333343	0.207509
C57	C	2.341051	0.666676	0.540843
C58	C	1.348955	-0.000008	0.034532
C59	C	1.682288	0.333325	0.367865
C60	C	2.015622	0.666659	0.701198
C61	C	1.346581	-0.000007	0.133838
C62	C	1.679915	0.333327	0.467172
C63	C	2.013248	0.666660	0.800505
N64	N	1.340913	0.308245	-0.128962
N65	N	1.674247	0.641578	0.204371
N66	N	2.007580	0.974911	0.537705
C67	C	1.332827	0.000013	-0.292453
C68	C	1.666160	0.333346	0.040881
C69	C	1.999494	0.666679	0.374214
C70	C	1.335201	0.000020	-0.391759
C71	C	1.668534	0.333354	-0.058426
C72	C	2.001868	0.666687	0.274907
C73	C	1.448841	-0.000009	0.190650
C74	C	1.782174	0.333325	0.523984
C75	C	2.115507	0.666658	0.857317
C76	C	1.446603	0.000004	0.283959
C77	C	1.779937	0.333338	0.617292
C78	C	2.113270	0.666671	0.950626
C79	C	1.342106	0.000010	0.320454
C80	C	1.675439	0.333343	0.653787
C81	C	2.008772	0.666677	0.987120
C82	C	1.239839	0.000016	0.263634
C83	C	1.573172	0.333349	0.596968
C84	C	1.906505	0.666683	0.930301
C85	C	1.242077	0.000012	0.170328
C86	C	1.575410	0.333345	0.503661
C87	C	1.908744	0.666679	0.836994
C88	C	1.235180	0.000021	0.458116
C89	C	1.568514	0.333354	0.791449
C90	C	1.901847	0.666687	1.124782
C91	C	1.232942	0.000022	0.551429
C92	C	1.566275	0.333355	0.884762
C93	C	1.899608	0.666689	1.218095
C94	C	1.439707	0.000013	0.571747
C95	C	1.773040	0.333346	0.905080
C96	C	2.106374	0.666680	1.238414
C97	C	1.441945	0.000009	0.478440
C98	C	1.775279	0.333343	0.811774
C99	C	2.108612	0.666676	1.145107
C100	C	1.339678	0.000013	0.421627
C101	C	1.673011	0.333346	0.754961
C102	C	2.006344	0.666679	1.088294
H103	H	1.533935	-0.000021	0.160944
H104	H	1.867268	0.333312	0.494278
H105	H	2.200601	0.666645	0.827611
H106	H	1.151903	0.000027	0.411860
H107	H	1.485236	0.333360	0.745194
H108	H	1.818570	0.666693	1.078527
F109	F	1.555442	0.000000	0.344419
F110	F	1.888776	0.333333	0.677752
F111	F	2.222109	0.666667	1.011086
F112	F	1.121724	0.000026	0.590267
F113	F	1.455057	0.333360	0.923600
F114	F	1.788390	0.666693	1.256934
H115	H	1.158807	0.000014	0.124072
H116	H	1.492140	0.333347	0.457405
H117	H	1.825473	0.666681	0.790738
F118	F	1.128624	0.000037	0.302477
F119	F	1.461957	0.333370	0.635811
F120	F	1.795290	0.666703	0.969144
F121	F	1.553163	0.000006	0.439602
F122	F	1.886497	0.333340	0.772935
F123	F	2.219830	0.666673	1.106269
H124	H	1.522977	0.000014	0.618009
H125	H	1.856310	0.333348	0.951342
H126	H	2.189644	0.666681	1.284675
