data_functionalizedCrystal
_audit_creation_method	'MofGen! by Chris Wilmer'
_symmetry_space_group_name_H-M	'P1'
_symmetry_Int_Tables_number	1
_symmetry_cell_setting	triclinic
loop_
_symmetry_equiv_pos_as_xyz
  x,y,z
_cell_length_a	14.971486
_cell_length_b	12.996460
_cell_length_c	14.971494
_cell_angle_alpha	89.998571
_cell_angle_beta	83.615843
_cell_angle_gamma	90.001258
loop_
_atom_site_label
_atom_site_type_symbol
_atom_site_fract_x
_atom_site_fract_y
_atom_site_fract_z
O1	O	1.186951	0.085444	0.116556
O2	O	1.686951	0.585444	0.616556
O3	O	0.926551	0.085472	0.130515
O4	O	1.426551	0.585472	0.630515
O5	O	1.063727	0.085455	-0.006664
O6	O	1.563727	0.585455	0.493336
O7	O	1.049776	0.085461	0.253735
O8	O	1.549776	0.585461	0.753735
O9	O	1.063709	-0.085679	-0.006656
O10	O	1.563709	0.414321	0.493344
O11	O	0.926534	-0.085662	0.130523
O12	O	1.426534	0.414338	0.630523
O13	O	1.186933	-0.085689	0.116564
O14	O	1.686933	0.414311	0.616564
Cu15	Cu	1.056732	-0.101301	0.123544
Cu16	Cu	1.556732	0.398699	0.623544
Cu17	Cu	1.056753	0.101084	0.123535
Cu18	Cu	1.556753	0.601084	0.623535
O19	O	1.049758	-0.085672	0.253743
O20	O	1.549758	0.414328	0.753743
C21	C	0.893218	-0.000091	0.129895
C22	C	1.393218	0.499909	0.629895
C23	C	0.793921	-0.000081	0.128024
C24	C	1.293921	0.499919	0.628024
N25	N	1.056724	-0.243648	0.123550
N26	N	1.556724	0.256352	0.623550
C27	C	0.736698	-0.000080	0.208613
C28	C	1.236698	0.499920	0.708613
C29	C	0.643398	-0.000096	0.206850
C30	C	1.143398	0.499904	0.706850
C31	C	0.607323	-0.000104	0.124497
C32	C	1.107323	0.499896	0.624497
C33	C	0.664554	-0.000108	0.043902
C34	C	1.164554	0.499892	0.543902
C35	C	0.757851	-0.000100	0.045666
C36	C	1.257851	0.499900	0.545666
C37	C	0.470091	-0.000122	0.040231
C38	C	0.970091	0.499878	0.540231
C39	C	0.376787	-0.000128	0.038466
C40	C	0.876787	0.499872	0.538466
C41	C	0.355638	-0.000118	0.201415
C42	C	0.855638	0.499882	0.701415
C43	C	0.448936	-0.000110	0.203179
C44	C	0.948936	0.499890	0.703179
C45	C	0.506160	-0.000111	0.122583
C46	C	1.006160	0.499889	0.622583
C47	C	1.056728	-0.336754	0.123552
C48	C	1.556728	0.163246	0.623552
C49	C	1.056736	-0.453560	0.123547
C50	C	1.556736	0.046440	0.623547
C51	C	1.056747	-0.546658	0.123537
C52	C	1.556747	-0.046658	0.623537
C53	C	1.056757	-0.663470	0.123532
C54	C	1.556757	-0.163470	0.623532
C55	C	1.220267	-0.000124	0.117184
C56	C	1.720267	0.499876	0.617184
C57	C	1.319564	-0.000128	0.119055
C58	C	1.819564	0.499872	0.619055
C59	C	1.063093	-0.000110	-0.039985
C60	C	1.563093	0.499890	0.460015
C61	C	1.061219	-0.000105	-0.139281
C62	C	1.561219	0.499895	0.360719
N63	N	1.056768	0.243431	0.123522
N64	N	1.556768	0.743431	0.623522
C65	C	1.060350	0.093181	-0.185930
C66	C	1.560350	0.593181	0.314070
C67	C	1.058584	0.093183	-0.279229
C68	C	1.558584	0.593183	0.220771
C69	C	1.057693	-0.000103	-0.325879
C70	C	1.557693	0.499897	0.174121
C71	C	1.058559	-0.093397	-0.279223
C72	C	1.558559	0.406603	0.220777
C73	C	1.060319	-0.093397	-0.185924
C74	C	1.560319	0.406603	0.314076
C75	C	1.054893	-0.093389	-0.473686
C76	C	1.554893	0.406611	0.026314
C77	C	1.053134	-0.093390	-0.566991
C78	C	1.553134	0.406610	-0.066991
C79	C	1.053158	0.093190	-0.566991
C80	C	1.553158	0.593190	-0.066991
C81	C	1.054918	0.093190	-0.473693
C82	C	1.554918	0.593190	0.026307
C83	C	1.055786	-0.000104	-0.427043
C84	C	1.555786	0.499896	0.072957
C85	C	1.050392	-0.000105	0.287064
C86	C	1.550392	0.499895	0.787064
C87	C	1.052266	-0.000103	0.386360
C88	C	1.552266	0.499897	0.886360
H89	H	0.766062	-0.000073	0.275674
H90	H	1.266062	0.499927	0.775674
Cl91	Cl	1.052015	-0.210665	-0.625634
Cl92	Cl	1.552015	0.289335	-0.125634
H93	H	1.055650	0.169152	-0.435714
H94	H	1.555650	0.669152	0.064286
H95	H	1.057881	0.169146	-0.317207
H96	H	1.557881	0.669146	0.182793
Cl97	Cl	1.057427	-0.210672	-0.337866
Cl98	Cl	1.557427	0.289328	0.162134
H99	H	1.055580	-0.169359	-0.435704
H100	H	1.555580	0.330641	0.064296
H101	H	1.052450	0.169154	-0.604977
H102	H	1.552450	0.669154	-0.104977
Cl103	Cl	1.061409	-0.210676	-0.127279
Cl104	Cl	1.561409	0.289324	0.372721
Cl105	Cl	0.829790	-0.000105	-0.055651
Cl106	Cl	1.329790	0.499895	0.444349
Cl107	Cl	0.283700	-0.000118	0.302735
Cl108	Cl	0.783700	0.499882	0.802735
H109	H	0.596810	-0.000094	0.272473
H110	H	1.096810	0.499906	0.772473
H111	H	0.478304	-0.000093	0.270238
H112	H	0.978304	0.499907	0.770238
H113	H	1.061081	0.169146	-0.147956
H114	H	1.561081	0.669146	0.352044
Cl115	Cl	0.331437	-0.000173	-0.065065
Cl116	Cl	0.831437	0.499827	0.434935
H117	H	0.516681	-0.000125	-0.025399
H118	H	1.016681	0.499875	0.474601
H119	H	0.635174	-0.000129	-0.023152
H120	H	1.135174	0.499871	0.476848
