data_functionalizedCrystal
_audit_creation_method	'MofGen! by Chris Wilmer'
_symmetry_space_group_name_H-M	'P1'
_symmetry_Int_Tables_number	1
_symmetry_cell_setting	triclinic
loop_
_symmetry_equiv_pos_as_xyz
  x,y,z
_cell_length_a	19.121102
_cell_length_b	29.839131
_cell_length_c	29.839126
_cell_angle_alpha	90.031806
_cell_angle_beta	92.458332
_cell_angle_gamma	87.589066
loop_
_atom_site_label
_atom_site_type_symbol
_atom_site_fract_x
_atom_site_fract_y
_atom_site_fract_z
Zn1	Zn	1.073671	-0.208236	0.283241
Zn2	Zn	1.073562	-0.283354	0.208097
Zn3	Zn	0.956220	-0.205031	0.204922
Zn4	Zn	0.956167	-0.280128	0.280000
O5	O	1.014905	-0.244187	0.244065
O6	O	1.171940	-0.220892	0.275958
O7	O	1.057973	-0.272972	0.144809
O8	O	0.971868	-0.142591	0.215339
O9	O	1.171860	-0.276080	0.220750
O10	O	1.058159	-0.144946	0.272879
O11	O	0.971762	-0.215429	0.142476
O12	O	0.857929	-0.212301	0.212197
O13	O	0.971777	-0.270583	0.343297
O14	O	0.857890	-0.267475	0.267356
O15	O	1.058107	-0.217764	0.345678
O16	O	1.057921	-0.345791	0.217608
O17	O	0.971671	-0.343421	0.270434
C18	C	0.832426	-0.239190	0.239080
C19	C	0.754361	-0.237064	0.236958
C20	C	1.014798	-0.360907	0.244024
C21	C	1.014816	-0.410842	0.244024
C22	C	0.717683	-0.264834	0.264635
C23	C	0.644333	-0.262830	0.262643
C24	C	0.607661	-0.233057	0.232973
C25	C	0.644343	-0.205284	0.205295
C26	C	0.717692	-0.207286	0.207289
C27	C	0.386193	-0.225570	0.225519
C28	C	0.312839	-0.223571	0.223526
C29	C	0.312833	-0.281116	0.280875
C30	C	0.386184	-0.283118	0.282864
C31	C	0.422860	-0.255343	0.255189
C32	C	0.532684	-0.231009	0.230935
C33	C	0.497835	-0.257389	0.257229
C34	C	1.059826	-0.721678	0.274067
C35	C	1.059903	-0.909354	0.274096
O36	O	1.098067	-0.934630	0.299609
N37	N	1.015024	-0.931632	0.244118
C38	C	0.970120	-0.906989	0.214133
O39	O	0.931945	-0.930245	0.188639
C40	C	0.970041	-0.719315	0.214107
C41	C	1.014927	-0.697039	0.244083
C42	C	1.104709	-0.699402	0.304041
C43	C	1.104692	-0.652486	0.304032
C44	C	1.059793	-0.627847	0.274048
C45	C	1.014910	-0.650123	0.244074
C46	C	0.925133	-0.694673	0.184124
C47	C	0.925116	-0.647751	0.184121
C48	C	0.970003	-0.625475	0.214097
C49	C	0.969994	-0.578567	0.214081
N50	N	1.014873	-0.556289	0.244059
C51	C	1.059772	-0.580928	0.274042
C52	C	0.970166	-1.005521	0.214149
C53	C	0.970186	-1.052440	0.214155
C54	C	1.059968	-1.054801	0.274118
C55	C	1.059951	-1.007881	0.274110
C56	C	1.015044	-0.983242	0.244126
C57	C	1.059734	-0.482401	0.274020
C58	C	1.059715	-0.435481	0.274007
C59	C	0.969931	-0.433124	0.214046
C60	C	0.969952	-0.480040	0.214057
C61	C	1.014856	-0.504678	0.244048
O62	O	0.931844	-0.553262	0.188585
O63	O	1.097931	-0.557664	0.299539
C64	C	1.059843	-0.768594	0.274076
C65	C	1.014961	-0.790871	0.244102
C66	C	0.970062	-0.766231	0.214118
C67	C	1.014981	-0.837789	0.244108
C68	C	1.059881	-0.862429	0.274091
C69	C	1.104759	-0.840150	0.304069
C70	C	1.104742	-0.793234	0.304060
C71	C	0.925183	-0.788510	0.184140
C72	C	0.925204	-0.835426	0.184151
C73	C	0.970103	-0.860066	0.214135
C74	C	1.198096	-0.249203	0.249070
C75	C	1.276161	-0.251341	0.251202
C76	C	1.014948	-0.244171	0.361245
C77	C	1.014967	-0.244164	0.411180
C78	C	1.015031	-0.127012	0.244116
C79	C	1.015085	-0.077079	0.244138
C80	C	1.014902	-0.244172	0.127342
C81	C	1.015019	-0.244056	0.077412
C82	C	0.970091	-0.214157	0.719612
C83	C	0.970111	-0.214126	0.907285
O84	O	0.931921	-0.188657	0.930519
N85	N	1.015000	-0.244081	0.931966
C86	C	1.059884	-0.274047	0.909725
O87	O	1.098060	-0.299528	0.935023
C88	C	1.059860	-0.274080	0.722052
C89	C	1.014973	-0.244120	0.697374
C90	C	0.925207	-0.184200	0.694934
C91	C	0.925205	-0.184206	0.648018
C92	C	0.970087	-0.214169	0.625781
C93	C	1.014971	-0.244126	0.650459
C94	C	1.104740	-0.304048	0.699812
C95	C	1.104729	-0.304054	0.652890
C96	C	1.059842	-0.274094	0.628213
C97	C	1.059852	-0.274096	0.581305
N98	N	1.014963	-0.244141	0.556625
C99	C	0.970080	-0.214178	0.578863
C100	C	1.059895	-0.274027	1.008256
C101	C	1.059902	-0.274019	1.055174
C102	C	0.970127	-0.214098	1.052731
C103	C	0.970124	-0.214105	1.005812
C104	C	1.015005	-0.244073	0.983575
C105	C	0.970080	-0.214193	0.480337
C106	C	0.970085	-0.214201	0.433417
C107	C	1.059856	-0.274123	0.435864
C108	C	1.059855	-0.274114	0.482779
C109	C	1.014961	-0.244147	0.505015
O110	O	1.098016	-0.299555	0.558042
O111	O	0.931899	-0.188708	0.553556
C112	C	0.970093	-0.214151	0.766527
C113	C	1.014977	-0.244107	0.791205
C114	C	1.059859	-0.274071	0.768967
C115	C	1.014984	-0.244099	0.838123
C116	C	0.970102	-0.214136	0.860361
C117	C	0.925213	-0.184181	0.835680
C118	C	0.925211	-0.184187	0.788765
C119	C	1.104748	-0.304025	0.793648
C120	C	1.104747	-0.304016	0.840563
C121	C	1.059865	-0.274053	0.862801
H122	H	0.747536	-0.289079	0.288794
C123	C	1.109326	-0.983382	0.307087
N124	N	1.146517	-0.964931	0.331929
H125	H	1.141271	-0.719459	0.328460
C126	C	0.426527	-0.195020	0.195072
N127	N	0.456909	-0.172008	0.172137
C128	C	0.875827	-0.151231	0.761625
N129	N	0.838627	-0.126408	0.741186
C130	C	0.920755	-0.978424	0.181167
N131	N	0.883536	-0.958016	0.156325
C132	C	0.758037	-0.176738	0.176842
N133	N	0.788424	-0.153727	0.153909
H134	H	0.888546	-0.627692	0.159705
C135	C	1.109354	-1.081913	0.307103
N136	N	1.146545	-1.102336	0.331948
H137	H	0.614473	-0.285443	0.285180
H138	H	0.933643	-1.070573	0.189740
C139	C	0.920741	-0.181150	0.978671
N140	N	0.883541	-0.156328	0.958230
C141	C	0.538176	-0.290139	0.289864
N142	N	0.568568	-0.314808	0.314443
H143	H	0.416038	-0.307362	0.307024
C144	C	1.154129	-0.336977	0.867704
N145	N	1.191318	-0.361805	0.888144
H146	H	0.933407	-0.498179	0.189644
C147	C	1.109098	-0.410980	0.306984
N148	N	1.146292	-0.392528	0.331822
C149	C	0.875749	-0.719166	0.151150
N150	N	0.838547	-0.737613	0.126313
C151	C	1.154147	-0.336976	0.769194
N152	N	1.191367	-0.361790	0.750777
C153	C	0.920541	-0.406012	0.181067
N154	N	0.883336	-0.385589	0.156230
H155	H	1.141293	-0.775100	0.328470
C156	C	0.920753	-0.181141	1.077201
N157	N	0.883561	-0.156321	1.095634
C158	C	1.109135	-0.509496	0.307009
N159	N	1.146348	-0.529903	0.331854
C160	C	0.272484	-0.311663	0.311319
N161	N	0.242092	-0.334670	0.334253
H162	H	0.282982	-0.199322	0.199367
C163	C	1.154148	-0.867262	0.337052
N164	N	1.191341	-0.887686	0.361895
C165	C	0.875821	-0.859924	0.151173
N166	N	0.838622	-0.878375	0.126337
H167	H	0.502818	-0.206769	0.206776
C168	C	0.920701	-0.181243	0.406274
N169	N	0.883505	-0.156420	0.385832
H170	H	0.614479	-0.181041	0.181139
H171	H	0.933524	-0.189791	0.498435
H172	H	1.141240	-0.634352	0.328443
C173	C	0.875841	-0.151222	0.860151
N174	N	0.838654	-0.126400	0.878584
H175	H	1.096461	-0.298410	1.075263
C176	C	1.109295	-0.306982	0.983802
N177	N	1.146514	-0.331797	0.965386
H178	H	0.888620	-0.768452	0.159724
H179	H	0.888651	-0.159812	0.627930
C180	C	1.154107	-0.337019	0.628433
N181	N	1.191302	-0.361847	0.610013
H182	H	1.141292	-0.328445	0.719897
H183	H	0.888655	-0.159800	0.713035
H184	H	1.096413	-0.298505	0.502874
H185	H	1.096400	-0.298517	0.417750
