data_functionalizedCrystal
_audit_creation_method	'MofGen! by Chris Wilmer'
_symmetry_space_group_name_H-M	'P1'
_symmetry_Int_Tables_number	1
_symmetry_cell_setting	triclinic
loop_
_symmetry_equiv_pos_as_xyz
  x,y,z
_cell_length_a	19.077409
_cell_length_b	19.076808
_cell_length_c	19.076919
_cell_angle_alpha	89.878360
_cell_angle_beta	94.476475
_cell_angle_gamma	94.713771
loop_
_atom_site_label
_atom_site_type_symbol
_atom_site_fract_x
_atom_site_fract_y
_atom_site_fract_z
Zn1	Zn	1.051944	-0.251820	-0.345709
Zn2	Zn	1.551944	0.248180	0.154291
Zn3	Zn	1.052241	-0.364603	-0.223467
Zn4	Zn	1.552241	0.135397	0.276533
Zn5	Zn	0.938798	-0.251844	-0.232557
Zn6	Zn	1.438798	0.248156	0.267443
Zn7	Zn	0.929291	-0.374418	-0.345650
Zn8	Zn	1.429291	0.125582	0.154350
O9	O	0.993069	-0.310671	-0.286846
O10	O	1.493069	0.189329	0.213154
O11	O	1.150790	-0.262664	-0.325715
O12	O	1.650790	0.237336	0.174285
O13	O	1.041296	-0.345547	-0.126185
O14	O	1.541296	0.154453	0.373815
O15	O	0.957661	-0.153343	-0.251396
O16	O	1.457661	0.346657	0.248604
O17	O	1.151009	-0.345524	-0.235904
O18	O	1.651009	0.154476	0.264096
O19	O	1.040789	-0.153326	-0.334528
O20	O	1.540789	0.346674	0.165472
O21	O	0.957950	-0.262704	-0.132863
O22	O	1.457950	0.237296	0.367137
O23	O	0.838730	-0.272221	-0.251338
O24	O	1.338730	0.227779	0.248662
O25	O	0.941458	-0.362253	-0.444146
O26	O	1.441458	0.137747	0.055854
O27	O	0.831745	-0.362276	-0.334427
O28	O	1.331745	0.137724	0.165573
O29	O	1.031570	-0.272181	-0.444190
O30	O	1.531570	0.227819	0.055810
O31	O	1.032077	-0.464402	-0.235846
O32	O	1.532077	0.035598	0.264154
O33	O	0.941746	-0.471614	-0.325613
O34	O	1.441746	0.028386	0.174387
C35	C	0.809618	-0.318317	-0.293863
C36	C	1.309618	0.181683	0.206137
C37	C	0.731136	-0.321605	-0.296881
C38	C	1.231136	0.178395	0.203119
C39	C	0.288973	-0.345136	-0.318562
C40	C	0.788973	0.154864	0.181438
C41	C	0.362716	-0.342051	-0.315713
C42	C	0.862716	0.157949	0.184287
C43	C	0.403201	-0.293552	-0.271106
C44	C	0.903201	0.206448	0.228894
C45	C	0.369939	-0.248141	-0.229340
C46	C	0.869939	0.251859	0.270660
C47	C	0.296198	-0.251229	-0.232185
C48	C	0.796198	0.248771	0.267815
C49	C	0.624132	-0.279282	-0.257961
C50	C	1.124132	0.220718	0.242039
C51	C	0.697879	-0.276195	-0.255120
C52	C	1.197879	0.223805	0.244880
C53	C	0.690651	-0.370107	-0.341492
C54	C	1.190651	0.129893	0.158508
C55	C	0.616908	-0.373189	-0.344337
C56	C	1.116908	0.126811	0.155663
C57	C	0.583653	-0.327780	-0.302568
C58	C	1.083653	0.172220	0.197432
N59	N	0.478578	-0.290396	-0.268194
N60	N	0.978578	0.209604	0.231806
N61	N	0.508277	-0.330939	-0.305477
N62	N	1.008277	0.169061	0.194523
C63	C	0.985931	-0.493547	-0.279752
C64	C	1.485931	0.006453	0.220248
C65	C	0.982941	-0.571780	-0.276738
C66	C	1.482941	-0.071780	0.223262
C67	C	1.024781	-0.608468	-0.318642
C68	C	1.524781	-0.108468	0.181358
C69	C	1.021969	-0.681977	-0.315812
C70	C	1.521969	-0.181977	0.184188
C71	C	0.977320	-0.718796	-0.271073
C72	C	1.477320	-0.218796	0.228927
C73	C	0.935475	-0.682104	-0.229166
C74	C	1.435475	-0.182104	0.270834
C75	C	0.938284	-0.608596	-0.232001
C76	C	1.438284	-0.108596	0.267999
C77	C	0.964278	-0.938646	-0.257953
C78	C	1.464278	-0.438646	0.242047
C79	C	0.961474	-1.012158	-0.255119
C80	C	1.461474	-0.512158	0.244881
C81	C	1.047967	-1.012027	-0.341766
C82	C	1.547967	-0.512027	0.158234
C83	C	1.050775	-0.938518	-0.344594
C84	C	1.550775	-0.438518	0.155406
C85	C	1.008928	-0.901832	-0.302690
C86	C	1.508928	-0.401832	0.197310
N87	N	0.974446	-0.793934	-0.268177
N88	N	1.474446	-0.293934	0.231823
N89	N	1.011799	-0.826696	-0.305590
N90	N	1.511799	-0.326696	0.194410
C91	C	1.177236	-0.302997	-0.279802
C92	C	1.677236	0.197003	0.220198
C93	C	1.255717	-0.299726	-0.276800
C94	C	1.755717	0.200274	0.223200
C95	C	0.985420	-0.318310	-0.470419
C96	C	1.485420	0.181690	0.029581
C97	C	0.982161	-0.321565	-0.548647
C98	C	1.482161	0.178435	-0.048647
C99	C	1.000253	-0.127081	-0.293983
C100	C	1.500253	0.372919	0.206017
C101	C	1.003314	-0.048846	-0.297024
C102	C	1.503314	0.451154	0.202976
C103	C	1.027545	-0.276200	-0.585423
C104	C	1.527545	0.223800	-0.085423
C105	C	1.024474	-0.279256	-0.658927
C106	C	1.524474	0.220744	-0.158927
C107	C	0.976023	-0.327681	-0.695653
C108	C	1.476023	0.172319	-0.195653
C109	C	0.930634	-0.373047	-0.658873
C110	C	1.430634	0.126953	-0.158873
C111	C	0.933702	-0.369987	-0.585370
C112	C	1.433702	0.130013	-0.085370
C113	C	0.961813	-0.341858	-0.915479
C114	C	1.461813	0.158142	-0.415479
C115	C	0.958750	-0.344916	-0.988987
C116	C	1.458750	0.155084	-0.488987
C117	C	1.052589	-0.251124	-0.989036
C118	C	1.552589	0.248876	-0.489036
C119	C	1.055655	-0.248071	-0.915532
C120	C	1.555655	0.251929	-0.415532
C121	C	1.010265	-0.293435	-0.878758
C122	C	1.510265	0.206565	-0.378758
N123	N	0.972884	-0.330807	-0.770786
N124	N	1.472884	0.169193	-0.270786
N125	N	1.013400	-0.290304	-0.803627
N126	N	1.513400	0.209696	-0.303627
C127	C	1.000730	-0.303010	-0.103987
C128	C	1.500730	0.196990	0.396013
C129	C	1.004133	-0.299551	-0.025762
C130	C	1.504133	0.200449	0.474238
H131	H	0.730840	-0.236693	-0.218801
H132	H	1.230840	0.263307	0.281199
O133	O	1.062651	-0.717692	-0.356409
O134	O	1.562651	-0.217692	0.143591
C135	C	1.108336	-0.756602	-0.312982
C136	C	1.608336	-0.256602	0.187018
H137	H	1.085269	-0.766466	-0.260153
H138	H	1.585269	-0.266466	0.239847
H139	H	1.114605	-0.809076	-0.339299
H140	H	1.614605	-0.309076	0.160701
H141	H	1.162074	-0.725730	-0.304380
H142	H	1.662074	-0.225730	0.195620
H143	H	0.402908	-0.208655	-0.193016
H144	H	0.902908	0.291345	0.306984
O145	O	0.892061	-0.717951	-0.185802
O146	O	1.392061	-0.217951	0.314198
C147	C	0.843120	-0.764057	-0.225940
C148	C	1.343120	-0.264057	0.274060
H149	H	0.865337	-0.776212	-0.277923
H150	H	1.365337	-0.276212	0.222077
H151	H	0.832903	-0.814966	-0.195630
H152	H	1.332903	-0.314966	0.304370
H153	H	0.791548	-0.738277	-0.236722
H154	H	1.291548	-0.238277	0.263278
H155	H	1.082036	-1.041904	-0.375882
H156	H	1.582036	-0.541904	0.124118
O157	O	1.102740	-0.200966	-0.879968
O158	O	1.602740	0.299034	-0.379968
C159	C	1.142151	-0.161593	-0.928189
C160	C	1.642151	0.338407	-0.428189
H161	H	1.111140	-0.162540	-0.981783
H162	H	1.611140	0.337460	-0.481783
H163	H	1.152740	-0.104938	-0.908819
H164	H	1.652740	0.395062	-0.408819
H165	H	1.194441	-0.185460	-0.932956
H166	H	1.694441	0.314540	-0.432956
H167	H	0.256015	-0.384625	-0.354889
H168	H	0.756015	0.115375	0.145111
O169	O	1.094166	-0.902864	-0.388112
O170	O	1.594166	-0.402864	0.111888
C171	C	1.130510	-0.951008	-0.424476
C172	C	1.630510	-0.451008	0.075524
H173	H	1.099481	-1.004737	-0.425983
H174	H	1.599481	-0.504737	0.074017
H175	H	1.136508	-0.931734	-0.480465
H176	H	1.636508	-0.431734	0.019535
H177	H	1.184927	-0.955483	-0.396388
H178	H	1.684927	-0.455483	0.103612
H179	H	0.904212	-0.578726	-0.197879
H180	H	1.404212	-0.078726	0.302121
O181	O	0.263777	-0.207191	-0.191642
O182	O	0.763777	0.292809	0.308358
C183	C	0.190010	-0.220306	-0.203729
C184	C	0.690010	0.279694	0.296271
H185	H	0.176875	-0.276038	-0.224971
H186	H	0.676875	0.223962	0.275029
H187	H	0.164353	-0.214434	-0.152288
H188	H	0.664353	0.285566	0.347712
H189	H	0.169153	-0.181053	-0.243700
H190	H	0.669153	0.318947	0.256300
O191	O	0.918034	-1.047819	-0.211645
O192	O	1.418034	-0.547819	0.288355
C193	C	0.881712	-0.999677	-0.175255
C194	C	1.381712	-0.499677	0.324745
H195	H	0.880043	-0.948572	-0.206195
H196	H	1.380043	-0.448572	0.293805
H197	H	0.825588	-1.022979	-0.169015
H198	H	1.325588	-0.522979	0.330985
H199	H	0.910132	-0.988551	-0.121132
H200	H	1.410132	-0.488551	0.378868
O201	O	0.923738	-0.902929	-0.217210
O202	O	1.423738	-0.402929	0.282790
C203	C	0.967494	-0.856833	-0.171877
C204	C	1.467494	-0.356833	0.328123
H205	H	1.020369	-0.844567	-0.195126
H206	H	1.520369	-0.344567	0.304874
H207	H	0.941109	-0.805978	-0.165513
H208	H	1.441109	-0.305978	0.334487
H209	H	0.976386	-0.882677	-0.118335
H210	H	1.476386	-0.382677	0.381665
O211	O	0.889722	-0.414082	-0.549558
O212	O	1.389722	0.085918	-0.049558
C213	C	0.929922	-0.456107	-0.503751
C214	C	1.429922	0.043893	-0.003751
H215	H	0.984862	-0.428592	-0.491668
H216	H	1.484862	0.071408	0.008332
H217	H	0.902954	-0.464582	-0.452792
H218	H	1.402954	0.035418	0.047208
H219	H	0.934455	-0.509126	-0.529750
H220	H	1.434455	-0.009126	-0.029750
H221	H	1.067001	-0.236770	-0.555525
H222	H	1.567001	0.263230	-0.055525
O223	O	1.068580	-0.235287	-0.694728
O224	O	1.568580	0.264713	-0.194728
C225	C	1.110850	-0.275225	-0.733941
C226	C	1.610850	0.224775	-0.233941
H227	H	1.083404	-0.330065	-0.743825
H228	H	1.583404	0.169935	-0.243825
H229	H	1.119266	-0.248311	-0.786383
H230	H	1.619266	0.251689	-0.286383
H231	H	1.164061	-0.279595	-0.703324
H232	H	1.664061	0.220405	-0.203324
H233	H	1.089542	-0.214190	-1.018985
H234	H	1.589542	0.285810	-0.518985
H235	H	0.919293	-0.384350	-1.018888
H236	H	1.419293	0.115650	-0.518888
H237	H	0.717735	-0.407077	-0.375497
H238	H	1.217735	0.092923	0.124503
O239	O	0.394909	-0.386191	-0.356350
O240	O	0.894909	0.113809	0.143650
C241	C	0.343363	-0.429668	-0.396321
C242	C	0.843363	0.070332	0.103679
H243	H	0.291819	-0.403144	-0.401954
H244	H	0.791819	0.096856	0.098046
H245	H	0.362084	-0.438678	-0.450643
H246	H	0.862084	0.061322	0.049357
H247	H	0.334506	-0.482337	-0.368690
H248	H	0.834506	0.017663	0.131310
O249	O	0.577689	-0.420373	-0.387673
O250	O	1.077689	0.079627	0.112327
C251	C	0.622856	-0.459785	-0.423931
C252	C	1.122856	0.040215	0.076069
H253	H	0.676523	-0.458765	-0.392984
H254	H	1.176523	0.041235	0.107016
H255	H	0.599087	-0.516458	-0.430000
H256	H	1.099087	-0.016458	0.070000
H257	H	0.629481	-0.436004	-0.478127
H258	H	1.129481	0.063996	0.021873
H259	H	0.924863	-0.378806	-0.885546
H260	H	1.424863	0.121194	-0.385546
O261	O	1.068235	-0.572667	-0.362001
O262	O	1.568235	-0.072667	0.137999
C263	C	1.117157	-0.526538	-0.321869
C264	C	1.617157	-0.026538	0.178131
H265	H	1.123028	-0.546213	-0.265417
H266	H	1.623028	-0.046213	0.234583
H267	H	1.170445	-0.524445	-0.345328
H268	H	1.670445	-0.024445	0.154672
H269	H	1.097559	-0.471657	-0.322411
H270	H	1.597559	0.028343	0.177589
O271	O	0.883630	-0.420064	-0.694654
O272	O	1.383630	0.079936	-0.194654
C273	C	0.890641	-0.413028	-0.767417
C274	C	1.390641	0.086972	-0.267417
H275	H	0.945615	-0.388125	-0.776272
H276	H	1.445615	0.111875	-0.276272
H277	H	0.882621	-0.467113	-0.793483
H278	H	1.382621	0.032887	-0.293483
H279	H	0.849358	-0.378157	-0.791332
H280	H	1.349358	0.121843	-0.291332
O281	O	0.591947	-0.235097	-0.217369
O282	O	1.091947	0.264903	0.282631
C283	C	0.643495	-0.191640	-0.177380
C284	C	1.143495	0.308360	0.322620
H285	H	0.694961	-0.188251	-0.204279
H286	H	1.194961	0.311749	0.295721
H287	H	0.624658	-0.136754	-0.172941
H288	H	1.124658	0.363246	0.327059
H289	H	0.652550	-0.214774	-0.122585
H290	H	1.152550	0.285226	0.377415
