data_functionalizedCrystal
_audit_creation_method	'MofGen! by Chris Wilmer'
_symmetry_space_group_name_H-M	'P1'
_symmetry_Int_Tables_number	1
_symmetry_cell_setting	triclinic
loop_
_symmetry_equiv_pos_as_xyz
  x,y,z
_cell_length_a	14.519709
_cell_length_b	14.519731
_cell_length_c	13.596369
_cell_angle_alpha	89.998627
_cell_angle_beta	89.999684
_cell_angle_gamma	83.684499
loop_
_atom_site_label
_atom_site_type_symbol
_atom_site_fract_x
_atom_site_fract_y
_atom_site_fract_z
O1	O	1.223879	0.120884	-0.081666
O2	O	1.473879	0.370884	0.168334
O3	O	1.723879	0.620884	0.418334
O4	O	1.973879	0.870884	0.668334
O5	O	0.955404	0.135120	-0.081696
O6	O	1.205404	0.385120	0.168304
O7	O	1.455404	0.635120	0.418304
O8	O	1.705404	0.885120	0.668304
O9	O	1.096749	-0.006235	-0.081671
O10	O	1.346749	0.243765	0.168329
O11	O	1.596749	0.493765	0.418329
O12	O	1.846749	0.743765	0.668329
O13	O	1.082533	0.262239	-0.081690
O14	O	1.332533	0.512239	0.168310
O15	O	1.582533	0.762239	0.418310
O16	O	1.832533	1.012239	0.668310
O17	O	1.096732	-0.006227	0.081912
O18	O	1.346732	0.243773	0.331912
O19	O	1.596732	0.493773	0.581912
O20	O	1.846732	0.743773	0.831912
O21	O	0.955386	0.135128	0.081887
O22	O	1.205386	0.385128	0.331887
O23	O	1.455386	0.635128	0.581887
O24	O	1.705386	0.885128	0.831887
O25	O	1.223862	0.120892	0.081917
O26	O	1.473862	0.370892	0.331917
O27	O	1.723862	0.620892	0.581917
O28	O	1.973862	0.870892	0.831917
Zn29	Zn	1.089621	0.128011	0.107874
Zn30	Zn	1.339621	0.378011	0.357874
Zn31	Zn	1.589621	0.628011	0.607874
Zn32	Zn	1.839621	0.878011	0.857874
Zn33	Zn	1.089644	0.128001	-0.107653
Zn34	Zn	1.339644	0.378001	0.142347
Zn35	Zn	1.589644	0.628001	0.392347
Zn36	Zn	1.839644	0.878001	0.642347
O37	O	1.082516	0.262247	0.081892
O38	O	1.332516	0.512247	0.331892
O39	O	1.582516	0.762247	0.581892
O40	O	1.832516	1.012247	0.831892
C41	C	0.921035	0.134461	0.000092
C42	C	1.171035	0.384461	0.250092
C43	C	1.421035	0.634461	0.500092
C44	C	1.671035	0.884461	0.750092
C45	C	0.818654	0.132473	0.000080
C46	C	1.068654	0.382473	0.250080
C47	C	1.318654	0.632473	0.500080
C48	C	1.568654	0.882473	0.750080
C49	C	0.443757	0.125153	0.000126
C50	C	0.693757	0.375153	0.250126
C51	C	0.943757	0.625153	0.500126
C52	C	1.193757	0.875153	0.750126
C53	C	0.548065	0.127186	0.000113
C54	C	0.798065	0.377186	0.250113
C55	C	1.048065	0.627186	0.500113
C56	C	1.298065	0.877186	0.750113
C57	C	0.631202	0.128813	0.000102
C58	C	0.881202	0.378813	0.250102
C59	C	1.131202	0.628813	0.500102
C60	C	1.381202	0.878813	0.750102
C61	C	0.735517	0.130846	0.000091
C62	C	0.985517	0.380846	0.250091
C63	C	1.235517	0.630846	0.500091
C64	C	1.485517	0.880846	0.750091
C65	C	1.096075	-0.040591	0.000121
C66	C	1.346075	0.209409	0.250121
C67	C	1.596075	0.459409	0.500121
C68	C	1.846075	0.709409	0.750121
C69	C	1.094079	-0.142971	0.000121
C70	C	1.344079	0.107029	0.250121
C71	C	1.594079	0.357029	0.500121
C72	C	1.844079	0.607029	0.750121
C73	C	1.092457	-0.226115	0.000119
C74	C	1.342457	0.023885	0.250119
C75	C	1.592457	0.273885	0.500119
C76	C	1.842457	0.523885	0.750119
C77	C	1.090430	-0.330424	0.000111
C78	C	1.340430	-0.080424	0.250111
C79	C	1.590430	0.169576	0.500111
C80	C	1.840430	0.419576	0.750111
C81	C	1.088822	-0.413563	0.000104
C82	C	1.338822	-0.163563	0.250104
C83	C	1.588822	0.086437	0.500104
C84	C	1.838822	0.336437	0.750104
C85	C	1.086795	-0.517878	0.000098
C86	C	1.336795	-0.267878	0.250098
C87	C	1.586795	-0.017878	0.500098
C88	C	1.836795	0.232122	0.750098
C89	C	1.258230	0.121551	0.000128
C90	C	1.508230	0.371551	0.250128
C91	C	1.758230	0.621551	0.500128
C92	C	2.008230	0.871551	0.750128
C93	C	1.360612	0.123539	0.000132
C94	C	1.610612	0.373539	0.250132
C95	C	1.860612	0.623539	0.500132
C96	C	2.110612	0.873539	0.750132
C97	C	1.083191	0.296603	0.000099
C98	C	1.333191	0.546603	0.250099
C99	C	1.583191	0.796603	0.500099
C100	C	1.833191	1.046603	0.750099
C101	C	1.085187	0.398983	0.000092
C102	C	1.335187	0.648983	0.250092
C103	C	1.585187	0.898983	0.500092
C104	C	1.835187	1.148983	0.750092
N105	N	1.089612	0.128018	0.254966
N106	N	1.339612	0.378018	0.504966
N107	N	1.589612	0.628018	0.754966
N108	N	1.839612	0.878018	1.004966
N109	N	1.089660	0.127987	-0.254745
N110	N	1.339660	0.377987	-0.004745
N111	N	1.589660	0.627987	0.245255
N112	N	1.839660	0.877987	0.495255
C113	C	1.089617	0.128020	0.343964
C114	C	1.339617	0.378020	0.593964
C115	C	1.589617	0.628020	0.843964
C116	C	1.839617	0.878020	1.093964
C117	C	1.089626	0.128013	0.455616
C118	C	1.339626	0.378013	0.705616
C119	C	1.589626	0.628013	0.955616
C120	C	1.839626	0.878013	1.205616
C121	C	1.089638	0.128003	0.544606
C122	C	1.339638	0.378003	0.794606
C123	C	1.589638	0.628003	1.044606
C124	C	1.839638	0.878003	1.294606
C125	C	1.089648	0.127997	0.656265
C126	C	1.339648	0.377997	0.906265
C127	C	1.589648	0.627997	1.156265
C128	C	1.839648	0.877997	1.406265
