data_functionalizedCrystal
_audit_creation_method	'MofGen! by Chris Wilmer'
_symmetry_space_group_name_H-M	'P1'
_symmetry_Int_Tables_number	1
_symmetry_cell_setting	triclinic
loop_
_symmetry_equiv_pos_as_xyz
  x,y,z
_cell_length_a	19.188933
_cell_length_b	19.188924
_cell_length_c	10.268362
_cell_angle_alpha	89.992651
_cell_angle_beta	89.996830
_cell_angle_gamma	83.143767
loop_
_atom_site_label
_atom_site_type_symbol
_atom_site_fract_x
_atom_site_fract_y
_atom_site_fract_z
O1	O	0.926142	0.087175	-0.108263
O2	O	0.722830	0.098908	-0.108276
O3	O	0.830356	-0.008615	-0.108253
O4	O	0.818616	0.194697	-0.108285
O5	O	0.830346	-0.008619	0.108347
O6	O	0.722821	0.098903	0.108325
O7	O	0.926132	0.087170	0.108338
Cu8	Cu	0.824476	0.093037	0.128109
Cu9	Cu	0.824487	0.093042	-0.128047
O10	O	0.818607	0.194693	0.108316
C11	C	0.696815	0.098525	0.000023
C12	C	0.619310	0.097384	0.000019
C13	C	0.066060	0.089241	-0.118035
C14	C	0.138884	0.090309	-0.118040
C15	C	0.175296	0.090844	0.000028
C16	C	0.138880	0.090293	0.118111
C17	C	0.066058	0.089218	0.118113
N18	N	0.284312	0.132261	0.087906
N19	N	0.353489	0.133284	0.087896
C20	C	0.394705	0.094082	0.000030
N21	N	0.364129	0.053828	-0.087846
N22	N	0.294944	0.052808	-0.087840
C23	C	0.254260	0.092010	0.000040
C24	C	0.510077	0.095787	-0.118051
C25	C	0.582903	0.096850	-0.118051
C26	C	0.582897	0.096841	0.118104
C27	C	0.510073	0.095770	0.118100
C28	C	0.473667	0.095246	0.000020
C29	C	0.829972	-0.034628	0.000048
C30	C	0.828833	-0.112133	0.000051
C31	C	0.828307	-0.148529	-0.118018
C32	C	0.827227	-0.221352	-0.118028
C33	C	0.826687	-0.257777	0.000038
C34	C	0.827210	-0.221371	0.118123
C35	C	0.828283	-0.148549	0.118130
N36	N	0.864731	-0.377442	0.087914
N37	N	0.863713	-0.446620	0.087900
C38	C	0.823453	-0.477186	0.000025
N39	N	0.784258	-0.435962	-0.087854
N40	N	0.785279	-0.366778	-0.087844
C41	C	0.825523	-0.336741	0.000044
C42	C	0.821755	-0.592545	-0.118063
C43	C	0.820670	-0.665369	-0.118068
C44	C	0.820661	-0.665388	0.118087
C45	C	0.821738	-0.592565	0.118088
C46	C	0.822288	-0.556149	0.000010
C47	C	0.952148	0.087553	0.000036
C48	C	1.029653	0.088694	0.000032
C49	C	0.818991	0.220706	0.000011
C50	C	0.820130	0.298211	-0.000001
N51	N	0.824473	0.093032	0.308275
N52	N	0.824495	0.093040	-0.308212
C53	C	0.824483	0.093040	0.573945
C54	C	0.824476	0.093038	0.426107
H55	H	0.036415	0.088775	0.214260
H56	H	0.822172	-0.562931	0.214233
H57	H	0.036423	0.088812	-0.214186
F58	F	0.471329	0.095225	-0.243720
H59	H	0.480429	0.095327	0.214243
H60	H	0.612546	0.097291	-0.214199
H61	H	0.822199	-0.562893	-0.214209
F62	F	0.820083	-0.704149	0.243743
F63	F	0.177640	0.090893	-0.243708
F64	F	0.828889	-0.109776	-0.243688
F65	F	0.177634	0.090860	0.243768
H66	H	0.826794	-0.250991	-0.214177
F67	F	0.621646	0.097401	0.243762
F68	F	0.820105	-0.704104	-0.243741
H69	H	0.826768	-0.251033	0.214253
F70	F	0.828842	-0.109812	0.243801
