data_functionalizedCrystal
_audit_creation_method	'MofGen! by Chris Wilmer'
_symmetry_space_group_name_H-M	'P1'
_symmetry_Int_Tables_number	1
_symmetry_cell_setting	triclinic
loop_
_symmetry_equiv_pos_as_xyz
  x,y,z
_cell_length_a	15.538191
_cell_length_b	15.944551
_cell_length_c	14.750779
_cell_angle_alpha	77.355667
_cell_angle_beta	97.572172
_cell_angle_gamma	65.385416
loop_
_atom_site_label
_atom_site_type_symbol
_atom_site_fract_x
_atom_site_fract_y
_atom_site_fract_z
O1	O	1.229446	-0.248345	-0.079831
O2	O	0.955193	-0.151359	-0.079833
O3	O	1.099811	-0.324413	-0.079824
O4	O	1.084828	-0.075291	-0.079841
O5	O	1.140693	-0.373329	0.079829
O6	O	0.996075	-0.200275	0.079820
O7	O	1.270328	-0.297261	0.079821
Zn8	Zn	1.139692	-0.256535	0.105169
Zn9	Zn	1.085829	-0.192085	-0.105181
O10	O	1.125710	-0.124207	0.079812
C11	C	0.940539	-0.165670	-0.000007
C12	C	0.835967	-0.135444	-0.000007
C13	C	0.548159	-0.435726	-0.000001
C14	C	0.449895	-0.407303	-0.000004
C15	C	0.427459	-0.247430	-0.000015
C16	C	0.525725	-0.275842	-0.000007
C17	C	0.586068	-0.369990	-0.000002
C18	C	0.563633	-0.210106	-0.000008
C19	C	0.661889	-0.238514	-0.000005
C20	C	0.722237	-0.332657	-0.000003
C21	C	0.684324	-0.398398	0.000001
C22	C	0.503287	-0.115955	-0.000020
C23	C	0.541195	-0.050219	-0.000021
C24	C	0.639455	-0.078629	-0.000012
C25	C	0.699803	-0.172773	-0.000009
C26	C	0.677369	-0.012888	-0.000015
C27	C	0.775625	-0.041296	-0.000013
C28	C	0.798059	-0.201180	-0.000006
C29	C	1.119630	-0.379976	0.000003
C30	C	1.117766	-0.472653	0.000004
C31	C	1.023667	-0.658813	-0.000010
C32	C	1.087519	-0.757273	0.078709
C33	C	1.114392	-0.642349	-0.000004
C34	C	1.047235	-0.709035	-0.078697
C35	C	1.111125	-0.806262	-0.000015
C36	C	1.178285	-0.739608	0.078780
C37	C	1.137970	-0.691338	-0.078696
C38	C	1.201893	-0.789807	0.000042
C39	C	1.116272	-0.547921	0.000004
C40	C	1.109254	-0.900693	-0.000016
C41	C	1.284982	-0.282950	-0.000007
C42	C	1.389552	-0.313173	-0.000013
C43	C	1.105890	-0.068644	-0.000017
C44	C	1.107753	0.024036	-0.000024
N45	N	1.176460	-0.300522	0.248727
N46	N	1.049069	-0.148107	-0.248739
C47	C	0.946383	-0.025293	0.600530
C48	C	0.972154	-0.056113	0.701031
C49	C	1.100240	-0.209318	0.701002
C50	C	1.074477	-0.178513	0.600499
C51	C	0.997548	-0.086499	0.550271
C52	C	1.125641	-0.239719	0.550240
C53	C	1.099883	-0.208913	0.449746
C54	C	1.022960	-0.116902	0.399511
C55	C	0.971790	-0.055693	0.449777
C56	C	1.202574	-0.331730	0.600470
C57	C	1.253739	-0.392936	0.550211
C58	C	1.227976	-0.362133	0.449715
C59	C	1.151053	-0.270122	0.399480
C60	C	1.279146	-0.423342	0.399449
C61	C	1.253388	-0.392536	0.298955
C62	C	1.125295	-0.239316	0.298986
H63	H	0.419035	-0.460840	-0.000005
H64	H	0.806492	0.012231	-0.000004
O65	O	1.163245	-0.656774	-0.158116
C66	C	1.087473	-0.564254	-0.212063
H67	H	1.041869	-0.530229	-0.163270
H68	H	1.120341	-0.516479	-0.244560
H69	H	1.038938	-0.571239	-0.271981
O70	O	1.353920	-0.512736	0.448098
C71	C	1.393537	-0.560167	0.382187
H72	H	1.376246	-0.504097	0.310549
H73	H	1.476197	-0.604780	0.411205
H74	H	1.360205	-0.609976	0.371509
H75	H	0.883734	0.049631	0.559633
O76	O	0.997760	-0.086915	0.301891
C77	C	0.899755	-0.066511	0.268342
H78	H	0.859110	-0.050165	0.326271
H79	H	0.863241	-0.001066	0.201117
H80	H	0.897664	-0.131798	0.250509
H81	H	1.066188	-0.786071	0.145259
H82	H	1.295053	-0.442377	0.258034
O83	O	0.933778	-0.591752	-0.000050
C84	C	0.864565	-0.575959	-0.082272
H85	H	0.892773	-0.641732	-0.109424
H86	H	0.792483	-0.564185	-0.063218
H87	H	0.852472	-0.509192	-0.140659
H88	H	1.316377	-0.467853	0.591118
H89	H	1.233685	-0.751722	0.145404
O90	O	0.981106	-0.694552	-0.158163
C91	C	0.935810	-0.596218	-0.213408
H92	H	0.985276	-0.562477	-0.195938
H93	H	0.922562	-0.590331	-0.292942
H94	H	0.862966	-0.556332	-0.196016
O95	O	0.922435	0.003208	0.749963
C96	C	0.879208	-0.041905	0.808089
H97	H	0.920578	-0.123664	0.823130
H98	H	0.882425	-0.023978	0.878762
H99	H	0.799668	-0.014554	0.769378
H100	H	1.062645	-0.164393	0.258089
H101	H	0.909140	0.019230	0.408880
O102	O	0.856605	-0.292596	-0.000169
C103	C	0.818240	-0.308967	-0.082838
H104	H	0.769859	-0.236678	-0.140634
H105	H	0.880841	-0.355400	-0.110591
H106	H	0.772997	-0.348062	-0.064139
O107	O	1.174911	-0.298684	0.749946
C108	C	1.186694	-0.312741	0.849423
H109	H	1.115332	-0.262763	0.863168
H110	H	1.206958	-0.391248	0.887615
H111	H	1.247320	-0.295582	0.877925
H112	H	0.733460	-0.475065	0.000011
O113	O	1.291877	-0.856825	0.000261
C114	C	1.360627	-0.873628	0.083353
H115	H	1.321333	-0.852925	0.141099
H116	H	1.416268	-0.953558	0.110827
H117	H	1.399871	-0.827992	0.065323
O118	O	1.227451	-0.361682	0.698091
C119	C	1.146646	-0.361825	0.731688
H120	H	1.094998	-0.367710	0.673784
H121	H	1.173260	-0.426149	0.798915
H122	H	1.106341	-0.291734	0.749535
H123	H	0.597296	-0.512393	0.000009
H124	H	0.628221	0.063771	-0.000029
O125	O	0.817696	-0.360403	-0.000041
C126	C	0.862831	-0.457602	-0.000010
H127	H	0.804818	-0.477235	-0.030236
H128	H	0.917380	-0.467267	-0.046358
H129	H	0.902791	-0.506902	0.076585
H130	H	0.378314	-0.170773	-0.000023
H131	H	0.423281	-0.092828	-0.000025
H132	H	0.492051	0.026438	-0.000029
