data_functionalizedCrystal
_audit_creation_method	'MofGen! by Chris Wilmer'
_symmetry_space_group_name_H-M	'P1'
_symmetry_Int_Tables_number	1
_symmetry_cell_setting	triclinic
loop_
_symmetry_equiv_pos_as_xyz
  x,y,z
_cell_length_a	16.120530
_cell_length_b	16.120484
_cell_length_c	10.686551
_cell_angle_alpha	91.292191
_cell_angle_beta	97.503409
_cell_angle_gamma	90.167327
loop_
_atom_site_label
_atom_site_type_symbol
_atom_site_fract_x
_atom_site_fract_y
_atom_site_fract_z
Zn1	Zn	1.299168	-0.355207	0.840318
Zn2	Zn	1.549168	-0.105207	1.090318
Zn3	Zn	1.799168	0.144793	1.340318
Zn4	Zn	2.049168	0.394793	1.590318
Zn5	Zn	1.281321	-0.503929	0.639338
Zn6	Zn	1.531321	-0.253929	0.889338
Zn7	Zn	1.781321	-0.003929	1.139338
Zn8	Zn	2.031321	0.246071	1.389338
Zn9	Zn	1.148285	-0.358860	0.618040
Zn10	Zn	1.398285	-0.108860	0.868040
Zn11	Zn	1.648285	0.141140	1.118040
Zn12	Zn	1.898285	0.391140	1.368040
Zn13	Zn	1.152958	-0.487215	0.839163
Zn14	Zn	1.402958	-0.237215	1.089163
Zn15	Zn	1.652958	0.012785	1.339163
Zn16	Zn	1.902958	0.262785	1.589163
O17	O	1.220433	-0.426303	0.734215
O18	O	1.470433	-0.176303	0.984215
O19	O	1.720433	0.073697	1.234215
O20	O	1.970433	0.323697	1.484215
O21	O	1.413665	-0.380401	0.823054
O22	O	1.663665	-0.130401	1.073054
O23	O	1.913665	0.119599	1.323054
O24	O	2.163665	0.369599	1.573054
O25	O	1.254249	-0.493209	0.459862
O26	O	1.504249	-0.243209	0.709862
O27	O	1.754249	0.006791	0.959862
O28	O	2.004249	0.256791	1.209862
O29	O	1.173813	-0.242418	0.639095
O30	O	1.423813	0.007582	0.889095
O31	O	1.673813	0.257582	1.139095
O32	O	1.923813	0.507582	1.389095
O33	O	1.400554	-0.489666	0.675396
O34	O	1.650554	-0.239666	0.925396
O35	O	1.900554	0.010334	1.175396
O36	O	2.150554	0.260334	1.425396
O37	O	1.284665	-0.239733	0.802402
O38	O	1.534665	0.010267	1.052402
O39	O	1.784665	0.260267	1.302402
O40	O	2.034665	0.510267	1.552402
O41	O	1.156508	-0.386628	0.444214
O42	O	1.406508	-0.136628	0.694214
O43	O	1.656508	0.113372	0.944214
O44	O	1.906508	0.363372	1.194214
O45	O	1.032039	-0.370421	0.637975
O46	O	1.282039	-0.120421	0.887975
O47	O	1.532039	0.129579	1.137975
O48	O	1.782039	0.379579	1.387975
O49	O	1.181778	-0.461180	1.015967
O50	O	1.431778	-0.211180	1.265967
O51	O	1.681778	0.038820	1.515967
O52	O	1.931778	0.288820	1.765967
O53	O	1.035473	-0.464723	0.800433
O54	O	1.285473	-0.214723	1.050433
O55	O	1.535473	0.035277	1.300433
O56	O	1.785473	0.285277	1.550433
O57	O	1.289197	-0.364194	1.016816
O58	O	1.539197	-0.114194	1.266816
O59	O	1.789197	0.135806	1.516816
O60	O	2.039197	0.385806	1.766816
O61	O	1.258781	-0.617670	0.674276
O62	O	1.508781	-0.367670	0.924276
O63	O	1.758781	-0.117670	1.174276
O64	O	2.008781	0.132330	1.424276
O65	O	1.164473	-0.605390	0.821086
O66	O	1.414473	-0.355390	1.071086
O67	O	1.664473	-0.105390	1.321086
O68	O	1.914473	0.144610	1.571086
C69	C	1.003454	-0.416155	0.716769
C70	C	1.253454	-0.166155	0.966769
C71	C	1.503454	0.083845	1.216769
C72	C	1.753454	0.333845	1.466769
C73	C	0.910631	-0.411833	0.709336
C74	C	1.160631	-0.161833	0.959336
C75	C	1.410631	0.088167	1.209336
C76	C	1.660631	0.338167	1.459336
C77	C	0.740682	-0.403921	0.695777
C78	C	0.990682	-0.153921	0.945777
C79	C	1.240682	0.096079	1.195777
C80	C	1.490682	0.346079	1.445777
C81	C	0.701026	-0.448741	0.772749
C82	C	0.951026	-0.198741	1.022749
C83	C	1.201026	0.051259	1.272749
C84	C	1.451026	0.301259	1.522749
C85	C	0.606461	-0.444339	0.765205
C86	C	0.856461	-0.194339	1.015205
C87	C	1.106461	0.055661	1.265205
C88	C	1.356461	0.305661	1.515205
C89	C	0.835256	-0.408322	0.703320
C90	C	1.085256	-0.158322	0.953320
C91	C	1.335256	0.091678	1.203320
C92	C	1.585256	0.341678	1.453320
C93	C	1.210222	-0.641596	0.749896
C94	C	1.460222	-0.391596	0.999896
C95	C	1.710222	-0.141596	1.249896
C96	C	1.960222	0.108404	1.499896
C97	C	1.205932	-0.733701	0.756653
C98	C	1.455932	-0.483701	1.006653
C99	C	1.705932	-0.233701	1.256653
C100	C	1.955932	0.016299	1.506653
C101	C	1.198106	-0.902338	0.769015
C102	C	1.448106	-0.652338	1.019015
C103	C	1.698106	-0.402338	1.269015
C104	C	1.948106	-0.152338	1.519015
C105	C	1.242911	-0.949433	0.699447
C106	C	1.492911	-0.699433	0.949447
C107	C	1.742911	-0.449433	1.199447
C108	C	1.992911	-0.199433	1.449447
C109	C	1.238556	-1.043268	0.706325
C110	C	1.488556	-0.793268	0.956325
C111	C	1.738556	-0.543268	1.206325
C112	C	1.988556	-0.293268	1.456325
C113	C	1.202459	-0.808494	0.762138
C114	C	1.452459	-0.558494	1.012138
C115	C	1.702459	-0.308494	1.262138
C116	C	1.952459	-0.058494	1.512138
C117	C	1.438259	-0.436490	0.751730
C118	C	1.688259	-0.186490	1.001730
C119	C	1.938259	0.063510	1.251730
C120	C	2.188259	0.313510	1.501730
C121	C	1.531083	-0.440832	0.759194
C122	C	1.781083	-0.190832	1.009194
C123	C	2.031083	0.059168	1.259194
C124	C	2.281083	0.309168	1.509194
C125	C	1.238000	-0.410415	1.063476
C126	C	1.488000	-0.160415	1.313476
C127	C	1.738000	0.089585	1.563476
C128	C	1.988000	0.339585	1.813476
C129	C	1.245485	-0.403645	1.203788
C130	C	1.495485	-0.153645	1.453788
C131	C	1.745485	0.096355	1.703788
C132	C	1.995485	0.346355	1.953788
C133	C	1.230708	-0.210168	0.718502
C134	C	1.480708	0.039832	0.968502
C135	C	1.730708	0.289832	1.218502
C136	C	1.980708	0.539832	1.468502
C137	C	1.235087	-0.118065	0.711806
C138	C	1.485087	0.131935	0.961806
C139	C	1.735087	0.381935	1.211806
C140	C	1.985087	0.631935	1.461806
C141	C	1.202986	-0.442071	0.406234
C142	C	1.452986	-0.192071	0.656234
C143	C	1.702986	0.057929	0.906234
C144	C	1.952986	0.307929	1.156234
C145	C	1.195673	-0.448615	0.265919
C146	C	1.445673	-0.198615	0.515919
C147	C	1.695673	0.051385	0.765919
C148	C	1.945673	0.301385	1.015919
H149	H	1.284539	-0.919280	0.634720
H150	H	1.534539	-0.669280	0.884720
H151	H	1.784539	-0.419280	1.134720
H152	H	2.034539	-0.169280	1.384720
H153	H	0.738096	-0.490417	0.844315
H154	H	0.988096	-0.240417	1.094315
H155	H	1.238096	0.009583	1.344315
H156	H	1.488096	0.259583	1.594315
N157	N	1.309572	-0.345778	1.275498
N158	N	1.559572	-0.095778	1.525498
N159	N	1.809572	0.154222	1.775498
N160	N	2.059572	0.404222	2.025498
H161	H	1.349560	-0.378652	1.335761
H162	H	1.599560	-0.128652	1.585761
H163	H	1.849560	0.121348	1.835761
H164	H	2.099560	0.371348	2.085761
H165	H	1.280283	-0.303191	1.324605
H166	H	1.530283	-0.053191	1.574605
H167	H	1.780283	0.196809	1.824605
H168	H	2.030283	0.446809	2.074605
N169	N	1.142963	-0.942270	0.854744
N170	N	1.392963	-0.692270	1.104744
N171	N	1.642963	-0.442270	1.354744
N172	N	1.892963	-0.192270	1.604744
H173	H	1.147630	-1.004614	0.847559
H174	H	1.397630	-0.754614	1.097559
H175	H	1.647630	-0.504614	1.347559
H176	H	1.897630	-0.254614	1.597559
H177	H	1.082961	-0.925420	0.829139
H178	H	1.332961	-0.675420	1.079139
H179	H	1.582961	-0.425420	1.329139
H180	H	1.832961	-0.175420	1.579139
H181	H	1.147301	-0.492298	1.211770
H182	H	1.397301	-0.242298	1.461770
H183	H	1.647301	0.007702	1.711770
H184	H	1.897301	0.257702	1.961770
N185	N	0.691581	-0.348738	0.600961
N186	N	0.941581	-0.098738	0.850961
N187	N	1.191581	0.151262	1.100961
N188	N	1.441581	0.401262	1.350961
H189	H	0.659948	-0.306258	0.646713
H190	H	0.909948	-0.056258	0.896713
H191	H	1.159948	0.193742	1.146713
H192	H	1.409948	0.443742	1.396713
H193	H	0.650718	-0.383614	0.542042
H194	H	0.900718	-0.133614	0.792042
H195	H	1.150718	0.116386	1.042042
H196	H	1.400718	0.366386	1.292042
