data_functionalizedCrystal
_audit_creation_method	'MofGen! by Chris Wilmer'
_symmetry_space_group_name_H-M	'P1'
_symmetry_Int_Tables_number	1
_symmetry_cell_setting	triclinic
loop_
_symmetry_equiv_pos_as_xyz
  x,y,z
_cell_length_a	16.109302
_cell_length_b	8.559649
_cell_length_c	14.586319
_cell_angle_alpha	89.997976
_cell_angle_beta	89.994552
_cell_angle_gamma	76.620223
loop_
_atom_site_label
_atom_site_type_symbol
_atom_site_fract_x
_atom_site_fract_y
_atom_site_fract_z
O1	O	1.090045	0.205395	-0.076277
O2	O	0.846355	0.230954	-0.076269
O3	O	0.989669	-0.014439	-0.076272
O4	O	0.946730	0.450787	-0.076273
O5	O	0.989660	-0.014442	0.076208
O6	O	0.846346	0.230950	0.076212
O7	O	1.090036	0.205391	0.076204
Cu8	Cu	0.968190	0.218170	0.090131
Cu9	Cu	0.968201	0.218175	-0.090195
O10	O	0.946722	0.450784	0.076208
C11	C	0.815441	0.229917	-0.000027
C12	C	0.723344	0.226812	-0.000025
C13	C	0.511456	0.219631	0.083084
C14	C	0.424923	0.216697	0.083080
C15	C	0.424942	0.216709	-0.083163
C16	C	0.511475	0.219632	-0.083158
C17	C	0.554728	0.221101	-0.000033
C18	C	0.381662	0.215244	-0.000040
C19	C	0.287839	0.212063	-0.000044
C20	C	0.648558	0.224280	-0.000028
C21	C	0.992919	-0.073972	-0.000034
C22	C	1.002605	-0.251357	-0.000039
C23	C	1.120949	0.206428	-0.000039
C24	C	1.213047	0.209533	-0.000048
C25	C	0.943472	0.510317	-0.000033
C26	C	0.933786	0.687702	-0.000033
N27	N	0.968189	0.218166	0.216963
N28	N	0.968209	0.218166	-0.217027
C29	C	1.031665	0.109543	0.451967
C30	C	1.031668	0.109539	0.547949
C31	C	0.904727	0.326795	0.547961
C32	C	0.904721	0.326790	0.451982
C33	C	0.968195	0.218166	0.403987
C34	C	0.968203	0.218167	0.595948
C35	C	0.968206	0.218163	0.700015
C36	C	0.968192	0.218166	0.299914
H37	H	0.546670	0.220827	0.150770
H38	H	0.546709	0.220824	-0.150846
C39	C	0.834377	-0.102568	-0.078428
C40	C	0.844240	-0.199547	-0.000038
H41	H	0.779091	-0.032961	-0.078432
H42	H	0.876247	-0.040576	-0.078424
H43	H	0.841090	-0.168401	-0.131592
H44	H	0.837533	-0.133714	0.053126
H45	H	0.802357	-0.261544	-0.000034
C46	C	1.084744	-0.523914	-0.000037
C47	C	1.092155	-0.364119	-0.000042
H48	H	1.140029	-0.593525	-0.000045
H49	H	1.054598	-0.543296	0.053137
H50	H	1.054592	-0.543296	-0.053210
H51	H	1.122302	-0.344734	0.053135
H52	H	1.122314	-0.344729	-0.053222
H53	H	1.083349	0.021092	0.412893
C54	C	0.309528	0.350725	-0.179603
C55	C	0.377391	0.215118	-0.174531
H56	H	0.280177	0.349749	-0.236014
H57	H	0.271377	0.349419	-0.130108
H58	H	0.331012	0.444976	-0.176142
H59	H	0.355907	0.120867	-0.177985
H60	H	0.415549	0.216410	-0.224040
C61	C	1.157148	-0.105190	0.538289
C62	C	1.101440	-0.009856	0.600688
H63	H	1.200226	-0.178896	0.570850
H64	H	1.126214	-0.162688	0.500862
H65	H	1.182796	-0.038637	0.500846
H66	H	1.075786	-0.076409	0.638127
H67	H	1.132378	0.047646	0.638131
C68	C	0.754818	0.420534	0.577546
C69	C	0.834962	0.446191	0.600724
H70	H	0.711750	0.494242	0.610124
H71	H	0.745734	0.436087	0.513525
H72	H	0.752616	0.313878	0.593284
H73	H	0.837167	0.552844	0.584980
H74	H	0.844049	0.430652	0.664759
H75	H	0.853032	0.415244	0.412914
H76	H	0.389694	0.215501	0.150762
