data_functionalizedCrystal
_audit_creation_method	'MofGen! by Chris Wilmer'
_symmetry_space_group_name_H-M	'P1'
_symmetry_Int_Tables_number	1
_symmetry_cell_setting	triclinic
loop_
_symmetry_equiv_pos_as_xyz
  x,y,z
_cell_length_a	17.038272
_cell_length_b	14.044220
_cell_length_c	15.500361
_cell_angle_alpha	86.905595
_cell_angle_beta	86.961141
_cell_angle_gamma	87.849783
loop_
_atom_site_label
_atom_site_type_symbol
_atom_site_fract_x
_atom_site_fract_y
_atom_site_fract_z
O1	O	-1.048513	0.211123	-0.071831
O2	O	-0.548513	0.711123	0.428169
O3	O	-0.820651	0.207837	-0.071856
O4	O	-0.320651	0.707837	0.428144
O5	O	-0.931162	0.071219	-0.071840
O6	O	-0.431162	0.571219	0.428160
O7	O	-0.938002	0.347741	-0.071847
O8	O	-0.438002	0.847741	0.428153
O9	O	-0.937832	0.062955	0.072046
O10	O	-0.437832	0.562955	0.572046
O11	O	-0.827321	0.199573	0.072030
O12	O	-0.327321	0.699573	0.572030
O13	O	-1.055183	0.202859	0.072056
O14	O	-0.555183	0.702859	0.572056
Cu15	Cu	-0.941861	0.200461	0.085181
Cu16	Cu	-0.441861	0.700461	0.585181
Cu17	Cu	-0.933973	0.210235	-0.084982
Cu18	Cu	-0.433973	0.710235	0.415018
O19	O	-0.944672	0.339477	0.072039
O20	O	-0.444672	0.839477	0.572039
C21	C	-0.794649	0.200716	0.000084
C22	C	-0.294649	0.700716	0.500084
C23	C	-0.707231	0.191797	0.000074
C24	C	-0.207231	0.691797	0.500074
C25	C	-0.931503	0.031532	0.000102
C26	C	-0.431503	0.531532	0.500102
C27	C	-0.922571	-0.074414	0.000098
C28	C	-0.422571	0.425586	0.500098
C29	C	-1.081185	0.209980	0.000114
C30	C	-0.581185	0.709980	0.500114
C31	C	-1.168602	0.218899	0.000118
C32	C	-0.668602	0.718899	0.500118
C33	C	-0.662846	0.273686	0.000072
C34	C	-0.162846	0.773686	0.500072
C35	C	-0.580709	0.265299	0.000085
C36	C	-0.080709	0.765299	0.500085
C37	C	-0.542959	0.175023	0.000092
C38	C	-0.042959	0.675023	0.500092
C39	C	-0.587351	0.093129	0.000096
C40	C	-0.087351	0.593129	0.500096
C41	C	-0.669486	0.101516	0.000090
C42	C	-0.169486	0.601516	0.500090
C43	C	-0.295129	0.145392	0.000116
C44	C	0.204871	0.645392	0.500116
C45	C	-0.212988	0.137011	0.000119
C46	C	0.287012	0.637011	0.500119
C47	C	-0.206352	0.309182	0.000110
C48	C	0.293648	0.809182	0.500110
C49	C	-0.288489	0.317562	0.000098
C50	C	0.211511	0.817562	0.500098
C51	C	-0.332874	0.235667	0.000107
C52	C	0.167126	0.735667	0.500107
C53	C	-0.459002	0.166448	0.000102
C54	C	0.040998	0.666448	0.500102
C55	C	-0.416829	0.244242	0.000103
C56	C	0.083171	0.744242	0.500103
C57	C	-0.944331	0.379165	0.000095
C58	C	-0.444331	0.879165	0.500095
C59	C	-0.953263	0.485111	0.000093
C60	C	-0.453263	0.985111	0.500093
N61	N	-0.947415	0.193587	0.204864
N62	N	-0.447415	0.693587	0.704864
C63	C	-0.969591	0.679088	0.000099
C64	C	-0.469591	1.179088	0.500099
C65	C	-0.906246	0.731614	0.000093
C66	C	-0.406246	1.231614	0.500093
C67	C	-0.915331	0.839550	0.000096
C68	C	-0.415331	1.339550	0.500096
C69	C	-0.960507	0.571143	0.000096
C70	C	-0.460507	1.071143	0.500096
N71	N	-0.928424	0.217102	-0.204665
N72	N	-0.428424	0.717102	0.295335
C73	C	-0.900577	0.251453	0.250155
C74	C	-0.400577	0.751453	0.750155
C75	C	-0.904800	0.246252	0.340727
C76	C	-0.404800	0.746252	0.840727
C77	C	-0.955857	0.183180	0.386006
C78	C	-0.455857	0.683180	0.886006
C79	C	-1.002701	0.125313	0.340708
C80	C	-0.502701	0.625313	0.840708
C81	C	-0.998482	0.130519	0.250138
C82	C	-0.498482	0.630519	0.750138
C83	C	-0.971049	0.164440	0.659468
C84	C	-0.471049	0.664440	1.159468
C85	C	-0.975263	0.159236	0.750044
C86	C	-0.475263	0.659236	1.250044
C87	C	-0.877362	0.280177	0.750056
C88	C	-0.377362	0.780177	1.250056
C89	C	-0.873144	0.285374	0.659485
C90	C	-0.373144	0.785374	1.159485
C91	C	-0.919991	0.227510	0.614195
C92	C	-0.419991	0.727510	1.114195
C93	C	-0.960173	0.177861	0.478584
C94	C	-0.460173	0.677861	0.978584
C95	C	-0.915679	0.232835	0.521618
C96	C	-0.415679	0.732835	1.021618
H97	H	-0.693575	0.347198	0.000066
H98	H	-0.193575	0.847198	0.500066
H99	H	-1.030642	0.715180	0.000109
H100	H	-0.530642	1.215180	0.500109
Cl101	Cl	-0.350917	0.042437	0.000126
Cl102	Cl	0.149083	0.542437	0.500126
H103	H	-0.845191	0.695520	0.000086
H104	H	-0.345191	1.195520	0.500086
Cl105	Cl	-0.539894	-0.020362	0.000111
Cl106	Cl	-0.039894	0.479638	0.500111
Cl107	Cl	-0.836383	0.330742	0.193243
Cl108	Cl	-0.336383	0.830742	0.693243
Cl109	Cl	-0.725286	-0.001434	0.000095
Cl110	Cl	-0.225286	0.498566	0.500095
Cl111	Cl	-0.851497	0.312126	0.464696
Cl112	Cl	-0.351497	0.812126	0.964696
Cl113	Cl	-0.818476	0.352920	0.806995
Cl114	Cl	-0.318476	0.852920	1.306995
Cl115	Cl	-1.029937	0.091695	0.602539
Cl116	Cl	-0.529937	0.591695	1.102539
H117	H	-0.866661	0.293371	0.377602
H118	H	-0.366661	0.793371	0.877602
Cl119	Cl	-1.057370	0.057774	0.193202
Cl120	Cl	-0.557370	0.557774	0.693202
H121	H	-1.016842	0.107872	0.786906
H122	H	-0.516842	0.607872	1.286906
H123	H	-0.831569	0.336731	0.622620
H124	H	-0.331569	0.836731	1.122620
Cl125	Cl	-0.335940	0.431056	0.000083
Cl126	Cl	0.164060	0.931056	0.500083
H127	H	-0.447569	0.317744	0.000102
H128	H	0.052431	0.817744	0.500102
Cl129	Cl	-0.524913	0.368250	0.000078
Cl130	Cl	-0.024913	0.868250	0.500078
Cl131	Cl	-0.411538	0.052962	0.000107
Cl132	Cl	0.088462	0.552962	0.500107
H133	H	-1.044277	0.073962	0.377580
H134	H	-0.544277	0.573962	0.877580
H135	H	-1.001743	0.126505	0.515458
H136	H	-0.501743	0.626505	1.015458
H137	H	-0.170205	0.375856	0.000104
H138	H	0.329795	0.875856	0.500104
H139	H	-0.182255	0.063494	0.000124
H140	H	0.317745	0.563494	0.500124
