data_functionalizedCrystal
_audit_creation_method	'MofGen! by Chris Wilmer'
_symmetry_space_group_name_H-M	'P1'
_symmetry_Int_Tables_number	1
_symmetry_cell_setting	triclinic
loop_
_symmetry_equiv_pos_as_xyz
  x,y,z
_cell_length_a	14.971486
_cell_length_b	10.723024
_cell_length_c	14.048226
_cell_angle_alpha	89.994758
_cell_angle_beta	89.998499
_cell_angle_gamma	84.040999
loop_
_atom_site_label
_atom_site_type_symbol
_atom_site_fract_x
_atom_site_fract_y
_atom_site_fract_z
O1	O	1.187820	0.162616	-0.079049
O2	O	1.687820	0.662616	0.420951
O3	O	0.927525	0.182090	-0.079074
O4	O	1.427525	0.682090	0.420926
O5	O	1.063676	-0.009286	-0.079057
O6	O	1.563676	0.490714	0.420943
O7	O	1.051668	0.353992	-0.079066
O8	O	1.551668	0.853992	0.420934
O9	O	1.063660	-0.009297	0.079264
O10	O	1.563660	0.490703	0.579264
O11	O	0.927508	0.182079	0.079247
O12	O	1.427508	0.682079	0.579247
O13	O	1.187804	0.162605	0.079273
O14	O	1.687804	0.662605	0.579273
Zn15	Zn	1.057653	0.172340	0.104397
Zn16	Zn	1.557653	0.672340	0.604397
Zn17	Zn	1.057675	0.172355	-0.104198
Zn18	Zn	1.557675	0.672355	0.395802
O19	O	1.051652	0.353981	0.079256
O20	O	1.551652	0.853981	0.579256
C21	C	0.894187	0.181213	0.000083
C22	C	1.394187	0.681213	0.500083
C23	C	0.794876	0.178604	0.000073
C24	C	1.294876	0.678604	0.500073
C25	C	0.738254	0.291032	0.000072
C26	C	1.238254	0.791032	0.500072
C27	C	0.644941	0.288572	0.000086
C28	C	1.144941	0.788572	0.500086
C29	C	0.608252	0.173683	0.000095
C30	C	1.108252	0.673683	0.500095
C31	C	0.664881	0.061246	0.000099
C32	C	1.164881	0.561246	0.500099
C33	C	0.758192	0.063707	0.000092
C34	C	1.258192	0.563707	0.500092
C35	C	0.470391	0.056125	0.000112
C36	C	0.970391	0.556125	0.500112
C37	C	0.377074	0.053663	0.000118
C38	C	0.877074	0.553663	0.500118
C39	C	0.357141	0.280990	0.000107
C40	C	0.857141	0.780990	0.500107
C41	C	0.450452	0.283451	0.000100
C42	C	0.950452	0.783451	0.500100
C43	C	0.507074	0.171013	0.000102
C44	C	1.007074	0.671013	0.500102
C45	C	1.062794	-0.055782	0.000102
C46	C	1.562794	0.444218	0.500102
C47	C	1.060180	-0.194309	0.000099
C48	C	1.560180	0.305691	0.500099
C49	C	1.136363	-0.270088	0.000105
C50	C	1.636363	0.229912	0.500105
C51	C	1.133663	-0.413263	0.000101
C52	C	1.633663	0.086737	0.500101
C53	C	1.221141	0.163482	0.000113
C54	C	1.721141	0.663482	0.500113
C55	C	1.320452	0.166091	0.000117
C56	C	1.820452	0.666091	0.500117
C57	C	1.052534	0.400477	0.000094
C58	C	1.552534	0.900477	0.500094
C59	C	1.055148	0.539004	0.000092
C60	C	1.555148	1.039004	0.500092
N61	N	1.057645	0.172329	0.246758
N62	N	1.557645	0.672329	0.746758
N63	N	1.057690	0.172356	-0.246559
N64	N	1.557690	0.672356	0.253441
C65	C	1.117952	0.087623	0.296583
C66	C	1.617952	0.587623	0.796583
C67	C	1.117958	0.087622	0.396241
C68	C	1.617958	0.587622	0.896241
C69	C	1.057660	0.172335	0.446071
C70	C	1.557660	0.672335	0.946071
C71	C	0.997347	0.257045	0.396238
C72	C	1.497347	0.757045	0.896238
C73	C	0.997337	0.257039	0.296583
C74	C	1.497337	0.757039	0.796583
C75	C	0.997373	0.257054	0.603953
C76	C	1.497373	0.757054	1.103953
C77	C	0.997383	0.257062	0.703615
C78	C	1.497383	0.757062	1.203615
C79	C	1.117994	0.087638	0.703611
C80	C	1.617994	0.587638	1.203611
C81	C	1.117984	0.087631	0.603955
C82	C	1.617984	0.587631	1.103955
C83	C	1.057671	0.172344	0.554129
C84	C	1.557671	0.672344	1.054129
H85	H	0.480320	0.377003	0.000084
H86	H	0.980320	0.877003	0.500084
Br87	Br	0.280297	0.433584	0.000103
Br88	Br	0.780297	0.933584	0.500103
H89	H	1.167087	0.018659	0.563383
H90	H	1.667087	0.518659	1.063383
Br91	Br	0.915513	0.372017	0.536335
Br92	Br	1.415513	0.872017	1.036335
H93	H	0.948247	0.326015	0.436816
H94	H	1.448247	0.826015	0.936816
H95	H	1.167102	0.018662	0.744185
H96	H	1.667102	0.518662	1.244185
Br97	Br	0.946435	-0.352483	0.000094
Br98	Br	1.446435	0.147517	0.500094
H99	H	1.203586	-0.228968	0.000117
H100	H	1.703586	0.271032	0.500117
H101	H	0.948228	0.326013	0.256016
H102	H	1.448228	0.826013	0.756016
H103	H	1.198882	-0.478377	0.000111
H104	H	1.698882	0.021623	0.500111
H105	H	0.992957	-0.235428	0.000086
H106	H	1.492957	0.264572	0.500086
H107	H	0.804293	-0.027843	0.000092
H108	H	1.304293	0.472157	0.500092
H109	H	1.167057	0.018646	0.256018
H110	H	1.667057	0.518646	0.756018
H111	H	0.635002	-0.032298	0.000120
H112	H	1.135002	0.467702	0.500120
Br113	Br	1.199802	-0.027342	0.463864
Br114	Br	1.699802	0.472658	0.963864
H115	H	0.516492	-0.035434	0.000116
H116	H	1.016492	0.464566	0.500116
Br117	Br	0.327281	-0.102259	0.000162
Br118	Br	0.827281	0.397741	0.500162
Br119	Br	0.788037	0.446961	0.000051
Br120	Br	1.288037	0.946961	0.500051
Br121	Br	0.568100	0.441160	0.000082
Br122	Br	1.068100	0.941160	0.500082
H123	H	0.948281	0.326043	0.744182
H124	H	1.448281	0.826043	1.244182
