data_functionalizedCrystal
_audit_creation_method	'MofGen! by Chris Wilmer'
_symmetry_space_group_name_H-M	'P1'
_symmetry_Int_Tables_number	1
_symmetry_cell_setting	triclinic
loop_
_symmetry_equiv_pos_as_xyz
  x,y,z
_cell_length_a	18.215407
_cell_length_b	29.839131
_cell_length_c	18.215399
_cell_angle_alpha	89.969127
_cell_angle_beta	89.980167
_cell_angle_gamma	90.041868
loop_
_atom_site_label
_atom_site_type_symbol
_atom_site_fract_x
_atom_site_fract_y
_atom_site_fract_z
Zn1	Zn	1.124987	-0.178853	-0.416101
Zn2	Zn	1.458321	0.154481	-0.082768
Zn3	Zn	1.791654	0.487814	0.250566
Zn4	Zn	1.124860	-0.253982	-0.293028
Zn5	Zn	1.458194	0.079351	0.040305
Zn6	Zn	1.791527	0.412685	0.373638
Zn7	Zn	1.001920	-0.178867	-0.293048
Zn8	Zn	1.335253	0.154466	0.040285
Zn9	Zn	1.668587	0.487799	0.373618
Zn10	Zn	1.001850	-0.253957	-0.416053
Zn11	Zn	1.335184	0.079376	-0.082720
Zn12	Zn	1.668517	0.412710	0.250613
O13	O	1.063404	-0.216415	-0.354558
O14	O	1.396738	0.116919	-0.021224
O15	O	1.730071	0.450252	0.312109
O16	O	1.227955	-0.188823	-0.399787
O17	O	1.561288	0.144510	-0.066453
O18	O	1.894621	0.477844	0.266880
O19	O	1.108528	-0.244034	-0.190047
O20	O	1.441861	0.089299	0.143287
O21	O	1.775195	0.422632	0.476620
O22	O	1.018327	-0.115998	-0.309400
O23	O	1.351661	0.217335	0.023934
O24	O	1.684994	0.550668	0.357267
O25	O	1.227861	-0.244020	-0.309366
O26	O	1.561195	0.089313	0.023968
O27	O	1.894528	0.422647	0.357301
O28	O	1.108745	-0.115987	-0.399806
O29	O	1.442078	0.217346	-0.066473
O30	O	1.775411	0.550679	0.266861
O31	O	1.018204	-0.188848	-0.190061
O32	O	1.351538	0.144485	0.143272
O33	O	1.684871	0.477819	0.476605
O34	O	0.898926	-0.188824	-0.309354
O35	O	1.232260	0.144510	0.023980
O36	O	1.565593	0.477843	0.357313
O37	O	1.018209	-0.243978	-0.519044
O38	O	1.351542	0.089356	-0.185711
O39	O	1.684875	0.422689	0.147623
O40	O	0.898875	-0.243992	-0.399725
O41	O	1.232209	0.089342	-0.066391
O42	O	1.565542	0.422675	0.266942
O43	O	1.108677	-0.188799	-0.519079
O44	O	1.442010	0.144535	-0.185746
O45	O	1.775344	0.477868	0.147588
O46	O	1.108460	-0.316846	-0.309320
O47	O	1.441794	0.016488	0.024014
O48	O	1.775127	0.349821	0.357347
O49	O	1.018086	-0.316827	-0.399705
O50	O	1.351419	0.016506	-0.066372
O51	O	1.684752	0.349839	0.266961
C52	C	0.872198	-0.216407	-0.354537
C53	C	1.205532	0.116926	-0.021203
C54	C	1.538865	0.450260	0.312130
C55	C	0.790399	-0.216414	-0.354545
C56	C	1.123733	0.116919	-0.021212
C57	C	1.457066	0.450252	0.312122
C58	C	0.602198	-0.245186	-0.401542
C59	C	0.935531	0.088148	-0.068209
C60	C	1.268865	0.421481	0.265124
C61	C	0.525339	-0.245187	-0.401551
C62	C	0.858673	0.088146	-0.068218
C63	C	1.192006	0.421480	0.265115
C64	C	0.525363	-0.187652	-0.307589
C65	C	0.858696	0.145682	0.025744
C66	C	1.192030	0.479015	0.359077
C67	C	0.602220	-0.187648	-0.307584
C68	C	0.935554	0.145685	0.025749
C69	C	1.268887	0.479018	0.359082
C70	C	0.640636	-0.216418	-0.354560
C71	C	0.973969	0.116915	-0.021226
C72	C	1.307303	0.450249	0.312107
C73	C	0.486920	-0.216423	-0.354574
C74	C	0.820253	0.116911	-0.021240
C75	C	1.153586	0.450244	0.312093
C76	C	0.403586	-0.216424	-0.354583
C77	C	0.736919	0.116909	-0.021250
C78	C	1.070253	0.450243	0.312083
C79	C	0.723975	-0.216416	-0.354551
C80	C	1.057308	0.116917	-0.021218
C81	C	1.390641	0.450251	0.312115
C82	C	1.063272	-0.333137	-0.354521
C83	C	1.396605	0.000196	-0.021188
C84	C	1.729938	0.333529	0.312145
C85	C	1.063282	-0.383072	-0.354530
C86	C	1.396615	-0.049738	-0.021197
C87	C	1.729949	0.283595	0.312137
C88	C	1.110548	-0.692712	-0.307563
C89	C	1.443882	-0.359379	0.025771
C90	C	1.777215	-0.026045	0.359104
C91	C	1.110639	-0.880385	-0.307591
C92	C	1.443972	-0.547052	0.025742
C93	C	1.777306	-0.213718	0.359076
O94	O	1.150721	-0.904647	-0.267629
O95	O	1.484054	-0.571314	0.065704
O96	O	1.817388	-0.237980	0.399037
N97	N	1.063557	-0.903857	-0.354613
N98	N	1.396890	-0.570523	-0.021280
N99	N	1.730224	-0.237190	0.312054
C100	C	1.016452	-0.880407	-0.401635
C101	C	1.349786	-0.547074	-0.068302
C102	C	1.683119	-0.213741	0.265032
O103	O	0.976414	-0.904678	-0.441636
O104	O	1.309747	-0.571344	-0.108303
O105	O	1.643080	-0.238011	0.225031
C106	C	1.016366	-0.692735	-0.401609
C107	C	1.349699	-0.359402	-0.068276
C108	C	1.683033	-0.026068	0.265057
C109	C	1.063446	-0.669266	-0.354579
C110	C	1.396779	-0.335932	-0.021246
C111	C	1.730112	-0.002599	0.312088
C112	C	1.157625	-0.669243	-0.260536
C113	C	1.490958	-0.335909	0.072797
C114	C	1.824291	-0.002576	0.406130
C115	C	1.157599	-0.622327	-0.260527
C116	C	1.490932	-0.288994	0.072806
C117	C	1.824265	0.044339	0.406140
C118	C	1.110496	-0.598881	-0.307544
C119	C	1.443830	-0.265548	0.025790
C120	C	1.777163	0.067786	0.359123
C121	C	1.063420	-0.622350	-0.354570
C122	C	1.396753	-0.289017	-0.021236
C123	C	1.730086	0.044316	0.312097
C124	C	0.969265	-0.669287	-0.448634
C125	C	1.302599	-0.335953	-0.115301
C126	C	1.635932	-0.002620	0.218032
C127	C	0.969249	-0.622365	-0.448625
C128	C	1.302583	-0.289032	-0.115292
C129	C	1.635916	0.044301	0.218042
C130	C	1.016329	-0.598896	-0.401595
C131	C	1.349662	-0.265563	-0.068261
C132	C	1.682996	0.067770	0.265072
C133	C	1.016291	-0.551989	-0.401577
C134	C	1.349624	-0.218655	-0.068243
C135	C	1.682958	0.114678	0.265090
N136	N	1.063373	-0.528517	-0.354554
N137	N	1.396706	-0.195184	-0.021221
N138	N	1.730040	0.138150	0.312112
C139	C	1.110476	-0.551963	-0.307538
C140	C	1.443809	-0.218630	0.025795
C141	C	1.777142	0.114703	0.359129
C142	C	1.016500	-0.978938	-0.401644
C143	C	1.349834	-0.645605	-0.068311
C144	C	1.683167	-0.312271	0.265023
C145	C	1.016521	-1.025856	-0.401649
C146	C	1.349854	-0.692522	-0.068316
C147	C	1.683187	-0.359189	0.265017
C148	C	1.110709	-1.025830	-0.307606
C149	C	1.444042	-0.692497	0.025727
C150	C	1.777375	-0.359163	0.359060
C151	C	1.110684	-0.978911	-0.307598
C152	C	1.444017	-0.645578	0.025736
C153	C	1.777350	-0.312245	0.359069
C154	C	1.063582	-0.955466	-0.354622
C155	C	1.396916	-0.622133	-0.021288
C156	C	1.730249	-0.288799	0.312045
C157	C	1.110417	-0.453437	-0.307521
C158	C	1.443750	-0.120104	0.025812
C159	C	1.777084	0.213229	0.359146
C160	C	1.110385	-0.406518	-0.307514
C161	C	1.443718	-0.073184	0.025820
C162	C	1.777051	0.260149	0.359153
C163	C	1.016200	-0.406547	-0.401559
C164	C	1.349533	-0.073214	-0.068226
C165	C	1.682867	0.260119	0.265108
C166	C	1.016229	-0.453463	-0.401564
C167	C	1.349563	-0.120130	-0.068231
C168	C	1.682896	0.213204	0.265103
C169	C	1.063344	-0.476907	-0.354543
C170	C	1.396677	-0.143573	-0.021209
C171	C	1.730010	0.189760	0.312124
O172	O	0.976236	-0.527698	-0.441523
O173	O	1.309569	-0.194364	-0.108190
O174	O	1.642903	0.138969	0.225144
O175	O	1.150520	-0.527685	-0.267554
O176	O	1.483853	-0.194351	0.065779
O177	O	1.817187	0.138982	0.399112
C178	C	1.110574	-0.739627	-0.307572
C179	C	1.443908	-0.406294	0.025761
C180	C	1.777241	-0.072961	0.359095
C181	C	1.063498	-0.763097	-0.354598
C182	C	1.396831	-0.429763	-0.021265
C183	C	1.730164	-0.096430	0.312069
C184	C	1.016395	-0.739651	-0.401615
C185	C	1.349728	-0.406317	-0.068281
C186	C	1.683062	-0.072984	0.265052
C187	C	1.063518	-0.810015	-0.354604
C188	C	1.396852	-0.476681	-0.021270
C189	C	1.730185	-0.143348	0.312063
C190	C	1.110621	-0.833461	-0.307587
C191	C	1.443954	-0.500127	0.025746
C192	C	1.777288	-0.166794	0.359080
C193	C	1.157703	-0.809989	-0.260565
C194	C	1.491036	-0.476656	0.072768
C195	C	1.824370	-0.143322	0.406102
C196	C	1.157677	-0.763074	-0.260555
C197	C	1.491010	-0.429740	0.072778
C198	C	1.824344	-0.096407	0.406111
C199	C	0.969313	-0.763122	-0.448637
C200	C	1.302646	-0.429789	-0.115303
C201	C	1.635980	-0.096456	0.218030
C202	C	0.969342	-0.810038	-0.448642
C203	C	1.302676	-0.476704	-0.115308
C204	C	1.636009	-0.143371	0.218025
C205	C	1.016445	-0.833484	-0.401625
C206	C	1.349778	-0.500151	-0.068292
C207	C	1.683112	-0.166817	0.265041
C208	C	1.255357	-0.216423	-0.354579
C209	C	1.588691	0.116911	-0.021246
C210	C	1.922024	0.450244	0.312087
C211	C	1.337156	-0.216426	-0.354589
C212	C	1.670490	0.116907	-0.021255
C213	C	2.003823	0.450241	0.312078
C214	C	1.063449	-0.216384	-0.546511
C215	C	1.396783	0.116950	-0.213177
C216	C	1.730116	0.450283	0.120156
C217	C	1.063468	-0.216370	-0.628310
C218	C	1.396802	0.116963	-0.294976
C219	C	1.730135	0.450296	0.038357
C220	C	1.063558	-0.099236	-0.354610
C221	C	1.396891	0.234097	-0.021277
C222	C	1.730225	0.567430	0.312056
C223	C	1.063623	-0.049302	-0.354633
C224	C	1.396957	0.284032	-0.021300
C225	C	1.730290	0.617365	0.312034
C226	C	1.110592	-0.187612	-0.816523
C227	C	1.443926	0.145721	-0.483190
C228	C	1.777259	0.479055	-0.149856
C229	C	1.110601	-0.187599	-0.893382
C230	C	1.443934	0.145734	-0.560049
C231	C	1.777268	0.479068	-0.226715
C232	C	1.016397	-0.245059	-0.893334
C233	C	1.349730	0.088274	-0.560001
C234	C	1.683063	0.421607	-0.226667
C235	C	1.016385	-0.245070	-0.816477
C236	C	1.349718	0.088263	-0.483143
C237	C	1.683051	0.421597	-0.149810
C238	C	1.063487	-0.216347	-0.778073
C239	C	1.396820	0.116986	-0.444740
C240	C	1.730153	0.450320	-0.111407
C241	C	1.063507	-0.216323	-0.931789
C242	C	1.396841	0.117010	-0.598456
C243	C	1.730174	0.450343	-0.265123
C244	C	1.063517	-0.216309	-1.015123
C245	C	1.396850	0.117024	-0.681790
C246	C	1.730183	0.450357	-0.348456
C247	C	1.063477	-0.216360	-0.694734
C248	C	1.396810	0.116973	-0.361401
C249	C	1.730143	0.450307	-0.028068
C250	C	1.063402	-0.216413	-0.163351
C251	C	1.396736	0.116920	0.169982
C252	C	1.730069	0.450254	0.503315
C253	C	1.063526	-0.216300	-0.081553
C254	C	1.396859	0.117034	0.251780
C255	C	1.730192	0.450367	0.585114
H256	H	0.494047	-0.268612	-0.439810
H257	H	0.827380	0.064721	-0.106477
H258	H	1.160713	0.398055	0.226856
O259	O	0.483930	-0.156637	-0.256900
O260	O	0.817264	0.176696	0.076434
O261	O	1.150597	0.510029	0.409767
H262	H	0.424028	-0.161479	-0.264783
H263	H	0.757362	0.171854	0.068551
H264	H	1.090695	0.505187	0.401884
O265	O	0.965553	-0.276055	-0.775009
O266	O	1.298886	0.057278	-0.441675
O267	O	1.632219	0.390611	-0.108342
H268	H	0.978118	-0.311317	-0.789732
H269	H	1.311451	0.022017	-0.456399
H270	H	1.644784	0.355350	-0.123065
O271	O	1.161411	-0.156609	-0.934856
O272	O	1.494745	0.176724	-0.601522
O273	O	1.828078	0.510058	-0.268189
H274	H	1.194164	-0.136642	-0.895236
H275	H	1.527497	0.196691	-0.561903
H276	H	1.860831	0.530025	-0.228570
H277	H	0.930957	-0.744036	-0.486924
H278	H	1.264291	-0.410703	-0.153591
H279	H	1.597624	-0.077369	0.179742
O280	O	0.965734	-1.051169	-0.452365
O281	O	1.299068	-0.717836	-0.119032
O282	O	1.632401	-0.384502	0.214302
H283	H	0.978324	-1.042136	-0.510134
H284	H	1.311657	-0.708803	-0.176801
H285	H	1.644990	-0.375469	0.156533
O286	O	1.208438	-0.694521	-0.209819
O287	O	1.541771	-0.361188	0.123515
O288	O	1.875104	-0.027855	0.456848
H289	H	1.245883	-0.715858	-0.242788
H290	H	1.579216	-0.382524	0.090546
H291	H	1.912549	-0.049191	0.423879
H292	H	0.633517	-0.164220	-0.269325
H293	H	0.966851	0.169114	0.064008
H294	H	1.300184	0.502447	0.397341
O295	O	1.208523	-0.835281	-0.209867
O296	O	1.541857	-0.501948	0.123466
O297	O	1.875190	-0.168614	0.456800
H298	H	1.200634	-0.871848	-0.217789
H299	H	1.533968	-0.538514	0.115544
H300	H	1.867301	-0.205181	0.448877
O301	O	1.161171	-0.381203	-0.256792
O302	O	1.494504	-0.047870	0.076541
O303	O	1.827837	0.285463	0.409875
H304	H	1.193934	-0.405392	-0.224108
H305	H	1.527267	-0.072059	0.109225
H306	H	1.860600	0.261274	0.442558
H307	H	1.148784	-0.472520	-0.269233
H308	H	1.482117	-0.139186	0.064100
H309	H	1.815450	0.194147	0.397433
O310	O	0.965596	-0.276040	-0.934754
O311	O	1.298929	0.057294	-0.601420
O312	O	1.632263	0.390627	-0.268087
H313	H	0.973521	-0.271208	-0.994658
H314	H	1.306854	0.062126	-0.661324
H315	H	1.640188	0.395459	-0.327991
O316	O	0.965401	-0.381251	-0.452267
O317	O	1.298735	-0.047917	-0.118934
O318	O	1.632068	0.285416	0.214399
H319	H	0.907651	-0.390290	-0.439595
H320	H	1.240985	-0.056957	-0.106262
H321	H	1.574318	0.276376	0.227072
O322	O	1.208389	-0.597016	-0.209812
O323	O	1.541722	-0.263683	0.123521
O324	O	1.875055	0.069651	0.456854
H325	H	1.241149	-0.621208	-0.177132
H326	H	1.574482	-0.287875	0.156201
H327	H	1.907815	0.045459	0.489535
H328	H	1.149021	-0.959806	-0.269302
H329	H	1.482354	-0.626472	0.064031
H330	H	1.815687	-0.293139	0.397365
O331	O	0.643636	-0.276208	-0.452214
O332	O	0.976969	0.057125	-0.118881
O333	O	1.310302	0.390458	0.214452
H334	H	0.603992	-0.296209	-0.484891
H335	H	0.937325	0.037125	-0.151558
H336	H	1.270658	0.370458	0.181775
O337	O	0.918561	-0.835350	-0.499371
O338	O	1.251894	-0.502016	-0.166038
O339	O	1.585228	-0.168683	0.167295
H340	H	0.885812	-0.811159	-0.532066
H341	H	1.219145	-0.477826	-0.198733
H342	H	1.552479	-0.144492	0.134601
H343	H	1.149062	-1.044928	-0.269324
H344	H	1.482395	-0.711595	0.064009
H345	H	1.815728	-0.378261	0.397343
H346	H	0.978143	-0.959852	-0.439938
H347	H	1.311476	-0.626518	-0.106604
H348	H	1.644809	-0.293185	0.226729
O349	O	1.161389	-0.156633	-0.775098
O350	O	1.494723	0.176701	-0.441764
O351	O	1.828056	0.510034	-0.108431
H352	H	1.148809	-0.121371	-0.789858
H353	H	1.482142	0.211962	-0.456525
H354	H	1.815476	0.545296	-0.123192
O355	O	0.918491	-0.694593	-0.499365
O356	O	1.251824	-0.361260	-0.166032
O357	O	1.585157	-0.027927	0.167302
H358	H	0.885747	-0.670400	-0.532060
H359	H	1.219080	-0.337067	-0.198726
H360	H	1.552414	-0.003734	0.134607
H361	H	0.977895	-0.472573	-0.439862
H362	H	1.311229	-0.139239	-0.106529
H363	H	1.644562	0.194094	0.226804
O364	O	0.918434	-0.597081	-0.499338
O365	O	1.251768	-0.263747	-0.166005
O366	O	1.585101	0.069586	0.167328
H367	H	0.931022	-0.606058	-0.557110
H368	H	1.264355	-0.272725	-0.223777
H369	H	1.597689	0.060608	0.109557
O370	O	1.208463	-0.737762	-0.209837
O371	O	1.541797	-0.404429	0.123496
O372	O	1.875130	-0.071096	0.456829
H373	H	1.241222	-0.761954	-0.177156
H374	H	1.574555	-0.428621	0.156178
H375	H	1.907889	-0.095288	0.489511
