data_functionalizedCrystal
_audit_creation_method	'MofGen! by Chris Wilmer'
_symmetry_space_group_name_H-M	'P1'
_symmetry_Int_Tables_number	1
_symmetry_cell_setting	triclinic
loop_
_symmetry_equiv_pos_as_xyz
  x,y,z
_cell_length_a	12.759401
_cell_length_b	16.625546
_cell_length_c	12.759393
_cell_angle_alpha	90.035119
_cell_angle_beta	90.019802
_cell_angle_gamma	90.021554
loop_
_atom_site_label
_atom_site_type_symbol
_atom_site_fract_x
_atom_site_fract_y
_atom_site_fract_z
Zn1	Zn	1.606210	-0.320982	0.593954
Zn2	Zn	2.106210	0.179018	1.093954
Zn3	Zn	1.606077	-0.455837	0.418260
Zn4	Zn	2.106077	0.044163	0.918260
Zn5	Zn	1.430508	-0.321019	0.418293
Zn6	Zn	1.930508	0.178981	0.918293
Zn7	Zn	1.430476	-0.455774	0.593901
Zn8	Zn	1.930476	0.044226	1.093901
O9	O	1.518318	-0.388403	0.506102
O10	O	2.018318	0.111597	1.006102
O11	O	1.753213	-0.338881	0.570657
O12	O	2.253213	0.161119	1.070657
O13	O	1.582745	-0.437994	0.271244
O14	O	2.082745	0.062006	0.771244
O15	O	1.453884	-0.208182	0.441631
O16	O	1.953884	0.291818	0.941631
O17	O	1.753116	-0.437958	0.441575
O18	O	2.253116	0.062042	0.941575
O19	O	1.582971	-0.208155	0.570689
O20	O	2.082971	0.291845	1.070689
O21	O	1.453756	-0.338945	0.271268
O22	O	1.953756	0.161055	0.771268
O23	O	1.283483	-0.338885	0.441579
O24	O	1.783483	0.161115	0.941579
O25	O	1.453830	-0.437852	0.740929
O26	O	1.953830	0.062148	1.240929
O27	O	1.283460	-0.437888	0.570598
O28	O	1.783460	0.062112	1.070598
O29	O	1.582940	-0.338821	0.740969
O30	O	2.082940	0.161179	1.240969
O31	O	1.582714	-0.568661	0.441524
O32	O	2.082714	-0.068661	0.941524
O33	O	1.453701	-0.568615	0.570566
O34	O	1.953701	-0.068615	1.070566
C35	C	1.245350	-0.388384	0.506087
C36	C	1.745350	0.111616	1.006087
C37	C	1.128574	-0.388396	0.506105
C38	C	1.628574	0.111604	1.006105
C39	C	1.518218	-0.597894	0.506058
C40	C	2.018218	-0.097894	1.006058
C41	C	1.518272	-0.687515	0.506075
C42	C	2.018272	-0.187515	1.006075
C43	C	0.964026	-0.336918	0.573429
C44	C	1.464026	0.163082	1.073429
C45	C	1.073750	-0.336903	0.573422
C46	C	1.573750	0.163097	1.073422
C47	C	1.073668	-0.439914	0.438798
C48	C	1.573668	0.060086	0.938798
C49	C	0.963946	-0.439933	0.438812
C50	C	1.463946	0.060067	0.938812
C51	C	1.518455	-1.015691	0.506184
C52	C	2.018455	-0.515691	1.006184
C53	C	1.518401	-0.924382	0.506156
C54	C	2.018401	-0.424382	1.006156
C55	C	1.518363	-0.851606	0.506129
C56	C	2.018363	-0.351606	1.006129
C57	C	1.518310	-0.760292	0.506102
C58	C	2.018310	-0.260292	1.006102
C59	C	1.792351	-0.388423	0.506118
C60	C	2.292351	0.111577	1.006118
C61	C	1.909128	-0.388431	0.506125
C62	C	2.409128	0.111569	1.006125
C63	C	1.518396	-0.388326	0.780136
C64	C	2.018396	0.111674	1.280136
C65	C	1.518430	-0.388293	0.896912
C66	C	2.018430	0.111707	1.396912
C67	C	1.518446	-0.178094	0.506169
C68	C	2.018446	0.321906	1.006169
C69	C	1.518501	-0.088473	0.506198
C70	C	2.018501	0.411527	1.006198
C71	C	1.518300	-0.388422	0.233135
C72	C	2.018300	0.111578	0.733135
C73	C	1.518470	-0.388228	0.116359
C74	C	2.018470	0.111772	0.616359
C75	C	1.585663	-0.336719	0.951797
C76	C	2.085663	0.163281	1.451797
C77	C	1.585681	-0.336684	1.061521
C78	C	2.085681	0.163316	1.561521
C79	C	1.451230	-0.439804	1.061467
C80	C	1.951230	0.060196	1.561467
C81	C	1.451208	-0.439834	0.951745
C82	C	1.951208	0.060166	1.451745
H83	H	0.919397	-0.294982	0.628240
H84	H	1.419397	0.205018	1.128240
F85	F	1.379695	-0.494658	1.119833
F86	F	1.879695	0.005342	1.619833
F87	F	1.132172	-0.282078	0.645059
F88	F	1.632172	0.217922	1.145059
F89	F	1.379640	-0.494725	0.893330
F90	F	1.879640	0.005275	1.393330
F91	F	1.657246	-0.281798	1.119928
F92	F	2.157246	0.218202	1.619928
H93	H	0.919246	-0.481886	0.384004
H94	H	1.419246	0.018114	0.884004
F95	F	1.132018	-0.494721	0.367159
F96	F	1.632018	0.005279	0.867159
H97	H	1.640397	-0.294748	0.907155
H98	H	2.140397	0.205252	1.407155
