data_functionalizedCrystal
_audit_creation_method	'MofGen! by Chris Wilmer'
_symmetry_space_group_name_H-M	'P1'
_symmetry_Int_Tables_number	1
_symmetry_cell_setting	triclinic
loop_
_symmetry_equiv_pos_as_xyz
  x,y,z
_cell_length_a	18.215407
_cell_length_b	21.295417
_cell_length_c	18.215399
_cell_angle_alpha	89.967650
_cell_angle_beta	90.017368
_cell_angle_gamma	89.966979
loop_
_atom_site_label
_atom_site_type_symbol
_atom_site_fract_x
_atom_site_fract_y
_atom_site_fract_z
Zn1	Zn	1.125017	0.250659	0.416045
Zn2	Zn	1.124903	0.355930	0.292969
Zn3	Zn	1.001950	0.250674	0.292998
Zn4	Zn	1.001893	0.355889	0.415999
O5	O	1.063441	0.303288	0.354503
O6	O	1.227986	0.264634	0.399726
O7	O	1.108569	0.341991	0.189989
O8	O	1.018347	0.162582	0.309351
O9	O	1.227902	0.341976	0.309303
O10	O	1.108764	0.162571	0.399753
O11	O	1.018236	0.264659	0.190010
O12	O	0.898958	0.264620	0.309307
O13	O	1.018249	0.341907	0.518990
O14	O	0.898916	0.341921	0.399676
O15	O	1.108709	0.264594	0.519023
O16	O	1.108513	0.444014	0.309258
O17	O	1.018138	0.443984	0.399648
C18	C	0.872234	0.303268	0.354490
C19	C	0.790435	0.303275	0.354502
C20	C	0.602284	0.263086	0.401660
C21	C	0.525426	0.263092	0.401662
C22	C	0.525349	0.343507	0.307359
C23	C	0.602206	0.343498	0.307353
C24	C	0.640672	0.303289	0.354508
C25	C	0.486956	0.303303	0.354516
C26	C	0.403622	0.303309	0.354518
C27	C	0.724011	0.303281	0.354505
C28	C	1.063327	0.466839	0.354461
C29	C	1.063346	0.536808	0.354468
C30	C	1.110395	0.569611	0.401574
C31	C	1.110413	0.635354	0.401590
C32	C	1.063390	0.668290	0.354488
C33	C	1.016331	0.635478	0.307379
C34	C	1.016309	0.569737	0.307370
N35	N	1.057819	0.771552	0.290079
N36	N	1.057844	0.834004	0.290091
C37	C	1.063452	0.866365	0.354516
N38	N	1.069049	0.833915	0.418931
N39	N	1.069027	0.771458	0.418919
C40	C	1.063408	0.739575	0.354494
C41	C	1.110524	0.970454	0.401643
C42	C	1.110536	1.036198	0.401661
C43	C	1.016458	1.036321	0.307444
C44	C	1.016442	0.970579	0.307433
C45	C	1.063478	0.937649	0.354532
C46	C	1.255393	0.303308	0.354516
C47	C	1.337192	0.303316	0.354522
C48	C	1.063485	0.303244	0.546456
C49	C	1.063505	0.303226	0.628255
C50	C	1.063544	1.139098	0.354554
C51	C	1.063512	1.069129	0.354560
C52	C	1.063438	0.303286	0.163297
C53	C	1.063562	0.303127	0.081498
C54	C	1.110624	0.262932	0.816467
C55	C	1.110632	0.262913	0.893326
C56	C	1.016438	0.343423	0.893280
C57	C	1.016426	0.343438	0.816423
C58	C	1.063523	0.303193	0.778018
C59	C	1.063544	0.303160	0.931734
C60	C	1.063553	0.303140	1.015068
C61	C	1.063513	0.303211	0.694679
H62	H	0.494174	0.230354	0.440057
O63	O	1.161161	0.670750	0.452395
H64	H	1.218923	0.658104	0.439813
H65	H	0.978094	0.376190	0.924558
H66	H	0.633462	0.376236	0.268953
H67	H	1.148971	0.230160	0.785201
H68	H	1.148985	0.230128	0.924628
O69	O	0.965601	0.386846	0.774944
H70	H	0.932853	0.414828	0.814559
O71	O	0.483856	0.386875	0.256505
H72	H	0.523464	0.414824	0.223711
O73	O	0.965613	0.671002	0.256578
H74	H	0.932887	0.637144	0.223823
O75	O	0.643776	0.219711	0.452506
H76	H	0.604167	0.191751	0.485287
H77	H	0.977995	0.543028	0.269010
O78	O	1.161138	0.534093	0.452357
H79	H	1.193860	0.567953	0.485113
H80	H	1.148821	0.943642	0.439996
H81	H	1.148850	1.062905	0.440023
O82	O	0.965741	1.071834	0.256635
H83	H	0.973664	1.123060	0.264551
H84	H	0.978133	0.943868	0.269072
