data_functionalizedCrystal
_audit_creation_method	'MofGen! by Chris Wilmer'
_symmetry_space_group_name_H-M	'P1'
_symmetry_Int_Tables_number	1
_symmetry_cell_setting	triclinic
loop_
_symmetry_equiv_pos_as_xyz
  x,y,z
_cell_length_a	19.188925
_cell_length_b	18.266242
_cell_length_c	10.654559
_cell_angle_alpha	89.997519
_cell_angle_beta	96.184383
_cell_angle_gamma	90.009890
loop_
_atom_site_label
_atom_site_type_symbol
_atom_site_fract_x
_atom_site_fract_y
_atom_site_fract_z
O1	O	0.927180	0.060893	-0.156746
O2	O	0.724006	0.060890	-0.177859
O3	O	0.830261	0.060891	0.015535
O4	O	0.820925	0.060891	-0.350140
O5	O	0.830243	-0.060871	0.015540
O6	O	0.723988	-0.060872	-0.177853
O7	O	0.927161	-0.060869	-0.156741
Zn8	Zn	0.825572	-0.080203	-0.167296
Zn9	Zn	0.825596	0.080224	-0.167303
O10	O	0.820907	-0.060871	-0.350134
C11	C	0.697982	0.000009	-0.177173
C12	C	0.620464	0.000008	-0.175124
N13	N	0.825560	-0.189690	-0.167290
C14	C	0.059348	0.000010	-0.274882
C15	C	0.132183	0.000014	-0.276818
C16	C	0.176374	0.000012	-0.163341
C17	C	0.147723	0.000026	-0.047919
C18	C	0.074888	0.000029	-0.045986
N19	N	0.296506	-0.041436	-0.081186
N20	N	0.365695	-0.041441	-0.083030
C21	C	0.395821	0.000004	-0.169157
N22	N	0.354142	0.041444	-0.253391
N23	N	0.284946	0.041446	-0.251550
C24	C	0.255352	0.000009	-0.165424
C25	C	0.503441	-0.000000	-0.286671
C26	C	0.576278	0.000008	-0.288603
C27	C	0.591816	0.000013	-0.059700
C28	C	0.518980	0.000012	-0.057772
C29	C	0.474796	0.000002	-0.171261
C30	C	0.868268	-0.227992	-0.243271
C31	C	0.868280	-0.304637	-0.243268
C32	C	0.825571	-0.342977	-0.167298
C33	C	0.782860	-0.304665	-0.091302
C34	C	0.782855	-0.228022	-0.091298
N35	N	0.764403	-0.463330	-0.164207
N36	N	0.764409	-0.536138	-0.164217
C37	C	0.825585	-0.573899	-0.167303
N38	N	0.886754	-0.536102	-0.170401
N39	N	0.886746	-0.463287	-0.170397
C40	C	0.825572	-0.426084	-0.167293
C41	C	0.868308	-0.695309	-0.243284
C42	C	0.868321	-0.771955	-0.243271
C43	C	0.782896	-0.771982	-0.091312
C44	C	0.782889	-0.695337	-0.091317
C45	C	0.825594	-0.657005	-0.167310
C46	C	0.953186	0.000014	-0.157426
C47	C	1.030704	0.000019	-0.159475
C48	C	0.829565	0.000012	0.062321
C49	C	0.827510	0.000017	0.201720
N50	N	0.825613	0.189711	-0.167299
C51	C	0.821603	0.000010	-0.396920
C52	C	0.823658	0.000011	-0.536319
C53	C	0.763018	0.000018	0.251893
C54	C	0.761091	0.000012	0.382874
C55	C	0.888155	0.000007	0.413500
C56	C	0.890081	0.000008	0.282521
C57	C	0.700447	0.000026	0.171093
C58	C	0.635949	0.000028	0.221264
C59	C	0.634022	0.000023	0.352246
C60	C	0.696593	0.000015	0.433055
H61	H	0.023377	0.000005	-0.367294
H62	H	0.903104	-0.803139	-0.305140
H63	H	0.155510	-0.000001	-0.370799
H64	H	0.183707	0.000027	0.044475
H65	H	0.467464	-0.000007	-0.379081
H66	H	0.599597	0.000007	-0.382584
H67	H	0.627795	0.000018	0.032695
C68	C	0.915263	-0.346778	-0.326857
N69	N	0.950651	-0.378516	-0.389817
C70	C	0.702560	0.000028	0.027009
N71	N	0.704153	0.000029	-0.081514
C72	C	0.487471	0.000007	0.069186
N73	N	0.463740	0.000001	0.164817
C74	C	0.735916	-0.814151	-0.007742
N75	N	0.700531	-0.845917	0.055208
H76	H	0.903045	-0.196787	-0.305146
C77	C	0.735878	-0.346841	-0.007738
N78	N	0.700491	-0.378607	0.055206
C79	C	0.735867	-0.185888	-0.007717
N80	N	0.700473	-0.154152	0.055234
H81	H	0.903082	-0.664097	-0.305161
C82	C	0.735899	-0.653203	-0.007745
N83	N	0.700504	-0.621468	0.055207
C84	C	0.563075	0.000021	0.407431
N85	N	0.509634	0.000024	0.448993
C86	C	0.694470	0.000007	0.577138
N87	N	0.692870	0.000004	0.685660
C88	C	0.961026	0.000010	0.227327
N89	N	1.014464	0.000011	0.185756
H90	H	0.051568	0.000037	0.047995
H91	H	0.585006	0.000028	0.155461
H92	H	0.939097	0.000003	0.479305
