data_functionalizedCrystal
_audit_creation_method	'MofGen! by Chris Wilmer'
_symmetry_space_group_name_H-M	'P1'
_symmetry_Int_Tables_number	1
_symmetry_cell_setting	triclinic
loop_
_symmetry_equiv_pos_as_xyz
  x,y,z
_cell_length_a	12.811457
_cell_length_b	14.044190
_cell_length_c	11.295483
_cell_angle_alpha	94.464886
_cell_angle_beta	91.289320
_cell_angle_gamma	88.597539
loop_
_atom_site_label
_atom_site_type_symbol
_atom_site_fract_x
_atom_site_fract_y
_atom_site_fract_z
O1	O	1.401200	0.131066	0.052280
O2	O	1.099054	0.142860	0.019646
O3	O	1.245587	-0.001070	0.035496
O4	O	1.254668	0.274996	0.036430
O5	O	1.232715	0.011552	0.232155
O6	O	1.086182	0.155482	0.216305
O7	O	1.388328	0.143688	0.248938
Cu8	Cu	1.236080	0.150737	0.250578
Cu9	Cu	1.251303	0.135810	0.018007
O10	O	1.241796	0.287618	0.233088
C11	C	1.053716	0.148123	0.113774
C12	C	0.937800	0.144990	0.101256
C13	C	0.705946	0.152847	0.292153
C14	C	0.597032	0.149903	0.280397
C15	C	0.611057	0.136152	0.065988
C16	C	0.719971	0.139096	0.077744
C17	C	0.767411	0.147445	0.190831
C18	C	0.876327	0.150395	0.202586
C19	C	0.890350	0.136638	-0.011822
C20	C	0.781436	0.133694	-0.023578
C21	C	1.235179	-0.030116	0.133400
C22	C	1.223332	-0.135471	0.132131
C23	C	1.285693	-0.385081	0.138819
C24	C	1.201695	-0.328367	0.129755
C25	C	1.213737	-0.221030	0.131077
C26	C	1.273653	-0.492428	0.137498
C27	C	1.433666	0.138424	0.154808
C28	C	1.549583	0.141557	0.167318
C29	C	1.252204	0.316664	0.135182
C30	C	1.264051	0.422018	0.136443
N31	N	1.225381	0.161236	0.414157
N32	N	1.262010	0.125305	-0.145572
C33	C	1.339024	0.049679	0.675739
C34	C	1.330947	0.057619	0.799529
C35	C	1.201143	0.185052	0.785529
C36	C	1.209221	0.177111	0.661739
C37	C	1.278165	0.109424	0.606848
C38	C	1.286247	0.101488	0.483057
C39	C	1.156439	0.228916	0.469058
C40	C	1.148361	0.236856	0.592848
H41	H	0.744572	0.159657	0.384233
N42	N	1.094265	0.289964	0.398709
N43	N	1.102946	0.378568	0.413570
H44	H	1.059039	0.421687	0.363889
H45	H	0.940406	0.132245	-0.094326
H46	H	1.366644	-0.353024	0.147575
H47	H	0.914951	0.157199	0.294666
H48	H	1.145003	0.240155	0.830236
N49	N	0.534262	0.155415	0.383908
N50	N	0.576638	0.162865	0.484864
H51	H	0.532307	0.166756	0.557975
N52	N	1.077940	0.305983	0.648941
N53	N	1.070731	0.313062	0.759467
H54	H	1.020996	0.361886	0.799082
H55	H	0.572412	0.129338	-0.026081
N56	N	0.732956	0.125158	-0.139078
N57	N	0.635711	0.122526	-0.149562
H58	H	0.601472	0.116500	-0.231135
H59	H	1.342387	0.046376	0.438367
H60	H	1.395169	-0.005429	0.631047
N61	N	1.100139	-0.368591	0.118775
N62	N	1.090371	-0.456993	0.117705
H63	H	1.018650	-0.485407	0.109954
H64	H	1.380503	0.008968	0.855616
