data_functionalizedCrystal
_audit_creation_method	'MofGen! by Chris Wilmer'
_symmetry_space_group_name_H-M	'P1'
_symmetry_Int_Tables_number	1
_symmetry_cell_setting	triclinic
loop_
_symmetry_equiv_pos_as_xyz
  x,y,z
_cell_length_a	15.995292
_cell_length_b	17.038272
_cell_length_c	14.472310
_cell_angle_alpha	89.999298
_cell_angle_beta	89.985801
_cell_angle_gamma	87.290086
loop_
_atom_site_label
_atom_site_type_symbol
_atom_site_fract_x
_atom_site_fract_y
_atom_site_fract_z
O1	O	1.118190	0.100556	-0.076867
O2	O	1.618190	0.600556	0.423133
O3	O	0.875298	0.113048	-0.076864
O4	O	1.375298	0.613048	0.423136
O5	O	0.995300	-0.007013	-0.076858
O6	O	1.495300	0.492987	0.423142
O7	O	0.998187	0.220618	-0.076873
O8	O	1.498187	0.720618	0.423127
O9	O	0.995268	-0.007006	0.076824
O10	O	1.495268	0.492994	0.576824
O11	O	0.875265	0.113055	0.076818
O12	O	1.375265	0.613055	0.576818
O13	O	1.118157	0.100563	0.076815
O14	O	1.618157	0.600563	0.576815
Cu15	Cu	0.996708	0.106810	0.090849
Cu16	Cu	1.496708	0.606810	0.590849
Cu17	Cu	0.996747	0.106801	-0.090898
Cu18	Cu	1.496747	0.606801	0.409102
O19	O	0.998155	0.220625	0.076809
O20	O	1.498155	0.720625	0.576809
C21	C	0.844050	0.112543	-0.000022
C22	C	1.344050	0.612543	0.499978
C23	C	0.750988	0.111019	-0.000021
C24	C	1.250988	0.611019	0.499979
C25	C	0.412851	0.105415	-0.000031
C26	C	0.912851	0.605415	0.499969
C27	C	0.442336	0.192073	-0.000379
C28	C	0.942336	0.692073	0.499621
C29	C	0.539129	0.193720	-0.000029
C30	C	1.039129	0.693720	0.499971
C31	C	0.580605	0.108196	-0.000026
C32	C	1.080605	0.608196	0.499974
C33	C	0.548398	0.064875	0.087733
C34	C	1.048398	0.564875	0.587733
C35	C	0.451533	0.063832	0.087803
C36	C	0.951533	0.563832	0.587803
C37	C	0.451589	0.062055	-0.086962
C38	C	0.951589	0.562055	0.413038
C39	C	0.548310	0.065266	-0.088118
C40	C	1.048310	0.565266	0.411882
C41	C	0.675412	0.109763	-0.000021
C42	C	1.175412	0.609763	0.499979
C43	C	0.318043	0.103846	-0.000030
C44	C	0.818043	0.603846	0.499970
C45	C	0.992658	-0.036138	-0.000017
C46	C	1.492658	0.463862	0.499983
C47	C	0.984824	-0.122932	-0.000017
C48	C	1.484824	0.377068	0.499983
C49	C	1.056753	-0.173042	-0.000017
C50	C	1.556753	0.326958	0.499983
C51	C	1.049387	-0.254593	-0.000026
C52	C	1.549387	0.245407	0.499974
C53	C	0.970090	-0.286032	-0.000028
C54	C	1.470090	0.213968	0.499972
C55	C	0.898155	-0.235915	-0.000031
C56	C	1.398155	0.264085	0.499969
C57	C	0.905522	-0.154365	-0.000029
C58	C	1.405522	0.345635	0.499971
C59	C	0.944064	-0.531791	-0.000040
C60	C	1.444064	-0.031791	0.499960
C61	C	0.936702	-0.613347	-0.000040
C62	C	1.436702	-0.113347	0.499960
C63	C	1.087934	-0.632019	-0.000037
C64	C	1.587934	-0.132019	0.499963
C65	C	1.095294	-0.550468	-0.000029
C66	C	1.595294	-0.050468	0.499971
C67	C	1.023359	-0.500358	-0.000037
C68	C	1.523359	-0.000358	0.499963
C69	C	0.962559	-0.369390	-0.000034
C70	C	1.462559	0.130610	0.499966
C71	C	1.030892	-0.417001	-0.000037
C72	C	1.530892	0.082999	0.499963
C73	C	1.149405	0.101068	-0.000029
C74	C	1.649405	0.601068	0.499971
C75	C	1.242467	0.102592	-0.000036
C76	C	1.742467	0.602592	0.499964
C77	C	1.000797	0.249749	-0.000034
C78	C	1.500797	0.749749	0.499966
C79	C	1.008632	0.336543	-0.000040
C80	C	1.508632	0.836543	0.499960
N81	N	0.996687	0.106815	0.218680
N82	N	1.496687	0.606815	0.718680
N83	N	0.996774	0.106790	-0.218729
N84	N	1.496774	0.606790	0.281271
C85	C	0.996745	0.106798	0.592771
C86	C	1.496745	0.606798	1.092771
C87	C	0.932289	0.170825	0.553602
C88	C	1.432289	0.670825	1.053602
C89	C	0.932464	0.171059	0.446514
C90	C	1.432464	0.671059	0.946514
C91	C	0.996716	0.106807	0.407180
C92	C	1.496716	0.606807	0.907180
C93	C	1.085351	0.124607	0.446014
C94	C	1.585351	0.624607	0.946014
C95	C	1.084995	0.125063	0.553136
C96	C	1.584995	0.625063	1.053136
C97	C	0.973333	0.024780	0.553306
C98	C	1.473333	0.524780	1.053306
C99	C	0.971369	0.025328	0.446179
C100	C	1.471369	0.525328	0.946179
C101	C	0.996705	0.106810	0.302292
C102	C	1.496705	0.606810	0.802292
C103	C	0.996763	0.106797	0.697659
C104	C	1.496763	0.606797	1.197659
H105	H	0.570586	0.094965	0.153042
H106	H	1.070586	0.594965	0.653042
F107	F	0.417120	0.097466	-0.173905
F108	F	0.917120	0.597466	0.326095
F109	F	1.141152	-0.139591	-0.000006
F110	F	1.641152	0.360409	0.499994
H111	H	0.575782	0.001942	0.090999
H112	H	1.075782	0.501942	0.590999
F113	F	0.567176	0.238063	-0.082257
F114	F	1.067176	0.738063	0.417743
H115	H	0.897995	-0.394996	-0.000034
H116	H	1.397995	0.105004	0.499966
H117	H	1.134703	0.079213	0.420533
H118	H	1.634703	0.579213	0.920533
F119	F	0.575565	0.106473	-0.172981
F120	F	1.075565	0.606473	0.327019
F121	F	1.115282	-0.383540	-0.000040
F122	F	1.615282	0.116460	0.499960
H123	H	1.104739	0.184877	0.578107
H124	H	1.604739	0.684877	1.078107
H125	H	1.159866	-0.524877	-0.000027
H126	H	1.659866	-0.024877	0.499973
H127	H	1.105416	0.183740	0.419173
H128	H	1.605416	0.683740	0.919173
H129	H	0.432456	0.000295	0.091792
H130	H	0.932456	0.500295	0.591792
H131	H	0.866768	0.160456	0.420260
H132	H	1.366768	0.660456	0.920260
H133	H	0.947664	0.231347	0.580508
H134	H	1.447664	0.731347	1.080508
F135	F	0.846154	0.157186	0.587293
F136	F	1.346154	0.657186	1.087293
F137	F	0.585588	-0.016330	-0.095042
F138	F	1.085588	0.483670	0.404958
H139	H	0.909789	0.007659	0.580376
H140	H	1.409789	0.507659	1.080376
H141	H	0.846949	-0.113565	-0.000029
H142	H	1.346949	0.386435	0.499971
H143	H	1.146499	-0.672827	-0.000032
H144	H	1.646499	-0.172827	0.499968
F145	F	0.886107	0.007668	0.413007
F146	F	1.386107	0.507668	0.913007
F147	F	1.034683	-0.037498	0.586412
F148	F	1.534683	0.462502	1.086412
H149	H	0.416733	0.225471	-0.063316
H150	H	0.916733	0.725471	0.436684
F151	F	1.028168	-0.039867	0.411197
F152	F	1.528168	0.460133	0.911197
F153	F	0.427365	-0.021318	-0.087733
F154	F	0.927365	0.478682	0.412267
F155	F	0.952769	0.250620	0.412999
F156	F	1.452769	0.750620	0.912999
F157	F	1.149899	0.066365	0.587003
F158	F	1.649899	0.566365	1.087003
F159	F	1.125945	-0.307921	-0.000024
F160	F	1.625945	0.192079	0.499976
F161	F	0.813761	-0.269376	-0.000043
F162	F	1.313761	0.230624	0.499957
F163	F	0.852300	-0.646804	-0.000037
F164	F	1.352300	-0.146804	0.499963
H165	H	0.885489	-0.491001	-0.000046
H166	H	1.385489	0.008999	0.499954
H167	H	0.415670	0.225292	0.062199
H168	H	0.915670	0.725292	0.562199
F169	F	0.419254	0.103057	0.173545
F170	F	0.919254	0.603057	0.673545
F171	F	0.566348	0.238335	0.082337
F172	F	1.066348	0.738335	0.582337
