data_functionalizedCrystal
_audit_creation_method	'MofGen! by Chris Wilmer'
_symmetry_space_group_name_H-M	'P1'
_symmetry_Int_Tables_number	1
_symmetry_cell_setting	triclinic
loop_
_symmetry_equiv_pos_as_xyz
  x,y,z
_cell_length_a	6.817900
_cell_length_b	7.190339
_cell_length_c	14.858572
_cell_angle_alpha	89.892171
_cell_angle_beta	75.475997
_cell_angle_gamma	119.388276
loop_
_atom_site_label
_atom_site_type_symbol
_atom_site_fract_x
_atom_site_fract_y
_atom_site_fract_z
V1	V	4.125828	0.296434	-0.289300
V2	V	4.625828	0.796434	0.210700
O3	O	4.021815	-0.012864	-0.284469
O4	O	4.521815	0.487136	0.215531
O5	O	4.162881	0.586450	-0.286671
O6	O	4.662881	1.086450	0.213329
O7	O	4.081301	0.292480	-0.415770
O8	O	4.581301	0.792480	0.084230
O9	O	4.103959	0.283141	-0.154476
O10	O	4.603959	0.783141	0.345524
V11	V	4.597882	0.259367	-0.273253
V12	V	5.097882	0.759367	0.226747
O13	O	4.412246	0.377744	-0.324500
O14	O	4.912246	0.877744	0.175500
O15	O	4.761661	0.178057	-0.238052
O16	O	5.261661	0.678057	0.261948
O17	O	4.337623	-0.030650	-0.275882
O18	O	4.837623	0.469350	0.224118
O19	O	4.819292	0.568664	-0.278083
O20	O	5.319292	1.068664	0.221917
O21	O	4.737147	0.272659	-0.408077
O22	O	5.237147	0.772659	0.091923
O23	O	4.419202	0.263321	-0.146782
O24	O	4.919202	0.763321	0.353218
C25	C	3.924480	0.282140	-0.446617
C26	C	4.424480	0.782140	0.053383
C27	C	3.969923	0.280827	-0.550003
C28	C	4.469923	0.780827	-0.050003
C29	C	4.028561	0.657134	-0.281943
C30	C	4.528561	1.157134	0.218057
C31	C	4.142268	0.898687	-0.280614
C32	C	4.642268	1.398687	0.219386
C33	C	4.136248	0.276026	-0.928582
C34	C	4.636248	0.776026	-0.428582
C35	C	4.089963	0.277362	-0.823250
C36	C	4.589963	0.777362	-0.323250
C37	C	4.053087	0.278428	-0.739296
C38	C	4.553087	0.778428	-0.239296
C39	C	4.006798	0.279760	-0.633957
C40	C	4.506798	0.779760	-0.133957
C41	C	4.239368	0.273667	-0.115931
C42	C	4.739368	0.773667	0.384069
C43	C	4.173160	0.274970	-0.012544
C44	C	4.673160	0.774970	0.487456
