data_functionalizedCrystal
_audit_creation_method	'MofGen! by Chris Wilmer'
_symmetry_space_group_name_H-M	'P1'
_symmetry_Int_Tables_number	1
_symmetry_cell_setting	triclinic
loop_
_symmetry_equiv_pos_as_xyz
  x,y,z
_cell_length_a	19.188905
_cell_length_b	14.971486
_cell_length_c	14.048226
_cell_angle_alpha	89.993360
_cell_angle_beta	90.013588
_cell_angle_gamma	96.625658
loop_
_atom_site_label
_atom_site_type_symbol
_atom_site_fract_x
_atom_site_fract_y
_atom_site_fract_z
O1	O	0.926517	-0.111564	0.079318
O2	O	0.723252	-0.126620	0.079286
O3	O	0.830332	0.011138	0.079296
O4	O	0.819436	-0.249321	0.079308
O5	O	0.830319	0.011146	-0.079025
O6	O	0.723239	-0.126612	-0.079036
O7	O	0.926504	-0.111556	-0.079003
Zn8	Zn	0.824869	-0.119082	-0.104157
Zn9	Zn	0.824886	-0.119093	0.104439
O10	O	0.819423	-0.249313	-0.079014
C11	C	0.697232	-0.126132	0.000121
C12	C	0.619722	-0.124679	0.000108
C13	C	0.583335	-0.123986	0.086412
C14	C	0.510507	-0.122612	0.086423
C15	C	0.474071	-0.121912	0.000127
C16	C	0.510466	-0.122611	-0.086188
C17	C	0.583292	-0.123994	-0.086197
N18	N	0.364874	-0.068836	-0.064098
N19	N	0.295693	-0.067519	-0.064083
C20	C	0.254651	-0.117745	0.000150
N21	N	0.285404	-0.169326	0.064381
N22	N	0.354592	-0.170639	0.064369
C23	C	0.395103	-0.120412	0.000127
C24	C	0.139295	-0.115563	0.086472
C25	C	0.066465	-0.114194	0.086480
C26	C	0.066426	-0.114184	-0.086134
C27	C	0.139254	-0.115562	-0.086140
C28	C	0.175684	-0.116247	0.000166
C29	C	0.829839	0.044464	0.000135
C30	C	0.828378	0.143753	0.000136
C31	C	0.952523	-0.112044	0.000164
C32	C	1.030033	-0.113496	0.000182
C33	C	0.819917	-0.282639	0.000149
C34	C	0.821377	-0.381928	0.000155
N35	N	0.824863	-0.119075	-0.246517
C36	C	0.891285	0.201318	0.000145
C37	C	0.889909	0.294610	0.000155
C38	C	0.825625	0.330335	0.000148
C39	C	0.762713	0.272763	0.000141
C40	C	0.764090	0.179473	0.000139
C41	C	0.759848	0.467210	0.000144
C42	C	0.758470	0.560507	0.000145
C43	C	0.885666	0.582347	0.000160
C44	C	0.887043	0.489057	0.000158
C45	C	0.824131	0.431491	0.000149
C46	C	0.872293	-0.058101	-0.296331
C47	C	0.872298	-0.058100	-0.395988
C48	C	0.824875	-0.119079	-0.445831
C49	C	0.777440	-0.180055	-0.396010
C50	C	0.777432	-0.180051	-0.296354
C51	C	0.777460	-0.180062	-0.603724
C52	C	0.777468	-0.180068	-0.703387
C53	C	0.872325	-0.058111	-0.703358
C54	C	0.872318	-0.058107	-0.603703
C55	C	0.824883	-0.119085	-0.553889
N56	N	0.824898	-0.119094	0.246799
H57	H	0.480875	-0.122048	0.156704
C58	C	-0.045222	-0.112041	-0.162764
C59	C	0.026385	-0.113405	-0.180995
H60	H	-0.069942	-0.111554	-0.221330
H61	H	-0.062435	-0.163964	-0.127313
H62	H	-0.051851	-0.059668	-0.127296
H63	H	0.033014	-0.165782	-0.216457
H64	H	0.043603	-0.061476	-0.216460
H65	H	0.910918	-0.008450	-0.436546
H66	H	0.168881	-0.116121	-0.156417
H67	H	0.738824	-0.229702	-0.436598
C68	C	0.398812	-0.120468	-0.162815
C69	C	0.470418	-0.121836	-0.181047
H70	H	0.374091	-0.119986	-0.221381
H71	H	0.381599	-0.172387	-0.127359
H72	H	0.392185	-0.068091	-0.127353
H73	H	0.477046	-0.174216	-0.216504
H74	H	0.487637	-0.069911	-0.216519
C75	C	-0.023195	-0.189518	0.186643
C76	C	0.026467	-0.113436	0.181354
H77	H	-0.047885	-0.189051	0.245219
H78	H	-0.055315	-0.188906	0.135257
H79	H	-0.000063	-0.242197	0.183056
H80	H	0.003334	-0.060756	0.184934
H81	H	0.058591	-0.114040	0.232754
H82	H	0.910913	-0.008449	-0.255756
H83	H	0.612992	-0.124544	0.156688
H84	H	0.943633	0.172238	0.000145
H85	H	0.910936	-0.008458	-0.563121
C86	C	0.962166	0.412169	0.081564
C87	C	0.959061	0.357881	0.000168
H88	H	1.004863	0.451224	0.081575
H89	H	0.923692	0.446798	0.081555
H90	H	0.960061	0.375300	0.136762
H91	H	0.961161	0.394749	-0.055031
H92	H	0.997545	0.323248	0.000168
H93	H	0.939389	0.459973	0.000156
C94	C	0.657372	-0.202415	-0.186343
C95	C	0.623293	-0.124749	-0.181069
H96	H	0.682065	-0.202879	-0.244917
H97	H	0.689490	-0.203018	-0.134954
H98	H	0.623670	-0.254020	-0.182751
H99	H	0.656996	-0.073144	-0.184654
H100	H	0.591173	-0.124138	-0.232472
C101	C	0.887399	0.063686	-0.815425
C102	C	0.924466	0.008925	-0.758104
H103	H	0.919590	0.105071	-0.849218
H104	H	0.859164	0.027375	-0.859370
H105	H	0.858312	0.095764	-0.776555
H106	H	0.953549	-0.023158	-0.796975
H107	H	0.952713	0.045241	-0.714154
H108	H	0.168957	-0.116130	0.156747
H109	H	0.738851	-0.229722	-0.743964
H110	H	0.936892	0.629222	0.000170
C111	C	0.683703	-0.300624	-0.613758
C112	C	0.725323	-0.247094	-0.548967
H113	H	0.651523	-0.342012	-0.579951
H114	H	0.658561	-0.263478	-0.652641
H115	H	0.712803	-0.332699	-0.652612
H116	H	0.696224	-0.215015	-0.510118
H117	H	0.750467	-0.284246	-0.510068
C118	C	0.649654	0.570624	0.081547
C119	C	0.687812	0.599786	0.000155
H120	H	0.606035	0.594880	0.081556
H121	H	0.641464	0.506833	0.081538
H122	H	0.675582	0.590395	0.136747
H123	H	0.661886	0.580008	-0.055046
H124	H	0.696000	0.663589	0.000155
C125	C	0.687606	0.349615	0.081520
C126	C	0.690694	0.403931	0.000135
H127	H	0.644913	0.310554	0.081512
H128	H	0.726084	0.314993	0.081519
H129	H	0.689716	0.386465	0.136726
H130	H	0.688590	0.367081	-0.055071
H131	H	0.652206	0.438556	0.000128
C132	C	0.638225	0.167249	0.000117
C133	C	0.694941	0.116194	0.000126
H134	H	0.595535	0.128182	0.000107
H135	H	0.640339	0.204083	0.055324
H136	H	0.640332	0.204097	-0.055097
H137	H	0.692836	0.079350	0.055344
H138	H	0.692825	0.079344	-0.055086
H139	H	0.710372	0.301858	0.000142
H140	H	0.738809	-0.229701	-0.255797
