data_functionalizedCrystal
_audit_creation_method	'MofGen! by Chris Wilmer'
_symmetry_space_group_name_H-M	'P1'
_symmetry_Int_Tables_number	1
_symmetry_cell_setting	triclinic
loop_
_symmetry_equiv_pos_as_xyz
  x,y,z
_cell_length_a	34.408637
_cell_length_b	34.407814
_cell_length_c	34.404193
_cell_angle_alpha	60.004510
_cell_angle_beta	60.009006
_cell_angle_gamma	59.994604
loop_
_atom_site_label
_atom_site_type_symbol
_atom_site_fract_x
_atom_site_fract_y
_atom_site_fract_z
O1	O	0.053973	-0.567860	0.474801
O2	O	0.020377	-0.442124	0.382567
O3	O	0.100004	-0.521670	0.382483
O4	O	-0.025653	-0.488314	0.474886
O5	O	0.126426	-0.495253	0.408816
O6	O	0.046800	-0.415707	0.408900
O7	O	0.080396	-0.541443	0.501134
Zn8	Zn	0.067793	-0.474381	0.459198
Zn9	Zn	0.032980	-0.509186	0.424503
O10	O	0.000769	-0.461897	0.501219
N11	N	0.091552	-0.450631	0.482879
N12	N	0.009225	-0.532940	0.400823
C13	C	0.142848	-0.268847	0.534081
C14	C	0.142979	-0.399386	0.664559
C15	C	0.142862	-0.399365	0.534081
C16	C	0.273409	-0.399338	0.533986
C17	C	0.157225	-0.311914	0.548422
C18	C	0.157300	-0.385019	0.621491
C19	C	0.230339	-0.384991	0.548370
C20	C	0.157235	-0.385007	0.548422
C21	C	0.124548	-0.214028	0.515827
C22	C	0.124571	-0.417639	0.515827
C23	C	0.175526	-0.366733	0.566676
C24	C	0.353121	-0.385580	0.491988
C25	C	0.402952	-0.402180	0.475348
C26	C	0.402981	-0.482812	0.506096
C27	C	0.353151	-0.466211	0.522737
C28	C	0.136544	-0.189099	0.466839
C29	C	0.119905	-0.139265	0.450247
C30	C	0.079280	-0.139291	0.531632
C31	C	0.095918	-0.189125	0.548224
C32	C	0.075577	-0.405615	0.527900
C33	C	0.058953	-0.422228	0.511301
C34	C	0.140315	-0.462889	0.470566
C35	C	0.156941	-0.446276	0.487159
C36	C	0.075772	-0.405653	0.744326
C37	C	0.059206	-0.422280	0.794159
C38	C	0.140607	-0.462951	0.794094
C39	C	0.157172	-0.446325	0.744260
C40	C	0.124753	-0.417674	0.719377
C41	C	0.328223	-0.417595	0.515681
C42	C	-0.172390	-0.583988	0.349141
C43	C	-0.041751	-0.584138	0.218783
C44	C	-0.041941	-0.584130	0.349402
C45	C	-0.041957	-0.714607	0.349338
C46	C	-0.129326	-0.598388	0.334853
C47	C	-0.056165	-0.598473	0.261852
C48	C	-0.056282	-0.671535	0.334962
C49	C	-0.056272	-0.598469	0.334999
C50	C	-0.227205	-0.565659	0.367327
C51	C	-0.023703	-0.565882	0.367734
C52	C	-0.074511	-0.616717	0.316667
C53	C	-0.055754	-0.794298	0.391257
C54	C	-0.039181	-0.844132	0.407888
C55	C	0.041447	-0.844215	0.377269
C56	C	0.024873	-0.794381	0.360637
C57	C	-0.252183	-0.577666	0.416302
C58	C	-0.302014	-0.561001	0.432833
C59	C	-0.301886	-0.520329	0.351410
C60	C	-0.252055	-0.536994	0.334880
C61	C	-0.035709	-0.516892	0.355682
C62	C	-0.019129	-0.500308	0.372353
C63	C	0.021465	-0.581700	0.413115
C64	C	0.004884	-0.598286	0.396450
C65	C	-0.035389	-0.516907	0.139026
C66	C	-0.018707	-0.500324	0.089193
C67	C	0.021949	-0.581721	0.089240
C68	C	0.005268	-0.598303	0.139074
C69	C	-0.023402	-0.565894	0.163965
C70	C	-0.023728	-0.769425	0.367633
N71	N	0.427173	-0.450553	0.482630
O72	O	0.589997	-0.458460	0.365361
O73	O	0.590185	-0.550997	0.490963
O74	O	0.590104	-0.550786	0.411309
O75	O	0.590077	-0.458671	0.445016
O76	O	0.510940	-0.524462	0.437777
O77	O	0.511020	-0.524674	0.517432
O78	O	0.510832	-0.432136	0.391830
Zn79	Zn	0.498357	-0.474225	0.458833
Zn80	Zn	0.602660	-0.508908	0.423960
O81	O	0.510913	-0.432348	0.471484
N82	N	0.673844	-0.532580	0.400158
N83	N	0.091520	-0.115070	0.482873
O84	O	-0.025663	0.047841	0.474857
O85	O	0.099940	0.047877	0.382299
O86	O	0.020247	0.047844	0.382560
O87	O	0.054030	0.047874	0.474596
O88	O	0.046674	-0.031326	0.408942
O89	O	0.126367	-0.031293	0.408680
O90	O	0.000764	-0.031329	0.501238
Zn91	Zn	0.067761	-0.043881	0.459148
Zn92	Zn	0.032943	0.060429	0.424389
O93	O	0.080457	-0.031296	0.500977
N94	N	0.009178	0.131618	0.400665
N95	N	0.091852	-0.450680	0.818332
O96	O	0.083862	-0.567845	0.981235
O97	O	-0.008657	-0.442198	0.981276
O98	O	-0.008441	-0.521875	0.981252
O99	O	0.083646	-0.488168	0.981258
O100	O	0.017919	-0.495468	0.902085
O101	O	0.017703	-0.415791	0.902109
O102	O	0.110222	-0.541438	0.902067
Zn103	Zn	0.068148	-0.474422	0.889518
Zn104	Zn	0.033417	-0.509214	0.993825
O105	O	0.110006	-0.461761	0.902091
N106	N	0.009712	-0.532961	1.065011
C107	C	0.030439	-0.413071	0.383027
C108	C	0.129046	-0.511580	0.382922
C109	C	0.070334	-0.570496	0.500675
C110	C	-0.028274	-0.471987	0.500780
C111	C	0.550625	-0.550579	0.520021
C112	C	0.550527	-0.550317	0.421379
C113	C	0.550389	-0.432554	0.362773
C114	C	0.550491	-0.432816	0.461414
C115	C	0.128944	0.008394	0.382712
C116	C	0.030287	0.008256	0.383068
C117	C	-0.028273	0.008252	0.500793
C118	C	0.070417	0.008292	0.500470
C119	C	-0.008218	-0.413165	0.941698
C120	C	-0.007945	-0.511830	0.941653
C121	C	0.109783	-0.570471	0.941646
C122	C	0.109516	-0.471800	0.941673
H123	H	0.049370	-0.382321	0.724071
H124	H	0.023050	0.008252	0.354152
H125	H	-0.064344	0.008241	0.529850
H126	H	0.077653	0.008301	0.529384
H127	H	0.550674	-0.579628	0.556096
H128	H	-0.037264	-0.377079	0.941710
C129	C	-0.225119	-0.608815	0.451456
C130	C	-0.176133	-0.620852	0.426497
C131	C	-0.151184	-0.649553	0.458863
H132	H	-0.233247	-0.591948	0.470918
H133	H	-0.233291	-0.636992	0.470877
H134	H	-0.167964	-0.592679	0.407084
H135	H	-0.167990	-0.637725	0.407037
H136	H	-0.159356	-0.677730	0.478284
H137	H	-0.159317	-0.632683	0.478323
H138	H	-0.117945	-0.657727	0.441933
C139	C	0.550467	-0.588923	0.411856
C140	C	0.509780	-0.601658	0.444316
C141	C	0.509712	-0.637224	0.435562
H142	H	0.550403	-0.577339	0.380367
H143	H	0.578083	-0.616001	0.415397
H144	H	0.482171	-0.574585	0.440771
H145	H	0.509835	-0.613250	0.475808
H146	H	0.537328	-0.664302	0.439103
H147	H	0.509649	-0.625637	0.404073
H148	H	0.482109	-0.645872	0.457588
H149	H	0.550329	-0.403500	0.326702
H150	H	-0.036863	-0.519031	0.941619
H151	H	0.138832	-0.606554	0.941627
H152	H	0.138447	-0.464586	0.941669
H153	H	0.019320	-0.412483	0.814467
C154	C	0.550454	-0.394283	0.471127
C155	C	0.550502	-0.411544	0.517589
C156	C	0.550461	-0.376058	0.526555
H157	H	0.578028	-0.385562	0.449190
H158	H	0.522812	-0.367224	0.467636
H159	H	0.578141	-0.438594	0.521075
H160	H	0.522929	-0.420261	0.539536
H161	H	0.522819	-0.349000	0.523064
H162	H	0.578036	-0.367340	0.504616
H163	H	0.550489	-0.387763	0.558081
H164	H	0.167007	-0.486271	0.814352
H165	H	0.197059	-0.456117	0.723950
C166	C	0.176963	0.008727	0.343920
C167	C	0.206329	0.008844	0.360920
C168	C	0.250565	0.009158	0.325196
H169	H	0.191377	-0.018812	0.335117
H170	H	0.172635	0.036408	0.316958
H171	H	0.210658	-0.018833	0.387873
H172	H	0.191930	0.036381	0.369719
H173	H	0.246237	0.036838	0.298235
H174	H	0.264974	-0.018381	0.316396
H175	H	0.270494	0.009242	0.336724
H176	H	0.077514	-0.606615	0.529644
C177	C	-0.076417	-0.462414	0.539419
C178	C	-0.105760	-0.415957	0.522302
C179	C	-0.150110	-0.407119	0.557885
H180	H	-0.090745	-0.484373	0.548125
H181	H	-0.072270	-0.465965	0.566463
H182	H	-0.109908	-0.412411	0.495266
H183	H	-0.091448	-0.393988	0.513600
H184	H	-0.145963	-0.410669	0.584929
H185	H	-0.164433	-0.429081	0.566588
H186	H	-0.170023	-0.375596	0.546278
H187	H	0.049217	-0.382297	0.551240
H188	H	-0.058738	-0.490513	0.159288
C189	C	0.005740	-0.409148	0.524482
C190	C	-0.019051	-0.380530	0.553156
C191	C	-0.068070	-0.368479	0.565315
H192	H	-0.002528	-0.392210	0.496359
H193	H	-0.002428	-0.437328	0.541412
H194	H	-0.010886	-0.352354	0.536227
H195	H	-0.010797	-0.397459	0.581286
H196	H	-0.076238	-0.396658	0.582245
H197	H	-0.076333	-0.351542	0.537190
H198	H	-0.084897	-0.349064	0.584775
H199	H	0.166679	-0.486211	0.447227
C200	C	0.020970	-0.364935	0.344343
C201	C	0.061603	-0.364858	0.303599
C202	C	0.052900	-0.320521	0.267957
H203	H	-0.004973	-0.359119	0.336871
H204	H	0.013455	-0.340727	0.355273
H205	H	0.069112	-0.389058	0.292671
H206	H	0.087552	-0.370666	0.311056
H207	H	0.045385	-0.296314	0.278887
H208	H	0.026956	-0.314709	0.260489
H209	H	0.080469	-0.320461	0.240310
H210	H	0.055974	-0.119015	0.558014
H211	H	0.332881	-0.492283	0.542031
C212	C	0.210154	-0.459393	0.474013
C213	C	0.234943	-0.488034	0.445361
C214	C	0.283963	-0.500129	0.433243
H215	H	0.218365	-0.431243	0.457080
H216	H	0.218382	-0.476329	0.502165
H217	H	0.226719	-0.471098	0.417214
H218	H	0.226747	-0.516189	0.462285
H219	H	0.292190	-0.517064	0.461395
H220	H	0.292168	-0.471976	0.416312
H221	H	0.300788	-0.519566	0.413806
H222	H	0.423225	-0.376108	0.456057
C223	C	0.429961	-0.535615	0.513820
C224	C	0.397490	-0.560102	0.538142
C225	C	0.422329	-0.608746	0.545270
H226	H	0.449381	-0.540295	0.483905
H227	H	0.449411	-0.547323	0.532082
H228	H	0.378048	-0.548398	0.519880
H229	H	0.378069	-0.555436	0.568062
H230	H	0.441779	-0.620455	0.563533
H231	H	0.441748	-0.613422	0.515353
H232	H	0.400301	-0.625368	0.561777
C233	C	0.326140	-0.332781	0.484303
C234	C	0.358615	-0.308300	0.460004
C235	C	0.333780	-0.259663	0.452920
H236	H	0.306679	-0.321031	0.466045
H237	H	0.306731	-0.328143	0.514245
H238	H	0.378016	-0.312935	0.430067
H239	H	0.378076	-0.320035	0.478255
H240	H	0.314370	-0.255024	0.482861
H241	H	0.314320	-0.247918	0.434662
H242	H	0.355810	-0.243047	0.436436
H243	H	0.159856	-0.209371	0.440456
H244	H	0.165136	-0.518689	0.353905
H245	H	0.086148	-0.209418	0.588113
C246	C	0.132901	-0.112256	0.397046
C247	C	0.115950	-0.124389	0.376555
C248	C	0.127917	-0.099524	0.327546
H249	H	0.118900	-0.079003	0.391739
H250	H	0.166524	-0.120418	0.383005
H251	H	0.082335	-0.116223	0.390591
H252	H	0.129950	-0.157638	0.381849
H253	H	0.161539	-0.107687	0.313506
H254	H	0.113915	-0.066272	0.322244
H255	H	0.116422	-0.107756	0.313637
C256	C	-0.031804	-0.447117	0.062205
C257	C	-0.060494	-0.422289	0.094673
C258	C	-0.072571	-0.373273	0.069830
H259	H	-0.003651	-0.438911	0.042808
H260	H	-0.048696	-0.438914	0.042730
H261	H	-0.043602	-0.430488	0.114140
H262	H	-0.088653	-0.430480	0.114071
H263	H	-0.089463	-0.365070	0.050355
H264	H	-0.044417	-0.365073	0.050434
H265	H	-0.092042	-0.356422	0.091856
H266	H	0.015032	-0.638195	0.159378
C267	C	0.053081	-0.616983	0.062301
C268	C	0.060014	-0.663435	0.094808
C269	C	0.088697	-0.695930	0.070010
H270	H	0.037939	-0.612242	0.042816
H271	H	0.082982	-0.612262	0.042918
H272	H	0.030118	-0.668154	0.114183
H273	H	0.075162	-0.668191	0.114295
H274	H	0.118599	-0.691208	0.050626
H275	H	0.073553	-0.691184	0.050525
H276	H	0.093409	-0.727450	0.092062
C277	C	-0.066830	-0.481685	0.324594
C278	C	-0.108336	-0.453074	0.349580
C279	C	-0.137020	-0.420639	0.320959
H280	H	-0.049952	-0.462221	0.296430
H281	H	-0.075020	-0.498559	0.316400
H282	H	-0.100146	-0.436202	0.357768
H283	H	-0.125227	-0.472525	0.377742
H284	H	-0.145209	-0.437512	0.312766
H285	H	-0.120137	-0.401178	0.292797
H286	H	-0.165186	-0.401225	0.337910
C287	C	-0.032227	-0.447121	0.359360
C288	C	-0.057199	-0.435171	0.400947
C289	C	-0.069279	-0.386180	0.388994
H290	H	-0.004072	-0.438931	0.342519
H291	H	-0.051645	-0.430185	0.339886
H292	H	-0.037782	-0.452102	0.420413
H293	H	-0.085360	-0.443350	0.417793
H294	H	-0.088697	-0.369243	0.369520
H295	H	-0.041121	-0.377994	0.372152
H296	H	-0.086228	-0.378064	0.417208
C297	C	0.052483	-0.616960	0.444303
C298	C	0.059440	-0.663413	0.451293
C299	C	0.088005	-0.695905	0.480026
H300	H	0.082384	-0.612269	0.429175
H301	H	0.037231	-0.612186	0.474185
H302	H	0.074692	-0.668186	0.421416
H303	H	0.029547	-0.668120	0.466427
H304	H	0.072754	-0.691130	0.509908
H305	H	0.117904	-0.691209	0.464895
H306	H	0.092726	-0.727427	0.484776
H307	H	0.014660	-0.638178	0.406265
H308	H	0.081021	-0.864532	0.371574
C309	C	0.059719	-0.767464	0.335021
C310	C	0.105826	-0.799990	0.332469
C311	C	0.137939	-0.775212	0.308881
H312	H	0.058557	-0.748027	0.303766
H313	H	0.051392	-0.748032	0.352012
H314	H	0.114151	-0.819414	0.315477
H315	H	0.107003	-0.819428	0.363717
H316	H	0.129612	-0.755780	0.325873
H317	H	0.136773	-0.755776	0.277629
H318	H	0.169226	-0.797277	0.307151
H319	H	-0.065262	-0.864385	0.427124
H320	H	-0.322352	-0.570775	0.472713
C321	C	-0.108536	-0.767287	0.398860
C322	C	-0.133031	-0.799740	0.423089
C323	C	-0.181650	-0.774877	0.430090
H324	H	-0.120318	-0.747832	0.417135
H325	H	-0.113118	-0.747866	0.368893
H326	H	-0.128451	-0.819153	0.453051
H327	H	-0.121263	-0.819195	0.404822
H328	H	-0.186233	-0.755456	0.400123
H329	H	-0.193428	-0.755423	0.448364
H330	H	-0.198276	-0.796892	0.446526
H331	H	-0.231721	-0.527215	0.295000
C332	C	-0.328782	-0.489196	0.316107
C333	C	-0.296240	-0.482246	0.269677
C334	C	-0.320997	-0.453563	0.237143
H335	H	-0.348225	-0.504347	0.320793
H336	H	-0.348202	-0.459297	0.320842
H337	H	-0.276828	-0.512140	0.264943
H338	H	-0.276795	-0.467090	0.264975
H339	H	-0.340417	-0.423664	0.241878
H340	H	-0.340440	-0.468717	0.241834
H341	H	-0.298922	-0.448840	0.205636
