data_functionalizedCrystal
_audit_creation_method	'MofGen! by Chris Wilmer'
_symmetry_space_group_name_H-M	'P1'
_symmetry_Int_Tables_number	1
_symmetry_cell_setting	triclinic
loop_
_symmetry_equiv_pos_as_xyz
  x,y,z
_cell_length_a	19.288864
_cell_length_b	9.565339
_cell_length_c	19.288865
_cell_angle_alpha	90.004994
_cell_angle_beta	83.136245
_cell_angle_gamma	90.017383
loop_
_atom_site_label
_atom_site_type_symbol
_atom_site_fract_x
_atom_site_fract_y
_atom_site_fract_z
O1	O	0.921348	0.116724	0.086643
O2	O	0.719087	0.116631	0.098331
O3	O	0.826062	0.116652	-0.008643
O4	O	0.814373	0.116702	0.193617
O5	O	0.826054	-0.115868	-0.008637
O6	O	0.719079	-0.115889	0.098338
O7	O	0.921339	-0.115796	0.086649
Zn8	Zn	0.820208	-0.152760	0.092495
Zn9	Zn	0.820219	0.153595	0.092486
O10	O	0.814365	-0.115818	0.193624
C11	C	0.693207	0.000358	0.097959
C12	C	0.616103	0.000321	0.096830
N13	N	0.820205	-0.361840	0.092500
C14	C	0.571407	0.000359	0.159598
C15	C	0.498960	0.000374	0.158537
C16	C	0.471212	0.000380	0.094705
C17	C	0.515918	0.000335	0.031929
C18	C	0.588364	0.000305	0.032991
C19	C	0.362953	0.081877	0.044523
C20	C	0.290509	0.081914	0.043463
C21	C	0.247767	0.000464	0.091425
C22	C	0.277476	-0.081007	0.140458
C23	C	0.349922	-0.081036	0.141521
C24	C	0.392658	0.000411	0.093546
C25	C	0.124514	0.000516	0.153047
C26	C	0.052066	0.000522	0.151984
C27	C	0.069026	0.000497	0.025374
C28	C	0.141473	0.000476	0.026439
C29	C	0.169212	0.000492	0.090278
C30	C	0.770718	-0.453053	0.141956
C31	C	0.833443	-0.546198	0.155238
C32	C	0.757508	-0.546250	0.079224
C33	C	0.882962	-0.452933	0.105813
C34	C	0.806985	-0.452976	0.029772
C35	C	0.869755	-0.546080	0.043027
C36	C	0.947220	0.000480	0.087022
C37	C	1.024324	0.000526	0.088151
C38	C	0.825682	0.000388	-0.034516
C39	C	0.824553	0.000375	-0.111620
N40	N	0.820227	0.362674	0.092475
C41	C	0.887321	0.000397	-0.156316
C42	C	0.886260	0.000419	-0.228763
C43	C	0.822428	0.000390	-0.256511
C44	C	0.759652	0.000376	-0.211805
C45	C	0.760714	0.000369	-0.139359
C46	C	0.772245	-0.081080	-0.364796
C47	C	0.771185	-0.081081	-0.437240
C48	C	0.819148	0.000420	-0.479956
C49	C	0.868182	0.081904	-0.450221
C50	C	0.869245	0.081896	-0.377775
C51	C	0.821269	0.000400	-0.335065
C52	C	0.880770	0.000468	-0.603209
C53	C	0.879707	0.000498	-0.675657
C54	C	0.753097	0.000441	-0.658697
C55	C	0.754162	0.000425	-0.586250
C56	C	0.818000	0.000432	-0.558511
C57	C	0.814745	0.000450	0.219497
C58	C	0.815874	0.000472	0.296601
H59	H	0.593987	0.000375	0.211580
O60	O	0.919689	-0.594751	-0.006875
C61	C	0.918790	-0.742141	-0.006709
H62	H	0.865263	-0.780556	0.017190
H63	H	0.929936	-0.782238	-0.062587
H64	H	0.960444	-0.782812	0.025402
O65	O	0.042114	0.000254	-0.036651
C66	C	0.064959	-0.120167	-0.074906
H67	H	0.079894	-0.204336	-0.037573
H68	H	0.021152	-0.160578	-0.104317
H69	H	0.112303	-0.092963	-0.113762
H70	H	0.844640	-0.587145	0.208274
H71	H	0.937375	0.000443	-0.265162
O72	O	0.184866	0.000705	-0.034554
C73	C	0.172338	0.121111	-0.073334
H74	H	0.147483	0.205295	-0.036588
H75	H	0.223836	0.161510	-0.101351
H76	H	0.135566	0.093893	-0.113420
H77	H	0.909169	0.148246	-0.353567
H78	H	0.701123	0.000425	-0.681288
H79	H	0.266325	0.148258	0.003540
H80	H	0.728906	-0.412206	0.183818
H81	H	0.907238	0.148270	-0.484999
H82	H	0.624756	0.000276	-0.018124
H83	H	0.795769	-0.411997	-0.023247
O84	O	0.455460	0.000606	0.219466
C85	C	0.413094	0.121070	0.222632
H86	H	0.409619	0.161197	0.167507
H87	H	0.358552	0.094025	0.248674
H88	H	0.436851	0.205397	0.254275
O89	O	0.404365	0.161142	-0.002096
C90	C	0.362611	0.233042	-0.045604
H91	H	0.307174	0.242893	-0.018015
H92	H	0.385207	0.341732	-0.057536
H93	H	0.361690	0.172645	-0.096441
H94	H	0.733186	-0.147455	-0.330022
O95	O	0.378672	-0.160308	0.189170
C96	C	0.325418	-0.232169	0.231289
H97	H	0.277567	-0.241992	0.202189
H98	H	0.344685	-0.340870	0.243840
H99	H	0.310938	-0.171757	0.281898
O100	O	0.489050	0.000532	-0.030121
C101	C	0.511929	0.120956	-0.068368
H102	H	0.562130	0.161082	-0.049599
H103	H	0.522156	0.093858	-0.126242
H104	H	0.470004	0.205304	-0.060193
O105	O	0.946177	-0.404018	0.119342
C106	C	0.945390	-0.256627	0.119229
H107	H	0.889232	-0.218113	0.130278
H108	H	0.976980	-0.215929	0.161307
H109	H	0.969322	-0.216654	0.066011
H110	H	0.242677	-0.147333	0.179513
O111	O	0.694186	-0.594978	0.065918
C112	C	0.642165	-0.547607	0.118212
H113	H	0.661256	-0.449466	0.143604
H114	H	0.592595	-0.522525	0.093874
H115	H	0.630577	-0.632520	0.159443
H116	H	0.939303	0.000408	-0.133736
O117	O	0.942796	0.000745	-0.576289
C118	C	0.981054	0.121179	-0.599152
H119	H	0.943723	0.205328	-0.614101
H120	H	1.010464	0.161612	-0.555349
H121	H	1.019911	0.093984	-0.646490
O122	O	0.940666	0.000773	-0.719105
C123	C	0.943842	0.121192	-0.761517
H124	H	0.908244	0.205345	-0.734866
H125	H	0.999820	0.161632	-0.769832
H126	H	0.926030	0.093976	-0.814148
O127	O	0.697689	0.000532	-0.238838
C128	C	0.693285	0.120974	-0.280216
H129	H	0.748090	0.161144	-0.298428
H130	H	0.665746	0.093882	-0.327573
H131	H	0.662459	0.205287	-0.248109
H132	H	0.703049	0.000399	-0.549857
O133	O	0.699693	0.000525	-0.096008
C134	C	0.660935	0.120955	-0.108528
H135	H	0.678164	0.161123	-0.163536
H136	H	0.602987	0.093847	-0.103252
H137	H	0.670313	0.205275	-0.068922
O138	O	0.723491	-0.160265	-0.466007
C139	C	0.681391	-0.232212	-0.412773
H140	H	0.682236	-0.174607	-0.361140
H141	H	0.625497	-0.237494	-0.426261
H142	H	0.702394	-0.342713	-0.407871
H143	H	0.147101	0.000508	0.205028
H144	H	0.015674	0.000545	0.203099
