data_functionalizedCrystal
_audit_creation_method	'MofGen! by Chris Wilmer'
_symmetry_space_group_name_H-M	'P1'
_symmetry_Int_Tables_number	1
_symmetry_cell_setting	triclinic
loop_
_symmetry_equiv_pos_as_xyz
  x,y,z
_cell_length_a	8.497374
_cell_length_b	8.497374
_cell_length_c	19.805407
_cell_angle_alpha	89.998906
_cell_angle_beta	90.004912
_cell_angle_gamma	90.004389
loop_
_atom_site_label
_atom_site_type_symbol
_atom_site_fract_x
_atom_site_fract_y
_atom_site_fract_z
Zn1	Zn	0.892223	0.628316	1.034757
Zn2	Zn	0.628489	0.892066	1.034751
Zn3	Zn	0.628438	0.628294	0.921600
Zn4	Zn	0.892208	0.892048	0.921585
O5	O	0.760339	0.760181	0.978173
O6	O	0.857266	0.663320	1.129473
O7	O	0.407720	0.857074	1.019745
O8	O	0.663415	0.407534	0.936620
O9	O	0.663502	0.857096	1.129468
O10	O	0.857217	0.407551	1.019755
O11	O	0.407682	0.663282	0.936614
O12	O	0.663399	0.663264	0.826882
O13	O	1.112972	0.857066	0.936594
O14	O	0.857190	0.857044	0.826870
O15	O	1.112984	0.663303	1.019740
O16	O	0.663487	1.112826	1.019730
O17	O	0.857240	1.112813	0.936588
C18	C	0.760288	0.760151	0.802317
C19	C	0.760304	0.760176	0.727085
C20	C	0.861047	0.861229	0.691753
C21	C	0.861070	0.861231	0.621064
C22	C	0.760339	0.760188	0.585710
C23	C	0.659591	0.659124	0.621047
C24	C	0.659578	0.659115	0.691734
C25	C	0.659644	0.659159	0.335974
C26	C	0.659661	0.659180	0.265282
C27	C	0.861135	0.861276	0.265304
C28	C	0.861122	0.861266	0.335991
C29	C	0.760381	0.760197	0.371322
C30	C	0.760360	0.760193	0.447971
C31	C	0.760351	0.760199	0.509063
C32	C	1.350460	0.760206	0.978177
C33	C	1.171816	0.760199	0.978170
C34	C	0.760362	1.170061	0.978165
C35	C	0.760336	1.348705	0.978183
C36	C	0.760392	0.760212	1.154716
C37	C	0.760414	0.760226	1.229948
H38	H	0.577551	0.576819	0.720501
F39	F	0.968253	0.968782	0.729374
F40	F	0.968355	0.968842	0.227697
F41	F	0.552430	0.551589	0.373567
F42	F	0.552396	0.551576	0.583418
F43	F	0.968295	0.968785	0.583464
H44	H	0.577634	0.576889	0.236498
F45	F	0.968326	0.968816	0.373615
