data_functionalizedCrystal
_audit_creation_method	'MofGen! by Chris Wilmer'
_symmetry_space_group_name_H-M	'P1'
_symmetry_Int_Tables_number	1
_symmetry_cell_setting	triclinic
loop_
_symmetry_equiv_pos_as_xyz
  x,y,z
_cell_length_a	21.395364
_cell_length_b	19.121063
_cell_length_c	21.395355
_cell_angle_alpha	87.579260
_cell_angle_beta	90.024552
_cell_angle_gamma	92.483930
loop_
_atom_site_label
_atom_site_type_symbol
_atom_site_fract_x
_atom_site_fract_y
_atom_site_fract_z
Zn1	Zn	0.947240	-0.279421	0.364885
Zn2	Zn	1.280573	0.053913	0.698218
Zn3	Zn	1.613906	0.387246	1.031552
Zn4	Zn	0.942679	-0.396856	0.264572
Zn5	Zn	1.276012	-0.063523	0.597906
Zn6	Zn	1.609346	0.269811	0.931239
Zn7	Zn	0.842454	-0.279451	0.260123
Zn8	Zn	1.175787	0.053882	0.593456
Zn9	Zn	1.509120	0.387215	0.926789
Zn10	Zn	0.837960	-0.396868	0.369313
Zn11	Zn	1.171294	-0.063535	0.702646
Zn12	Zn	1.504627	0.269798	1.035980
O13	O	0.892583	-0.338149	0.314723
O14	O	1.225917	-0.004816	0.648057
O15	O	1.559250	0.328518	0.981390
O16	O	1.034313	-0.294981	0.351587
O17	O	1.367647	0.038353	0.684921
O18	O	1.700980	0.371686	1.018254
O19	O	0.929356	-0.381290	0.176304
O20	O	1.262689	-0.047956	0.509638
O21	O	1.596022	0.285377	0.842971
O22	O	0.860143	-0.181161	0.270304
O23	O	1.193476	0.152173	0.603638
O24	O	1.526809	0.485506	0.936971
O25	O	1.030963	-0.381260	0.277888
O26	O	1.364296	-0.047926	0.611221
O27	O	1.697629	0.285407	0.944555
O28	O	0.937129	-0.181138	0.347273
O29	O	1.270462	0.152195	0.680606
O30	O	1.603795	0.485529	1.013939
O31	O	0.855721	-0.295033	0.173035
O32	O	1.189054	0.038300	0.506369
O33	O	1.522387	0.371634	0.839702
O34	O	0.754179	-0.295045	0.274598
O35	O	1.087512	0.038288	0.607931
O36	O	1.420846	0.371622	0.941265
O37	O	0.852485	-0.381281	0.456403
O38	O	1.185818	-0.047948	0.789737
O39	O	1.519151	0.285386	1.123070
O40	O	0.750878	-0.381311	0.354820
O41	O	1.084211	-0.047978	0.688153
O42	O	1.417544	0.285356	1.021486
O43	O	0.932772	-0.294993	0.453150
O44	O	1.266105	0.038341	0.786483
O45	O	1.599439	0.371674	1.119817
O46	O	0.924999	-0.495144	0.282182
O47	O	1.258332	-0.161811	0.615515
O48	O	1.591666	0.171523	0.948848
O49	O	0.848062	-0.495153	0.359134
O50	O	1.181396	-0.161820	0.692467
O51	O	1.514729	0.171513	1.025801
C52	C	0.729794	-0.338183	0.314707
C53	C	1.063128	-0.004850	0.648040
C54	C	1.396461	0.328483	0.981374
C55	C	0.660152	-0.338215	0.314715
C56	C	0.993485	-0.004881	0.648049
C57	C	1.326819	0.328452	0.981382
C58	C	0.629203	-0.293363	0.353155
C59	C	0.962536	0.039971	0.686489
C60	C	1.295870	0.373304	1.019822
C61	C	0.563768	-0.293344	0.353157
C62	C	0.897102	0.039989	0.686490
C63	C	1.230435	0.373323	1.019824
C64	C	0.529284	-0.338190	0.314726
C65	C	0.862618	-0.004857	0.648059
C66	C	1.195951	0.328477	0.981393
C67	C	0.560241	-0.383045	0.276278
C68	C	0.893574	-0.049712	0.609612
C69	C	1.226908	0.283622	0.942945
C70	C	0.625675	-0.383058	0.276273
C71	C	0.959008	-0.049724	0.609606
C72	C	1.292341	0.283609	0.942940
C73	C	0.423156	-0.401442	0.312093
C74	C	0.756490	-0.068108	0.645427
C75	C	1.089823	0.265225	0.978760
C76	C	0.357724	-0.401431	0.312103
C77	C	0.691057	-0.068097	0.645436
C78	C	1.024390	0.265236	0.978770
C79	C	0.327465	-0.338151	0.314738
C80	C	0.660799	-0.004818	0.648072
C81	C	0.994132	0.328515	0.981405
C82	C	0.362647	-0.274881	0.317377
C83	C	0.695981	0.058452	0.650711
C84	C	1.029314	0.391785	0.984044
C85	C	0.428081	-0.274894	0.317372
C86	C	0.761414	0.058440	0.650705
C87	C	1.094748	0.391773	0.984039
C88	C	0.458332	-0.338181	0.314727
C89	C	0.791666	-0.004848	0.648060
C90	C	1.124999	0.328485	0.981394
C91	C	0.225565	-0.293275	0.353182
C92	C	0.558898	0.040058	0.686516
C93	C	0.892231	0.373391	1.019849
C94	C	0.160129	-0.293255	0.353179
C95	C	0.493462	0.040078	0.686513
C96	C	0.826796	0.373411	1.019846
C97	C	0.156603	-0.382963	0.276304
C98	C	0.489936	-0.049629	0.609638
C99	C	0.823269	0.283704	0.942971
C100	C	0.222038	-0.382976	0.276303
C101	C	0.555371	-0.049643	0.609637
C102	C	0.888704	0.283690	0.942970
C103	C	0.256515	-0.338134	0.314746
C104	C	0.589848	-0.004800	0.648079
C105	C	0.923181	0.328533	0.981412
C106	C	0.885565	-0.520633	0.321635
C107	C	1.218899	-0.187300	0.654968
C108	C	1.552232	0.146033	0.988302
C109	C	0.882620	-0.598701	0.324613
C110	C	1.215954	-0.265367	0.657946
C111	C	1.549287	0.067966	0.991279
C112	C	0.921324	-0.635349	0.285980
C113	C	1.254658	-0.302016	0.619313
C114	C	1.587991	0.031318	0.952646
C115	C	0.918558	-0.708702	0.288784
C116	C	1.251892	-0.375368	0.622117
C117	C	1.585225	-0.042035	0.955451
C118	C	0.877084	-0.745405	0.330218
C119	C	1.210418	-0.412072	0.663552
C120	C	1.543751	-0.078738	0.996885
C121	C	0.838379	-0.708752	0.368856
C122	C	1.171712	-0.375418	0.702189
C123	C	1.505045	-0.042085	1.035522
C124	C	0.841148	-0.635400	0.366054
C125	C	1.174482	-0.302067	0.699387
C126	C	1.507815	0.031266	1.032721
C127	C	0.866719	-0.966880	0.340683
C128	C	1.200053	-0.633547	0.674016
C129	C	1.533386	-0.300213	1.007350
C130	C	0.863951	-1.040237	0.343480
C131	C	1.197284	-0.706903	0.676814
C132	C	1.530618	-0.373570	1.010147
C133	C	0.944132	-1.040182	0.263409
C134	C	1.277465	-0.706848	0.596743
C135	C	1.610799	-0.373515	0.930076
C136	C	0.946895	-0.966829	0.260609
C137	C	1.280229	-0.633495	0.593942
C138	C	1.613562	-0.300162	0.927275
C139	C	0.908192	-0.930182	0.299248
C140	C	1.241525	-0.596849	0.632581
C141	C	1.574859	-0.263515	0.965915
C142	C	0.874255	-0.820383	0.333084
C143	C	1.207588	-0.487050	0.666418
C144	C	1.540921	-0.153716	0.999751
C145	C	0.911025	-0.855205	0.296385
C146	C	1.244359	-0.521872	0.629718
C147	C	1.577692	-0.188538	0.963051
C148	C	1.056008	-0.338115	0.314740
C149	C	1.389341	-0.004782	0.648073
C150	C	1.722674	0.328551	0.981407
C151	C	1.125650	-0.338101	0.314747
C152	C	1.458983	-0.004768	0.648080
C153	C	1.792316	0.328566	0.981414
C154	C	0.892636	-0.338135	0.478146
C155	C	1.225969	-0.004802	0.811479
C156	C	1.559302	0.328532	1.144813
C157	C	0.892658	-0.338129	0.547787
C158	C	1.225992	-0.004795	0.881120
C159	C	1.559325	0.328538	1.214454
C160	C	0.899646	-0.154952	0.307798
C161	C	1.232979	0.178381	0.641132
C162	C	1.566312	0.511714	0.974465
C163	C	0.902655	-0.076885	0.304847
C164	C	1.235989	0.256449	0.638181
C165	C	1.569322	0.589782	0.971514
C166	C	0.892569	-0.338113	0.151934
C167	C	1.225902	-0.004779	0.485268
C168	C	1.559236	0.328554	0.818601
C169	C	0.892675	-0.337921	0.082286
C170	C	1.226009	-0.004587	0.415619
C171	C	1.559342	0.328746	0.748953
C172	C	0.934462	-0.293197	0.578807
C173	C	1.267795	0.040137	0.912141
C174	C	1.601129	0.373470	1.245474
C175	C	0.934462	-0.293166	0.644241
C176	C	1.267796	0.040167	0.977575
C177	C	1.601129	0.373500	1.310908
C178	C	0.892665	-0.338081	0.678654
C179	C	1.225998	-0.004748	1.011987
C180	C	1.559332	0.328586	1.345320
C181	C	0.850853	-0.383016	0.647626
C182	C	1.184186	-0.049683	0.980959
C183	C	1.517520	0.283650	1.314292
C184	C	0.850850	-0.383040	0.582193
C185	C	1.184183	-0.049707	0.915526
C186	C	1.517516	0.283626	1.248859
C187	C	0.885285	-0.401324	0.784724
C188	C	1.218619	-0.067990	1.118057
C189	C	1.551952	0.265343	1.451390
C190	C	0.885293	-0.401301	0.850156
C191	C	1.218626	-0.067968	1.183489
C192	C	1.551960	0.265366	1.516822
C193	C	0.892672	-0.338007	0.880472
C194	C	1.226005	-0.004673	1.213805
C195	C	1.559338	0.328660	1.547138
C196	C	0.900056	-0.274733	0.845347
C197	C	1.233389	0.058600	1.178681
C198	C	1.566722	0.391933	1.512014
C199	C	0.900052	-0.274757	0.779914
C200	C	1.233386	0.058576	1.113247
C201	C	1.566719	0.391909	1.446581
C202	C	0.892664	-0.338060	0.749605
C203	C	1.225997	-0.004726	1.082939
C204	C	1.559330	0.328607	1.416272
C205	C	0.934478	-0.293038	0.982443
C206	C	1.267811	0.040295	1.315776
C207	C	1.601145	0.373629	1.649110
C208	C	0.934474	-0.293006	1.047878
C209	C	1.267807	0.040327	1.381212
C210	C	1.601141	0.373660	1.714545
C211	C	0.850868	-0.382863	1.051262
C212	C	1.184201	-0.049529	1.384595
C213	C	1.517534	0.283804	1.717928
C214	C	0.850869	-0.382888	0.985827
C215	C	1.184202	-0.049555	1.319161
C216	C	1.517535	0.283779	1.652494
C217	C	0.892677	-0.337976	0.951422
C218	C	1.226011	-0.004643	1.284755
C219	C	1.559344	0.328690	1.618089
H220	H	0.134932	-0.256727	0.384481
H221	H	0.468265	0.076606	0.717814
H222	H	0.801598	0.409939	1.051147
F223	F	0.819800	-1.079297	0.387576
F224	F	1.153134	-0.745964	0.720909
F225	F	1.486467	-0.412631	1.054243
F226	F	0.907911	-0.207366	0.877606
F227	F	1.241245	0.125968	1.210939
F228	F	1.574578	0.459301	1.544273
F229	F	0.530823	-0.245603	0.394071
F230	F	0.864157	0.087730	0.727404
F231	F	1.197490	0.421063	1.060738
H232	H	0.835204	-0.937048	0.372144
H233	H	1.168537	-0.603715	0.705477
H234	H	1.501871	-0.270381	1.038810
F235	F	0.330450	-0.207529	0.320182
F236	F	0.663783	0.125804	0.653515
F237	F	0.997117	0.459137	0.986849
H238	H	0.955094	-0.605470	0.252237
H239	H	1.288427	-0.272137	0.585570
H240	H	1.621761	0.061197	0.918903
H241	H	0.968505	-0.256625	0.550798
H242	H	1.301838	0.076708	0.884132
H243	H	1.635172	0.410041	1.217465
H244	H	0.968515	-0.256413	1.073134
H245	H	1.301848	0.076920	1.406467
H246	H	1.635182	0.410254	1.739800
H247	H	0.456724	-0.223377	0.319519
H248	H	0.790057	0.109956	0.652852
H249	H	1.123390	0.443289	0.986186
F250	F	0.978971	-0.245237	0.945824
F251	F	1.312304	0.088096	1.279157
F252	F	1.645638	0.421430	1.612491
H253	H	0.253638	-0.256757	0.384480
H254	H	0.586971	0.076576	0.717813
H255	H	0.920304	0.409910	1.051147
F256	F	0.794242	-0.747816	0.412957
F257	F	1.127576	-0.414482	0.746290
F258	F	1.460909	-0.081149	1.079624
H259	H	0.816829	-0.419426	1.079279
H260	H	1.150163	-0.086093	1.412613
H261	H	1.483496	0.247241	1.745946
H262	H	0.816831	-0.419481	0.960571
H263	H	1.150164	-0.086148	1.293904
H264	H	1.483498	0.247186	1.627237
F265	F	0.959755	-0.747702	0.247667
F266	F	1.293088	-0.414369	0.581000
F267	F	1.626422	-0.081036	0.914334
F268	F	0.254977	-0.430712	0.235388
F269	F	0.588310	-0.097379	0.568721
F270	F	0.921644	0.235954	0.902054
H271	H	0.816819	-0.419584	0.675648
H272	H	1.150153	-0.086251	1.008982
H273	H	1.483486	0.247083	1.342315
H274	H	0.329083	-0.452949	0.309957
H275	H	0.662417	-0.119615	0.643290
H276	H	0.995750	0.213718	0.976624
H277	H	0.816805	-0.419629	0.556936
H278	H	1.150138	-0.086295	0.890270
H279	H	1.483472	0.247038	1.223603
H280	H	0.840485	-0.850275	0.366819
H281	H	1.173819	-0.516942	0.700153
H282	H	1.507152	-0.183608	1.033486
F283	F	0.877440	-0.468642	0.887532
F284	F	1.210773	-0.135308	1.220865
F285	F	1.544107	0.198025	1.554198
H286	H	0.944796	-0.825319	0.262651
H287	H	1.278129	-0.491986	0.595984
H288	H	1.611462	-0.158652	0.929318
H289	H	0.809632	-0.605562	0.397514
H290	H	1.142965	-0.272229	0.730847
H291	H	1.476299	0.061105	1.064180
H292	H	0.879110	-0.452852	0.760046
H293	H	1.212443	-0.119519	1.093379
H294	H	1.545776	0.213814	1.426712
F295	F	0.991045	-0.927772	0.216515
F296	F	1.324378	-0.594438	0.549849
F297	F	1.657711	-0.261105	0.883182
H298	H	0.128527	-0.419477	0.245013
H299	H	0.461860	-0.086144	0.578346
H300	H	0.795193	0.247190	0.911679
H301	H	0.447787	-0.452975	0.309947
H302	H	0.781120	-0.119642	0.643280
H303	H	1.114453	0.213692	0.976613
H304	H	0.657270	-0.256848	0.384458
H305	H	0.990604	0.076486	0.717791
H306	H	1.323937	0.409819	1.051124
H307	H	0.532160	-0.419558	0.244987
H308	H	0.865494	-0.086225	0.578320
H309	H	1.198827	0.247108	0.911654
F310	F	0.978948	-0.245330	0.677262
F311	F	1.312281	0.088004	1.010595
F312	F	1.645614	0.421337	1.343929
H313	H	0.975643	-1.070027	0.231952
H314	H	1.308976	-0.736694	0.565285
H315	H	1.642310	-0.403361	0.898619
H316	H	0.650873	-0.419583	0.244970
H317	H	0.984206	-0.086249	0.578303
H318	H	1.317539	0.247084	0.911636
F319	F	0.907908	-0.207419	0.742535
F320	F	1.241241	0.125914	1.075868
F321	F	1.574574	0.459248	1.409201
