data_functionalizedCrystal
_audit_creation_method	'MofGen! by Chris Wilmer'
_symmetry_space_group_name_H-M	'P1'
_symmetry_Int_Tables_number	1
_symmetry_cell_setting	triclinic
loop_
_symmetry_equiv_pos_as_xyz
  x,y,z
_cell_length_a	19.188925
_cell_length_b	19.188930
_cell_length_c	11.295483
_cell_angle_alpha	94.076039
_cell_angle_beta	85.907741
_cell_angle_gamma	83.143665
loop_
_atom_site_label
_atom_site_type_symbol
_atom_site_fract_x
_atom_site_fract_y
_atom_site_fract_z
O1	O	0.930866	0.082431	-0.099063
O2	O	0.727554	0.094169	-0.099062
O3	O	0.835076	-0.013354	-0.099039
O4	O	0.823344	0.189955	-0.099086
O5	O	0.825633	-0.003925	0.099009
O6	O	0.718111	0.103599	0.098987
O7	O	0.921423	0.091861	0.098986
Cu8	Cu	0.818904	0.098591	0.117070
Cu9	Cu	0.830073	0.087439	-0.117146
O10	O	0.813901	0.199385	0.098963
C11	C	0.696821	0.098505	-0.000037
C12	C	0.619317	0.097366	-0.000035
C13	C	0.057547	0.152829	-0.000051
C14	C	0.130371	0.153905	-0.000057
C15	C	0.175304	0.090814	-0.000041
C16	C	0.147411	0.026640	-0.000048
C17	C	0.074589	0.025565	-0.000054
N18	N	0.292766	0.048348	0.067387
N19	N	0.361943	0.049374	0.067394
C20	C	0.394713	0.094048	-0.000028
N21	N	0.355690	0.137670	-0.067442
N22	N	0.286506	0.136647	-0.067445
C23	C	0.254268	0.091972	-0.000036
C24	C	0.501562	0.159385	-0.000036
C25	C	0.574388	0.160458	-0.000050
C26	C	0.591426	0.033191	-0.000029
C27	C	0.518602	0.032120	-0.000027
C28	C	0.473674	0.095218	-0.000025
C29	C	0.829974	-0.034650	-0.000011
C30	C	0.828833	-0.112154	-0.000001
C31	C	0.891924	-0.157079	0.000004
C32	C	0.890853	-0.229904	-0.000015
C33	C	0.826687	-0.257799	-0.000015
C34	C	0.763588	-0.212865	-0.000027
C35	C	0.764661	-0.140042	-0.000020
N36	N	0.774426	-0.362594	0.067385
N37	N	0.773410	-0.431773	0.067380
C38	C	0.823450	-0.477209	-0.000040
N39	N	0.874553	-0.450854	-0.067440
N40	N	0.875570	-0.381668	-0.067431
C41	C	0.825516	-0.336762	-0.000024
C42	C	0.885384	-0.601100	-0.000057
C43	C	0.884311	-0.673926	-0.000083
C44	C	0.757044	-0.656884	-0.000083
C45	C	0.758119	-0.584060	-0.000069
C46	C	0.822291	-0.556172	-0.000050
C47	C	0.952156	0.087525	-0.000042
C48	C	1.029661	0.088664	-0.000051
C49	C	0.819003	0.220680	-0.000067
C50	C	0.820144	0.298184	-0.000085
N51	N	0.811054	0.106434	0.281804
N52	N	0.837928	0.079591	-0.281881
C53	C	0.894439	0.023094	0.531111
C54	C	0.888511	0.029026	0.655774
C55	C	0.793269	0.124226	0.655794
C56	C	0.799196	0.118294	0.531131
C57	C	0.849783	0.067727	0.468795
C58	C	0.855714	0.061799	0.344130
C59	C	0.760469	0.156995	0.344152
C60	C	0.754541	0.162927	0.468815
H61	H	0.051885	-0.026687	-0.000054
O62	O	0.694661	-0.683884	0.000073
C63	C	0.580683	-0.686766	0.102704
C64	C	0.651294	-0.656118	0.102668
H65	H	0.545607	-0.664341	0.185655
H66	H	0.553418	-0.672159	0.019878
H67	H	0.590774	-0.746533	0.102637
H68	H	0.641265	-0.596348	0.102776
H69	H	0.678538	-0.670780	0.185486
H70	H	0.628011	-0.018179	-0.000024
O71	O	0.954322	-0.130109	-0.000038
C72	C	1.080434	-0.154696	0.000047
C73	C	1.009820	-0.185336	0.000068
H74	H	1.125321	-0.199331	0.000158
H75	H	1.088124	-0.124993	-0.082852
H76	H	1.080126	-0.117067	0.082915
H77	H	1.010077	-0.222993	-0.082743
H78	H	1.002158	-0.214997	0.083022
H79	H	0.711344	-0.235582	-0.000030
O80	O	0.947782	-0.574123	-0.000112
C81	C	1.073896	-0.598708	-0.000066
C82	C	1.003282	-0.629349	-0.000025
H83	H	1.118785	-0.643342	0.000030
H84	H	1.081575	-0.569002	-0.082965
H85	H	1.073596	-0.561081	0.082801
H86	H	1.003531	-0.667005	-0.082836
H87	H	0.995630	-0.659012	0.082929
H88	H	0.935690	-0.710504	-0.000085
O89	O	0.491622	-0.030269	0.000041
C90	C	0.516212	-0.156387	-0.000006
C91	C	0.546858	-0.085777	-0.000050
H92	H	0.560856	-0.201285	-0.000104
H93	H	0.478616	-0.156174	0.082896
H94	H	0.486473	-0.163978	-0.082870
H95	H	0.576630	-0.078142	0.082758
H96	H	0.584417	-0.086024	-0.083007
O97	O	0.931866	-0.014431	0.716179
C98	C	0.971298	-0.134124	0.754386
C99	C	0.922174	-0.084987	0.685881
H100	H	0.963468	-0.191178	0.729934
H101	H	1.028373	-0.126398	0.729829
H102	H	0.958382	-0.121164	0.854188
H103	H	0.935027	-0.097916	0.586064
H104	H	0.865113	-0.092722	0.710537
O105	O	0.952133	-0.273594	-0.000212
C106	C	1.029652	-0.370611	-0.102759
C107	C	0.960245	-0.321172	-0.102701
H108	H	1.036226	-0.409101	-0.185600
H109	H	1.075733	-0.338210	-0.102822
H110	H	1.028357	-0.401156	-0.019838
H111	H	0.961471	-0.290617	-0.185609
H112	H	0.914194	-0.353613	-0.102576
H113	H	0.464980	0.210763	-0.000036
H114	H	0.706743	-0.547481	-0.000067
O115	O	0.601398	0.222830	-0.000215
C116	C	0.614027	0.327033	-0.102865
C117	C	0.583387	0.256420	-0.102810
H118	H	0.599489	0.354205	-0.185817
H119	H	0.591536	0.362187	-0.020040
H120	H	0.673789	0.316958	-0.102813
H121	H	0.523626	0.266430	-0.102905
H122	H	0.605933	0.221290	-0.185628
H123	H	0.724109	0.193340	0.293400
H124	H	0.896906	0.020627	0.293376
H125	H	0.020971	0.204209	-0.000055
O126	O	0.943497	-0.026042	0.470405
C127	C	0.965375	-0.128133	0.329676
C128	C	0.909738	-0.072529	0.398337
H129	H	0.938101	-0.165741	0.271412
H130	H	1.002915	-0.100870	0.271226
H131	H	0.996301	-0.158983	0.395638
H132	H	0.878761	-0.041662	0.332462
H133	H	0.872246	-0.099834	0.456805
H134	H	0.713284	-0.103464	-0.000024
O135	O	0.705370	0.211956	0.529508
C136	C	0.603256	0.233758	0.670238
C137	C	0.658908	0.178160	0.601601
H138	H	0.565668	0.206455	0.728522
H139	H	0.630479	0.271329	0.728666
H140	H	0.572390	0.264656	0.604261
H141	H	0.689791	0.147212	0.667491
H142	H	0.631643	0.140637	0.543155
O143	O	0.157514	0.216210	-0.000256
C144	C	0.234781	0.286388	-0.102792
C145	C	0.204085	0.215804	-0.102736
H146	H	0.272451	0.286078	-0.185626
H147	H	0.190193	0.331327	-0.102868
H148	H	0.264460	0.293996	-0.019864
H149	H	0.174413	0.208129	-0.185650
H150	H	0.248703	0.170902	-0.102598
O151	O	0.191134	-0.034608	-0.000189
C152	C	0.288112	-0.112154	-0.102810
C153	C	0.238653	-0.042761	-0.102777
H154	H	0.326533	-0.118774	-0.185756
H155	H	0.318726	-0.110901	-0.019978
H156	H	0.255652	-0.158187	-0.102753
H157	H	0.271060	0.003310	-0.102876
H158	H	0.208036	-0.044075	-0.185601
H159	H	0.752077	0.165391	0.706565
