data_functionalizedCrystal
_audit_creation_method	'MofGen! by Chris Wilmer'
_symmetry_space_group_name_H-M	'P1'
_symmetry_Int_Tables_number	1
_symmetry_cell_setting	triclinic
loop_
_symmetry_equiv_pos_as_xyz
  x,y,z
_cell_length_a	14.971487
_cell_length_b	11.792241
_cell_length_c	13.448316
_cell_angle_alpha	89.993651
_cell_angle_beta	89.991944
_cell_angle_gamma	96.096091
loop_
_atom_site_label
_atom_site_type_symbol
_atom_site_fract_x
_atom_site_fract_y
_atom_site_fract_z
O1	O	-0.122603	1.506106	0.082594
O2	O	-0.135238	1.175684	0.082617
O3	O	0.001244	1.349751	0.082600
O4	O	-0.259085	1.332039	0.082610
O5	O	0.001261	1.349759	-0.082784
O6	O	-0.135221	1.175692	-0.082767
O7	O	-0.122586	1.506115	-0.082790
Cu8	Cu	-0.128902	1.340904	-0.097880
Cu9	Cu	-0.128922	1.340894	0.097706
O10	O	-0.259068	1.332048	-0.082773
C11	C	-0.134436	1.133402	-0.000072
C12	C	-0.132061	1.007404	-0.000064
C13	C	-0.127692	0.776720	-0.000092
C14	C	-0.130119	0.905089	-0.000077
C15	C	0.034580	1.348963	-0.000091
C16	C	0.133887	1.346589	-0.000088
C17	C	0.190702	1.448849	-0.000095
C18	C	0.284011	1.446611	-0.000083
C19	C	0.320502	1.342113	-0.000072
C20	C	0.263679	1.239845	-0.000062
C21	C	0.170372	1.242084	-0.000067
C22	C	0.458160	1.235186	-0.000054
C23	C	0.551473	1.232947	-0.000051
C24	C	0.571798	1.439714	-0.000071
C25	C	0.478492	1.441952	-0.000076
C26	C	0.421675	1.339684	-0.000068
C27	C	0.707595	1.332835	-0.000076
C28	C	0.608288	1.335207	-0.000058
C29	C	-0.123389	1.548397	-0.000099
C30	C	-0.125764	1.674395	-0.000101
N31	N	-0.128930	1.340888	0.235270
N32	N	-0.128888	1.340920	-0.235444
C33	C	-0.183620	1.409676	0.712513
C34	C	-0.183624	1.409676	0.608410
C35	C	-0.128902	1.340912	0.556352
C36	C	-0.074164	1.272153	0.608402
C37	C	-0.074155	1.272160	0.712503
C38	C	-0.074188	1.272141	0.391422
C39	C	-0.074198	1.272132	0.287313
C40	C	-0.183658	1.409656	0.287329
C41	C	-0.183649	1.409664	0.391430
C42	C	-0.128912	1.340903	0.443473
H43	H	0.330267	1.529882	-0.000091
H44	H	-0.228230	1.465640	0.244950
O45	O	0.439135	1.554663	-0.000076
H46	H	0.461933	1.603821	-0.067480
O47	O	-0.242643	1.483843	0.768662
H48	H	-0.280695	1.531661	0.714979
O49	O	0.633071	1.550023	-0.000070
H50	H	0.704084	1.530915	-0.000050
O51	O	0.590837	1.120242	-0.000022
H52	H	0.535656	1.049504	0.000002
O53	O	-0.015176	1.197970	0.231157
H54	H	0.022897	1.150169	0.284833
H55	H	-0.029614	1.216150	0.433792
O56	O	0.396874	1.124886	-0.000055
H57	H	0.437922	1.051845	-0.000060
O58	O	-0.015084	1.198024	0.768610
H59	H	0.032641	1.252507	0.815987
O60	O	-0.015131	1.198001	0.552252
H61	H	0.022939	1.150203	0.605933
O62	O	0.303040	1.127138	-0.000054
H63	H	0.280257	1.077993	0.067361
O64	O	0.151345	1.561558	-0.000098
H65	H	0.206532	1.632289	-0.000088
O66	O	0.109085	1.131791	-0.000070
H67	H	0.150133	1.058749	-0.000073
O68	O	-0.242659	1.483830	0.552274
H69	H	-0.280718	1.531635	0.605963
O70	O	-0.242678	1.483818	0.447583
H71	H	-0.223827	1.574532	0.427598
