data_functionalizedCrystal
_audit_creation_method	'MofGen! by Chris Wilmer'
_symmetry_space_group_name_H-M	'P1'
_symmetry_Int_Tables_number	1
_symmetry_cell_setting	triclinic
loop_
_symmetry_equiv_pos_as_xyz
  x,y,z
_cell_length_a	6.394989
_cell_length_b	16.992694
_cell_length_c	16.053802
_cell_angle_alpha	92.750953
_cell_angle_beta	92.643543
_cell_angle_gamma	91.417033
loop_
_atom_site_label
_atom_site_type_symbol
_atom_site_fract_x
_atom_site_fract_y
_atom_site_fract_z
O1	O	0.435392	-1.047996	-0.069315
O2	O	0.430522	-0.819664	-0.069340
O3	O	0.129434	-0.937071	-0.069328
O4	O	0.736481	-0.930589	-0.069327
O5	O	0.145934	-0.930608	0.069530
O6	O	0.447022	-0.813201	0.069519
O7	O	0.451892	-1.041533	0.069543
Zn8	Zn	0.452077	-0.926341	0.091578
Zn9	Zn	0.430338	-0.934856	-0.091374
O10	O	0.752980	-0.924126	0.069531
C11	C	0.432511	-0.787158	0.000086
C12	C	0.413828	-0.699930	0.000077
C13	C	0.822765	-0.928639	0.000099
C14	C	1.059654	-0.932556	0.000097
C15	C	0.449903	-1.074039	0.000116
C16	C	0.468585	-1.161268	0.000120
N17	N	0.466913	-0.920535	0.216437
N18	N	0.415486	-0.940668	-0.216234
C19	C	0.594076	-0.651470	0.000077
C20	C	0.576512	-0.569510	0.000089
C21	C	0.378698	-0.536010	0.000094
C22	C	0.198436	-0.584476	0.000095
C23	C	0.216003	-0.666435	0.000090
C24	C	0.305891	-0.291692	0.000116
C25	C	0.288337	-0.209727	0.000119
C26	C	0.666415	-0.194766	0.000114
C27	C	0.683964	-0.276728	0.000104
C28	C	0.503703	-0.325186	0.000110
N29	N	0.360739	-0.452234	0.000103
N30	N	0.521664	-0.408961	0.000106
C31	C	0.338851	-0.970511	0.260136
C32	C	0.349250	-0.966457	0.347543
C33	C	0.487723	-0.912431	0.391248
C34	C	0.615790	-0.862449	0.347543
C35	C	0.605379	-0.866500	0.260139
C36	C	0.533141	-0.894737	0.652656
C37	C	0.543548	-0.890692	0.740067
C38	C	0.277004	-0.994700	0.740060
C39	C	0.266614	-0.998748	0.652654
C40	C	0.394673	-0.948764	0.608957
N41	N	0.498361	-0.908288	0.480592
N42	N	0.384023	-0.952904	0.519615
H43	H	0.755158	-0.678739	0.000073
C44	C	0.768111	-0.803023	0.395617
H45	H	0.755989	-0.807773	0.453931
H46	H	0.734859	-0.751046	0.381303
H47	H	0.907482	-0.813600	0.381283
C48	C	0.695756	-0.831217	0.788142
H49	H	0.770487	-0.802011	0.749600
H50	H	0.791714	-0.858707	0.822253
H51	H	0.618917	-0.796221	0.822225
H52	H	0.723290	-0.530057	0.000089
C53	C	0.136132	-1.049670	0.788129
H54	H	0.162145	-1.039517	0.846444
H55	H	0.165967	-1.102974	0.773797
H56	H	-0.006650	-1.040418	0.773810
H57	H	0.845044	-0.303997	0.000090
C58	C	0.114280	-1.058173	0.604584
H59	H	0.039485	-1.087352	0.643128
H60	H	0.190985	-1.093188	0.570477
H61	H	0.018360	-1.030635	0.570497
C62	C	0.864684	-0.141461	0.000118
H63	H	0.825900	-0.087851	0.000130
H64	H	0.939488	-0.154065	-0.048303
H65	H	0.950977	-0.149575	0.048548
C66	C	0.746256	-0.811529	0.212070
H67	H	0.830231	-0.778778	0.250616
H68	H	0.661425	-0.779675	0.177980
H69	H	0.834056	-0.842225	0.177967
H70	H	0.127244	-0.182455	0.000122
C71	C	0.674054	-0.839779	0.604596
H72	H	0.648028	-0.849924	0.546281
H73	H	0.816817	-0.849037	0.618923
H74	H	0.644233	-0.786468	0.618923
C75	C	0.107616	-0.344989	0.000110
H76	H	0.146396	-0.398600	0.000114
H77	H	0.021318	-0.336876	-0.048313
H78	H	0.032821	-0.332383	0.048539
H79	H	0.037372	-0.557194	0.000111
H80	H	0.226101	-1.014509	0.224557
H81	H	0.069225	-0.705890	0.000088
C82	C	0.208403	-1.021439	0.395608
H83	H	0.124467	-1.054203	0.357060
H84	H	0.120598	-0.990756	0.429714
H85	H	0.293265	-1.053292	0.429694
