data_functionalizedCrystal
_audit_creation_method	'MofGen! by Chris Wilmer'
_symmetry_space_group_name_H-M	'P1'
_symmetry_Int_Tables_number	1
_symmetry_cell_setting	triclinic
loop_
_symmetry_equiv_pos_as_xyz
  x,y,z
_cell_length_a	15.500227
_cell_length_b	17.038272
_cell_length_c	17.038272
_cell_angle_alpha	91.111556
_cell_angle_beta	93.033254
_cell_angle_gamma	86.956295
loop_
_atom_site_label
_atom_site_type_symbol
_atom_site_fract_x
_atom_site_fract_y
_atom_site_fract_z
O1	O	0.071836	-1.052160	-0.167139
O2	O	0.571836	-0.552160	0.332861
O3	O	0.071862	-0.824350	-0.164430
O4	O	0.571862	-0.324350	0.335570
O5	O	0.071842	-0.936901	-0.051879
O6	O	0.571842	-0.436901	0.448121
O7	O	0.071856	-0.939609	-0.279690
O8	O	0.571856	-0.439609	0.220310
O9	O	-0.072045	-0.930069	-0.058680
O10	O	0.427955	-0.430069	0.441320
O11	O	-0.072026	-0.817518	-0.171231
O12	O	0.427974	-0.317518	0.328769
O13	O	-0.072051	-1.045328	-0.173940
O14	O	0.427949	-0.545328	0.326060
Cu15	Cu	-0.085177	-0.930799	-0.173207
Cu16	Cu	0.414823	-0.430799	0.326793
Cu17	Cu	0.084987	-0.938879	-0.165164
Cu18	Cu	0.584987	-0.438879	0.334836
O19	O	-0.072032	-0.932777	-0.286491
O20	O	0.427968	-0.432777	0.213509
C21	C	-0.000079	-0.791641	-0.165368
C22	C	0.499921	-0.291641	0.334632
C23	C	-0.000069	-0.704358	-0.158019
C24	C	0.499931	-0.204358	0.341981
C25	C	-0.000101	-0.931022	-0.025987
C26	C	0.499899	-0.431022	0.474013
C27	C	-0.000100	-0.923674	0.061297
C28	C	0.499900	-0.423674	0.561297
N29	N	-0.204861	-0.925122	-0.178864
N30	N	0.295139	-0.425122	0.321136
C31	C	-0.250145	-0.972833	-0.131192
C32	C	0.249855	-0.472833	0.368808
C33	C	-0.340718	-0.968547	-0.135478
C34	C	0.159282	-0.468547	0.364522
C35	C	-0.386003	-0.916555	-0.187440
C36	C	0.113997	-0.416555	0.312560
C37	C	-0.340712	-0.868839	-0.235114
C38	C	0.159288	-0.368839	0.264886
C39	C	-0.250142	-0.873121	-0.230823
C40	C	0.249858	-0.373121	0.269177
C41	C	-0.659467	-0.901128	-0.202884
C42	C	-0.159467	-0.401128	0.297116
C43	C	-0.750044	-0.896851	-0.207172
C44	C	-0.250044	-0.396851	0.292828
C45	C	-0.750044	-0.996559	-0.107535
C46	C	-0.250044	-0.496559	0.392465
C47	C	-0.659471	-1.000840	-0.103252
C48	C	-0.159471	-0.500840	0.396748
C49	C	-0.614188	-0.953121	-0.150923
C50	C	-0.114188	-0.453121	0.349077
C51	C	-0.478582	-0.912174	-0.191824
C52	C	0.021418	-0.412174	0.308176
C53	C	-0.521610	-0.957498	-0.146534
C54	C	-0.021610	-0.457498	0.353466
N55	N	0.204671	-0.944561	-0.159501
N56	N	0.704671	-0.444561	0.340499
C57	C	-0.000109	-1.078037	-0.173003
C58	C	0.499891	-0.578037	0.326997
C59	C	-0.000113	-1.165320	-0.180351
C60	C	0.499887	-0.665320	0.319649
C61	C	-0.000066	-0.658749	-0.225482
C62	C	0.499934	-0.158749	0.274518
C63	C	-0.000078	-0.576737	-0.218574
C64	C	0.499922	-0.076737	0.281426
C65	C	-0.000088	-0.540335	-0.144201
C66	C	0.499912	-0.040335	0.355799
C67	C	-0.000094	-0.585950	-0.076733
C68	C	0.499906	-0.085950	0.423267
C69	C	-0.000088	-0.667961	-0.083642
C70	C	0.499912	-0.167961	0.416358
C71	C	-0.000112	-0.292946	-0.119792
C72	C	0.499888	0.207054	0.380208
C73	C	-0.000116	-0.210929	-0.112887
C74	C	0.499884	0.289071	0.387113
C75	C	-0.000102	-0.201721	-0.254729
C76	C	0.499898	0.298279	0.245271
C77	C	-0.000091	-0.283734	-0.261632
C78	C	0.499909	0.216266	0.238368
C79	C	-0.000101	-0.329342	-0.194164
C80	C	0.499899	0.170658	0.305836
C81	C	-0.000098	-0.456505	-0.137138
C82	C	0.499902	0.043495	0.362862
C83	C	-0.000098	-0.413170	-0.201228
C84	C	0.499902	0.086830	0.298772
C85	C	-0.000087	-0.938656	-0.312383
C86	C	0.499913	-0.438656	0.187617
C87	C	-0.000082	-0.946004	-0.399667
C88	C	0.499918	-0.446004	0.100333
C89	C	-0.000108	-0.991137	0.106906
C90	C	0.499892	-0.491137	0.606906
C91	C	-0.000100	-0.984229	0.188918
C92	C	0.499900	-0.484229	0.688918
C93	C	-0.000088	-0.909856	0.225320
C94	C	0.499912	-0.409856	0.725320
C95	C	-0.000077	-0.842388	0.179705
C96	C	0.499923	-0.342388	0.679705
C97	C	-0.000080	-0.849297	0.097694
C98	C	0.499920	-0.349297	0.597694
C99	C	-0.000074	-0.885446	0.472708
C100	C	0.499926	-0.385446	0.972708
C101	C	-0.000074	-0.878541	0.554725
C102	C	0.499926	-0.378541	1.054725
C103	C	-0.000094	-1.020383	0.563932
C104	C	0.499906	-0.520383	1.063932
C105	C	-0.000102	-1.027286	0.481919
C106	C	0.499898	-0.527286	0.981919
C107	C	-0.000087	-0.959818	0.436312
C108	C	0.499913	-0.459818	0.936312
C109	C	-0.000082	-0.902792	0.309149
C110	C	0.499918	-0.402792	0.809149
C111	C	-0.000087	-0.966882	0.352484
C112	C	0.499913	-0.466882	0.852484
H113	H	-0.213280	-1.015175	-0.088882
H114	H	0.286720	-0.515175	0.411118
O115	O	0.000099	-0.694149	-0.297705
O116	O	0.500099	-0.194149	0.202295
C117	C	0.074614	-0.744851	-0.302417
C118	C	0.574614	-0.244851	0.197583
H119	H	0.126694	-0.725217	-0.257626
H120	H	0.626694	-0.225217	0.242374
H121	H	0.099633	-0.742888	-0.364037
H122	H	0.599633	-0.242888	0.135963
H123	H	0.057770	-0.807447	-0.289400
H124	H	0.557770	-0.307447	0.210600
O125	O	-0.000003	-1.063346	0.071464
O126	O	0.499997	-0.563346	0.571464
C127	C	0.074526	-1.075132	0.027834
C128	C	0.574526	-0.575132	0.527834
H129	H	0.099376	-1.015772	0.012721
H130	H	0.599376	-0.515772	0.512721
H131	H	0.057762	-1.109211	-0.028677
H132	H	0.557762	-0.609211	0.471323
H133	H	0.126707	-1.109943	0.064177
H134	H	0.626707	-0.609943	0.564177
H135	H	-0.000095	-0.442811	-0.261782
H136	H	0.499905	0.057189	0.238218
H137	H	-0.000063	-0.781832	0.209350
H138	H	0.499937	-0.281832	0.709350
H139	H	-0.622605	-0.862274	-0.241701
H140	H	-0.122605	-0.362274	0.258299
O141	O	-0.206283	-0.826746	-0.277214
O142	O	0.293717	-0.326746	0.222786
C143	C	-0.265672	-0.779924	-0.323985
C144	C	0.234328	-0.279924	0.176015
H145	H	-0.330229	-0.809128	-0.330093
H146	H	0.169771	-0.309128	0.169907
H147	H	-0.239492	-0.773347	-0.384658
H148	H	0.260508	-0.273347	0.115342
H149	H	-0.275319	-0.719435	-0.295026
H150	H	0.224681	-0.219435	0.204974
O151	O	0.000036	-0.830597	0.344608
O152	O	0.500036	-0.330597	0.844608
C153	C	0.074571	-0.825890	0.395272
C154	C	0.574571	-0.325890	0.895272
H155	H	0.099414	-0.887611	0.412720
H156	H	0.599414	-0.387611	0.912720
H157	H	0.057815	-0.790231	0.450208
H158	H	0.557815	-0.290231	0.950208
H159	H	0.126752	-0.796024	0.363860
H160	H	0.626752	-0.296024	0.863860
O161	O	-0.000246	-0.175475	-0.040684
O162	O	0.499754	0.324525	0.459316
C163	C	-0.074779	-0.124796	-0.035967
C164	C	0.425221	0.375204	0.464033
H165	H	-0.099614	-0.107336	-0.097684
H166	H	0.400386	0.392664	0.402316
H167	H	-0.058025	-0.069869	-0.000301
H168	H	0.441975	0.430131	0.499699
H169	H	-0.126967	-0.156203	-0.006103
H170	H	0.373033	0.343797	0.493897
H171	H	-0.377589	-0.826501	-0.277420
H172	H	0.122411	-0.326501	0.222580
H173	H	-0.000130	-0.426857	-0.076584
H174	H	0.499870	0.073143	0.423416
H175	H	-0.000108	-1.039164	0.226049
H176	H	0.499892	-0.539164	0.726049
H177	H	-0.000090	-0.705095	-0.028706
H178	H	0.499910	-0.205095	0.471294
O179	O	-0.477546	-1.007881	-0.095989
O180	O	0.022454	-0.507881	0.404011
C181	C	-0.425213	-0.965053	-0.042225
C182	C	0.074787	-0.465053	0.457775
H183	H	-0.411639	-0.906333	-0.068758
H184	H	0.088361	-0.406333	0.431242
H185	H	-0.361524	-1.000009	-0.028948
H186	H	0.138476	-0.500009	0.471052
H187	H	-0.460155	-0.954185	0.014504
H188	H	0.039845	-0.454185	0.514504
H189	H	-0.000111	-1.087848	0.452287
H190	H	0.499889	-0.587848	0.952287
O191	O	-0.522673	-0.861631	-0.242198
O192	O	-0.022673	-0.361631	0.257802
C193	C	-0.575060	-0.807900	-0.199365
C194	C	-0.075060	-0.307900	0.300635
H195	H	-0.588622	-0.834450	-0.140649
H196	H	-0.088622	-0.334450	0.359351
H197	H	-0.638751	-0.794652	-0.234320
H198	H	-0.138751	-0.294652	0.265680
H199	H	-0.540169	-0.751151	-0.188490
H200	H	-0.040169	-0.251151	0.311510
O201	O	-0.615252	-1.051117	-0.052696
O202	O	-0.115252	-0.551117	0.447304
C203	C	-0.562554	-1.104852	-0.095220
C204	C	-0.062554	-0.604852	0.404780
H205	H	-0.589834	-1.109509	-0.158500
H206	H	-0.089834	-0.609509	0.341500
H207	H	-0.561156	-1.165027	-0.066935
H208	H	-0.061156	-0.665027	0.433065
H209	H	-0.494059	-1.083474	-0.094612
H210	H	0.005941	-0.583474	0.405388
O211	O	-0.000179	-0.819963	0.428321
O212	O	0.499821	-0.319963	0.928321
C213	C	-0.074709	-0.816165	0.377100
C214	C	0.425291	-0.316165	0.877100
H215	H	-0.099562	-0.877595	0.367639
H216	H	0.400438	-0.377595	0.867639
H217	H	-0.057943	-0.791804	0.318273
H218	H	0.442057	-0.291804	0.818273
H219	H	-0.126887	-0.776026	0.403968
H220	H	0.373113	-0.276026	0.903968
O221	O	-0.000212	-0.806300	0.590113
O222	O	0.499788	-0.306300	1.090113
C223	C	-0.074722	-0.794524	0.633770
C224	C	0.425278	-0.294524	1.133770
H225	H	-0.126815	-0.834374	0.609207
H226	H	0.373185	-0.334374	1.109207
H227	H	-0.099723	-0.730532	0.629446
H228	H	0.400277	-0.230532	1.129446
H229	H	-0.057879	-0.809143	0.697957
H230	H	0.442121	-0.309143	1.197957
H231	H	-0.000075	-0.539605	-0.273510
H232	H	0.499925	-0.039605	0.226490
H233	H	-0.000073	-0.313367	-0.322194
H234	H	0.499927	0.186633	0.177806
H235	H	-0.000105	-1.075311	0.601074
H236	H	0.499895	-0.575311	1.101074
H237	H	-0.000122	-0.330070	-0.064854
H238	H	0.499878	0.169930	0.435146
H239	H	-0.000073	-0.794361	0.060560
H240	H	0.499927	-0.294361	0.560560
O241	O	0.000050	-0.550562	-0.004497
O242	O	0.500050	-0.050562	0.495503
C243	C	0.074557	-0.506913	0.007259
C244	C	0.574557	-0.006913	0.507259
H245	H	0.126647	-0.531481	-0.032605
H246	H	0.626647	-0.031481	0.467395
H247	H	0.099567	-0.511240	0.071244
H248	H	0.599567	-0.011240	0.571244
H249	H	0.057708	-0.442723	-0.007356
H250	H	0.557708	0.057277	0.492644
H251	H	-0.000077	-1.027437	0.322844
H252	H	0.499923	-0.527437	0.822844
H253	H	-0.000096	-0.164579	-0.309658
H254	H	0.499904	0.335421	0.190342
H255	H	-0.786921	-1.035409	-0.068723
H256	H	-0.286921	-0.535409	0.431277
O257	O	-0.384573	-1.014983	-0.089148
O258	O	0.115427	-0.514983	0.410852
C259	C	-0.325181	-1.061785	-0.042359
C260	C	0.174819	-0.561785	0.457641
H261	H	-0.260612	-1.067854	-0.071557
H262	H	0.239388	-0.567854	0.428443
H263	H	-0.351340	-1.122472	-0.035841
H264	H	0.148660	-0.622472	0.464159
H265	H	-0.315567	-1.032877	0.018154
H266	H	0.184433	-0.532877	0.518154
H267	H	-0.786912	-0.854510	-0.249490
H268	H	-0.286912	-0.354510	0.250510
