data_functionalizedCrystal
_audit_creation_method	'MofGen! by Chris Wilmer'
_symmetry_space_group_name_H-M	'P1'
_symmetry_Int_Tables_number	1
_symmetry_cell_setting	triclinic
loop_
_symmetry_equiv_pos_as_xyz
  x,y,z
_cell_length_a	14.971486
_cell_length_b	16.109304
_cell_length_c	13.448316
_cell_angle_alpha	89.996206
_cell_angle_beta	89.998199
_cell_angle_gamma	83.538383
loop_
_atom_site_label
_atom_site_type_symbol
_atom_site_fract_x
_atom_site_fract_y
_atom_site_fract_z
O1	O	1.186792	0.108348	-0.082571
O2	O	1.686792	0.608348	0.417429
O3	O	0.926374	0.121323	-0.082597
O4	O	1.426374	0.621323	0.417403
O5	O	1.063736	-0.006187	-0.082584
O6	O	1.563736	0.493813	0.417416
O7	O	1.049430	0.235857	-0.082584
O8	O	1.549430	0.735857	0.417416
O9	O	1.063718	-0.006195	0.082800
O10	O	1.563718	0.493805	0.582800
O11	O	0.926356	0.121315	0.082786
O12	O	1.426356	0.621315	0.582786
O13	O	1.186775	0.108340	0.082813
O14	O	1.686775	0.608340	0.582813
Cu15	Cu	1.056564	0.114827	0.097900
Cu16	Cu	1.556564	0.614827	0.597900
Cu17	Cu	1.056585	0.114836	-0.097685
Cu18	Cu	1.556585	0.614836	0.402315
O19	O	1.049413	0.235849	0.082799
O20	O	1.549413	0.735849	0.582799
C21	C	0.893041	0.120738	0.000091
C22	C	1.393041	0.620738	0.500091
C23	C	0.793746	0.119000	0.000081
C24	C	1.293746	0.619000	0.500081
C25	C	0.736414	0.193908	0.000082
C26	C	1.236414	0.693908	0.500082
C27	C	0.643117	0.192269	0.000097
C28	C	1.143117	0.692269	0.500097
C29	C	0.607154	0.115721	0.000103
C30	C	1.107154	0.615721	0.500103
C31	C	0.664494	0.040807	0.000105
C32	C	1.164494	0.540807	0.500105
C33	C	0.757789	0.042447	0.000097
C34	C	1.257789	0.542447	0.500097
C35	C	0.470036	0.037395	0.000119
C36	C	0.970036	0.537395	0.500119
C37	C	0.376735	0.035755	0.000124
C38	C	0.876735	0.535755	0.500124
C39	C	0.355364	0.187217	0.000118
C40	C	0.855364	0.687217	0.500118
C41	C	0.448659	0.188857	0.000111
C42	C	0.948659	0.688857	0.500111
C43	C	0.505993	0.113942	0.000110
C44	C	1.005993	0.613942	0.500110
C45	C	1.063147	-0.037166	0.000105
C46	C	1.563147	0.462834	0.500105
C47	C	1.061408	-0.129464	0.000099
C48	C	1.561408	0.370536	0.500099
C49	C	1.057401	-0.341802	-0.090049
C50	C	1.557401	0.158198	0.409951
C51	C	1.055759	-0.428524	-0.090048
C52	C	1.555759	0.071476	0.409952
C53	C	1.055745	-0.428529	0.090262
C54	C	1.555745	0.071471	0.590262
C55	C	1.057380	-0.341808	0.090261
C56	C	1.557380	0.158192	0.590261
C57	C	1.058213	-0.298447	0.000102
C58	C	1.558213	0.201553	0.500102
C59	C	1.054936	-0.471891	0.000105
C60	C	1.554936	0.028109	0.500105
C61	C	1.053156	-0.565919	0.000106
C62	C	1.553156	-0.065919	0.500106
C63	C	1.059991	-0.204413	0.000100
C64	C	1.559991	0.295587	0.500100
C65	C	1.220108	0.108924	0.000122
C66	C	1.720108	0.608924	0.500122
C67	C	1.319402	0.110663	0.000126
C68	C	1.819402	0.610663	0.500126
C69	C	1.050002	0.266829	0.000108
C70	C	1.550002	0.766829	0.500108
C71	C	1.051740	0.359126	0.000108
C72	C	1.551740	0.859126	0.500108
N73	N	1.056556	0.114820	0.235465
N74	N	1.556556	0.614820	0.735465
N75	N	1.056599	0.114836	-0.235249
N76	N	1.556599	0.614836	0.264751
C77	C	1.117399	0.058382	0.287511
C78	C	1.617399	0.558382	0.787511
C79	C	1.117405	0.058381	0.391614
C80	C	1.617405	0.558381	0.891614
C81	C	1.056571	0.114823	0.443669
C82	C	1.556571	0.614823	0.943669
C83	C	0.995722	0.171263	0.391616
C84	C	1.495722	0.671263	0.891616
C85	C	0.995713	0.171259	0.287514
C86	C	1.495713	0.671259	0.787514
C87	C	0.995747	0.171269	0.608596
C88	C	1.495747	0.671269	1.108596
C89	C	0.995757	0.171274	0.712704
C90	C	1.495757	0.671274	1.212704
C91	C	1.117439	0.058391	0.712696
C92	C	1.617439	0.558391	1.212696
C93	C	1.117429	0.058387	0.608594
C94	C	1.617429	0.558387	1.108594
C95	C	1.056581	0.114828	0.556548
C96	C	1.556581	0.614828	1.056548
H97	H	0.804469	-0.018551	0.000096
H98	H	1.304469	0.481449	0.500096
H99	H	1.166983	0.012434	0.755078
H100	H	1.666983	0.512434	1.255078
H101	H	1.058076	-0.306499	-0.163462
H102	H	1.558076	0.193501	0.336538
Cl103	Cl	0.283288	0.281395	0.000121
Cl104	Cl	0.783288	0.781395	0.500121
Cl105	Cl	1.058391	-0.287300	0.203603
Cl106	Cl	1.558391	0.212700	0.703603
Cl107	Cl	0.493868	0.285090	0.000092
Cl108	Cl	0.993868	0.785090	0.500092
H109	H	0.946219	0.217234	0.755082
H110	H	1.446219	0.717234	1.255082
H111	H	1.055096	-0.463819	-0.163458
H112	H	1.555096	0.036181	0.336542
Cl113	Cl	1.193893	-0.012572	0.457046
Cl114	Cl	1.693893	0.487428	0.957046
Cl115	Cl	1.193911	-0.012564	0.543152
Cl116	Cl	1.693911	0.487436	1.043152
H117	H	1.166940	0.012424	0.245135
H118	H	1.666940	0.512424	0.745135
Cl119	Cl	0.331525	-0.060478	0.000166
Cl120	Cl	0.831525	0.439522	0.500166
H121	H	0.946194	0.217227	0.566223
H122	H	1.446194	0.717227	1.066223
Cl123	Cl	0.571045	0.286444	0.000092
Cl124	Cl	1.071045	0.786444	0.500092
H125	H	0.946185	0.217217	0.434005
H126	H	1.446185	0.717217	0.934005
H127	H	0.946167	0.217216	0.245139
H128	H	1.446167	0.717216	0.745139
H129	H	0.765687	0.256242	0.000076
H130	H	1.265687	0.756242	0.500076
H131	H	1.055069	-0.463845	0.163666
H132	H	1.555069	0.036155	0.663666
Cl133	Cl	0.542112	-0.056785	0.000120
Cl134	Cl	1.042112	0.443215	0.500120
H135	H	0.635206	-0.021520	0.000124
H136	H	1.135206	0.478480	0.500124
