data_functionalizedCrystal
_audit_creation_method	'MofGen! by Chris Wilmer'
_symmetry_space_group_name_H-M	'P1'
_symmetry_Int_Tables_number	1
_symmetry_cell_setting	triclinic
loop_
_symmetry_equiv_pos_as_xyz
  x,y,z
_cell_length_a	12.837943
_cell_length_b	14.853567
_cell_length_c	11.892095
_cell_angle_alpha	93.898435
_cell_angle_beta	85.689438
_cell_angle_gamma	89.231935
loop_
_atom_site_label
_atom_site_type_symbol
_atom_site_fract_x
_atom_site_fract_y
_atom_site_fract_z
O1	O	1.382409	0.229205	-0.093964
O2	O	1.080587	0.217625	-0.093972
O3	O	1.239561	0.092869	-0.093971
O4	O	1.223436	0.353961	-0.093965
O5	O	1.226306	0.103253	0.094036
O6	O	1.067332	0.228009	0.094035
O7	O	1.369154	0.239589	0.094043
Zn8	Zn	1.216139	0.235448	0.123889
Zn9	Zn	1.233603	0.221766	-0.123818
O10	O	1.210181	0.364345	0.094042
C11	C	1.035334	0.218906	0.000031
C12	C	0.920240	0.207240	0.000027
C13	C	0.679482	0.347487	0.000047
C14	C	0.571341	0.336530	0.000045
C15	C	0.595813	0.174369	0.000029
C16	C	0.703955	0.185327	0.000031
C17	C	0.745785	0.271888	0.000038
C18	C	0.853929	0.282844	0.000032
C19	C	0.878399	0.120685	0.000024
C20	C	0.770257	0.109727	0.000022
C21	C	1.232203	0.064410	0.000029
C22	C	1.230014	-0.035860	0.000019
C23	C	1.126324	-0.457187	0.000038
C24	C	1.315188	-0.462449	0.000043
C25	C	1.317247	-0.368241	0.000036
C26	C	1.223843	-0.318502	0.000032
C27	C	1.128380	-0.362970	0.000035
C28	C	1.412707	-0.323765	0.000045
C29	C	1.414770	-0.229551	0.000040
C30	C	1.321366	-0.179810	0.000028
C31	C	1.225899	-0.224285	0.000029
C32	C	1.132495	-0.174546	0.000025
C33	C	1.037028	-0.219019	0.000018
C34	C	1.034976	-0.313230	0.000023
C35	C	1.323418	-0.085599	0.000023
C36	C	1.134551	-0.080329	0.000022
C37	C	1.414408	0.238308	0.000038
C38	C	1.529502	0.249974	0.000034
C39	C	1.217539	0.392804	0.000040
C40	C	1.219728	0.493073	0.000042
N41	N	1.204228	0.244785	0.292943
N42	N	1.245522	0.212422	-0.292873
C43	C	1.328405	0.147396	0.529592
C44	C	1.320087	0.153930	0.647934
C45	C	1.179269	0.264382	0.647971
C46	C	1.187587	0.257848	0.529629
C47	C	1.262159	0.199354	0.470444
C48	C	1.270481	0.192826	0.352100
C49	C	1.129659	0.303272	0.352140
C50	C	1.121341	0.309806	0.470481
H51	H	1.058490	-0.039837	0.000014
C52	C	0.936599	-0.115348	-0.096634
C53	C	0.934359	-0.164340	0.000012
H54	H	0.873214	-0.081594	-0.096639
H55	H	0.993742	-0.075387	-0.096619
H56	H	0.944342	-0.155840	-0.162190
H57	H	0.926624	-0.123847	0.065569
H58	H	0.877200	-0.204305	0.000007
C59	C	1.028862	0.279090	0.781101
C60	C	1.097303	0.328666	0.713051
H61	H	0.978265	0.318778	0.821286
H62	H	0.994763	0.235803	0.734933
H63	H	1.067145	0.249078	0.833250
H64	H	1.059021	0.358673	0.660897
H65	H	1.131405	0.371969	0.759224
C66	C	1.468719	-0.490599	0.096694
C67	C	1.417854	-0.517119	0.000049
H68	H	1.532101	-0.524357	0.096697
H69	H	1.483604	-0.428134	0.096680
H70	H	1.424951	-0.501336	0.162251
H71	H	1.461619	-0.506375	-0.065508
H72	H	1.402973	-0.579598	0.000053
C73	C	0.925743	-0.008835	0.096654
C74	C	0.951282	0.037578	0.000015
H75	H	0.970736	-0.060142	0.096638
H76	H	0.933828	0.029890	0.162208
H77	H	0.855349	-0.027743	0.096643
H78	H	1.021674	0.056491	0.000030
H79	H	0.943207	-0.001155	-0.065556
H80	H	0.713541	0.417969	0.000051
H81	H	1.048598	-0.493402	0.000028
C82	C	1.378179	0.005108	0.684341
C83	C	1.392907	0.096818	0.712950
H84	H	1.423141	-0.030151	0.724476
H85	H	1.307619	-0.009579	0.703756
H86	H	1.393807	-0.007142	0.605388
H87	H	1.377272	0.109069	0.791902
H88	H	1.463483	0.111510	0.693543
H89	H	1.331203	0.145200	0.303912
C90	C	1.360128	0.019308	0.396450
C91	C	1.410388	0.083131	0.464508
H92	H	1.410749	-0.020355	0.356262
H93	H	1.313713	-0.014328	0.442614
H94	H	1.321848	0.049326	0.344305
H95	H	1.448662	0.053113	0.516659
H96	H	1.456821	0.116771	0.418340
H97	H	1.060623	0.357428	0.518684
C98	C	0.947968	-0.455310	0.000049
C99	C	0.930045	-0.362116	0.000032
H100	H	0.883186	-0.485490	0.000066
H101	H	0.991041	-0.475453	-0.065510
H102	H	0.981816	-0.468192	0.065616
H103	H	0.896203	-0.349234	-0.065539
H104	H	0.886954	-0.341966	0.065598
H105	H	1.488751	-0.364268	0.000059
H106	H	1.492505	-0.193349	0.000043
H107	H	1.401145	-0.049393	0.000036
H108	H	0.561729	0.103900	0.000116
H109	H	1.075720	0.345582	0.303968
H110	H	0.887985	0.353327	0.000040
H111	H	0.517360	0.398091	0.000055
C112	C	0.615350	0.020927	0.000007
C113	C	0.724271	0.014582	0.000008
H114	H	0.586965	-0.037814	-0.000011
H115	H	0.587987	0.056053	0.065572
H116	H	0.597230	0.048833	-0.065554
H117	H	0.742391	-0.013318	0.065573
H118	H	0.751644	-0.020558	-0.065563
