data_functionalizedCrystal
_audit_creation_method	'MofGen! by Chris Wilmer'
_symmetry_space_group_name_H-M	'P1'
_symmetry_Int_Tables_number	1
_symmetry_cell_setting	triclinic
loop_
_symmetry_equiv_pos_as_xyz
  x,y,z
_cell_length_a	11.792254
_cell_length_b	10.489741
_cell_length_c	10.868271
_cell_angle_alpha	90.001126
_cell_angle_beta	90.004308
_cell_angle_gamma	84.368886
loop_
_atom_site_label
_atom_site_type_symbol
_atom_site_fract_x
_atom_site_fract_y
_atom_site_fract_z
O1	O	1.507372	0.174902	0.102321
O2	O	1.840706	0.508236	0.435654
O3	O	2.174039	0.841569	0.768987
O4	O	1.177082	0.192904	0.102323
O5	O	1.510415	0.526237	0.435656
O6	O	1.843748	0.859571	0.768990
O7	O	1.349743	-0.001720	0.102314
O8	O	1.683076	0.331613	0.435648
O9	O	2.016409	0.664947	0.768981
O10	O	1.334711	0.369526	0.102329
O11	O	1.668045	0.702860	0.435663
O12	O	2.001378	1.036193	0.768996
O13	O	1.349727	-0.001714	-0.102330
O14	O	1.683060	0.331620	0.231003
O15	O	2.016394	0.664953	0.564336
O16	O	1.177066	0.192910	-0.102322
O17	O	1.510399	0.526243	0.231012
O18	O	1.843733	0.859577	0.564345
O19	O	1.507357	0.174909	-0.102324
O20	O	1.840690	0.508242	0.231009
O21	O	2.174023	0.841575	0.564343
Zn22	Zn	1.342209	0.183910	-0.134815
Zn23	Zn	1.675542	0.517244	0.198519
Zn24	Zn	2.008876	0.850577	0.531852
Zn25	Zn	1.342230	0.183902	0.134814
Zn26	Zn	1.675563	0.517235	0.468147
Zn27	Zn	2.008896	0.850569	0.801480
O28	O	1.334696	0.369532	-0.102315
O29	O	1.668029	0.702866	0.231018
O30	O	2.001362	1.036199	0.564351
C31	C	1.134780	0.191773	0.000001
C32	C	1.468113	0.525106	0.333334
C33	C	1.801447	0.858440	0.666668
C34	C	1.008758	0.188379	0.000002
C35	C	1.342091	0.521712	0.333335
C36	C	1.675425	0.855046	0.666669
C37	C	0.906414	0.185621	0.000007
C38	C	1.239747	0.518954	0.333340
C39	C	1.573081	0.852288	0.666674
C40	C	0.778018	0.182173	0.000008
C41	C	1.111351	0.515506	0.333341
C42	C	1.444685	0.848839	0.666674
C43	C	1.348600	-0.049245	-0.000007
C44	C	1.681933	0.284089	0.333326
C45	C	2.015266	0.617422	0.666660
C46	C	1.345203	-0.190863	-0.000005
C47	C	1.678536	0.142471	0.333328
C48	C	2.011870	0.475804	0.666662
C49	C	1.235344	-0.258634	0.000005
C50	C	1.568677	0.074699	0.333338
C51	C	1.902011	0.408033	0.666672
C52	C	1.287233	-0.350928	-0.100896
C53	C	1.620566	-0.017594	0.232437
C54	C	1.953899	0.315739	0.565771
C55	C	1.287274	-0.350909	0.100868
C56	C	1.620607	-0.017575	0.434201
C57	C	1.953941	0.315758	0.767534
C58	C	1.397137	-0.281291	-0.100989
C59	C	1.730470	0.052042	0.232344
C60	C	2.063804	0.385376	0.565678
C61	C	1.397163	-0.281262	0.100865
C62	C	1.730496	0.052071	0.434199
C63	C	2.063830	0.385404	0.767532
C64	C	1.449132	-0.373529	-0.000060
C65	C	1.782465	-0.040195	0.333273
C66	C	2.115798	0.293138	0.666606
C67	C	1.549658	0.176040	0.000001
C68	C	1.882992	0.509373	0.333334
C69	C	2.216325	0.842706	0.666667
C70	C	1.675680	0.179434	0.000008
C71	C	2.009014	0.512767	0.333341
C72	C	2.342347	0.846100	0.666674
C73	C	1.335839	0.417057	0.000009
C74	C	1.669172	0.750391	0.333342
C75	C	2.002506	1.083724	0.666676
C76	C	1.339235	0.558675	0.000015
C77	C	1.672569	0.892009	0.333348
C78	C	2.005902	1.225342	0.666681
N79	N	1.342203	0.183915	-0.318829
N80	N	1.675536	0.517249	0.014505
N81	N	2.008870	0.850582	0.347838
C82	C	1.342212	0.183916	-0.430166
C83	C	1.675545	0.517249	-0.096833
C84	C	2.008878	0.850582	0.236500
C85	C	1.342227	0.183904	-0.569844
C86	C	1.675560	0.517237	-0.236511
C87	C	2.008893	0.850571	0.096823
N88	N	1.342244	0.183887	0.318828
N89	N	1.675578	0.517221	0.652161
N90	N	2.008911	0.850554	0.985494
H91	H	1.145019	-0.208680	-0.000096
H92	H	1.478352	0.124654	0.333237
H93	H	1.811685	0.457987	0.666571
N94	N	1.458687	-0.240329	0.213861
N95	N	1.792021	0.093004	0.547195
N96	N	2.125354	0.426337	0.880528
H97	H	1.527728	-0.197003	0.188155
H98	H	1.861062	0.136330	0.521489
H99	H	2.194395	0.469663	0.854822
H100	H	1.483608	-0.318061	0.265570
H101	H	1.816941	0.015272	0.598903
H102	H	2.150274	0.348605	0.932237
N103	N	1.225652	-0.391816	-0.213881
N104	N	1.558986	-0.058482	0.119452
N105	N	1.892319	0.274851	0.452786
H106	H	1.278900	-0.452276	-0.264420
H107	H	1.612233	-0.118943	0.068913
H108	H	1.945567	0.214390	0.402246
H109	H	1.199336	-0.313867	-0.264692
H110	H	1.532669	0.019466	0.068641
H111	H	1.866003	0.352799	0.401975
H112	H	1.240783	-0.381719	0.186180
H113	H	1.574116	-0.048386	0.519513
H114	H	1.907450	0.284948	0.852846
H115	H	1.443574	-0.250612	-0.186389
H116	H	1.776907	0.082721	0.146945
H117	H	2.110240	0.416054	0.480278
H118	H	1.539538	-0.423256	-0.000117
H119	H	1.872872	-0.089923	0.333216
H120	H	2.206205	0.243410	0.666550
