data_functionalizedCrystal
_audit_creation_method	'MofGen! by Chris Wilmer'
_symmetry_space_group_name_H-M	'P1'
_symmetry_Int_Tables_number	1
_symmetry_cell_setting	triclinic
loop_
_symmetry_equiv_pos_as_xyz
  x,y,z
_cell_length_a	14.853559
_cell_length_b	14.971482
_cell_length_c	13.448316
_cell_angle_alpha	89.993798
_cell_angle_beta	89.995590
_cell_angle_gamma	83.622031
loop_
_atom_site_label
_atom_site_type_symbol
_atom_site_fract_x
_atom_site_fract_y
_atom_site_fract_z
O1	O	0.117472	1.186967	-0.082674
O2	O	0.131545	0.926569	-0.082678
O3	O	-0.006723	1.063728	-0.082675
O4	O	0.255740	1.049808	-0.082677
O5	O	-0.006731	1.063710	0.082709
O6	O	0.131537	0.926551	0.082706
O7	O	0.117464	1.186950	0.082710
Cu8	Cu	0.124499	1.056749	0.097809
Cu9	Cu	0.124509	1.056770	-0.097777
O10	O	0.255732	1.049791	0.082707
C11	C	0.130912	0.893235	0.000013
C12	C	0.129028	0.793938	0.000011
C13	C	0.128136	0.747283	0.090163
C14	C	0.126351	0.653985	0.090164
C15	C	0.125465	0.607341	0.000012
C16	C	0.126354	0.654002	-0.090146
C17	C	0.128133	0.747300	-0.090146
C18	C	0.122650	0.459540	-0.090140
C19	C	0.120873	0.366235	-0.090140
C20	C	0.120868	0.366224	0.090171
C21	C	0.122647	0.459522	0.090171
C22	C	0.123538	0.506177	0.000011
C23	C	-0.040316	1.063090	0.000015
C24	C	-0.140400	1.061204	0.000009
C25	C	-0.563568	1.053213	-0.090142
C26	C	-0.563572	1.053194	0.090166
C27	C	-0.469540	1.054973	0.090167
C28	C	-0.422517	1.055871	0.000012
C29	C	-0.469526	1.054989	-0.090143
C30	C	-0.422521	1.055846	0.180321
C31	C	-0.328483	1.057624	0.180326
C32	C	-0.281459	1.058528	0.090170
C33	C	-0.328475	1.057648	0.000010
C34	C	-0.281452	1.058546	-0.090144
C35	C	-0.328467	1.057671	-0.180305
C36	C	-0.422503	1.055894	-0.180299
C37	C	-0.187423	1.060306	0.090164
C38	C	-0.187410	1.060322	-0.090146
C39	C	0.289325	1.050429	0.000014
C40	C	0.389409	1.052315	0.000013
C41	C	0.118097	1.220283	0.000016
C42	C	0.119981	1.319581	0.000012
N43	N	0.124492	1.056741	0.235373
N44	N	0.124510	1.056784	-0.235341
C45	C	0.063292	1.117494	0.287415
C46	C	0.063291	1.117500	0.391518
C47	C	0.124495	1.056756	0.443577
C48	C	0.185698	0.995997	0.391528
C49	C	0.185694	0.995988	0.287427
C50	C	0.185704	0.996022	0.608508
C51	C	0.185710	0.996032	0.712617
C52	C	0.063301	1.117534	0.712599
C53	C	0.063297	1.117525	0.608498
C54	C	0.124501	1.056766	0.556456
H55	H	0.120152	0.328260	-0.163550
Cl56	Cl	0.125246	0.595336	0.203503
Cl57	Cl	0.123771	0.518158	0.203506
Cl58	Cl	-0.013648	1.193875	0.456944
H59	H	0.013467	1.167005	0.754978
H60	H	0.120143	0.328234	0.163582
H61	H	0.235528	0.946515	0.245055
H62	H	0.123376	0.497523	-0.163557
Cl63	Cl	0.125207	0.595368	-0.203481
H64	H	0.128865	0.785253	0.163575
H65	H	0.128861	0.785284	-0.163557
Cl66	Cl	-0.622686	1.052050	0.203497
H67	H	0.013465	1.166991	0.566111
H68	H	0.235548	0.946567	0.754999
Cl69	Cl	-0.128303	1.061458	-0.203491
H70	H	-0.601853	1.052504	-0.163548
H71	H	0.235529	0.946534	0.433921
H72	H	-0.290211	1.058339	0.253740
Cl73	Cl	-0.481637	1.054696	0.293651
H74	H	0.235540	0.946543	0.566139
H75	H	-0.290167	1.058396	-0.253709
H76	H	0.013456	1.166962	0.245035
Cl77	Cl	-0.128322	1.061403	0.203499
H78	H	-0.460791	1.055181	-0.253703
