data_functionalizedCrystal
_audit_creation_method	'MofGen! by Chris Wilmer'
_symmetry_space_group_name_H-M	'P1'
_symmetry_Int_Tables_number	1
_symmetry_cell_setting	triclinic
loop_
_symmetry_equiv_pos_as_xyz
  x,y,z
_cell_length_a	16.109302
_cell_length_b	9.616153
_cell_length_c	16.109301
_cell_angle_alpha	90.007930
_cell_angle_beta	83.461631
_cell_angle_gamma	90.004162
loop_
_atom_site_label
_atom_site_type_symbol
_atom_site_fract_x
_atom_site_fract_y
_atom_site_fract_z
O1	O	1.103128	0.115712	0.106872
O2	O	0.861067	0.115702	0.120171
O3	O	0.988747	0.115693	-0.007509
O4	O	0.975448	0.115721	0.234553
O5	O	0.988742	-0.115598	-0.007518
O6	O	0.861062	-0.115589	0.120162
O7	O	1.103123	-0.115579	0.106864
Zn8	Zn	0.982092	-0.152307	0.113512
Zn9	Zn	0.982098	0.152430	0.113523
O10	O	0.975443	-0.115570	0.234544
C11	C	0.830089	0.000055	0.119628
C12	C	0.737794	0.000051	0.118013
N13	N	0.982093	-0.360281	0.113503
C14	C	0.525450	-0.126013	0.114273
C15	C	0.438730	-0.126008	0.112746
C16	C	0.438746	0.126158	0.112760
C17	C	0.525465	0.126152	0.114281
C18	C	0.568815	0.000062	0.115041
C19	C	0.395375	0.000073	0.111994
C20	C	0.301350	0.000079	0.110338
C21	C	0.662847	0.000056	0.116695
C22	C	1.050645	-0.580612	0.045434
C23	C	1.050464	-0.419445	0.045178
C24	C	0.895358	-0.418818	0.094579
C25	C	0.895767	-0.580036	0.094103
C26	C	0.999514	-0.580144	0.200739
C27	C	1.001481	-0.418916	0.200150
C28	C	1.134101	0.000071	0.107407
C29	C	1.226396	0.000085	0.109022
C30	C	0.988206	0.000047	-0.038488
C31	C	0.986591	0.000045	-0.130784
N32	N	0.982103	0.360404	0.113525
C33	C	1.058599	0.000070	-0.353056
C34	C	1.057074	0.000081	-0.439776
C35	C	0.905586	0.000070	-0.419902
C36	C	0.907111	0.000068	-0.333184
C37	C	0.983620	0.000061	-0.299763
C38	C	0.980571	0.000074	-0.473202
C39	C	0.978918	0.000086	-0.567228
C40	C	0.985273	0.000052	-0.205731
C41	C	0.975984	0.000079	0.265523
C42	C	0.977599	0.000090	0.357819
H43	H	0.403427	-0.228672	0.112120
H44	H	1.120897	0.000067	-0.325848
C45	C	0.391058	0.264852	0.111934
C46	C	0.295670	0.264866	0.110267
C47	C	0.247984	0.403563	0.109445
C48	C	0.295686	0.542245	0.110289
C49	C	0.391080	0.542236	0.111956
C50	C	0.438766	0.403539	0.112778
H51	H	0.260353	0.162201	0.109642
H52	H	0.177367	0.403570	0.108211
H53	H	0.260386	0.644917	0.109680
H54	H	0.426397	0.644901	0.112581
H55	H	0.509383	0.403532	0.114012
H56	H	1.118130	0.000092	-0.483165
H57	H	0.843295	0.000072	-0.447124
C58	C	0.824628	0.000055	-0.274555
C59	C	0.761929	0.120151	-0.278269
C60	C	0.679450	0.120143	-0.219640
C61	C	0.659670	0.000040	-0.157298
C62	C	0.722370	-0.120065	-0.153582
C63	C	0.804849	-0.120057	-0.212210
H64	H	0.776570	0.209066	-0.324420
H65	H	0.633036	0.209053	-0.222392
H66	H	0.598615	0.000034	-0.113898
H67	H	0.707729	-0.208981	-0.107430
H68	H	0.851264	-0.208967	-0.209459
C69	C	1.035421	-0.367367	-0.042257
C70	C	1.096887	-0.406734	-0.118948
C71	C	1.081836	-0.354662	-0.206386
C72	C	1.005317	-0.263222	-0.217134
C73	C	0.943845	-0.223850	-0.140441
C74	C	0.958897	-0.275923	-0.053003
H75	H	1.153535	-0.474427	-0.110993
H76	H	1.127342	-0.383808	-0.263159
H77	H	0.994175	-0.224675	-0.281861
H78	H	0.887197	-0.156157	-0.148396
H79	H	0.913391	-0.246777	0.003770
H80	H	0.560774	0.228824	0.114904
H81	H	1.114939	-0.379866	0.056443
H82	H	1.061409	-0.620788	0.218936
C83	C	0.931994	-0.631678	0.269197
C84	C	0.861404	-0.727224	0.246130
C85	C	0.793882	-0.778766	0.314579
C86	C	0.796951	-0.734761	0.406095
C87	C	0.867545	-0.639210	0.429167
C88	C	0.935066	-0.587668	0.360718
H89	H	0.859129	-0.759804	0.178380
H90	H	0.741624	-0.849500	0.297499
H91	H	0.746968	-0.772915	0.456766
H92	H	0.869819	-0.606630	0.496917
H93	H	0.987324	-0.516934	0.377797
C94	C	0.573138	-0.264705	0.115104
C95	C	0.551744	-0.368717	0.187040
C96	C	0.599430	-0.507413	0.187871
C97	C	0.668512	-0.542096	0.116766
C98	C	0.689910	-0.438082	0.044825
C99	C	0.642223	-0.299386	0.043994
H100	H	0.500602	-0.343045	0.239681
H101	H	0.583589	-0.584411	0.241127
H102	H	0.703812	-0.644767	0.117381
H103	H	0.741051	-0.463754	-0.007816
H104	H	0.658064	-0.222388	-0.009262
C105	C	1.087671	-0.367217	0.219563
C106	C	1.140226	-0.272207	0.157058
C107	C	1.226415	-0.220493	0.176470
C108	C	1.260049	-0.263790	0.258388
C109	C	1.207493	-0.358805	0.320899
C110	C	1.121304	-0.410519	0.301487
H111	H	1.115329	-0.240151	0.096412
H112	H	1.265320	-0.150156	0.130195
H113	H	1.323851	-0.225509	0.272759
H114	H	1.232390	-0.390861	0.381545
H115	H	1.082399	-0.480856	0.347762
C116	C	1.035839	-0.635359	-0.041510
C117	C	1.103663	-0.722350	-0.092837
C118	C	1.088852	-0.777100	-0.179779
C119	C	1.006218	-0.744859	-0.215394
C120	C	0.938388	-0.657864	-0.164067
C121	C	0.953199	-0.603114	-0.077125
H122	H	1.164839	-0.746220	-0.066473
H123	H	1.139065	-0.841499	-0.217775
H124	H	0.995254	-0.785388	-0.279754
H125	H	0.877212	-0.633993	-0.190431
H126	H	0.902986	-0.538715	-0.039129
C127	C	0.824791	-0.632795	0.158533
C128	C	0.754942	-0.724552	0.130110
C129	C	0.683963	-0.777319	0.194528
C130	C	0.682833	-0.738328	0.287369
C131	C	0.752684	-0.646566	0.315797
C132	C	0.823663	-0.593799	0.251379
H133	H	0.755777	-0.753419	0.061379
H134	H	0.632255	-0.845247	0.173483
H135	H	0.630290	-0.777390	0.335054
H136	H	0.751850	-0.617699	0.384527
H137	H	0.875372	-0.525871	0.272424
H138	H	1.115337	-0.619369	0.056519
H139	H	0.880417	-0.617662	0.030499
C140	C	0.938400	-0.364519	0.271804
C141	C	0.969112	-0.278967	0.343141
C142	C	0.906021	-0.224571	0.414792
C143	C	0.812218	-0.255726	0.415105
C144	C	0.781502	-0.341281	0.343765
C145	C	0.844592	-0.395678	0.272114
H146	H	1.038554	-0.255901	0.342912
H147	H	0.928760	-0.161237	0.467603
H148	H	0.765515	-0.215458	0.468145
H149	H	0.712059	-0.364348	0.343994
H150	H	0.821853	-0.459012	0.219304
H151	H	0.843125	-0.380497	0.142851
H152	H	0.879630	-0.378464	0.031697
