data_functionalizedCrystal
_audit_creation_method	'MofGen! by Chris Wilmer'
_symmetry_space_group_name_H-M	'P1'
_symmetry_Int_Tables_number	1
_symmetry_cell_setting	triclinic
loop_
_symmetry_equiv_pos_as_xyz
  x,y,z
_cell_length_a	12.837943
_cell_length_b	14.044220
_cell_length_c	11.892095
_cell_angle_alpha	94.243827
_cell_angle_beta	85.689438
_cell_angle_gamma	94.008909
loop_
_atom_site_label
_atom_site_type_symbol
_atom_site_fract_x
_atom_site_fract_y
_atom_site_fract_z
O1	O	1.404549	0.242985	-0.093990
O2	O	1.101609	0.230709	-0.093996
O3	O	1.248531	0.098452	-0.093982
O4	O	1.257627	0.375241	-0.094004
O5	O	1.236280	0.109461	0.094025
O6	O	1.089357	0.241718	0.094010
O7	O	1.392297	0.253993	0.094017
Zn8	Zn	1.238882	0.249603	0.123864
Zn9	Zn	1.255024	0.235099	-0.123843
O10	O	1.245375	0.386250	0.094002
C11	C	1.056479	0.232067	0.000007
C12	C	0.940259	0.219699	0.000005
C13	C	0.713048	0.368378	0.000009
C14	C	0.603848	0.356763	0.000008
C15	C	0.612657	0.184853	0.000009
C16	C	0.721856	0.196469	0.000011
C17	C	0.772048	0.288234	0.000008
C18	C	0.881251	0.299849	0.000001
C19	C	0.890056	0.127940	0.000011
C20	C	0.780857	0.116324	0.000010
C21	C	1.238425	0.068282	0.000022
C22	C	1.226550	-0.038016	0.000023
C23	C	1.204843	-0.232639	0.000006
C24	C	1.289060	-0.282665	0.000005
C25	C	1.276982	-0.390960	-0.000005
C26	C	1.216919	-0.124334	0.000016
C27	C	1.437428	0.252635	0.000012
C28	C	1.553649	0.265002	0.000006
C29	C	1.255482	0.416420	-0.000004
C30	C	1.267357	0.522717	-0.000012
N31	N	1.227873	0.259502	0.292917
N32	N	1.266041	0.225193	-0.292896
C33	C	1.342643	0.156258	0.529576
C34	C	1.334956	0.163185	0.647917
C35	C	1.204807	0.280277	0.647942
C36	C	1.212494	0.273350	0.529601
C37	C	1.281415	0.211340	0.470422
C38	C	1.289107	0.204418	0.352079
C39	C	1.158954	0.321505	0.352106
C40	C	1.151267	0.328432	0.470447
H41	H	0.922115	0.374569	0.000002
H42	H	1.148686	0.330757	0.696141
H43	H	0.739974	0.041612	0.000025
C44	C	1.047179	-0.264519	-0.096638
C45	C	1.095269	-0.284612	0.000005
H46	H	0.979537	-0.296619	-0.096638
H47	H	1.041019	-0.197515	-0.096625
H48	H	1.088362	-0.285813	-0.162196
H49	H	1.054090	-0.263311	0.065563
H50	H	1.101424	-0.351630	0.000002
C51	C	1.470524	0.041219	0.541432
C52	C	1.418400	0.088102	0.464518
H53	H	1.517289	-0.000862	0.501267
H54	H	1.508804	0.087125	0.587575
H55	H	1.420824	0.005585	0.587604
H56	H	1.468100	0.123742	0.418351
H57	H	1.380118	0.042189	0.418356
H58	H	0.753915	0.443098	0.000005
H59	H	0.555814	0.422025	0.000011
H60	H	0.938107	0.062681	0.000003
C61	C	1.389555	-0.131917	0.000038
C62	C	1.398641	-0.230694	0.000024
H63	H	1.457204	-0.099831	0.000060
H64	H	1.356941	-0.118292	-0.065524
H65	H	1.348371	-0.110637	0.065601
H66	H	1.439819	-0.251975	-0.065543
H67	H	1.431270	-0.244327	0.065593
C68	C	1.308333	0.068560	0.219058
C69	C	1.364828	0.136211	0.287053
H70	H	1.355073	0.026440	0.178921
H71	H	1.258624	0.032979	0.265257
H72	H	1.273003	0.100384	0.166868
H73	H	1.400153	0.104387	0.339248
H74	H	1.414557	0.171796	0.240849
C75	C	1.336965	0.042945	0.780997
C76	C	1.402259	0.102638	0.712941
H77	H	1.378518	0.005560	0.821133
H78	H	1.294833	0.080867	0.833175
H79	H	1.293274	0.001912	0.734829
H80	H	1.445944	0.143676	0.759109
H81	H	1.444408	0.064713	0.660756
H82	H	1.109101	0.366359	0.303930
C83	C	0.449164	0.090727	0.000029
C84	C	0.557472	0.083991	0.000023
H85	H	0.415098	0.028457	0.000033
H86	H	0.425204	0.127976	0.065585
H87	H	0.433739	0.120302	-0.065539
H88	H	0.572898	0.054422	0.065596
H89	H	0.581441	0.046727	-0.065540
C90	C	1.081698	0.391046	0.651868
C91	C	1.075516	0.396596	0.535504
H92	H	1.034938	0.433135	0.692027
H93	H	1.063178	0.327364	0.671262
H94	H	1.151171	0.408892	0.671235
H95	H	1.006045	0.378743	0.516136
H96	H	1.094030	0.460291	0.516103
