data_functionalizedCrystal
_audit_creation_method	'MofGen! by Chris Wilmer'
_symmetry_space_group_name_H-M	'P1'
_symmetry_Int_Tables_number	1
_symmetry_cell_setting	triclinic
loop_
_symmetry_equiv_pos_as_xyz
  x,y,z
_cell_length_a	12.759401
_cell_length_b	13.897448
_cell_length_c	12.759393
_cell_angle_alpha	89.966603
_cell_angle_beta	89.980163
_cell_angle_gamma	90.019217
loop_
_atom_site_label
_atom_site_type_symbol
_atom_site_fract_x
_atom_site_fract_y
_atom_site_fract_z
Zn1	Zn	1.606233	-0.383918	-0.594007
Zn2	Zn	1.939566	-0.050585	-0.260674
Zn3	Zn	2.272900	0.282748	0.072660
Zn4	Zn	1.606118	-0.545248	-0.418322
Zn5	Zn	1.939452	-0.211915	-0.084988
Zn6	Zn	2.272785	0.121419	0.248345
Zn7	Zn	1.430535	-0.383973	-0.418342
Zn8	Zn	1.763869	-0.050639	-0.085009
Zn9	Zn	2.097202	0.282694	0.248324
Zn10	Zn	1.430515	-0.545177	-0.593959
Zn11	Zn	1.763848	-0.211844	-0.260626
Zn12	Zn	2.097181	0.121489	0.072708
O13	O	1.518350	-0.464579	-0.506158
O14	O	1.851684	-0.131246	-0.172824
O15	O	2.185017	0.202088	0.160509
O16	O	1.753239	-0.405326	-0.570714
O17	O	2.086572	-0.071992	-0.237380
O18	O	2.419906	0.261341	0.095953
O19	O	1.582788	-0.523907	-0.271303
O20	O	1.916121	-0.190573	0.062030
O21	O	2.249454	0.142760	0.395363
O22	O	1.453899	-0.248984	-0.441673
O23	O	1.787232	0.084349	-0.108340
O24	O	2.120565	0.417683	0.224993
O25	O	1.753155	-0.523854	-0.441638
O26	O	2.086488	-0.190521	-0.108305
O27	O	2.419821	0.142813	0.225028
O28	O	1.582983	-0.248944	-0.570734
O29	O	1.916316	0.084389	-0.237400
O30	O	2.249650	0.417723	0.095933
O31	O	1.453787	-0.405419	-0.271318
O32	O	1.787121	-0.072085	0.062015
O33	O	2.120454	0.261248	0.395348
O34	O	1.283511	-0.405350	-0.441627
O35	O	1.616845	-0.072017	-0.108293
O36	O	1.950178	0.261317	0.225040
O37	O	1.453863	-0.523734	-0.740987
O38	O	1.787197	-0.190400	-0.407653
O39	O	2.120530	0.142933	-0.074320
O40	O	1.283496	-0.523786	-0.570652
O41	O	1.616830	-0.190453	-0.237318
O42	O	1.950163	0.142880	0.096015
O43	O	1.582963	-0.405257	-0.741022
O44	O	1.916296	-0.071924	-0.407689
O45	O	2.249630	0.261409	-0.074355
O46	O	1.582768	-0.680220	-0.441592
O47	O	1.916101	-0.346887	-0.108258
O48	O	2.249434	-0.013553	0.225075
O49	O	1.453752	-0.680168	-0.570632
O50	O	1.787085	-0.346835	-0.237298
O51	O	2.120419	-0.013502	0.096035
C52	C	1.245383	-0.464567	-0.506137
C53	C	1.578716	-0.131234	-0.172803
C54	C	1.912050	0.202099	0.160530
C55	C	1.128606	-0.464585	-0.506153
C56	C	1.461940	-0.131252	-0.172819
C57	C	1.795273	0.202081	0.160514
C58	C	1.518274	-0.715193	-0.506127
C59	C	1.851607	-0.381860	-0.172794
C60	C	2.184940	-0.048527	0.160539
C61	C	1.518337	-0.822407	-0.506149
C62	C	1.851670	-0.489074	-0.172816
C63	C	2.185004	-0.155741	0.160517
C64	C	1.073764	-0.526349	-0.573230
C65	C	1.407097	-0.193016	-0.239897
C66	C	1.740431	0.140318	0.093436
C67	C	0.964040	-0.526353	-0.573251
C68	C	1.297373	-0.193019	-0.239918
C69	C	1.630707	0.140314	0.093416
C70	C	0.964010	-0.402826	-0.439108
C71	C	1.297344	-0.069493	-0.105775
C72	C	1.630677	0.263840	0.227559
C73	C	1.073732	-0.402819	-0.439093
C74	C	1.407066	-0.069485	-0.105760
C75	C	1.740399	0.263848	0.227574
C76	C	1.518447	-1.018702	-0.506215
C77	C	1.851781	-0.685369	-0.172882
C78	C	2.185114	-0.352036	0.160451
C79	C	1.518383	-0.909470	-0.506182
C80	C	1.851716	-0.576137	-0.172848
C81	C	2.185050	-0.242803	0.160485
C82	C	1.792384	-0.464592	-0.506179
C83	C	2.125717	-0.131258	-0.172846
C84	C	2.459050	0.202075	0.160488
C85	C	1.909160	-0.464597	-0.506188
C86	C	2.242494	-0.131264	-0.172855
C87	C	2.575827	0.202070	0.160478
C88	C	1.518424	-0.464481	-0.780191
C89	C	1.851757	-0.131148	-0.446858
C90	C	2.185090	0.202185	-0.113524
C91	C	1.518455	-0.464440	-0.896968
C92	C	1.851788	-0.131107	-0.563634
C93	C	2.185122	0.202227	-0.230301
C94	C	1.518456	-0.212986	-0.506211
C95	C	1.851789	0.120347	-0.172878
C96	C	2.185123	0.453681	0.160456
C97	C	1.518501	-0.105772	-0.506234
C98	C	1.851834	0.227561	-0.172901
C99	C	2.185168	0.560895	0.160433
C100	C	1.451309	-0.402732	-0.951837
C101	C	1.784642	-0.069399	-0.618504
C102	C	2.117975	0.263935	-0.285170
C103	C	1.451333	-0.402702	-1.061561
C104	C	1.784666	-0.069369	-0.728228
C105	C	2.118000	0.263964	-0.394895
C106	C	1.585659	-0.526091	-1.061537
C107	C	1.918993	-0.192758	-0.728204
C108	C	2.252326	0.140575	-0.394870
C109	C	1.585629	-0.526125	-0.951815
C110	C	1.918962	-0.192792	-0.618482
C111	C	2.252295	0.140542	-0.285148
C112	C	1.518338	-0.464607	-0.233190
C113	C	1.851671	-0.131273	0.100143
C114	C	2.185004	0.202060	0.433476
C115	C	1.518510	-0.464376	-0.116414
C116	C	1.851843	-0.131043	0.216919
C117	C	2.185177	0.202290	0.550253
H118	H	1.118439	-0.576641	-0.627837
H119	H	1.451773	-0.243308	-0.294504
H120	H	1.785106	0.090026	0.038830
H121	H	1.640350	-0.576312	-1.106207
H122	H	1.973684	-0.242979	-0.772874
H123	H	2.307017	0.090354	-0.439540
H124	H	1.396655	-0.352454	-1.106231
H125	H	1.729988	-0.019121	-0.772898
H126	H	2.063322	0.314212	-0.439564
H127	H	1.640310	-0.576379	-0.907139
H128	H	1.973643	-0.243046	-0.573806
H129	H	2.306976	0.090288	-0.240472
H130	H	1.396611	-0.352504	-0.907184
H131	H	1.729945	-0.019171	-0.573851
H132	H	2.063278	0.314163	-0.240517
H133	H	0.919392	-0.576645	-0.627874
H134	H	1.252725	-0.243312	-0.294540
H135	H	1.586059	0.090021	0.038793
H136	H	1.118386	-0.352517	-0.384470
H137	H	1.451719	-0.019184	-0.051137
H138	H	1.785053	0.314149	0.282196
H139	H	0.919318	-0.352540	-0.384509
H140	H	1.252652	-0.019206	-0.051175
H141	H	1.585985	0.314127	0.282158
