data_functionalizedCrystal
_audit_creation_method	'MofGen! by Chris Wilmer'
_symmetry_space_group_name_H-M	'P1'
_symmetry_Int_Tables_number	1
_symmetry_cell_setting	triclinic
loop_
_symmetry_equiv_pos_as_xyz
  x,y,z
_cell_length_a	8.497365
_cell_length_b	10.686220
_cell_length_c	10.686285
_cell_angle_alpha	89.654569
_cell_angle_beta	94.418376
_cell_angle_gamma	94.338480
loop_
_atom_site_label
_atom_site_type_symbol
_atom_site_fract_x
_atom_site_fract_y
_atom_site_fract_z
Zn1	Zn	-0.670953	1.956275	0.351837
Zn2	Zn	-0.385539	1.972227	0.561733
Zn3	Zn	-0.425716	1.746466	0.368084
Zn4	Zn	-0.667821	1.762600	0.577660
O5	O	-0.537507	1.859392	0.464829
O6	O	-0.617589	2.133927	0.366216
O7	O	-0.170101	1.942203	0.536179
O8	O	-0.476373	1.760870	0.190379
O9	O	-0.407897	2.145646	0.520425
O10	O	-0.656547	1.915016	0.178442
O11	O	-0.199619	1.776337	0.393906
O12	O	-0.473335	1.573071	0.409350
O13	O	-0.889004	1.788368	0.547570
O14	O	-0.651208	1.584924	0.563324
O15	O	-0.891306	1.930660	0.381659
O16	O	-0.404860	1.957847	0.739396
O17	O	-0.612250	1.803835	0.751097
C18	C	-0.566292	1.533483	0.489829
C19	C	-0.578641	1.394060	0.500554
C20	C	-0.503887	1.884357	0.790762
C21	C	-0.489546	1.895152	0.930189
C22	C	-0.127621	1.859312	0.464972
C23	C	0.051011	1.859471	0.464701
C24	C	-0.508611	2.186573	0.439732
C25	C	-0.496297	2.325999	0.429037
C26	C	-0.571291	1.834364	0.137619
C27	C	-0.585687	1.823698	-0.001818
H28	H	-0.658582	1.345663	0.570000
O29	O	-0.709271	1.731730	0.934013
H30	H	-0.701537	1.737411	0.830898
O31	O	-0.365989	1.987142	0.994378
H32	H	-0.284543	1.935607	1.058511
O33	O	-0.390403	1.390084	0.337049
H34	H	-0.397009	1.493207	0.342765
