data_functionalizedCrystal
_audit_creation_method	'MofGen! by Chris Wilmer'
_symmetry_space_group_name_H-M	'P1'
_symmetry_Int_Tables_number	1
_symmetry_cell_setting	triclinic
loop_
_symmetry_equiv_pos_as_xyz
  x,y,z
_cell_length_a	11.026607
_cell_length_b	10.967829
_cell_length_c	7.540329
_cell_angle_alpha	77.868523
_cell_angle_beta	89.997535
_cell_angle_gamma	96.380563
loop_
_atom_site_label
_atom_site_type_symbol
_atom_site_fract_x
_atom_site_fract_y
_atom_site_fract_z
O1	O	1.614524	0.523510	-0.307476
O2	O	2.114524	1.023510	0.192524
O3	O	1.260721	0.463898	-0.289260
O4	O	1.760721	0.963898	0.210740
O5	O	1.445781	0.313887	-0.243405
O6	O	1.945781	0.813887	0.256595
O7	O	1.429463	0.673521	-0.353331
O8	O	1.929463	1.173521	0.146669
O9	O	1.445770	0.313882	0.051561
O10	O	1.945770	0.813882	0.551561
O11	O	1.260710	0.463893	0.005707
O12	O	1.760710	0.963893	0.505707
O13	O	1.614512	0.523506	-0.012509
O14	O	2.114512	1.023506	0.487491
Cu15	Cu	1.437610	0.493699	0.023531
Cu16	Cu	1.937610	0.993699	0.523531
Cu17	Cu	1.437623	0.493705	-0.325301
Cu18	Cu	1.937623	0.993705	0.174699
O19	O	1.429452	0.673516	-0.058364
O20	O	1.929452	1.173516	0.441636
C21	C	1.215413	0.452898	-0.138416
C22	C	1.715413	0.952898	0.361584
C23	C	1.080425	0.420115	-0.128397
C24	C	1.580425	0.920115	0.371603
C25	C	1.444588	0.267128	-0.081634
C26	C	1.944588	0.767128	0.418366
C27	C	1.441033	0.127805	-0.039060
C28	C	1.941033	0.627805	0.460940
C29	C	1.007374	0.510636	-0.156067
C30	C	1.507374	1.010636	0.343933
C31	C	0.867857	0.476755	-0.145714
C32	C	1.367857	0.976755	0.354286
C33	C	1.439454	0.065699	-0.172882
C34	C	1.939454	0.565699	0.327118
C35	C	1.435779	-0.078299	-0.128883
C36	C	1.935779	0.421701	0.371117
C37	C	1.659820	0.534505	-0.163357
C38	C	2.159820	1.034505	0.336643
C39	C	1.794808	0.567289	-0.173387
C40	C	2.294808	1.067289	0.326613
C41	C	1.430645	0.720275	-0.220139
C42	C	1.930645	1.220275	0.279861
C43	C	1.434200	0.859599	-0.262725
C44	C	1.934200	1.359599	0.237275
N45	N	1.437610	0.493696	0.268881
N46	N	1.937610	0.993696	0.768881
N47	N	1.437633	0.493700	-0.570648
N48	N	1.937633	0.993700	-0.070648
H49	H	1.048120	0.613218	-0.187412
H50	H	1.548120	1.113218	0.312588
F51	F	1.027174	0.286030	-0.087401
F52	F	1.527174	0.786030	0.412599
F53	F	1.433982	-0.148131	0.063459
F54	F	1.933982	0.351869	0.563459
F55	F	0.814612	0.342663	-0.104715
F56	F	1.314612	0.842663	0.395285
F57	F	1.435950	-0.070576	-0.455067
F58	F	1.935950	0.429424	0.044933
F59	F	1.439236	0.057968	0.153273
F60	F	1.939236	0.557968	0.653273
F61	F	1.441263	0.135537	-0.365215
F62	F	1.941263	0.635537	0.134785
F63	F	0.848051	0.701381	-0.214353
F64	F	1.348051	1.201381	0.285647
