data_functionalizedCrystal
_audit_creation_method	'MofGen! by Chris Wilmer'
_symmetry_space_group_name_H-M	'P1'
_symmetry_Int_Tables_number	1
_symmetry_cell_setting	triclinic
loop_
_symmetry_equiv_pos_as_xyz
  x,y,z
_cell_length_a	17.699077
_cell_length_b	14.519709
_cell_length_c	16.776229
_cell_angle_alpha	89.992406
_cell_angle_beta	89.993415
_cell_angle_gamma	83.480361
loop_
_atom_site_label
_atom_site_type_symbol
_atom_site_fract_x
_atom_site_fract_y
_atom_site_fract_z
O1	O	1.004415	0.116598	-0.066279
O2	O	0.784080	0.131777	-0.066283
O3	O	0.900089	-0.010076	-0.066274
O4	O	0.888405	0.258451	-0.066289
O5	O	0.900074	-0.010085	0.066302
O6	O	0.784064	0.131768	0.066293
O7	O	1.004400	0.116589	0.066297
Zn8	Zn	0.894229	0.124177	0.087345
Zn9	Zn	0.894250	0.124189	-0.087331
O10	O	0.888390	0.258442	0.066288
C11	C	0.755873	0.131230	0.000004
C12	C	0.671850	0.129601	0.000003
C13	C	0.632372	0.128829	0.072271
C14	C	0.553425	0.127283	0.072272
C15	C	0.513957	0.126517	0.000004
C16	C	0.553441	0.127287	-0.072270
C17	C	0.632387	0.128825	-0.072270
C18	C	0.235060	0.121080	-0.072271
C19	C	0.156108	0.119544	-0.072265
C20	C	0.156098	0.119539	0.072271
C21	C	0.235044	0.121077	0.072271
C22	C	0.274522	0.121842	-0.000002
C23	C	0.360125	0.123515	-0.000002
C24	C	0.428354	0.124850	0.000003
C25	C	0.899537	-0.044438	0.000014
C26	C	0.897905	-0.146812	0.000015
C27	C	0.891898	-0.521682	-0.000006
C28	C	0.893566	-0.417381	-0.000000
C29	C	0.894902	-0.334250	0.000005
C30	C	0.896570	-0.229943	0.000010
C31	C	1.032606	0.117137	0.000008
C32	C	1.116629	0.118766	0.000004
C33	C	0.888942	0.292804	-0.000002
C34	C	0.890574	0.395178	-0.000008
N35	N	0.894221	0.124169	0.206556
N36	N	0.894264	0.124190	-0.206542
C37	C	0.945606	0.061382	0.248277
C38	C	0.945610	0.061382	0.331729
C39	C	0.894233	0.124173	0.373459
C40	C	0.842842	0.186962	0.331732
C41	C	0.842835	0.186958	0.248281
C42	C	0.842870	0.186980	0.668279
C43	C	0.842882	0.186982	0.751735
C44	C	0.945645	0.061404	0.751727
C45	C	0.945638	0.061400	0.668276
C46	C	0.894245	0.124186	0.626557
C47	C	0.894240	0.124185	0.536068
C48	C	0.894240	0.124179	0.463945
H49	H	0.664501	0.129460	0.131121
Br50	Br	0.102544	0.118506	-0.170351
H51	H	0.267193	0.121700	-0.131121
Br52	Br	1.015370	-0.023814	0.611646
H53	H	0.267175	0.121706	0.131119
Br54	Br	1.015393	-0.023809	0.808350
Br55	Br	0.773090	0.272166	0.191659
H56	H	0.664529	0.129456	-0.131118
Br57	Br	0.499882	0.126206	-0.170350
H58	H	0.987447	0.010254	0.214306
Br59	Br	1.015345	-0.023833	0.388354
H60	H	0.801025	0.238105	0.634317
H61	H	0.801042	0.238116	0.785710
H62	H	0.801006	0.238085	0.365712
H63	H	0.123946	0.118912	0.131120
Br64	Br	0.499849	0.126250	0.170355
