data_functionalizedCrystal
_audit_creation_method	'MofGen! by Chris Wilmer'
_symmetry_space_group_name_H-M	'P1'
_symmetry_Int_Tables_number	1
_symmetry_cell_setting	triclinic
loop_
_symmetry_equiv_pos_as_xyz
  x,y,z
_cell_length_a	14.560438
_cell_length_b	12.970454
_cell_length_c	12.970454
_cell_angle_alpha	59.999644
_cell_angle_beta	90.000065
_cell_angle_gamma	60.000669
loop_
_atom_site_label
_atom_site_type_symbol
_atom_site_fract_x
_atom_site_fract_y
_atom_site_fract_z
Zr1	Zr	0.884752	1.128540	-0.135316
O2	O	0.738105	1.343628	-0.299940
O3	O	0.929707	0.913450	-0.084849
O4	O	0.929706	1.128541	-0.299941
O5	O	0.738107	1.128536	0.084820
O6	O	1.080844	1.128545	-0.299942
O7	O	0.738106	1.128536	-0.084848
O8	O	1.080846	0.743784	0.084818
O9	O	0.738105	1.513296	-0.299941
O10	O	1.061672	1.001922	-0.063327
O11	O	0.948880	1.001919	0.063295
O12	O	0.948879	1.255162	-0.189948
O13	O	0.836087	1.255159	-0.063326
Zr14	Zr	1.125801	1.128543	0.135282
Zr15	Zr	1.125800	1.128545	-0.135318
Zr16	Zr	0.884753	1.128538	0.135284
Zr17	Zr	0.884752	1.399140	-0.135317
Zr18	Zr	1.125801	0.857943	0.135283
O19	O	1.080846	1.343633	0.084815
O20	O	1.080844	1.343635	-0.299943
O21	O	0.738107	1.343626	0.084819
O22	O	1.272447	0.913455	0.299906
O23	O	1.272446	0.913457	-0.084853
O24	O	0.929708	0.913448	0.299910
O25	O	1.272446	1.128547	-0.084854
O26	O	1.080846	1.128542	0.299907
O27	O	0.929708	1.128538	0.299908
O28	O	1.272447	1.128547	0.084814
O29	O	0.929706	1.513300	-0.299943
O30	O	1.080846	0.743783	0.299909
O31	O	1.272447	0.743787	0.299907
O32	O	1.272447	0.743788	0.084816
O33	O	0.738106	1.513295	-0.084850
O34	O	0.929707	1.513299	-0.084852
O35	O	1.061673	1.001921	0.189914
O36	O	1.174466	1.001924	0.063292
O37	O	1.061672	1.255164	-0.063329
O38	O	0.948880	1.255161	0.063293
C39	C	1.005276	0.790062	-0.000015
C40	C	1.005276	0.675185	-0.000015
C41	C	0.703762	1.128535	-0.000014
C42	C	0.601431	1.128533	-0.000012
C43	C	0.516067	0.996356	0.066077
C44	C	0.612223	0.996346	0.066078
C45	C	0.494474	1.260738	-0.066119
C46	C	0.398320	1.260745	-0.066127
C47	C	0.814362	0.837522	0.085418
C48	C	0.921314	0.705321	0.151537
C49	C	0.942086	0.588608	0.269980
C50	C	0.855909	0.604091	0.322331
C51	C	0.748960	0.736294	0.256220
C52	C	0.728190	0.853002	0.137756
C53	C	0.196184	1.419560	-0.085453
C54	C	0.089233	1.551765	-0.151558
C55	C	0.068455	1.668490	-0.270001
C56	C	0.154628	1.653022	-0.322344
C57	C	0.261579	1.520817	-0.256239
C58	C	0.282351	1.404091	-0.137798
C59	C	1.306790	1.128548	-0.000020
C60	C	1.409122	1.128550	-0.000021
C61	C	1.005275	1.128543	-0.338496
C62	C	1.005274	1.128544	-0.453373
C63	C	1.005276	1.467021	-0.000019
C64	C	1.005276	1.581897	-0.000019
C65	C	1.005278	1.128540	0.338462
C66	C	1.005278	1.128539	0.453339
C67	C	1.306790	0.790068	-0.000019
C68	C	1.409121	0.675194	-0.000019
C69	C	1.005278	0.790061	0.338464
C70	C	1.005278	0.675183	0.453341
C71	C	1.306792	0.790067	0.338461
C72	C	1.409123	0.675192	0.453337
C73	C	0.703761	1.467016	-0.338495
C74	C	0.601429	1.581891	-0.453371
C75	C	0.703762	1.467015	-0.000015
C76	C	0.601431	1.581889	-0.000015
C77	C	1.005275	1.467022	-0.338498
C78	C	1.005275	1.581900	-0.453375
C79	C	1.457179	0.527761	0.093457
C80	C	1.553320	0.419809	0.093461
C81	C	1.601407	0.459293	-0.000008
C82	C	1.553341	0.606740	-0.093494
C83	C	1.457197	0.714689	-0.093501
C84	C	1.457187	0.527760	0.507283
C85	C	1.553349	0.419806	0.615210
C86	C	1.601441	0.459286	0.669193
C87	C	1.553373	0.606733	0.615236
C88	C	1.457217	0.714684	0.507307
C89	C	0.553374	1.729323	-0.507327
C90	C	0.457233	1.837277	-0.615277
C91	C	0.409145	1.797796	-0.669264
C92	C	0.457209	1.650349	-0.615302
C93	C	0.553353	1.542399	-0.507359
C94	C	0.553374	1.542360	0.093470
C95	C	0.457233	1.650282	0.093497
C96	C	0.409145	1.797732	0.000031
C97	C	0.457211	1.837261	-0.093459
C98	C	0.553355	1.729340	-0.093479
H99	H	0.524869	0.888713	0.119901
H100	H	0.592511	1.422306	0.169581
H101	H	0.678797	0.748901	0.298844
Cl102	Cl	1.613754	0.234458	0.683023
H103	H	0.418110	1.618069	0.169628
H104	H	0.330858	1.885594	0.000062
H105	H	0.872838	0.509052	0.418786
H106	H	0.592472	1.761546	-0.169611
Cl107	Cl	1.613729	0.234460	0.211000
Cl108	Cl	0.396736	1.600740	-0.683181
H109	H	0.418044	1.957328	-0.169554
H110	H	1.679737	0.371371	0.757077
H111	H	1.418043	0.495586	0.463345
H112	H	0.418111	1.957327	-0.659196
H113	H	1.418039	0.495585	0.169574
Cl114	Cl	1.396791	0.900032	-0.211031
Cl115	Cl	1.076539	0.422412	0.353095
Cl116	Cl	1.029645	0.685857	0.085724
H117	H	1.679691	0.371379	0.000011
Cl118	Cl	0.288274	1.933526	-0.804963
H119	H	1.418087	0.834728	0.463396
Cl120	Cl	0.788244	0.984228	-0.063511
H121	H	0.592512	1.761498	-0.463382
H122	H	1.592508	0.638868	-0.169593
H123	H	0.331744	1.508230	-0.298866
Cl124	Cl	0.128512	1.799767	-0.471245
Cl125	Cl	0.480906	1.426917	-0.149194
Cl126	Cl	-0.065998	1.834699	-0.353097
Cl127	Cl	0.613747	1.357056	-0.439534
H128	H	0.019070	1.564355	-0.108928
H129	H	1.592545	0.638858	0.659205
H130	H	0.213091	1.324511	0.010986
