data_functionalizedCrystal
_audit_creation_method	'MofGen! by Chris Wilmer'
_symmetry_space_group_name_H-M	'P1'
_symmetry_Int_Tables_number	1
_symmetry_cell_setting	triclinic
loop_
_symmetry_equiv_pos_as_xyz
  x,y,z
_cell_length_a	11.792241
_cell_length_b	10.654553
_cell_length_c	9.130313
_cell_angle_alpha	89.999918
_cell_angle_beta	90.002721
_cell_angle_gamma	95.660203
loop_
_atom_site_label
_atom_site_type_symbol
_atom_site_fract_x
_atom_site_fract_y
_atom_site_fract_z
O1	O	0.159434	-1.667379	0.121816
O2	O	0.659434	-1.167379	0.621816
O3	O	0.174619	-1.301858	0.121816
O4	O	0.674619	-0.801858	0.621816
O5	O	0.001876	-1.493489	0.121806
O6	O	0.501876	-0.993489	0.621806
O7	O	0.332176	-1.475749	0.121826
O8	O	0.832176	-0.975749	0.621826
O9	O	0.001876	-1.493490	-0.121793
O10	O	0.501876	-0.993490	0.378207
O11	O	0.174619	-1.301859	-0.121783
O12	O	0.674619	-0.801859	0.378217
O13	O	0.159434	-1.667380	-0.121782
O14	O	0.659434	-1.167380	0.378218
Cu15	Cu	0.167026	-1.484619	-0.144025
Cu16	Cu	0.667026	-0.984619	0.355975
Cu17	Cu	0.167026	-1.484619	0.144059
Cu18	Cu	0.667026	-0.984619	0.644059
O19	O	0.332176	-1.475749	-0.121772
O20	O	0.832176	-0.975749	0.378228
C21	C	-0.040417	-1.492375	0.000007
C22	C	0.459583	-0.992375	0.500007
C23	C	-0.166439	-1.489040	0.000008
C24	C	0.333561	-0.989040	0.500008
C25	C	0.173503	-1.255064	0.000016
C26	C	0.673503	-0.755064	0.500016
C27	C	0.170165	-1.115630	0.000016
C28	C	0.670165	-0.615630	0.500016
C29	C	0.160549	-1.714174	0.000020
C30	C	0.660549	-1.214174	0.500020
C31	C	0.163887	-1.853608	0.000031
C32	C	0.663887	-1.353608	0.500031
C33	C	-0.397165	-1.482906	0.000033
C34	C	0.102835	-0.982906	0.500033
C35	C	-0.268772	-1.486314	0.000020
C36	C	0.231228	-0.986314	0.500020
C37	C	0.374470	-1.476863	0.000030
C38	C	0.874470	-0.976863	0.500030
C39	C	0.500491	-1.480199	0.000038
C40	C	1.000491	-0.980199	0.500038
C41	C	0.165453	-0.919104	-0.132760
C42	C	0.665453	-0.419104	0.367240
C43	C	0.168596	-1.050116	-0.132768
C44	C	0.668596	-0.550116	0.367232
C45	C	0.168602	-1.050125	0.132817
C46	C	0.668602	-0.550125	0.632817
C47	C	0.165468	-0.919114	0.132823
C48	C	0.665468	-0.419114	0.632823
C49	C	0.165445	-0.919100	-0.286094
C50	C	0.665445	-0.419100	0.213906
C51	C	0.168588	-1.050112	-0.286102
C52	C	0.668588	-0.550112	0.213898
N53	N	0.167026	-1.484629	-0.346648
N54	N	0.667026	-0.984629	0.153352
C55	C	0.236499	-1.561254	-0.576659
C56	C	0.736499	-1.061254	-0.076659
C57	C	0.236506	-1.561256	-0.423322
C58	C	0.736506	-1.061256	0.076678
C59	C	0.097542	-1.407985	-0.423318
C60	C	0.597542	-0.907985	0.076682
C61	C	0.097541	-1.407978	-0.576652
C62	C	0.597541	-0.907978	-0.076652
C63	C	0.316725	-1.649748	-0.576660
C64	C	0.816725	-1.149748	-0.076660
C65	C	0.316733	-1.649750	-0.423323
C66	C	0.816733	-1.149750	0.076677
N67	N	0.167018	-1.484619	0.346681
N68	N	0.667018	-0.984619	0.846681
H69	H	0.164207	-0.865791	0.240954
H70	H	0.664207	-0.365791	0.740954
H71	H	0.243881	-0.872594	-0.344964
H72	H	0.743881	-0.372594	0.155036
H73	H	0.169891	-1.103476	0.240932
H74	H	0.669891	-0.603476	0.740932
H75	H	0.082664	-0.889761	-0.333671
H76	H	0.582664	-0.389761	0.166329
H77	H	0.251372	-1.079443	-0.333677
H78	H	0.751372	-0.579443	0.166323
H79	H	0.040978	-1.345585	-0.360878
H80	H	0.540978	-0.845585	0.139122
H81	H	0.090145	-1.096618	-0.344972
H82	H	0.590145	-0.596618	0.155028
H83	H	0.040973	-1.345563	-0.639063
H84	H	0.540973	-0.845563	-0.139063
H85	H	0.406232	-1.618567	-0.618264
H86	H	0.906232	-1.118567	-0.118264
H87	H	0.281049	-1.744427	-0.624227
H88	H	0.781049	-1.244427	-0.124227
H89	H	0.402203	-1.609997	-0.375761
H90	H	0.902203	-1.109997	0.124239
H91	H	0.288835	-1.748884	-0.381715
H92	H	0.788835	-1.248884	0.118285
