data_functionalizedCrystal
_audit_creation_method	'MofGen! by Chris Wilmer'
_symmetry_space_group_name_H-M	'P1'
_symmetry_Int_Tables_number	1
_symmetry_cell_setting	triclinic
loop_
_symmetry_equiv_pos_as_xyz
  x,y,z
_cell_length_a	16.109302
_cell_length_b	16.176319
_cell_length_c	16.109298
_cell_angle_alpha	90.001949
_cell_angle_beta	96.539015
_cell_angle_gamma	90.007924
loop_
_atom_site_label
_atom_site_type_symbol
_atom_site_fract_x
_atom_site_fract_y
_atom_site_fract_z
O1	O	1.103132	0.068774	-0.106868
O2	O	1.436466	0.402107	0.226465
O3	O	1.769799	0.735440	0.559798
O4	O	0.861070	0.068766	-0.120167
O5	O	1.194404	0.402099	0.213166
O6	O	1.527737	0.735433	0.546500
O7	O	0.988752	0.068776	0.007513
O8	O	1.322086	0.402109	0.340847
O9	O	1.655419	0.735443	0.674180
O10	O	0.975450	0.068764	-0.234549
O11	O	1.308784	0.402097	0.098784
O12	O	1.642117	0.735430	0.432118
O13	O	0.988737	-0.068717	0.007514
O14	O	1.322071	0.264616	0.340847
O15	O	1.655404	0.597949	0.674180
O16	O	0.861055	-0.068727	-0.120167
O17	O	1.194389	0.264606	0.213167
O18	O	1.527722	0.597939	0.546500
O19	O	1.103117	-0.068720	-0.106868
O20	O	1.436451	0.264614	0.226465
O21	O	1.769784	0.597947	0.559799
Cu22	Cu	0.982085	-0.081278	-0.113517
Cu23	Cu	1.315418	0.252056	0.219816
Cu24	Cu	1.648752	0.585389	0.553149
Cu25	Cu	0.982103	0.081324	-0.113518
Cu26	Cu	1.315436	0.414657	0.219816
Cu27	Cu	1.648769	0.747991	0.553149
O28	O	0.975435	-0.068730	-0.234549
O29	O	1.308769	0.264604	0.098785
O30	O	1.642102	0.597937	0.432118
C31	C	0.830088	0.000018	-0.119628
C32	C	1.163421	0.333352	0.213705
C33	C	1.496755	0.666685	0.547039
C34	C	0.737793	0.000016	-0.118013
C35	C	1.071126	0.333349	0.215321
C36	C	1.404459	0.666683	0.548654
N37	N	0.982078	-0.195643	-0.113517
N38	N	1.315412	0.137690	0.219817
N39	N	1.648745	0.471024	0.553150
C40	C	0.525444	-0.074923	-0.114277
C41	C	0.858777	0.258410	0.219056
C42	C	1.192110	0.591744	0.552389
C43	C	0.438724	-0.074920	-0.112751
C44	C	0.772057	0.258413	0.220583
C45	C	1.105390	0.591747	0.553916
C46	C	0.438750	0.074982	-0.112755
C47	C	0.772084	0.408316	0.220578
C48	C	1.105417	0.741649	0.553911
C49	C	0.525470	0.074979	-0.114276
C50	C	0.858803	0.408312	0.219057
C51	C	1.192136	0.741645	0.552391
C52	C	0.568813	0.000023	-0.115041
C53	C	0.902147	0.333357	0.218292
C54	C	1.235480	0.666690	0.551625
C55	C	0.395374	0.000030	-0.111994
C56	C	0.728707	0.333364	0.221339
C57	C	1.062041	0.666697	0.554673
C58	C	0.301348	0.000034	-0.110338
C59	C	0.634682	0.333367	0.222995
C60	C	0.968015	0.666701	0.556328
C61	C	0.662845	0.000019	-0.116695
C62	C	0.996179	0.333353	0.216638
C63	C	1.329512	0.666686	0.549971
C64	C	1.032484	-0.238904	-0.163960
C65	C	1.365817	0.094429	0.169373
C66	C	1.699151	0.427762	0.502707
C67	C	1.032493	-0.325452	-0.163957
C68	C	1.365826	0.007882	0.169377
C69	C	1.699160	0.341215	0.502710
C70	C	0.982091	-0.368735	-0.113514
C71	C	1.315425	-0.035402	0.219819
C72	C	1.648758	0.297931	0.553153
C73	C	0.931684	-0.325468	-0.063065
C74	C	1.265017	0.007866	0.270268
C75	C	1.598350	0.341199	0.603602
C76	C	0.931680	-0.238922	-0.063064
C77	C	1.265013	0.094411	0.270269
C78	C	1.598347	0.427744	0.603602
C79	C	0.931699	-0.674496	-0.063066
C80	C	1.265032	-0.341163	0.270267
C81	C	1.598366	-0.007829	0.603601
C82	C	0.931705	-0.761048	-0.063072
C83	C	1.265038	-0.427714	0.270261
C84	C	1.598372	-0.094381	0.603594
C85	C	1.032512	-0.761025	-0.163959
C86	C	1.365846	-0.427692	0.169375
C87	C	1.699179	-0.094359	0.502708
C88	C	1.032508	-0.674480	-0.163958
C89	C	1.365842	-0.341146	0.169376
C90	C	1.699175	-0.007813	0.502709
C91	C	0.982104	-0.631220	-0.113506
C92	C	1.315438	-0.297886	0.219828
C93	C	1.648771	0.035447	0.553161
C94	C	0.982097	-0.537376	-0.113509
C95	C	1.315430	-0.204042	0.219825
C96	C	1.648763	0.129291	0.553158
C97	C	0.982094	-0.462578	-0.113515
C98	C	1.315427	-0.129245	0.219818
C99	C	1.648761	0.204089	0.553151
C100	C	1.134100	0.000030	-0.107407
C101	C	1.467433	0.333363	0.225926
C102	C	1.800766	0.666696	0.559260
C103	C	1.226395	0.000038	-0.109022
C104	C	1.559728	0.333371	0.224311
C105	C	1.893062	0.666704	0.557644
C106	C	0.988206	0.000033	0.038489
C107	C	1.321540	0.333366	0.371822
C108	C	1.654873	0.666699	0.705155
C109	C	0.986592	0.000042	0.130784
C110	C	1.319926	0.333376	0.464117
C111	C	1.653259	0.666709	0.797451
N112	N	0.982116	0.195689	-0.113512
N113	N	1.315449	0.529023	0.219821
N114	N	1.648782	0.862356	0.553155
C115	C	0.975981	0.000016	-0.265524
C116	C	1.309314	0.333349	0.067810
C117	C	1.642648	0.666682	0.401143
C118	C	0.977595	0.000011	-0.357819
C119	C	1.310928	0.333345	-0.024486
C120	C	1.644262	0.666678	0.308848
C121	C	0.981333	0.074972	0.429853
C122	C	1.314667	0.408306	0.763186
C123	C	1.648000	0.741639	1.096519
C124	C	0.982861	0.074978	0.343133
C125	C	1.316194	0.408312	0.676466
C126	C	1.649528	0.741645	1.009799
C127	C	0.982857	-0.074924	0.343119
C128	C	1.316190	0.258409	0.676452
C129	C	1.649523	0.591742	1.009785
C130	C	0.981335	-0.074930	0.429838
C131	C	1.314668	0.258404	0.763171
C132	C	1.648001	0.591737	1.096504
C133	C	0.980569	0.000021	0.473202
C134	C	1.313902	0.333355	0.806535
C135	C	1.647236	0.666688	1.139869
C136	C	0.983619	0.000032	0.299763
C137	C	1.316952	0.333366	0.633096
C138	C	1.650285	0.666699	0.966430
C139	C	0.985275	0.000038	0.205737
C140	C	1.318609	0.333371	0.539071
C141	C	1.651942	0.666705	0.872404
C142	C	0.978914	0.000016	0.567234
C143	C	1.312247	0.333349	0.900567
C144	C	1.645580	0.666682	1.233900
H145	H	0.560732	-0.135957	-0.114901
H146	H	0.894065	0.197377	0.218433
H147	H	1.227398	0.530710	0.551766
H148	H	0.403449	0.136008	-0.112133
H149	H	0.736782	0.469342	0.221200
H150	H	1.070116	0.802675	0.554533
H151	H	0.403416	-0.135949	-0.112129
H152	H	0.736749	0.197384	0.221205
H153	H	1.070082	0.530718	0.554538
H154	H	0.890650	-0.360716	-0.021989
H155	H	1.223983	-0.027383	0.311344
H156	H	1.557317	0.305950	0.644677
H157	H	0.980715	-0.135967	0.465134
H158	H	1.314048	0.197366	0.798467
H159	H	1.647381	0.530699	1.131801
H160	H	0.560783	0.136013	-0.114896
H161	H	0.894116	0.469346	0.218437
H162	H	1.227449	0.802679	0.551771
F163	F	1.086127	-0.192846	-0.217651
F164	F	1.419461	0.140487	0.115683
F165	F	1.752794	0.473821	0.449016
H166	H	1.073540	-0.360671	-0.205031
H167	H	1.406873	-0.027338	0.128302
H168	H	1.740206	0.305995	0.461635
H169	H	1.073556	-0.796258	-0.205037
H170	H	1.406889	-0.462925	0.128296
H171	H	1.740222	-0.129591	0.461630
H172	H	0.983485	0.136011	0.307842
H173	H	1.316818	0.469344	0.641175
H174	H	1.650151	0.802677	0.974508
H175	H	0.890660	-0.796287	-0.021993
H176	H	1.223993	-0.462954	0.311340
H177	H	1.557327	-0.129620	0.644674
F178	F	1.086143	-0.628418	-0.217655
F179	F	1.419476	-0.295085	0.115678
F180	F	1.752810	0.038248	0.449012
H181	H	0.890658	-0.639284	-0.021984
H182	H	1.223991	-0.305951	0.311349
H183	H	1.557324	0.027383	0.644682
F184	F	0.878038	-0.192881	-0.009369
F185	F	1.211372	0.140453	0.323965
F186	F	1.544705	0.473786	0.657298
H187	H	0.983479	-0.135947	0.307801
H188	H	1.316812	0.197387	0.641134
H189	H	1.650145	0.530720	0.974467
F190	F	0.980521	0.154741	0.476001
F191	F	1.313854	0.488075	0.809335
F192	F	1.647188	0.821408	1.142668
