data_functionalizedCrystal
_audit_creation_method	'MofGen! by Chris Wilmer'
_symmetry_space_group_name_H-M	'P1'
_symmetry_Int_Tables_number	1
_symmetry_cell_setting	triclinic
loop_
_symmetry_equiv_pos_as_xyz
  x,y,z
_cell_length_a	14.044191
_cell_length_b	10.489716
_cell_length_c	13.101018
_cell_angle_alpha	93.396870
_cell_angle_beta	86.333122
_cell_angle_gamma	88.860456
loop_
_atom_site_label
_atom_site_type_symbol
_atom_site_fract_x
_atom_site_fract_y
_atom_site_fract_z
O1	O	1.264962	0.301348	-0.085148
O2	O	0.988918	0.290232	-0.085162
O3	O	1.133234	0.110828	-0.085158
O4	O	1.120646	0.480751	-0.085151
O5	O	1.122867	0.123711	0.085272
O6	O	0.978552	0.303115	0.085269
O7	O	1.254596	0.314231	0.085282
Zn8	Zn	1.114928	0.310718	0.112335
Zn9	Zn	1.128586	0.293744	-0.112214
O10	O	1.110280	0.493634	0.085279
C11	C	0.948388	0.291811	0.000052
C12	C	0.843064	0.277307	0.000046
C13	C	0.593293	0.353654	0.000058
C14	C	0.650227	0.250813	0.000054
C15	C	0.757531	0.265558	0.000050
C16	C	0.485979	0.338911	0.000062
C17	C	1.127105	0.069641	0.000054
C18	C	1.124276	-0.072277	0.000044
C19	C	1.212774	-0.160971	0.000058
C20	C	1.171121	-0.249429	-0.083973
C21	C	1.160880	-0.236693	0.084058
C22	C	1.082664	-0.158871	-0.084056
C23	C	1.072431	-0.146123	0.084051
C24	C	1.030714	-0.234539	-0.000001
C25	C	1.295126	0.312651	0.000067
C26	C	1.400450	0.327154	0.000066
C27	C	1.116409	0.534821	0.000065
C28	C	1.119238	0.676739	0.000067
N29	N	1.105613	0.322302	0.265584
N30	N	1.137908	0.282151	-0.265463
C31	C	1.150576	0.266385	0.525494
C32	C	1.092949	0.338065	0.474620
C33	C	1.099997	0.329292	0.358301
C34	C	1.143528	0.275156	0.641823
H35	H	0.625137	0.452765	0.000056
C36	C	1.206706	0.049277	0.492168
C37	C	1.224326	0.174670	0.466357
H38	H	1.252235	-0.007334	0.455641
H39	H	1.211598	0.043202	0.563701
H40	H	1.144338	0.026918	0.474651
H41	H	1.286692	0.197033	0.483881
H42	H	1.219443	0.180750	0.394809
H43	H	1.289758	-0.128491	-0.000023
H44	H	0.618386	0.151689	-0.000020
H45	H	1.212800	-0.294503	-0.155012
H46	H	1.049651	-0.124731	-0.155176
H47	H	0.953680	-0.266790	-0.000050
C48	C	1.057369	-0.124314	0.267872
C49	C	1.016212	-0.085222	0.179953
H50	H	1.022669	-0.086707	0.327082
H51	H	1.055619	-0.214702	0.268905
H52	H	1.121731	-0.098025	0.267259
H53	H	0.951853	-0.111520	0.180562
H54	H	1.017953	0.005185	0.178920
H55	H	1.193936	-0.271003	0.155098
H56	H	1.038320	0.406021	0.518424
