data_functionalizedCrystal
_audit_creation_method	'MofGen! by Chris Wilmer'
_symmetry_space_group_name_H-M	'P1'
_symmetry_Int_Tables_number	1
_symmetry_cell_setting	triclinic
loop_
_symmetry_equiv_pos_as_xyz
  x,y,z
_cell_length_a	15.995343
_cell_length_b	14.421503
_cell_length_c	15.995292
_cell_angle_alpha	89.992517
_cell_angle_beta	83.478900
_cell_angle_gamma	90.003311
loop_
_atom_site_label
_atom_site_type_symbol
_atom_site_fract_x
_atom_site_fract_y
_atom_site_fract_z
O1	O	1.110972	0.077012	0.107887
O2	O	0.867193	0.077033	0.121222
O3	O	0.995772	0.077024	-0.007337
O4	O	0.982394	0.077022	0.236445
O5	O	0.995751	-0.077200	-0.007318
O6	O	0.867172	-0.077190	0.121241
O7	O	1.110951	-0.077211	0.107906
Cu8	Cu	0.989059	-0.091283	0.114575
Cu9	Cu	0.989085	0.091105	0.114552
O10	O	0.982372	-0.077202	0.236464
C11	C	0.835988	-0.000075	0.120681
C12	C	0.743037	-0.000067	0.119032
C13	C	0.572852	-0.000079	0.116038
C14	C	0.549525	-0.000079	0.023238
C15	C	0.452848	-0.000434	0.021493
C16	C	0.405292	-0.000091	0.113089
C17	C	0.434362	-0.087985	0.159761
C18	C	0.531154	-0.088053	0.160862
C19	C	0.531089	0.087334	0.162199
C20	C	0.434595	0.088484	0.158773
C21	C	0.310595	-0.000100	0.111428
C22	C	0.667549	-0.000076	0.117702
N23	N	0.989048	-0.219564	0.114590
C24	C	0.929583	-0.469213	0.174009
C25	C	1.005238	-0.531023	0.190259
C26	C	0.989068	-0.408725	0.114570
C27	C	0.913432	-0.531009	0.098340
C28	C	0.989081	-0.591447	0.114553
C29	C	1.064762	-0.469174	0.130858
C30	C	0.972906	-0.469156	0.038906
C31	C	1.048616	-0.530937	0.055124
C32	C	0.989060	-0.303464	0.114583
C33	C	0.989098	-0.696706	0.114540
C34	C	1.142156	-0.000101	0.108447
C35	C	1.235107	-0.000103	0.110096
N36	N	0.989103	0.219386	0.114530
C37	C	0.995217	-0.000086	-0.038523
C38	C	0.993584	-0.000079	-0.131476
C39	C	0.987583	-0.000087	-0.469214
C40	C	1.080388	-0.000439	-0.445904
C41	C	1.082152	-0.000089	-0.349229
C42	C	0.990561	-0.000083	-0.301658
C43	C	0.944175	0.087987	-0.330769
C44	C	0.943058	0.088058	-0.427559
C45	C	0.941139	-0.087323	-0.427395
C46	C	0.944578	-0.088484	-0.330902
C47	C	0.992239	-0.000078	-0.206962
C48	C	0.985902	-0.000085	-0.563910
C49	C	0.982927	-0.000090	0.267650
C50	C	0.984560	-0.000091	0.360603
H51	H	0.577549	0.062942	-0.012739
Br52	Br	0.403726	0.196867	0.102104
H53	H	1.118712	0.063148	-0.330833
H54	H	0.401625	0.094063	0.225607
Br55	Br	0.806815	-0.576287	0.075472
H56	H	0.559374	0.153976	0.132913
Br57	Br	0.597829	-0.104974	-0.035730
Br58	Br	1.139698	0.104227	-0.494282
H59	H	0.545088	0.088181	0.230505
H60	H	0.976404	0.153524	-0.310717
Br61	Br	0.400874	-0.197425	0.106417
Br62	Br	0.845822	-0.424036	0.257850
H63	H	1.018920	-0.558197	0.254239
H64	H	1.128745	-0.442126	0.144654
Br65	Br	0.827283	-0.088307	-0.450709
Br66	Br	0.831840	0.093460	-0.277651
H67	H	1.098982	-0.557869	0.004848
Br68	Br	0.950064	-0.423824	-0.067699
H69	H	0.970356	-0.154080	-0.455476
Br70	Br	1.142677	-0.105329	-0.317499
H71	H	0.978354	-0.153638	-0.312330
Br72	Br	0.422106	-0.106075	-0.039070
H73	H	0.975200	0.153888	-0.454385
H74	H	0.877725	-0.093799	-0.297930
Br75	Br	0.555426	-0.094306	0.274285
H76	H	1.116150	-0.063599	-0.473895
H77	H	0.875013	0.092052	-0.442108
H78	H	0.557938	-0.154005	0.128933
Br79	Br	0.381264	-0.093027	0.272123
Br80	Br	0.421169	0.104561	-0.039397
