data_functionalizedCrystal
_audit_creation_method	'MofGen! by Chris Wilmer'
_symmetry_space_group_name_H-M	'P1'
_symmetry_Int_Tables_number	1
_symmetry_cell_setting	triclinic
loop_
_symmetry_equiv_pos_as_xyz
  x,y,z
_cell_length_a	9.065218
_cell_length_b	14.044220
_cell_length_c	8.140239
_cell_angle_alpha	89.995422
_cell_angle_beta	89.997198
_cell_angle_gamma	89.102381
loop_
_atom_site_label
_atom_site_type_symbol
_atom_site_fract_x
_atom_site_fract_y
_atom_site_fract_z
O1	O	1.975818	0.139141	-0.136623
O2	O	1.547798	0.150554	-0.136626
O3	O	1.755383	0.006808	-0.136608
O4	O	1.768232	0.282887	-0.136641
O5	O	1.755371	0.006806	0.136619
O6	O	1.547785	0.150552	0.136601
O7	O	1.975805	0.139139	0.136604
Zn8	Zn	1.761793	0.144845	0.179983
Zn9	Zn	1.761810	0.144848	-0.180005
O10	O	1.768220	0.282885	0.136586
C11	C	1.492683	0.149456	-0.000013
C12	C	1.328477	0.146176	-0.000013
C13	C	1.749752	-0.028556	0.000006
C14	C	1.732975	-0.133926	0.000008
C15	C	1.702304	-0.326850	-0.000016
C16	C	1.821293	-0.383462	-0.000020
C17	C	1.804226	-0.490812	-0.000034
C18	C	1.719368	-0.219491	-0.000003
C19	C	2.030920	0.140237	-0.000013
C20	C	2.195126	0.143517	-0.000023
C21	C	1.773850	0.318249	-0.000032
C22	C	1.790627	0.423619	-0.000044
N23	N	1.761792	0.144843	0.425666
N24	N	1.761821	0.144842	-0.425688
H25	H	1.935980	-0.351306	-0.000130
C26	C	1.547376	-0.370290	0.000004
N27	N	1.430686	-0.403019	0.000033
