data_functionalizedCrystal
_audit_creation_method	'MofGen! by Chris Wilmer'
_symmetry_space_group_name_H-M	'P1'
_symmetry_Int_Tables_number	1
_symmetry_cell_setting	triclinic
loop_
_symmetry_equiv_pos_as_xyz
  x,y,z
_cell_length_a	17.699077
_cell_length_b	17.699092
_cell_length_c	16.776229
_cell_angle_alpha	89.995030
_cell_angle_beta	89.993415
_cell_angle_gamma	83.283472
loop_
_atom_site_label
_atom_site_type_symbol
_atom_site_fract_x
_atom_site_fract_y
_atom_site_fract_z
O1	O	1.004084	0.095691	-0.066275
O2	O	1.337418	0.429024	0.267059
O3	O	1.670751	0.762358	0.600392
O4	O	0.783706	0.108148	-0.066278
O5	O	1.117039	0.441482	0.267055
O6	O	1.450372	0.774815	0.600388
O7	O	0.900118	-0.008269	-0.066274
O8	O	1.233451	0.325064	0.267059
O9	O	1.566785	0.658397	0.600392
O10	O	0.887672	0.212109	-0.066278
O11	O	1.221005	0.545442	0.267055
O12	O	1.554339	0.878775	0.600388
O13	O	0.900102	-0.008276	0.066302
O14	O	1.233436	0.325057	0.399635
O15	O	1.566769	0.658390	0.732969
O16	O	0.783690	0.108141	0.066298
O17	O	1.117023	0.441474	0.399632
O18	O	1.450357	0.774808	0.732965
O19	O	1.004069	0.095684	0.066302
O20	O	1.337402	0.429017	0.399635
O21	O	1.670735	0.762351	0.732969
Zn22	Zn	0.893877	0.101911	0.087349
Zn23	Zn	1.227210	0.435245	0.420683
Zn24	Zn	1.560544	0.768578	0.754016
Zn25	Zn	0.893897	0.101921	-0.087326
Zn26	Zn	1.227231	0.435254	0.246008
Zn27	Zn	1.560564	0.768587	0.579341
O28	O	0.887656	0.212101	0.066298
O29	O	1.220990	0.545435	0.399631
O30	O	1.554323	0.878768	0.732965
C31	C	0.755501	0.107699	0.000010
C32	C	1.088834	0.441032	0.333343
C33	C	1.422167	0.774366	0.666676
C34	C	0.671482	0.106362	0.000008
C35	C	1.004816	0.439696	0.333341
C36	C	1.338149	0.773029	0.666675
C37	C	0.632007	0.105729	0.072276
C38	C	0.965340	0.439062	0.405610
C39	C	1.298673	0.772395	0.738943
C40	C	0.553064	0.104460	0.072277
C41	C	0.886397	0.437794	0.405611
C42	C	1.219731	0.771127	0.738944
C43	C	0.513598	0.103831	0.000009
C44	C	0.846931	0.437165	0.333342
C45	C	1.180265	0.770498	0.666676
C46	C	0.553080	0.104463	-0.072265
C47	C	0.886413	0.437796	0.261068
C48	C	1.219746	0.771130	0.594402
C49	C	0.632021	0.105726	-0.072265
C50	C	0.965355	0.439059	0.261068
C51	C	1.298688	0.772392	0.594402
C52	C	0.234716	0.099370	-0.072266
C53	C	0.568049	0.432703	0.261067
C54	C	0.901383	0.766036	0.594400
C55	C	0.155768	0.098109	-0.072261
C56	C	0.489102	0.431442	0.261073
C57	C	0.822435	0.764776	0.594406
C58	C	0.155759	0.098104	0.072276
C59	C	0.489092	0.431438	0.405609
C60	C	0.822425	0.764771	0.738943
C61	C	0.234701	0.099367	0.072276
C62	C	0.568034	0.432700	0.405609
C63	C	0.901367	0.766034	0.738943
C64	C	0.274176	0.099994	0.000003
C65	C	0.607509	0.433328	0.333336
C66	C	0.940842	0.766661	0.666669
C67	C	0.359774	0.101368	0.000002
C68	C	0.693108	0.434701	0.333336
C69	C	1.026441	0.768035	0.666669
C70	C	0.428000	0.102463	0.000008
C71	C	0.761333	0.435797	0.333342
C72	C	1.094667	0.769130	0.666675
C73	C	0.899663	-0.036470	0.000013
C74	C	1.232996	0.296864	0.333346
C75	C	1.566330	0.630197	0.666679
C76	C	0.898322	-0.120487	0.000009
C77	C	1.231655	0.212846	0.333342
C78	C	1.564989	0.546179	0.666676
C79	C	0.897702	-0.159951	-0.072260
C80	C	1.231035	0.173382	0.261074
C81	C	1.564369	0.506716	0.594407
C82	C	0.896437	-0.238894	-0.072260
C83	C	1.229771	0.094439	0.261073
C84	C	1.563104	0.427773	0.594406
C85	C	0.895798	-0.278373	0.000008
C86	C	1.229131	0.054961	0.333341
C87	C	1.562464	0.388294	0.666674
C88	C	0.896415	-0.238903	0.072282
C89	C	1.229749	0.094430	0.405615
C90	C	1.563082	0.427763	0.738948
C91	C	0.897675	-0.159961	0.072282
C92	C	1.231008	0.173372	0.405615
C93	C	1.564341	0.506706	0.738948
C94	C	0.891335	-0.557268	0.072283
C95	C	1.224668	-0.223935	0.405616
C96	C	1.558002	0.109399	0.738949
C97	C	0.890078	-0.636216	0.072277
C98	C	1.223411	-0.302883	0.405610
C99	C	1.556744	0.030451	0.738944
C100	C	0.890097	-0.636201	-0.072260
C101	C	1.223431	-0.302868	0.261074
C102	C	1.556764	0.030466	0.594407
C103	C	0.891357	-0.557259	-0.072259
C104	C	1.224690	-0.223925	0.261074
C105	C	1.558023	0.109408	0.594407
C106	C	0.891970	-0.517796	0.000014
C107	C	1.225304	-0.184462	0.333347
C108	C	1.558637	0.148871	0.666681
C109	C	0.893341	-0.432197	0.000014
C110	C	1.226674	-0.098863	0.333347
C111	C	1.560007	0.234470	0.666681
C112	C	0.894433	-0.363971	0.000008
C113	C	1.227766	-0.030638	0.333342
C114	C	1.561100	0.302696	0.666675
C115	C	1.032274	0.096133	0.000012
C116	C	1.365607	0.429466	0.333346
C117	C	1.698940	0.762800	0.666679
C118	C	1.116292	0.097470	0.000009
C119	C	1.449625	0.430803	0.333342
C120	C	1.782959	0.764137	0.666675
C121	C	0.888111	0.240302	0.000009
C122	C	1.221444	0.573635	0.333343
C123	C	1.554778	0.906969	0.666676
C124	C	0.889452	0.324320	0.000008
C125	C	1.222786	0.657653	0.333341
C126	C	1.556119	0.990986	0.666675
N127	N	0.893869	0.101905	0.206561
N128	N	1.227202	0.435238	0.539894
N129	N	1.560535	0.768571	0.873227
N130	N	0.893912	0.101922	-0.206537
N131	N	1.227245	0.435255	0.126796
N132	N	1.560578	0.768588	0.460130
C133	C	0.945432	0.050376	0.248279
C134	C	1.278765	0.383709	0.581613
C135	C	1.612098	0.717043	0.914946
C136	C	0.945436	0.050375	0.331732
C137	C	1.278769	0.383709	0.665065
C138	C	1.612103	0.717042	0.998398
C139	C	0.893880	0.101907	0.373464
C140	C	1.227213	0.435241	0.706797
C141	C	1.560547	0.768574	1.040130
C142	C	0.842312	0.153438	0.331739
C143	C	1.175645	0.486772	0.665072
C144	C	1.508978	0.820105	0.998406
C145	C	0.842304	0.153435	0.248288
C146	C	1.175638	0.486768	0.581622
C147	C	1.508971	0.820102	0.914955
C148	C	0.842339	0.153453	0.668286
C149	C	1.175672	0.486787	1.001620
C150	C	1.509006	0.820120	1.334953
C151	C	0.842352	0.153454	0.751743
C152	C	1.175685	0.486788	1.085076
C153	C	1.509018	0.820121	1.418409
C154	C	0.945470	0.050394	0.751729
C155	C	1.278804	0.383727	1.085063
C156	C	1.612137	0.717060	1.418396
C157	C	0.945463	0.050390	0.668279
C158	C	1.278797	0.383724	1.001612
C159	C	1.612130	0.717057	1.334945
C160	C	0.893892	0.101918	0.626562
C161	C	1.227226	0.435251	0.959895
C162	C	1.560559	0.768585	1.293228
C163	C	0.893888	0.101917	0.536073
C164	C	1.227221	0.435251	0.869407
C165	C	1.560554	0.768584	1.202740
C166	C	0.893888	0.101913	0.463950
C167	C	1.227221	0.435246	0.797284
C168	C	1.560555	0.768579	1.130617
H169	H	0.664161	0.106243	-0.131113
H170	H	0.997495	0.439577	0.202220
H171	H	1.330828	0.772910	0.535553
O172	O	0.892001	-0.514707	0.150230
O173	O	1.225334	-0.181374	0.483563
O174	O	1.558667	0.151960	0.816896
H175	H	0.944136	-0.485575	0.153684
H176	H	1.277469	-0.152242	0.487017
H177	H	1.610803	0.181091	0.820350
H178	H	0.520928	0.103932	0.131125
H179	H	0.854261	0.437265	0.464459
H180	H	1.187595	0.770598	0.797792
H181	H	0.898227	-0.127814	-0.131109
H182	H	1.231560	0.205520	0.202224
H183	H	1.564894	0.538853	0.535558
O184	O	0.786726	0.209034	0.623295
O185	O	1.120059	0.542367	0.956628
O186	O	1.453393	0.875700	1.289962
H187	H	0.750886	0.244873	0.666336
H188	H	1.084220	0.578206	0.999670
H189	H	1.417553	0.911539	1.333003
H190	H	0.889555	-0.668357	0.131130
H191	H	1.222888	-0.335024	0.464463
H192	H	1.556221	-0.001691	0.797797
H193	H	0.800330	0.195394	0.365722
H194	H	1.133663	0.528728	0.699055
H195	H	1.466997	0.862061	1.032389
H196	H	0.266848	0.099878	-0.131116
H197	H	0.600181	0.433212	0.202218
H198	H	0.933514	0.766545	0.535551
O199	O	1.001052	-0.005204	0.376725
O200	O	1.334386	0.328129	0.710058
O201	O	1.667719	0.661462	1.043391
H202	H	0.992391	0.003446	0.441764
H203	H	1.325724	0.336780	0.775098
H204	H	1.659058	0.670113	1.108431
H205	H	0.123609	0.097590	0.131125
H206	H	0.456942	0.430923	0.464458
H207	H	0.790276	0.764257	0.797791
H208	H	0.889594	-0.668341	-0.131108
H209	H	1.222927	-0.335007	0.202225
H210	H	1.556261	-0.001674	0.535559
H211	H	0.895890	-0.271052	0.131124
H212	H	1.229223	0.062281	0.464457
H213	H	1.562557	0.395614	0.797790
H214	H	0.891881	-0.525120	-0.131108
H215	H	1.225215	-0.191786	0.202226
H216	H	1.558548	0.141547	0.535559
O217	O	0.786682	0.209000	0.203281
O218	O	1.120016	0.542333	0.536615
O219	O	1.453349	0.875667	0.869948
H220	H	0.818460	0.245740	0.165235
H221	H	1.151793	0.579074	0.498568
H222	H	1.485127	0.912407	0.831902
O223	O	1.001034	-0.005221	0.203282
O224	O	1.334367	0.328113	0.536615
O225	O	1.667700	0.661446	0.869948
H226	H	0.969229	-0.041962	0.165278
H227	H	1.302563	0.291372	0.498612
H228	H	1.635896	0.624705	0.831945
O229	O	0.674572	0.106417	0.150223
O230	O	1.007905	0.439750	0.483557
O231	O	1.341238	0.773083	0.816890
H232	H	0.633856	0.105759	0.200476
H233	H	0.967190	0.439092	0.533809
H234	H	1.300523	0.772426	0.867142
O235	O	0.898352	-0.117392	0.150227
O236	O	1.231685	0.215942	0.483561
O237	O	1.565018	0.549275	0.816894
H238	H	0.897704	-0.158106	0.200481
H239	H	1.231038	0.175228	0.533814
H240	H	1.564371	0.508561	0.867148
H241	H	0.895936	-0.271022	-0.131109
H242	H	1.229269	0.062311	0.202225
H243	H	1.562602	0.395645	0.535558
H244	H	0.987447	0.008431	0.634303
H245	H	1.320780	0.341764	0.967637
H246	H	1.654114	0.675097	1.300970
H247	H	0.987460	0.008434	0.785705
H248	H	1.320793	0.341768	1.119038
H249	H	1.654127	0.675101	1.452371
O250	O	0.277263	0.100048	0.150225
O251	O	0.610596	0.433381	0.483558
O252	O	0.943930	0.766715	0.816892
H253	H	0.338788	0.101040	0.138083
H254	H	0.672121	0.434373	0.471417
H255	H	1.005454	0.767706	0.804750
H256	H	0.123637	0.097596	-0.131114
H257	H	0.456971	0.430930	0.202220
H258	H	0.790304	0.764263	0.535553
H259	H	0.800366	0.195420	0.785720
H260	H	1.133699	0.528753	1.119053
H261	H	1.467032	0.862086	1.452386
H262	H	0.520941	0.103946	-0.131107
H263	H	0.854274	0.437279	0.202226
H264	H	1.187607	0.770612	0.535560
