data_functionalizedCrystal
_audit_creation_method	'MofGen! by Chris Wilmer'
_symmetry_space_group_name_H-M	'P1'
_symmetry_Int_Tables_number	1
_symmetry_cell_setting	triclinic
loop_
_symmetry_equiv_pos_as_xyz
  x,y,z
_cell_length_a	16.992694
_cell_length_b	10.540539
_cell_length_c	15.455313
_cell_angle_alpha	92.694186
_cell_angle_beta	87.142206
_cell_angle_gamma	87.596857
loop_
_atom_site_label
_atom_site_type_symbol
_atom_site_fract_x
_atom_site_fract_y
_atom_site_fract_z
O1	O	1.045302	0.264111	-0.072015
O2	O	0.817001	0.261155	-0.072041
O3	O	0.936360	0.078379	-0.072026
O4	O	0.925943	0.446887	-0.072030
O5	O	0.929534	0.088785	0.072235
O6	O	0.810175	0.271561	0.072220
O7	O	1.038476	0.274517	0.072246
Cu8	Cu	0.923702	0.273989	0.085405
Cu9	Cu	0.931774	0.261683	-0.085200
O10	O	0.919117	0.457293	0.072232
C11	C	0.784354	0.262557	0.000086
C12	C	0.697247	0.251216	0.000077
C13	C	0.647619	0.360636	0.000076
C14	C	0.565773	0.349973	0.000088
C15	C	0.533555	0.229889	0.000094
C16	C	0.583189	0.120461	0.000097
C17	C	0.665034	0.131125	0.000092
C18	C	0.289709	0.185692	0.000118
C19	C	0.207858	0.175036	0.000121
C20	C	0.190446	0.404549	0.000114
C21	C	0.272294	0.415202	0.000103
C22	C	0.321921	0.305774	0.000110
N23	N	0.449895	0.218988	0.000104
N24	N	0.405579	0.316677	0.000107
C25	C	0.932166	0.036211	0.000103
C26	C	0.929829	-0.104941	0.000098
C27	C	0.840284	-0.296163	-0.000236
C28	C	0.842638	-0.149316	0.000089
C29	C	0.967891	-0.157014	0.082483
C30	C	0.964912	-0.303812	0.082552
C31	C	0.974447	-0.316010	-0.081500
C32	C	0.975302	-0.169037	-0.082589
C33	C	1.071122	0.273115	0.000117
C34	C	1.158230	0.284456	0.000121
C35	C	0.923311	0.499461	0.000101
C36	C	0.925648	0.640612	0.000100
N37	N	0.918030	0.282645	0.205400
N38	N	0.937452	0.253018	-0.205195
C39	C	0.968756	0.205027	0.250801
C40	C	0.964474	0.211585	0.341608
C41	C	0.909469	0.295768	0.387013
C42	C	0.858738	0.373389	0.341607
C43	C	0.863017	0.366823	0.250801
C44	C	0.891000	0.324073	0.658593
C45	C	0.886727	0.330635	0.749405
C46	C	0.992462	0.168829	0.749400
C47	C	0.996739	0.162277	0.658592
C48	C	0.946005	0.239893	0.613193
N49	N	0.905093	0.302477	0.479833
N50	N	0.950379	0.233177	0.520375
H51	H	0.330106	0.096587	0.000125
H52	H	0.556951	0.022687	0.000115
H53	H	0.673844	0.458421	0.000071
C54	C	0.798231	0.465993	0.391548
C55	C	0.793558	0.473290	0.491431
C56	C	0.733051	0.565900	0.541369
C57	C	0.677218	0.651214	0.491424
C58	C	0.681889	0.643921	0.391536
C59	C	0.742396	0.551310	0.341598
H60	H	0.834891	0.410133	0.528408
H61	H	0.729594	0.571299	0.615313
H62	H	0.632427	0.719770	0.528391
H63	H	0.640556	0.707078	0.354559
H64	H	0.745854	0.545912	0.267654
H65	H	1.005778	0.148382	0.378572
C66	C	1.054189	-0.118976	0.086642
C67	C	1.079840	-0.037469	0.164740
C68	C	1.166134	0.000587	0.168898
C69	C	1.226778	-0.042864	0.094958
C70	C	1.201128	-0.124376	0.016854
C71	C	1.114834	-0.162432	0.012696
H72	H	1.034947	-0.005300	0.219480
H73	H	1.185122	0.060928	0.226715
H74	H	1.290658	-0.014692	0.098036
H75	H	1.246021	-0.156545	-0.037886
H76	H	1.095847	-0.222773	-0.045121
C77	C	0.307739	0.547291	0.000119
C78	C	0.365154	0.580790	-0.074784
C79	C	0.400603	0.712877	-0.074763
C80	C	0.378638	0.811467	0.000161
C81	C	0.321220	0.777971	0.075070
C82	C	0.285771	0.645883	0.075049
H83	H	0.381416	0.507806	-0.130253
H84	H	0.443108	0.737673	-0.130216
H85	H	0.404880	0.909246	0.000177
H86	H	0.304957	0.850954	0.130539
H87	H	0.243266	0.621088	0.130502
H88	H	1.039106	-0.139658	-0.087557
C89	C	0.801794	-0.101373	-0.079681
C90	C	0.766803	-0.196754	-0.144126
C91	C	0.725948	-0.148817	-0.223893
C92	C	0.720084	-0.005500	-0.239214
C93	C	0.755076	0.089889	-0.174767
C94	C	0.795931	0.041953	-0.095000
H95	H	0.771143	-0.302853	-0.132786
H96	H	0.700045	-0.219432	-0.271601
H97	H	0.689841	0.029985	-0.298263
H98	H	0.750736	0.195989	-0.186108
H99	H	0.821834	0.112567	-0.047293
H100	H	1.041528	0.093728	0.621625
C101	C	0.826214	0.423240	0.799349
C102	C	0.770409	0.508610	0.749409
C103	C	0.709901	0.601213	0.799352
C104	C	0.705197	0.608445	0.899234
C105	C	0.761003	0.523073	0.949180
C106	C	0.821512	0.430470	0.899237
H107	H	0.773889	0.503259	0.675465
H108	H	0.668589	0.664411	0.762378
H109	H	0.660405	0.676995	0.936205
H110	H	0.757523	0.528424	1.023124
H111	H	0.862823	0.367271	0.936211
H112	H	0.705441	0.042024	0.000091
H113	H	0.525368	0.439075	0.000087
C114	C	0.790186	-0.335258	0.079121
C115	C	0.816020	-0.302478	0.171320
C116	C	0.765926	-0.341577	0.250678
C117	C	0.689998	-0.413455	0.237838
C118	C	0.664161	-0.446238	0.145636
C119	C	0.714255	-0.407139	0.066277
H120	H	0.872229	-0.249267	0.180828
H121	H	0.785052	-0.317309	0.318933
H122	H	0.652916	-0.442398	0.296584
H123	H	0.607952	-0.499449	0.136127
H124	H	0.695129	-0.431408	-0.001977
C125	C	0.793950	-0.091027	0.079998
C126	C	0.752807	-0.178113	0.143718
C127	C	0.704119	-0.119825	0.223633
C128	C	0.696574	0.025550	0.239828
C129	C	0.737718	0.112645	0.176106
C130	C	0.786406	0.054357	0.096191
H131	H	0.758391	-0.285736	0.131731
H132	H	0.673662	-0.184299	0.270804
H133	H	0.660532	0.068698	0.298986
H134	H	0.732134	0.220268	0.188093
H135	H	0.816864	0.118831	0.049021
H136	H	0.150032	0.493639	0.000110
H137	H	0.181630	0.077244	0.000125
H138	H	0.849692	0.387274	0.621636
H139	H	0.935843	-0.112522	0.143784
C140	C	1.049379	-0.360908	0.087632
C141	C	1.119325	-0.272902	0.091618
C142	C	1.203790	-0.329991	0.096708
C143	C	1.218309	-0.475085	0.097813
C144	C	1.148361	-0.563100	0.093828
C145	C	1.063896	-0.506012	0.088738
H146	H	1.108580	-0.165486	0.090799
H147	H	1.255570	-0.264835	0.099658
H148	H	1.280834	-0.517346	0.101582
H149	H	1.159106	-0.670516	0.094646
H150	H	1.012116	-0.571167	0.085788
H151	H	0.808637	-0.332013	-0.059316
H152	H	0.930988	-0.330261	0.144129
H153	H	0.949182	-0.354516	-0.143942
H154	H	0.821710	0.430026	0.213837
H155	H	1.013550	0.136482	0.213837
C156	C	0.937714	-0.123317	-0.164903
C157	C	0.903443	-0.220057	-0.228959
C158	C	0.865819	-0.174350	-0.311258
C159	C	0.862467	-0.031903	-0.329502
C160	C	0.896739	0.064846	-0.265445
C161	C	0.934363	0.019139	-0.183146
H162	H	0.905923	-0.325513	-0.215455
H163	H	0.840448	-0.245971	-0.358677
H164	H	0.834615	0.001932	-0.390425
H165	H	0.894258	0.170302	-0.278949
H166	H	0.959733	0.090760	-0.135727
H167	H	1.033766	0.105637	0.786371
H168	H	1.037451	-0.357811	-0.082047
