data_functionalizedCrystal
_audit_creation_method	'MofGen! by Chris Wilmer'
_symmetry_space_group_name_H-M	'P1'
_symmetry_Int_Tables_number	1
_symmetry_cell_setting	triclinic
loop_
_symmetry_equiv_pos_as_xyz
  x,y,z
_cell_length_a	17.699083
_cell_length_b	17.699083
_cell_length_c	16.776229
_cell_angle_alpha	89.994790
_cell_angle_beta	89.997548
_cell_angle_gamma	83.283015
loop_
_atom_site_label
_atom_site_type_symbol
_atom_site_fract_x
_atom_site_fract_y
_atom_site_fract_z
O1	O	1.004076	0.095699	0.066178
O2	O	0.783698	0.108152	0.066204
O3	O	0.900113	-0.008264	0.066183
O4	O	0.887661	0.212115	0.066199
O5	O	0.900102	-0.008243	-0.066393
O6	O	0.783687	0.108172	-0.066372
O7	O	1.004065	0.095720	-0.066398
Zn8	Zn	0.893874	0.101949	-0.087435
Zn9	Zn	0.893889	0.101922	0.087241
O10	O	0.887650	0.212135	-0.066378
C11	C	0.755495	0.107716	-0.000081
C12	C	0.671477	0.106377	-0.000071
C13	C	0.622856	0.174711	-0.000066
C14	C	0.543913	0.173448	-0.000077
C15	C	0.513592	0.103852	-0.000086
C16	C	0.562219	0.035513	-0.000093
C17	C	0.641161	0.036776	-0.000088
C18	C	0.243856	0.030418	-0.000113
C19	C	0.164908	0.029160	-0.000115
C20	C	0.146608	0.167090	-0.000101
C21	C	0.225550	0.168353	-0.000097
C22	C	0.274170	0.100015	-0.000108
C23	C	0.359769	0.101384	-0.000098
C24	C	0.427995	0.102481	-0.000090
C25	C	0.899662	-0.036451	-0.000105
C26	C	0.898323	-0.120469	-0.000105
C27	C	0.966656	-0.169090	-0.000114
C28	C	0.965394	-0.248033	-0.000107
C29	C	0.895798	-0.278354	-0.000096
C30	C	0.827459	-0.229727	-0.000085
C31	C	0.828722	-0.150785	-0.000086
C32	C	0.822364	-0.548090	-0.000078
C33	C	0.821106	-0.627038	-0.000078
C34	C	0.959036	-0.645338	-0.000099
C35	C	0.960299	-0.566396	-0.000100
C36	C	0.891961	-0.517776	-0.000084
C37	C	0.893330	-0.432177	-0.000090
C38	C	0.894427	-0.363951	-0.000096
C39	C	1.032268	0.096156	-0.000112
C40	C	1.116286	0.097494	-0.000116
C41	C	0.888102	0.240322	-0.000087
C42	C	0.889440	0.324340	-0.000082
N43	N	0.893870	0.101967	-0.206646
C44	C	0.848081	0.056058	-0.751815
C45	C	0.848079	0.056064	-0.668363
C46	C	0.893892	0.101916	-0.626645
C47	C	0.939715	0.147758	-0.668384
C48	C	0.939720	0.147747	-0.751835
C49	C	0.939695	0.147803	-0.331837
C50	C	0.939685	0.147812	-0.248380
C51	C	0.848054	0.056120	-0.248365
C52	C	0.848060	0.056109	-0.331816
C53	C	0.893885	0.101948	-0.373547
C54	C	0.893888	0.101939	-0.464036
C55	C	0.893886	0.101929	-0.536158
N56	N	0.893899	0.101898	0.206452
H57	H	0.283434	-0.025228	-0.000123
H58	H	0.770792	-0.254420	-0.000071
H59	H	1.023330	-0.144409	-0.000128
H60	H	0.810771	0.018724	-0.785776
H61	H	0.680748	-0.018868	-0.000091
O62	O	1.027858	-0.536854	-0.000002
C63	C	1.032726	-0.491761	0.068670
H64	H	0.973036	-0.471991	0.091566
H65	H	1.062801	-0.440120	0.053226
H66	H	1.066275	-0.526706	0.116748
O67	O	0.762273	-0.103660	-0.000113
C68	C	0.700574	-0.147347	-0.000082
H69	H	0.719887	-0.206300	-0.025188
H70	H	0.652698	-0.118131	-0.038562
H71	H	0.679243	-0.152937	0.063525
O72	O	0.755931	-0.500946	0.000035
C73	C	0.713680	-0.514667	0.068710
H74	H	0.732382	-0.574586	0.091601
H75	H	0.650544	-0.509003	0.053271
H76	H	0.723946	-0.471508	0.116789
O77	O	1.031843	-0.295155	-0.000157
C78	C	1.093541	-0.251465	-0.000154
H79	H	1.074217	-0.192508	-0.025251
H80	H	1.141404	-0.280671	-0.038655
H81	H	1.114893	-0.245889	0.063444
H82	H	1.014680	-0.684934	-0.000107
O83	O	0.753543	-0.656582	0.000045
C84	C	0.748695	-0.701691	0.068719
H85	H	0.808391	-0.721462	0.091594
H86	H	0.718620	-0.753330	0.053283
H87	H	0.715155	-0.666759	0.116808
H88	H	0.810772	0.018734	-0.634388
H89	H	0.810751	0.018774	-0.365779
H90	H	0.976993	0.185152	-0.214416
H91	H	0.140225	-0.027517	-0.000124
H92	H	0.250232	0.225025	-0.000085
H93	H	0.810743	0.018793	-0.214378
H94	H	0.107012	0.222734	-0.000097
H95	H	0.977009	0.185129	-0.365804
O96	O	0.532642	-0.032027	-0.000068
C97	C	0.452540	-0.018491	-0.000089
H98	H	0.433890	0.040603	0.025016
H99	H	0.428382	-0.063024	0.038396
H100	H	0.430575	-0.022108	-0.063694
H101	H	0.977020	0.185088	-0.634411
O102	O	0.984247	0.192348	-0.792253
C103	C	1.024696	0.232807	-0.737539
H104	H	0.993353	0.237275	-0.678055
H105	H	1.029284	0.292313	-0.761667
H106	H	1.084159	0.201550	-0.728654
H107	H	0.504328	0.229092	-0.000072
O108	O	0.652181	0.242384	-0.000091
C109	C	0.592334	0.302425	-0.000071
H110	H	0.538748	0.281309	-0.025176
H111	H	0.608743	0.351031	-0.038556
H112	H	0.581118	0.323487	0.063534
