data_functionalizedCrystal
_audit_creation_method	'MofGen! by Chris Wilmer'
_symmetry_space_group_name_H-M	'P1'
_symmetry_Int_Tables_number	1
_symmetry_cell_setting	triclinic
loop_
_symmetry_equiv_pos_as_xyz
  x,y,z
_cell_length_a	29.839131
_cell_length_b	17.640112
_cell_length_c	17.640968
_cell_angle_alpha	87.860920
_cell_angle_beta	78.768609
_cell_angle_gamma	78.733316
loop_
_atom_site_label
_atom_site_type_symbol
_atom_site_fract_x
_atom_site_fract_y
_atom_site_fract_z
Zn1	Zn	-0.012909	-1.247771	-0.195080
Zn2	Zn	0.487091	-0.747771	0.304920
Zn3	Zn	-0.105602	-1.221948	-0.068098
Zn4	Zn	0.394398	-0.721948	0.431902
Zn5	Zn	-0.042134	-1.095086	-0.093726
Zn6	Zn	0.457866	-0.595086	0.406274
Zn7	Zn	-0.099688	-1.120692	-0.220680
Zn8	Zn	0.400312	-0.620692	0.279320
O9	O	-0.065083	-1.171374	-0.144396
O10	O	0.434917	-0.671374	0.355604
O11	O	-0.015449	-1.350620	-0.156796
O12	O	0.484551	-0.850620	0.343204
O13	O	-0.111889	-1.183596	0.034776
O14	O	0.388111	-0.683596	0.534776
O15	O	0.024621	-1.115431	-0.107183
O16	O	0.524621	-0.615431	0.392817
O17	O	-0.083550	-1.331648	-0.063503
O18	O	0.416450	-0.831648	0.436497
O19	O	0.046093	-1.227608	-0.181647
O20	O	0.546093	-0.727608	0.318353
O21	O	-0.065260	-1.090391	0.015947
O22	O	0.434740	-0.590391	0.515947
O23	O	-0.059525	-0.992208	-0.132006
O24	O	0.440475	-0.492208	0.367994
O25	O	-0.073471	-1.159073	-0.323557
O26	O	0.426529	-0.659073	0.176443
O27	O	-0.101810	-1.011020	-0.225278
O28	O	0.398190	-0.511020	0.274722
O29	O	-0.009714	-1.252437	-0.304749
O30	O	0.490286	-0.752437	0.195251
O31	O	-0.167697	-1.208425	-0.088326
O32	O	0.332303	-0.708425	0.411674
O33	O	-0.163352	-1.134033	-0.200427
O34	O	0.336648	-0.634033	0.299573
C35	C	-0.181824	-1.171229	-0.144386
C36	C	0.318176	-0.671229	0.355614
C37	C	-0.231756	-1.171242	-0.144393
C38	C	0.268244	-0.671242	0.355607
C39	C	-0.083197	-0.974058	-0.184201
C40	C	0.416803	-0.474058	0.315799
C41	C	-0.090955	-0.889649	-0.201248
C42	C	0.409045	-0.389649	0.298752
C43	C	-0.037673	-1.211491	-0.342479
C44	C	0.462327	-0.711491	0.157521
C45	C	-0.025992	-1.228587	-0.426890
C46	C	0.474008	-0.728587	0.073110
C47	C	-0.543616	-1.210213	-0.086078
C48	C	-0.043616	-0.710213	0.413922
C49	C	-0.731276	-1.210312	-0.086088
C50	C	-0.231276	-0.710312	0.413912
O51	O	-0.757439	-1.243332	-0.036500
O52	O	-0.257439	-0.743332	0.463500
N53	N	-0.752503	-1.171543	-0.144421
N54	N	-0.252503	-0.671543	0.355579
C55	C	-0.726811	-1.132750	-0.202759
C56	C	-0.226811	-0.632750	0.297241
O57	O	-0.749171	-1.099784	-0.252379
O58	O	-0.249171	-0.599784	0.247621
C59	C	-0.539151	-1.132656	-0.202750
C60	C	-0.039151	-0.632656	0.297250
C61	C	-0.517928	-1.171421	-0.144409
C62	C	-0.017928	-0.671421	0.355591
C63	C	-0.522392	-1.248976	-0.027742
C64	C	-0.022392	-0.748976	0.472258
C65	C	-0.475481	-1.248947	-0.027738
C66	C	0.024519	-0.748947	0.472262
C67	C	-0.449792	-1.210155	-0.086069
C68	C	0.050208	-0.710155	0.413931
C69	C	-0.471016	-1.171392	-0.144405
C70	C	0.028984	-0.671392	0.355595
C71	C	-0.513459	-1.093868	-0.261090
C72	C	-0.013459	-0.593868	0.238910
C73	C	-0.466541	-1.093850	-0.261084
C74	C	0.033459	-0.593850	0.238916
C75	C	-0.445318	-1.132615	-0.202743
C76	C	0.054682	-0.632615	0.297257
C77	C	-0.398416	-1.132572	-0.202732
C78	C	0.101584	-0.632572	0.297268
N79	N	-0.377189	-1.171341	-0.144399
N80	N	0.122811	-0.671341	0.355601
C81	C	-0.402877	-1.210133	-0.086068
C82	C	0.097123	-0.710133	0.413932
C83	C	-0.825336	-1.132802	-0.202758
C84	C	-0.325336	-0.632802	0.297242
C85	C	-0.872251	-1.132824	-0.202759
C86	C	-0.372251	-0.632824	0.297241
C87	C	-0.876713	-1.210387	-0.086090
C88	C	-0.376713	-0.710387	0.413910
C89	C	-0.829797	-1.210360	-0.086086
C90	C	-0.329797	-0.710360	0.413914
C91	C	-0.804109	-1.171571	-0.144425
C92	C	-0.304109	-0.671571	0.355575
C93	C	-0.304360	-1.210069	-0.086062
C94	C	0.195640	-0.710069	0.413938
C95	C	-0.257444	-1.210034	-0.086061
C96	C	0.242556	-0.710034	0.413939
C97	C	-0.252986	-1.132474	-0.202733
C98	C	0.247014	-0.632474	0.297267
C99	C	-0.299898	-1.132505	-0.202732
C100	C	0.200102	-0.632505	0.297268
C101	C	-0.325583	-1.171308	-0.144393
C102	C	0.174417	-0.671308	0.355607
O103	O	-0.372224	-1.099577	-0.252299
O104	O	0.127776	-0.599577	0.247701
O105	O	-0.380507	-1.243109	-0.036464
O106	O	0.119493	-0.743109	0.463536
C107	C	-0.590527	-1.210242	-0.086082
C108	C	-0.090527	-0.710242	0.413918
C109	C	-0.611751	-1.171479	-0.144418
C110	C	-0.111751	-0.671479	0.355582
C111	C	-0.586063	-1.132687	-0.202750
C112	C	-0.086063	-0.632687	0.297250
C113	C	-0.658666	-1.171501	-0.144420
C114	C	-0.158666	-0.671501	0.355580
C115	C	-0.684354	-1.210293	-0.086088
C116	C	-0.184354	-0.710293	0.413912
C117	C	-0.663127	-1.249062	-0.027755
C118	C	-0.163127	-0.749062	0.472245
C119	C	-0.616215	-1.249033	-0.027751
C120	C	-0.116215	-0.749033	0.472249
C121	C	-0.607290	-1.093918	-0.261082
C122	C	-0.107290	-0.593918	0.238918
C123	C	-0.654202	-1.093949	-0.261082
C124	C	-0.154202	-0.593949	0.238918
C125	C	-0.679890	-1.132741	-0.202750
C126	C	-0.179890	-0.632741	0.297250
C127	C	0.052117	-1.171544	-0.144418
C128	C	0.552117	-0.671544	0.355582
C129	C	0.102061	-1.171616	-0.144428
C130	C	0.602061	-0.671616	0.355572
C131	C	-0.046899	-1.369461	-0.104435
C132	C	0.453101	-0.869461	0.395565
C133	C	-0.039150	-1.453873	-0.087407
C134	C	0.460850	-0.953873	0.412593
C135	C	-0.006143	-0.563036	-0.014898
C136	C	0.493857	-0.063036	0.485102
C137	C	-0.013439	-0.483723	-0.030927
C138	C	0.486561	0.016277	0.469073
C139	C	-0.057573	-0.503332	-0.127883
C140	C	0.442427	-0.003332	0.372117
C141	C	-0.050277	-0.582649	-0.111866
C142	C	0.449723	-0.082649	0.388134
C143	C	-0.024563	-0.612494	-0.055372
C144	C	0.475437	-0.112494	0.444628
C145	C	-0.068697	-0.632108	-0.152339
C146	C	0.431303	-0.132108	0.347661
C147	C	-0.061405	-0.711417	-0.136320
C148	C	0.438595	-0.211417	0.363680
C149	C	-0.035692	-0.741268	-0.079827
C150	C	0.464308	-0.241268	0.420173
C151	C	-0.017270	-0.691803	-0.039352
C152	C	0.482730	-0.191803	0.460648
C153	C	-0.094415	-0.602261	-0.208829
C154	C	0.405585	-0.102261	0.291171
C155	C	-0.112835	-0.651719	-0.249303
C156	C	0.387165	-0.151719	0.250697
C157	C	-0.105540	-0.731031	-0.233287
C158	C	0.394460	-0.231031	0.266713
C159	C	-0.079827	-0.760882	-0.176794
C160	C	0.420173	-0.260882	0.323206
C161	C	-0.123962	-0.780495	-0.273762
C162	C	0.376038	-0.280495	0.226238
C163	C	-0.116670	-0.859805	-0.257742
C164	C	0.383330	-0.359805	0.242258
C165	C	-0.072535	-0.840191	-0.160775
C166	C	0.427465	-0.340191	0.339225
C167	C	-0.153550	-1.041792	-0.753463
C168	C	0.346450	-0.541792	-0.253463
C169	C	-0.142567	-1.057872	-0.832777
C170	C	0.357433	-0.557872	-0.332777
C171	C	-0.076183	-1.155084	-0.813183
C172	C	0.423817	-0.655084	-0.313183
C173	C	-0.087159	-1.139010	-0.733867
C174	C	0.412841	-0.639010	-0.233867
C175	C	-0.125843	-1.082364	-0.704013
C176	C	0.374157	-0.582364	-0.204013
C177	C	-0.059452	-1.179581	-0.684417
C178	C	0.440548	-0.679581	-0.184417
C179	C	-0.070429	-1.163511	-0.605107
C180	C	0.429571	-0.663511	-0.105107
C181	C	-0.109113	-1.106869	-0.575246
C182	C	0.390887	-0.606869	-0.075246
C183	C	-0.136820	-1.066293	-0.624703
C184	C	0.363180	-0.566293	-0.124703
C185	C	-0.020770	-1.236231	-0.714271
C186	C	0.479230	-0.736231	-0.214271
C187	C	0.006936	-1.276802	-0.664821
C188	C	0.506936	-0.776802	-0.164821
C189	C	-0.004039	-1.260728	-0.585510
C190	C	0.495961	-0.760728	-0.085510
C191	C	-0.042722	-1.204086	-0.555650
C192	C	0.457278	-0.704086	-0.055650
C193	C	0.023669	-1.301304	-0.536054
C194	C	0.523669	-0.801304	-0.036054
C195	C	0.012692	-1.285233	-0.456744
C196	C	0.512692	-0.785233	0.043256
C197	C	-0.053699	-1.188016	-0.476340
C198	C	0.446301	-0.688016	0.023660
C199	C	-0.092351	-1.131457	0.052925
C200	C	0.407649	-0.631457	0.552925
C201	C	-0.103892	-1.114508	0.137366
C202	C	0.396108	-0.614508	0.637366
H203	H	-0.240166	-1.241600	-0.038551
H204	H	0.259834	-0.741600	0.461449
H205	H	-0.804423	-1.101213	-0.250266
H206	H	-0.304423	-0.601213	0.249734
H207	H	-0.165132	-1.024830	-0.873038
H208	H	0.334868	-0.524830	-0.373038
N209	N	0.046456	-1.334654	-0.695309
N210	N	0.546456	-0.834654	-0.195309
N211	N	0.071194	-1.370866	-0.651147
N212	N	0.571194	-0.870866	-0.151147
H213	H	0.099107	-1.411723	-0.672677
H214	H	0.599107	-0.911723	-0.172677
N215	N	-0.150223	-0.750006	-0.331474
N216	N	0.349777	-0.250006	0.168526
N217	N	-0.136791	-0.773071	-0.399768
N218	N	0.363209	-0.273071	0.100232
H219	H	-0.155338	-0.751539	-0.440529
H220	H	0.344662	-0.251539	0.059471
H221	H	-0.131668	-0.900076	-0.290701
H222	H	0.368332	-0.400076	0.209299
H223	H	-0.029756	-0.805847	-0.066783
H224	H	0.470244	-0.305847	0.433217
H225	H	-0.078511	-0.479021	-0.173879
H226	H	0.421489	0.020979	0.326121
H227	H	-0.445627	-1.062264	-0.308593
H228	H	0.054373	-0.562264	0.191407
N229	N	-0.101853	-0.521250	-0.225203
N230	N	0.398147	-0.021250	0.274797
N231	N	-0.067860	-0.489132	-0.248337
N232	N	0.432140	0.010868	0.251663
H233	H	-0.073111	-0.431919	-0.259905
H234	H	0.426889	0.068081	0.240095
H235	H	-0.133774	-0.627408	-0.295298
H236	H	0.366226	-0.127408	0.204702
H237	H	-0.085190	-1.141871	-0.452035
H238	H	0.414810	-0.641871	0.047965
N239	N	0.009010	-0.722287	0.018343
N240	N	0.509010	-0.222287	0.518343
N241	N	0.025462	-0.678123	0.054468
N242	N	0.525462	-0.178123	0.554468
H243	H	0.044023	-0.699652	0.095211
H244	H	0.544023	-0.199652	0.595211
H245	H	-0.118051	-1.093788	-0.510666
H246	H	0.381949	-0.593788	-0.010666
H247	H	-0.051587	-0.864494	-0.114783
H248	H	0.448413	-0.364494	0.385217
H249	H	-0.044687	-1.201208	-0.837501
H250	H	0.455313	-0.701208	-0.337501
N251	N	-0.176332	-1.008417	-0.594216
N252	N	0.323668	-0.508417	-0.094216
N253	N	-0.201065	-0.972188	-0.638375
N254	N	0.298935	-0.472188	-0.138375
H255	H	-0.228968	-0.931314	-0.616844
H256	H	0.271032	-0.431314	-0.116844
H257	H	-0.185041	-0.995647	-0.729159
H258	H	0.314959	-0.495647	-0.229159
N259	N	0.063181	-1.359158	-0.566569
N260	N	0.563181	-0.859158	-0.066569
N261	N	0.095484	-1.341447	-0.616230
N262	N	0.595484	-0.841447	-0.116230
H263	H	0.123390	-1.382307	-0.637783
H264	H	0.623390	-0.882307	-0.137783
H265	H	-0.011835	-1.249315	-0.778851
H266	H	0.488165	-0.749315	-0.278851
N267	N	-0.321576	-1.092889	-0.262320
N268	N	0.178424	-0.592889	0.237680
N269	N	-0.298634	-1.058250	-0.314392
N270	N	0.201366	-0.558250	0.185608
H271	H	-0.313939	-1.030273	-0.356480
H272	H	0.186061	-0.530273	0.143520
H273	H	0.035254	-1.318269	-0.416480
H274	H	0.535254	-0.818269	0.083520
N275	N	-0.689375	-1.288674	0.031838
N276	N	-0.189375	-0.788674	0.531838
N277	N	-0.724732	-1.252197	0.074863
N278	N	-0.224732	-0.752197	0.574863
H279	H	-0.743271	-1.280172	0.116948
H280	H	-0.243271	-0.780172	0.616948
N281	N	-0.330589	-1.249693	-0.026457
N282	N	0.169411	-0.749693	0.473543
N283	N	-0.335517	-1.230506	0.042614
N284	N	0.164483	-0.730506	0.542614
H285	H	-0.354042	-1.258485	0.084715
H286	H	0.145958	-0.758485	0.584715
N287	N	-0.453814	-1.288537	0.031869
N288	N	0.046186	-0.788537	0.531869
N289	N	-0.469238	-1.269361	0.100941
N290	N	0.030762	-0.769361	0.600941
H291	H	-0.453941	-1.297324	0.143044
H292	H	0.046059	-0.797324	0.643044
N293	N	-0.548620	-1.288612	0.031850
N294	N	-0.048620	-0.788612	0.531850
N295	N	-0.529655	-1.323218	0.083924
N296	N	-0.029655	-0.823218	0.583924
H297	H	-0.548175	-1.351211	0.126018
H298	H	-0.048175	-0.851211	0.626018
N299	N	0.020138	-0.593537	0.042790
N300	N	0.520138	-0.093537	0.542790
N301	N	0.061494	-0.585769	0.035832
N302	N	0.561494	-0.085769	0.535832
H303	H	0.080055	-0.607313	0.076569
H304	H	0.580055	-0.107313	0.576569
N305	N	-0.808123	-1.249948	-0.026486
N306	N	-0.308123	-0.749948	0.473514
N307	N	-0.823539	-1.230772	0.042588
N308	N	-0.323539	-0.730772	0.542588
H309	H	-0.808233	-1.258732	0.084684
H310	H	-0.308233	-0.758732	0.584684
N311	N	-0.902964	-1.250005	-0.026508
N312	N	-0.402964	-0.750005	0.473492
N313	N	-0.944852	-1.250015	-0.026526
N314	N	-0.444852	-0.750015	0.473474
H315	H	-0.963394	-1.277997	0.015549
H316	H	-0.463394	-0.777997	0.515549
H317	H	-0.889529	-1.101249	-0.250261
H318	H	-0.389529	-0.601249	0.249739
H319	H	-0.530732	-1.062297	-0.308595
H320	H	-0.030732	-0.562297	0.191405
H321	H	-0.598939	-1.280600	0.019756
H322	H	-0.098939	-0.780600	0.519756
N323	N	-0.226736	-1.092847	-0.262304
N324	N	0.273264	-0.592847	0.237696
N325	N	-0.184850	-1.092833	-0.262284
N326	N	0.315150	-0.592833	0.237716
H327	H	-0.166309	-1.064848	-0.304358
H328	H	0.333691	-0.564848	0.195642
N329	N	-0.675880	-1.054333	-0.320671
N330	N	-0.175880	-0.554333	0.179329
N331	N	-0.677824	-0.983226	-0.329715
N332	N	-0.177824	-0.483226	0.170285
H333	H	-0.693133	-0.955251	-0.371801
H334	H	-0.193133	-0.455251	0.128199
N335	N	-0.581060	-1.054290	-0.320678
N336	N	-0.081060	-0.554290	0.179322
N337	N	-0.600023	-1.019682	-0.372753
N338	N	-0.100023	-0.519682	0.127247
H339	H	-0.581501	-0.991690	-0.414845
H340	H	-0.081501	-0.491690	0.085155
N341	N	0.005380	-0.433211	0.010428
N342	N	0.505380	0.066789	0.510428
N343	N	0.028337	-0.459872	0.060866
N344	N	0.528337	0.040128	0.560866
H345	H	0.041628	-0.424199	0.090074
H346	H	0.541628	0.075801	0.590074
