data_functionalizedCrystal
_audit_creation_method	'MofGen! by Chris Wilmer'
_symmetry_space_group_name_H-M	'P1'
_symmetry_Int_Tables_number	1
_symmetry_cell_setting	triclinic
loop_
_symmetry_equiv_pos_as_xyz
  x,y,z
_cell_length_a	12.759395
_cell_length_b	21.295418
_cell_length_c	12.759387
_cell_angle_alpha	90.036848
_cell_angle_beta	90.019431
_cell_angle_gamma	90.027245
loop_
_atom_site_label
_atom_site_type_symbol
_atom_site_fract_x
_atom_site_fract_y
_atom_site_fract_z
Zn1	Zn	1.606176	-0.250579	0.593931
Zn2	Zn	2.106176	0.249421	1.093931
Zn3	Zn	1.606028	-0.355861	0.418233
Zn4	Zn	2.106028	0.144139	0.918233
Zn5	Zn	1.430474	-0.250610	0.418271
Zn6	Zn	1.930474	0.249390	0.918271
Zn7	Zn	1.430428	-0.355814	0.593875
Zn8	Zn	1.930428	0.144186	1.093875
O9	O	1.518276	-0.303216	0.506077
O10	O	2.018276	0.196784	1.006077
O11	O	1.753177	-0.264552	0.570631
O12	O	2.253177	0.235448	1.070631
O13	O	1.582697	-0.341933	0.271216
O14	O	2.082697	0.158067	0.771216
O15	O	1.453863	-0.162516	0.441612
O16	O	1.953863	0.337484	0.941612
O17	O	1.753068	-0.341902	0.441547
O18	O	2.253068	0.158098	0.941547
O19	O	1.582950	-0.162493	0.570668
O20	O	2.082950	0.337507	1.070668
O21	O	1.453719	-0.264605	0.271245
O22	O	1.953719	0.235395	0.771245
O23	O	1.283447	-0.264558	0.441558
O24	O	1.783447	0.235442	0.941558
O25	O	1.453784	-0.341821	0.740904
O26	O	1.953784	0.158179	1.240904
O27	O	1.283413	-0.341851	0.570573
O28	O	1.783413	0.158149	1.070573
O29	O	1.582905	-0.264505	0.740944
O30	O	2.082905	0.235495	1.240944
O31	O	1.582652	-0.443945	0.441493
O32	O	2.082652	0.056055	0.941493
O33	O	1.453640	-0.443909	0.570536
O34	O	1.953640	0.056091	1.070536
C35	C	1.245309	-0.303203	0.506064
C36	C	1.745309	0.196797	1.006064
C37	C	1.128532	-0.303213	0.506084
C38	C	1.628532	0.196787	1.006084
C39	C	1.128626	-0.222798	0.640717
C40	C	1.628626	0.277202	1.140717
C41	C	1.073813	-0.182598	0.708042
C42	C	1.573813	0.317402	1.208042
C43	C	0.964091	-0.182609	0.708055
C44	C	1.464091	0.317391	1.208055
C45	C	0.909181	-0.222823	0.640733
C46	C	1.409181	0.277177	1.140733
C47	C	0.963994	-0.263023	0.573408
C48	C	1.463994	0.236977	1.073408
C49	C	1.073718	-0.263009	0.573405
C50	C	1.573718	0.236991	1.073405
C51	C	0.963900	-0.343434	0.438772
C52	C	1.463900	0.156566	0.938772
C53	C	1.073622	-0.343427	0.438762
C54	C	1.573622	0.156573	0.938762
C55	C	0.908990	-0.383649	0.371450
C56	C	1.408990	0.116351	0.871450
C57	C	0.963803	-0.423853	0.304129
C58	C	1.463803	0.076147	0.804129
C59	C	1.073532	-0.423840	0.304120
C60	C	1.573532	0.076160	0.804120
C61	C	1.128435	-0.383627	0.371437
C62	C	1.628435	0.116373	0.871437
C63	C	1.518153	-0.466768	0.506027
C64	C	2.018153	0.033232	1.006027
C65	C	1.518197	-0.536736	0.506041
C66	C	2.018197	-0.036736	1.006041
C67	C	1.585705	-1.036191	0.439054
C68	C	2.085705	-0.536191	0.939054
C69	C	1.585665	-0.970448	0.439029
C70	C	2.085665	-0.470448	0.939029
C71	C	1.518424	-0.937575	0.506151
C72	C	2.018424	-0.437575	1.006151
C73	C	1.451199	-0.970450	0.573284
C74	C	1.951199	-0.470450	1.073284
C75	C	1.451233	-1.036191	0.573299
C76	C	1.951233	-0.536191	1.073299
N77	N	1.510262	-0.834316	0.598085
N78	N	2.010262	-0.334316	1.098085
N79	N	1.510235	-0.771864	0.598067
N80	N	2.010235	-0.271864	1.098067
C81	C	1.518315	-0.739500	0.506107
C82	C	2.018315	-0.239500	1.006107
N83	N	1.526442	-0.771947	0.414163
N84	N	2.026442	-0.271947	0.914163
N85	N	1.526474	-0.834404	0.414182
N86	N	2.026474	-0.334404	0.914182
C87	C	1.518379	-0.866290	0.506141
C88	C	2.018379	-0.366290	1.006141
C89	C	1.585487	-0.635348	0.438946
C90	C	2.085487	-0.135348	0.938946
C91	C	1.585440	-0.569604	0.438919
C92	C	2.085440	-0.069604	0.938919
C93	C	1.450979	-0.569607	0.573184
C94	C	1.950979	-0.069607	1.073184
C95	C	1.451021	-0.635349	0.573201
C96	C	1.951021	-0.135349	1.073201
C97	C	1.518281	-0.668216	0.506083
C98	C	2.018281	-0.168216	1.006083
C99	C	1.792310	-0.303229	0.506091
C100	C	2.292310	0.196771	1.006091
C101	C	1.909086	-0.303234	0.506097
C102	C	2.409086	0.196766	1.006097
C103	C	1.518356	-0.303154	0.780111
C104	C	2.018356	0.196846	1.280111
C105	C	1.518390	-0.303128	0.896888
C106	C	2.018390	0.196872	1.396888
C107	C	1.518428	-0.139026	0.506151
C108	C	2.018428	0.360974	1.006151
C109	C	1.518493	-0.069057	0.506182
C110	C	2.018493	0.430943	1.006182
C111	C	1.518258	-0.303232	0.233110
C112	C	2.018258	0.196768	0.733110
C113	C	1.518427	-0.303081	0.116334
C114	C	2.018427	0.196919	0.616334
C115	C	1.652853	-0.222624	0.896950
C116	C	2.152853	0.277376	1.396950
C117	C	1.720099	-0.182363	0.951842
C118	C	2.220099	0.317637	1.451842
C119	C	1.720125	-0.182340	1.061564
C120	C	2.220125	0.317660	1.561564
C121	C	1.652895	-0.222581	1.116396
C122	C	2.152895	0.277419	1.616396
C123	C	1.585648	-0.262843	1.061504
C124	C	2.085648	0.237157	1.561504
C125	C	1.585632	-0.262863	0.951780
C126	C	2.085632	0.237137	1.451780
C127	C	1.451181	-0.343342	1.061442
C128	C	1.951181	0.156658	1.561442
C129	C	1.451159	-0.343369	0.951720
C130	C	1.951159	0.156631	1.451720
C131	C	1.383951	-0.383583	1.116274
C132	C	1.883951	0.116417	1.616274
C133	C	1.316708	-0.423849	1.061382
C134	C	1.816708	0.076151	1.561382
C135	C	1.316686	-0.423870	0.951653
C136	C	1.816686	0.076130	1.451653
C137	C	1.383913	-0.383630	0.896828
C138	C	1.883913	0.116370	1.396828
H139	H	1.217967	-0.222782	0.640708
H140	H	1.717967	0.277218	1.140708
H141	H	1.118533	-0.149855	0.762851
H142	H	1.618533	0.350145	1.262851
O143	O	1.378441	-0.534166	0.645580
O144	O	1.878441	-0.034166	1.145580
H145	H	1.425408	-0.504169	0.699081
H146	H	1.925408	-0.004169	1.199081
H147	H	1.396292	-0.662110	0.627867
H148	H	1.896292	-0.162110	1.127867
H149	H	1.640169	-0.542844	0.384250
H150	H	2.140169	-0.042844	0.884250
H151	H	1.774876	-0.149552	1.106257
H152	H	2.274876	0.350448	1.606257
O153	O	1.246778	-0.383609	0.371414
O154	O	1.746778	0.116391	0.871414
H155	H	1.275747	-0.348888	0.429526
H156	H	1.775747	0.151112	0.929526
O157	O	1.658234	-1.071642	0.366655
O158	O	2.158234	-0.571642	0.866655
H159	H	1.704957	-1.037738	0.319964
H160	H	2.204957	-0.537738	0.819964
H161	H	1.640399	-0.943683	0.384363
H162	H	2.140399	-0.443683	0.884363
H163	H	1.396501	-1.062950	0.627967
H164	H	1.896501	-0.562950	1.127967
O165	O	1.378676	-0.934999	0.645686
O166	O	1.878676	-0.434999	1.145686
H167	H	1.389951	-0.883763	0.634407
H168	H	1.889951	-0.383763	1.134407
H169	H	0.919087	-0.456589	0.249317
H170	H	1.419087	0.043411	0.749317
H171	H	0.919462	-0.149871	0.762870
H172	H	1.419462	0.350129	1.262870
H173	H	1.652849	-0.222645	0.807609
H174	H	2.152849	0.277355	1.307609
H175	H	1.640253	-0.662110	0.384293
H176	H	2.140253	-0.162110	0.884293
O177	O	0.790838	-0.222832	0.640733
O178	O	1.290838	0.277168	1.140733
H179	H	0.761947	-0.188123	0.698857
H180	H	1.261947	0.311877	1.198857
O181	O	0.790647	-0.383660	0.371453
O182	O	1.290647	0.116340	0.871453
H183	H	0.761740	-0.396453	0.450653
H184	H	1.261740	0.103547	0.950653
H185	H	1.383972	-0.383559	1.205615
H186	H	1.883972	0.116441	1.705615
H187	H	1.774835	-0.149599	0.907186
H188	H	2.274835	0.350401	1.407186
H189	H	1.652913	-0.222554	1.205737
H190	H	2.152913	0.277446	1.705737
O191	O	1.244195	-0.467245	1.120516
O192	O	1.744195	0.032755	1.620516
H193	H	1.255508	-0.460463	1.206034
H194	H	1.755508	0.039537	1.706034
O195	O	1.132653	-0.467198	0.231502
O196	O	1.632653	0.032802	0.731502
H197	H	1.076033	-0.495162	0.184701
H198	H	1.576033	0.004838	0.684701
H199	H	1.261914	-0.456649	0.906967
H200	H	1.761914	0.043351	1.406967
H201	H	1.383906	-0.383647	0.807487
H202	H	1.883906	0.116353	1.307487
