data_functionalizedCrystal
_audit_creation_method	'MofGen! by Chris Wilmer'
_symmetry_space_group_name_H-M	'P1'
_symmetry_Int_Tables_number	1
_symmetry_cell_setting	triclinic
loop_
_symmetry_equiv_pos_as_xyz
  x,y,z
_cell_length_a	10.686285
_cell_length_b	12.759401
_cell_length_c	12.759393
_cell_angle_alpha	90.018713
_cell_angle_beta	85.603133
_cell_angle_gamma	94.366763
loop_
_atom_site_label
_atom_site_type_symbol
_atom_site_fract_x
_atom_site_fract_y
_atom_site_fract_z
Zn1	Zn	-0.502236	-1.638379	-0.562006
Zn2	Zn	-0.713275	-1.651780	-0.372873
Zn3	Zn	-0.502303	-1.462688	-0.386337
Zn4	Zn	-0.713187	-1.476167	-0.548516
O5	O	-0.607751	-1.557253	-0.467433
O6	O	-0.530240	-1.787178	-0.536928
O7	O	-0.685355	-1.626664	-0.227634
O8	O	-0.325718	-1.474745	-0.420919
O9	O	-0.685289	-1.797024	-0.397973
O10	O	-0.325669	-1.603824	-0.549983
O11	O	-0.530354	-1.487740	-0.237525
O12	O	-0.530269	-1.317455	-0.407839
O13	O	-0.685139	-1.497717	-0.697331
O14	O	-0.685204	-1.327357	-0.526992
O15	O	-0.530154	-1.616893	-0.707242
O16	O	-0.889840	-1.639733	-0.384893
O17	O	-0.889775	-1.510711	-0.513937
C18	C	-0.607735	-1.284285	-0.467413
C19	C	-0.607759	-1.167510	-0.467428
C20	C	-0.935592	-1.578168	-0.446513
C21	C	-1.075843	-1.587211	-0.437599
C22	C	-0.607629	-1.557314	-0.741474
C23	C	-0.607578	-1.557339	-0.858254
C24	C	-0.278629	-1.536286	-0.488457
C25	C	-0.138377	-1.527351	-0.497417
C26	C	-0.607767	-1.831288	-0.467453
C27	C	-0.607774	-1.948065	-0.467462
C28	C	-0.688557	-1.117840	-0.529357
C29	C	-0.688561	-1.008116	-0.529377
C30	C	-0.526967	-0.997742	-0.405531
C31	C	-0.526957	-1.107464	-0.405516
C32	C	-0.733838	-0.861112	-0.650352
C33	C	-0.814655	-0.811439	-0.712270
C34	C	-0.937798	-0.854916	-0.720369
C35	C	-0.980148	-0.948064	-0.666531
C36	C	-0.899337	-0.997732	-0.604604
C37	C	-0.776177	-0.954256	-0.596527
C38	C	-0.481693	-1.254470	-0.284540
C39	C	-0.400888	-1.304140	-0.222606
C40	C	-0.277744	-1.260666	-0.214498
C41	C	-0.235398	-1.167514	-0.268316
C42	C	-0.316203	-1.117844	-0.330250
C43	C	-0.439347	-1.161326	-0.338360
C44	C	-0.688240	-1.495304	-0.907960
C45	C	-0.688194	-1.495339	-1.017687
C46	C	-0.526810	-1.619445	-1.027994
C47	C	-0.526864	-1.619416	-0.918268
C48	C	-0.836930	-1.467319	-1.158140
C49	C	-0.917582	-1.405267	-1.207850
C50	C	-0.936964	-1.303976	-1.170999
C51	C	-0.875676	-1.264716	-1.084441
C52	C	-0.795015	-1.326762	-1.034737
C53	C	-0.775657	-1.428068	-1.071585
C54	C	-0.378126	-1.647425	-0.777813
C55	C	-0.297458	-1.709466	-0.728108
C56	C	-0.278063	-1.810757	-0.764958
C57	C	-0.339328	-1.850012	-0.851521
C58	C	-0.419997	-1.787972	-0.901226
C59	C	-0.439394	-1.686681	-0.864369
C60	C	-0.607780	-1.557248	-0.194464
C61	C	-0.607477	-1.557403	-0.077707
H62	H	-1.129609	-1.645374	-0.379554
H63	H	-0.247563	-1.677491	-0.657630
O64	O	-0.399046	-1.538166	-0.738072
H65	H	-0.342872	-1.521286	-0.669542
H66	H	-0.633562	-0.825711	-0.643776
O67	O	-0.775277	-1.428343	-0.843226
H68	H	-0.831359	-1.385213	-0.896228
O69	O	-1.067172	-1.450294	-0.574285
H70	H	-1.135036	-1.407859	-0.616689
H71	H	-0.323528	-1.932489	-0.881530
H72	H	-0.754347	-1.166726	-0.579772
H73	H	-1.002632	-1.253453	-1.211481
O74	O	-0.446563	-1.404614	-0.164559
H75	H	-0.369690	-1.431841	-0.120124
H76	H	-1.080428	-0.983450	-0.673120
O77	O	-0.944988	-1.098200	-0.546549
H78	H	-1.044196	-1.120095	-0.562585
O79	O	-1.024968	-0.801350	-0.787156
H80	H	-0.974832	-0.729281	-0.823234
H81	H	-0.821170	-1.549803	-1.188144
O82	O	-0.983688	-1.447605	-1.301206
H83	H	-0.956681	-1.528474	-1.318472
O84	O	-0.768983	-0.710982	-0.770349
H85	H	-0.669764	-0.689103	-0.754336
H86	H	-0.135132	-1.132104	-0.261697
O87	O	-0.439860	-0.932983	-0.338719
H88	H	-0.453461	-0.848342	-0.349112
O89	O	-0.270535	-1.017377	-0.388311
H90	H	-0.171325	-0.995491	-0.372278
O91	O	-0.190582	-1.314235	-0.147698
H92	H	-0.240709	-1.386314	-0.111633
O93	O	-0.896633	-1.155484	-1.044655
H94	H	-0.963047	-1.118948	-1.093738
O95	O	-0.614523	-1.301357	-0.293286
H96	H	-0.630400	-1.374465	-0.245442
O97	O	-0.728930	-1.284443	-0.941370
H98	H	-0.755963	-1.203584	-0.924088
H99	H	-0.461095	-1.669984	-1.076871
O100	O	-0.486090	-1.830307	-0.994588
H101	H	-0.459061	-1.911169	-1.011861
O102	O	-0.191059	-1.877680	-0.711348
H103	H	-0.151711	-1.833372	-0.644963
