data_functionalizedCrystal
_audit_creation_method	'MofGen! by Chris Wilmer'
_symmetry_space_group_name_H-M	'P1'
_symmetry_Int_Tables_number	1
_symmetry_cell_setting	triclinic
loop_
_symmetry_equiv_pos_as_xyz
  x,y,z
_cell_length_a	18.215407
_cell_length_b	21.295417
_cell_length_c	18.215399
_cell_angle_alpha	89.967848
_cell_angle_beta	89.980167
_cell_angle_gamma	90.030955
loop_
_atom_site_label
_atom_site_type_symbol
_atom_site_fract_x
_atom_site_fract_y
_atom_site_fract_z
Zn1	Zn	1.125043	-0.250608	-0.416094
Zn2	Zn	1.625043	0.249392	0.083906
Zn3	Zn	1.124940	-0.355879	-0.293019
Zn4	Zn	1.624940	0.144121	0.206981
Zn5	Zn	1.001976	-0.250629	-0.293042
Zn6	Zn	1.501976	0.249371	0.206958
Zn7	Zn	1.001930	-0.355844	-0.416044
Zn8	Zn	1.501930	0.144156	0.083956
O9	O	1.063472	-0.303240	-0.354550
O10	O	1.563472	0.196760	0.145450
O11	O	1.228014	-0.264579	-0.399780
O12	O	1.728014	0.235421	0.100220
O13	O	1.108604	-0.341941	-0.190038
O14	O	1.608604	0.158059	0.309962
O15	O	1.018364	-0.162537	-0.309396
O16	O	1.518364	0.337463	0.190604
O17	O	1.227938	-0.341921	-0.309357
O18	O	1.727938	0.158079	0.190643
O19	O	1.108781	-0.162521	-0.399802
O20	O	1.608781	0.337479	0.100198
O21	O	1.018263	-0.264614	-0.190054
O22	O	1.518263	0.235386	0.309946
O23	O	0.898985	-0.264580	-0.309347
O24	O	1.398985	0.235420	0.190653
O25	O	1.018285	-0.341861	-0.519035
O26	O	1.518285	0.158139	-0.019035
O27	O	0.898951	-0.341881	-0.399716
O28	O	1.398951	0.158119	0.100284
O29	O	1.108736	-0.264545	-0.519072
O30	O	1.608736	0.235455	-0.019072
O31	O	1.108559	-0.443964	-0.309308
O32	O	1.608559	0.056036	0.190692
O33	O	1.018184	-0.443938	-0.399694
O34	O	1.518184	0.056062	0.100306
C35	C	0.872266	-0.303229	-0.354529
C36	C	1.372266	0.196771	0.145471
C37	C	0.790467	-0.303240	-0.354537
C38	C	1.290467	0.196760	0.145463
C39	C	0.602275	-0.343554	-0.401533
C40	C	1.102275	0.156446	0.098467
C41	C	0.525416	-0.343556	-0.401542
C42	C	1.025416	0.156444	0.098458
C43	C	0.525422	-0.262938	-0.307582
C44	C	1.025422	0.237062	0.192418
C45	C	0.602279	-0.262933	-0.307577
C46	C	1.102279	0.237067	0.192423
C47	C	0.640703	-0.303245	-0.354552
C48	C	1.140703	0.196755	0.145448
C49	C	0.486987	-0.303251	-0.354566
C50	C	0.986987	0.196749	0.145434
C51	C	0.403654	-0.303253	-0.354575
C52	C	0.903654	0.196747	0.145425
C53	C	0.724042	-0.303242	-0.354543
C54	C	1.224042	0.196758	0.145457
C55	C	1.063376	-0.466792	-0.354509
C56	C	1.563376	0.033208	0.145491
C57	C	1.063402	-0.536760	-0.354516
C58	C	1.563402	-0.036760	0.145484
C59	C	1.110502	-0.569619	-0.307500
C60	C	1.610502	-0.069619	0.192500
C61	C	1.110536	-0.635361	-0.307517
C62	C	1.610536	-0.135361	0.192483
C63	C	1.063457	-0.668242	-0.354542
C64	C	1.563457	-0.168242	0.145458
C65	C	1.016354	-0.635375	-0.401566
C66	C	1.516354	-0.135375	0.098434
C67	C	1.016326	-0.569634	-0.401554
C68	C	1.516326	-0.069634	0.098446
N69	N	0.999079	-0.771508	-0.360145
N70	N	1.499079	-0.271508	0.139855
N71	N	0.999107	-0.833960	-0.360153
N72	N	1.499107	-0.333960	0.139847
C73	C	1.063540	-0.866317	-0.354584
C74	C	1.563540	-0.366317	0.145416
N75	N	1.127944	-0.833863	-0.348993
N76	N	1.627944	-0.333863	0.151007
N77	N	1.127915	-0.771406	-0.348981
N78	N	1.627915	-0.271406	0.151019
C79	C	1.063483	-0.739528	-0.354561
C80	C	1.563483	-0.239528	0.145439
C81	C	1.110681	-0.970462	-0.307584
C82	C	1.610681	-0.470462	0.192416
C83	C	1.110717	-1.036205	-0.307605
C84	C	1.610717	-0.536205	0.192395
C85	C	1.016528	-1.036218	-0.401651
C86	C	1.516528	-0.536218	0.098349
C87	C	1.016499	-0.970475	-0.401633
C88	C	1.516499	-0.470475	0.098367
C89	C	1.063575	-0.937601	-0.354595
C90	C	1.563575	-0.437601	0.145405
C91	C	1.255425	-0.303251	-0.354571
C92	C	1.755425	0.196749	0.145429
C93	C	1.337224	-0.303256	-0.354581
C94	C	1.837224	0.196744	0.145419
C95	C	1.063517	-0.303197	-0.546503
C96	C	1.563517	0.196803	-0.046503
C97	C	1.063536	-0.303178	-0.628302
C98	C	1.563536	0.196822	-0.128302
C99	C	1.063589	-0.139050	-0.354607
C100	C	1.563589	0.360950	0.145393
C101	C	1.063639	-0.069082	-0.354631
C102	C	1.563639	0.430918	0.145369
C103	C	1.110651	-0.262882	-0.816516
C104	C	1.610651	0.237118	-0.316516
C105	C	1.110660	-0.262863	-0.893375
C106	C	1.610660	0.237137	-0.393375
C107	C	1.016473	-0.343377	-0.893325
C108	C	1.516473	0.156623	-0.393325
C109	C	1.016461	-0.343392	-0.816468
C110	C	1.516461	0.156608	-0.316468
C111	C	1.063554	-0.303145	-0.778065
C112	C	1.563554	0.196855	-0.278065
C113	C	1.063575	-0.303112	-0.931781
C114	C	1.563575	0.196888	-0.431781
C115	C	1.063584	-0.303093	-1.015115
C116	C	1.563584	0.196907	-0.515115
C117	C	1.063544	-0.303164	-0.694726
C118	C	1.563544	0.196836	-0.194726
C119	C	1.063470	-0.303238	-0.163344
C120	C	1.563470	0.196762	0.336656
C121	C	1.063593	-0.303079	-0.081545
C122	C	1.563593	0.196921	0.418455
H123	H	1.148835	-0.542855	-0.269202
H124	H	1.648835	-0.042855	0.230798
H125	H	0.978024	-0.662151	-0.439855
H126	H	1.478024	-0.162151	0.060145
H127	H	1.149009	-0.230076	-0.924678
H128	H	1.649009	0.269924	-0.424678
Cl129	Cl	1.169751	-0.676679	-0.248406
Cl130	Cl	1.669751	-0.176679	0.251594
Cl131	Cl	1.169860	-0.929131	-0.248452
Cl132	Cl	1.669860	-0.429131	0.251548
Cl133	Cl	0.650593	-0.212250	-0.248515
Cl134	Cl	1.150593	0.287750	0.251485
Cl135	Cl	1.169850	-0.212284	-0.768241
Cl136	Cl	1.669850	0.287716	-0.268241
Cl137	Cl	1.169940	-1.077515	-0.248499
Cl138	Cl	1.669940	-0.577515	0.251501
H139	H	0.494127	-0.230118	-0.269336
H140	H	0.994127	0.269882	0.230664
Cl141	Cl	0.957278	-0.393974	-0.941608
Cl142	Cl	1.457278	0.106026	-0.441608
H143	H	0.633557	-0.376377	-0.439785
H144	H	1.133557	0.123623	0.060215
Cl145	Cl	0.477108	-0.394232	-0.460609
Cl146	Cl	0.977108	0.105768	0.039391
Cl147	Cl	0.957348	-1.077548	-0.460773
Cl148	Cl	1.457348	-0.577548	0.039227
Cl149	Cl	0.957109	-0.528323	-0.460664
Cl150	Cl	1.457109	-0.028323	0.039336
Cl151	Cl	0.957281	-0.929164	-0.460738
Cl152	Cl	1.457281	-0.429164	0.039262
H153	H	0.978104	-0.376179	-0.785160
H154	H	1.478104	0.123821	-0.285160
