data_functionalizedCrystal
_audit_creation_method	'MofGen! by Chris Wilmer'
_symmetry_space_group_name_H-M	'P1'
_symmetry_Int_Tables_number	1
_symmetry_cell_setting	triclinic
loop_
_symmetry_equiv_pos_as_xyz
  x,y,z
_cell_length_a	18.215407
_cell_length_b	16.959454
_cell_length_c	18.215398
_cell_angle_alpha	90.021170
_cell_angle_beta	90.019464
_cell_angle_gamma	90.020523
loop_
_atom_site_label
_atom_site_type_symbol
_atom_site_fract_x
_atom_site_fract_y
_atom_site_fract_z
Zn1	Zn	1.125094	-0.314700	0.416138
Zn2	Zn	1.458427	0.018633	0.749471
Zn3	Zn	1.791761	0.351967	1.082804
Zn4	Zn	1.125013	-0.446879	0.293080
Zn5	Zn	1.458347	-0.113546	0.626414
Zn6	Zn	1.791680	0.219787	0.959747
Zn7	Zn	1.002027	-0.314720	0.293085
Zn8	Zn	1.335361	0.018613	0.626418
Zn9	Zn	1.668694	0.351947	0.959752
Zn10	Zn	1.002003	-0.446841	0.416105
Zn11	Zn	1.335336	-0.113508	0.749439
Zn12	Zn	1.668669	0.219825	1.082772
O13	O	1.063534	-0.380785	0.354602
O14	O	1.396868	-0.047452	0.687935
O15	O	1.730201	0.285882	1.021269
O16	O	1.228067	-0.332241	0.399825
O17	O	1.561401	0.001092	0.733159
O18	O	1.894734	0.334425	1.066492
O19	O	1.108676	-0.429373	0.190097
O20	O	1.442009	-0.096039	0.523430
O21	O	1.775342	0.237294	0.856763
O22	O	1.018396	-0.204106	0.309424
O23	O	1.351730	0.129227	0.642757
O24	O	1.685063	0.462560	0.976090
O25	O	1.228008	-0.429353	0.309416
O26	O	1.561342	-0.096020	0.642749
O27	O	1.894675	0.237313	0.976083
O28	O	1.108813	-0.204092	0.399830
O29	O	1.442146	0.129242	0.733163
O30	O	1.775479	0.462575	1.066496
O31	O	1.018318	-0.332276	0.190100
O32	O	1.351652	0.001058	0.523433
O33	O	1.684985	0.334391	0.856767
O34	O	0.899040	-0.332239	0.309392
O35	O	1.232373	0.001095	0.642726
O36	O	1.565706	0.334428	0.976059
O37	O	1.018354	-0.429288	0.519094
O38	O	1.351688	-0.095955	0.852427
O39	O	1.685021	0.237379	1.185761
O40	O	0.899022	-0.429308	0.399775
O41	O	1.232355	-0.095974	0.733108
O42	O	1.565688	0.237359	1.066442
O43	O	1.108789	-0.332204	0.519118
O44	O	1.442122	0.001129	0.852451
O45	O	1.775456	0.334462	1.185784
O46	O	1.108652	-0.557485	0.309385
O47	O	1.441985	-0.224152	0.642718
O48	O	1.775318	0.109181	0.976051
O49	O	1.018276	-0.557457	0.399770
O50	O	1.351610	-0.224124	0.733104
O51	O	1.684943	0.109209	1.066437
C52	C	0.872328	-0.380772	0.354581
C53	C	1.205661	-0.047438	0.687914
C54	C	1.538995	0.285895	1.021248
C55	C	0.790529	-0.380785	0.354589
C56	C	1.123862	-0.047452	0.687923
C57	C	1.457196	0.285882	1.021256
C58	C	0.602345	-0.431408	0.401593
C59	C	0.935678	-0.098075	0.734926
C60	C	1.269012	0.235258	1.068259
C61	C	0.525486	-0.431411	0.401602
C62	C	0.858820	-0.098077	0.734935
C63	C	1.192153	0.235256	1.068268
C64	C	0.525476	-0.330176	0.307628
C65	C	0.858809	0.003157	0.640961
C66	C	1.192142	0.336490	0.974294
C67	C	0.602333	-0.330171	0.307623
C68	C	0.935666	0.003163	0.640956
C69	C	1.269000	0.336496	0.974289
C70	C	0.640766	-0.380791	0.354604
C71	C	0.974099	-0.047458	0.687937
C72	C	1.307432	0.285876	1.021271
C73	C	0.487050	-0.380799	0.354618
C74	C	0.820383	-0.047466	0.687952
C75	C	1.153716	0.285867	1.021285
C76	C	0.403716	-0.380802	0.354628
C77	C	0.737049	-0.047468	0.687961
C78	C	1.070383	0.285865	1.021294
C79	C	0.724105	-0.380788	0.354596
C80	C	1.057438	-0.047454	0.687929
C81	C	1.390771	0.285879	1.021262
C82	C	1.063473	-0.586151	0.354590
C83	C	1.396806	-0.252818	0.687923
C84	C	1.730139	0.080515	1.021256
C85	C	1.063514	-0.674008	0.354609
C86	C	1.396847	-0.340675	0.687942
C87	C	1.730180	-0.007341	1.021276
C88	C	1.016544	-1.045499	0.401661
C89	C	1.349877	-0.712166	0.734994
C90	C	1.683211	-0.378832	1.068328
C91	C	1.110729	-1.045468	0.307618
C92	C	1.444063	-0.712135	0.640952
C93	C	1.777396	-0.378802	0.974285
C94	C	1.110704	-0.962922	0.307611
C95	C	1.444037	-0.629589	0.640945
C96	C	1.777370	-0.296256	0.974278
C97	C	1.063597	-0.921661	0.354629
C98	C	1.396930	-0.588328	0.687963
C99	C	1.730263	-0.254994	1.021296
C100	C	1.016515	-0.962945	0.401654
C101	C	1.349849	-0.629612	0.734987
C102	C	1.683182	-0.296279	1.068321
C103	C	1.157779	-0.921632	0.260582
C104	C	1.491112	-0.588298	0.593916
C105	C	1.824446	-0.254965	0.927249
C106	C	1.157755	-0.839081	0.260573
C107	C	1.491088	-0.505747	0.593906
C108	C	1.824421	-0.172414	0.927240
C109	C	1.110651	-0.797818	0.307595
C110	C	1.443984	-0.464485	0.640929
C111	C	1.777317	-0.131151	0.974262
C112	C	1.063568	-0.839107	0.354622
C113	C	1.396901	-0.505774	0.687956
C114	C	1.730235	-0.172441	1.021289
C115	C	1.016461	-0.797846	0.401640
C116	C	1.349794	-0.464513	0.734974
C117	C	1.683128	-0.131179	1.068307
C118	C	0.969381	-0.839134	0.448672
C119	C	1.302715	-0.505801	0.782005
C120	C	1.636048	-0.172467	1.115339
C121	C	0.969411	-0.921683	0.448676
C122	C	1.302745	-0.588349	0.782010
C123	C	1.636078	-0.255016	1.115343
C124	C	1.110621	-0.715269	0.307591
C125	C	1.443954	-0.381936	0.640924
C126	C	1.777287	-0.048603	0.974258
C127	C	1.016432	-0.715292	0.401634
C128	C	1.349766	-0.381959	0.734967
C129	C	1.683099	-0.048626	1.068300
C130	C	1.255487	-0.380799	0.354624
C131	C	1.588821	-0.047466	0.687957
C132	C	1.922154	0.285867	1.021290
C133	C	1.337286	-0.380805	0.354633
C134	C	1.670619	-0.047472	0.687966
C135	C	2.003953	0.285861	1.021300
C136	C	1.063578	-0.380740	0.546555
C137	C	1.396911	-0.047406	0.879888
C138	C	1.730245	0.285927	1.213222
C139	C	1.063596	-0.380720	0.628354
C140	C	1.396930	-0.047387	0.961687
C141	C	1.730263	0.285946	1.295021
C142	C	1.063616	-0.174617	0.354631
C143	C	1.396950	0.158716	0.687964
C144	C	1.730283	0.492050	1.021297
C145	C	1.063651	-0.086760	0.354643
C146	C	1.396984	0.246573	0.687976
C147	C	1.730318	0.579906	1.021310
C148	C	1.063533	-0.380773	0.163396
C149	C	1.396867	-0.047440	0.496729
C150	C	1.730200	0.285893	0.830063
C151	C	1.063657	-0.380570	0.081597
C152	C	1.396991	-0.047237	0.414931
C153	C	1.730324	0.286097	0.748264
C154	C	1.110679	-0.431181	0.893414
C155	C	1.444012	-0.097848	1.226748
C156	C	1.777346	0.235485	1.560081
C157	C	1.110668	-0.431209	0.816556
C158	C	1.444001	-0.097875	1.149889
C159	C	1.777335	0.235458	1.483222
C160	C	1.016569	-0.330107	0.816542
C161	C	1.349903	0.003226	1.149876
C162	C	1.683236	0.336560	1.483209
C163	C	1.016577	-0.330084	0.893400
C164	C	1.349911	0.003249	1.226733
C165	C	1.683244	0.336583	1.560066
C166	C	1.063636	-0.380620	0.931834
C167	C	1.396970	-0.047287	1.265167
C168	C	1.730303	0.286047	1.598500
C169	C	1.063617	-0.380670	0.778118
C170	C	1.396951	-0.047337	1.111451
C171	C	1.730284	0.285996	1.444784
C172	C	1.063605	-0.380700	0.694784
C173	C	1.396938	-0.047366	1.028117
C174	C	1.730271	0.285967	1.361451
C175	C	1.063648	-0.380592	1.015173
C176	C	1.396982	-0.047259	1.348506
C177	C	1.730315	0.286075	1.681839
H178	H	0.633616	-0.288947	0.269359
H179	H	0.966949	0.044386	0.602692
H180	H	1.300282	0.377720	0.936026
C181	C	0.644618	-0.487086	0.453279
C182	C	0.977952	-0.153753	0.786612
C183	C	1.311285	0.179581	1.119945
N184	N	0.676457	-0.529022	0.492213
N185	N	1.009790	-0.195689	0.825546
N186	N	1.343123	0.137645	1.158879
H187	H	0.978266	-0.288910	0.924682
H188	H	1.311599	0.044423	1.258015
H189	H	1.644933	0.377757	1.591348
C190	C	0.483227	-0.487101	0.453286
C191	C	0.816561	-0.153768	0.786619
C192	C	1.149894	0.179566	1.119953
N193	N	0.451398	-0.529052	0.492215
N194	N	0.784731	-0.195718	0.825548
N195	N	1.118065	0.137615	1.158882
C196	C	0.483192	-0.274501	0.255947
C197	C	0.816526	0.058832	0.589280
C198	C	1.149859	0.392165	0.922614
N199	N	0.451345	-0.232567	0.217018
N200	N	0.784679	0.100766	0.550352
N201	N	1.118012	0.434099	0.883685
H202	H	0.978074	-0.681702	0.439924
H203	H	1.311408	-0.348369	0.773258
H204	H	1.644741	-0.015036	1.106591
C205	C	0.917565	-0.793736	0.500390
C206	C	1.250898	-0.460403	0.833723
C207	C	1.584231	-0.127069	1.167056
N208	N	0.878538	-0.759539	0.539343
N209	N	1.211872	-0.426205	0.872676
N210	N	1.545205	-0.092872	1.206009
C211	C	0.917620	-0.967105	0.500398
C212	C	1.250954	-0.633772	0.833731
C213	C	1.584287	-0.300439	1.167065
N214	N	0.878608	-1.001321	0.539350
N215	N	1.211941	-0.667988	0.872684
N216	N	1.545275	-0.334654	1.206017
C217	C	0.964756	-1.090916	0.453390
C218	C	1.298089	-0.757582	0.786723
C219	C	1.631423	-0.424249	1.120057
N220	N	0.925747	-1.125125	0.492351
N221	N	1.259080	-0.791791	0.825684
N222	N	1.592414	-0.458458	1.159018
H223	H	1.149078	-1.079068	0.269334
H224	H	1.482411	-0.745735	0.602667
H225	H	1.815744	-0.412401	0.936001
C226	C	1.162439	-0.486779	0.935689
C227	C	1.495773	-0.153445	1.269023
C228	C	1.829106	0.179888	1.602356
N229	N	1.201424	-0.528659	0.967528
N230	N	1.534758	-0.195326	1.300862
N231	N	1.868091	0.138007	1.634195
C232	C	1.162434	-0.486813	0.774298
C233	C	1.495768	-0.153480	1.107631
C234	C	1.829101	0.179853	1.440965
N235	N	1.201432	-0.528692	0.742470
N236	N	1.534765	-0.195358	1.075803
N237	N	1.868099	0.137975	1.409136
H238	H	0.978256	-0.288961	0.785240
H239	H	1.311590	0.044372	1.118573
H240	H	1.644923	0.377705	1.451907
H241	H	1.196126	-0.955233	0.222297
H242	H	1.529459	-0.621899	0.555631
H243	H	1.862792	-0.288566	0.888964
H244	H	1.196090	-0.805469	0.222279
H245	H	1.529423	-0.472136	0.555612
H246	H	1.862756	-0.138802	0.888945
C247	C	1.162406	-0.669856	0.255861
C248	C	1.495739	-0.336523	0.589194
C249	C	1.829072	-0.003190	0.922527
N250	N	1.201415	-0.635652	0.216896
N251	N	1.534749	-0.302319	0.550230
N252	N	1.868082	0.031014	0.883563
