data_functionalizedCrystal
_audit_creation_method	'MofGen! by Chris Wilmer'
_symmetry_space_group_name_H-M	'P1'
_symmetry_Int_Tables_number	1
_symmetry_cell_setting	triclinic
loop_
_symmetry_equiv_pos_as_xyz
  x,y,z
_cell_length_a	16.959455
_cell_length_b	21.295417
_cell_length_c	16.959447
_cell_angle_alpha	89.965854
_cell_angle_beta	89.979626
_cell_angle_gamma	90.026722
loop_
_atom_site_label
_atom_site_type_symbol
_atom_site_fract_x
_atom_site_fract_y
_atom_site_fract_z
Zn1	Zn	1.208331	-0.250647	-0.447015
Zn2	Zn	1.208231	-0.355924	-0.314828
Zn3	Zn	1.076159	-0.250667	-0.314839
Zn4	Zn	1.076102	-0.355877	-0.446953
O5	O	1.142206	-0.303278	-0.380909
O6	O	1.318929	-0.264623	-0.429502
O7	O	1.190694	-0.341989	-0.204218
O8	O	1.093758	-0.162575	-0.332403
O9	O	1.318855	-0.341970	-0.332385
O10	O	1.190864	-0.162560	-0.429513
O11	O	1.093661	-0.264657	-0.204226
O12	O	0.965541	-0.264612	-0.332342
O13	O	1.093660	-0.341890	-0.557572
O14	O	0.965499	-0.341909	-0.429406
O15	O	1.190808	-0.264578	-0.557618
O16	O	1.190638	-0.444007	-0.332324
O17	O	1.093563	-0.443972	-0.429395
C18	C	0.936840	-0.303258	-0.380869
C19	C	0.848983	-0.303264	-0.380871
C20	C	0.477459	-0.343513	-0.330314
C21	C	0.477556	-0.263096	-0.431600
C22	C	0.560102	-0.263086	-0.431581
C23	C	0.601330	-0.303290	-0.380928
C24	C	0.560012	-0.343505	-0.330295
C25	C	0.601426	-0.222877	-0.482219
C26	C	0.683977	-0.222865	-0.482202
C27	C	0.725207	-0.263067	-0.431545
C28	C	0.683884	-0.303282	-0.380909
C29	C	0.725112	-0.343487	-0.330256
C30	C	0.683790	-0.383700	-0.279616
C31	C	0.601242	-0.383707	-0.279638
C32	C	0.807755	-0.263060	-0.431523
C33	C	0.807665	-0.343479	-0.330237
C34	C	1.142105	-0.466830	-0.380869
C35	C	1.142134	-0.536798	-0.380878
C36	C	1.192668	-0.569600	-0.431479
C37	C	1.192696	-0.635342	-0.431498
C38	C	1.142198	-0.668281	-0.380903
C39	C	1.091655	-0.635471	-0.330298
C40	C	1.091622	-0.569730	-0.330286
N41	N	1.136233	-0.771546	-0.311726
N42	N	1.136268	-0.833997	-0.311740
C43	C	1.142291	-0.866355	-0.380939
N44	N	1.148292	-0.833903	-0.450124
N45	N	1.148261	-0.771446	-0.450109
C46	C	1.142227	-0.739566	-0.380911
C47	C	1.192858	-0.970443	-0.431565
C48	C	1.192880	-1.036186	-0.431586
C49	C	1.091842	-1.036313	-0.330379
C50	C	1.091816	-0.970571	-0.330365
C51	C	1.142328	-0.937640	-0.380957
C52	C	1.348374	-0.303299	-0.380949
C53	C	1.436231	-0.303308	-0.380966
C54	C	1.142239	-0.303226	-0.587077
C55	C	1.142253	-0.303204	-0.674934
C56	C	1.142329	-0.139088	-0.380966
C57	C	1.142381	-0.069120	-0.380991
C58	C	1.091767	-0.343390	-1.046388
C59	C	1.192928	-0.262885	-1.046431
C60	C	1.192907	-0.262898	-0.963885
C61	C	1.142316	-0.303159	-0.922587
C62	C	1.091746	-0.343406	-0.963834
C63	C	1.243482	-0.222656	-0.922631
C64	C	1.243463	-0.222668	-0.840080
C65	C	1.192867	-0.262926	-0.798780
C66	C	1.142295	-0.303175	-0.840033
C67	C	1.091704	-0.343436	-0.798735
C68	C	1.041126	-0.383681	-0.839986
C69	C	1.041150	-0.383664	-0.922534
C70	C	1.192844	-0.262943	-0.716232
C71	C	1.091683	-0.343451	-0.716181
C72	C	1.142219	-0.303285	-0.175542
C73	C	1.142358	-0.303130	-0.087686
H74	H	0.443811	-0.376252	-0.289081
N75	N	1.037215	-0.386801	-1.090863
H76	H	0.980746	-0.377018	-1.076486
H77	H	1.044960	-0.380669	-1.149412
N78	N	1.247403	-0.219549	-0.671747
H79	H	1.284001	-0.245152	-0.637497
H80	H	1.279405	-0.194061	-0.710492
N81	N	1.037371	-1.071826	-0.275806
H82	H	1.000732	-1.099106	-0.307897
H83	H	1.069583	-1.099066	-0.239222
N84	N	1.247488	-0.219462	-1.090972
H85	H	1.279520	-0.193968	-1.052314
H86	H	1.284058	-0.245084	-1.125212
N87	N	0.433094	-0.219739	-0.486235
H88	H	0.374529	-0.225848	-0.478565
H89	H	0.447532	-0.174768	-0.474030
N90	N	0.556963	-0.179518	-0.536851
H91	H	0.522720	-0.205142	-0.573423
H92	H	0.522755	-0.150325	-0.504746
H93	H	1.234031	-1.062893	-0.472795
H94	H	0.841227	-0.376217	-0.288987
H95	H	1.050471	-0.543022	-0.289080
H96	H	0.717614	-0.190121	-0.523436
N97	N	0.852324	-0.219698	-0.486140
H98	H	0.813680	-0.194233	-0.518235
H99	H	0.886567	-0.190529	-0.454028
N100	N	1.247141	-0.534081	-0.486049
H101	H	1.279157	-0.564841	-0.518110
H102	H	1.214926	-0.506807	-0.522592
H103	H	1.233841	-0.662055	-0.472713
N104	N	1.298048	-0.179237	-0.967171
H105	H	1.334661	-0.204819	-1.001416
H106	H	1.265898	-0.150063	-1.001382
N107	N	1.037189	-0.670992	-0.275726
H108	H	1.044880	-0.717617	-0.283408
H109	H	1.049525	-0.659523	-0.219285
N110	N	1.247332	-0.934918	-0.486130
H111	H	1.279347	-0.965676	-0.518195
H112	H	1.215122	-0.907638	-0.522670
H113	H	0.999975	-0.416432	-0.956129
N114	N	0.728260	-0.427065	-0.224988
H115	H	0.786823	-0.420957	-0.232666
H116	H	0.713809	-0.417211	-0.168560
H117	H	0.567590	-0.416446	-0.238408
H118	H	1.284646	-0.189898	-0.806501
H119	H	1.050670	-0.943862	-0.289157
N120	N	1.037103	-0.386866	-0.671640
H121	H	1.005066	-0.412354	-0.710300
H122	H	1.069238	-0.416012	-0.637377
H123	H	0.999939	-0.416464	-0.806350
