data_functionalizedCrystal
_audit_creation_method	'MofGen! by Chris Wilmer'
_symmetry_space_group_name_H-M	'P1'
_symmetry_Int_Tables_number	1
_symmetry_cell_setting	triclinic
loop_
_symmetry_equiv_pos_as_xyz
  x,y,z
_cell_length_a	11.169416
_cell_length_b	17.077404
_cell_length_c	17.077396
_cell_angle_alpha	90.017442
_cell_angle_beta	89.976500
_cell_angle_gamma	89.992591
loop_
_atom_site_label
_atom_site_type_symbol
_atom_site_fract_x
_atom_site_fract_y
_atom_site_fract_z
Zn1	Zn	-0.477891	-1.200106	-0.443879
Zn2	Zn	-0.678606	-1.200047	-0.312626
Zn3	Zn	-0.477925	-1.068843	-0.312626
Zn4	Zn	-0.678521	-1.068834	-0.443849
O5	O	-0.578236	-1.134457	-0.378245
O6	O	-0.504538	-1.309945	-0.426480
O7	O	-0.652035	-1.182621	-0.202779
O8	O	-0.309971	-1.086283	-0.330049
O9	O	-0.652002	-1.309901	-0.330049
O10	O	-0.309946	-1.182721	-0.426480
O11	O	-0.504596	-1.086226	-0.202779
O12	O	-0.504513	-0.958995	-0.330021
O13	O	-0.651857	-1.086269	-0.553700
O14	O	-0.651890	-0.958988	-0.426430
O15	O	-0.504455	-1.182713	-0.553722
O16	O	-0.846544	-1.182613	-0.330020
O17	O	-0.846482	-1.086211	-0.426430
C18	C	-0.578197	-0.930509	-0.378223
C19	C	-0.578209	-0.843260	-0.378232
C20	C	-0.501560	-0.802293	-0.428519
C21	C	-0.501566	-0.720312	-0.428521
C22	C	-0.578227	-0.679300	-0.378238
C23	C	-0.654880	-0.720273	-0.327946
C24	C	-0.654867	-0.802252	-0.327941
C25	C	-0.654903	-0.549403	-0.327961
C26	C	-0.654918	-0.467418	-0.327967
C27	C	-0.501601	-0.467463	-0.428541
C28	C	-0.501589	-0.549442	-0.428536
C29	C	-0.578243	-0.590409	-0.378244
C30	C	-0.890060	-1.134426	-0.378239
C31	C	-1.023460	-1.134485	-0.378263
C32	C	-0.265193	-1.134510	-0.378268
C33	C	-0.131793	-1.134532	-0.378278
C34	C	-0.578143	-1.134497	-0.582989
C35	C	-0.578103	-1.134513	-0.670239
C36	C	-0.578270	-0.339201	-0.378262
C37	C	-0.578269	-0.426451	-0.378254
C38	C	-0.501322	-1.084336	-0.711229
C39	C	-0.501295	-1.084349	-0.793209
C40	C	-0.578043	-1.134544	-0.834199
C41	C	-0.654833	-1.184723	-0.793203
C42	C	-0.654865	-1.184706	-0.711224
C43	C	-0.654758	-1.184757	-0.964073
C44	C	-0.654724	-1.184776	-1.046058
C45	C	-0.501188	-1.084400	-1.046058
C46	C	-0.501220	-1.084383	-0.964079
C47	C	-0.578008	-1.134564	-0.923090
C48	C	-0.578242	-1.134463	-0.174297
C49	C	-0.577943	-1.134598	-0.087048
H50	H	-0.717293	-0.686874	-0.287001
O51	O	-0.729211	-0.427494	-0.279078
C52	C	-0.660776	-0.380071	-0.228451
H53	H	-0.569885	-0.367803	-0.256246
H54	H	-0.709647	-0.322418	-0.217877
H55	H	-0.647458	-0.411644	-0.170293
O56	O	-0.729575	-1.233337	-0.671368
C57	C	-0.807079	-1.188619	-0.623923
H58	H	-0.814467	-1.126799	-0.648625
H59	H	-0.899450	-1.216991	-0.622985
H60	H	-0.769995	-1.185906	-0.561797
O61	O	-0.427180	-0.589195	-0.477489
C62	C	-0.453580	-0.569210	-0.555699
H63	H	-0.499726	-0.509686	-0.557283
H64	H	-0.367029	-0.566423	-0.590991
H65	H	-0.515330	-0.615357	-0.582066
H66	H	-0.717282	-0.835606	-0.286991
H67	H	-0.438777	-1.043486	-0.826579
H68	H	-0.717276	-1.225627	-0.930702
O69	O	-0.729483	-0.589078	-0.279086
C70	C	-0.797135	-0.535302	-0.234696
H71	H	-0.801353	-0.476875	-0.266845
H72	H	-0.891678	-0.558982	-0.226225
H73	H	-0.753080	-0.526566	-0.175124
H74	H	-0.439136	-0.835679	-0.469467
H75	H	-0.439184	-0.434104	-0.469489
H76	H	-0.439153	-0.686961	-0.469471
O77	O	-0.426731	-1.035500	-0.671536
C78	C	-0.358939	-0.991228	-0.725299
H79	H	-0.408075	-0.988517	-0.783731
H80	H	-0.346138	-0.929376	-0.701610
H81	H	-0.267788	-1.019988	-0.734029
O82	O	-0.426793	-1.035513	-0.924297
C83	C	-0.452976	-0.957277	-0.944332
H84	H	-0.548844	-0.953300	-0.966860
H85	H	-0.442653	-0.918489	-0.890414
H86	H	-0.388603	-0.936778	-0.991919
O87	O	-0.426778	-1.035557	-1.085901
C88	C	-0.495086	-0.984864	-1.133314
H89	H	-0.589621	-0.980005	-1.108599
H90	H	-0.451675	-0.924459	-1.134231
H91	H	-0.499196	-1.009135	-1.195451
H92	H	-0.717219	-1.225649	-1.079429
H93	H	-0.717329	-1.225589	-0.826583
