data_functionalizedCrystal
_audit_creation_method	'MofGen! by Chris Wilmer'
_symmetry_space_group_name_H-M	'P1'
_symmetry_Int_Tables_number	1
_symmetry_cell_setting	triclinic
loop_
_symmetry_equiv_pos_as_xyz
  x,y,z
_cell_length_a	16.974800
_cell_length_b	14.853569
_cell_length_c	16.053802
_cell_angle_alpha	92.568019
_cell_angle_beta	91.074188
_cell_angle_gamma	83.512599
loop_
_atom_site_label
_atom_site_type_symbol
_atom_site_fract_x
_atom_site_fract_y
_atom_site_fract_z
O1	O	1.049204	0.114921	0.001488
O2	O	1.382537	0.448255	0.334821
O3	O	1.715870	0.781588	0.668154
O4	O	0.819757	0.128722	-0.014023
O5	O	1.153091	0.462055	0.319310
O6	O	1.486424	0.795389	0.652643
O7	O	0.940608	-0.009402	-0.005846
O8	O	1.273942	0.323932	0.327488
O9	O	1.607275	0.657265	0.660821
O10	O	0.928353	0.253045	-0.006690
O11	O	1.261686	0.586378	0.326643
O12	O	1.595019	0.919712	0.659977
O13	O	0.933956	-0.001830	0.132563
O14	O	1.267290	0.331503	0.465897
O15	O	1.600623	0.664836	0.799230
O16	O	0.813105	0.136293	0.124385
O17	O	1.146439	0.469627	0.457719
O18	O	1.479772	0.802960	0.791052
O19	O	1.042552	0.122493	0.139896
O20	O	1.375885	0.455826	0.473230
O21	O	1.709218	0.789159	0.806563
Zn22	Zn	0.926772	0.130595	0.154116
Zn23	Zn	1.260106	0.463928	0.487450
Zn24	Zn	1.593439	0.797262	0.820783
Zn25	Zn	0.935537	0.120620	-0.028243
Zn26	Zn	1.268870	0.453953	0.305090
Zn27	Zn	1.602203	0.787286	0.638423
O28	O	0.921701	0.260616	0.131719
O29	O	1.255034	0.593950	0.465052
O30	O	1.588367	0.927283	0.798385
C31	C	0.787068	0.131844	0.053196
C32	C	1.120401	0.465178	0.386529
C33	C	1.453734	0.798511	0.719863
C34	C	0.699573	0.129856	0.047282
C35	C	1.032906	0.463190	0.380615
C36	C	1.366239	0.796523	0.713948
C37	C	0.654846	0.133047	0.119951
C38	C	0.988179	0.466381	0.453285
C39	C	1.321513	0.799714	0.786618
C40	C	0.572637	0.131165	0.114397
C41	C	0.905970	0.464498	0.447730
C42	C	1.239304	0.797832	0.781063
C43	C	0.535155	0.126098	0.036171
C44	C	0.868489	0.459432	0.369504
C45	C	1.201822	0.792765	0.702838
C46	C	0.579888	0.122904	-0.036504
C47	C	0.913221	0.456238	0.296829
C48	C	1.246555	0.789571	0.630162
C49	C	0.662096	0.124780	-0.030949
C50	C	0.995430	0.458113	0.302385
C51	C	1.328763	0.791447	0.635718
C52	C	0.289678	0.120040	0.011465
C53	C	0.623011	0.453373	0.344798
C54	C	0.956345	0.786706	0.678131
C55	C	0.207463	0.118167	0.005914
C56	C	0.540797	0.451500	0.339248
C57	C	0.874130	0.784834	0.672581
C58	C	0.200218	0.126426	0.156816
C59	C	0.533551	0.459760	0.490149
C60	C	0.866885	0.793093	0.823483
C61	C	0.282428	0.128307	0.162365
C62	C	0.615761	0.461640	0.495698
C63	C	0.949094	0.794974	0.829031
C64	C	0.327154	0.125108	0.089690
C65	C	0.660487	0.458441	0.423023
C66	C	0.993821	0.791775	0.756356
N67	N	0.451124	0.124177	0.030491
N68	N	0.784457	0.457511	0.363824
N69	N	1.117791	0.790844	0.697158
N70	N	0.411184	0.127023	0.095370
N71	N	0.744518	0.460356	0.428704
N72	N	1.077851	0.793689	0.762037
C73	C	0.936727	-0.039205	0.063322
C74	C	1.270060	0.294128	0.396655
C75	C	1.603393	0.627462	0.729988
C76	C	0.935062	-0.139290	0.063210
C77	C	1.268395	0.194043	0.396543
C78	C	1.601729	0.527376	0.729876
C79	C	0.862492	-0.175737	0.058305
C80	C	1.195826	0.157597	0.391639
C81	C	1.529159	0.490930	0.724972
C82	C	1.006068	-0.196888	0.068002
C83	C	1.339401	0.136445	0.401336
C84	C	1.672734	0.469778	0.734669
C85	C	1.004506	-0.290924	0.067893
C86	C	1.337839	0.042409	0.401226
C87	C	1.671173	0.375742	0.734560
C88	C	0.931937	-0.327371	0.062989
C89	C	1.265270	0.005963	0.396322
C90	C	1.598603	0.339296	0.729655
C91	C	0.860929	-0.269781	0.058194
C92	C	1.194262	0.063552	0.391527
C93	C	1.527595	0.396886	0.724860
C94	C	1.075513	-0.348521	0.072680
C95	C	1.408846	-0.015188	0.406013
C96	C	1.742180	0.318145	0.739346
C97	C	1.073954	-0.442563	0.072570
C98	C	1.407288	-0.109230	0.405903
C99	C	1.740621	0.224103	0.739237
C100	C	1.001384	-0.479011	0.067671
C101	C	1.334717	-0.145678	0.401005
C102	C	1.668050	0.187656	0.734338
C103	C	0.930373	-0.421415	0.062877
C104	C	1.263706	-0.088082	0.396210
C105	C	1.597039	0.245252	0.729544
C106	C	0.857803	-0.457861	0.057973
C107	C	1.191137	-0.124528	0.391306
C108	C	1.524470	0.208805	0.724639
C109	C	0.786791	-0.400267	0.053184
C110	C	1.120125	-0.066933	0.386517
C111	C	1.453458	0.266400	0.719851
C112	C	0.788358	-0.306229	0.053295
C113	C	1.121691	0.027105	0.386628
C114	C	1.455025	0.360438	0.719962
C115	C	0.999817	-0.573049	0.067560
C116	C	1.333150	-0.239716	0.400894
C117	C	1.666484	0.093618	0.734227
C118	C	0.856240	-0.551906	0.057861
C119	C	1.189573	-0.218572	0.391194
C120	C	1.522906	0.114761	0.724528
C121	C	1.075242	0.119370	0.072675
C122	C	1.408575	0.452704	0.406008
C123	C	1.741908	0.786037	0.739342
C124	C	1.162737	0.121358	0.078584
C125	C	1.496070	0.454691	0.411918
C126	C	1.829403	0.788025	0.745251
C127	C	0.925582	0.290420	0.062550
C128	C	1.258916	0.623753	0.395883
C129	C	1.592249	0.957086	0.729216
C130	C	0.927248	0.390505	0.062656
C131	C	1.260581	0.723838	0.395989
C132	C	1.593914	1.057171	0.729323
N133	N	0.920797	0.137403	0.278572
N134	N	1.254130	0.470736	0.611906
N135	N	1.587463	0.804069	0.945239
N136	N	0.941519	0.113805	-0.152699
N137	N	1.274852	0.447138	0.180635
N138	N	1.608185	0.780472	0.513968
C139	C	0.972238	0.078652	0.325747
C140	C	1.305571	0.411985	0.659080
C141	C	1.638905	0.745318	0.992414
C142	C	0.968065	0.083422	0.412872
C143	C	1.301398	0.416756	0.746205
C144	C	1.634732	0.750089	1.079538
C145	C	0.912455	0.146949	0.452820
C146	C	1.245788	0.480282	0.786153
C147	C	1.579121	0.813615	1.119486
C148	C	0.861008	0.205702	0.405638
C149	C	1.194341	0.539035	0.738972
C150	C	1.527675	0.872369	1.072305
C151	C	0.865178	0.200927	0.318515
C152	C	1.198511	0.534260	0.651849
C153	C	1.531844	0.867593	0.985182
C154	C	0.894242	0.167783	0.712997
C155	C	1.227575	0.501116	1.046330
C156	C	1.560908	0.834450	1.379664
C157	C	0.890077	0.172556	0.800126
C158	C	1.223411	0.505889	1.133460
C159	C	1.556744	0.839222	1.466793
C160	C	0.997134	0.050274	0.807353
C161	C	1.330467	0.383608	1.140687
C162	C	1.663801	0.716941	1.474020
C163	C	1.001302	0.045508	0.720229
C164	C	1.334635	0.378841	1.053562
C165	C	1.667969	0.712175	1.386895
C166	C	0.949853	0.104258	0.673055
C167	C	1.283186	0.437592	1.006388
C168	C	1.616519	0.770925	1.339721
N169	N	0.908190	0.151828	0.541875
N170	N	1.241523	0.485162	0.875208
N171	N	1.574856	0.818495	1.208542
N172	N	0.954114	0.099374	0.584001
N173	N	1.287448	0.432707	0.917334
N174	N	1.620781	0.766040	1.250668
H175	H	0.536226	0.133749	0.173572
H176	H	0.869559	0.467082	0.506906
H177	H	1.202892	0.800415	0.840239
C178	C	0.706967	-0.440370	0.047793
C179	C	1.040300	-0.107036	0.381126
C180	C	1.373634	0.226297	0.714459
N181	N	0.646845	-0.470580	0.043735
N182	N	0.980178	-0.137246	0.377068
N183	N	1.313511	0.196087	0.710401
C184	C	0.338867	0.116513	-0.068481
C185	C	0.672200	0.449847	0.264852
C186	C	1.005534	0.783180	0.598186
N187	N	0.375920	0.113853	-0.128700
N188	N	0.709253	0.447187	0.204633
N189	N	1.042586	0.780520	0.537967
C190	C	0.696068	0.138621	0.206007
C191	C	1.029402	0.471954	0.539340
C192	C	1.362735	0.805287	0.872673
N193	N	0.727115	0.142814	0.270826
N194	N	1.060448	0.476147	0.604159
N195	N	1.393782	0.809481	0.937493
C196	C	1.053718	-0.014354	0.859251
C197	C	1.387051	0.318980	1.192584
C198	C	1.720385	0.652313	1.525918
N199	N	1.096337	-0.063037	0.898341
N200	N	1.429670	0.270296	1.231674
N201	N	1.763003	0.603629	1.565007
H202	H	0.823288	0.248767	0.280106
H203	H	1.156621	0.582100	0.613439
H204	H	1.489954	0.915433	0.946773
C205	C	0.799828	0.275574	0.449584
C206	C	1.133162	0.608907	0.782917
C207	C	1.466495	0.942240	1.116251
N208	N	0.753746	0.328202	0.482683
N209	N	1.087079	0.661535	0.816016
N210	N	1.420413	0.994869	1.149350
H211	H	1.009952	0.035582	0.451281
H212	H	1.343285	0.368916	0.784614
H213	H	1.676619	0.702249	1.117948
C214	C	0.776406	-0.591988	0.052466
C215	C	1.109739	-0.258655	0.385799
C216	C	1.443072	0.074679	0.719133
N217	N	0.716274	-0.622177	0.048401
N218	N	1.049608	-0.288844	0.381734
N219	N	1.382941	0.044489	0.715068
H220	H	1.134593	-0.318836	0.076724
H221	H	1.467926	0.014497	0.410057
H222	H	1.801260	0.347830	0.743391
C223	C	1.033414	0.008767	0.281812
C224	C	1.366747	0.342100	0.615146
C225	C	1.700081	0.675433	0.948479
N226	N	1.079491	-0.043876	0.248723
N227	N	1.412825	0.289458	0.582057
N228	N	1.746158	0.622791	0.915390
H229	H	0.312940	0.132429	0.226064
H230	H	0.646273	0.465762	0.559398
H231	H	0.979607	0.799095	0.892731
H232	H	0.163793	0.129029	0.215984
H233	H	0.497127	0.462362	0.549317
H234	H	0.830460	0.795696	0.882651
H235	H	0.804676	-0.128839	0.054410
H236	H	1.138009	0.204494	0.387743
H237	H	1.471343	0.537828	0.721077
C238	C	0.166236	0.112592	-0.080144
C239	C	0.499569	0.445925	0.253190
C240	C	0.832902	0.779259	0.586523
N241	N	0.135182	0.108395	-0.144959
N242	N	0.468516	0.441728	0.188374
N243	N	0.801849	0.775062	0.521707
C244	C	1.085889	-0.156794	0.073401
C245	C	1.419223	0.176540	0.406734
C246	C	1.752556	0.509873	0.740068
N247	N	1.146014	-0.126590	0.077472
N248	N	1.479348	0.206743	0.410805
N249	N	1.812681	0.540076	0.744139
C250	C	0.538655	0.117328	-0.122554
C251	C	0.871989	0.450662	0.210780
C252	C	1.205322	0.783995	0.544113
N253	N	0.507600	0.113131	-0.187368
N254	N	0.840933	0.446465	0.145965
N255	N	1.174266	0.779798	0.479299
H256	H	1.046584	-0.006220	0.687705
H257	H	1.379918	0.327113	1.021038
H258	H	1.713251	0.660447	1.354372
C259	C	0.828897	0.242440	0.844067
C260	C	1.162230	0.575773	1.177400
C261	C	1.495563	0.909107	1.510734
N262	N	0.782818	0.295075	0.877163
N263	N	1.116151	0.628408	1.210497
N264	N	1.449484	0.961741	1.543830
H265	H	0.730544	-0.259327	0.049395
H266	H	1.063877	0.074006	0.382728
H267	H	1.397211	0.407339	0.716061
H268	H	1.131777	-0.489450	0.076471
H269	H	1.465110	-0.156116	0.409804
H270	H	1.798443	0.177217	0.743137
C271	C	0.711295	0.121272	-0.110892
C272	C	1.044629	0.454605	0.222442
C273	C	1.377962	0.787938	0.555775
N274	N	0.748351	0.118627	-0.171107
N275	N	1.081685	0.451960	0.162226
N276	N	1.415018	0.785293	0.495559
C277	C	0.837748	0.232528	0.661124
C278	C	1.171081	0.565861	0.994457
C279	C	1.504414	0.899195	1.327790
N280	N	0.795230	0.281339	0.622052
N281	N	1.128564	0.614672	0.955386
N282	N	1.461897	0.948005	1.288719
C283	C	1.077925	-0.636398	0.072826
C284	C	1.411259	-0.303065	0.406159
C285	C	1.744592	0.030269	0.739493
N286	N	1.136761	-0.684112	0.076795
N287	N	1.470094	-0.350779	0.410128
N288	N	1.803427	-0.017445	0.743462
