data_functionalizedCrystal
_audit_creation_method	'MofGen! by Chris Wilmer'
_symmetry_space_group_name_H-M	'P1'
_symmetry_Int_Tables_number	1
_symmetry_cell_setting	triclinic
loop_
_symmetry_equiv_pos_as_xyz
  x,y,z
_cell_length_a	11.792241
_cell_length_b	9.730223
_cell_length_c	11.792254
_cell_angle_alpha	89.997024
_cell_angle_beta	84.196007
_cell_angle_gamma	90.000407
loop_
_atom_site_label
_atom_site_type_symbol
_atom_site_fract_x
_atom_site_fract_y
_atom_site_fract_z
O1	O	-1.506916	0.114136	-0.155564
O2	O	-1.176576	0.114173	-0.171597
O3	O	-1.349755	0.114144	0.001589
O4	O	-1.333737	0.114165	-0.328750
O5	O	-1.349739	-0.114436	0.001588
O6	O	-1.176560	-0.114407	-0.171598
O7	O	-1.506900	-0.114443	-0.155565
Zn8	Zn	-1.341728	-0.150717	-0.163581
Zn9	Zn	-1.341748	0.150447	-0.163580
O10	O	-1.333721	-0.114415	-0.328751
C11	C	-1.134277	-0.000112	-0.170590
C12	C	-1.008263	-0.000099	-0.167576
N13	N	-1.341722	-0.356254	-0.163581
C14	C	-1.265029	-0.428202	-0.240234
C15	C	-1.265051	-0.572085	-0.240232
C16	C	-1.418465	-0.572058	-0.086914
C17	C	-1.418447	-0.428178	-0.086923
C18	C	-1.188304	-0.356278	-0.316893
C19	C	-1.111603	-0.428226	-0.393551
C20	C	-1.111626	-0.572109	-0.393549
C21	C	-1.188349	-0.644044	-0.316888
C22	C	-0.777551	-0.000135	-0.162033
C23	C	-0.905936	-0.000115	-0.165112
C24	C	-0.549199	-0.000152	-0.156571
C25	C	-0.675213	-0.000146	-0.159586
C26	C	-1.348738	-0.000145	0.043880
C27	C	-1.345718	-0.000144	0.169893
N28	N	-1.341763	0.355983	-0.163571
C29	C	-1.334738	-0.000122	-0.371041
C30	C	-1.337758	-0.000115	-0.497054
C31	C	-1.343264	-0.000138	0.272229
C32	C	-1.340196	-0.000126	0.400616
H33	H	-1.049144	-0.369650	-0.455972
C34	C	-1.027263	-0.651257	-0.477871
C35	C	-0.942874	-0.572140	-0.562190
C36	C	-0.858504	-0.651285	-0.646510
C37	C	-0.858524	-0.809548	-0.646512
C38	C	-0.942917	-0.888674	-0.562190
C39	C	-1.027287	-0.809529	-0.477869
H40	H	-0.942856	-0.454976	-0.562191
H41	H	-0.796031	-0.592710	-0.708931
H42	H	-0.796068	-0.868136	-0.708931
H43	H	-0.942935	-1.005837	-0.562188
H44	H	-1.089760	-0.868104	-0.415448
C45	C	-1.502808	-0.349027	-0.002601
C46	C	-1.587190	-0.428140	0.081728
C47	C	-1.671557	-0.348990	0.166048
C48	C	-1.671542	-0.190728	0.166038
C49	C	-1.587157	-0.111606	0.081706
C50	C	-1.502790	-0.190756	-0.002614
H51	H	-1.587204	-0.545304	0.081738
H52	H	-1.734025	-0.407562	0.228477
H53	H	-1.733996	-0.132136	0.228457
H54	H	-1.587143	0.005558	0.081695
H55	H	-1.440322	-0.132183	-0.065043
H56	H	-1.188276	-0.239121	-0.316899
H57	H	-1.188369	-0.761203	-0.316901
H58	H	-1.480929	-0.630637	-0.024500
