data_functionalizedCrystal
_audit_creation_method	'MofGen! by Chris Wilmer'
_symmetry_space_group_name_H-M	'P1'
_symmetry_Int_Tables_number	1
_symmetry_cell_setting	triclinic
loop_
_symmetry_equiv_pos_as_xyz
  x,y,z
_cell_length_a	9.065215
_cell_length_b	9.065218
_cell_length_c	7.540329
_cell_angle_alpha	89.999725
_cell_angle_beta	89.998457
_cell_angle_gamma	85.015291
loop_
_atom_site_label
_atom_site_type_symbol
_atom_site_fract_x
_atom_site_fract_y
_atom_site_fract_z
O1	O	1.960399	0.216331	-0.147454
O2	O	2.460399	0.716331	0.352546
O3	O	1.531114	0.234082	-0.147461
O4	O	2.031114	0.734082	0.352539
O5	O	1.754630	0.010564	-0.147454
O6	O	2.254630	0.510564	0.352546
O7	O	1.736883	0.439849	-0.147461
O8	O	2.236883	0.939849	0.352539
O9	O	1.754620	0.010567	0.147511
O10	O	2.254620	0.510567	0.647511
O11	O	1.531104	0.234085	0.147504
O12	O	2.031104	0.734085	0.647504
O13	O	1.960389	0.216334	0.147511
O14	O	2.460389	0.716334	0.647511
Cu15	Cu	1.745745	0.225210	0.174440
Cu16	Cu	2.245745	0.725210	0.674440
Cu17	Cu	1.745757	0.225206	-0.174390
Cu18	Cu	2.245757	0.725206	0.325610
O19	O	1.736873	0.439852	0.147504
O20	O	2.236873	0.939852	0.647504
C21	C	1.476122	0.232379	0.000020
C22	C	1.976122	0.732379	0.500020
C23	C	1.312279	0.227281	0.000017
C24	C	1.812279	0.727281	0.500017
C25	C	1.752919	-0.044421	0.000026
C26	C	2.252919	0.455579	0.500026
C27	C	1.747819	-0.208264	0.000017
C28	C	2.247819	0.291736	0.500017
C29	C	2.015381	0.218038	0.000026
C30	C	2.515381	0.718038	0.500026
C31	C	2.179224	0.223136	0.000017
C32	C	2.679224	0.723136	0.500017
C33	C	1.738584	0.494837	0.000020
C34	C	2.238584	0.994837	0.500020
C35	C	1.743683	0.658680	0.000017
C36	C	2.243683	1.158680	0.500017
N37	N	1.745748	0.225212	0.419789
N38	N	2.245748	0.725212	0.919789
N39	N	1.745759	0.225210	0.580261
N40	N	2.245759	0.725210	1.080261
