data_functionalizedCrystal
_audit_creation_method	'MofGen! by Chris Wilmer'
_symmetry_space_group_name_H-M	'P1'
_symmetry_Int_Tables_number	1
_symmetry_cell_setting	triclinic
loop_
_symmetry_equiv_pos_as_xyz
  x,y,z
_cell_length_a	27.271600
_cell_length_b	9.582889
_cell_length_c	9.582860
_cell_angle_alpha	90.099987
_cell_angle_beta	111.206448
_cell_angle_gamma	68.793019
loop_
_atom_site_label
_atom_site_type_symbol
_atom_site_fract_x
_atom_site_fract_y
_atom_site_fract_z
V1	V	-1.039084	0.466308	-0.206406
O2	O	-1.025084	0.457713	0.010588
O3	O	-1.036610	0.462847	-0.409911
O4	O	-1.036611	0.669814	-0.202946
O5	O	-1.025083	0.249314	-0.197810
V6	V	-1.157495	0.440384	-0.180482
O7	O	-1.109813	0.523167	-0.263265
O8	O	-1.199314	0.383523	-0.123620
O9	O	-1.104167	0.443846	0.023022
O10	O	-1.200844	0.448978	-0.397475
O11	O	-1.200845	0.657377	-0.189077
O12	O	-1.104166	0.236879	-0.183943
V13	V	-0.907493	0.440389	-0.180487
O14	O	-0.921493	0.657383	-0.189083
O15	O	-0.909965	0.236883	-0.183946
O16	O	-0.909966	0.443850	0.023019
O17	O	-0.921492	0.448984	-0.397481
V18	V	-0.789081	0.466313	-0.206411
O19	O	-0.836763	0.383530	-0.123628
O20	O	-0.747262	0.523174	-0.263272
O21	O	-0.842410	0.669818	-0.202950
O22	O	-0.745732	0.249320	-0.197816
O23	O	-0.745733	0.457719	0.010582
O24	O	-0.842409	0.462851	-0.409915
C25	C	-0.946684	0.187263	-0.191373
C26	C	-0.928321	0.020898	-0.192849
V27	V	-1.289082	0.466303	-0.206401
O28	O	-1.275083	0.457708	0.010593
O29	O	-1.286609	0.462842	-0.409906
O30	O	-1.286610	0.669809	-0.202941
O31	O	-1.275082	0.249309	-0.197805
V32	V	-1.407494	0.440379	-0.180477
O33	O	-1.359812	0.523162	-0.263260
O34	O	-1.449313	0.383518	-0.123615
O35	O	-1.354166	0.443841	0.023027
O36	O	-1.450843	0.448973	-0.397470
O37	O	-1.450843	0.657372	-0.189072
O38	O	-1.354165	0.236874	-0.183938
V39	V	-0.657493	0.440389	-0.180487
O40	O	-0.671492	0.657382	-0.189082
O41	O	-0.659967	0.236886	-0.183949
O42	O	-0.659968	0.443852	0.023016
O43	O	-0.671491	0.448983	-0.397479
V44	V	-0.539079	0.466303	-0.206401
O45	O	-0.586763	0.383526	-0.123623
O46	O	-0.497257	0.523160	-0.263258
O47	O	-0.592406	0.669810	-0.202942
O48	O	-0.495730	0.249308	-0.197804
O49	O	-0.495731	0.457708	0.010593
O50	O	-0.592406	0.462843	-0.409907
C51	C	-0.999891	0.455421	-0.459531
C52	C	-1.018254	0.453948	-0.625897
C53	C	-0.889855	0.719428	-0.195526
C54	C	-0.913409	0.885793	-0.194042
C55	C	-1.056723	0.451269	0.072633
C56	C	-1.033169	0.452753	0.238997
C57	C	-0.999892	0.719426	-0.195525
C58	C	-1.018255	0.885791	-0.194043
C59	C	-1.056722	0.187261	-0.191371
C60	C	-1.033168	0.020895	-0.192845
C61	C	-0.946686	0.451273	0.072630
C62	C	-0.928324	0.452759	0.238995
C63	C	-0.889854	0.455426	-0.459534
C64	C	-0.913409	0.453959	-0.625901
C65	C	-1.249890	0.455416	-0.459526
C66	C	-1.268253	0.453943	-0.625892
C67	C	-1.249890	0.719421	-0.195520
C68	C	-1.268253	0.885786	-0.194038
C69	C	-1.306721	0.451264	0.072638
C70	C	-1.283168	0.452748	0.239002
C71	C	-1.306720	0.187256	-0.191366
C72	C	-1.283167	0.020890	-0.192840
C73	C	-0.696688	0.187269	-0.191379
C74	C	-0.678325	0.020903	-0.192855
C75	C	-0.696689	0.451278	0.072625
C76	C	-0.678329	0.452765	0.238989
C77	C	-0.639852	0.719424	-0.195522
C78	C	-0.663404	0.885788	-0.194038
C79	C	-0.639851	0.455421	-0.459529
C80	C	-0.663404	0.453955	-0.625897
