data_functionalizedCrystal
_audit_creation_method	'MofGen! by Chris Wilmer'
_symmetry_space_group_name_H-M	'P1'
_symmetry_Int_Tables_number	1
_symmetry_cell_setting	triclinic
loop_
_symmetry_equiv_pos_as_xyz
  x,y,z
_cell_length_a	23.532361
_cell_length_b	23.532407
_cell_length_c	17.666332
_cell_angle_alpha	89.988854
_cell_angle_beta	89.994922
_cell_angle_gamma	82.839173
loop_
_atom_site_label
_atom_site_type_symbol
_atom_site_fract_x
_atom_site_fract_y
_atom_site_fract_z
O1	O	0.755281	0.069009	-0.062880
O2	O	1.255281	0.569009	0.437120
O3	O	0.589413	0.079040	-0.062899
O4	O	1.089413	0.579040	0.437101
O5	O	0.677349	-0.008908	-0.062875
O6	O	1.177349	0.491092	0.437125
O7	O	0.667345	0.156957	-0.062904
O8	O	1.167345	0.656957	0.437096
O9	O	0.677333	-0.008912	0.063022
O10	O	1.177333	0.491088	0.563022
O11	O	0.589398	0.079036	0.062997
O12	O	1.089398	0.579036	0.562997
O13	O	0.755265	0.069005	0.063017
O14	O	1.255265	0.569005	0.563017
Cu15	Cu	0.672330	0.074020	0.074502
Cu16	Cu	1.172330	0.574020	0.574502
Cu17	Cu	0.672348	0.074025	-0.074385
Cu18	Cu	1.172348	0.574025	0.425615
O19	O	0.667330	0.156953	0.062993
O20	O	1.167330	0.656953	0.562993
C21	C	0.568189	0.078787	0.000047
C22	C	1.068189	0.578787	0.500047
C23	C	0.504971	0.078032	0.000040
C24	C	1.004971	0.578032	0.500040
C25	C	0.677086	-0.030126	0.000075
C26	C	1.177086	0.469874	0.500075
C27	C	0.676320	-0.093343	0.000081
C28	C	1.176320	0.406657	0.500081
C29	C	0.231735	0.074731	-0.068581
C30	C	0.731735	0.574731	0.431419
C31	C	0.291135	0.075446	-0.068583
C32	C	0.791135	0.575446	0.431417
O33	O	0.321868	0.075798	-0.126946
O34	O	0.821868	0.575798	0.373054
N35	N	0.320832	0.075804	0.000043
N36	N	0.820832	0.575804	0.500043
C37	C	0.291128	0.075442	0.068676
C38	C	0.791128	0.575442	0.568676
O39	O	0.321842	0.075812	0.127048
O40	O	0.821842	0.575812	0.627048
C41	C	0.231730	0.074723	0.068678
C42	C	0.731730	0.574723	0.568678
C43	C	0.202035	0.074370	0.000047
C44	C	0.702035	0.574370	0.500047
C45	C	0.202040	0.074377	-0.137207
C46	C	0.702040	0.574377	0.362793
C47	C	0.142645	0.073663	-0.137204
C48	C	0.642645	0.573663	0.362796
C49	C	0.112944	0.073303	-0.068577
C50	C	0.612944	0.573303	0.431423
C51	C	0.142639	0.073657	0.000049
C52	C	0.642639	0.573657	0.500049
C53	C	0.202027	0.074357	0.137310
C54	C	0.702027	0.574357	0.637310
C55	C	0.142624	0.073637	0.137305
C56	C	0.642624	0.573637	0.637305
C57	C	0.112929	0.073285	0.068674
C58	C	0.612929	0.573285	0.568674
C59	C	0.053542	0.072582	0.068679
C60	C	0.553542	0.572582	0.568679
N61	N	0.023845	0.072224	0.000052
N62	N	0.523845	0.572224	0.500052
C63	C	0.053546	0.072584	-0.068575
C64	C	0.553546	0.572584	0.431425
C65	C	0.415868	0.076951	0.068669
C66	C	0.915868	0.576951	0.568669
C67	C	0.475264	0.077674	0.068668
C68	C	0.975264	0.577674	0.568668
C69	C	0.475268	0.077677	-0.068592
C70	C	0.975268	0.577677	0.431408
C71	C	0.415870	0.076958	-0.068590
C72	C	0.915870	0.576958	0.431410
C73	C	0.386171	0.076593	0.000042
C74	C	0.886171	0.576593	0.500042
C75	C	-0.071190	0.071086	-0.068565
C76	C	0.428810	0.571086	0.431435
C77	C	-0.130591	0.070374	-0.068557
C78	C	0.369409	0.570374	0.431443
C79	C	-0.130589	0.070369	0.068702
C80	C	0.369411	0.570369	0.568702
C81	C	-0.071193	0.071083	0.068694
C82	C	0.428807	0.571083	0.568694
C83	C	-0.041495	0.071440	0.000054
C84	C	0.458505	0.571440	0.500054
O85	O	0.022772	0.072227	0.127012
O86	O	0.522772	0.572227	0.627012
O87	O	0.022825	0.072206	-0.126938
O88	O	0.522825	0.572206	0.373062
C89	C	0.723555	-0.492454	0.000045
C90	C	1.223555	0.007546	0.500045
C91	C	0.722844	-0.551854	0.000039
C92	C	1.222844	-0.051854	0.500039
O93	O	0.766630	-0.588606	0.000016
O94	O	1.266630	-0.088606	0.500016
N95	N	0.670566	-0.574471	0.000033
N96	N	1.170566	-0.074471	0.500033
C97	C	0.618997	-0.537685	0.000026
C98	C	1.118997	-0.037685	0.500026
O99	O	0.574465	-0.562377	0.000020
O100	O	1.074465	-0.062377	0.500020
C101	C	0.619709	-0.478286	0.000026
C102	C	1.119709	0.021714	0.500026
C103	C	0.671990	-0.455672	0.000040
C104	C	1.171990	0.044328	0.500040
C105	C	0.775832	-0.469839	0.000057
C106	C	1.275832	0.030161	0.500057
C107	C	0.776543	-0.410443	0.000064
C108	C	1.276543	0.089557	0.500064
C109	C	0.724977	-0.373662	0.000059
C110	C	1.224977	0.126338	0.500059
C111	C	0.672701	-0.396276	0.000047
C112	C	1.172701	0.103724	0.500047
C113	C	0.568140	-0.441501	0.000014
C114	C	1.068140	0.058499	0.500014
C115	C	0.568857	-0.382099	0.000014
C116	C	1.068857	0.117901	0.500014
C117	C	0.621137	-0.359485	0.000027
C118	C	1.121137	0.140515	0.500027
C119	C	0.621847	-0.300099	0.000049
C120	C	1.121847	0.199901	0.500049
N121	N	0.674124	-0.277481	0.000055
N122	N	1.174124	0.222519	0.500055
C123	C	0.725690	-0.314263	0.000060
C124	C	1.225690	0.185737	0.500060
C125	C	0.617505	-0.662427	0.000024
C126	C	1.117505	-0.162427	0.500024
C127	C	0.616793	-0.721825	0.000029
C128	C	1.116793	-0.221825	0.500029
C129	C	0.720640	-0.735990	0.000040
C130	C	1.220640	-0.235990	0.500040
C131	C	0.721352	-0.676591	0.000041
C132	C	1.221352	-0.176591	0.500041
C133	C	0.669783	-0.639810	0.000029
C134	C	1.169783	-0.139810	0.500029
C135	C	0.727179	-0.189526	0.000076
C136	C	1.227179	0.310474	0.500076
C137	C	0.727886	-0.130124	0.000086
C138	C	1.227886	0.369876	0.500086
C139	C	0.624039	-0.115965	0.000070
C140	C	1.124039	0.384035	0.500070
C141	C	0.623332	-0.175361	0.000064
C142	C	1.123332	0.324639	0.500064
C143	C	0.674907	-0.212141	0.000064
C144	C	1.174907	0.287859	0.500064
O145	O	0.578083	-0.263312	0.000069
O146	O	1.078083	0.236688	0.500069
O147	O	0.770214	-0.289562	0.000056
O148	O	1.270214	0.210438	0.500056
C149	C	0.776489	0.069258	0.000069
C150	C	1.276489	0.569258	0.500069
C151	C	0.839708	0.070014	0.000071
C152	C	1.339708	0.570014	0.500071
C153	C	0.667592	0.178171	0.000041
C154	C	1.167592	0.678171	0.500041
C155	C	0.668358	0.241388	0.000030
C156	C	1.168358	0.741388	0.500030
N157	N	0.672322	0.074016	0.179222
N158	N	1.172322	0.574016	0.679222
N159	N	0.672362	0.074025	-0.179104
N160	N	1.172362	0.574025	0.320896
C161	C	0.711272	0.035091	0.218842
C162	C	1.211272	0.535091	0.718842
C163	C	0.711275	0.035088	0.298090
C164	C	1.211275	0.535088	0.798090
C165	C	0.672334	0.074020	0.337714
C166	C	1.172334	0.574020	0.837714
C167	C	0.633376	0.112948	0.298084
C168	C	1.133376	0.612948	0.798084
C169	C	0.633370	0.112945	0.218838
C170	C	1.133370	0.612945	0.718838
N171	N	0.664799	0.124456	0.462123
N172	N	1.164799	0.624456	0.962123
N173	N	0.664808	0.124456	0.537404
N174	N	1.164808	0.624456	1.037404
C175	C	0.672349	0.074028	0.576478
C176	C	1.172349	0.574028	1.076478
N177	N	0.679891	0.023598	0.537428
N178	N	1.179891	0.523598	1.037428
N179	N	0.679885	0.023598	0.462140
N180	N	1.179885	0.523598	0.962140
C181	C	0.672336	0.074026	0.423643
C182	C	1.172336	0.574026	0.923643
C183	C	0.711305	0.035097	0.702028
C184	C	1.211305	0.535097	1.202028
C185	C	0.711304	0.035094	0.781277
C186	C	1.211304	0.535094	1.281277
C187	C	0.633408	0.112958	0.781270
C188	C	1.133408	0.612958	1.281270
C189	C	0.633406	0.112956	0.702022
C190	C	1.133406	0.612956	1.202022
C191	C	0.672357	0.074027	0.662406
C192	C	1.172357	0.574027	1.162406
H193	H	-0.154767	0.070088	-0.124447
H194	H	0.345233	0.570088	0.375553
H195	H	0.391690	0.076661	0.124561
H196	H	0.891690	0.576661	0.624561
H197	H	0.819115	-0.392037	0.000072
H198	H	1.319115	0.107963	0.500072
H199	H	0.575509	-0.632483	0.000021
H200	H	1.075509	-0.132483	0.500021
O201	O	0.770747	-0.771703	0.000172
O202	O	1.270747	-0.271703	0.500172
C203	C	0.802513	-0.761507	0.065367
C204	C	1.302513	-0.261507	0.565367
H205	H	0.772329	-0.741038	0.110942
H206	H	1.272329	-0.241038	0.610942
H207	H	0.835308	-0.731449	0.050630
H208	H	1.335308	-0.231449	0.550630
C209	C	0.870760	-0.843764	0.038951
C210	C	1.370760	-0.343764	0.538951
C211	C	0.833686	-0.818628	0.094929
C212	C	1.333686	-0.318628	0.594929
H213	H	0.889991	-0.878998	0.057185
H214	H	1.389991	-0.378998	0.557185
H215	H	0.849360	-0.850633	-0.004974
H216	H	1.349360	-0.350633	0.495026
H217	H	0.898084	-0.818710	0.026675
H218	H	1.398084	-0.318710	0.526675
H219	H	0.806359	-0.843679	0.107197
H220	H	1.306359	-0.343679	0.607197
H221	H	0.855082	-0.811765	0.138857
H222	H	1.355082	-0.311765	0.638857
O223	O	0.595630	0.150852	0.663566
O224	O	1.095630	0.650852	1.163566
C225	C	0.604559	0.207182	0.682928
C226	C	1.104559	0.707182	1.182928
H227	H	0.650156	0.207220	0.704700
H228	H	1.150156	0.707220	1.204700
H229	H	0.572902	0.224076	0.728931
H230	H	1.072902	0.724076	1.228931
C231	C	0.539482	0.245794	0.585782
C232	C	1.039482	0.745794	1.085782
C233	C	0.595486	0.245841	0.612517
C234	C	1.095486	0.745841	1.112517
H235	H	0.533883	0.269642	0.542351
H236	H	1.033883	0.769642	1.042351
H237	H	0.533464	0.207844	0.572739
H238	H	1.033464	0.707844	1.072739
H239	H	0.513108	0.259871	0.624124
H240	H	1.013108	0.759871	1.124124
H241	H	0.621859	0.231758	0.574179
H242	H	1.121859	0.731758	1.074179
H243	H	0.601509	0.283790	0.625552
H244	H	1.101509	0.783790	1.125552
O245	O	0.749080	-0.002783	0.663548
O246	O	1.249080	0.497217	1.163548
C247	C	0.740175	-0.059126	0.682907
C248	C	1.240175	0.440874	1.182907
H249	H	0.694589	-0.059187	0.704717
H250	H	1.194589	0.440813	1.204717
H251	H	0.771853	-0.076031	0.728881
H252	H	1.271853	0.423969	1.228881
C253	C	0.805223	-0.097677	0.585701
C254	C	1.305223	0.402323	1.085701
C255	C	0.749232	-0.097753	0.612483
C256	C	1.249232	0.402247	1.112483
H257	H	0.810813	-0.121506	0.542262
H258	H	1.310813	0.378494	1.042262
H259	H	0.811225	-0.059718	0.572660
H260	H	1.311225	0.440282	1.072660
H261	H	0.831616	-0.111763	0.624019
H262	H	1.331616	0.388237	1.124019
H263	H	0.722841	-0.083660	0.574168
H264	H	1.222841	0.416340	1.074168
H265	H	0.743226	-0.135711	0.625516
H266	H	1.243226	0.364289	1.125516
O267	O	0.518776	-0.346347	-0.000130
O268	O	1.018776	0.153653	0.499870
C269	C	0.516095	-0.311542	-0.065320
C270	C	1.016095	0.188458	0.434680
H271	H	0.545353	-0.333452	-0.110889
H272	H	1.045353	0.166548	0.389111
H273	H	0.530578	-0.268429	-0.050571
H274	H	1.030578	0.231571	0.449429
C275	C	0.418142	-0.275254	-0.038928
C276	C	0.918142	0.224746	0.461072
C277	C	0.454074	-0.302167	-0.094899
C278	C	0.954074	0.197833	0.405101
H279	H	0.379884	-0.269469	-0.057173
H280	H	0.879884	0.230531	0.442827
H281	H	0.419948	-0.298701	0.004994
H282	H	0.919948	0.201299	0.504994
H283	H	0.430218	-0.239330	-0.026642
H284	H	0.930218	0.260670	0.473358
H285	H	0.442002	-0.338094	-0.107177
H286	H	0.942002	0.161906	0.392823
H287	H	0.452264	-0.278726	-0.138824
H288	H	0.952264	0.221274	0.361176
H289	H	0.601699	0.144654	0.813531
H290	H	1.101699	0.644654	1.313531
O291	O	0.574003	-0.080149	0.000031
O292	O	1.074003	0.419851	0.500031
C293	C	0.585848	-0.022875	0.000055
C294	C	1.085848	0.477125	0.500055
H295	H	0.630574	-0.020853	-0.023768
H296	H	1.130574	0.479147	0.476232
H297	H	0.583579	-0.005691	0.060454
H298	H	1.083579	0.494309	0.560454
C299	C	0.486501	0.011262	-0.020069
C300	C	0.986501	0.511262	0.479931
C301	C	0.541433	0.013746	-0.049334
C302	C	1.041433	0.513746	0.450666
H303	H	0.459103	0.033853	-0.050531
H304	H	0.959103	0.533853	0.449469
H305	H	0.478520	-0.027324	-0.020082
H306	H	0.978520	0.472676	0.479918
H307	H	0.484618	0.025581	0.030263
H308	H	0.984618	0.525581	0.530263
H309	H	0.543317	-0.000579	-0.099661
H310	H	1.043317	0.499421	0.400339
H311	H	0.549413	0.052331	-0.049330
H312	H	1.049413	0.552331	0.450670
O313	O	0.749165	-0.002642	0.819851
O314	O	1.249165	0.497358	1.319851
C315	C	0.784132	0.027680	0.865661
C316	C	1.284132	0.527680	1.365661
H317	H	0.761191	0.072363	0.877524
H318	H	1.261191	0.572363	1.377524
H319	H	0.826198	0.031333	0.835112
H320	H	1.326198	0.531333	1.335112
C321	C	0.824669	-0.059374	0.926374
C322	C	1.324669	0.440626	1.426374
C323	C	0.796490	-0.004494	0.940950
C324	C	1.296490	0.495506	1.440950
H325	H	0.832294	-0.079221	0.972814
H326	H	1.332294	0.420779	1.472814
H327	H	0.801112	-0.079803	0.895509
H328	H	1.301112	0.420197	1.395509
H329	H	0.859721	-0.056322	0.900915
H330	H	1.359721	0.443678	1.400915
H331	H	0.761436	-0.007547	0.966400
H332	H	1.261436	0.492453	1.466400
H333	H	0.820041	0.015933	0.971821
H334	H	1.320041	0.515933	1.471821
H335	H	0.118473	0.073374	-0.193091
H336	H	0.618473	0.573374	0.306909
H337	H	0.770461	-0.111716	0.000099
H338	H	1.270461	0.388284	0.500099
H339	H	-0.047017	0.071377	-0.124459
H340	H	0.452983	0.571377	0.375541
H341	H	0.601669	0.144645	0.330350
H342	H	1.101669	0.644645	0.830350
H343	H	0.226217	0.074669	-0.193095
H344	H	0.726217	0.574669	0.306905
H345	H	0.763923	-0.658183	0.000051
H346	H	1.263923	-0.158183	0.500051
O347	O	0.230779	0.074670	0.204047
O348	O	0.730779	0.574670	0.704047
C349	C	0.191814	0.074208	0.264609
C350	C	0.691814	0.574208	0.764609
H351	H	0.151937	0.055669	0.244480
H352	H	0.651937	0.555669	0.744480
H353	H	0.179256	0.119826	0.285708
H354	H	0.679256	0.619826	0.785708
C355	C	0.269058	0.059896	0.354179
C356	C	0.769058	0.559896	0.854179
C357	C	0.220083	0.037121	0.329457
C358	C	0.720083	0.537121	0.829457
H359	H	0.286496	0.037021	0.394182
H360	H	0.786496	0.537021	0.894182
H361	H	0.295310	0.060209	0.313378
H362	H	0.795310	0.560209	0.813378
H363	H	0.258586	0.097910	0.371756
H364	H	0.758586	0.597910	0.871756
H365	H	0.230556	-0.000890	0.311872
H366	H	0.730556	0.499110	0.811872
H367	H	0.193834	0.036800	0.370257
H368	H	0.693834	0.536800	0.870257
O369	O	0.517338	-0.463430	-0.000138
O370	O	1.017338	0.036570	0.499862
C371	C	0.485938	-0.444574	-0.065340
C372	C	0.985938	0.055426	0.434660
H373	H	0.516529	-0.432390	-0.110902
H374	H	1.016529	0.067610	0.389098
H375	H	0.453982	-0.405674	-0.050605
H376	H	0.953982	0.094326	0.449395
C377	C	0.415910	-0.507948	-0.038963
C378	C	0.915910	-0.007948	0.461037
C379	C	0.453483	-0.492988	-0.094925
C380	C	0.953483	0.007012	0.405075
H381	H	0.395888	-0.537810	-0.057211
H382	H	0.895888	-0.037810	0.442789
H383	H	0.437064	-0.520650	0.004967
H384	H	0.937064	-0.020650	0.504967
H385	H	0.389285	-0.475527	-0.026688
H386	H	0.889285	0.024473	0.473312
H387	H	0.480112	-0.525407	-0.107191
H388	H	0.980112	-0.025407	0.392809
H389	H	0.432333	-0.480293	-0.138857
H390	H	0.932333	0.019707	0.361143
H391	H	0.499436	0.077971	0.124555
H392	H	0.999436	0.577971	0.624555
O393	O	0.749126	-0.002783	0.180478
O394	O	1.249126	0.497217	0.680478
C395	C	0.783514	-0.037130	0.232448
C396	C	1.283514	0.462870	0.732448
H397	H	0.760174	-0.037648	0.288944
H398	H	1.260174	0.462352	0.788944
H399	H	0.825715	-0.018858	0.240858
H400	H	1.325715	0.481142	0.740858
C401	C	0.824270	-0.097998	0.132152
C402	C	1.324270	0.402002	0.632152
C403	C	0.795600	-0.098637	0.201540
C404	C	1.295600	0.401363	0.701540
H405	H	0.831727	-0.135938	0.113085
H406	H	1.331727	0.364062	0.613085
H407	H	0.801103	-0.074856	0.097138
H408	H	1.301103	0.425144	0.597138
H409	H	0.859434	-0.082768	0.139169
H410	H	1.359434	0.417232	0.639169
H411	H	0.760433	-0.113860	0.194520
H412	H	1.260433	0.386140	0.694520
H413	H	0.818761	-0.121783	0.236552
H414	H	1.318761	0.378217	0.736552
H415	H	-0.154783	0.070078	0.124577
H416	H	0.345217	0.570078	0.624577
O417	O	0.749035	-0.002778	0.336626
O418	O	1.249035	0.497222	0.836626
C419	C	0.718741	-0.037743	0.382501
C420	C	1.218741	0.462257	0.882501
H421	H	0.673835	-0.038477	0.358627
H422	H	1.173835	0.461523	0.858627
H423	H	0.715653	-0.019895	0.442552
H424	H	1.215653	0.480105	0.942552
C425	C	0.805638	-0.098152	0.413066
C426	C	1.305638	0.401848	0.913066
C427	C	0.750485	-0.099058	0.383740
C428	C	1.250485	0.400942	0.883740
H429	H	0.825220	-0.135973	0.413834
H430	H	1.325220	0.364027	0.913834
H431	H	0.826049	-0.074594	0.382162
H432	H	1.326049	0.425406	0.882162
H433	H	0.803057	-0.083276	0.463106
H434	H	1.303057	0.416724	0.963106
H435	H	0.753067	-0.113927	0.333698
H436	H	1.253067	0.386073	0.833698
H437	H	0.730076	-0.122619	0.414636
H438	H	1.230076	0.377381	0.914636
H439	H	0.118446	0.073345	0.193195
H440	H	0.618446	0.573345	0.693195
H441	H	0.817825	-0.499782	0.000058
H442	H	1.317825	0.000218	0.500058
H443	H	0.601652	0.144643	0.186578
H444	H	1.101652	0.644643	0.686578
H445	H	-0.047016	0.071382	0.124579
H446	H	0.452984	0.571382	0.624579
H447	H	0.580761	-0.193774	0.000074
H448	H	1.080761	0.306226	0.500074
H449	H	0.391696	0.076670	-0.124476
H450	H	0.891696	0.576670	0.375524
O451	O	0.565957	-0.743694	-0.000009
O452	O	1.065957	-0.243694	0.499991
C453	C	0.520601	-0.698485	0.000009
C454	C	1.020601	-0.198485	0.500009
H455	H	0.536338	-0.658218	-0.023819
H456	H	1.036338	-0.158218	0.476181
H457	H	0.504705	-0.690000	0.060406
H458	H	1.004705	-0.190000	0.560406
C459	C	0.451942	-0.764415	-0.020106
C460	C	0.951942	-0.264415	0.479894
C461	C	0.471269	-0.714960	-0.049378
C462	C	0.971269	-0.214960	0.450622
H463	H	0.421511	-0.774578	-0.050567
H464	H	0.921511	-0.274578	0.449433
H465	H	0.482499	-0.794874	-0.020115
H466	H	0.982499	-0.294874	0.479885
H467	H	0.438699	-0.757338	0.030225
H468	H	0.938699	-0.257338	0.530225
H469	H	0.484518	-0.722040	-0.099705
H470	H	0.984518	-0.222040	0.400295
H471	H	0.440714	-0.684503	-0.049379
H472	H	0.940714	-0.184503	0.450621
O473	O	0.504086	0.078123	-0.135279
O474	O	1.004086	0.578123	0.364721
C475	C	0.482836	0.127270	-0.177055
C476	C	0.982836	0.627270	0.322945
H477	H	0.461795	0.161554	-0.136912
H478	H	0.961795	0.661554	0.363088
H479	H	0.449886	0.115701	-0.219848
H480	H	0.949886	0.615701	0.280152
C481	C	0.558397	0.108163	-0.268411
C482	C	1.058397	0.608163	0.231589
C483	C	0.532559	0.150274	-0.219106
C484	C	1.032559	0.650274	0.280894
H485	H	0.589068	0.122352	-0.294353
H486	H	1.089068	0.622352	0.205647
H487	H	0.572713	0.075050	-0.240268
H488	H	1.072713	0.575050	0.259732
H489	H	0.530933	0.098526	-0.304065
H490	H	1.030933	0.598526	0.195935
H491	H	0.560021	0.159905	-0.183447
H492	H	1.060021	0.659905	0.316553
H493	H	0.518249	0.183389	-0.247244
H494	H	1.018249	0.683389	0.252756
O495	O	0.777330	-0.225168	0.000112
O496	O	1.277330	0.274832	0.500112
C497	C	0.823618	-0.192460	0.000106
C498	C	1.323618	0.307540	0.500106
H499	H	0.808892	-0.148047	0.023941
H500	H	1.308892	0.351953	0.523941
H501	H	0.839668	-0.188307	-0.060289
H502	H	1.339668	0.311693	0.439711
C503	C	0.890478	-0.276883	0.020212
C504	C	1.390478	0.223117	0.520212
C505	C	0.872393	-0.222336	0.049492
C506	C	1.372393	0.277664	0.549492
H507	H	0.920566	-0.295313	0.050673
H508	H	1.420566	0.204687	0.550673
H509	H	0.859294	-0.298920	0.020213
H510	H	1.359294	0.201080	0.520213
H511	H	0.903849	-0.273415	-0.030117
H512	H	1.403849	0.226585	0.469883
H513	H	0.859015	-0.225805	0.099817
H514	H	1.359015	0.274195	0.599817
H515	H	0.903576	-0.200300	0.049501
H516	H	1.403576	0.299700	0.549501
