data_functionalizedCrystal
_audit_creation_method	'MofGen! by Chris Wilmer'
_symmetry_space_group_name_H-M	'P1'
_symmetry_Int_Tables_number	1
_symmetry_cell_setting	triclinic
loop_
_symmetry_equiv_pos_as_xyz
  x,y,z
_cell_length_a	16.120490
_cell_length_b	18.050589
_cell_length_c	16.120256
_cell_angle_alpha	92.877403
_cell_angle_beta	90.129807
_cell_angle_gamma	87.120764
loop_
_atom_site_label
_atom_site_type_symbol
_atom_site_fract_x
_atom_site_fract_y
_atom_site_fract_z
Zn1	Zn	1.247411	-0.376323	-0.534559
Zn2	Zn	1.254350	-0.494544	-0.395508
Zn3	Zn	1.115402	-0.363763	-0.388479
Zn4	Zn	1.108306	-0.493857	-0.527481
O5	O	1.181367	-0.432122	-0.461507
O6	O	1.364698	-0.397549	-0.522017
O7	O	1.241792	-0.472227	-0.278209
O8	O	1.132978	-0.261508	-0.407877
O9	O	1.369796	-0.484406	-0.419857
O10	O	1.229965	-0.270736	-0.515202
O11	O	1.139707	-0.376143	-0.273045
O12	O	0.998094	-0.375476	-0.401014
O13	O	1.120885	-0.483234	-0.644786
O14	O	0.992881	-0.471055	-0.503138
O15	O	1.223084	-0.396882	-0.649987
O16	O	1.234912	-0.598374	-0.412994
O17	O	1.127614	-0.597869	-0.509954
C18	C	0.965315	-0.421829	-0.450546
C19	C	0.872886	-0.417444	-0.445877
C20	C	0.659920	-0.454859	-0.485729
C21	C	0.703662	-0.409446	-0.437351
C22	C	0.797827	-0.413898	-0.442096
C23	C	0.565747	-0.450409	-0.480984
C24	C	1.181267	-0.625068	-0.461488
C25	C	1.181299	-0.707617	-0.461511
C26	C	1.123006	-0.906821	-0.514222
C27	C	1.106583	-0.952040	-0.437316
C28	C	1.181381	-0.858751	-0.461526
C29	C	1.197844	-0.960616	-0.538443
C30	C	1.181457	-1.004741	-0.461548
C31	C	1.164920	-0.902880	-0.384579
C32	C	1.256213	-0.911455	-0.485758
C33	C	1.239822	-0.956651	-0.408802
C34	C	1.181334	-0.774650	-0.461515
C35	C	1.181504	-1.088840	-0.461550
C36	C	1.398263	-0.442455	-0.472511
C37	C	1.490691	-0.446859	-0.477200
C38	C	1.170419	-0.441383	-0.678403
C39	C	1.165753	-0.445329	-0.770831
C40	C	1.181489	-0.238423	-0.461545
C41	C	1.181541	-0.155880	-0.461561
C42	C	1.205696	-0.411522	-0.983812
C43	C	1.157208	-0.452502	-0.940051
C44	C	1.161964	-0.448510	-0.845888
C45	C	1.200940	-0.415513	-1.077983
C46	C	1.192321	-0.422845	-0.245457
C47	C	1.197147	-0.418697	-0.153038
H48	H	0.693190	-0.497079	-0.530706
H49	H	1.043335	-0.970032	-0.416839
H50	H	1.112119	-0.490581	-0.973306
H51	H	1.250777	-0.373442	-0.950559
C52	C	0.978006	-0.897597	-0.548715
C53	C	1.056281	-0.877279	-0.574284
H54	H	0.936814	-0.879353	-0.585790
H55	H	0.977247	-0.950181	-0.548771
H56	H	0.966868	-0.877024	-0.494246
H57	H	1.067422	-0.897856	-0.628751
H58	H	1.057043	-0.824685	-0.574237
H59	H	1.150952	-0.877744	-0.319518
H60	H	0.670390	-0.367223	-0.392369
C61	C	1.289107	-0.956559	-0.268133
C62	C	1.306509	-0.986000	-0.348587
H63	H	1.330272	-0.974684	-0.230959
H64	H	1.289137	-0.903914	-0.267470
H65	H	1.236112	-0.971124	-0.251403
H66	H	1.359501	-0.971431	-0.365320
H67	H	1.306487	-1.038657	-0.349253
C68	C	1.358646	-0.916412	-0.594044
C69	C	1.341571	-0.887161	-0.513449
H70	H	1.411340	-0.901408	-0.611146
H71	H	1.359148	-0.969080	-0.594743
H72	H	1.317035	-0.898574	-0.630904
H73	H	1.383179	-0.905003	-0.476588
H74	H	1.341076	-0.834481	-0.512744
H75	H	1.211739	-0.985837	-0.603482
