data_functionalizedCrystal
_audit_creation_method	'MofGen! by Chris Wilmer'
_symmetry_space_group_name_H-M	'P1'
_symmetry_Int_Tables_number	1
_symmetry_cell_setting	triclinic
loop_
_symmetry_equiv_pos_as_xyz
  x,y,z
_cell_length_a	21.395362
_cell_length_b	13.897447
_cell_length_c	21.395355
_cell_angle_alpha	89.985644
_cell_angle_beta	89.956060
_cell_angle_gamma	90.035409
loop_
_atom_site_label
_atom_site_type_symbol
_atom_site_fract_x
_atom_site_fract_y
_atom_site_fract_z
Zn1	Zn	0.957908	-0.383718	-0.354604
Zn2	Zn	1.457908	0.116282	0.145396
Zn3	Zn	0.957831	-0.544997	-0.249834
Zn4	Zn	1.457831	-0.044997	0.250166
Zn5	Zn	0.853123	-0.383763	-0.249805
Zn6	Zn	1.353123	0.116237	0.250195
Zn7	Zn	0.853113	-0.545017	-0.354539
Zn8	Zn	1.353113	-0.045017	0.145461
O9	O	0.905494	-0.464374	-0.302195
O10	O	1.405494	0.035626	0.197805
O11	O	1.045576	-0.405085	-0.340745
O12	O	1.545576	0.094915	0.159255
O13	O	0.943913	-0.523620	-0.162152
O14	O	1.443913	-0.023620	0.337848
O15	O	0.867060	-0.248775	-0.263722
O16	O	1.367060	0.251225	0.236278
O17	O	1.045519	-0.523576	-0.263771
O18	O	1.545519	-0.023576	0.236229
O19	O	0.944045	-0.248742	-0.340717
O20	O	1.444045	0.251258	0.159283
O21	O	0.866985	-0.405161	-0.162131
O22	O	1.366985	0.094839	0.337869
O23	O	0.765444	-0.405181	-0.263659
O24	O	1.265444	0.094819	0.236341
O25	O	0.867042	-0.523610	-0.442225
O26	O	1.367042	-0.023610	0.057775
O27	O	0.765436	-0.523654	-0.340606
O28	O	1.265436	-0.023654	0.159394
O29	O	0.944035	-0.405104	-0.442273
O30	O	1.444035	0.094896	0.057727
O31	O	0.943903	-0.679982	-0.263708
O32	O	1.443903	-0.179982	0.236292
O33	O	0.866967	-0.679996	-0.340634
O34	O	1.366967	-0.179996	0.159366
C35	C	0.742706	-0.464425	-0.302123
C36	C	1.242706	0.035575	0.197877
C37	C	0.673065	-0.464470	-0.302106
C38	C	1.173065	0.035530	0.197894
C39	C	0.640364	-0.526240	-0.342113
C40	C	1.140364	-0.026240	0.157887
C41	C	0.574929	-0.526217	-0.342141
C42	C	1.074929	-0.026217	0.157859
C43	C	0.542197	-0.464433	-0.302151
C44	C	1.042197	0.035567	0.197849
C45	C	0.574905	-0.402650	-0.262142
C46	C	1.074905	0.097350	0.237858
C47	C	0.640339	-0.402669	-0.262119
C48	C	1.140339	0.097331	0.237881
C49	C	0.438471	-0.456662	-0.245745
C50	C	0.938471	0.043338	0.254255
C51	C	0.373038	-0.456650	-0.245767
C52	C	0.873038	0.043350	0.254233
C53	C	0.340376	-0.464370	-0.302220
C54	C	0.840376	0.035630	0.197780
C55	C	0.373155	-0.472121	-0.358654
C56	C	0.873155	0.027879	0.141346
C57	C	0.438589	-0.472140	-0.358632
C58	C	0.938589	0.027860	0.141368
C59	C	0.471244	-0.464405	-0.302171
C60	C	0.971244	0.035595	0.197829
C61	C	0.236723	-0.526118	-0.342260
C62	C	0.736723	-0.026118	0.157740
C63	C	0.171286	-0.526088	-0.342289
C64	C	0.671286	-0.026088	0.157711
C65	C	0.171264	-0.402526	-0.262285
C66	C	0.671264	0.097474	0.237715
C67	C	0.236699	-0.402551	-0.262261
C68	C	0.736699	0.097449	0.237739
C69	C	0.269425	-0.464352	-0.302248
C70	C	0.769425	0.035648	0.197752
C71	C	0.905443	-0.714988	-0.302181
C72	C	1.405443	-0.214988	0.197819
C73	C	0.905478	-0.822202	-0.302196
C74	C	1.405478	-0.322202	0.197804
C75	C	0.905509	-0.909272	-0.302210
C76	C	1.405509	-0.409272	0.197790
C77	C	0.905553	-1.018504	-0.302226
C78	C	1.405553	-0.518504	0.197774
C79	C	1.068917	-0.464323	-0.302269
C80	C	1.568917	0.035677	0.197731
C81	C	1.138558	-0.464302	-0.302300
C82	C	1.638558	0.035698	0.197700
C83	C	0.905546	-0.464354	-0.465619
C84	C	1.405546	0.035646	0.034381
C85	C	0.905568	-0.464346	-0.535260
C86	C	1.405568	0.035654	-0.035260
C87	C	0.905562	-0.212781	-0.302224
C88	C	1.405562	0.287219	0.197776
C89	C	0.905591	-0.105567	-0.302236
C90	C	1.405591	0.394433	0.197764
C91	C	0.945656	-0.402637	-0.567999
C92	C	1.445656	0.097363	-0.067999
C93	C	0.945655	-0.402596	-0.633434
C94	C	1.445655	0.097404	-0.133434
C95	C	0.905573	-0.464280	-0.666128
C96	C	1.405573	0.035720	-0.166128
C97	C	0.865477	-0.525993	-0.633381
C98	C	1.365477	-0.025993	-0.133381
C99	C	0.865474	-0.526026	-0.567947
C100	C	1.365474	-0.026026	-0.067947
C101	C	0.900608	-0.551135	-0.769796
C102	C	1.400608	-0.051135	-0.269796
C103	C	0.900615	-0.551103	-0.835229
C104	C	1.400615	-0.051103	-0.335229
C105	C	0.905577	-0.464178	-0.867949
C106	C	1.405577	0.035822	-0.367949
C107	C	0.910545	-0.377282	-0.835228
C108	C	1.410545	0.122718	-0.335228
C109	C	0.910543	-0.377315	-0.769794
C110	C	1.410543	0.122685	-0.269794
C111	C	0.905571	-0.464251	-0.737081
C112	C	1.405571	0.035749	-0.237081
C113	C	0.945666	-0.402419	-0.971641
C114	C	1.445666	0.097581	-0.471641
C115	C	0.945661	-0.402376	-1.037077
C116	C	1.445661	0.097624	-0.537077
C117	C	0.865485	-0.525782	-1.037023
C118	C	1.365485	-0.025782	-0.537023
C119	C	0.865487	-0.525817	-0.971588
C120	C	1.365487	-0.025817	-0.471588
C121	C	0.905581	-0.464137	-0.938901
C122	C	1.405581	0.035863	-0.438901
C123	C	0.905478	-0.464324	-0.139408
C124	C	1.405478	0.035676	0.360592
C125	C	0.905577	-0.464060	-0.069767
C126	C	1.405577	0.035940	0.430233
H127	H	0.548250	-0.352343	-0.229583
H128	H	1.048250	0.147657	0.270417
H129	H	0.978299	-0.352340	-0.660096
H130	H	1.478299	0.147660	-0.160096
C131	C	0.945380	-0.706414	-0.855398
C132	C	1.445380	-0.206414	-0.355398
C133	C	0.895157	-0.646624	-0.871186
C134	C	1.395157	-0.146624	-0.371186
H135	H	0.942008	-0.765389	-0.877591
H136	H	1.442008	-0.265389	-0.377591
H137	H	0.983526	-0.675559	-0.866153
H138	H	1.483526	-0.175559	-0.366153
H139	H	0.944658	-0.718854	-0.811743
H140	H	1.444658	-0.218854	-0.311743
H141	H	0.895881	-0.634178	-0.914840
H142	H	1.395881	-0.134178	-0.414840
H143	H	0.857001	-0.677485	-0.860435
H144	H	1.357001	-0.177485	-0.360435
H145	H	0.465275	-0.478449	-0.404582
H146	H	0.965275	0.021551	0.095418
H147	H	0.666964	-0.352365	-0.229541
H148	H	1.166964	0.147635	0.270459
C149	C	0.458476	-0.525457	-0.144774
C150	C	0.958476	-0.025457	0.355226
C151	C	0.474374	-0.448189	-0.183688
C152	C	0.974374	0.051811	0.316312
H153	H	0.480645	-0.520229	-0.106466
H154	H	0.980645	-0.020229	0.393534
H155	H	0.414821	-0.524327	-0.136708
H156	H	0.914821	-0.024327	0.363292
H157	H	0.469190	-0.584217	-0.164753
H158	H	0.969190	-0.084217	0.335247
H159	H	0.463656	-0.389428	-0.163710
H160	H	0.963656	0.110572	0.336290
H161	H	0.518038	-0.449310	-0.191752
H162	H	1.018038	0.050690	0.308248
C163	C	0.097796	-0.539671	-0.426586
C164	C	0.597796	-0.039671	0.073414
C165	C	0.135341	-0.593991	-0.386270
C166	C	0.635341	-0.093991	0.113730
H167	H	0.075608	-0.581594	-0.453740
H168	H	0.575608	-0.081594	0.046260
H169	H	0.068940	-0.502876	-0.402777
H170	H	0.568940	-0.002876	0.097223
H171	H	0.123380	-0.497713	-0.450589
H172	H	0.623380	0.002287	0.049411
H173	H	0.109756	-0.635943	-0.362264
H174	H	0.609756	-0.135943	0.137736
H175	H	0.164200	-0.630802	-0.410081
H176	H	0.664200	-0.130802	0.089919
H177	H	0.832839	-0.576214	-0.660005
H178	H	1.332839	-0.076214	-0.160005
C179	C	0.151150	-0.239124	-0.231947
C180	C	0.651150	0.260876	0.268053
C181	C	0.135281	-0.334622	-0.218328
C182	C	0.635281	0.165378	0.281672
H183	H	0.128927	-0.197205	-0.204812
H184	H	0.628927	0.302795	0.295188
H185	H	0.194794	-0.230290	-0.226197
H186	H	0.694794	0.269710	0.273803
H187	H	0.140482	-0.225109	-0.274066
H188	H	0.640482	0.274891	0.225934
H189	H	0.145954	-0.348639	-0.176210
H190	H	0.645954	0.151361	0.323790
H191	H	0.091628	-0.343460	-0.224072
H192	H	0.591628	0.156540	0.275928
H193	H	0.896400	-0.621902	-0.743161
H194	H	1.396400	-0.121902	-0.243161
H195	H	0.978303	-0.352411	-0.541389
H196	H	1.478303	0.147589	-0.041389
H197	H	0.263324	-0.352256	-0.229680
H198	H	0.763324	0.147744	0.270320
C199	C	0.299349	-0.529615	-0.175544
C200	C	0.799349	-0.029615	0.324456
C201	C	0.337016	-0.448144	-0.183733
C202	C	0.837016	0.051856	0.316267
H203	H	0.277117	-0.524368	-0.137243
H204	H	0.777117	-0.024368	0.362757
H205	H	0.270533	-0.534208	-0.209161
H206	H	0.770533	-0.034208	0.290839
H207	H	0.324857	-0.585522	-0.174664
H208	H	0.824857	-0.085522	0.325336
H209	H	0.311507	-0.392237	-0.184617
H210	H	0.811507	0.107763	0.315383
H211	H	0.365835	-0.443541	-0.150107
H212	H	0.865835	0.056459	0.349893
H213	H	0.978310	-0.352190	-0.945025
H214	H	1.478310	0.147810	-0.445025
C215	C	0.920348	-0.205493	-0.776357
C216	C	1.420348	0.294507	-0.276357
C217	C	0.915994	-0.281803	-0.733826
C218	C	1.415994	0.218197	-0.233826
H219	H	0.923707	-0.146528	-0.754151
H220	H	1.423707	0.353472	-0.254151
H221	H	0.956254	-0.213941	-0.801902
H222	H	1.456254	0.286059	-0.301902
H223	H	0.884029	-0.204249	-0.801856
H224	H	1.384029	0.295751	-0.301856
H225	H	0.952315	-0.283051	-0.708331
H226	H	1.452315	0.216949	-0.208331
H227	H	0.880084	-0.273352	-0.708271
H228	H	1.380084	0.226648	-0.208271
H229	H	0.914586	-0.306499	-0.861867
H230	H	1.414586	0.193501	-0.361867
H231	H	0.978305	-0.352120	-1.063733
H232	H	1.478305	0.147880	-0.563733
C233	C	0.829902	-0.580545	-1.137301
C234	C	1.329902	-0.080545	-0.637301
C235	C	0.821432	-0.593599	-1.072953
C236	C	1.321432	-0.093599	-0.572953
H237	H	0.802707	-0.622419	-1.159483
H238	H	1.302707	-0.122419	-0.659483
H239	H	0.820741	-0.515743	-1.148014
H240	H	1.320741	-0.015743	-0.648014
H241	H	0.872000	-0.594634	-1.148047
H242	H	1.372000	-0.094634	-0.648047
H243	H	0.779335	-0.579502	-1.062206
H244	H	1.279335	-0.079502	-0.562206
H245	H	0.830588	-0.658415	-1.062236
H246	H	1.330588	-0.158415	-0.562236
C247	C	0.834914	-0.689382	-0.547785
C248	C	1.334914	-0.189382	-0.047785
C249	C	0.821413	-0.593869	-0.531954
C250	C	1.321413	-0.093869	-0.031954
H251	H	0.807716	-0.731265	-0.525560
H252	H	1.307716	-0.231265	-0.025560
H253	H	0.829172	-0.698182	-0.591428
H254	H	1.329172	-0.198182	-0.091428
H255	H	0.877011	-0.703476	-0.537095
H256	H	1.377011	-0.203476	-0.037095
H257	H	0.779318	-0.579773	-0.542649
H258	H	1.279318	-0.079773	-0.042649
H259	H	0.827150	-0.585064	-0.488301
H260	H	1.327150	-0.085064	0.011699
C261	C	0.786242	-0.647794	-0.978109
C262	C	1.286242	-0.147794	-0.478109
C263	C	0.821425	-0.593657	-0.935597
C264	C	1.321425	-0.093657	-0.435597
H265	H	0.759041	-0.689679	-0.955888
H266	H	1.259041	-0.189679	-0.455888
H267	H	0.762290	-0.605762	-1.003610
H268	H	1.262290	-0.105762	-0.503610
H269	H	0.813538	-0.684669	-1.003653
H270	H	1.313538	-0.184669	-0.503653
H271	H	0.794130	-0.556777	-0.910055
H272	H	1.294130	-0.056777	-0.410055
H273	H	0.845379	-0.635695	-0.910085
H274	H	1.345379	-0.135695	-0.410085
H275	H	0.548299	-0.576517	-0.374721
H276	H	1.048299	-0.076517	0.125279
C277	C	0.633808	-0.648373	-0.421195
C278	C	1.133808	-0.148373	0.078805
C279	C	0.676335	-0.594162	-0.386072
C280	C	1.176335	-0.094162	0.113928
H281	H	0.656018	-0.690299	-0.448336
H282	H	1.156018	-0.190299	0.051664
H283	H	0.608240	-0.685199	-0.393863
H284	H	1.108240	-0.185199	0.106137
H285	H	0.608333	-0.606384	-0.445215
H286	H	1.108333	-0.106384	0.054785
H287	H	0.701808	-0.636152	-0.362049
H288	H	1.201808	-0.136152	0.137951
H289	H	0.701914	-0.557334	-0.413408
H290	H	1.201914	-0.057334	0.086592
H291	H	0.346563	-0.478406	-0.404624
H292	H	0.846563	0.021594	0.095376
H293	H	0.263369	-0.576435	-0.374823
H294	H	0.763369	-0.076435	0.125177
