data_functionalizedCrystal
_audit_creation_method	'MofGen! by Chris Wilmer'
_symmetry_space_group_name_H-M	'P1'
_symmetry_Int_Tables_number	1
_symmetry_cell_setting	triclinic
loop_
_symmetry_equiv_pos_as_xyz
  x,y,z
_cell_length_a	12.827893
_cell_length_b	17.640280
_cell_length_c	17.639477
_cell_angle_alpha	109.653959
_cell_angle_beta	78.805960
_cell_angle_gamma	78.800662
loop_
_atom_site_label
_atom_site_type_symbol
_atom_site_fract_x
_atom_site_fract_y
_atom_site_fract_z
Zn1	Zn	1.553346	-0.233851	0.399680
Zn2	Zn	1.641811	-0.399522	0.234043
Zn3	Zn	1.422880	-0.261740	0.261884
Zn4	Zn	1.422852	-0.371616	0.371822
O5	O	1.510222	-0.316682	0.316857
O6	O	1.711318	-0.255834	0.377715
O7	O	1.649804	-0.404596	0.122406
O8	O	1.403175	-0.142722	0.303473
O9	O	1.776312	-0.377553	0.256022
O10	O	1.499029	-0.122232	0.404711
O11	O	1.488956	-0.303367	0.142861
O12	O	1.276640	-0.276308	0.276461
O13	O	1.403128	-0.329991	0.490847
O14	O	1.276620	-0.357034	0.357232
O15	O	1.499001	-0.228775	0.511314
O16	O	1.649777	-0.511138	0.229009
O17	O	1.488909	-0.490636	0.330235
C18	C	1.238712	-0.316669	0.316845
C19	C	1.122559	-0.316680	0.316855
C20	C	1.070842	-0.356719	0.356730
C21	C	0.950792	-0.356731	0.356741
C22	C	1.578962	-0.530784	0.273596
C23	C	1.608456	-0.622372	0.255116
C24	C	1.286493	-0.870421	0.457546
C25	C	1.314218	-0.956488	0.440155
C26	C	1.481779	-0.977750	0.334855
C27	C	1.454071	-0.891683	0.352240
C28	C	1.356426	-0.838025	0.413586
C29	C	1.524004	-0.859287	0.308280
C30	C	1.496296	-0.773228	0.325661
C31	C	1.398654	-0.719566	0.387002
C32	C	1.328718	-0.751966	0.430967
C33	C	1.621645	-0.912947	0.246930
C34	C	1.691578	-0.880551	0.202970
C35	C	1.663874	-0.794490	0.220354
C36	C	1.566232	-0.740827	0.281696
C37	C	1.733810	-0.762089	0.176390
C38	C	1.706101	-0.676030	0.193770
C39	C	1.538523	-0.654769	0.299076
C40	C	1.782793	-0.316695	0.316870
C41	C	1.898946	-0.316701	0.316875
C42	C	1.441193	-0.273159	0.531820
C43	C	1.411777	-0.254612	0.623424
C44	C	1.441237	-0.101740	0.360305
C45	C	1.411840	-0.010145	0.378821
C46	C	1.579024	-0.359976	0.102742
C47	C	1.608568	-0.378291	0.011185
C48	C	1.733773	-0.457137	0.871426
C49	C	1.706115	-0.439700	0.957505
C50	C	1.538635	-0.334298	0.978802
C51	C	1.566276	-0.351729	0.892723
C52	C	1.663846	-0.413148	0.839042
C53	C	1.496350	-0.307740	0.860339
C54	C	1.523991	-0.325167	0.774269
C55	C	1.621559	-0.386582	0.720582
C56	C	1.691488	-0.430575	0.752972
C57	C	1.398783	-0.246317	0.914023
C58	C	1.328857	-0.202328	0.881638
C59	C	1.356494	-0.219759	0.795566
C60	C	1.454062	-0.281174	0.741879
C61	C	1.286565	-0.175766	0.763176
C62	C	1.314207	-0.193193	0.677106
C63	C	1.481703	-0.298601	0.655809
H64	H	1.077958	-0.282405	0.282729
H65	H	1.459195	-0.284288	1.022521
Br66	Br	0.973065	-0.259569	0.259962
H67	H	1.249417	-0.152318	0.925357
Br68	Br	1.361242	-0.602727	0.410801
H69	H	1.249211	-0.708274	0.480927
Br70	Br	1.153983	-0.797590	0.540813
Br71	Br	1.219285	-1.000453	0.499810
H72	H	1.813231	-0.507143	0.827717
Br73	Br	1.614293	-1.050577	0.251604
Br74	Br	1.823894	-0.513945	0.680107
Br75	Br	1.801036	-0.499396	1.001454
H76	H	1.376285	-0.232126	0.984107
H77	H	1.207129	-0.125752	0.806897
Br78	Br	1.824092	-0.953379	0.119719
Br79	Br	1.145168	-0.413846	0.413616
H80	H	1.813306	-0.805791	0.126436
Br81	Br	1.801000	-0.632061	0.134099
H82	H	1.561162	-0.348607	0.612099
Br83	Br	1.659082	-0.410230	0.603771
H84	H	1.459016	-0.611076	0.349036
H85	H	0.906317	-0.391013	0.390877
H86	H	1.644204	-0.983021	0.232783
H87	H	1.257268	-0.157370	0.650739
