data_functionalizedCrystal
_audit_creation_method	'MofGen! by Chris Wilmer'
_symmetry_space_group_name_H-M	'P1'
_symmetry_Int_Tables_number	1
_symmetry_cell_setting	triclinic
loop_
_symmetry_equiv_pos_as_xyz
  x,y,z
_cell_length_a	16.959455
_cell_length_b	21.295417
_cell_length_c	16.959447
_cell_angle_alpha	90.034146
_cell_angle_beta	90.020374
_cell_angle_gamma	90.026722
loop_
_atom_site_label
_atom_site_type_symbol
_atom_site_fract_x
_atom_site_fract_y
_atom_site_fract_z
Zn1	Zn	1.208331	-0.250647	0.447015
Zn2	Zn	1.208231	-0.355924	0.314828
Zn3	Zn	1.076159	-0.250667	0.314839
Zn4	Zn	1.076102	-0.355877	0.446953
O5	O	1.142206	-0.303278	0.380909
O6	O	1.318929	-0.264623	0.429502
O7	O	1.190694	-0.341989	0.204218
O8	O	1.093758	-0.162575	0.332403
O9	O	1.318855	-0.341970	0.332385
O10	O	1.190864	-0.162560	0.429513
O11	O	1.093661	-0.264657	0.204226
O12	O	0.965541	-0.264612	0.332342
O13	O	1.093660	-0.341890	0.557572
O14	O	0.965499	-0.341909	0.429406
O15	O	1.190808	-0.264578	0.557618
O16	O	1.190638	-0.444007	0.332324
O17	O	1.093563	-0.443972	0.429395
C18	C	0.936840	-0.303258	0.380869
C19	C	0.848983	-0.303264	0.380871
C20	C	1.142105	-0.466830	0.380869
C21	C	1.142134	-0.536798	0.380878
C22	C	0.477459	-0.343513	0.330314
C23	C	0.477556	-0.263096	0.431600
C24	C	0.560102	-0.263086	0.431581
C25	C	0.601330	-0.303290	0.380928
C26	C	0.560012	-0.343505	0.330295
C27	C	0.601426	-0.222877	0.482219
C28	C	0.683977	-0.222865	0.482202
C29	C	0.725207	-0.263067	0.431545
C30	C	0.683884	-0.303282	0.380909
C31	C	0.725112	-0.343487	0.330256
C32	C	0.683790	-0.383700	0.279616
C33	C	0.601242	-0.383707	0.279638
C34	C	0.807755	-0.263060	0.431523
C35	C	0.807665	-0.343479	0.330237
C36	C	1.192668	-0.569600	0.431479
C37	C	1.192696	-0.635342	0.431498
C38	C	1.142198	-0.668281	0.380903
C39	C	1.091655	-0.635471	0.330298
C40	C	1.091622	-0.569730	0.330286
N41	N	1.136233	-0.771546	0.311726
N42	N	1.136268	-0.833997	0.311740
C43	C	1.142291	-0.866355	0.380939
N44	N	1.148292	-0.833903	0.450124
N45	N	1.148261	-0.771446	0.450109
C46	C	1.142227	-0.739566	0.380911
C47	C	1.192858	-0.970443	0.431565
C48	C	1.192880	-1.036186	0.431586
C49	C	1.091842	-1.036313	0.330379
C50	C	1.091816	-0.970571	0.330365
C51	C	1.142328	-0.937640	0.380957
C52	C	1.348374	-0.303299	0.380949
C53	C	1.436231	-0.303308	0.380966
C54	C	1.142239	-0.303226	0.587077
C55	C	1.142253	-0.303204	0.674934
C56	C	1.142329	-0.139088	0.380966
C57	C	1.142381	-0.069120	0.380991
C58	C	1.142219	-0.303285	0.175542
C59	C	1.142358	-0.303130	0.087686
C60	C	1.091767	-0.343390	1.046388
C61	C	1.192928	-0.262885	1.046431
C62	C	1.192907	-0.262898	0.963885
C63	C	1.142316	-0.303159	0.922587
C64	C	1.091746	-0.343406	0.963834
C65	C	1.243482	-0.222656	0.922631
C66	C	1.243463	-0.222668	0.840080
C67	C	1.192867	-0.262926	0.798780
C68	C	1.142295	-0.303175	0.840033
C69	C	1.091704	-0.343436	0.798735
C70	C	1.041126	-0.383681	0.839986
C71	C	1.041150	-0.383664	0.922534
C72	C	1.192844	-0.262943	0.716232
C73	C	1.091683	-0.343451	0.716181
H74	H	0.717369	-0.416437	0.238379
O75	O	1.241994	-0.223795	0.676283
C76	C	1.342378	-0.143976	0.685042
C77	C	1.286740	-0.188272	0.730381
H78	H	1.378581	-0.115252	0.728760
H79	H	1.306143	-0.111019	0.646429
H80	H	1.383638	-0.172900	0.646362
H81	H	1.245468	-0.159398	0.769103
H82	H	1.323024	-0.221230	0.768943
O83	O	1.042626	-0.382654	0.676100
C84	C	1.004147	-0.489733	0.650829
C85	C	1.059762	-0.445408	0.696257
H86	H	1.017971	-0.540478	0.667122
H87	H	1.012827	-0.482889	0.584734
H88	H	0.940427	-0.478638	0.667041
H89	H	1.123504	-0.456475	0.680110
H90	H	1.051014	-0.452260	0.762341
O91	O	1.241742	-0.667151	0.480766
C92	C	1.279989	-0.687205	0.615264
C93	C	1.224415	-0.651132	0.559556
H94	H	1.265990	-0.674277	0.678978
H95	H	1.343745	-0.674240	0.601516
H96	H	1.271340	-0.739844	0.606536
H97	H	1.232995	-0.598485	0.568253
H98	H	1.160680	-0.664149	0.573319
O99	O	0.992076	-0.422884	0.799896
C100	C	0.953612	-0.529963	0.774606
C101	C	1.009214	-0.485638	0.820049
H102	H	0.967437	-0.580709	0.790896
H103	H	0.962303	-0.523114	0.708514
H104	H	0.889887	-0.518874	0.790808
H105	H	1.072960	-0.496701	0.803913
H106	H	1.000455	-0.492496	0.886131
H107	H	1.233985	-0.943629	0.472763
O108	O	1.241619	-0.537544	0.480668
C109	C	1.252146	-0.463287	0.587424
C110	C	1.196624	-0.499540	0.531752
H111	H	1.215789	-0.432562	0.628749
H112	H	1.293474	-0.432458	0.551217
H113	H	1.288284	-0.498043	0.623556
H114	H	1.160434	-0.464830	0.495607
H115	H	1.155348	-0.530379	0.568004
O116	O	0.561257	-0.183844	0.531344
C117	C	0.434124	-0.148241	0.576283
C118	C	0.479521	-0.192470	0.520596
H119	H	0.368032	-0.155209	0.567624
H120	H	0.450311	-0.097454	0.562515
H121	H	0.450427	-0.159349	0.639983
H122	H	0.463242	-0.181419	0.456877
H123	H	0.463329	-0.243244	0.534431
H124	H	1.050537	-0.662293	0.289105
H125	H	1.284646	-0.189898	0.806501
H126	H	0.717614	-0.190121	0.523436
H127	H	1.050471	-0.543022	0.289080
H128	H	0.567590	-0.416446	0.238408
O129	O	1.042857	-1.068399	0.281260
C130	C	0.998078	-1.169733	0.236474
C131	C	1.053615	-1.133472	0.292123
H132	H	1.006744	-1.222351	0.245249
H133	H	1.011988	-1.156887	0.172729
H134	H	0.934338	-1.156800	0.250286
H135	H	1.117373	-1.146385	0.278382
H136	H	1.039636	-1.146321	0.355851
H137	H	1.234031	-1.062893	0.472795
H138	H	1.050670	-0.943862	0.289157
O139	O	1.292513	-0.183488	0.962786
C140	C	1.303241	-0.098518	1.056074
C141	C	1.247620	-0.142825	1.010628
H142	H	1.266969	-0.065639	1.094778
H143	H	1.339378	-0.069711	1.012454
H144	H	1.344566	-0.127437	1.094678
H145	H	1.206248	-0.113955	0.972022
H146	H	1.211539	-0.171634	1.054291
O147	O	0.992099	-0.422737	0.962728
C148	C	0.947269	-0.458362	1.089882
C149	C	1.002870	-0.414092	1.044459
H150	H	0.955946	-0.451378	1.155969
H151	H	0.961105	-0.509139	1.073690
H152	H	0.883545	-0.447309	1.073606
H153	H	1.066612	-0.425087	1.060710
H154	H	0.988965	-0.363327	1.060654
O155	O	1.241999	-0.223801	1.086667
C156	C	1.286906	-0.188134	1.213861
C157	C	1.231278	-0.232419	1.168388
H158	H	1.278270	-0.195096	1.279940
H159	H	1.273060	-0.137362	1.197716
H160	H	1.350620	-0.199192	1.197580
H161	H	1.167545	-0.221418	1.184644
H162	H	1.245192	-0.283178	1.184537
H163	H	0.841227	-0.376217	0.288987
O164	O	1.042713	-0.382463	1.086576
C165	C	0.997865	-0.418091	1.213723
C166	C	1.053471	-0.373819	1.168309
H167	H	1.006532	-0.411108	1.279812
H168	H	1.011705	-0.468868	1.197532
H169	H	0.934143	-0.407039	1.197438
H170	H	1.117212	-0.384815	1.184570
H171	H	1.039564	-0.323055	1.184504
H172	H	0.443811	-0.376252	0.289081
H173	H	0.443983	-0.230367	0.472843
O174	O	0.847772	-0.223946	0.480738
C175	C	0.839153	-0.144223	0.581252
C176	C	0.793737	-0.188479	0.525540
H177	H	0.795485	-0.115545	0.617501
H178	H	0.877772	-0.111222	0.545074
H179	H	0.877833	-0.173176	0.622467
H180	H	0.755013	-0.159576	0.484313
H181	H	0.755168	-0.221482	0.561767
