data_functionalizedCrystal
_audit_creation_method	'MofGen! by Chris Wilmer'
_symmetry_space_group_name_H-M	'P1'
_symmetry_Int_Tables_number	1
_symmetry_cell_setting	triclinic
loop_
_symmetry_equiv_pos_as_xyz
  x,y,z
_cell_length_a	8.634740
_cell_length_b	8.559649
_cell_length_c	7.681481
_cell_angle_alpha	94.925366
_cell_angle_beta	83.376723
_cell_angle_gamma	85.174486
loop_
_atom_site_label
_atom_site_type_symbol
_atom_site_fract_x
_atom_site_fract_y
_atom_site_fract_z
O1	O	1.969386	0.524269	0.146406
O2	O	1.525514	0.481367	0.146412
O3	O	1.786556	0.276236	0.146407
O4	O	1.708345	0.729400	0.146412
O5	O	1.818711	0.250945	-0.146451
O6	O	1.557670	0.456076	-0.146446
O7	O	2.001542	0.498977	-0.146452
Zn8	Zn	1.784711	0.473511	-0.192947
Zn9	Zn	1.742345	0.506834	0.192907
O10	O	1.740500	0.704108	-0.146447
C11	C	1.485293	0.459002	-0.000016
C12	C	1.317541	0.430024	-0.000014
C13	C	1.808560	0.204973	-0.000019
C14	C	1.826202	0.030310	-0.000009
C15	C	2.041763	0.521342	-0.000020
C16	C	2.209513	0.550321	-0.000011
C17	C	1.718495	0.775371	-0.000017
C18	C	1.700852	0.950035	-0.000015
N19	N	1.813636	0.450770	-0.456281
N20	N	1.713433	0.529564	0.456242
H21	H	1.281688	0.304868	0.000031
F22	F	1.256371	0.713927	-0.000024
H23	H	1.580038	0.014932	-0.000019
F24	F	1.984131	-0.054520	-0.000032
F25	F	1.947346	0.345665	-0.554570
H26	H	1.611141	0.609993	-0.468551
