data_functionalizedCrystal
_audit_creation_method	'MofGen! by Chris Wilmer'
_symmetry_space_group_name_H-M	'P1'
_symmetry_Int_Tables_number	1
_symmetry_cell_setting	triclinic
loop_
_symmetry_equiv_pos_as_xyz
  x,y,z
_cell_length_a	17.640112
_cell_length_b	18.101395
_cell_length_c	17.640968
_cell_angle_alpha	78.770922
_cell_angle_beta	92.139080
_cell_angle_gamma	101.255692
loop_
_atom_site_label
_atom_site_type_symbol
_atom_site_fract_x
_atom_site_fract_y
_atom_site_fract_z
Zn1	Zn	1.247775	-0.021279	-0.195081
Zn2	Zn	1.747775	0.478721	0.304919
Zn3	Zn	1.221983	-0.174071	-0.068105
Zn4	Zn	1.721983	0.325929	0.431895
Zn5	Zn	1.095100	-0.069453	-0.093729
Zn6	Zn	1.595100	0.430547	0.406271
Zn7	Zn	1.120725	-0.164323	-0.220687
Zn8	Zn	1.620725	0.335677	0.279313
O9	O	1.171396	-0.107282	-0.144400
O10	O	1.671396	0.392718	0.355600
O11	O	1.350625	-0.025466	-0.156797
O12	O	1.850625	0.474534	0.343203
O13	O	1.183633	-0.184434	0.034768
O14	O	1.683633	0.315566	0.534768
O15	O	1.115423	0.040585	-0.107181
O16	O	1.615423	0.540585	0.392819
O17	O	1.331676	-0.137722	-0.063509
O18	O	1.831676	0.362278	0.436491
O19	O	1.227592	0.075978	-0.181644
O20	O	1.727592	0.575978	0.318356
O21	O	1.090413	-0.107572	0.015942
O22	O	1.590413	0.392428	0.515942
O23	O	0.992228	-0.098119	-0.132010
O24	O	1.492228	0.401881	0.367990
O25	O	1.159097	-0.121107	-0.323562
O26	O	1.659097	0.378893	0.176438
O27	O	1.011054	-0.167820	-0.225285
O28	O	1.511054	0.332180	0.274715
O29	O	1.252440	-0.016013	-0.304750
O30	O	1.752440	0.483987	0.195250
O31	O	1.208481	-0.276426	-0.088338
O32	O	1.708481	0.223574	0.411662
O33	O	1.134087	-0.269264	-0.200439
O34	O	1.634087	0.230736	0.299561
C35	C	0.974086	-0.137139	-0.184207
C36	C	1.474086	0.362861	0.315793
C37	C	0.889679	-0.149927	-0.201255
C38	C	1.389679	0.350073	0.298745
C39	C	1.171290	-0.299713	-0.144399
C40	C	1.671290	0.200287	0.355601
C41	C	1.171319	-0.382019	-0.144409
C42	C	1.671319	0.117981	0.355591
C43	C	0.563038	-0.010125	-0.014899
C44	C	1.063038	0.489875	0.485101
C45	C	0.483727	-0.022153	-0.030928
C46	C	0.983727	0.477847	0.469072
C47	C	0.503352	-0.094901	-0.127887
C48	C	1.003352	0.405099	0.372113
C49	C	0.582666	-0.082876	-0.111869
C50	C	1.082666	0.417124	0.388131
C51	C	0.612502	-0.040488	-0.055373
C52	C	1.112502	0.459512	0.444627
C53	C	0.632131	-0.113239	-0.152344
C54	C	1.132131	0.386761	0.347656
C55	C	0.711437	-0.101218	-0.136324
C56	C	1.211437	0.398782	0.363676
C57	C	0.741280	-0.058834	-0.079829
C58	C	1.241280	0.441166	0.420171
C59	C	0.691809	-0.028467	-0.039353
C60	C	1.191809	0.471533	0.460647
C61	C	0.602292	-0.155631	-0.208836
C62	C	1.102292	0.344369	0.291164
C63	C	0.651757	-0.185994	-0.249311
C64	C	1.151757	0.314006	0.250689
C65	C	0.731066	-0.173968	-0.233295
C66	C	1.231066	0.326032	0.266705
C67	C	0.760908	-0.131585	-0.176800
C68	C	1.260908	0.368415	0.323200
C69	C	0.780536	-0.204335	-0.273771
C70	C	1.280536	0.295665	0.226229
C71	C	0.859843	-0.192314	-0.257751
C72	C	1.359843	0.307686	0.242249
C73	C	0.840215	-0.119564	-0.160780
C74	C	1.340215	0.380436	0.339220
C75	C	1.171494	-0.681075	-0.144416
C76	C	1.671494	-0.181075	0.355584
C77	C	1.124853	-0.645221	-0.215066
C78	C	1.624853	-0.145221	0.284934
C79	C	1.124537	-0.559687	-0.214938
C80	C	1.624537	-0.059687	0.285062
C81	C	1.171407	-0.532710	-0.144413
C82	C	1.671407	-0.032710	0.355587
C83	C	1.133552	-0.585373	-0.068746
C84	C	1.633552	-0.085373	0.431254
C85	C	1.133246	-0.670995	-0.069175
C86	C	1.633246	-0.170995	0.430825
C87	C	1.255975	-0.632588	-0.148704
C88	C	1.755975	-0.132588	0.351296
C89	C	1.255858	-0.546609	-0.150555
C90	C	1.755858	-0.046609	0.349445
C91	C	1.171358	-0.448861	-0.144407
C92	C	1.671358	0.051139	0.355593
C93	C	1.171539	-0.764926	-0.144418
C94	C	1.671539	-0.264926	0.355582
C95	C	1.369476	-0.077307	-0.104439
C96	C	1.869476	0.422693	0.395561
C97	C	1.453886	-0.064534	-0.087409
C98	C	1.953886	0.435466	0.412591
C99	C	1.211504	-0.062099	-0.342481
C100	C	1.711504	0.437901	0.157519
C101	C	1.228596	-0.042845	-0.426892
C102	C	1.728596	0.457155	0.073108
C103	C	1.171526	0.085908	-0.144415
C104	C	1.671526	0.585908	0.355585
C105	C	1.171582	0.168234	-0.144421
C106	C	1.671582	0.668234	0.355579
C107	C	1.041843	-0.253106	-0.753474
C108	C	1.541843	0.246894	-0.253474
C109	C	1.057920	-0.235002	-0.832787
C110	C	1.557920	0.264998	-0.332787
C111	C	1.155109	-0.125577	-0.813189
C112	C	1.655109	0.374423	-0.313189
C113	C	1.139039	-0.143670	-0.733873
C114	C	1.639039	0.356330	-0.233873
C115	C	1.082405	-0.207436	-0.704022
C116	C	1.582405	0.292564	-0.204022
C117	C	1.179601	-0.097999	-0.684421
C118	C	1.679601	0.402001	-0.184421
C119	C	1.163534	-0.116093	-0.605112
C120	C	1.663534	0.383907	-0.105112
C121	C	1.106905	-0.179858	-0.575254
C122	C	1.606905	0.320142	-0.075254
C123	C	1.066339	-0.225530	-0.624712
C124	C	1.566339	0.274470	-0.124712
C125	C	1.236238	-0.034237	-0.714273
C126	C	1.736238	0.465763	-0.214273
C127	C	1.276800	0.011433	-0.664821
C128	C	1.776800	0.511433	-0.164821
C129	C	1.260729	-0.006657	-0.585511
C130	C	1.760729	0.493343	-0.085511
C131	C	1.204100	-0.070421	-0.555653
C132	C	1.704100	0.429579	-0.055653
C133	C	1.301296	0.039015	-0.536052
C134	C	1.801296	0.539015	-0.036052
C135	C	1.285229	0.020921	-0.456743
C136	C	1.785229	0.520921	0.043257
C137	C	1.188033	-0.088515	-0.476344
C138	C	1.688033	0.411485	0.023656
C139	C	1.131487	-0.152228	0.052919
C140	C	1.631487	0.347772	0.552919
C141	C	1.114543	-0.171252	0.137358
C142	C	1.614543	0.328748	0.637358
H143	H	0.864511	-0.085034	-0.114787
H144	H	1.364511	0.414966	0.385213
Cl145	Cl	1.256438	-0.011493	-0.813977
Cl146	Cl	1.756438	0.488507	-0.313977
H147	H	1.071008	-0.703884	-0.063660
H148	H	1.571008	-0.203884	0.436340
Cl149	Cl	1.226305	-0.045419	-0.850723
Cl150	Cl	1.726305	0.454581	-0.350723
H151	H	0.805856	-0.049049	-0.066785
H152	H	1.305856	0.450951	0.433215
H153	H	1.284111	-0.510354	-0.206162
H154	H	1.784111	-0.010354	0.293838
H155	H	0.479047	-0.129416	-0.173884
H156	H	0.979047	0.370584	0.326116
Cl157	Cl	0.729325	0.024828	0.031666
Cl158	Cl	1.229325	0.524828	0.531666
Cl159	Cl	0.502588	-0.170754	-0.228966
Cl160	Cl	1.002588	0.329246	0.271034
H161	H	1.150316	-0.650174	-0.271898
H162	H	1.650316	-0.150174	0.228102
Cl163	Cl	0.600553	0.043169	0.056121
Cl164	Cl	1.100553	0.543169	0.556121
H165	H	1.287333	-0.638077	-0.202087
H166	H	1.787333	-0.138077	0.297913
H167	H	0.627452	-0.220508	-0.295307
H168	H	1.127452	0.279492	0.204693
Cl169	Cl	0.421543	0.016016	0.019967
Cl170	Cl	0.921543	0.516016	0.519967
H171	H	1.322913	0.063350	-0.689136
H172	H	1.822913	0.563350	-0.189136
Cl173	Cl	0.743015	-0.257638	-0.344776
Cl174	Cl	1.243015	0.242362	0.155224
Cl175	Cl	1.029295	-0.697108	-0.212822
Cl176	Cl	1.529295	-0.197108	0.287178
H177	H	0.900119	-0.217038	-0.290710
H178	H	1.400119	0.282962	0.209290
H179	H	1.164866	-0.695864	-0.015612
H180	H	1.664866	-0.195864	0.484388
H181	H	1.318258	0.058112	-0.416478
H182	H	1.818258	0.558112	0.083522
Cl183	Cl	1.163995	-0.503122	-0.302345
Cl184	Cl	1.663995	-0.003122	0.197655
Cl185	Cl	1.028361	-0.546842	-0.212530
Cl186	Cl	1.528361	-0.046842	0.287470
Cl187	Cl	1.372497	0.119168	-0.573588
Cl188	Cl	1.872497	0.619168	-0.073588
H189	H	1.165741	-0.569009	-0.015381
H190	H	1.665741	-0.069009	0.484619
Cl191	Cl	1.038323	-0.572161	-0.059557
Cl192	Cl	1.538323	-0.072161	0.440443
H193	H	1.293746	-0.527294	-0.101558
H194	H	1.793746	-0.027294	0.398442
H195	H	1.290923	-0.655996	-0.097050
H196	H	1.790923	-0.155996	0.402950
Cl197	Cl	1.116829	-0.168674	-0.438812
Cl198	Cl	1.616829	0.331326	0.061188
H199	H	1.093827	-0.194591	-0.510674
H200	H	1.593827	0.305409	-0.010674
H201	H	1.020204	-0.277439	-0.600410
H202	H	1.520204	0.222561	-0.100410
H203	H	0.995709	-0.305016	-0.729171
H204	H	1.495709	0.194984	-0.229171
H205	H	1.024885	-0.272198	-0.873049
H206	H	1.524885	0.227802	-0.373049
