data_functionalizedCrystal
_audit_creation_method	'MofGen! by Chris Wilmer'
_symmetry_space_group_name_H-M	'P1'
_symmetry_Int_Tables_number	1
_symmetry_cell_setting	triclinic
loop_
_symmetry_equiv_pos_as_xyz
  x,y,z
_cell_length_a	11.792254
_cell_length_b	11.792241
_cell_length_c	16.053802
_cell_angle_alpha	92.583059
_cell_angle_beta	87.401073
_cell_angle_gamma	84.196007
loop_
_atom_site_label
_atom_site_type_symbol
_atom_site_fract_x
_atom_site_fract_y
_atom_site_fract_z
O1	O	1.511659	0.150887	-0.069429
O2	O	1.181320	0.166905	-0.069431
O3	O	1.354506	-0.006274	-0.069424
O4	O	1.338474	0.324066	-0.069436
O5	O	1.344973	0.003219	0.069435
O6	O	1.171787	0.176398	0.069428
O7	O	1.502126	0.160380	0.069430
Zn8	Zn	1.335443	0.169896	0.091476
Zn9	Zn	1.348003	0.157389	-0.091477
O10	O	1.328941	0.333559	0.069423
C11	C	1.134263	0.170642	-0.000002
C12	C	1.008250	0.167622	-0.000002
C13	C	0.905914	0.165168	-0.000006
C14	C	0.777527	0.162100	-0.000006
C15	C	1.348732	-0.043818	0.000005
C16	C	1.345718	-0.169832	0.000004
C17	C	1.340176	-0.400546	-0.000010
C18	C	1.343255	-0.272160	-0.000002
C19	C	1.549183	0.156642	-0.000001
C20	C	1.675197	0.159662	-0.000006
C21	C	1.334714	0.371103	-0.000008
C22	C	1.337729	0.497117	-0.000013
N23	N	1.326880	0.178431	0.216335
N24	N	1.356576	0.148845	-0.216337
C25	C	1.400598	0.104770	0.260032
C26	C	1.394618	0.110751	0.347439
C27	C	1.314925	0.190400	0.391147
C28	C	1.241199	0.264064	0.347444
C29	C	1.247174	0.258077	0.260039
C30	C	1.288825	0.216522	0.652556
C31	C	1.282858	0.222506	0.739967
C32	C	1.436276	0.069191	0.739955
C33	C	1.442248	0.063215	0.652549
C34	C	1.368518	0.136875	0.608853
N35	N	1.308813	0.196518	0.480490
N36	N	1.374625	0.130751	0.519512
H37	H	1.465497	0.039916	0.224451
H38	H	1.454644	0.050770	0.383016
H39	H	1.507140	-0.001641	0.616963
H40	H	1.496302	0.009219	0.775540
Br41	Br	1.174698	0.330616	0.799280
H42	H	1.228793	0.276501	0.616986
Br43	Br	1.133033	0.372154	0.406759
H44	H	1.187144	0.318058	0.224462
