data_functionalizedCrystal
_audit_creation_method	'MofGen! by Chris Wilmer'
_symmetry_space_group_name_H-M	'P1'
_symmetry_Int_Tables_number	1
_symmetry_cell_setting	triclinic
loop_
_symmetry_equiv_pos_as_xyz
  x,y,z
_cell_length_a	21.295417
_cell_length_b	21.295420
_cell_length_c	12.759393
_cell_angle_alpha	90.022717
_cell_angle_beta	89.960830
_cell_angle_gamma	89.972078
loop_
_atom_site_label
_atom_site_type_symbol
_atom_site_fract_x
_atom_site_fract_y
_atom_site_fract_z
Zn1	Zn	-0.250615	-0.962338	-0.594044
Zn2	Zn	-0.355900	-0.962245	-0.418341
Zn3	Zn	-0.250643	-0.857066	-0.418371
Zn4	Zn	-0.355846	-0.857030	-0.593969
O5	O	-0.303251	-0.909670	-0.506181
O6	O	-0.264592	-1.050415	-0.570755
O7	O	-0.341971	-0.948269	-0.271324
O8	O	-0.162550	-0.871084	-0.441718
O9	O	-0.341944	-1.050347	-0.441667
O10	O	-0.162530	-0.948427	-0.570784
O11	O	-0.264640	-0.870995	-0.271345
O12	O	-0.264588	-0.768972	-0.441645
O13	O	-0.341853	-0.871023	-0.741000
O14	O	-0.341880	-0.768946	-0.570657
O15	O	-0.264540	-0.948392	-0.741055
O16	O	-0.443982	-0.948235	-0.441595
O17	O	-0.443943	-0.870934	-0.570628
C18	C	-0.303232	-0.746118	-0.506147
C19	C	-0.303239	-0.676150	-0.506157
C20	C	-0.343560	-0.176695	-0.573274
C21	C	-0.343562	-0.242437	-0.573264
C22	C	-0.303256	-0.275311	-0.506198
C23	C	-0.262958	-0.242436	-0.439117
C24	C	-0.262962	-0.176695	-0.439121
N25	N	-0.248142	-0.378552	-0.498302
N26	N	-0.248139	-0.441003	-0.498304
C27	C	-0.303241	-0.473385	-0.506181
N28	N	-0.358347	-0.440957	-0.514075
N29	N	-0.358349	-0.378500	-0.514078
C30	C	-0.303247	-0.346596	-0.506186
C31	C	-0.343541	-0.577538	-0.573242
C32	C	-0.343544	-0.643281	-0.573225
C33	C	-0.262934	-0.643279	-0.439084
C34	C	-0.262938	-0.577536	-0.439095
C35	C	-0.303240	-0.544670	-0.506180
C36	C	-0.466803	-0.909587	-0.506123
C37	C	-0.536771	-0.909610	-0.506133
C38	C	-0.569637	-0.949896	-0.439014
C39	C	-0.635380	-0.949925	-0.439038
C40	C	-0.668253	-0.909657	-0.506170
C41	C	-0.635379	-0.869368	-0.573301
C42	C	-0.569638	-0.869344	-0.573283
N43	N	-0.771516	-0.854590	-0.514167
N44	N	-0.833967	-0.854615	-0.514178
C45	C	-0.866328	-0.909728	-0.506230
N46	N	-0.833878	-0.964817	-0.498249
N47	N	-0.771421	-0.964792	-0.498233
C48	C	-0.739539	-0.909679	-0.506197
C49	C	-0.970480	-0.950050	-0.439133
C50	C	-1.036223	-0.950080	-0.439164
C51	C	-1.036222	-0.869517	-0.573422
C52	C	-0.970479	-0.869492	-0.573396
C53	C	-0.937612	-0.909758	-0.506246
C54	C	-0.139061	-0.909770	-0.506263
C55	C	-0.069093	-0.909812	-0.506297
C56	C	-0.303188	-0.909714	-0.780215
C57	C	-0.303161	-0.909733	-0.896991
C58	C	-0.303267	-0.073860	-0.506210
C59	C	-0.303265	-0.143828	-0.506206
C60	C	-0.262900	-0.950024	-0.951884
C61	C	-0.262877	-0.950039	-1.061608
C62	C	-0.343381	-0.869469	-1.061538
C63	C	-0.343400	-0.869452	-0.951816
C64	C	-0.216424	-0.996543	-0.951925
C65	C	-0.216401	-0.996558	-1.061649
C66	C	-0.303269	-0.909662	-0.233214
C67	C	-0.303119	-0.909765	-0.116438
H68	H	-0.376359	-0.550776	-0.627865
H69	H	-0.167673	-0.983513	-0.922178
H70	H	-0.233903	-1.042836	-0.917891
H71	H	-0.229461	-1.045308	-1.091431
O72	O	-0.155043	-0.973482	-1.106777
H73	H	-0.122528	-0.961239	-1.041969
O74	O	-0.219469	-0.678721	-0.366726
H75	H	-0.170075	-0.666127	-0.384877
O76	O	-0.387004	-0.678734	-0.645574
H77	H	-0.436399	-0.666086	-0.627427
O78	O	-0.387135	-0.141244	-0.645445
H79	H	-0.415197	-0.175148	-0.692011
O80	O	-0.219468	-0.542080	-0.366770
H81	H	-0.191436	-0.575982	-0.320138
O82	O	-0.935022	-0.993484	-0.366726
H83	H	-0.968924	-1.021512	-0.320070
H84	H	-1.062987	-0.836733	-0.628086
O85	O	-0.386818	-0.825986	-0.892614
H86	H	-0.380068	-0.832735	-0.807106
O87	O	-0.219505	-0.141237	-0.366774
H88	H	-0.187514	-0.111305	-0.413890
H89	H	-0.542879	-0.982684	-0.384340
O90	O	-0.386779	-0.826026	-1.120676
H91	H	-0.414774	-0.798002	-1.064069
H92	H	-0.376375	-0.269203	-0.627883
H93	H	-1.062982	-0.982890	-0.384510
H94	H	-0.943718	-0.836685	-0.628046
H95	H	-0.230142	-0.269206	-0.384510
O96	O	-0.670841	-0.993373	-0.366634
H97	H	-0.636941	-1.021364	-0.319933
H98	H	-0.662149	-0.836583	-0.627962
H99	H	-0.542878	-0.836538	-0.627941
