data_functionalizedCrystal
_audit_creation_method	'MofGen! by Chris Wilmer'
_symmetry_space_group_name_H-M	'P1'
_symmetry_Int_Tables_number	1
_symmetry_cell_setting	triclinic
loop_
_symmetry_equiv_pos_as_xyz
  x,y,z
_cell_length_a	10.654550
_cell_length_b	9.130313
_cell_length_c	10.654550
_cell_angle_alpha	89.995631
_cell_angle_beta	95.515069
_cell_angle_gamma	90.000276
loop_
_atom_site_label
_atom_site_type_symbol
_atom_site_fract_x
_atom_site_fract_y
_atom_site_fract_z
O1	O	1.667839	0.121690	-0.176399
O2	O	1.302361	0.121716	-0.193205
O3	O	1.493503	0.121693	-0.002063
O4	O	1.476697	0.121713	-0.367541
O5	O	1.493490	-0.121906	-0.002057
O6	O	1.302348	-0.121882	-0.193199
O7	O	1.667826	-0.121909	-0.176393
Cu8	Cu	1.485086	-0.144138	-0.184796
Cu9	Cu	1.485101	0.143946	-0.184802
O10	O	1.476684	-0.121886	-0.367535
C11	C	1.255556	-0.000080	-0.191968
C12	C	1.116113	-0.000070	-0.188276
N13	N	1.485084	-0.346761	-0.184790
C14	C	1.036628	-0.000068	-0.300818
C15	C	0.905607	-0.000093	-0.297341
C16	C	0.933570	-0.000117	-0.068772
C17	C	1.064588	-0.000101	-0.072250
C18	C	1.569751	-0.423423	-0.100188
C19	C	1.569763	-0.576760	-0.100189
C20	C	1.400437	-0.576759	-0.269404
C21	C	1.400420	-0.423425	-0.269396
C22	C	1.714631	-0.000110	-0.177630
C23	C	1.854074	-0.000110	-0.181322
N24	N	1.485113	0.346568	-0.184798
C25	C	1.492263	-0.000105	0.044738
C26	C	1.488571	-0.000103	0.184181
C27	C	1.477925	-0.000084	-0.414336
C28	C	1.481616	-0.000077	-0.553779
C29	C	1.601112	-0.000111	0.263667
C30	C	1.597636	-0.000092	0.394688
C31	C	1.369066	-0.000065	0.366725
C32	C	1.372544	-0.000073	0.235706
H33	H	1.078574	-0.000053	-0.395294
F34	F	1.659874	-0.658344	-0.010142
H35	H	1.638687	-0.361007	-0.031295
H36	H	1.331468	-0.361002	-0.338290
F37	F	1.310339	-0.658360	-0.359447
F38	F	1.717418	-0.000098	0.479278
F39	F	1.724598	-0.000141	0.208835
F40	F	1.149188	-0.000113	0.047539
H41	H	1.280893	-0.000062	0.170985
F42	F	0.821017	-0.000094	-0.417124
F43	F	0.878722	-0.000144	0.054705
F44	F	1.245589	-0.000032	0.421573
