data_functionalizedCrystal
_audit_creation_method	'MofGen! by Chris Wilmer'
_symmetry_space_group_name_H-M	'P1'
_symmetry_Int_Tables_number	1
_symmetry_cell_setting	triclinic
loop_
_symmetry_equiv_pos_as_xyz
  x,y,z
_cell_length_a	19.121111
_cell_length_b	19.121102
_cell_length_c	19.119690
_cell_angle_alpha	95.029478
_cell_angle_beta	90.012116
_cell_angle_gamma	90.128329
loop_
_atom_site_label
_atom_site_type_symbol
_atom_site_fract_x
_atom_site_fract_y
_atom_site_fract_z
Zn1	Zn	0.305604	-1.080355	-0.456274
Zn2	Zn	0.427610	-1.070192	-0.343570
Zn3	Zn	0.305807	-0.957602	-0.333592
Zn4	Zn	0.417814	-0.958057	-0.455808
O5	O	0.364209	-1.016551	-0.397311
O6	O	0.325803	-1.177309	-0.445695
O7	O	0.415636	-1.050813	-0.243931
O8	O	0.207845	-0.977949	-0.345885
O9	O	0.415440	-1.169841	-0.362892
O10	O	0.207696	-1.068135	-0.436019
O11	O	0.326149	-0.968094	-0.236600
O12	O	0.316651	-0.859361	-0.345433
O13	O	0.398745	-0.978723	-0.554185
O14	O	0.398942	-0.859695	-0.435225
O15	O	0.316305	-1.068576	-0.554528
O16	O	0.524245	-1.051253	-0.362440
O17	O	0.517049	-0.968868	-0.444900
C18	C	0.546040	-1.009027	-0.404718
C19	C	0.623830	-1.005873	-0.407914
C20	C	0.356756	-0.834039	-0.389196
C21	C	0.353583	-0.755960	-0.385741
C22	C	0.356410	-1.024834	-0.580561
C23	C	0.353086	-1.028364	-0.658651
C24	C	0.664100	-1.047322	-0.366521
C25	C	0.737191	-1.044360	-0.369530
C26	C	0.770012	-0.999946	-0.413929
C27	C	0.729738	-0.958496	-0.455327
C28	C	0.656647	-0.961462	-0.452321
C29	C	0.990512	-0.988846	-0.425155
C30	C	1.063607	-0.985882	-0.428157
C31	C	1.071056	-1.071748	-0.342361
C32	C	0.997964	-1.074707	-0.339355
C33	C	0.957696	-1.033259	-0.380756
C34	C	0.844724	-0.996916	-0.417005
C35	C	0.882986	-1.036294	-0.377683
C36	C	1.181667	-1.024120	-0.389900
C37	C	1.103877	-1.027331	-0.386764
C38	C	0.371692	-1.199776	-0.405459
C39	C	0.374880	-1.277856	-0.408931
C40	C	0.395008	-0.719464	-0.430800
C41	C	0.392018	-0.646101	-0.427557
C42	C	0.347607	-0.609234	-0.379252
C43	C	0.306177	-0.645735	-0.334191
C44	C	0.309164	-0.719098	-0.337437
C45	C	0.336438	-0.387719	-0.367116
C46	C	0.333455	-0.314351	-0.363871
C47	C	0.419296	-0.314722	-0.457240
C48	C	0.422282	-0.388086	-0.460479
C49	C	0.380850	-0.424580	-0.415421
C50	C	0.344551	-0.534245	-0.375934
C51	C	0.383902	-0.499568	-0.418742
C52	C	0.371929	-1.008344	-0.214774
C53	C	0.375061	-1.004958	-0.136682
C54	C	0.394888	-0.983481	0.305010
C55	C	0.391956	-0.986665	0.231634
C56	C	0.347219	-1.034730	0.194598
C57	C	0.305416	-1.079618	0.230941
C58	C	0.308352	-1.076436	0.304316
C59	C	0.336193	-1.046664	-0.026964
C60	C	0.333259	-1.049841	-0.100343
C61	C	0.419801	-0.956889	-0.099645
C62	C	0.422729	-0.953709	-0.026269
C63	C	0.380929	-0.998599	0.010067
C64	C	0.344220	-1.037985	0.119596
C65	C	0.383933	-0.995347	0.085068
H66	H	0.637382	-1.083485	-0.330363
Cl67	Cl	0.770999	-0.902664	-0.511148
H68	H	0.431175	-0.749476	-0.470134
Cl69	Cl	0.478969	-0.893279	0.020286
H70	H	0.270013	-0.615713	-0.294862
Cl71	Cl	0.885991	-0.941082	-0.472818
H72	H	0.307794	-1.077118	0.089433
H73	H	0.297282	-0.284337	-0.324539
Cl74	Cl	0.841724	-1.092130	-0.321872
Cl75	Cl	0.288720	-0.487892	-0.315209
H76	H	1.103850	-1.105493	-0.308656
H77	H	0.431309	-0.944333	0.335161
Cl78	Cl	0.444515	-0.930244	0.185954
H79	H	0.769976	-1.078111	-0.335823
Cl80	Cl	0.257083	-0.764978	-0.280791
Cl81	Cl	0.444098	-0.600224	-0.484206
Cl82	Cl	0.606023	-0.909355	-0.504362
H83	H	0.420059	-0.529589	-0.458075
H84	H	0.453832	-0.920342	-0.129239
H85	H	0.302706	-0.417423	-0.330421
H86	H	0.296823	-1.088979	-0.130496
H87	H	0.971243	-1.110872	-0.303202
Cl88	Cl	0.283641	-1.103095	0.018707
Cl89	Cl	1.104867	-0.930033	-0.483968
Cl90	Cl	0.249179	-1.140046	0.184381
Cl91	Cl	0.440173	-0.934927	0.131629
Cl92	Cl	0.478118	-0.434427	-0.521207
Cl93	Cl	0.255802	-1.132865	0.349998
Cl94	Cl	0.939898	-0.936739	-0.477201
Cl95	Cl	0.471379	-0.268839	-0.513880
