data_functionalizedCrystal
_audit_creation_method	'MofGen! by Chris Wilmer'
_symmetry_space_group_name_H-M	'P1'
_symmetry_Int_Tables_number	1
_symmetry_cell_setting	triclinic
loop_
_symmetry_equiv_pos_as_xyz
  x,y,z
_cell_length_a	16.994747
_cell_length_b	19.805407
_cell_length_c	19.805399
_cell_angle_alpha	90.019573
_cell_angle_beta	90.018612
_cell_angle_gamma	90.002465
loop_
_atom_site_label
_atom_site_type_symbol
_atom_site_fract_x
_atom_site_fract_y
_atom_site_fract_z
Zn1	Zn	-0.314046	1.034848	0.382762
Zn2	Zn	-0.445954	1.034810	0.269591
Zn3	Zn	-0.314068	0.921663	0.269586
Zn4	Zn	-0.445912	0.921674	0.382738
O5	O	-0.379995	0.978249	0.326169
O6	O	-0.331553	1.129560	0.367762
O7	O	-0.428486	1.019781	0.174874
O8	O	-0.203684	0.936689	0.284607
O9	O	-0.428465	1.129532	0.284616
O10	O	-0.203668	1.019845	0.367757
O11	O	-0.331590	0.936652	0.174871
O12	O	-0.331549	0.826948	0.284584
O13	O	-0.428393	0.936707	0.477458
O14	O	-0.428414	0.826956	0.367716
O15	O	-0.331512	1.019856	0.477475
O16	O	-0.556330	1.019791	0.284593
O17	O	-0.556299	0.936670	0.367721
C18	C	-0.379980	0.802393	0.326148
C19	C	-0.379993	0.727161	0.326154
C20	C	-0.084935	0.978282	0.326182
C21	C	-0.174257	0.978275	0.326181
C22	C	-0.430506	0.691839	0.369371
C23	C	-0.430508	0.621150	0.369381
C24	C	-0.379999	0.585785	0.326169
C25	C	-0.329479	0.621113	0.282951
C26	C	-0.329475	0.691800	0.282945
C27	C	-0.329497	0.336039	0.282973
C28	C	-0.329507	0.265347	0.282981
C29	C	-0.430530	0.265390	0.369409
C30	C	-0.430525	0.336077	0.369403
C31	C	-0.380003	0.371398	0.326187
C32	C	-0.380001	0.448046	0.326178
C33	C	-0.380004	0.509138	0.326174
C34	C	-0.584935	0.978236	0.326153
C35	C	-0.674257	0.978252	0.326130
Zn36	Zn	0.185916	1.034709	0.269441
Zn37	Zn	0.185970	0.921820	0.382835
Zn38	Zn	0.054111	1.034990	0.382625
Zn39	Zn	0.054023	0.921557	0.269698
O40	O	0.120005	0.978269	0.326150
O41	O	0.296304	1.019726	0.284462
O42	O	0.168538	0.937060	0.477523
O43	O	0.071608	1.129669	0.367416
O44	O	0.296344	0.936787	0.367773
O45	O	0.168445	1.129462	0.284259
O46	O	0.071661	1.020206	0.477370
O47	O	-0.056282	1.019951	0.367666
O48	O	0.071460	0.936340	0.174947
O49	O	-0.056346	0.936612	0.284698
O50	O	0.168360	1.019471	0.174758
O51	O	0.168453	0.827069	0.368022
O52	O	0.071512	0.826876	0.284901
C53	C	-0.379945	0.978287	0.502712
C54	C	-0.379924	0.978303	0.577944
C55	C	-0.380011	1.154792	0.326192
C56	C	-0.380018	1.230024	0.326201
C57	C	-0.379988	0.978250	0.150313
C58	C	-0.379787	0.978365	0.075082
C59	C	-0.329476	1.021600	0.613299
C60	C	-0.329453	1.021607	0.683987
C61	C	-0.379883	0.978320	0.719320
C62	C	-0.430334	0.935018	0.683961
C63	C	-0.430352	0.935009	0.613273
C64	C	-0.430260	0.935057	0.969034
C65	C	-0.430240	0.935071	1.039726
C66	C	-0.329361	1.021655	1.039748
C67	C	-0.329379	1.021645	0.969061
C68	C	-0.379827	0.978341	0.933707
C69	C	-0.379850	0.978333	0.857059
C70	C	-0.379865	0.978331	0.795967
C71	C	0.119981	0.802414	0.326514
C72	C	0.119994	0.727182	0.326690
C73	C	0.119894	0.977845	0.149607
C74	C	0.119847	0.977664	0.074375
C75	C	0.120030	1.154811	0.325786
C76	C	0.120041	1.230043	0.325630
C77	C	0.120159	0.978739	0.502005
C78	C	0.120354	0.979107	0.577236
C79	C	0.170520	0.691973	0.370014
C80	C	0.170547	0.621284	0.370179
C81	C	0.120045	0.585807	0.327023
C82	C	0.069518	0.621021	0.283694
C83	C	0.069495	0.691708	0.283526
C84	C	0.170276	1.020867	0.038943
C85	C	0.170231	1.020711	-0.031745
C86	C	0.119761	0.977348	-0.067000
C87	C	0.069327	0.934143	-0.031563
C88	C	0.069368	0.934303	0.039124
C89	C	0.069623	1.265484	0.368853
C90	C	0.069618	1.336172	0.368707
C91	C	0.120035	1.371418	0.325342
C92	C	0.170456	1.335972	0.282115
C93	C	0.170457	1.265285	0.282258
C94	C	0.069642	1.022259	0.612457
C95	C	0.069825	1.022618	0.683145
C96	C	0.120718	0.979821	0.718610
C97	C	0.171435	0.936667	0.683384
C98	C	0.171255	0.936312	0.612698
H99	H	-0.471642	0.592394	0.404571
N100	N	0.120078	0.509566	0.327205
H101	H	0.159751	0.492649	0.361202
H102	H	0.065967	0.492608	0.339716
N103	N	0.014755	1.068430	0.574216
H104	H	0.022495	1.061809	0.524089
H105	H	-0.041470	1.057483	0.586563
H106	H	0.120027	1.428976	0.325233
H107	H	0.211647	0.720849	0.405158
H108	H	-0.471392	0.899771	0.712734
N109	N	0.015119	1.069161	0.721129
H110	H	-0.017152	1.096211	0.687932
H111	H	-0.021077	1.041532	0.750646
H112	H	0.211505	1.364680	0.246808
N113	N	-0.484635	0.888381	1.077838
H114	H	-0.516595	0.860946	1.044716
H115	H	-0.452512	0.857071	1.107165
N116	N	0.015238	1.227474	0.415624
H117	H	0.027512	1.239893	0.463958
H118	H	-0.041102	1.239768	0.405031
N119	N	-0.275092	1.068296	0.575192
H120	H	-0.238543	1.040796	0.545856
H121	H	-0.307225	1.099642	0.545912
N122	N	-0.484988	0.729975	0.415979
H123	H	-0.452981	0.759317	0.447388
H124	H	-0.521489	0.759251	0.388370
N125	N	-0.274987	0.729901	0.236338
H126	H	-0.242990	0.696773	0.208964
H127	H	-0.307040	0.759220	0.204966
H128	H	0.211304	1.055893	-0.060588
H129	H	0.211518	1.236435	0.247062
H130	H	-0.471664	0.236623	0.404600
H131	H	0.120857	0.980117	0.776167
H132	H	-0.288374	1.056865	0.712769
H133	H	0.028235	0.898839	-0.060279
H134	H	0.212870	0.901823	0.712271
N135	N	0.225958	0.889770	0.574714
H136	H	0.258222	0.862716	0.607912
H137	H	0.194042	0.858100	0.545583
H138	H	0.211380	1.056177	0.067639
H139	H	0.028402	0.592125	0.248557
H140	H	-0.471425	0.899745	0.584489
H141	H	0.211693	0.592623	0.405465
H142	H	-0.471657	0.364867	0.404588
H143	H	-0.288365	0.364789	0.247779
H144	H	-0.288372	0.236555	0.247793
H145	H	-0.288351	0.592313	0.247770
H146	H	-0.288316	1.056895	0.940296
N147	N	0.014991	0.729675	0.236796
H148	H	-0.041344	0.717380	0.247393
H149	H	0.022697	0.779827	0.243251
H150	H	0.028304	0.899119	0.067967
N151	N	0.015234	1.374394	0.415333
H152	H	-0.016697	1.341336	0.442829
H153	H	0.047361	1.403800	0.446590
H154	H	-0.288281	1.056912	1.068541
N155	N	-0.484643	0.888331	0.930908
H156	H	-0.516579	0.860906	0.964020
H157	H	-0.521167	0.915848	0.901567
N158	N	0.119721	0.977179	-0.143241
H159	H	0.159330	1.011129	-0.160332
H160	H	0.134183	0.930686	-0.160128
