data_functionalizedCrystal
_audit_creation_method	'MofGen! by Chris Wilmer'
_symmetry_space_group_name_H-M	'P1'
_symmetry_Int_Tables_number	1
_symmetry_cell_setting	triclinic
loop_
_symmetry_equiv_pos_as_xyz
  x,y,z
_cell_length_a	10.654556
_cell_length_b	11.792254
_cell_length_c	9.130313
_cell_angle_alpha	89.998555
_cell_angle_beta	89.999332
_cell_angle_gamma	84.343003
loop_
_atom_site_label
_atom_site_type_symbol
_atom_site_fract_x
_atom_site_fract_y
_atom_site_fract_z
O1	O	1.667387	0.159447	-0.121815
O2	O	1.301867	0.174628	-0.121815
O3	O	1.493489	0.001889	-0.121804
O4	O	1.475765	0.332186	-0.121825
O5	O	1.493486	0.001893	0.121794
O6	O	1.301865	0.174633	0.121784
O7	O	1.667384	0.159452	0.121784
Cu8	Cu	1.484624	0.167043	0.144027
Cu9	Cu	1.484627	0.167037	-0.144057
O10	O	1.475763	0.332191	0.121774
C11	C	1.255071	0.173514	-0.000015
C12	C	1.115637	0.170175	-0.000015
C13	C	0.919122	0.165473	-0.132812
C14	C	1.050135	0.168604	-0.132806
C15	C	1.050121	0.168603	0.132779
C16	C	0.919111	0.165464	0.132771
C17	C	0.919130	0.165479	-0.286146
C18	C	1.050144	0.168610	-0.286140
C19	C	1.492371	-0.040402	-0.000005
C20	C	1.489029	-0.166423	-0.000007
C21	C	1.486314	-0.268766	-0.000012
C22	C	1.482919	-0.397161	-0.000026
C23	C	1.714180	0.160565	-0.000019
C24	C	1.853614	0.163905	-0.000029
C25	C	1.476880	0.374482	-0.000029
C26	C	1.480222	0.500503	-0.000037
N27	N	1.484631	0.167046	0.346649
N28	N	1.484630	0.167025	-0.346680
C29	C	1.569503	0.090583	0.423306
C30	C	1.569500	0.090569	0.576643
C31	C	1.399749	0.243491	0.576653
C32	C	1.399747	0.243499	0.423319
C33	C	1.667512	0.002298	0.423301
C34	C	1.667508	0.002284	0.576638
H35	H	1.074755	0.248756	-0.345002
H36	H	0.867201	0.246312	-0.333728
H37	H	1.330627	0.305751	0.360906
Br38	Br	1.284550	0.347241	0.680712
H39	H	0.865782	0.164163	0.240896
H40	H	1.646311	-0.084943	0.381686
Br41	Br	1.819349	0.048395	0.344015
H42	H	1.637224	-0.080158	0.624190
H43	H	1.103465	0.169872	0.240900
H44	H	0.894529	0.085339	-0.345019
H45	H	1.102075	0.087772	-0.333714
H46	H	1.763965	0.021733	0.618253
