data_functionalizedCrystal
_audit_creation_method	'MofGen! by Chris Wilmer'
_symmetry_space_group_name_H-M	'P1'
_symmetry_Int_Tables_number	1
_symmetry_cell_setting	triclinic
loop_
_symmetry_equiv_pos_as_xyz
  x,y,z
_cell_length_a	27.732048
_cell_length_b	14.519709
_cell_length_c	13.596369
_cell_angle_alpha	89.999709
_cell_angle_beta	89.989067
_cell_angle_gamma	96.838600
loop_
_atom_site_label
_atom_site_type_symbol
_atom_site_fract_x
_atom_site_fract_y
_atom_site_fract_z
O1	O	0.063362	-1.222766	-0.081675
O2	O	0.563362	-0.722766	0.418325
O3	O	0.070824	-0.954159	-0.081706
O4	O	0.570824	-0.454159	0.418294
O5	O	-0.003264	-1.096805	-0.081671
O6	O	0.496736	-0.596805	0.418329
O7	O	0.137450	-1.080120	-0.081710
O8	O	0.637450	-0.580120	0.418290
O9	O	-0.003268	-1.096791	0.081912
O10	O	0.496732	-0.596791	0.581912
O11	O	0.070820	-0.954145	0.081877
O12	O	0.570820	-0.454145	0.581877
O13	O	0.063358	-1.222752	0.081908
O14	O	0.563358	-0.722752	0.581908
Zn15	Zn	0.067088	-1.088446	0.107865
Zn16	Zn	0.567088	-0.588446	0.607865
Zn17	Zn	0.067094	-1.088465	-0.107663
Zn18	Zn	0.567094	-0.588465	0.392337
O19	O	0.137446	-1.080106	0.081873
O20	O	0.637446	-0.580106	0.581873
C21	C	0.070474	-0.919799	0.000082
C22	C	0.570474	-0.419799	0.500082
C23	C	0.069432	-0.817435	0.000071
C24	C	0.569432	-0.317435	0.500071
C25	C	-0.021274	-1.096448	0.000124
C26	C	0.478726	-0.596448	0.500124
C27	C	-0.074934	-1.095393	0.000132
C28	C	0.425066	-0.595393	0.500132
C29	C	0.063708	-1.257113	0.000119
C30	C	0.563708	-0.757113	0.500119
C31	C	0.064750	-1.359476	0.000123
C32	C	0.564750	-0.859476	0.500123
C33	C	-0.413378	-1.173048	0.000090
C34	C	0.086622	-0.673048	0.500090
C35	C	-0.615057	-1.169135	0.000076
C36	C	-0.115057	-0.669135	0.500076
O37	O	-0.645973	-1.240145	0.000041
O38	O	-0.145973	-0.740145	0.500041
N39	N	-0.634585	-1.084552	0.000067
N40	N	-0.134585	-0.584552	0.500067
C41	C	-0.603690	-1.000941	0.000055
C42	C	-0.103690	-0.500941	0.500055
O43	O	-0.624927	-0.928909	0.000037
O44	O	-0.124927	-0.428909	0.500037
C45	C	-0.402012	-1.004855	0.000062
C46	C	0.097988	-0.504855	0.500062
C47	C	-0.382487	-1.089444	0.000081
C48	C	0.117513	-0.589444	0.500081
C49	C	-0.393853	-1.257630	0.000108
C50	C	0.106147	-0.757630	0.500108
C51	C	-0.343436	-1.258607	0.000117
C52	C	0.156564	-0.758607	0.500117
C53	C	-0.312545	-1.175003	0.000108
C54	C	0.187455	-0.675003	0.500108
C55	C	-0.332071	-1.090421	0.000090
C56	C	0.167929	-0.590421	0.500090
C57	C	-0.371118	-0.921246	0.000043
C58	C	0.128882	-0.421246	0.500043
C59	C	-0.320696	-0.922232	0.000043
C60	C	0.179304	-0.422232	0.500043
C61	C	-0.301171	-1.006820	0.000062
C62	C	0.198829	-0.506820	0.500062
C63	C	-0.250763	-1.007794	0.000090
C64	C	0.249237	-0.507794	0.500090
N65	N	-0.231235	-1.092377	0.000099
N66	N	0.268765	-0.592377	0.500099
C67	C	-0.262126	-1.175981	0.000108
C68	C	0.237874	-0.675981	0.500108
C69	C	-0.709574	-0.998893	0.000053
C70	C	-0.209574	-0.498893	0.500053
C71	C	-0.759993	-0.997914	0.000053
C72	C	-0.259993	-0.497914	0.500053
C73	C	-0.771356	-1.166108	0.000072
C74	C	-0.271356	-0.666108	0.500072
C75	C	-0.720936	-1.167086	0.000079
C76	C	-0.220936	-0.667086	0.500079
C77	C	-0.690045	-1.083476	0.000062
C78	C	-0.190045	-0.583476	0.500062
C79	C	-0.156247	-1.178028	0.000128
C80	C	0.343753	-0.678028	0.500128
C81	C	-0.105825	-1.178998	0.000141
C82	C	0.394175	-0.678998	0.500141
C83	C	-0.094466	-1.010804	0.000116
C84	C	0.405534	-0.510804	0.500116
C85	C	-0.144883	-1.009833	0.000109
C86	C	0.355117	-0.509833	0.500109
C87	C	-0.175773	-1.093453	0.000111
C88	C	0.324227	-0.593453	0.500111
O89	O	-0.219818	-0.936822	0.000114
O90	O	0.280182	-0.436822	0.500114
O91	O	-0.240879	-1.248004	0.000104
O92	O	0.259121	-0.748004	0.500104
C93	C	-0.463795	-1.172071	0.000081
C94	C	0.036205	-0.672071	0.500081
C95	C	-0.483320	-1.087489	0.000063
C96	C	0.016680	-0.587489	0.500063
C97	C	-0.452429	-1.003885	0.000054
C98	C	0.047571	-0.503885	0.500054
C99	C	-0.533740	-1.086510	0.000063
C100	C	-0.033740	-0.586510	0.500063
C101	C	-0.564631	-1.170115	0.000072
C102	C	-0.064631	-0.670115	0.500072
C103	C	-0.545103	-1.254698	0.000081
C104	C	-0.045103	-0.754698	0.500081
C105	C	-0.494686	-1.255675	0.000090
C106	C	0.005314	-0.755675	0.500090
C107	C	-0.471957	-0.919302	0.000046
C108	C	0.028043	-0.419302	0.500046
C109	C	-0.522375	-0.918331	0.000038
C110	C	-0.022375	-0.418331	0.500038
C111	C	-0.553266	-1.001936	0.000047
C112	C	-0.053266	-0.501936	0.500047
C113	C	0.155456	-1.080464	0.000077
C114	C	0.655456	-0.580464	0.500077
C115	C	0.209116	-1.081518	0.000062
C116	C	0.709116	-0.581518	0.500062
N117	N	0.067085	-1.088441	0.254957
N118	N	0.567085	-0.588441	0.754957
C119	C	0.065596	-0.442606	0.000116
C120	C	0.565596	0.057394	0.500116
C121	C	0.066661	-0.546896	0.000103
C122	C	0.566661	-0.046896	0.500103
C123	C	0.067514	-0.630018	0.000093
C124	C	0.567514	-0.130018	0.500093
C125	C	0.068579	-0.734314	0.000081
C126	C	0.568579	-0.234314	0.500081
N127	N	0.067094	-1.088478	-0.254754
N128	N	0.567094	-0.588478	0.245246
C129	C	0.067094	-1.088464	0.656248
C130	C	0.567094	-0.588464	1.156248
C131	C	0.067093	-1.088454	0.544596
C132	C	0.567093	-0.588454	1.044596
C133	C	0.067090	-1.088453	0.455606
C134	C	0.567090	-0.588453	0.955606
C135	C	0.067088	-1.088442	0.343947
C136	C	0.567088	-0.588442	0.843947
H137	H	-0.089931	-1.247882	0.000158
H138	H	0.410069	-0.747882	0.500158
H139	H	-0.419000	-1.325714	0.000112
H140	H	0.081000	-0.825714	0.500112
O141	O	-0.186297	-1.259194	0.000265
O142	O	0.313703	-0.759194	0.500265
C143	C	-0.215803	-1.263669	0.084997
C144	C	0.284197	-0.763669	0.584997
H145	H	-0.218432	-1.190506	0.113227
H146	H	0.281568	-0.690506	0.613227
H147	H	-0.253659	-1.298589	0.065946
H148	H	0.246341	-0.798589	0.565946
H149	H	-0.199178	-1.305530	0.144332
H150	H	0.300822	-0.805530	0.644332
H151	H	-0.796516	-1.234182	0.000080
H152	H	-0.296516	-0.734182	0.500080
O153	O	-0.778980	-0.915769	0.000218
O154	O	-0.278980	-0.415769	0.500218
C155	C	-0.807822	-0.910162	0.084923
C156	C	-0.307822	-0.410162	0.584923
H157	H	-0.795862	-0.958173	0.144149
H158	H	-0.295862	-0.458173	0.644149
H159	H	-0.803366	-0.835769	0.113347
H160	H	-0.303366	-0.335769	0.613347
H161	H	-0.847559	-0.932008	0.065770
H162	H	-0.347559	-0.432008	0.565770
O163	O	-0.702052	-1.249335	0.000044
O164	O	-0.202052	-0.749335	0.500044
C165	C	-0.740135	-1.322910	0.000080
C166	C	-0.240135	-0.822910	0.500080
H167	H	-0.774405	-1.297552	-0.030887
H168	H	-0.274405	-0.797552	0.469113
H169	H	-0.729543	-1.382015	-0.047409
H170	H	-0.229543	-0.882015	0.452591
H171	H	-0.747250	-1.348658	0.078562
H172	H	-0.247250	-0.848658	0.578562
H173	H	-0.538266	-0.849444	0.000031
H174	H	-0.038266	-0.349444	0.500031
H175	H	-0.446810	-0.851220	0.000036
H176	H	0.053190	-0.351220	0.500036
H177	H	-0.684426	-0.930803	0.000040
H178	H	-0.184426	-0.430803	0.500040
H179	H	-0.327544	-1.327488	0.000128
H180	H	0.172456	-0.827488	0.500128
H181	H	-0.387006	-0.852365	0.000022
H182	H	0.112994	-0.352365	0.500022
O183	O	-0.575135	-1.335888	-0.000087
O184	O	-0.075135	-0.835888	0.499913
C185	C	-0.604636	-1.340336	-0.084801
C186	C	-0.104636	-0.840336	0.415199
H187	H	-0.586205	-1.292915	-0.144015
H188	H	-0.086205	-0.792915	0.355985
H189	H	-0.610237	-1.414703	-0.113235
H190	H	-0.110237	-0.914703	0.386765
H191	H	-0.641321	-1.316989	-0.065655
H192	H	-0.141321	-0.816989	0.434345
O193	O	-0.163832	-0.927645	-0.000079
O194	O	0.336168	-0.427645	0.499921
C195	C	-0.148029	-0.876726	-0.084792
C196	C	0.351971	-0.376726	0.415208
H197	H	-0.137483	-0.926208	-0.143992
H198	H	0.362517	-0.426208	0.356008
H199	H	-0.178604	-0.837942	-0.113251
H200	H	0.321396	-0.337942	0.386749
H201	H	-0.115223	-0.824854	-0.065636
H202	H	0.384777	-0.324854	0.434364
H203	H	-0.295547	-0.854144	0.000027
H204	H	0.204453	-0.354144	0.500027
O205	O	-0.064385	-0.929679	0.000063
O206	O	0.435615	-0.429679	0.500063
C207	C	-0.015699	-0.948691	0.000094
C208	C	0.484301	-0.448691	0.500094
H209	H	-0.013699	-1.021105	-0.030858
H210	H	0.486301	-0.521105	0.469142
H211	H	0.007101	-0.895369	-0.047410
H212	H	0.507101	-0.395369	0.452590
H213	H	-0.001129	-0.944972	0.078573
H214	H	0.498871	-0.444972	0.578573
O215	O	-0.475803	-1.337926	0.000058
O216	O	0.024197	-0.837926	0.500058
C217	C	-0.513888	-1.411497	0.000088
C218	C	-0.013888	-0.911497	0.500088
H219	H	-0.548156	-1.386136	-0.030886
H220	H	-0.048156	-0.886136	0.469114
H221	H	-0.503296	-1.470604	-0.047398
H222	H	-0.003296	-0.970604	0.452602
H223	H	-0.521008	-1.437244	0.078570
H224	H	-0.021008	-0.937244	0.578570
