data_functionalizedCrystal
_audit_creation_method	'MofGen! by Chris Wilmer'
_symmetry_space_group_name_H-M	'P1'
_symmetry_Int_Tables_number	1
_symmetry_cell_setting	triclinic
loop_
_symmetry_equiv_pos_as_xyz
  x,y,z
_cell_length_a	10.723022
_cell_length_b	23.532357
_cell_length_c	9.198806
_cell_angle_alpha	89.991292
_cell_angle_beta	89.996352
_cell_angle_gamma	83.647759
loop_
_atom_site_label
_atom_site_type_symbol
_atom_site_fract_x
_atom_site_fract_y
_atom_site_fract_z
O1	O	1.654669	0.079868	-0.120903
O2	O	1.291276	0.087515	-0.120910
O3	O	1.483963	0.000829	-0.120876
O4	O	1.461982	0.166554	-0.120936
O5	O	1.483948	0.000829	0.120909
O6	O	1.291260	0.087514	0.120875
O7	O	1.654654	0.079868	0.120882
Cu8	Cu	1.472956	0.083691	0.142956
Cu9	Cu	1.472974	0.083691	-0.142983
O10	O	1.461967	0.166554	0.120849
C11	C	1.244786	0.086958	-0.000017
C12	C	1.106284	0.085294	-0.000019
C13	C	1.059300	0.035305	-0.000001
C14	C	0.916151	0.033584	-0.000003
C15	C	1.483406	-0.020391	0.000021
C16	C	1.481753	-0.083621	0.000035
C17	C	1.471383	-0.475699	-0.131841
C18	C	1.469812	-0.535109	-0.131849
O19	O	1.468964	-0.565830	-0.243938
N20	N	1.469024	-0.564825	-0.000054
C21	C	1.469796	-0.535128	0.131758
O22	O	1.468980	-0.565859	0.243859
C23	C	1.471358	-0.475719	0.131765
C24	C	1.472158	-0.446006	-0.000039
C25	C	1.472182	-0.445986	-0.263634
C26	C	1.473756	-0.386581	-0.263625
C27	C	1.474531	-0.356888	-0.131823
C28	C	1.473732	-0.386601	-0.000030
C29	C	1.472120	-0.446022	0.263575
C30	C	1.473682	-0.386609	0.263571
C31	C	1.474482	-0.356897	0.131767
C32	C	1.476080	-0.297503	0.131781
N33	N	1.476868	-0.267786	-0.000015
C34	C	1.476093	-0.297479	-0.131817
C35	C	1.466512	-0.659891	0.131734
C36	C	1.464959	-0.719299	0.131728
C37	C	1.464973	-0.719276	-0.131880
C38	C	1.466535	-0.659867	-0.131873
C39	C	1.467300	-0.630174	-0.000062
C40	C	1.479399	-0.172724	-0.131788
C41	C	1.480978	-0.113313	-0.131767
C42	C	1.480957	-0.113342	0.131840
C43	C	1.479385	-0.172747	0.131820
C44	C	1.478601	-0.202436	-0.000006
O45	O	1.476924	-0.266743	0.243812
O46	O	1.476892	-0.266740	-0.243899
C47	C	1.701144	0.080424	-0.000013
C48	C	1.839646	0.082089	-0.000021
C49	C	1.462524	0.187774	-0.000051
C50	C	1.464177	0.251003	-0.000075
N51	N	1.472952	0.083691	0.344070
N52	N	1.472987	0.083688	-0.344097
C53	C	1.553861	0.047133	0.416281
C54	C	1.553881	0.047131	0.583693
H55	H	1.040532	0.126817	-0.000041
Cl56	Cl	1.481987	-0.075964	-0.297476
H57	H	1.471471	-0.470204	0.370904
Cl58	Cl	0.902099	0.148174	-0.000033
H59	H	1.474286	-0.362436	0.370910
Cl60	Cl	1.160807	-0.028806	0.000019
Cl61	Cl	1.463988	-0.756614	-0.297575
H62	H	1.478745	-0.196941	0.239145
Cl63	Cl	1.481931	-0.076003	0.297525
H64	H	1.403719	0.114989	0.593814
H65	H	1.623113	0.015834	0.354167
H66	H	1.623155	0.015835	0.645792
Cl67	Cl	0.853690	-0.032499	0.000032
Cl68	Cl	1.478417	-0.210038	-0.297514
Cl69	Cl	1.366016	0.132010	0.439962
Cl70	Cl	1.471210	-0.483304	-0.429351
Cl71	Cl	1.474750	-0.349236	-0.429331
Cl72	Cl	1.467537	-0.622520	-0.297575
H73	H	1.464326	-0.743487	0.239056
H74	H	1.467139	-0.635719	0.239077
