data_functionalizedCrystal
_audit_creation_method	'MofGen! by Chris Wilmer'
_symmetry_space_group_name_H-M	'P1'
_symmetry_Int_Tables_number	1
_symmetry_cell_setting	triclinic
loop_
_symmetry_equiv_pos_as_xyz
  x,y,z
_cell_length_a	13.101039
_cell_length_b	16.109301
_cell_length_c	16.109301
_cell_angle_alpha	96.538519
_cell_angle_beta	86.640098
_cell_angle_gamma	86.646051
loop_
_atom_site_label
_atom_site_type_symbol
_atom_site_fract_x
_atom_site_fract_y
_atom_site_fract_z
O1	O	0.085153	-1.107703	0.102280
O2	O	0.585153	-0.607703	0.602280
O3	O	0.085169	-0.865642	0.115579
O4	O	0.585169	-0.365642	0.615579
O5	O	0.085150	-0.993322	-0.012101
O6	O	0.585150	-0.493322	0.487899
O7	O	0.085172	-0.980024	0.229960
O8	O	0.585172	-0.480024	0.729960
O9	O	-0.085278	-0.984161	-0.002925
O10	O	0.414722	-0.484161	0.497075
O11	O	-0.085259	-0.856482	0.124755
O12	O	0.414741	-0.356482	0.624755
O13	O	-0.085276	-1.098543	0.111456
O14	O	0.414724	-0.598543	0.611456
Zn15	Zn	-0.112327	-0.976058	0.119563
Zn16	Zn	0.387673	-0.476058	0.619563
Zn17	Zn	0.112220	-0.988127	0.107473
Zn18	Zn	0.612220	-0.488127	0.607473
O19	O	-0.085257	-0.970863	0.239136
O20	O	0.414743	-0.470863	0.739136
C21	C	-0.000043	-0.830087	0.119628
C22	C	0.499957	-0.330087	0.619628
C23	C	-0.000037	-0.737792	0.118013
C24	C	0.499963	-0.237792	0.618013
N25	N	-0.265574	-0.967826	0.127813
N26	N	0.234426	-0.467826	0.627813
C27	C	-0.000065	-0.988203	-0.038488
C28	C	0.499935	-0.488203	0.461512
C29	C	-0.000066	-0.986588	-0.130783
C30	C	0.499934	-0.486588	0.369217
C31	C	-0.474615	-0.956627	0.139046
C32	C	0.025385	-0.456627	0.639046
C33	C	-0.525498	-1.007562	0.087986
C34	C	-0.025498	-0.507562	0.587986
C35	C	-0.641816	-1.001330	0.094236
C36	C	-0.141816	-0.501330	0.594236
C37	C	-0.358287	-0.962858	0.132797
C38	C	0.141713	-0.462858	0.632797
N39	N	0.265467	-0.996365	0.099216
N40	N	0.765467	-0.496365	0.599216
C41	C	-0.000061	-1.134098	0.107407
C42	C	0.499939	-0.634098	0.607407
C43	C	-0.000061	-1.226393	0.109022
C44	C	0.499939	-0.726393	0.609022
C45	C	-0.000042	-0.515520	0.190021
C46	C	0.499958	-0.015520	0.690021
C47	C	-0.000049	-0.428799	0.188497
C48	C	0.499951	0.071201	0.688497
C49	C	-0.000058	-0.448673	0.037009
C50	C	0.499942	0.051327	0.537009
C51	C	-0.000059	-0.535391	0.038534
C52	C	0.499941	-0.035391	0.538534
C53	C	-0.000046	-0.568812	0.115042
C54	C	0.499954	-0.068812	0.615042
C55	C	-0.000052	-0.395373	0.111993
C56	C	0.499948	0.104627	0.611993
C57	C	-0.000059	-0.301347	0.110340
C58	C	0.499941	0.198653	0.610340
C59	C	-0.000040	-0.662845	0.116695
C60	C	0.499960	-0.162845	0.616695
C61	C	-0.000055	-1.058596	-0.353056
C62	C	0.499945	-0.558596	0.146944
C63	C	-0.000046	-1.057072	-0.439777
C64	C	0.499954	-0.557072	0.060223
C65	C	-0.000040	-0.905584	-0.419903
C66	C	0.499960	-0.405584	0.080097
C67	C	-0.000041	-0.907109	-0.333184
C68	C	0.499959	-0.407109	0.166816
C69	C	-0.000054	-0.983617	-0.299763
C70	C	0.499946	-0.483617	0.200237
C71	C	-0.000044	-0.980569	-0.473202
C72	C	0.499956	-0.480569	0.026798
C73	C	-0.000035	-0.978916	-0.567229
C74	C	0.499965	-0.478916	-0.067229
C75	C	-0.000061	-0.985270	-0.205730
C76	C	0.499939	-0.485270	0.294270
C77	C	-0.000040	-0.975982	0.265523
C78	C	0.499960	-0.475982	0.765523
C79	C	-0.000032	-0.977598	0.357818
C80	C	0.499968	-0.477598	0.857818
H81	H	-0.481703	-1.055848	0.039579
H82	H	0.018297	-0.555848	0.539579
H83	H	-0.000065	-0.578785	-0.022527
H84	H	0.499935	-0.078785	0.477473
H85	H	-0.000063	-1.120894	-0.325848
H86	H	0.499937	-0.620894	0.174152
H87	H	-0.518405	-0.908345	0.187451
H88	H	-0.018405	-0.408345	0.687451
C89	C	-0.000068	-1.206962	-0.450704
C90	C	0.499932	-0.706962	0.049296
C91	C	-0.000054	-1.139492	-0.498356
C92	C	0.499946	-0.639492	0.001644
H93	H	-0.000079	-1.257845	-0.486870
H94	H	0.499921	-0.757845	0.013130
H95	H	0.059359	-1.207601	-0.419664
H96	H	0.559359	-0.707601	0.080336
H97	H	-0.059506	-1.201203	-0.413269
H98	H	0.440494	-0.701203	0.086731
H99	H	0.059388	-1.145248	-0.535787
H100	H	0.559388	-0.645248	-0.035787
H101	H	-0.059488	-1.138853	-0.529411
H102	H	0.440512	-0.638853	-0.029411
H103	H	-0.000039	-0.542727	0.252319
H104	H	0.499961	-0.042727	0.752319
C105	C	-0.000024	-0.417872	0.338386
C106	C	0.499976	0.082128	0.838386
C107	C	-0.000038	-0.370219	0.270916
C108	C	0.499962	0.129781	0.770916
H109	H	-0.000011	-0.381706	0.389269
H110	H	0.499989	0.118294	0.889269
H111	H	-0.059452	-0.448915	0.339031
H112	H	0.440548	0.051085	0.839031
H113	H	0.059413	-0.455303	0.332622
H114	H	0.559413	0.044697	0.832622
H115	H	-0.059479	-0.332793	0.276678
H116	H	0.440521	0.167207	0.776678
H117	H	0.059396	-0.339162	0.270272
H118	H	0.559396	0.160838	0.770272
H119	H	-0.000031	-0.843293	-0.447125
H120	H	0.499969	-0.343293	0.052875
C121	C	-0.000051	-0.324563	-0.032594
C122	C	0.499949	0.175437	0.467406
C123	C	-0.000059	-0.411933	-0.047087
C124	C	0.499941	0.088067	0.452913
H125	H	-0.000043	-0.301886	-0.084514
H126	H	0.499957	0.198114	0.415486
H127	H	-0.059478	-0.303081	0.001467
H128	H	0.440522	0.196919	0.501467
H129	H	0.059386	-0.309471	-0.004919
H130	H	0.559386	0.190529	0.495081
H131	H	-0.059501	-0.427025	-0.074757
H132	H	0.440499	0.072975	0.425243
H133	H	0.059374	-0.433424	-0.081162
H134	H	0.559374	0.066576	0.418838
C135	C	-0.000045	-0.757209	-0.322241
C136	C	0.499955	-0.257209	0.177759
C137	C	-0.000043	-0.824685	-0.274596
C138	C	0.499957	-0.324685	0.225404
H139	H	-0.000050	-0.706328	-0.286070
H140	H	0.499950	-0.206328	0.213930
H141	H	0.059383	-0.762955	-0.359672
H142	H	0.559383	-0.262955	0.140328
H143	H	-0.059482	-0.756576	-0.353284
H144	H	0.440518	-0.256576	0.146716
H145	H	0.059397	-0.825322	-0.243558
H146	H	0.559397	-0.325322	0.256442
H147	H	-0.059478	-0.818937	-0.237151
H148	H	0.440522	-0.318937	0.262849
