data_functionalizedCrystal
_audit_creation_method	'MofGen! by Chris Wilmer'
_symmetry_space_group_name_H-M	'P1'
_symmetry_Int_Tables_number	1
_symmetry_cell_setting	triclinic
loop_
_symmetry_equiv_pos_as_xyz
  x,y,z
_cell_length_a	6.817900
_cell_length_b	15.185511
_cell_length_c	19.453030
_cell_angle_alpha	95.654043
_cell_angle_beta	101.707737
_cell_angle_gamma	104.265286
loop_
_atom_site_label
_atom_site_type_symbol
_atom_site_fract_x
_atom_site_fract_y
_atom_site_fract_z
V1	V	-4.010753	-0.126703	-0.219208
O2	O	-3.994565	0.005115	-0.214821
O3	O	-3.966231	-0.250295	-0.217914
O4	O	-3.953612	-0.125182	-0.314718
O5	O	-4.007272	-0.120865	-0.117347
V6	V	-4.495010	-0.110886	-0.206999
O7	O	-4.270399	-0.161400	-0.245987
O8	O	-4.685561	-0.076189	-0.180219
O9	O	-4.316325	0.012706	-0.208293
O10	O	-4.628595	-0.242704	-0.211386
O11	O	-4.615888	-0.116725	-0.308860
O12	O	-4.328944	-0.112408	-0.111489
C13	C	-3.812458	-0.280411	-0.214508
C14	C	-3.857286	-0.381451	-0.214087
C15	C	-3.843550	-0.415665	-0.149543
C16	C	-3.913133	-0.442179	-0.278237
C17	C	-3.955248	-0.537112	-0.277845
C18	C	-3.941512	-0.571326	-0.213302
C19	C	-3.885662	-0.510607	-0.149150
C20	C	-4.011081	-0.597838	-0.341996
C21	C	-4.053198	-0.692778	-0.341607
C22	C	-4.039477	-0.726994	-0.277062
C23	C	-3.983624	-0.666268	-0.212908
C24	C	-3.969888	-0.700482	-0.148364
C25	C	-3.914051	-0.639758	-0.084209
C26	C	-3.871941	-0.544823	-0.084605
C27	C	-4.081587	-0.821930	-0.276666
C28	C	-4.012000	-0.795424	-0.147970
C29	C	-3.796361	-0.120815	-0.337991
C30	C	-3.830951	-0.120388	-0.416073
C31	C	-3.889051	-0.203470	-0.462915
C32	C	-3.921577	-0.203079	-0.536282
C33	C	-3.895959	-0.119601	-0.562803
C34	C	-3.837861	-0.036509	-0.515951
C35	C	-3.805357	-0.036903	-0.442586
N36	N	-3.802229	-0.054151	-0.668190
N37	N	-3.833104	-0.053782	-0.737884
C38	C	-3.993893	-0.118409	-0.783849
N39	N	-4.122621	-0.183431	-0.757487
N40	N	-4.091734	-0.183803	-0.687786
C41	C	-3.931200	-0.119164	-0.642355
C42	C	-4.087266	-0.201072	-0.910245
C43	C	-4.119803	-0.200678	-0.983614
C44	C	-4.036065	-0.034105	-0.963281
C45	C	-4.003550	-0.034502	-0.889914
C46	C	-4.029145	-0.117988	-0.863401
C47	C	-4.133440	0.042817	-0.211697
C48	C	-4.067851	0.143856	-0.212122
C49	C	-4.149538	-0.116777	-0.088212
C50	C	-4.094186	-0.117199	-0.010130
H51	H	-4.022244	-0.569973	-0.394543
Cl52	Cl	-4.003886	0.070839	-0.996615
H53	H	-4.167128	-0.268336	-1.021753
Cl54	Cl	-4.123322	-0.769106	-0.422256
Cl55	Cl	-3.930427	0.069951	-0.831022
H56	H	-3.758046	0.030754	-0.404446
Cl57	Cl	-3.994622	-0.307531	-0.595181
Cl58	Cl	-3.773416	-0.339332	-0.068897
Cl59	Cl	-4.151821	-0.898264	-0.357312
Cl60	Cl	-3.801824	-0.468483	-0.003963
Cl61	Cl	-3.805665	0.068435	-0.549291
H62	H	-4.108110	-0.269051	-0.888657
H63	H	-4.000818	-0.823273	-0.095411
H64	H	-3.902859	-0.667628	-0.031657
Cl65	Cl	-3.930365	-0.399164	-0.359372
H66	H	-3.909905	-0.271450	-0.441333
