data_functionalizedCrystal
_audit_creation_method	'MofGen! by Chris Wilmer'
_symmetry_space_group_name_H-M	'P1'
_symmetry_Int_Tables_number	1
_symmetry_cell_setting	triclinic
loop_
_symmetry_equiv_pos_as_xyz
  x,y,z
_cell_length_a	17.699083
_cell_length_b	10.489741
_cell_length_c	16.176319
_cell_angle_alpha	89.993511
_cell_angle_beta	89.998611
_cell_angle_gamma	83.911094
loop_
_atom_site_label
_atom_site_type_symbol
_atom_site_fract_x
_atom_site_fract_y
_atom_site_fract_z
O1	O	1.005134	0.161296	-0.068630
O2	O	1.505134	0.661296	0.431370
O3	O	0.784893	0.182281	-0.068657
O4	O	1.284893	0.682281	0.431343
O5	O	0.900025	-0.013903	-0.068638
O6	O	1.400025	0.486097	0.431362
O7	O	0.890002	0.357479	-0.068649
O8	O	1.390002	0.857479	0.431351
O9	O	0.900009	-0.013915	0.068855
O10	O	1.400009	0.486085	0.568855
O11	O	0.784877	0.182268	0.068836
O12	O	1.284877	0.682268	0.568836
O13	O	1.005118	0.161283	0.068863
O14	O	1.505118	0.661283	0.568863
Cu15	Cu	0.894996	0.171775	0.081404
Cu16	Cu	1.394996	0.671775	0.581404
Cu17	Cu	0.895015	0.171789	-0.081198
Cu18	Cu	1.395015	0.671789	0.418802
O19	O	0.889986	0.357467	0.068844
O20	O	1.389986	0.857467	0.568844
C21	C	0.756683	0.181523	0.000086
C22	C	1.256683	0.681523	0.500086
C23	C	0.672650	0.179267	0.000076
C24	C	1.172650	0.679267	0.500076
C25	C	0.624782	0.294422	0.000073
C26	C	1.124782	0.794422	0.500073
C27	C	0.545825	0.292295	0.000083
C28	C	1.045825	0.792295	0.500083
C29	C	0.514737	0.175011	0.000091
C30	C	1.014737	0.675011	0.500091
C31	C	0.562611	0.059847	0.000097
C32	C	1.062611	0.559847	0.500097
C33	C	0.641567	0.061975	0.000092
C34	C	1.141567	0.561975	0.500092
C35	C	0.244192	0.051260	0.000118
C36	C	0.744192	0.551260	0.500118
C37	C	0.165230	0.049140	0.000120
C38	C	0.665230	0.549140	0.500120
C39	C	0.148450	0.281580	0.000109
C40	C	0.648450	0.781580	0.500109
C41	C	0.227406	0.283709	0.000104
C42	C	0.727406	0.783709	0.500104
C43	C	0.275273	0.168545	0.000114
C44	C	0.775273	0.668545	0.500114
C45	C	0.360887	0.170853	0.000104
C46	C	0.860887	0.670853	0.500104
C47	C	0.429124	0.172702	0.000096
C48	C	0.929124	0.672702	0.500096
C49	C	0.899260	-0.061427	0.000108
C50	C	1.399260	0.438573	0.500108
C51	C	0.896995	-0.203014	0.000106
C52	C	1.396995	0.296986	0.500106
C53	C	0.823740	-0.269793	0.000091
C54	C	1.323740	0.230207	0.500091
C55	C	0.858337	-0.362565	0.067887
C56	C	1.358337	0.137435	0.567887
C57	C	0.858370	-0.362527	-0.067671
C58	C	1.358370	0.137473	0.432329
C59	C	0.931622	-0.293921	0.067958
C60	C	1.431622	0.206079	0.567958
C61	C	0.931645	-0.293874	-0.067661
C62	C	1.431645	0.206126	0.432339
C63	C	0.966296	-0.386619	0.000151
C64	C	1.466296	0.113381	0.500151
C65	C	1.033328	0.162042	0.000118
C66	C	1.533328	0.662042	0.500118
C67	C	1.117361	0.164297	0.000123
C68	C	1.617361	0.664297	0.500123
C69	C	0.890751	0.404991	0.000096
C70	C	1.390751	0.904991	0.500096
C71	C	0.893016	0.546578	0.000093
C72	C	1.393016	1.046578	0.500093
N73	N	0.894988	0.171764	0.195769
N74	N	1.394988	0.671764	0.695769
N75	N	0.895029	0.171790	-0.195563
N76	N	1.395029	0.671790	0.304437
C77	C	0.945984	0.084929	0.239042
C78	C	1.445984	0.584929	0.739042
C79	C	0.945988	0.084928	0.325589
C80	C	1.445988	0.584928	0.825589
C81	C	0.894999	0.171768	0.368862
C82	C	1.394999	0.671768	0.868862
C83	C	0.843997	0.258607	0.325583
C84	C	1.343997	0.758607	0.825583
C85	C	0.843990	0.258601	0.239037
C86	C	1.343990	0.758601	0.739037
C87	C	0.844023	0.258631	0.674611
C88	C	1.344023	0.758631	1.174611
C89	C	0.844036	0.258632	0.761163
C90	C	1.344036	0.758632	1.261163
C91	C	0.946021	0.084957	0.761162
C92	C	1.446021	0.584957	1.261162
C93	C	0.946014	0.084951	0.674617
C94	C	1.446014	0.584951	1.174617
C95	C	0.895010	0.171785	0.631346
C96	C	1.395010	0.671785	1.131346
C97	C	0.895006	0.171784	0.537502
C98	C	1.395006	0.671784	1.037502
C99	C	0.895006	0.171776	0.462704
C100	C	1.395006	0.671776	0.962704
H101	H	0.109467	0.375352	0.000105
H102	H	0.609467	0.875352	0.500105
N103	N	0.693194	-0.062233	0.000100
N104	N	1.193194	0.437767	0.500100
H105	H	0.683124	-0.113414	-0.050865
H106	H	1.183124	0.386586	0.449135
H107	H	0.747909	-0.042986	0.000131
H108	H	1.247909	0.457014	0.500131
N109	N	1.001012	-0.008706	0.627944
N110	N	1.501012	0.491294	1.127944
H111	H	1.033319	-0.063719	0.668490
H112	H	1.533319	0.436281	1.168490
H113	H	0.971729	-0.065033	0.592045
H114	H	1.471729	0.434967	1.092045
H115	H	0.802477	0.329310	0.360821
H116	H	1.302477	0.829310	0.860821
N117	N	1.000985	-0.008728	0.192372
N118	N	1.500985	0.491272	0.692372
H119	H	1.033290	-0.063738	0.232921
H120	H	1.533290	0.436262	0.732921
H121	H	0.971704	-0.065058	0.156472
H122	H	1.471704	0.434942	0.656472
H123	H	0.987549	0.014248	0.796403
H124	H	1.487549	0.514248	1.296403
H125	H	1.026580	-0.437163	0.000196
H126	H	1.526580	0.062837	0.500196
H127	H	0.802511	0.329350	0.796394
H128	H	1.302511	0.829350	1.296394
H129	H	0.537293	-0.035648	0.000115
H130	H	1.037293	0.464352	0.500115
H131	H	0.987512	0.014220	0.360821
H132	H	1.487512	0.514220	0.860821
H133	H	0.962622	-0.263399	-0.124973
H134	H	1.462622	0.236601	0.375027
H135	H	0.802463	0.329309	0.203806
H136	H	1.302463	0.829309	0.703806
H137	H	0.827334	-0.393005	0.125195
H138	H	1.327334	0.106995	0.625195
N139	N	0.658310	0.420923	0.000054
N140	N	1.158310	0.920923	0.500054
H141	H	0.616002	0.493550	0.000055
H142	H	1.116002	0.993550	0.500055
H143	H	0.690707	0.426869	0.051021
H144	H	1.190707	0.926869	0.551021
N145	N	0.494196	0.416498	0.000173
N146	N	0.994196	0.916498	0.500173
H147	H	0.525871	0.491119	0.000193
H148	H	1.025871	0.991119	0.500193
H149	H	0.461026	0.420777	-0.050763
H150	H	0.961026	0.920777	0.449237
H151	H	0.252713	0.379213	0.000094
H152	H	0.752713	0.879213	0.500094
N153	N	0.131697	-0.077364	0.000130
N154	N	0.631697	0.422636	0.500130
H155	H	0.174000	-0.149998	0.000138
H156	H	0.674000	0.350002	0.500138
H157	H	0.099301	-0.083301	0.051101
H158	H	0.599301	0.416699	0.551101
N159	N	0.817310	-0.402807	-0.143589
N160	N	1.317310	0.097193	0.356411
H161	H	0.763464	-0.359866	-0.143531
H162	H	1.263464	0.140134	0.356469
H163	H	0.844500	-0.376600	-0.194748
H164	H	1.344500	0.123400	0.305252
N165	N	0.789011	0.352276	0.627946
N166	N	1.289011	0.852276	1.127946
H167	H	0.756713	0.407287	0.668495
H168	H	1.256713	0.907287	1.168495
H169	H	0.818279	0.408605	0.592023
H170	H	1.318279	0.908605	1.092023
N171	N	0.743963	-0.202530	0.000164
N172	N	1.243963	0.297470	0.500164
H173	H	0.715999	-0.228524	-0.050515
H174	H	1.215999	0.271476	0.449485
H175	H	0.716449	-0.227342	0.051452
H176	H	1.216449	0.272658	0.551452
H177	H	0.283156	-0.042514	0.000127
H178	H	0.783156	0.457486	0.500127
H179	H	0.962584	-0.263669	0.125338
H180	H	1.462584	0.236331	0.625338
