data_functionalizedCrystal
_audit_creation_method	'MofGen! by Chris Wilmer'
_symmetry_space_group_name_H-M	'P1'
_symmetry_Int_Tables_number	1
_symmetry_cell_setting	triclinic
loop_
_symmetry_equiv_pos_as_xyz
  x,y,z
_cell_length_a	19.377372
_cell_length_b	23.196402
_cell_length_c	23.196402
_cell_angle_alpha	60.002465
_cell_angle_beta	90.001032
_cell_angle_gamma	72.113939
loop_
_atom_site_label
_atom_site_type_symbol
_atom_site_fract_x
_atom_site_fract_y
_atom_site_fract_z
Zr1	Zr	0.580581	0.802634	-0.161444
O2	O	0.484354	0.894452	-0.239266
O3	O	0.610077	0.691089	-0.137590
O4	O	0.610077	0.811354	-0.257855
O5	O	0.484357	0.774188	-0.024131
O6	O	0.709253	0.840673	-0.272514
O7	O	0.484354	0.774187	-0.119002
O8	O	0.709252	0.625541	-0.057383
O9	O	0.484357	0.989320	-0.239262
O10	O	0.696673	0.766156	-0.138353
O11	O	0.622662	0.744276	-0.056612
O12	O	0.622662	0.885873	-0.198208
O13	O	0.548650	0.863993	-0.116467
Zr14	Zr	0.738758	0.849396	-0.033516
Zr15	Zr	0.738754	0.849395	-0.184824
Zr16	Zr	0.580585	0.802635	-0.010136
Zr17	Zr	0.580585	0.953938	-0.161438
Zr18	Zr	0.738754	0.698092	-0.033522
O19	O	0.709262	0.960941	-0.057370
O20	O	0.709256	0.960940	-0.272509
O21	O	0.484360	0.894454	-0.024127
O22	O	0.834984	0.757578	0.044306
O23	O	0.834979	0.757576	-0.170833
O24	O	0.610083	0.691090	0.077549
O25	O	0.834982	0.877843	-0.170829
O26	O	0.709261	0.840676	0.062895
O27	O	0.610086	0.811357	0.077554
O28	O	0.834985	0.877843	-0.075958
O29	O	0.610084	1.026489	-0.257846
O30	O	0.709255	0.625541	0.062886
O31	O	0.834982	0.662710	0.044302
O32	O	0.834979	0.662709	-0.075967
O33	O	0.484360	0.989321	-0.118993
O34	O	0.610087	1.026490	-0.137577
O35	O	0.696677	0.766157	0.003248
O36	O	0.770688	0.788037	-0.078492
O37	O	0.696677	0.907754	-0.138348
O38	O	0.622666	0.885874	-0.056607
C39	C	0.659664	0.636757	-0.097487
C40	C	0.659662	0.572525	-0.097490
C41	C	0.698290	0.553774	-0.140159
C42	C	0.698297	0.493415	-0.140155
C43	C	0.659662	0.451817	-0.097488
C44	C	0.621032	0.470571	-0.054810
C45	C	0.621032	0.530925	-0.054811
C46	C	0.594949	0.370656	-0.093197
C47	C	0.594946	0.310306	-0.093201
C48	C	0.659663	0.265662	-0.097481
C49	C	0.724381	0.281383	-0.101772
C50	C	0.724381	0.341737	-0.101772
C51	C	0.659658	0.386371	-0.097482
C52	C	0.698302	0.181464	-0.140148
C53	C	0.698311	0.121101	-0.140138
C54	C	0.621039	0.098261	-0.054797
C55	C	0.621037	0.158619	-0.054803
C56	C	0.659667	0.200219	-0.097482
C57	C	0.461819	0.767525	-0.068235
C58	C	0.394670	0.747674	-0.058310
C59	C	-0.019334	0.994834	-0.181886
C60	C	-0.082420	0.976164	-0.172551
C61	C	-0.005148	0.851189	-0.110067
C62	C	0.057946	0.869848	-0.119394
C63	C	0.050847	0.941672	-0.155305
C64	C	0.128126	0.816686	-0.092813
C65	C	0.191214	0.835344	-0.102143
C66	C	0.184123	0.907164	-0.138054
C67	C	0.113935	0.960330	-0.164635
C68	C	0.135224	0.744863	-0.056906
C69	C	0.205404	0.691700	-0.030325
C70	C	0.268494	0.710358	-0.039650
C71	C	0.261402	0.782178	-0.075561
C72	C	0.338681	0.657192	-0.013069
C73	C	0.401770	0.675850	-0.022399
C74	C	0.324490	0.800836	-0.084891
C75	C	0.857520	0.884505	-0.126725
C76	C	0.924668	0.904356	-0.136650
C77	C	0.659664	0.826014	-0.286742
C78	C	0.659663	0.826013	-0.350976
C79	C	0.659675	1.015273	-0.097473
C80	C	0.659677	1.079505	-0.097470
C81	C	0.605034	0.809873	-0.805742
C82	C	0.605034	0.809867	-0.745384
C83	C	0.659670	0.826020	-0.723278
C84	C	0.714322	0.842162	-0.761527
C85	C	0.714324	0.842161	-0.821880
C86	C	0.676697	0.878559	-0.653927
C87	C	0.676690	0.878565	-0.593577
C88	C	0.659666	0.826023	-0.537129
C89	C	0.642634	0.773482	-0.541040
C90	C	0.642637	0.773480	-0.601393
C91	C	0.659674	0.826023	-0.657836
C92	C	0.605021	0.809871	-0.433439
C93	C	0.605025	0.809861	-0.373078
C94	C	0.714310	0.842164	-0.389226
C95	C	0.714308	0.842166	-0.449582
C96	C	0.659660	0.826022	-0.471686
C97	C	0.659674	0.826016	0.091782
C98	C	0.659676	0.826017	0.156016
C99	C	0.857514	0.695248	-0.126732
C100	C	0.924661	0.650866	-0.136660
C101	C	0.659669	0.636759	0.091775
C102	C	0.659669	0.572527	0.156006
C103	C	0.857519	0.695249	0.062530
C104	C	0.924668	0.650868	0.116836
C105	C	0.461820	0.956781	-0.257490
C106	C	0.394671	1.001162	-0.311796
C107	C	0.461824	0.956783	-0.068228
C108	C	0.394678	1.001164	-0.058300
C109	C	0.659670	1.015272	-0.286735
C110	C	0.659670	1.079504	-0.350966
C111	C	0.917559	0.618603	-0.172575
C112	C	0.980644	0.576908	-0.181917
C113	C	1.050831	0.567474	-0.155338
C114	C	1.057932	0.599743	-0.119422
C115	C	0.994847	0.641441	-0.110085
C116	C	0.698304	0.553784	0.217423
C117	C	0.698301	0.493439	0.277781
C118	C	0.659667	0.451835	0.276721
C119	C	0.621027	0.470581	0.215298
C120	C	0.621026	0.530928	0.154942
C121	C	0.994841	0.641449	0.099670
C122	C	1.057940	0.599759	0.150690
C123	C	1.050864	0.567484	0.218875
C124	C	0.980684	0.576906	0.236041
C125	C	0.917586	0.618600	0.185022
C126	C	0.324498	1.010588	-0.294630
C127	C	0.261398	1.052297	-0.345650
C128	C	0.268474	1.084576	-0.413835
C129	C	0.338655	1.075149	-0.431001
C130	C	0.401753	1.033445	-0.379982
C131	C	0.401780	1.033434	-0.022391
C132	C	0.338695	1.075145	-0.013066
C133	C	0.268508	1.084581	-0.039647
C134	C	0.261407	1.052309	-0.075561
C135	C	0.324491	1.010603	-0.084889
C136	C	0.698312	1.121091	-0.349884
C137	C	0.698326	1.181440	-0.410233
C138	C	0.659694	1.200203	-0.471662
C139	C	0.621052	1.158609	-0.472742
C140	C	0.621042	1.098259	-0.412395
H141	H	0.777082	0.245029	-0.105249
F142	F	0.624514	0.717562	-0.605554
H143	H	1.102249	0.533536	0.260412
F144	F	0.579921	0.178577	-0.009389
H145	H	0.628769	0.730699	-0.495079
H146	H	1.000641	0.667705	-0.080836
H147	H	0.974933	0.550622	0.291564
H148	H	0.217146	1.118543	-0.032046
H149	H	0.729765	0.587654	0.218299
H150	H	0.589572	0.436698	0.214445
F151	F	1.002389	0.675797	0.027105
H152	H	0.659708	1.249346	-0.520796
F153	F	0.739432	1.101135	-0.284513
H154	H	0.217090	1.118532	-0.455371
F155	F	-0.157114	1.032753	-0.200851
F156	F	0.793257	0.358465	-0.106336
F157	F	0.579920	0.053993	-0.009387
F158	F	0.739453	1.225701	-0.409068
F159	F	0.546862	0.792685	-0.456962
H160	H	0.729769	0.478185	0.327788
H161	H	0.729760	0.215334	-0.174898
H162	H	0.589567	0.546180	0.104936
F163	F	1.132637	0.589694	-0.091137
F164	F	0.346267	1.109482	0.025160
H165	H	1.115079	0.592093	0.136701
F166	F	0.526068	0.293583	-0.088638
H167	H	0.860450	0.626261	0.199009
F168	F	0.579919	0.426295	-0.009397
H169	H	0.318722	0.984306	-0.239114
F170	F	0.579917	0.550880	-0.009393
H171	H	0.659673	0.402698	0.325872
F172	F	0.579934	1.178591	-0.538125
H173	H	0.344408	1.101436	-0.486523
H174	H	0.000622	0.792711	-0.080830
H175	H	0.344450	0.598714	0.016164
F176	F	0.186714	1.062319	-0.327367
F177	F	0.526064	0.418166	-0.088641
F178	F	0.186702	1.062357	-0.103844
H179	H	0.458914	0.632560	-0.000742
H180	H	0.729772	0.105832	-0.174883
F181	F	0.579905	1.054007	-0.413556
F182	F	0.973071	0.542569	-0.220141
H183	H	0.458890	1.025771	-0.393967
H184	H	0.458924	1.025755	-0.000740
F185	F	0.316921	0.976258	-0.123105
F186	F	0.251268	0.927022	-0.147986
F187	F	0.739419	0.473450	-0.185566
F188	F	0.316937	0.877279	-0.123104
F189	F	0.739405	0.598044	-0.185581
H190	H	0.690559	0.921350	-0.699888
H191	H	0.108153	1.018816	-0.193857
H192	H	-0.025116	1.053320	-0.211108
H193	H	0.083851	0.729674	-0.049316
H194	H	0.211174	0.633222	-0.001088
H195	H	0.560538	0.796725	-0.823736
F196	F	0.772462	0.859349	-0.365699
F197	F	0.546874	0.792684	-0.704678
H198	H	0.560531	0.796711	-0.341938
F199	F	1.117966	0.523093	-0.165280
H200	H	0.758800	0.855316	-0.480723
F201	F	0.772471	0.859350	-0.737998
F202	F	0.772484	0.859344	-0.862582
F203	F	0.694803	0.934490	-0.589424
H204	H	0.860415	0.626284	-0.194228
