data_functionalizedCrystal
_audit_creation_method	'MofGen! by Chris Wilmer'
_symmetry_space_group_name_H-M	'P1'
_symmetry_Int_Tables_number	1
_symmetry_cell_setting	triclinic
loop_
_symmetry_equiv_pos_as_xyz
  x,y,z
_cell_length_a	18.215407
_cell_length_b	18.101395
_cell_length_c	18.215398
_cell_angle_alpha	89.976098
_cell_angle_beta	89.980536
_cell_angle_gamma	90.031552
loop_
_atom_site_label
_atom_site_type_symbol
_atom_site_fract_x
_atom_site_fract_y
_atom_site_fract_z
Zn1	Zn	1.125037	-0.294847	-0.416124
Zn2	Zn	1.458371	0.038487	-0.082790
Zn3	Zn	1.791704	0.371820	0.250543
Zn4	Zn	1.124933	-0.418688	-0.293061
Zn5	Zn	1.458267	-0.085354	0.040273
Zn6	Zn	1.791600	0.247979	0.373606
Zn7	Zn	1.001971	-0.294866	-0.293071
Zn8	Zn	1.335304	0.038468	0.040262
Zn9	Zn	1.668637	0.371801	0.373596
Zn10	Zn	1.001923	-0.418652	-0.416086
Zn11	Zn	1.335256	-0.085319	-0.082752
Zn12	Zn	1.668589	0.248015	0.250581
O13	O	1.063466	-0.356763	-0.354585
O14	O	1.396799	-0.023430	-0.021252
O15	O	1.730133	0.309904	0.312081
O16	O	1.228008	-0.311282	-0.399811
O17	O	1.561341	0.022052	-0.066477
O18	O	1.894675	0.355385	0.266856
O19	O	1.108599	-0.402285	-0.190078
O20	O	1.441932	-0.068952	0.143256
O21	O	1.775265	0.264381	0.476589
O22	O	1.018360	-0.191230	-0.309414
O23	O	1.351693	0.142103	0.023919
O24	O	1.685026	0.475436	0.357252
O25	O	1.227931	-0.402267	-0.309397
O26	O	1.561265	-0.068934	0.023937
O27	O	1.894598	0.264400	0.357270
O28	O	1.108776	-0.191216	-0.399821
O29	O	1.442110	0.142117	-0.066487
O30	O	1.775443	0.475450	0.266846
O31	O	1.018259	-0.311314	-0.190085
O32	O	1.351592	0.022020	0.143248
O33	O	1.684925	0.355353	0.476581
O34	O	0.898980	-0.311279	-0.309378
O35	O	1.232314	0.022054	0.023956
O36	O	1.565647	0.355388	0.357289
O37	O	1.018277	-0.402206	-0.519075
O38	O	1.351611	-0.068873	-0.185742
O39	O	1.684944	0.264461	0.147592
O40	O	0.898945	-0.402224	-0.399756
O41	O	1.232278	-0.068891	-0.066422
O42	O	1.565611	0.264442	0.266911
O43	O	1.108729	-0.311247	-0.519103
O44	O	1.442063	0.022086	-0.185770
O45	O	1.775396	0.355420	0.147564
O46	O	1.108552	-0.522316	-0.309360
O47	O	1.441885	-0.188983	0.023974
O48	O	1.775219	0.144351	0.357307
O49	O	1.018176	-0.522290	-0.399746
O50	O	1.351510	-0.188956	-0.066412
O51	O	1.684843	0.144377	0.266921
C52	C	0.872260	-0.356750	-0.354564
C53	C	1.205593	-0.023417	-0.021231
C54	C	1.538926	0.309916	0.312103
C55	C	0.790461	-0.356763	-0.354572
C56	C	1.123794	-0.023429	-0.021239
C57	C	1.457128	0.309904	0.312094
C58	C	0.602268	-0.404192	-0.401573
C59	C	0.935601	-0.070859	-0.068240
C60	C	1.268934	0.262474	0.265093
C61	C	0.525409	-0.404195	-0.401583
C62	C	0.858742	-0.070861	-0.068249
C63	C	1.192076	0.262472	0.265084
C64	C	0.525416	-0.309347	-0.307613
C65	C	0.858750	0.023986	0.025720
C66	C	1.192083	0.357320	0.359054
C67	C	0.602274	-0.309342	-0.307608
C68	C	0.935607	0.023992	0.025725
C69	C	1.268940	0.357325	0.359059
C70	C	0.640697	-0.356768	-0.354587
C71	C	0.974031	-0.023435	-0.021254
C72	C	1.307364	0.309898	0.312079
C73	C	0.486981	-0.356776	-0.354601
C74	C	0.820315	-0.023443	-0.021268
C75	C	1.153648	0.309890	0.312065
C76	C	0.403648	-0.356778	-0.354611
C77	C	0.736981	-0.023445	-0.021278
C78	C	1.070314	0.309888	0.312056
C79	C	0.724036	-0.356766	-0.354579
C80	C	1.057370	-0.023432	-0.021245
C81	C	1.390703	0.309901	0.312088
C82	C	1.063368	-0.549174	-0.354564
C83	C	1.396701	-0.215840	-0.021230
C84	C	1.730034	0.117493	0.312103
C85	C	1.063393	-0.631488	-0.354579
C86	C	1.396726	-0.298154	-0.021246
C87	C	1.730059	0.035179	0.312088
C88	C	1.063554	-0.930579	-0.354619
C89	C	1.396888	-0.597245	-0.021285
C90	C	1.730221	-0.263912	0.312048
C91	C	1.006824	-0.899268	-0.411628
C92	C	1.340158	-0.565934	-0.078295
C93	C	1.673491	-0.232601	0.255039
C94	C	1.006555	-0.813650	-0.411450
C95	C	1.339888	-0.480316	-0.078116
C96	C	1.673221	-0.146983	0.255217
C97	C	1.063474	-0.782196	-0.354600
C98	C	1.396807	-0.448863	-0.021266
C99	C	1.730141	-0.115529	0.312067
C100	C	1.042477	-0.813343	-0.277038
C101	C	1.375810	-0.480010	0.056295
C102	C	1.709143	-0.146676	0.389628
C103	C	1.042111	-0.898988	-0.277380
C104	C	1.375444	-0.565655	0.055954
C105	C	1.708778	-0.232322	0.389287
C106	C	1.141406	-0.898923	-0.374487
C107	C	1.474739	-0.565590	-0.041154
C108	C	1.808072	-0.232256	0.292179
C109	C	1.140948	-0.813272	-0.376188
C110	C	1.474281	-0.479939	-0.042855
C111	C	1.807615	-0.146605	0.290478
C112	C	1.063430	-0.698337	-0.354584
C113	C	1.396763	-0.365003	-0.021251
C114	C	1.730097	-0.031670	0.312083
C115	C	1.063596	-1.014438	-0.354629
C116	C	1.396930	-0.681105	-0.021296
C117	C	1.730263	-0.347771	0.312038
C118	C	1.255419	-0.356776	-0.354607
C119	C	1.588752	-0.023443	-0.021273
C120	C	1.922086	0.309890	0.312060
C121	C	1.337218	-0.356782	-0.354616
C122	C	1.670551	-0.023449	-0.021283
C123	C	2.003884	0.309885	0.312051
C124	C	1.063510	-0.356721	-0.546538
C125	C	1.396843	-0.023387	-0.213205
C126	C	1.730176	0.309946	0.120128
C127	C	1.063528	-0.356702	-0.628337
C128	C	1.396862	-0.023369	-0.295004
C129	C	1.730195	0.309964	0.038330
C130	C	1.063585	-0.163601	-0.354623
C131	C	1.396918	0.169732	-0.021290
C132	C	1.730252	0.503066	0.312044
C133	C	1.063636	-0.081287	-0.354639
C134	C	1.396969	0.252046	-0.021306
C135	C	1.730302	0.585380	0.312028
C136	C	1.110602	-0.403980	-0.893395
C137	C	1.443935	-0.070647	-0.560062
C138	C	1.777269	0.262687	-0.226729
C139	C	1.110591	-0.404006	-0.816536
C140	C	1.443924	-0.070672	-0.483203
C141	C	1.777257	0.262661	-0.149870
C142	C	1.016510	-0.309282	-0.816528
C143	C	1.349843	0.024051	-0.483194
C144	C	1.683177	0.357385	-0.149861
C145	C	1.016518	-0.309261	-0.893385
C146	C	1.349852	0.024073	-0.560052
C147	C	1.683185	0.357406	-0.226718
C148	C	1.063568	-0.356608	-0.931817
C149	C	1.396902	-0.023275	-0.598484
C150	C	1.730235	0.310058	-0.265150
C151	C	1.063549	-0.356655	-0.778101
C152	C	1.396882	-0.023322	-0.444767
C153	C	1.730216	0.310011	-0.111434
C154	C	1.063536	-0.356683	-0.694767
C155	C	1.396870	-0.023350	-0.361434
C156	C	1.730203	0.309984	-0.028100
C157	C	1.063580	-0.356582	-1.015156
C158	C	1.396913	-0.023249	-0.681823
C159	C	1.730247	0.310085	-0.348489
C160	C	1.063465	-0.356752	-0.163379
C161	C	1.396798	-0.023419	0.169954
C162	C	1.730132	0.309915	0.503288
C163	C	1.063589	-0.356561	-0.081580
C164	C	1.396922	-0.023228	0.251753
C165	C	1.730256	0.310105	0.585086
H166	H	0.633564	-0.270719	-0.269346
H167	H	0.966897	0.062615	0.063987
H168	H	1.300231	0.395948	0.397320
Cl169	Cl	0.955542	-0.780332	-0.250586
Cl170	Cl	1.288875	-0.446999	0.082747
Cl171	Cl	1.622209	-0.113666	0.416081
Cl172	Cl	1.026833	-0.781130	-0.500243
Cl173	Cl	1.360167	-0.447797	-0.166909
Cl174	Cl	1.693500	-0.114464	0.166424
Cl175	Cl	1.209661	-0.780204	-0.316758
Cl176	Cl	1.542995	-0.446871	0.016575
Cl177	Cl	1.876328	-0.113538	0.349909
H178	H	1.081638	-0.919703	-0.233455
H179	H	1.414972	-0.586369	0.099879
H180	H	1.748305	-0.253036	0.433212
Cl181	Cl	1.169720	-0.463562	-0.768238
Cl182	Cl	1.503054	-0.130229	-0.434905
Cl183	Cl	1.836387	0.203105	-0.101572
Cl184	Cl	0.957374	-0.249714	-0.941690
Cl185	Cl	1.290707	0.083619	-0.608357
Cl186	Cl	1.624041	0.416953	-0.275024
Cl187	Cl	1.026900	-0.931000	-0.500711
Cl188	Cl	1.360233	-0.597666	-0.167377
Cl189	Cl	1.693566	-0.264333	0.165956
H190	H	0.494123	-0.442811	-0.439845
H191	H	0.827456	-0.109478	-0.106511
H192	H	1.160790	0.223856	0.226822
H193	H	0.949470	-0.920854	-0.398633
H194	H	1.282803	-0.587521	-0.065299
H195	H	1.616136	-0.254187	0.268034
Cl196	Cl	0.477107	-0.249730	-0.248555
Cl197	Cl	0.810440	0.083604	0.084778
Cl198	Cl	1.143774	0.416937	0.418111
H199	H	0.948849	-0.793226	-0.398289
H200	H	1.282183	-0.459893	-0.064955
H201	H	1.615516	-0.126560	0.268378
H202	H	1.148912	-0.442534	-0.924684
H203	H	1.482246	-0.109201	-0.591351
H204	H	1.815579	0.224132	-0.258018
H205	H	0.985202	-0.919031	-0.260549
H206	H	1.318535	-0.585697	0.072785
H207	H	1.651869	-0.252364	0.406118
Cl208	Cl	0.957382	-0.249745	-0.768208
Cl209	Cl	1.290715	0.083588	-0.434875
Cl210	Cl	1.624048	0.416921	-0.101542
Cl211	Cl	1.104261	-0.781891	-0.209666
Cl212	Cl	1.437595	-0.448557	0.123667
Cl213	Cl	1.770928	-0.115224	0.457000
H214	H	0.633550	-0.442809	-0.439829
H215	H	0.966883	-0.109475	-0.106495
H216	H	1.300217	0.223858	0.226838
H217	H	1.183672	-0.919170	-0.332965
H218	H	1.517005	-0.585837	0.000368
H219	H	1.850338	-0.252503	0.333701
H220	H	1.160549	-0.920474	-0.430081
H221	H	1.493883	-0.587141	-0.096748
H222	H	1.827216	-0.253807	0.236586
H223	H	1.156782	-0.792912	-0.433269
H224	H	1.490115	-0.459579	-0.099936
H225	H	1.823449	-0.126245	0.233398
