data_functionalizedCrystal
_audit_creation_method	'MofGen! by Chris Wilmer'
_symmetry_space_group_name_H-M	'P1'
_symmetry_Int_Tables_number	1
_symmetry_cell_setting	triclinic
loop_
_symmetry_equiv_pos_as_xyz
  x,y,z
_cell_length_a	6.817900
_cell_length_b	14.858565
_cell_length_c	16.305550
_cell_angle_alpha	95.065908
_cell_angle_beta	103.455250
_cell_angle_gamma	104.523916
loop_
_atom_site_label
_atom_site_type_symbol
_atom_site_fract_x
_atom_site_fract_y
_atom_site_fract_z
V1	V	-4.031556	-0.129456	-0.263268
O2	O	-4.013619	0.005413	-0.258014
O3	O	-3.988195	-0.255912	-0.261700
O4	O	-3.982895	-0.127819	-0.377982
O5	O	-4.018955	-0.123567	-0.140928
V6	V	-4.514565	-0.113282	-0.248607
O7	O	-4.293942	-0.164934	-0.295429
O8	O	-4.702376	-0.077803	-0.216446
O9	O	-4.334720	0.013174	-0.250175
O10	O	-4.649899	-0.248151	-0.253860
O11	O	-4.644563	-0.119171	-0.370947
O12	O	-4.340020	-0.114919	-0.133893
C13	C	-3.834429	-0.286728	-0.257607
C14	C	-3.880261	-0.390110	-0.257090
C15	C	-4.048011	-0.768675	-0.255208
C16	C	-4.001329	-0.663347	-0.255731
C17	C	-3.964137	-0.579396	-0.256148
C18	C	-3.917454	-0.474061	-0.256673
C19	C	-3.827668	-0.123331	-0.405935
C20	C	-3.869199	-0.122830	-0.499716
C21	C	-4.020207	-0.120886	-0.840458
C22	C	-3.783922	-0.115115	-0.799519
C23	C	-3.740766	-0.116022	-0.702026
C24	C	-3.945289	-0.121850	-0.671412
C25	C	-4.116090	-0.213696	-0.722206
C26	C	-4.157932	-0.213177	-0.819755
C27	C	-4.071461	-0.035544	-0.794459
C28	C	-4.023502	-0.034817	-0.696615
C29	C	-3.902961	-0.122398	-0.575875
C30	C	-4.062543	-0.120344	-0.935996
C31	C	-4.151827	0.043986	-0.254265
C32	C	-4.085234	0.147367	-0.254788
C33	C	-4.158588	-0.119409	-0.105935
C34	C	-4.096296	-0.119906	-0.012154
H35	H	-3.675062	-0.048766	-0.811761
H36	H	-3.899668	0.033118	-0.662112
C37	C	-4.323417	-0.223955	-0.696676
C38	C	-4.525970	-0.227681	-0.764424
C39	C	-4.733295	-0.237938	-0.738892
C40	C	-4.738067	-0.244468	-0.645611
C41	C	-4.535507	-0.240742	-0.577857
C42	C	-4.328182	-0.230486	-0.603390
H43	H	-4.522444	-0.222847	-0.833481
H44	H	-4.883243	-0.240696	-0.789048
H45	H	-4.891541	-0.252061	-0.626711
H46	H	-4.539032	-0.245577	-0.508800
H47	H	-4.178234	-0.227727	-0.553233
C48	C	-3.726400	-0.197950	-0.842234
C49	C	-3.550497	-0.178850	-0.888364
C50	C	-3.492989	-0.261687	-0.931080
C51	C	-3.611383	-0.363625	-0.927667
C52	C	-3.787297	-0.382729	-0.881535
C53	C	-3.844806	-0.299892	-0.838819
H54	H	-3.462845	-0.103385	-0.890892
H55	H	-3.362765	-0.247544	-0.965230
H56	H	-3.568812	-0.424946	-0.959289
H57	H	-3.874950	-0.458194	-0.879007
H58	H	-3.975029	-0.314035	-0.804669
C59	C	-3.566276	-0.026820	-0.654478
C60	C	-3.611112	0.043035	-0.590619
C61	C	-3.436646	0.132237	-0.543046
C62	C	-3.217345	0.151584	-0.559333
C63	C	-3.172500	0.081728	-0.623196
C64	C	-3.346965	-0.007474	-0.670768
H65	H	-3.773460	0.028714	-0.578560
H66	H	-3.469845	0.183949	-0.495771
H67	H	-3.088195	0.217617	-0.524117
H68	H	-3.010151	0.096048	-0.635255
H69	H	-3.313766	-0.059186	-0.718044
H70	H	-3.676884	-0.178044	-0.685845
H71	H	-4.124437	-0.277783	-0.850254
C72	C	-3.944088	0.058474	-0.812322
C73	C	-3.791902	0.058953	-0.868920
C74	C	-3.664490	0.152966	-0.886776
C75	C	-3.689264	0.246500	-0.848035
C76	C	-3.841457	0.246023	-0.791433
C77	C	-3.968869	0.152011	-0.773577
H78	H	-3.773557	-0.010288	-0.897602
H79	H	-3.551827	0.153318	-0.928677
H80	H	-3.594946	0.316094	-0.861253
H81	H	-3.859802	0.315265	-0.762751
H82	H	-4.081533	0.151659	-0.731676
H83	H	-4.063307	-0.278319	-0.705512
H84	H	-4.332098	-0.221232	-0.847761
H85	H	-4.243666	-0.038955	-0.821281
H86	H	-4.170743	-0.033674	-0.675265
