data_functionalizedCrystal
_audit_creation_method	'MofGen! by Chris Wilmer'
_symmetry_space_group_name_H-M	'P1'
_symmetry_Int_Tables_number	1
_symmetry_cell_setting	triclinic
loop_
_symmetry_equiv_pos_as_xyz
  x,y,z
_cell_length_a	10.654550
_cell_length_b	16.109301
_cell_length_c	9.130313
_cell_angle_alpha	89.997330
_cell_angle_beta	89.996220
_cell_angle_gamma	83.973192
loop_
_atom_site_label
_atom_site_type_symbol
_atom_site_fract_x
_atom_site_fract_y
_atom_site_fract_z
O1	O	1.666250	0.116770	-0.121925
O2	O	1.300621	0.127896	-0.121902
O3	O	1.493479	0.001362	-0.121899
O4	O	1.473391	0.243304	-0.121928
O5	O	1.493477	0.001365	0.121700
O6	O	1.300618	0.127899	0.121697
O7	O	1.666248	0.116774	0.121674
Cu8	Cu	1.483433	0.122337	0.143928
Cu9	Cu	1.483435	0.122333	-0.144156
O10	O	1.473389	0.243308	0.121671
C11	C	1.253832	0.127080	-0.000099
C12	C	1.114422	0.124636	-0.000090
C13	C	1.033926	0.199138	-0.000120
C14	C	0.902936	0.196836	-0.000145
C15	C	0.932952	0.045526	-0.000116
C16	C	1.063939	0.047828	-0.000081
C17	C	1.016595	0.286496	-0.000143
C18	C	0.885606	0.284194	-0.000168
C19	C	1.492665	-0.029616	-0.000099
C20	C	1.490225	-0.121926	-0.000097
C21	C	1.598991	-0.343552	-0.000127
C22	C	1.596689	-0.430286	-0.000139
C23	C	1.367868	-0.411772	-0.000119
C24	C	1.370172	-0.325040	-0.000117
C25	C	1.485737	-0.290932	-0.000114
C26	C	1.481131	-0.464399	-0.000127
C27	C	1.478634	-0.558440	-0.000140
C28	C	1.488234	-0.196885	-0.000104
C29	C	1.713036	0.117589	-0.000132
C30	C	1.852446	0.120033	-0.000151
C31	C	1.474204	0.274286	-0.000132
C32	C	1.476643	0.366595	-0.000144
N33	N	1.483440	0.122339	0.346551
N34	N	1.483438	0.122324	-0.346779
C35	C	1.568859	0.066329	0.423204
C36	C	1.568856	0.066319	0.576541
C37	C	1.398010	0.178336	0.576558
C38	C	1.398008	0.178342	0.423223
C39	C	1.667500	0.001659	0.423195
C40	C	1.667497	0.001649	0.576532
H41	H	0.891833	-0.017009	-0.000131
H42	H	1.758409	0.021908	0.375628
C43	C	1.823096	-0.439868	-0.000136
C44	C	1.721182	-0.488126	-0.000143
H45	H	1.899954	-0.475578	-0.000131
H46	H	1.819237	-0.405653	-0.085077
H47	H	1.819221	-0.405656	0.084820
H48	H	1.725051	-0.522334	-0.085106
H49	H	1.725043	-0.522356	0.084806
H50	H	1.763815	0.015894	0.618141
H51	H	0.843427	0.317108	-0.102126
C52	C	1.180590	0.225805	0.623791
C53	C	1.304108	0.239892	0.660846
H54	H	1.122620	0.263804	0.675834
H55	H	1.168375	0.233831	0.521513
H56	H	1.167003	0.170226	0.648920
H57	H	1.317698	0.295468	0.635707
H58	H	1.316328	0.231872	0.763146
H59	H	1.051874	0.314310	-0.105318
H60	H	1.637803	-0.058739	0.624088
H61	H	1.693091	-0.315785	-0.000127
C62	C	1.020052	0.290655	0.262687
C63	C	1.055581	0.332614	0.137479
H64	H	1.044130	0.319123	0.347645
H65	H	0.931184	0.289097	0.262658
H66	H	1.060768	0.235290	0.262682
H67	H	1.014858	0.387976	0.137479
H68	H	1.144467	0.334180	0.137508
H69	H	0.839575	0.310596	0.104997
H70	H	1.273779	-0.439553	-0.000118
H71	H	1.277941	-0.282194	-0.000111
C72	C	1.080446	-0.101965	-0.000036
C73	C	1.152423	-0.034066	-0.000032
H74	H	1.135075	-0.152524	-0.000013
H75	H	1.028710	-0.099707	0.084890
H76	H	1.028753	-0.099717	-0.085007
H77	H	1.204109	-0.036310	0.084945
H78	H	1.204180	-0.036324	-0.084967
H79	H	1.328442	0.223942	0.360814
H80	H	1.646924	-0.062245	0.381584
