data_functionalizedCrystal
_audit_creation_method	'MofGen! by Chris Wilmer'
_symmetry_space_group_name_H-M	'P1'
_symmetry_Int_Tables_number	1
_symmetry_cell_setting	triclinic
loop_
_symmetry_equiv_pos_as_xyz
  x,y,z
_cell_length_a	12.759401
_cell_length_b	18.050590
_cell_length_c	12.759393
_cell_angle_alpha	90.035753
_cell_angle_beta	90.018496
_cell_angle_gamma	90.018713
loop_
_atom_site_label
_atom_site_type_symbol
_atom_site_fract_x
_atom_site_fract_y
_atom_site_fract_z
Zn1	Zn	1.606227	-0.295612	0.593951
Zn2	Zn	1.606110	-0.419823	0.418258
Zn3	Zn	1.430529	-0.295651	0.418290
Zn4	Zn	1.430506	-0.419765	0.593900
O5	O	1.518343	-0.357713	0.506100
O6	O	1.753233	-0.312097	0.570653
O7	O	1.582779	-0.403391	0.271241
O8	O	1.453895	-0.191722	0.441627
O9	O	1.753146	-0.403354	0.441572
O10	O	1.582979	-0.191693	0.570684
O11	O	1.453781	-0.312163	0.271265
O12	O	1.283505	-0.312108	0.441577
O13	O	1.453855	-0.403256	0.740927
O14	O	1.283488	-0.403294	0.570597
O15	O	1.582957	-0.312041	0.740965
O16	O	1.582757	-0.523740	0.441522
O17	O	1.453741	-0.523698	0.570565
C18	C	1.245376	-0.357699	0.506085
C19	C	1.128599	-0.357711	0.506104
C20	C	1.073756	-0.405268	0.573173
C21	C	0.964032	-0.405277	0.573185
C22	C	0.964004	-0.310171	0.439049
C23	C	1.073726	-0.310159	0.439043
C24	C	1.073771	-0.460179	0.650613
C25	C	0.964047	-0.460188	0.650624
C26	C	1.518262	-0.550665	0.506058
C27	C	1.518324	-0.633211	0.506075
C28	C	1.588628	-0.832657	0.435999
C29	C	1.614296	-0.881981	0.531886
C30	C	1.518384	-0.784341	0.506117
C31	C	1.492823	-0.882099	0.410274
C32	C	1.518443	-0.930326	0.506149
C33	C	1.544100	-0.832578	0.602054
C34	C	1.422583	-0.832691	0.480377
C35	C	1.448214	-0.881993	0.576329
C36	C	1.518352	-0.700243	0.506097
C37	C	1.518475	-1.014423	0.506180
C38	C	1.792376	-0.357727	0.506115
C39	C	1.909153	-0.357733	0.506121
C40	C	1.518417	-0.357638	0.780133
C41	C	1.518448	-0.357606	0.896910
C42	C	1.518453	-0.164007	0.506165
C43	C	1.518500	-0.081462	0.506192
C44	C	1.518330	-0.357734	0.233132
C45	C	1.518502	-0.357557	0.116356
C46	C	1.585680	-0.310106	0.951793
C47	C	1.585705	-0.310079	1.061517
C48	C	1.451263	-0.405059	1.061465
C49	C	1.451233	-0.405081	0.951743
C50	C	1.663303	-0.255273	0.951824
C51	C	1.663328	-0.255246	1.061548
H52	H	0.930051	-0.439658	0.727978
H53	H	0.934246	-0.517692	0.628686
H54	H	1.695338	-0.903634	0.553677
H55	H	0.919313	-0.271455	0.384451
C56	C	1.197068	-0.299694	0.297746
C57	C	1.134011	-0.257878	0.365327
H58	H	1.234289	-0.267414	0.252240
H59	H	1.154242	-0.332012	0.257475
H60	H	1.245451	-0.328007	0.337692
H61	H	1.085623	-0.229569	0.325381
H62	H	1.176841	-0.225546	0.405602
H63	H	1.648052	-0.810994	0.376764
C64	C	1.573206	-0.725776	0.710500
C65	C	1.573458	-0.803345	0.711522
H66	H	1.591339	-0.707730	0.778078
H67	H	1.505350	-0.708495	0.692100
H68	H	1.622772	-0.708498	0.660637
H69	H	1.523885	-0.820623	0.761379
H70	H	1.641323	-0.820633	0.729935
C71	C	1.436635	-0.504930	1.184807
C72	C	1.377389	-0.457249	1.121738
H73	H	1.391027	-0.537153	1.222008
H74	H	1.476666	-0.476636	1.233195
H75	H	1.482380	-0.533346	1.141982
H76	H	1.331649	-0.428829	1.164564
H77	H	1.337340	-0.485545	1.073344
C78	C	1.268021	-0.885071	0.630350
C79	C	1.368055	-0.911060	0.656481
H80	H	1.218541	-0.903014	0.679839
H81	H	1.249691	-0.902124	0.562331
H82	H	1.267989	-0.832447	0.631176
H83	H	1.368089	-0.963684	0.655647
H84	H	1.386390	-0.894011	0.724518
H85	H	1.103580	-0.444840	0.732021
H86	H	1.471179	-0.903850	0.329207
H87	H	1.634220	-0.200598	1.095602
C88	C	1.286568	-0.828385	0.350454
C89	C	1.313214	-0.803429	0.450921
H90	H	1.219051	-0.810313	0.332261
H91	H	1.285948	-0.881000	0.349625
H92	H	1.336629	-0.810753	0.301339
H93	H	1.263156	-0.821065	0.500038
H94	H	1.313826	-0.750803	0.451759
H95	H	1.744697	-0.270650	1.091325
C96	C	1.399936	-0.530833	0.917900
C97	C	1.377313	-0.457286	0.891418
H98	H	1.354298	-0.563060	0.880653
H99	H	1.390338	-0.537607	0.991086
H100	H	1.470512	-0.541712	0.899903
H101	H	1.306740	-0.446405	0.909422
H102	H	1.386903	-0.450508	0.818215
C103	C	1.037941	-0.582322	0.585123
C104	C	1.119692	-0.533896	0.611081
H105	H	1.066295	-0.627832	0.560722
H106	H	0.996033	-0.560787	0.531686
H107	H	0.996063	-0.591198	0.645366
H108	H	1.161567	-0.525015	0.550836
H109	H	1.161618	-0.555435	0.664523
C110	C	1.616110	-0.130526	0.997033
C111	C	1.633913	-0.177637	0.911652
H112	H	1.597958	-0.082601	0.972229
H113	H	1.677863	-0.127393	1.038389
H114	H	1.560419	-0.149632	1.038374
H115	H	1.689608	-0.158534	0.870314
H116	H	1.572152	-0.180768	0.870278
C117	C	1.836154	-0.301345	0.987589
C118	C	1.767617	-0.283094	0.905863
H119	H	1.900553	-0.318517	0.959211
H120	H	1.805736	-0.339150	1.029461
H121	H	1.848666	-0.258739	1.029510
H122	H	1.755098	-0.325702	0.863947
H123	H	1.798040	-0.245286	0.863973
