data_functionalizedCrystal
_audit_creation_method	'MofGen! by Chris Wilmer'
_symmetry_space_group_name_H-M	'P1'
_symmetry_Int_Tables_number	1
_symmetry_cell_setting	triclinic
loop_
_symmetry_equiv_pos_as_xyz
  x,y,z
_cell_length_a	10.723024
_cell_length_b	14.044220
_cell_length_c	9.198806
_cell_angle_alpha	89.995861
_cell_angle_beta	89.996352
_cell_angle_gamma	88.828373
loop_
_atom_site_label
_atom_site_type_symbol
_atom_site_fract_x
_atom_site_fract_y
_atom_site_fract_z
O1	O	1.670498	0.133040	-0.120888
O2	O	1.308620	0.145774	-0.120893
O3	O	1.484127	0.001387	-0.120876
O4	O	1.494991	0.277427	-0.120905
O5	O	1.484112	0.001387	0.120909
O6	O	1.308604	0.145774	0.120892
O7	O	1.670483	0.133039	0.120898
Cu8	Cu	1.489542	0.139407	0.142972
Cu9	Cu	1.489560	0.139407	-0.142967
O10	O	1.494975	0.277427	0.120881
C11	C	1.262020	0.144847	-0.000001
C12	C	1.123188	0.142075	-0.000003
C13	C	1.056288	0.222866	-0.000012
C14	C	0.912798	0.220002	-0.000013
C15	C	1.479364	-0.033958	0.000017
C16	C	1.465180	-0.139276	0.000019
C17	C	1.439248	-0.332106	-0.000003
C18	C	1.539849	-0.389085	-0.000006
C19	C	1.525420	-0.496383	-0.000017
C20	C	1.453675	-0.224799	0.000009
C21	C	1.717083	0.133966	0.000002
C22	C	1.855914	0.136739	-0.000006
C23	C	1.499738	0.312772	-0.000016
C24	C	1.513923	0.418090	-0.000027
N25	N	1.489539	0.139406	0.344086
N26	N	1.489573	0.139401	-0.344081
C27	C	1.563202	0.078514	0.416290
C28	C	1.563221	0.078511	0.583702
H29	H	0.855286	0.289166	-0.000027
H30	H	1.426508	0.191538	0.593836
C31	C	1.319219	-0.474556	0.000008
C32	C	1.308355	-0.375030	0.000008
H33	H	1.238411	-0.501062	0.000028
H34	H	1.363289	-0.495048	-0.084310
H35	H	1.363310	-0.495056	0.084322
H36	H	1.264272	-0.354530	-0.084312
H37	H	1.264266	-0.354530	0.084335
C38	C	1.617658	-0.085259	0.369051
C39	C	1.648327	0.008159	0.332401
H40	H	1.670209	-0.128687	0.317244
H41	H	1.628864	-0.094510	0.470535
H42	H	1.533103	-0.095938	0.344204
H43	H	1.732879	0.018840	0.357257
H44	H	1.637131	0.017414	0.230894
C45	C	1.336290	0.266081	0.329160
C46	C	1.404409	0.209779	0.427933
H47	H	1.283727	0.309522	0.380925
H48	H	1.392141	0.300482	0.269786
H49	H	1.286787	0.226418	0.269799
H50	H	1.453919	0.249442	0.487287
H51	H	1.348551	0.175375	0.487332
C52	C	1.772979	0.023890	0.630803
C53	C	1.648363	0.008129	0.667513
H54	H	1.825541	-0.019561	0.682553
H55	H	1.784126	0.014656	0.529307
H56	H	1.793788	0.087261	0.655676
H57	H	1.627551	-0.055240	0.642629
H58	H	1.637210	0.017355	0.769031
H59	H	0.913420	0.067571	-0.000007
C60	C	1.197064	0.325807	-0.124310
C61	C	1.122361	0.319110	-0.000019
H62	H	1.237846	0.385228	-0.124315
H63	H	1.257622	0.275496	-0.124292
H64	H	1.146380	0.321254	-0.208618
H65	H	1.173047	0.323656	0.084289
H66	H	1.061796	0.369435	-0.000024
C67	C	0.982435	0.039136	-0.124294
C68	C	1.057118	0.045830	0.000001
H69	H	0.941656	-0.020286	-0.124294
H70	H	0.921875	0.089446	-0.124285
H71	H	1.033131	0.043694	-0.208599
H72	H	1.006420	0.041279	0.084307
H73	H	1.117686	-0.004493	0.000006
C74	C	1.659899	-0.246636	0.000037
C75	C	1.670751	-0.346162	0.000019
H76	H	1.740710	-0.220136	0.000064
H77	H	1.615842	-0.226126	-0.084278
H78	H	1.615800	-0.226148	0.084354
H79	H	1.714842	-0.366651	-0.084304
H80	H	1.714827	-0.366680	0.084342
