data_functionalizedCrystal
_audit_creation_method	'MofGen! by Chris Wilmer'
_symmetry_space_group_name_H-M	'P1'
_symmetry_Int_Tables_number	1
_symmetry_cell_setting	triclinic
loop_
_symmetry_equiv_pos_as_xyz
  x,y,z
_cell_length_a	18.050591
_cell_length_b	18.050590
_cell_length_c	11.169409
_cell_angle_alpha	90.037983
_cell_angle_beta	90.028021
_cell_angle_gamma	90.015000
loop_
_atom_site_label
_atom_site_type_symbol
_atom_site_fract_x
_atom_site_fract_y
_atom_site_fract_z
Zn1	Zn	1.135403	-0.295670	0.678758
Zn2	Zn	1.635403	0.204330	1.178758
Zn3	Zn	1.135317	-0.419885	0.478055
Zn4	Zn	1.635317	0.080115	0.978055
Zn5	Zn	1.011204	-0.295705	0.478064
Zn6	Zn	1.511204	0.204295	0.978064
Zn7	Zn	1.011191	-0.419815	0.678671
Zn8	Zn	1.511191	0.080185	1.178671
O9	O	1.073279	-0.357769	0.578387
O10	O	1.573279	0.142231	1.078387
O11	O	1.239316	-0.312161	0.652167
O12	O	1.739316	0.187839	1.152167
O13	O	1.118822	-0.403456	0.310106
O14	O	1.618822	0.096544	0.810106
O15	O	1.027721	-0.191776	0.504726
O16	O	1.527721	0.308224	1.004726
O17	O	1.239253	-0.403422	0.504712
O18	O	1.739253	0.096578	1.004712
O19	O	1.118969	-0.191750	0.652175
O20	O	1.618969	0.308250	1.152175
O21	O	1.027637	-0.312222	0.310113
O22	O	1.527637	0.187778	0.810113
O23	O	0.907278	-0.312154	0.504642
O24	O	1.407278	0.187846	1.004642
O25	O	1.027699	-0.403302	0.846633
O26	O	1.527699	0.096698	1.346633
O27	O	0.907268	-0.403337	0.652028
O28	O	1.407268	0.096663	1.152028
O29	O	1.118957	-0.312093	0.846696
O30	O	1.618957	0.187907	1.346696
O31	O	1.118810	-0.523800	0.504627
O32	O	1.618810	-0.023800	1.004627
O33	O	1.027615	-0.523748	0.652019
O34	O	1.527615	-0.023748	1.152019
C35	C	0.880327	-0.357742	0.578327
C36	C	1.380327	0.142258	1.078327
C37	C	0.797781	-0.357749	0.578330
C38	C	1.297781	0.142251	1.078330
C39	C	1.073222	-0.550721	0.578339
C40	C	1.573222	-0.050721	1.078339
C41	C	1.073265	-0.633266	0.578359
C42	C	1.573265	-0.133266	1.078359
C43	C	0.548939	-0.308113	0.498371
C44	C	1.048939	0.191887	0.998371
C45	C	0.598378	-0.290014	0.607903
C46	C	1.098378	0.209986	1.107903
C47	C	0.500661	-0.357787	0.578428
C48	C	1.000661	0.142213	1.078428
C49	C	0.598303	-0.375832	0.468854
C50	C	1.098303	0.124168	0.968854
C51	C	0.646646	-0.357767	0.578374
C52	C	1.146646	0.142233	1.078374
C53	C	0.549012	-0.339654	0.688018
C54	C	1.049012	0.160346	1.188018
C55	C	0.548933	-0.425503	0.548896
C56	C	1.048933	0.074497	1.048896
C57	C	0.598350	-0.407430	0.658503
C58	C	1.098350	0.092570	1.158503
C59	C	0.416562	-0.357797	0.578458
C60	C	0.916562	0.142203	1.078458
C61	C	0.730742	-0.357757	0.578357
C62	C	1.230742	0.142243	1.078357
C63	C	1.122960	-0.832718	0.498319
C64	C	1.622960	-0.332718	0.998319
C65	C	1.141105	-0.882040	0.607859
C66	C	1.641105	-0.382040	1.107859
C67	C	1.073307	-0.784397	0.578407
C68	C	1.573307	-0.284397	1.078407
C69	C	1.055238	-0.882156	0.468916
C70	C	1.555238	-0.382156	0.968916
C71	C	1.073350	-0.930382	0.578443
C72	C	1.573350	-0.430382	1.078443
C73	C	1.091487	-0.832632	0.688005
C74	C	1.591487	-0.332632	1.188005
C75	C	1.005588	-0.832743	0.548987
C76	C	1.505588	-0.332743	1.048987
C77	C	1.023708	-0.882043	0.658603
C78	C	1.523708	-0.382043	1.158603
C79	C	1.073285	-0.700298	0.578384
C80	C	1.573285	-0.200298	1.078384
C81	C	1.073372	-1.014478	0.578478
C82	C	1.573372	-0.514478	1.078478
C83	C	1.266984	-0.357795	0.578448
C84	C	1.766984	0.142205	1.078448
C85	C	1.349530	-0.357807	0.578474
C86	C	1.849530	0.142193	1.078474
C87	C	1.073336	-0.357686	0.891430
C88	C	1.573336	0.142314	1.391430
C89	C	1.073360	-0.357651	1.024830
C90	C	1.573360	0.142349	1.524830
C91	C	1.073356	-0.164063	0.578461
C92	C	1.573356	0.335937	1.078461
C93	C	1.073389	-0.081517	0.578493
C94	C	1.573389	0.418483	1.078493
C95	C	1.073265	-0.357797	0.266562
C96	C	1.573265	0.142203	0.766562
C97	C	1.073384	-0.357623	0.133163
C98	C	1.573384	0.142377	0.633163
H99	H	0.527246	-0.266082	0.430776
H100	H	1.027246	0.233918	0.930776
H101	H	1.198392	-0.903697	0.632766
H102	H	1.698392	-0.403697	1.132766
H103	H	1.106731	-0.810971	0.780694
H104	H	1.606731	-0.310971	1.280694
H105	H	1.039937	-0.903909	0.376306
H106	H	1.539937	-0.403909	0.876306
H107	H	0.620083	-0.232737	0.632881
H108	H	1.120083	0.267263	1.132881
Cl109	Cl	1.187807	-0.799275	0.393860
Cl110	Cl	1.687807	-0.299275	0.893860
Cl111	Cl	0.515726	-0.315971	0.831093
Cl112	Cl	1.015726	0.184029	1.331093
Cl113	Cl	0.631635	-0.472276	0.763108
Cl114	Cl	1.131635	0.027724	1.263108
Cl115	Cl	0.958907	-0.915276	0.763309
Cl116	Cl	1.458907	-0.415276	1.263309
Cl117	Cl	0.631736	-0.399410	0.325824
Cl118	Cl	1.131736	0.100590	0.825824
Cl119	Cl	0.515371	-0.513904	0.510302
Cl120	Cl	1.015371	-0.013904	1.010302
Cl121	Cl	0.917164	-0.799285	0.510487
Cl122	Cl	1.417164	-0.299285	1.010487
