data_functionalizedCrystal
_audit_creation_method	'MofGen! by Chris Wilmer'
_symmetry_space_group_name_H-M	'P1'
_symmetry_Int_Tables_number	1
_symmetry_cell_setting	triclinic
loop_
_symmetry_equiv_pos_as_xyz
  x,y,z
_cell_length_a	18.101398
_cell_length_b	18.101397
_cell_length_c	16.959447
_cell_angle_alpha	90.033674
_cell_angle_beta	90.020773
_cell_angle_gamma	90.015732
loop_
_atom_site_label
_atom_site_type_symbol
_atom_site_fract_x
_atom_site_fract_y
_atom_site_fract_z
Zn1	Zn	1.132150	-0.294908	0.447026
Zn2	Zn	1.132076	-0.418761	0.314840
Zn3	Zn	1.008316	-0.294928	0.314849
Zn4	Zn	1.008282	-0.418702	0.446964
O5	O	1.070206	-0.356825	0.380920
O6	O	1.235773	-0.311354	0.429514
O7	O	1.115643	-0.402368	0.204230
O8	O	1.024788	-0.191293	0.332412
O9	O	1.235719	-0.402349	0.332397
O10	O	1.115768	-0.191278	0.429523
O11	O	1.024717	-0.311388	0.204237
O12	O	0.904679	-0.311331	0.332352
O13	O	1.024730	-0.402248	0.557583
O14	O	0.904654	-0.402267	0.429416
O15	O	1.115735	-0.311297	0.557629
O16	O	1.115610	-0.522386	0.332337
O17	O	1.024659	-0.522343	0.429407
C18	C	0.877796	-0.356795	0.380878
C19	C	0.795482	-0.356800	0.380880
C20	C	0.496391	-0.356846	0.380946
C21	C	0.527707	-0.299345	0.320174
C22	C	0.613325	-0.299500	0.319914
C23	C	0.644773	-0.356823	0.380913
C24	C	0.613671	-0.434835	0.358149
C25	C	0.528026	-0.434516	0.357726
C26	C	0.527997	-0.337013	0.464625
C27	C	0.613647	-0.335275	0.464169
C28	C	0.728633	-0.356814	0.380896
C29	C	0.412531	-0.356860	0.380961
C30	C	1.070143	-0.549236	0.380881
C31	C	1.070184	-0.631550	0.380891
C32	C	1.070278	-0.930641	0.380964
C33	C	1.127342	-0.899312	0.319726
C34	C	1.127540	-0.813693	0.319884
C35	C	1.070231	-0.782258	0.380927
C36	C	1.091382	-0.813263	0.464246
C37	C	1.091824	-0.898908	0.463912
C38	C	0.991911	-0.899144	0.359604
C39	C	0.992298	-0.813495	0.357744
C40	C	1.070203	-0.698399	0.380912
C41	C	1.070308	-1.014500	0.380985
C42	C	1.263368	-0.356856	0.380962
C43	C	1.345682	-0.356869	0.380979
C44	C	1.070237	-0.356764	0.587088
C45	C	1.070250	-0.356738	0.674945
C46	C	1.070290	-0.163663	0.380975
C47	C	1.070326	-0.081349	0.380999
C48	C	1.070218	-0.356833	0.175553
C49	C	1.070349	-0.356650	0.087697
C50	C	1.022957	-0.404013	1.046399
C51	C	1.117721	-0.309306	1.046442
C52	C	1.117701	-0.309321	0.963896
C53	C	1.070309	-0.356685	0.922598
C54	C	1.022937	-0.404032	0.963845
C55	C	1.165078	-0.261980	0.922642
C56	C	1.165060	-0.261994	0.840091
C57	C	1.117664	-0.309354	0.798791
C58	C	1.070290	-0.356703	0.840044
C59	C	1.022898	-0.404067	0.798746
C60	C	0.975519	-0.451412	0.839997
C61	C	0.975541	-0.451392	0.922546
C62	C	1.117642	-0.309374	0.716243
C63	C	1.022878	-0.404085	0.716192
H64	H	0.633980	-0.277867	0.481334
H65	H	1.185590	-0.793154	0.334018
H66	H	0.936936	-0.489979	0.806361
H67	H	1.156309	-0.270749	1.080072
H68	H	1.203666	-0.223424	0.956273
C69	C	1.217168	-0.209911	0.794722
H70	H	1.245391	-0.181698	0.831142
H71	H	1.249415	-0.238247	0.762508
H72	H	1.188837	-0.177643	0.762534
C73	C	1.038125	-0.926905	0.527660
H74	H	1.016142	-0.885934	0.553650
H75	H	1.000700	-0.956111	0.503738
H76	H	1.064418	-0.955931	0.564934
C77	C	1.169748	-0.257297	0.670870
H78	H	1.197973	-0.229085	0.707289
H79	H	1.201993	-0.285635	0.638655
H80	H	1.141418	-0.225028	0.638682
C81	C	0.970746	-0.456184	0.670767
H82	H	0.977516	-0.449413	0.615695
H83	H	0.981561	-0.505941	0.684281
H84	H	0.920994	-0.445326	0.684292
C85	C	0.500035	-0.494290	0.414983
H86	H	0.541009	-0.518671	0.438385
H87	H	0.470920	-0.471882	0.454976
H88	H	0.470920	-0.529185	0.386922
C89	C	0.641738	-0.221348	0.339173
H90	H	0.600937	-0.189219	0.347223
H91	H	0.671017	-0.222950	0.385635
H92	H	0.670777	-0.203654	0.296525
H93	H	0.635057	-0.374104	0.511875
C94	C	1.109762	-0.927300	0.236035
H95	H	1.067459	-0.958337	0.237686
H96	H	1.100301	-0.886408	0.202439
H97	H	1.150700	-0.954467	0.216359
H98	H	0.633785	-0.312612	0.257909
H99	H	0.507125	-0.241319	0.334286
C100	C	0.970734	-0.786114	0.274924
H101	H	0.923539	-0.805194	0.261237
H102	H	0.969054	-0.733664	0.274747
H103	H	1.006302	-0.802600	0.237690
C104	C	0.965913	-0.928397	0.278949
H105	H	0.918522	-0.908729	0.267183
H106	H	1.000003	-0.913730	0.239365
H107	H	0.963166	-0.980786	0.280543
C108	C	0.500640	-0.393583	0.525801
H109	H	0.519925	-0.381312	0.576244
H110	H	0.448198	-0.392768	0.527654
H111	H	0.516933	-0.441574	0.511246
C112	C	1.036943	-0.785777	0.527544
H113	H	1.050746	-0.805186	0.577454
H114	H	1.038046	-0.733341	0.529505
H115	H	0.988441	-0.801867	0.514727
H116	H	0.634041	-0.478826	0.401027
C117	C	1.169208	-0.925826	0.488343
H118	H	1.200081	-0.884419	0.498374
H119	H	1.165440	-0.955023	0.534692
H120	H	1.189853	-0.954631	0.447021
C121	C	0.498845	-0.261502	0.492590
H122	H	0.518579	-0.250587	0.543189
H123	H	0.513507	-0.224341	0.456293
H124	H	0.446458	-0.262999	0.495547
C125	C	0.500996	-0.457229	0.275086
H126	H	0.542358	-0.466561	0.242087
H127	H	0.471763	-0.500661	0.279010
H128	H	0.472203	-0.418466	0.253170
H129	H	1.114308	-0.792734	0.258105
C130	C	1.205337	-0.928307	0.338600
H131	H	1.203276	-0.959421	0.383640
H132	H	1.223558	-0.955579	0.294869
H133	H	1.237294	-0.887805	0.348954
H134	H	0.635092	-0.451946	0.297636
H135	H	0.506163	-0.312309	0.258529
H136	H	1.148024	-0.791759	0.482644
H137	H	0.947494	-0.792104	0.399080
C138	C	0.934496	-0.926406	0.419933
H139	H	0.958125	-0.956849	0.457946
H140	H	0.912654	-0.885156	0.445539
H141	H	0.897303	-0.954018	0.393556
C142	C	0.923435	-0.503471	0.967923
H143	H	0.930242	-0.496682	1.023000
H144	H	0.873677	-0.492631	0.954397
H145	H	0.934255	-0.553236	0.954376
H146	H	0.984380	-0.442559	1.079989
