data_functionalizedCrystal
_audit_creation_method	'MofGen! by Chris Wilmer'
_symmetry_space_group_name_H-M	'P1'
_symmetry_Int_Tables_number	1
_symmetry_cell_setting	triclinic
loop_
_symmetry_equiv_pos_as_xyz
  x,y,z
_cell_length_a	26.809956
_cell_length_b	19.188930
_cell_length_c	19.188930
_cell_angle_alpha	83.144779
_cell_angle_beta	89.999211
_cell_angle_gamma	89.977321
loop_
_atom_site_label
_atom_site_type_symbol
_atom_site_fract_x
_atom_site_fract_y
_atom_site_fract_z
O1	O	0.041646	-0.926150	-0.087158
O2	O	0.374979	-0.592817	0.246176
O3	O	0.708312	-0.259484	0.579509
O4	O	0.041612	-0.722839	-0.098892
O5	O	0.374945	-0.389506	0.234441
O6	O	0.708279	-0.056172	0.567775
O7	O	0.041620	-0.830362	0.008631
O8	O	0.374953	-0.497029	0.341964
O9	O	0.708287	-0.163695	0.675297
O10	O	0.041638	-0.818628	-0.194681
O11	O	0.374971	-0.485294	0.138653
O12	O	0.708304	-0.151961	0.471986
O13	O	-0.041339	-0.830342	0.008614
O14	O	0.291994	-0.497008	0.341948
O15	O	0.625327	-0.163675	0.675281
O16	O	-0.041347	-0.722819	-0.098908
O17	O	0.291986	-0.389485	0.234425
O18	O	0.625319	-0.056152	0.567758
O19	O	-0.041314	-0.926130	-0.087174
O20	O	0.292020	-0.592797	0.246159
O21	O	0.625353	-0.259463	0.579493
Zn22	Zn	-0.054502	-0.824471	-0.093044
Zn23	Zn	0.278831	-0.491138	0.240289
Zn24	Zn	0.612165	-0.157805	0.573623
Zn25	Zn	0.054800	-0.824498	-0.093022
Zn26	Zn	0.388134	-0.491165	0.240311
Zn27	Zn	0.721467	-0.157831	0.573644
O28	O	-0.041322	-0.818607	-0.194697
O29	O	0.292012	-0.485274	0.138636
O30	O	0.625345	-0.151941	0.471970
C31	C	0.000128	-0.696818	-0.098520
C32	C	0.333461	-0.363485	0.234813
C33	C	0.666795	-0.030151	0.568146
C34	C	0.000115	-0.619313	-0.097380
C35	C	0.333448	-0.285980	0.235954
C36	C	0.666781	0.047353	0.569287
N37	N	-0.129098	-0.824458	-0.093058
N38	N	0.204235	-0.491125	0.240275
N39	N	0.537569	-0.157791	0.573609
C40	C	0.000139	-0.829972	0.034634
C41	C	0.333472	-0.496638	0.367967
C42	C	0.666806	-0.163305	0.701300
C43	C	0.000134	-0.828831	0.112138
C44	C	0.333468	-0.495498	0.445471
C45	C	0.666801	-0.162164	0.778805
C46	C	-0.473721	-0.872103	-0.045423
C47	C	-0.140387	-0.538770	0.287910
C48	C	0.192946	-0.205436	0.621244
C49	C	-0.682598	-0.872119	-0.045412
C50	C	-0.349265	-0.538786	0.287921
C51	C	-0.015932	-0.205453	0.621254
O52	O	-0.709599	-0.912600	-0.004915
O53	O	-0.376266	-0.579267	0.328418
O54	O	-0.042932	-0.245934	0.661751
N55	N	-0.708725	-0.824502	-0.093007
N56	N	-0.375392	-0.491168	0.240326
N57	N	-0.042058	-0.157835	0.573660
C58	C	-0.682629	-0.776873	-0.140604
C59	C	-0.349296	-0.443540	0.192729
C60	C	-0.015963	-0.110207	0.526062
O61	O	-0.709645	-0.736367	-0.181082
O62	O	-0.376311	-0.403034	0.152252
O63	O	-0.042978	-0.069701	0.485585
C64	C	-0.473753	-0.776854	-0.140611
C65	C	-0.140419	-0.443521	0.192722
C66	C	0.192914	-0.110187	0.526055
C67	C	-0.447628	-0.824480	-0.093018
C68	C	-0.114295	-0.491146	0.240315
C69	C	0.219038	-0.157813	0.573648
C70	C	-0.447596	-0.919724	0.002167
C71	C	-0.114263	-0.586391	0.335500
C72	C	0.219070	-0.253057	0.668833
C73	C	-0.395380	-0.919722	0.002161
C74	C	-0.062047	-0.586389	0.335494
C75	C	0.271287	-0.253055	0.668828
C76	C	-0.369288	-0.872099	-0.045434
C77	C	-0.035955	-0.538765	0.287899
C78	C	0.297379	-0.205432	0.621232
C79	C	-0.395412	-0.824478	-0.093024
C80	C	-0.062079	-0.491144	0.240309
C81	C	0.271255	-0.157811	0.573643
C82	C	-0.447658	-0.729223	-0.188205
C83	C	-0.114325	-0.395890	0.145128
C84	C	0.219009	-0.062556	0.478462
C85	C	-0.395435	-0.729221	-0.188201
C86	C	-0.062102	-0.395888	0.145132
C87	C	0.271231	-0.062555	0.478465
C88	C	-0.369311	-0.776847	-0.140608
C89	C	-0.035978	-0.443513	0.192725
C90	C	0.297355	-0.110180	0.526058
C91	C	-0.317104	-0.776852	-0.140625
C92	C	0.016230	-0.443519	0.192708
C93	C	0.349563	-0.110186	0.526042
N94	N	-0.290977	-0.824470	-0.093030
N95	N	0.042356	-0.491137	0.240303
N96	N	0.375690	-0.157803	0.573636
C97	C	-0.317069	-0.872093	-0.045435
C98	C	0.016264	-0.538760	0.287898
C99	C	0.349598	-0.205427	0.621232
C100	C	-0.792293	-0.776888	-0.140598
C101	C	-0.458959	-0.443555	0.192735
C102	C	-0.125626	-0.110221	0.526068
C103	C	-0.844512	-0.776893	-0.140598
C104	C	-0.511178	-0.443560	0.192736
C105	C	-0.177845	-0.110227	0.526069
C106	C	-0.844477	-0.872139	-0.045404
C107	C	-0.511144	-0.538805	0.287929
C108	C	-0.177810	-0.205472	0.621262
C109	C	-0.792257	-0.872136	-0.045409
C110	C	-0.458924	-0.538803	0.287924
C111	C	-0.125590	-0.205469	0.621258
C112	C	-0.766166	-0.824506	-0.093004
C113	C	-0.432832	-0.491172	0.240329
C114	C	-0.099499	-0.157839	0.573663
C115	C	-0.207411	-0.872086	-0.045451
C116	C	0.125922	-0.538752	0.287882
C117	C	0.459256	-0.205419	0.621216
C118	C	-0.155190	-0.872081	-0.045463
C119	C	0.178143	-0.538748	0.287871
C120	C	0.511477	-0.205415	0.621204
C121	C	-0.155229	-0.776834	-0.140653
C122	C	0.178104	-0.443501	0.192680
C123	C	0.511437	-0.110167	0.526013
C124	C	-0.207446	-0.776840	-0.140644
C125	C	0.125888	-0.443507	0.192689
C126	C	0.459221	-0.110174	0.526022
C127	C	-0.233535	-0.824469	-0.093037
C128	C	0.099798	-0.491136	0.240296
C129	C	0.433131	-0.157802	0.573629
O130	O	-0.290071	-0.736387	-0.181095
O131	O	0.043263	-0.403054	0.152238
O132	O	0.376596	-0.069721	0.485571
O133	O	-0.290045	-0.912583	-0.004954
O134	O	0.043289	-0.579250	0.328380
O135	O	0.376622	-0.245916	0.661713
C136	C	-0.525937	-0.872105	-0.045417
C137	C	-0.192603	-0.538772	0.287916
C138	C	0.140730	-0.205438	0.621249
C139	C	-0.552061	-0.824484	-0.093007
C140	C	-0.218728	-0.491151	0.240326
C141	C	0.114606	-0.157817	0.573660
C142	C	-0.525969	-0.776861	-0.140602
C143	C	-0.192636	-0.443527	0.192731
C144	C	0.140698	-0.110194	0.526064
C145	C	-0.604280	-0.824489	-0.093006
C146	C	-0.270947	-0.491156	0.240327
C147	C	0.062387	-0.157823	0.573661
C148	C	-0.630372	-0.872113	-0.045411
C149	C	-0.297039	-0.538779	0.287923
C150	C	0.036295	-0.205446	0.621256
C151	C	-0.604245	-0.919730	0.002184
C152	C	-0.270912	-0.586397	0.335517
C153	C	0.062421	-0.253064	0.668850
C154	C	-0.552029	-0.919728	0.002178
C155	C	-0.218696	-0.586395	0.335511
C156	C	0.114638	-0.253062	0.668845
C157	C	-0.552096	-0.729243	-0.188197
C158	C	-0.218762	-0.395910	0.145136
C159	C	0.114571	-0.062576	0.478470
C160	C	-0.604312	-0.729249	-0.188188
C161	C	-0.270979	-0.395916	0.145146
C162	C	0.062354	-0.062583	0.478479
C163	C	-0.630404	-0.776873	-0.140592
C164	C	-0.297071	-0.443539	0.192741
C165	C	0.036262	-0.110206	0.526074
N166	N	0.129396	-0.824517	-0.093002
N167	N	0.462730	-0.491183	0.240331
N168	N	0.796063	-0.157850	0.573664
C169	C	0.000171	-0.952151	-0.087546
C170	C	0.333505	-0.618818	0.245787
C171	C	0.666838	-0.285485	0.579121
C172	C	0.000188	-1.029656	-0.088687
C173	C	0.333521	-0.696322	0.244647
C174	C	0.666855	-0.362989	0.577980
C175	C	0.000128	-0.574389	-0.160470
C176	C	0.333461	-0.241056	0.172863
C177	C	0.666795	0.092277	0.506196
C178	C	0.000133	-0.501566	-0.159399
C179	C	0.333467	-0.168232	0.173935
C180	C	0.666800	0.165101	0.507268
C181	C	0.000136	-0.473669	-0.095233
C182	C	0.333469	-0.140336	0.238101
C183	C	0.666802	0.192998	0.571434
C184	C	0.000120	-0.518603	-0.032133
C185	C	0.333453	-0.185270	0.301200
C186	C	0.666786	0.148064	0.634533
C187	C	0.000109	-0.591425	-0.033207
C188	C	0.333442	-0.258092	0.300126
C189	C	0.666776	0.075242	0.633460
N190	N	0.028386	-0.365696	-0.046180
N191	N	0.361719	-0.032362	0.287153
N192	N	0.695053	0.300971	0.620487
N193	N	0.028397	-0.296517	-0.045165
N194	N	0.361730	0.036816	0.288169
N195	N	0.695064	0.370149	0.621502
C196	C	0.000166	-0.254260	-0.091994
C197	C	0.333499	0.079073	0.241339
C198	C	0.666833	0.412406	0.574672
N199	N	-0.028070	-0.283794	-0.139889
N200	N	0.305263	0.049539	0.193445
N201	N	0.638596	0.382872	0.526778
N202	N	-0.028079	-0.352979	-0.140906
N203	N	0.305254	-0.019646	0.192427
N204	N	0.638588	0.313688	0.525760
C205	C	0.000147	-0.394707	-0.094061
C206	C	0.333480	-0.061373	0.239272
C207	C	0.666813	0.271960	0.572605
C208	C	0.000184	-0.130372	-0.153928
C209	C	0.333518	0.202961	0.179406
C210	C	0.666851	0.536295	0.512739
C211	C	0.000187	-0.057547	-0.152853
C212	C	0.333520	0.275786	0.180480
C213	C	0.666853	0.609119	0.513813
C214	C	0.000178	-0.074586	-0.025586
C215	C	0.333511	0.258747	0.307747
C216	C	0.666844	0.592081	0.641080
C217	C	0.000170	-0.147409	-0.026662
C218	C	0.333504	0.185924	0.306671
C219	C	0.666837	0.519257	0.640004
C220	C	0.000176	-0.175298	-0.090835
C221	C	0.333509	0.158036	0.242498
C222	C	0.666843	0.491369	0.575832
C223	C	0.000161	-0.818997	-0.220700
C224	C	0.333494	-0.485664	0.112634
C225	C	0.666827	-0.152331	0.445967
C226	C	0.000168	-0.820138	-0.298204
C227	C	0.333502	-0.486805	0.035129
C228	C	0.666835	-0.153471	0.368462
C229	C	0.000142	-0.891922	0.157062
C230	C	0.333476	-0.558589	0.490395
C231	C	0.666809	-0.225255	0.823729
C232	C	0.000150	-0.890850	0.229886
C233	C	0.333484	-0.557517	0.563219
C234	C	0.666817	-0.224184	0.896553
C235	C	0.000140	-0.826684	0.257782
C236	C	0.333473	-0.493351	0.591116
C237	C	0.666807	-0.160017	0.924449
C238	C	0.000135	-0.763585	0.212849
C239	C	0.333468	-0.430252	0.546182
C240	C	0.666801	-0.096918	0.879515
C241	C	0.000132	-0.764658	0.140026
C242	C	0.333465	-0.431325	0.473360
C243	C	0.666799	-0.097992	0.806693
N244	N	-0.028101	-0.777630	0.365782
N245	N	0.305233	-0.444297	0.699115
N246	N	0.638566	-0.110963	1.032448
N247	N	-0.028099	-0.776614	0.434960
N248	N	0.305234	-0.443281	0.768294
N249	N	0.638568	-0.109948	1.101627
C250	C	0.000150	-0.823446	0.477191
C251	C	0.333483	-0.490113	0.810524
C252	C	0.666816	-0.156779	1.143858
N253	N	0.028390	-0.871342	0.447631
N254	N	0.361724	-0.538009	0.780964
N255	N	0.695057	-0.204675	1.114298
N256	N	0.028386	-0.872359	0.378446
N257	N	0.361720	-0.539026	0.711780
N258	N	0.695053	-0.205693	1.045113
C259	C	0.000143	-0.825513	0.336745
C260	C	0.333477	-0.492180	0.670078
C261	C	0.666810	-0.158846	1.003412
C262	C	0.000167	-0.885379	0.601079
C263	C	0.333500	-0.552046	0.934413
C264	C	0.666833	-0.218712	1.267746
C265	C	0.000178	-0.884305	0.673904
C266	C	0.333511	-0.550971	1.007238
C267	C	0.666844	-0.217638	1.340571
C268	C	0.000157	-0.757038	0.656865
C269	C	0.333491	-0.423704	0.990199
C270	C	0.666824	-0.090371	1.323532
C271	C	0.000151	-0.758114	0.584042
C272	C	0.333485	-0.424781	0.917376
C273	C	0.666818	-0.091447	1.250709
C274	C	0.000154	-0.822287	0.556154
C275	C	0.333487	-0.488953	0.889487
C276	C	0.666820	-0.155620	1.222821
H277	H	-0.133921	-0.910866	-0.006707
H278	H	0.199412	-0.577533	0.326626
H279	H	0.532745	-0.244200	0.659960
C280	C	0.000122	-0.693004	0.243532
C281	C	0.333455	-0.359671	0.576865
C282	C	0.666788	-0.026338	0.910199
H283	H	0.000119	-0.701400	0.293337
H284	H	0.333453	-0.368067	0.626670
H285	H	0.666786	-0.034734	0.960003
H286	H	0.029047	-0.667041	0.228098
H287	H	0.362380	-0.333708	0.561431
H288	H	0.695714	-0.000375	0.894764
H289	H	-0.028816	-0.667030	0.228098
H290	H	0.304517	-0.333696	0.561431
H291	H	0.637851	-0.000363	0.894764
H292	H	0.000128	-0.495885	0.020111
H293	H	0.333461	-0.162552	0.353444
H294	H	0.666795	0.170782	0.686778
C295	C	0.000156	-0.452141	-0.228801
C296	C	0.333489	-0.118807	0.104532
C297	C	0.666822	0.214526	0.437866
H298	H	0.000162	-0.479180	-0.267173
H299	H	0.333495	-0.145847	0.066161
H300	H	0.666828	0.187487	0.399494
H301	H	-0.028767	-0.423348	-0.231041
H302	H	0.304567	-0.090014	0.102292
H303	H	0.637900	0.243319	0.435626
H304	H	0.029096	-0.423410	-0.231010
H305	H	0.362430	-0.090077	0.102323
H306	H	0.695763	0.243256	0.435657
C307	C	0.000155	-0.960253	0.279311
C308	C	0.333489	-0.626919	0.612644
C309	C	0.666822	-0.293586	0.945978
H310	H	0.000153	-0.998624	0.252272
H311	H	0.333487	-0.665291	0.585605
H312	H	0.666820	-0.331957	0.918938
H313	H	0.029085	-0.962491	0.308075
H314	H	0.362418	-0.629157	0.641408
H315	H	0.695752	-0.295824	0.974741
H316	H	-0.028778	-0.962463	0.308071
H317	H	0.304555	-0.629130	0.641404
H318	H	0.637889	-0.295797	0.974737
H319	H	-0.625498	-0.958510	0.040936
H320	H	-0.292165	-0.625176	0.374269
H321	H	0.041169	-0.291843	0.707602
H322	H	0.000134	-0.597091	-0.212725
H323	H	0.333467	-0.263758	0.120609
H324	H	0.666800	0.069576	0.453942
H325	H	-0.228647	-0.910868	-0.006684
H326	H	0.104686	-0.577535	0.326649
H327	H	0.438019	-0.244202	0.659982
C328	C	0.000119	-0.695256	0.090608
C329	C	0.333452	-0.361922	0.423941
C330	C	0.666785	-0.028589	0.757275
H331	H	0.000111	-0.656885	0.117649
H332	H	0.333445	-0.323552	0.450982
H333	H	0.666778	0.009781	0.784316
H334	H	0.029045	-0.693036	0.061840
H335	H	0.362378	-0.359703	0.395173
H336	H	0.695711	-0.026369	0.728507
H337	H	-0.028818	-0.693024	0.061853
H338	H	0.304515	-0.359691	0.395186
H339	H	0.637848	-0.026357	0.728519
C340	C	0.000098	-0.640846	0.036194
C341	C	0.333432	-0.307513	0.369527
C342	C	0.666765	0.025820	0.702861
H343	H	0.000090	-0.688211	0.026364
H344	H	0.333424	-0.354878	0.359697
H345	H	0.666757	-0.021544	0.693031
H346	H	0.029027	-0.632435	0.062522
H347	H	0.362360	-0.299102	0.395856
H348	H	0.695693	0.034231	0.729189
H349	H	-0.028837	-0.632390	0.062508
H350	H	0.304497	-0.299057	0.395841
H351	H	0.637830	0.034277	0.729174
H352	H	-0.374194	-0.690433	-0.226958
H353	H	-0.040861	-0.357099	0.106375
H354	H	0.292472	-0.023766	0.439709
C355	C	-0.873243	-0.724506	-0.192950
C356	C	-0.539909	-0.391173	0.140383
C357	C	-0.206576	-0.057839	0.473716
H358	H	-0.850220	-0.696139	-0.221288
H359	H	-0.516886	-0.362806	0.112045
H360	H	-0.183553	-0.029473	0.445379
H361	H	-0.893608	-0.749523	-0.221958
H362	H	-0.560274	-0.416189	0.111376
H363	H	-0.226941	-0.082856	0.444709
H364	H	-0.893619	-0.695521	-0.167896
H365	H	-0.560286	-0.362187	0.165437
H366	H	-0.226953	-0.028854	0.498770
H367	H	0.000162	-0.183988	0.024713
H368	H	0.333496	0.149346	0.358046
H369	H	0.666829	0.482679	0.691380
H370	H	0.000187	-0.935683	0.710481
H371	H	0.333520	-0.602350	1.043815
H372	H	0.666854	-0.269017	1.377148
H373	H	0.000182	-0.153080	-0.206181
H374	H	0.333515	0.180253	0.127153
H375	H	0.666848	0.513587	0.460486
C376	C	0.000201	-0.008130	-0.222257
C377	C	0.333535	0.325203	0.111076
C378	C	0.666868	0.658536	0.444410
H379	H	0.000208	-0.035172	-0.260626
H380	H	0.333541	0.298161	0.072707
H381	H	0.666874	0.631494	0.406040
H382	H	-0.028725	0.020656	-0.224494
H383	H	0.304609	0.353990	0.108839
H384	H	0.637942	0.687323	0.442172
H385	H	0.029139	0.020607	-0.224472
H386	H	0.362472	0.353940	0.108861
H387	H	0.695805	0.687274	0.442194
H388	H	-0.228716	-0.738066	-0.179406
H389	H	0.104617	-0.404733	0.153928
H390	H	0.437950	-0.071399	0.487261
H391	H	-0.770990	-0.910916	-0.006654
H392	H	-0.437656	-0.577583	0.326679
H393	H	-0.104323	-0.244250	0.660012
H394	H	0.000210	-0.051874	0.026659
H395	H	0.333544	0.281460	0.359992
H396	H	0.666877	0.614793	0.693326
H397	H	0.000171	-0.937632	0.578372
H398	H	0.333504	-0.604299	0.911705
H399	H	0.666838	-0.270966	1.245038
C400	C	-0.873182	-0.924522	0.006954
C401	C	-0.539849	-0.591188	0.340287
C402	C	-0.206515	-0.257855	0.673620
H403	H	-0.850148	-0.952886	0.035301
H404	H	-0.516814	-0.619552	0.368635
H405	H	-0.183481	-0.286219	0.701968
H406	H	-0.893561	-0.899492	0.035950
H407	H	-0.560228	-0.566158	0.369283
H408	H	-0.226895	-0.232825	0.702616
H409	H	-0.893543	-0.953511	-0.018094
H410	H	-0.560210	-0.620178	0.315240
H411	H	-0.226876	-0.286845	0.648573
H412	H	0.000151	-0.704792	0.679578
H413	H	0.333485	-0.371459	1.012911
H414	H	0.666818	-0.038126	1.346245
C415	C	0.000134	-0.688713	0.534624
C416	C	0.333467	-0.355380	0.867957
C417	C	0.666801	-0.022046	1.201290
H418	H	0.000125	-0.650343	0.561666
H419	H	0.333458	-0.317010	0.894999
H420	H	0.666791	0.016323	1.228332
H421	H	0.029061	-0.686491	0.505857
H422	H	0.362394	-0.353158	0.839190
H423	H	0.695728	-0.019825	1.172524
H424	H	-0.028802	-0.686483	0.505867
H425	H	0.304531	-0.353149	0.839200
H426	H	0.637865	-0.019816	1.172534
C427	C	0.000154	-0.962509	0.126388
C428	C	0.333487	-0.629175	0.459722
C429	C	0.666821	-0.295842	0.793055
H430	H	0.000165	-0.999930	0.163578
H431	H	0.333498	-0.666597	0.496911
H432	H	0.666831	-0.333263	0.830244
H433	H	-0.028775	-0.965569	0.098333
H434	H	0.304559	-0.632236	0.431667
H435	H	0.637892	-0.298903	0.765000
H436	H	0.029089	-0.965578	0.098337
H437	H	0.362422	-0.632244	0.431670
H438	H	0.695755	-0.298911	0.765003
C439	C	-0.763599	-0.724497	-0.192962
C440	C	-0.430265	-0.391163	0.140371
C441	C	-0.096932	-0.057830	0.473705
H442	H	-0.786642	-0.696147	-0.221308
H443	H	-0.453309	-0.362814	0.112025
H444	H	-0.119975	-0.029481	0.445358
H445	H	-0.743237	-0.695504	-0.167926
H446	H	-0.409903	-0.362171	0.165407
H447	H	-0.076570	-0.028838	0.498741
H448	H	-0.743222	-0.749524	-0.221970
H449	H	-0.409888	-0.416190	0.111364
H450	H	-0.076555	-0.082857	0.444697
H451	H	-0.468836	-0.958505	0.040928
H452	H	-0.135503	-0.625171	0.374261
H453	H	0.197831	-0.291838	0.707594
C454	C	-0.366650	-0.972102	0.054522
C455	C	-0.033317	-0.638769	0.387855
C456	C	0.300017	-0.305436	0.721189
H457	H	-0.389674	-1.000456	0.082870
H458	H	-0.056341	-0.667123	0.416203
H459	H	0.276992	-0.333789	0.749536
H460	H	-0.346268	-1.001091	0.029486
H461	H	-0.012935	-0.667758	0.362819
H462	H	0.320399	-0.334425	0.696153
H463	H	-0.346290	-0.947070	0.083528
H464	H	-0.012957	-0.613737	0.416861
H465	H	0.320376	-0.280404	0.750195
H466	H	-0.468921	-0.690442	-0.226959
H467	H	-0.135588	-0.357108	0.106374
H468	H	0.197746	-0.023775	0.439708
H469	H	-0.133977	-0.738061	-0.179407
H470	H	0.199356	-0.404728	0.153926
H471	H	0.532690	-0.071395	0.487260
H472	H	-0.530762	-0.958509	0.040933
H473	H	-0.197429	-0.625176	0.374266
H474	H	0.135904	-0.291843	0.707600
H475	H	-0.625579	-0.690468	-0.226950
H476	H	-0.292246	-0.357135	0.106383
H477	H	0.041088	-0.023802	0.439717
H478	H	-0.530856	-0.690461	-0.226954
H479	H	-0.197522	-0.357128	0.106379
H480	H	0.135811	-0.023795	0.439713
