data_functionalizedCrystal
_audit_creation_method	'MofGen! by Chris Wilmer'
_symmetry_space_group_name_H-M	'P1'
_symmetry_Int_Tables_number	1
_symmetry_cell_setting	triclinic
loop_
_symmetry_equiv_pos_as_xyz
  x,y,z
_cell_length_a	17.917603
_cell_length_b	12.970454
_cell_length_c	12.970454
_cell_angle_alpha	59.999776
_cell_angle_beta	89.999951
_cell_angle_gamma	57.011542
loop_
_atom_site_label
_atom_site_type_symbol
_atom_site_fract_x
_atom_site_fract_y
_atom_site_fract_z
Zr1	Zr	0.754907	1.033601	-0.087842
O2	O	0.629783	1.264424	-0.260333
O3	O	0.793264	0.813688	-0.034963
O4	O	0.793265	1.028777	-0.250054
O5	O	0.629781	1.049335	0.124424
O6	O	0.922222	1.012563	-0.241946
O7	O	0.629782	1.049334	-0.045243
O8	O	0.922220	0.627807	0.142812
O9	O	0.629784	1.434091	-0.260334
O10	O	0.905862	0.888000	-0.006361
O11	O	0.809622	0.900102	0.114208
O12	O	0.809623	1.153342	-0.139033
O13	O	0.713384	1.165443	-0.018464
Zr14	Zr	0.960577	1.007742	0.195688
Zr15	Zr	0.960579	1.007741	-0.074911
Zr16	Zr	0.754905	1.033603	0.182757
Zr17	Zr	0.754907	1.304201	-0.087843
Zr18	Zr	0.960577	0.737142	0.195689
O19	O	0.922220	1.227656	0.142809
O20	O	0.922222	1.227654	-0.241947
O21	O	0.629781	1.264426	0.124423
O22	O	1.085701	0.776920	0.368180
O23	O	1.085703	0.776918	-0.016577
O24	O	0.793262	0.813690	0.349793
O25	O	1.085703	0.992008	-0.016578
O26	O	0.922219	1.012566	0.357900
O27	O	0.793262	1.028781	0.349792
O28	O	1.085702	0.992009	0.153089
O29	O	0.793265	1.413535	-0.250056
O30	O	0.922219	0.627808	0.357902
O31	O	1.085701	0.607252	0.368180
O32	O	1.085702	0.607251	0.153091
O33	O	0.629782	1.434092	-0.045245
O34	O	0.793264	1.413537	-0.034966
O35	O	0.905861	0.888002	0.246879
O36	O	1.002101	0.875900	0.126310
O37	O	0.905862	1.141242	-0.006362
O38	O	0.809622	1.153343	0.114207
C39	C	0.857742	0.682193	0.053925
C40	C	0.857742	0.567316	0.053925
C41	C	0.600478	1.053019	0.037748
C42	C	0.513165	1.063998	0.032258
C43	C	0.353321	1.084051	0.022233
C44	C	0.362156	0.957299	0.085610
C45	C	0.273214	0.968457	0.080032
C46	C	0.442270	1.072896	0.027810
C47	C	1.115006	0.988324	0.070098
C48	C	1.202319	0.977346	0.075588
C49	C	0.857744	1.020670	-0.284554
C50	C	0.857744	1.020669	-0.399430
C51	C	0.857742	1.359151	0.053921
C52	C	0.857742	1.474028	0.053921
C53	C	0.857740	1.020674	0.392400
C54	C	0.857740	1.020674	0.507277
C55	C	1.115006	0.649845	0.070100
C56	C	1.202319	0.523990	0.075590
C57	C	0.857740	0.682195	0.392402
C58	C	0.857740	0.567318	0.507279
C59	C	1.115004	0.649847	0.408577
C60	C	1.202317	0.523993	0.528943
C61	C	0.600480	1.391496	-0.300731
C62	C	0.513167	1.517351	-0.421097
C63	C	0.600478	1.391498	0.037746
C64	C	0.513165	1.517354	0.032256
C65	C	0.857744	1.359149	-0.284556
C66	C	0.857745	1.474025	-0.399433
C67	C	1.193087	0.471203	0.008904
C68	C	1.275119	0.352965	0.014037
C69	C	1.366382	0.287508	0.085864
C70	C	1.375613	0.340306	0.152552
C71	C	1.293582	0.458549	0.147411
C72	C	1.293564	0.458572	0.522533
C73	C	1.375612	0.340333	0.635621
C74	C	1.366409	0.287508	0.755116
C75	C	1.275152	0.352941	0.761523
C76	C	1.193106	0.471185	0.648438
C77	C	0.421920	1.582784	-0.414687
C78	C	0.339873	1.701058	-0.527774
C79	C	0.349075	1.753887	-0.647270
C80	C	0.440333	1.688448	-0.653677
C81	C	0.522378	1.570185	-0.540592
C82	C	0.522397	1.570152	0.098931
C83	C	0.440365	1.688420	0.093768
C84	C	0.349102	1.753880	0.021937
C85	C	0.339871	1.701078	-0.044745
C86	C	0.421902	1.582819	-0.039589
H87	H	0.436518	0.840403	0.144058
H88	H	1.449930	0.286994	0.211031
O89	O	0.264545	1.223379	-0.047485
C90	C	0.093674	1.361651	-0.116575
C91	C	0.194164	1.203770	-0.037592
H92	H	0.036744	1.345851	-0.108582
H93	H	0.084894	1.428001	-0.221535
H94	H	0.084995	1.427993	-0.078005
H95	H	0.202913	1.137302	-0.076050
H96	H	0.202898	1.137536	0.067357
O97	O	0.611094	1.506601	0.168528
C98	C	0.762005	1.454693	0.165883
C99	C	0.661599	1.526673	0.086919
H100	H	0.802859	1.470923	0.099931
H101	H	0.802990	1.327224	0.243501
H102	H	0.754468	1.512742	0.212672
H103	H	0.669048	1.468745	0.040047
H104	H	0.620650	1.654146	0.009373
H105	H	1.267673	0.309914	0.858832
H106	H	1.118783	0.524497	-0.049601
H107	H	0.265554	1.754394	-0.103229
O108	O	1.302688	0.509632	0.406570
C109	C	1.411014	0.484318	0.293663
C110	C	1.400808	0.426447	0.425069
H111	H	1.490339	0.417067	0.308575
H112	H	1.375182	0.611120	0.237422
H113	H	1.375065	0.467543	0.237702
H114	H	1.436763	0.443117	0.481136
H115	H	1.436614	0.299666	0.481213
H116	H	0.414408	1.539779	-0.317399
H117	H	1.301112	0.501513	0.201723
O118	O	1.104521	0.534733	0.654839
C119	C	0.993537	0.670571	0.727804
C120	C	1.093892	0.598643	0.720660
H121	H	0.984903	0.722289	0.780993
H122	H	0.984896	0.578675	0.781161
H123	H	0.936485	0.764100	0.626450
H124	H	1.151005	0.505129	0.821965
H125	H	1.102451	0.690628	0.667234
H126	H	0.265575	1.754319	-0.522533
O127	O	1.446133	0.172489	0.091096
C128	C	1.591376	-0.089559	0.225306
C129	C	1.501117	0.040581	0.219568
H130	H	1.635846	-0.196248	0.329163
H131	H	1.635997	-0.052839	0.185726
H132	H	1.569065	-0.115958	0.165248
H133	H	1.523342	0.067042	0.279632
H134	H	1.456519	0.003795	0.259101
H135	H	1.449910	0.287069	0.630381
O136	O	0.412756	1.531660	-0.104379
C137	C	0.304400	1.556770	-0.242351
C138	C	0.314630	1.614819	-0.169009
H139	H	0.225071	1.624000	-0.294645
H140	H	0.340225	1.429985	-0.171670
H141	H	0.340343	1.573419	-0.315110
H142	H	0.278682	1.598276	-0.096250
H143	H	0.278832	1.741583	-0.239767
O144	O	0.449435	1.739480	-0.769654
C145	C	0.557713	1.714084	-0.882632
C146	C	0.547546	1.656274	-0.751202
H147	H	0.637030	1.646816	-0.867759
H148	H	0.521888	1.840888	-0.938925
H149	H	0.521735	1.697276	-0.938522
H150	H	0.583530	1.672976	-0.695207
H151	H	0.583345	1.529491	-0.695007
H152	H	0.596673	1.516909	-0.545826
H153	H	0.447900	1.731391	0.148075
H154	H	0.282315	1.850173	0.017750
H155	H	1.267584	0.309992	-0.040269
H156	H	1.433223	0.191225	0.847188
H157	H	0.282261	1.850186	-0.739342
