data_functionalizedCrystal
_audit_creation_method	'MofGen! by Chris Wilmer'
_symmetry_space_group_name_H-M	'P1'
_symmetry_Int_Tables_number	1
_symmetry_cell_setting	triclinic
loop_
_symmetry_equiv_pos_as_xyz
  x,y,z
_cell_length_a	16.992695
_cell_length_b	16.109301
_cell_length_c	14.586319
_cell_angle_alpha	90.005214
_cell_angle_beta	89.998424
_cell_angle_gamma	92.935148
loop_
_atom_site_label
_atom_site_type_symbol
_atom_site_fract_x
_atom_site_fract_y
_atom_site_fract_z
O1	O	1.040345	-0.176288	-0.076209
O2	O	1.540345	0.323712	0.423791
O3	O	0.812060	-0.174354	-0.076219
O4	O	1.312060	0.325646	0.423781
O5	O	0.932474	-0.054709	-0.076204
O6	O	1.432474	0.445291	0.423796
O7	O	0.919932	-0.295934	-0.076223
O8	O	1.419932	0.204066	0.423777
O9	O	0.932466	-0.054706	0.076277
O10	O	1.432466	0.445294	0.576277
O11	O	0.812052	-0.174352	0.076262
O12	O	1.312052	0.325648	0.576262
O13	O	1.040337	-0.176286	0.076272
O14	O	1.540337	0.323714	0.576272
Cu15	Cu	0.926194	-0.175318	0.090190
Cu16	Cu	1.426194	0.324682	0.590190
Cu17	Cu	0.926204	-0.175321	-0.090136
Cu18	Cu	1.426204	0.324679	0.409864
O19	O	0.919923	-0.295931	0.076257
O20	O	1.419923	0.204069	0.576257
C21	C	0.782844	-0.171865	0.000021
C22	C	1.282844	0.328135	0.500021
C23	C	0.695802	-0.164441	0.000017
C24	C	1.195802	0.335559	0.500017
C25	C	0.931962	-0.023699	0.000037
C26	C	1.431962	0.476301	0.500037
C27	C	0.930439	0.068698	0.000038
C28	C	1.430439	0.568698	0.500038
C29	C	1.069553	-0.178775	0.000031
C30	C	1.569553	0.321225	0.500031
C31	C	1.156595	-0.186198	0.000028
C32	C	1.656595	0.313802	0.500028
C33	C	1.206854	-0.114572	0.000031
C34	C	1.706854	0.385428	0.500031
C35	C	1.288639	-0.121552	0.000033
C36	C	1.788639	0.378448	0.500033
C37	C	1.320163	-0.200159	0.000027
C38	C	1.820163	0.299841	0.500027
C39	C	1.269898	-0.271791	0.000027
C40	C	1.769898	0.228209	0.500027
C41	C	1.188115	-0.264810	0.000031
C42	C	1.688115	0.235190	0.500031
C43	C	1.563754	-0.229092	0.000021
C44	C	2.063754	0.270908	0.500021
C45	C	1.645543	-0.236067	0.000015
C46	C	2.145543	0.263933	0.500015
C47	C	1.664278	-0.085828	0.000023
C48	C	2.164278	0.414172	0.500023
C49	C	1.582493	-0.078854	0.000021
C50	C	2.082493	0.421146	0.500021
C51	C	1.532235	-0.150486	0.000026
C52	C	2.032235	0.349514	0.500026
N53	N	1.403760	-0.207296	0.000027
N54	N	1.903760	0.292704	0.500027
N55	N	1.448639	-0.143349	0.000032
N56	N	1.948639	0.356651	0.500032
C57	C	0.920435	-0.326941	0.000015
C58	C	1.420435	0.173059	0.500015
C59	C	0.921959	-0.419338	0.000007
C60	C	1.421959	0.080662	0.500007
N61	N	0.926192	-0.175316	0.217021
N62	N	1.426192	0.324684	0.717021
C63	C	0.998348	0.286439	0.000026
C64	C	1.498348	0.786439	0.500026
C65	C	0.996911	0.373256	0.000019
C66	C	1.496911	0.873256	0.500019
C67	C	0.854044	0.362915	0.000016
C68	C	1.354044	0.862915	0.500016
C69	C	0.855482	0.276100	0.000017
C70	C	1.355482	0.776100	0.500017
C71	C	0.927636	0.237865	0.000027
C72	C	1.427636	0.737865	0.500027
C73	C	0.924761	0.411496	0.000018
C74	C	1.424761	0.911496	0.500018
C75	C	0.923202	0.505626	0.000010
C76	C	1.423202	1.005626	0.500010
C77	C	0.929196	0.143729	0.000033
C78	C	1.429196	0.643729	0.500033
N79	N	0.926211	-0.175317	-0.216968
N80	N	1.426211	0.324683	0.283032
C81	C	0.979529	-0.122357	0.452034
C82	C	1.479529	0.377643	0.952034
C83	C	0.979531	-0.122355	0.548016
C84	C	1.479531	0.377645	1.048016
C85	C	0.872869	-0.228278	0.548012
C86	C	1.372869	0.271722	1.048012
C87	C	0.872863	-0.228276	0.452033
C88	C	1.372863	0.271724	0.952033
C89	C	0.926198	-0.175316	0.404046
C90	C	1.426198	0.324684	0.904046
C91	C	0.926206	-0.175317	0.596007
C92	C	1.426206	0.324683	1.096007
C93	C	0.926208	-0.175316	0.700074
C94	C	1.426208	0.324684	1.200074
C95	C	0.926195	-0.175316	0.299972
C96	C	1.426195	0.324684	0.799972
H97	H	1.181194	-0.050562	0.000030
H98	H	1.681194	0.449438	0.500030
N99	N	1.342854	-0.044304	0.000025
N100	N	1.842854	0.455696	0.500025
H101	H	1.377202	-0.043847	0.056549
H102	H	1.877202	0.456153	0.556549
H103	H	1.310424	0.006513	-0.000012
H104	H	1.810424	0.506513	0.499988
N105	N	1.076169	0.245200	0.000036
N106	N	1.576169	0.745200	0.500036
H107	H	1.107149	0.262561	-0.056490
H108	H	1.607149	0.762561	0.443510
H109	H	1.066286	0.182843	0.000075
H110	H	1.566286	0.682843	0.500075
H111	H	1.054491	0.412802	0.000016
H112	H	1.554491	0.912802	0.500016
H113	H	0.795298	0.394057	0.000010
H114	H	1.295298	0.894057	0.500010
H115	H	0.797897	0.236549	0.000015
H116	H	1.297897	0.736549	0.500015
H117	H	1.295572	-0.335794	0.000027
H118	H	1.795572	0.164206	0.500027
H119	H	1.671207	-0.300082	0.000023
H120	H	2.171207	0.199918	0.500023
H121	H	1.022957	-0.079233	0.412966
H122	H	1.522957	0.420767	0.912966
H123	H	1.022958	-0.079231	0.587085
H124	H	1.522958	0.420769	1.087085
H125	H	0.829446	-0.271398	0.587092
H126	H	1.329446	0.228602	1.087092
N127	N	0.815331	-0.285396	0.400274
N128	N	1.315331	0.214604	0.900274
H129	H	0.824343	-0.345011	0.416963
H130	H	1.324343	0.154989	0.916963
H131	H	0.823445	-0.277285	0.332206
H132	H	1.323445	0.222715	0.832206
N133	N	1.548493	0.005929	0.000031
N134	N	2.048493	0.505929	0.500031
H135	H	1.592742	0.050246	0.000035
H136	H	2.092742	0.550246	0.500035
H137	H	1.514969	0.012095	0.056560
H138	H	2.014969	0.512095	0.556560
N139	N	1.133913	-0.342070	0.000043
N140	N	1.633913	0.157930	0.500043
H141	H	1.144045	-0.376134	-0.056481
H142	H	1.644045	0.123866	0.443519
H143	H	1.077341	-0.325662	0.000089
H144	H	1.577341	0.174338	0.500089
N145	N	1.718480	-0.008570	0.000027
N146	N	2.218480	0.491430	0.500027
H147	H	1.752832	-0.008113	-0.056497
H148	H	2.252832	0.491887	0.443503
H149	H	1.752777	-0.008162	0.056590
H150	H	2.252777	0.491838	0.556590
N151	N	1.509553	-0.306348	0.000130
N152	N	2.009553	0.193652	0.500130
H153	H	1.541936	-0.357202	0.000156
H154	H	2.041936	0.142798	0.500156
H155	H	1.475165	-0.306791	-0.056359
H156	H	1.975165	0.193209	0.443641
