data_functionalizedCrystal
_audit_creation_method	'MofGen! by Chris Wilmer'
_symmetry_space_group_name_H-M	'P1'
_symmetry_Int_Tables_number	1
_symmetry_cell_setting	triclinic
loop_
_symmetry_equiv_pos_as_xyz
  x,y,z
_cell_length_a	17.638166
_cell_length_b	17.638574
_cell_length_c	17.637464
_cell_angle_alpha	87.832550
_cell_angle_beta	109.596949
_cell_angle_gamma	87.830250
loop_
_atom_site_label
_atom_site_type_symbol
_atom_site_fract_x
_atom_site_fract_y
_atom_site_fract_z
Zn1	Zn	-0.655987	-0.920849	-0.765342
Zn2	Zn	-0.765928	-0.920766	-0.655365
Zn3	Zn	-0.605445	-0.831355	-0.604905
Zn4	Zn	-0.755614	-0.770545	-0.755086
O5	O	-0.695744	-0.860879	-0.695175
O6	O	-0.696040	-1.021159	-0.776164
O7	O	-0.727804	-0.934320	-0.539795
O8	O	-0.503293	-0.868711	-0.609363
O9	O	-0.776813	-1.021098	-0.695364
O10	O	-0.540426	-0.934461	-0.727235
O11	O	-0.609898	-0.868630	-0.502723
O12	O	-0.599897	-0.722967	-0.599417
O13	O	-0.759234	-0.765068	-0.865323
O14	O	-0.710226	-0.678290	-0.709754
O15	O	-0.686039	-0.875496	-0.872858
O16	O	-0.873417	-0.875355	-0.685419
O17	O	-0.865839	-0.764988	-0.758683
C18	C	-0.648459	-0.674616	-0.647997
C19	C	-0.628251	-0.594924	-0.627836
C20	C	-0.542264	-0.505838	-0.542038
C21	C	-0.561258	-0.580719	-0.560990
C22	C	-0.676280	-0.534246	-0.675755
C23	C	-0.657297	-0.459360	-0.656811
C24	C	-0.590288	-0.445163	-0.589952
C25	C	-0.705322	-0.398685	-0.704725
C26	C	-0.686338	-0.323806	-0.685784
C27	C	-0.619330	-0.309601	-0.618930
C28	C	-0.571304	-0.370283	-0.571012
C29	C	-0.772327	-0.412884	-0.771587
C30	C	-0.820352	-0.352209	-0.819501
C31	C	-0.801372	-0.277328	-0.800557
C32	C	-0.734364	-0.263123	-0.733703
C33	C	-0.849398	-0.216645	-0.848476
C34	C	-0.830414	-0.141766	-0.829535
C35	C	-0.715380	-0.188244	-0.714762
C36	C	-0.897861	-0.813579	-0.726435
C37	C	-0.984348	-0.793403	-0.739851
C38	C	-1.102316	-0.707476	-0.796855
C39	C	-1.021048	-0.726440	-0.784244
C40	C	-1.028907	-0.841427	-0.708047
C41	C	-1.110176	-0.822470	-0.720648
C42	C	-1.146874	-0.755494	-0.765053
C43	C	-1.154734	-0.870488	-0.688846
C44	C	-1.235996	-0.851534	-0.701450
C45	C	-1.272701	-0.784562	-0.745855
C46	C	-1.228136	-0.736540	-0.777657
C47	C	-1.118036	-0.937466	-0.644446
C48	C	-1.162594	-0.985484	-0.612645
C49	C	-1.243856	-0.966528	-0.625243
C50	C	-1.280561	-0.899556	-0.669648
C51	C	-1.288421	-1.014550	-0.593441
C52	C	-1.369684	-0.995596	-0.606045
C53	C	-1.361824	-0.880602	-0.682252
C54	C	-0.492845	-0.908379	-0.663814
C55	C	-0.406382	-0.928620	-0.650450
C56	C	-0.727124	-0.813508	-0.898110
C57	C	-0.740496	-0.793322	-0.984589
C58	C	-0.743205	-0.047872	-0.742526
C59	C	-0.763405	-0.127569	-0.762676
C60	C	-0.797450	-0.707381	-1.102556
C61	C	-0.784880	-0.726356	-1.021296
C62	C	-0.708668	-0.841341	-1.029136
C63	C	-0.721235	-0.822377	-1.110399
C64	C	-0.765626	-0.755396	-1.147102
C65	C	-0.689411	-0.870392	-1.154945
C66	C	-0.701974	-0.851428	-1.236200
C67	C	-0.746360	-0.784449	-1.272909
C68	C	-0.778189	-0.736432	-1.228357
C69	C	-0.645016	-0.937370	-1.118239
C70	C	-0.613191	-0.985385	-1.162785
C71	C	-0.625759	-0.966424	-1.244043
C72	C	-0.670145	-0.899445	-1.280752
C73	C	-0.593930	-1.014441	-1.288595
C74	C	-0.606493	-0.995477	-1.369850
C75	C	-0.682708	-0.880481	-1.362007
C76	C	-0.664440	-0.908119	-0.493030
C77	C	-0.650884	-0.928496	-0.406553
H78	H	-0.603872	-0.248628	-0.603513
H79	H	-0.634791	-0.952810	-1.052076
H80	H	-1.391706	-0.826066	-0.718415
H81	H	-0.869518	-0.092361	-0.868554
O82	O	-0.660798	-0.913584	-0.989541
H83	H	-0.599032	-0.911948	-0.992579
O84	O	-0.819205	-0.674563	-0.973247
H85	H	-0.861201	-0.706023	-0.950464
H86	H	-0.557781	-1.068973	-1.258696
O87	O	-1.360347	-0.764110	-0.759444
H88	H	-1.397880	-0.809507	-0.792215
H89	H	-1.258019	-0.682004	-0.813820
H90	H	-0.516738	-0.358724	-0.516568
H91	H	-1.132199	-0.652939	-0.833018
O92	O	-0.972983	-0.674643	-0.818540
H93	H	-1.012155	-0.624886	-0.851528
H94	H	-0.787777	-0.473857	-0.787010
O95	O	-0.989331	-0.913673	-0.660172
H96	H	-0.925338	-0.918789	-0.656753
O97	O	-0.572177	-1.047263	-1.417907
H98	H	-0.539207	-1.097029	-1.378737
O99	O	-0.565316	-1.057626	-1.123191
H100	H	-0.545294	-1.087826	-1.167819
O101	O	-0.892615	-0.367537	-0.891614
H102	H	-0.947934	-0.342029	-0.883985
O103	O	-0.643117	-0.172906	-0.642645
H104	H	-0.587792	-0.198403	-0.650271
O105	O	-0.469990	-0.490514	-0.469925
H106	H	-0.439779	-0.545285	-0.439787
O107	O	-1.030385	-0.957906	-0.630845
H108	H	-1.021659	-0.963646	-0.689869
H109	H	-1.132705	-1.040018	-0.576492
H110	H	-1.258533	-1.069086	-0.557293
H111	H	-1.405965	-1.034699	-0.580151
O112	O	-0.730584	-0.808235	-1.401605
H113	H	-0.792348	-0.809869	-1.398563
O114	O	-0.509462	-0.646167	-0.509304
H115	H	-0.459683	-0.623710	-0.459629
O116	O	-0.845326	-0.635136	-1.142154
H117	H	-0.907090	-0.636770	-1.139112
H118	H	-0.814343	-0.681893	-1.258245
O119	O	-0.748538	-0.549560	-0.747880
H120	H	-0.753669	-0.611822	-0.753005
O121	O	-0.759907	-0.763984	-1.360546
H122	H	-0.825571	-0.759725	-1.394710
H123	H	-0.903952	-0.228217	-0.902917
