data_functionalizedCrystal
_audit_creation_method	'MofGen! by Chris Wilmer'
_symmetry_space_group_name_H-M	'P1'
_symmetry_Int_Tables_number	1
_symmetry_cell_setting	triclinic
loop_
_symmetry_equiv_pos_as_xyz
  x,y,z
_cell_length_a	10.540510
_cell_length_b	8.559649
_cell_length_c	7.088929
_cell_angle_alpha	95.344185
_cell_angle_beta	96.268221
_cell_angle_gamma	102.854012
loop_
_atom_site_label
_atom_site_type_symbol
_atom_site_fract_x
_atom_site_fract_y
_atom_site_fract_z
O1	O	1.647778	-0.240954	-0.158876
O2	O	1.276134	-0.262200	-0.158902
O3	O	1.494698	-0.019344	-0.158884
O4	O	1.429213	-0.483810	-0.158893
O5	O	1.523914	0.013185	0.159093
O6	O	1.305350	-0.229670	0.159076
O7	O	1.676994	-0.208425	0.159102
Cu8	Cu	1.493839	-0.216078	0.188123
Cu9	Cu	1.459288	-0.254547	-0.187922
O10	O	1.458429	-0.451281	0.159085
C11	C	1.243603	-0.244352	0.000084
C12	C	1.103148	-0.239617	0.000074
C13	C	1.514268	0.056394	0.000101
C14	C	1.529039	0.233607	0.000092
C15	C	1.709524	-0.226273	0.000112
C16	C	1.849977	-0.231009	0.000110
C17	C	2.085028	-0.062375	-0.000633
C18	C	1.939029	-0.057248	0.000107
C19	C	1.902119	-0.301384	0.181680
C20	C	2.048492	-0.305192	0.181808
C21	C	2.014672	-0.345802	-0.179791
C22	C	1.868975	-0.337803	-0.182168
C23	C	1.438859	-0.527020	0.000095
C24	C	1.424087	-0.704233	0.000092
N25	N	1.518150	-0.189019	0.452613
N26	N	1.434988	-0.281593	-0.452412
H27	H	2.122102	-0.007998	-0.130848
H28	H	1.630203	0.315974	0.000114
H29	H	1.604351	-0.093091	0.534275
C30	C	2.169355	0.046442	0.174315
H31	H	2.157825	0.153303	0.172795
H32	H	2.143064	0.006294	0.288000
H33	H	2.259204	0.046877	0.170068
H34	H	1.348801	-0.377526	0.465935
H35	H	1.929942	0.026092	0.130497
C36	C	1.893063	0.018808	-0.175697
H37	H	1.963657	0.046848	-0.248210
H38	H	1.822127	-0.056492	-0.252525
H39	H	1.865074	0.113029	-0.134802
H40	H	2.107553	-0.230517	0.317537
H41	H	1.322932	0.213410	0.000091
H42	H	2.058641	-0.434308	0.190076
C43	C	1.820854	-0.473255	0.190829
H44	H	1.854050	-0.513500	0.301675
H45	H	1.731676	-0.470723	0.196285
H46	H	1.826722	-0.541586	0.080171
C47	C	1.885971	-0.199262	0.364238
H48	H	1.847502	-0.113711	0.330195
H49	H	1.830893	-0.265270	0.437703
H50	H	1.969571	-0.155769	0.437428
H51	H	2.050211	-0.304965	-0.317423
C52	C	1.822777	-0.268952	-0.363634
H53	H	1.792031	-0.175519	-0.328481
H54	H	1.894035	-0.241031	-0.434946
H55	H	1.753734	-0.347830	-0.439414
C56	C	1.783401	-0.510701	-0.196979
H57	H	1.734757	-0.520065	-0.091713
H58	H	1.724586	-0.533503	-0.312863
H59	H	1.838080	-0.585210	-0.195448
H60	H	2.023047	-0.476390	-0.181018
