data_functionalizedCrystal
_audit_creation_method	'MofGen! by Chris Wilmer'
_symmetry_space_group_name_H-M	'P1'
_symmetry_Int_Tables_number	1
_symmetry_cell_setting	triclinic
loop_
_symmetry_equiv_pos_as_xyz
  x,y,z
_cell_length_a	17.038272
_cell_length_b	17.699083
_cell_length_c	16.176319
_cell_angle_alpha	89.995661
_cell_angle_beta	90.000383
_cell_angle_gamma	92.802714
loop_
_atom_site_label
_atom_site_type_symbol
_atom_site_fract_x
_atom_site_fract_y
_atom_site_fract_z
O1	O	1.037101	-0.164334	0.068646
O2	O	1.370434	0.169000	0.401980
O3	O	1.703768	0.502333	0.735313
O4	O	0.809475	-0.161724	0.068670
O5	O	1.142808	0.171609	0.402004
O6	O	1.476141	0.504942	0.735337
O7	O	0.929719	-0.053265	0.068650
O8	O	1.263052	0.280068	0.401984
O9	O	1.596385	0.613401	0.735317
O10	O	0.916857	-0.272793	0.068666
O11	O	1.250190	0.060541	0.402000
O12	O	1.583523	0.393874	0.735333
O13	O	0.929705	-0.053264	-0.068843
O14	O	1.263038	0.280069	0.264491
O15	O	1.596371	0.613402	0.597824
O16	O	0.809460	-0.161723	-0.068823
O17	O	1.142794	0.171610	0.264511
O18	O	1.476127	0.504944	0.597844
O19	O	1.037087	-0.164333	-0.068847
O20	O	1.370420	0.169001	0.264486
O21	O	1.703754	0.502334	0.597820
Cu22	Cu	0.923272	-0.163028	-0.081389
Cu23	Cu	1.256606	0.170306	0.251944
Cu24	Cu	1.589939	0.503639	0.585278
Cu25	Cu	0.923289	-0.163029	0.081213
Cu26	Cu	1.256622	0.170304	0.414546
Cu27	Cu	1.589956	0.503637	0.747879
O28	O	0.916843	-0.272792	-0.068827
O29	O	1.250176	0.060542	0.264506
O30	O	1.583509	0.393875	0.597840
C31	C	0.780343	-0.159350	-0.000073
C32	C	1.113676	0.173983	0.333260
C33	C	1.447010	0.507316	0.666594
C34	C	0.693562	-0.152270	-0.000064
C35	C	1.026895	0.181064	0.333269
C36	C	1.360228	0.514397	0.666603
C37	C	0.929251	-0.025037	-0.000096
C38	C	1.262584	0.308296	0.333237
C39	C	1.595918	0.641629	0.666570
C40	C	0.927868	0.059072	-0.000096
C41	C	1.261202	0.392406	0.333237
C42	C	1.594535	0.725739	0.666570
N43	N	0.923266	-0.163027	-0.195754
N44	N	1.256600	0.170307	0.137579
N45	N	1.589933	0.503640	0.470912
C46	C	0.643342	-0.217280	-0.000060
C47	C	0.976675	0.116053	0.333273
C48	C	1.310008	0.449387	0.666607
C49	C	0.561802	-0.210622	-0.000072
C50	C	0.895135	0.122711	0.333261
C51	C	1.228469	0.456044	0.666595
C52	C	0.530484	-0.138953	-0.000082
C53	C	0.863817	0.194380	0.333251
C54	C	1.197151	0.527713	0.666585
C55	C	0.580710	-0.073938	-0.000089
C56	C	0.914044	0.259395	0.333245
C57	C	1.247377	0.592728	0.666578
C58	C	0.662249	-0.080597	-0.000083
C59	C	0.995582	0.252737	0.333251
C60	C	1.328915	0.586070	0.666584
C61	C	0.284764	-0.115431	-0.000106
C62	C	0.618098	0.217903	0.333228
C63	C	0.951431	0.551236	0.666561
C64	C	0.203220	-0.108777	-0.000109
C65	C	0.536553	0.224556	0.333224
C66	C	0.869886	0.557890	0.666557
C67	C	0.184317	-0.245462	-0.000094
C68	C	0.517650	0.087872	0.333239
C69	C	0.850984	0.421205	0.666572
C70	C	0.265857	-0.252114	-0.000083
C71	C	0.599191	0.081220	0.333250
C72	C	0.932524	0.414553	0.666583
C73	C	0.316077	-0.187099	-0.000094
C74	C	0.649410	0.146235	0.333239
C75	C	0.982743	0.479568	0.666573
C76	C	0.447137	-0.132147	-0.000091
C77	C	0.780471	0.201187	0.333242
C78	C	1.113804	0.534520	0.666575
C79	C	0.399422	-0.193906	-0.000091
C80	C	0.732755	0.139427	0.333243
C81	C	1.066088	0.472760	0.666576
C82	C	1.066218	-0.166707	-0.000102
C83	C	1.399552	0.166627	0.333232
C84	C	1.732885	0.499960	0.666565
C85	C	1.153000	-0.173787	-0.000105
C86	C	1.486333	0.159546	0.333228
C87	C	1.819666	0.492879	0.666561
C88	C	0.917311	-0.301020	-0.000078
C89	C	1.250644	0.032314	0.333255
C90	C	1.583977	0.365647	0.666588
C91	C	0.918693	-0.385129	-0.000073
C92	C	1.252027	-0.051796	0.333261
C93	C	1.585360	0.281537	0.666594
C94	C	0.998449	0.103023	-0.000105
C95	C	1.331782	0.436356	0.333228
C96	C	1.665116	0.769690	0.666562
C97	C	0.997145	0.182053	-0.000098
C98	C	1.330479	0.515386	0.333236
C99	C	1.663812	0.848719	0.666569
C100	C	0.925260	0.217130	-0.000087
C101	C	1.258593	0.550463	0.333246
C102	C	1.591927	0.883797	0.666579
C103	C	0.854674	0.173173	-0.000076
C104	C	1.188007	0.506507	0.333257
C105	C	1.521340	0.839840	0.666590
C106	C	0.855978	0.094145	-0.000078
C107	C	1.189312	0.427479	0.333255
C108	C	1.522645	0.760812	0.666589
C109	C	0.849411	0.491885	-0.000069
C110	C	1.182744	0.825218	0.333264
C111	C	1.516077	1.158551	0.666598
C112	C	0.848112	0.570919	-0.000070
C113	C	1.181445	0.904252	0.333263
C114	C	1.514778	1.237585	0.666597
C115	C	0.990578	0.579792	-0.000089
C116	C	1.323911	0.913125	0.333244
C117	C	1.657245	1.246459	0.666578
C118	C	0.991882	0.500764	-0.000090
C119	C	1.325216	0.834097	0.333243
C120	C	1.658549	1.167430	0.666576
C121	C	0.921297	0.456814	-0.000075
C122	C	1.254630	0.790148	0.333258
C123	C	1.587963	1.123481	0.666592
C124	C	0.922711	0.371121	-0.000081
C125	C	1.256045	0.704455	0.333252
C126	C	1.589378	1.037788	0.666585
C127	C	0.923844	0.302821	-0.000087
C128	C	1.257178	0.636155	0.333246
C129	C	1.590511	0.969488	0.666580
C130	C	0.970588	-0.212007	-0.239017
C131	C	1.303921	0.121327	0.094317
C132	C	1.637255	0.454660	0.427650
C133	C	0.970596	-0.212004	-0.325564
C134	C	1.303930	0.121329	0.007770
C135	C	1.637263	0.454662	0.341103
C136	C	0.923278	-0.163025	-0.368847
C137	C	1.256612	0.170308	-0.035514
C138	C	1.589945	0.503641	0.297820
C139	C	0.875955	-0.114040	-0.325578
C140	C	1.209288	0.219293	0.007755
C141	C	1.542622	0.552627	0.341088
C142	C	0.875951	-0.114039	-0.239033
C143	C	1.209285	0.219294	0.094300
C144	C	1.542618	0.552628	0.427634
C145	C	0.875969	-0.114042	-0.674607
C146	C	1.209303	0.219292	-0.341273
C147	C	1.542636	0.552625	-0.007940
C148	C	0.875975	-0.114048	-0.761158
C149	C	1.209308	0.219285	-0.427825
C150	C	1.542642	0.552619	-0.094492
C151	C	0.970615	-0.212007	-0.761138
C152	C	1.303948	0.121326	-0.427804
C153	C	1.637281	0.454660	-0.094471
C154	C	0.970611	-0.212006	-0.674592
C155	C	1.303944	0.121327	-0.341259
C156	C	1.637278	0.454661	-0.007925
C157	C	0.923291	-0.163018	-0.631331
C158	C	1.256624	0.170315	-0.297998
C159	C	1.589957	0.503648	0.035336
C160	C	0.923283	-0.163020	-0.537487
C161	C	1.256617	0.170313	-0.204154
C162	C	1.589950	0.503646	0.129180
C163	C	0.923281	-0.163026	-0.462689
C164	C	1.256614	0.170307	-0.129356
C165	C	1.589948	0.503640	0.203977
N166	N	0.923301	-0.163025	0.195578
N167	N	1.256635	0.170309	0.528911
N168	N	1.589968	0.503642	0.862244
H169	H	0.668834	-0.275640	-0.000051
H170	H	1.002167	0.057693	0.333282
H171	H	1.335501	0.391026	0.666615
H172	H	1.048052	0.615585	-0.000097
H173	H	1.381386	0.948919	0.333236
H174	H	1.714719	1.282252	0.666569
C175	C	0.546263	0.004896	-0.000098
C176	C	0.879596	0.338229	0.333235
C177	C	1.212929	0.671562	0.666569
H178	H	0.490509	-0.000448	-0.000092
H179	H	0.823842	0.332885	0.333241
H180	H	1.157175	0.666218	0.666575
H181	H	0.563511	0.031886	-0.048046
H182	H	0.896844	0.365220	0.285288
H183	H	1.230177	0.698553	0.618621
H184	H	0.563509	0.031882	0.047854
H185	H	0.896843	0.365215	0.381188
H186	H	1.230176	0.698548	0.714521
H187	H	0.325644	-0.062490	-0.000115
H188	H	0.658977	0.270843	0.333218
H189	H	0.992310	0.604177	0.666551
H190	H	0.177724	-0.050413	-0.000117
H191	H	0.511058	0.282920	0.333217
H192	H	0.844391	0.616254	0.666550
H193	H	0.791935	0.456110	-0.000057
H194	H	1.125269	0.789443	0.333277
H195	H	1.458602	1.122777	0.666610
H196	H	1.009139	-0.251893	-0.639355
H197	H	1.342472	0.081441	-0.306022
H198	H	1.675806	0.414774	0.027311
H199	H	0.291350	-0.310474	-0.000065
H200	H	0.624683	0.022859	0.333268
H201	H	0.958017	0.356193	0.666601
C202	C	0.778342	0.045796	-0.000068
C203	C	1.111675	0.379129	0.333265
C204	C	1.445008	0.712463	0.666599
H205	H	0.789413	-0.006294	-0.000061
H206	H	1.122747	0.327040	0.333272
H207	H	1.456080	0.660373	0.666605
H208	H	0.748850	0.056925	-0.048009
H209	H	1.082183	0.390258	0.285324
H210	H	1.415516	0.723591	0.618657
H211	H	0.748869	0.056922	0.047891
H212	H	1.082202	0.390255	0.381224
H213	H	1.415535	0.723589	0.714557
H214	H	1.054619	0.217834	-0.000107
H215	H	1.387953	0.551167	0.333227
H216	H	1.721286	0.884501	0.666560
C217	C	0.717491	-0.009085	-0.000079
C218	C	1.050824	0.324248	0.333255
C219	C	1.384157	0.657581	0.666588
H220	H	0.687162	0.034552	-0.000077
H221	H	1.020495	0.367885	0.333257
H222	H	1.353829	0.701219	0.666590
H223	H	0.749696	-0.008839	-0.048022
H224	H	1.083030	0.324494	0.285311
H225	H	1.416363	0.657827	0.618645
H226	H	0.749686	-0.008845	0.047878
H227	H	1.083020	0.324489	0.381211
H228	H	1.416353	0.657822	0.714545
H229	H	0.837417	-0.074155	-0.203810
H230	H	1.170750	0.259179	0.129524
H231	H	1.504083	0.592512	0.462857
C232	C	1.070956	0.462183	-0.000098
C233	C	1.404289	0.795516	0.333235
C234	C	1.737623	1.128849	0.666569
H235	H	1.112806	0.499677	-0.000094
H236	H	1.446139	0.833011	0.333239
H237	H	1.779473	1.166344	0.666573
H238	H	1.074424	0.431540	-0.048044
H239	H	1.407757	0.764873	0.285290
H240	H	1.741091	1.098206	0.618623
H241	H	1.074426	0.431537	0.047856
H242	H	1.407760	0.764870	0.381189
H243	H	1.741093	1.098204	0.714523
C244	C	1.022643	-0.265881	-0.191413
C245	C	1.355976	0.067453	0.141921
C246	C	1.689309	0.400786	0.475254
H247	H	1.050833	-0.295045	-0.229577
H248	H	1.384166	0.038289	0.103756
H249	H	1.717500	0.371622	0.437090
H250	H	0.990545	-0.298630	-0.157647
H251	H	1.323878	0.034703	0.175686
H252	H	1.657211	0.368036	0.509020
H253	H	1.058681	-0.237197	-0.157656
H254	H	1.392014	0.096137	0.175677
H255	H	1.725348	0.429470	0.509011
H256	H	0.424924	-0.252259	-0.000087
H257	H	0.758258	0.081075	0.333246
H258	H	1.091591	0.414408	0.666580
C259	C	0.769034	0.609502	-0.000048
C260	C	1.102367	0.942836	0.333285
C261	C	1.435701	1.276169	0.666619
H262	H	0.727182	0.572010	-0.000030
H263	H	1.060515	0.905343	0.333304
H264	H	1.393849	1.238676	0.666637
H265	H	0.765553	0.640151	-0.047993
H266	H	1.098886	0.973484	0.285341
H267	H	1.432220	1.306818	0.618674
H268	H	0.765580	0.640143	0.047907
H269	H	1.098913	0.973476	0.381240
H270	H	1.432247	1.306809	0.714574
H271	H	0.520915	-0.263561	-0.000068
H272	H	0.854249	0.069772	0.333266
H273	H	1.187582	0.403106	0.666599
C274	C	0.775599	0.211753	-0.000059
C275	C	1.108932	0.545086	0.333275
C276	C	1.442266	0.878419	0.666608
H277	H	0.733750	0.174257	-0.000045
H278	H	1.067084	0.507590	0.333289
H279	H	1.400417	0.840923	0.666622
H280	H	0.772119	0.242402	-0.048003
H281	H	1.105452	0.575736	0.285330
H282	H	1.438785	0.909069	0.618664
H283	H	0.772139	0.242391	0.047897
H284	H	1.105472	0.575725	0.381230
H285	H	1.438805	0.909058	0.714563
C286	C	1.077524	0.064445	-0.000116
C287	C	1.410858	0.397778	0.333217
C288	C	1.744191	0.731111	0.666550
H289	H	1.119372	0.101942	-0.000113
H290	H	1.452705	0.435275	0.333221
H291	H	1.786039	0.768608	0.666554
H292	H	1.080992	0.033804	-0.048063
H293	H	1.414325	0.367137	0.285270
H294	H	1.747659	0.700470	0.618603
H295	H	1.080998	0.033798	0.047836
H296	H	1.414332	0.367131	0.381170
H297	H	1.747665	0.700465	0.714503
C298	C	1.022647	-0.265885	-0.373149
C299	C	1.355980	0.067448	-0.039816
C300	C	1.689314	0.400782	0.293518
H301	H	1.050819	-0.295061	-0.334976
H302	H	1.384153	0.038272	-0.001643
H303	H	1.717486	0.371605	0.331691
H304	H	1.058689	-0.237214	-0.406910
H305	H	1.392022	0.096120	-0.073577
H306	H	1.725356	0.429453	0.259756
H307	H	0.990540	-0.298634	-0.406909
H308	H	1.323873	0.034700	-0.073576
H309	H	1.657207	0.368033	0.259758
H310	H	0.421629	-0.073793	-0.000123
H311	H	0.754963	0.259540	0.333210
H312	H	1.088296	0.592873	0.666544
C313	C	0.129075	-0.316971	-0.000093
C314	C	0.462409	0.016362	0.333241
C315	C	0.795742	0.349695	0.666574
H316	H	0.076028	-0.302745	-0.000105
H317	H	0.409362	0.030589	0.333228
H318	H	0.742695	0.363922	0.666562
H319	H	0.138551	-0.346146	0.047855
H320	H	0.471884	-0.012812	0.381189
H321	H	0.805217	0.320521	0.714522
H322	H	0.138559	-0.346138	-0.048045
H323	H	0.471893	-0.012805	0.285289
H324	H	0.805226	0.320529	0.618622
H325	H	1.009147	-0.251893	-0.796371
H326	H	1.342480	0.081440	-0.463038
H327	H	1.675814	0.414773	-0.129704
C328	C	0.823924	-0.060167	-0.808768
C329	C	1.157258	0.273166	-0.475435
C330	C	1.490591	0.606499	-0.142102
H331	H	0.795746	-0.030987	-0.770609
H332	H	1.129079	0.302346	-0.437276
H333	H	1.462413	0.635679	-0.103943
H334	H	0.787888	-0.088844	-0.842527
H335	H	1.121221	0.244490	-0.509193
H336	H	1.454554	0.577823	-0.175860
H337	H	0.856035	-0.027421	-0.842533
H338	H	1.189368	0.305912	-0.509200
H339	H	1.522701	0.639245	-0.175867
C340	C	0.823912	-0.060165	-0.627030
C341	C	1.157245	0.273168	-0.293697
C342	C	1.490578	0.606502	0.039636
H343	H	0.795726	-0.031003	-0.665206
H344	H	1.129059	0.302330	-0.331872
H345	H	1.462392	0.635663	0.001461
H346	H	0.856008	-0.027413	-0.593270
H347	H	1.189341	0.305920	-0.259937
H348	H	1.522674	0.639253	0.073397
H349	H	0.787870	-0.088845	-0.593270
H350	H	1.121203	0.244489	-0.259936
H351	H	1.454536	0.577822	0.073397
H352	H	0.837432	-0.074157	-0.360826
H353	H	1.170765	0.259177	-0.027493
H354	H	1.504098	0.592510	0.305840
