data_functionalizedCrystal
_audit_creation_method	'MofGen! by Chris Wilmer'
_symmetry_space_group_name_H-M	'P1'
_symmetry_Int_Tables_number	1
_symmetry_cell_setting	triclinic
loop_
_symmetry_equiv_pos_as_xyz
  x,y,z
_cell_length_a	10.685980
_cell_length_b	16.120444
_cell_length_c	16.120256
_cell_angle_alpha	95.616860
_cell_angle_beta	88.280062
_cell_angle_gamma	97.501748
loop_
_atom_site_label
_atom_site_type_symbol
_atom_site_fract_x
_atom_site_fract_y
_atom_site_fract_z
Zn1	Zn	1.864187	-0.266960	-0.579451
Zn2	Zn	2.364187	0.233040	-0.079451
Zn3	Zn	1.864024	-0.399654	-0.446755
Zn4	Zn	2.364024	0.100346	0.053245
Zn5	Zn	1.664433	-0.269515	-0.430054
Zn6	Zn	2.164433	0.230485	0.069946
Zn7	Zn	1.641835	-0.417403	-0.575753
Zn8	Zn	2.141835	0.082597	-0.075753
O9	O	1.758620	-0.338383	-0.508003
O10	O	2.258620	0.161617	-0.008003
O11	O	2.040750	-0.276065	-0.570386
O12	O	2.540750	0.223935	-0.070386
O13	O	1.846938	-0.376032	-0.328030
O14	O	2.346938	0.123968	0.171970
O15	O	1.700456	-0.151751	-0.444430
O16	O	2.200456	0.348249	0.055570
O17	O	2.040630	-0.373555	-0.472895
O18	O	2.540630	0.126445	0.027105
O19	O	1.847214	-0.149874	-0.554192
O20	O	2.347214	0.350126	-0.054192
O21	O	1.700299	-0.280419	-0.315760
O22	O	2.200299	0.219581	0.184240
O23	O	1.484851	-0.297630	-0.440844
O24	O	1.984851	0.202370	0.059156
O25	O	1.661941	-0.403806	-0.692753
O26	O	2.161941	0.096194	-0.192753
O27	O	1.468248	-0.406283	-0.547888
O28	O	1.968248	0.093717	-0.047888
O29	O	1.825302	-0.293276	-0.695470
O30	O	2.325302	0.206724	-0.195470
O31	O	1.825025	-0.519434	-0.469308
O32	O	2.325025	-0.019434	0.030692
O33	O	1.661784	-0.532474	-0.564082
O34	O	2.161784	-0.032474	-0.064082
C35	C	1.430763	-0.354160	-0.492153
C36	C	1.930763	0.145840	0.007847
C37	C	1.290502	-0.360931	-0.485392
C38	C	1.790502	0.139069	0.014608
C39	C	1.740967	-0.556400	-0.518126
C40	C	2.240967	-0.056400	-0.018126
C41	C	1.733529	-0.649664	-0.522490
C42	C	2.233529	-0.149664	-0.022490
C43	C	1.797503	-0.855491	-0.485559
C44	C	2.297503	-0.355491	0.014441
C45	C	1.719970	-0.820413	-0.530468
C46	C	2.219970	-0.320413	-0.030468
C47	C	1.727516	-0.725400	-0.526028
C48	C	2.227516	-0.225400	-0.026028
C49	C	1.789958	-0.950513	-0.489998
C50	C	2.289958	-0.450513	0.010002
C51	C	2.087757	-0.322545	-0.523916
C52	C	2.587757	0.177455	-0.023916
C53	C	2.228015	-0.315796	-0.530697
C54	C	2.728015	0.184204	-0.030697
C55	C	1.741119	-0.350236	-0.725166
C56	C	2.241119	0.149764	-0.225166
C57	C	1.733661	-0.355287	-0.817707
C58	C	2.233661	0.144713	-0.317707
C59	C	1.776374	-0.119514	-0.497861
C60	C	2.276374	0.380486	0.002139
C61	C	1.783940	-0.026246	-0.493538
C62	C	2.283940	0.473754	0.006462
C63	C	1.797512	-0.312022	-1.029715
C64	C	2.297512	0.187978	-0.529715
C65	C	1.720005	-0.364475	-0.987133
C66	C	2.220005	0.135525	-0.487133
C67	C	1.727605	-0.359361	-0.892856
C68	C	2.227605	0.140639	-0.392856
C69	C	1.789913	-0.317135	-1.124001
C70	C	2.289913	0.182865	-0.624001
C71	C	1.776130	-0.326513	-0.291686
C72	C	2.276130	0.173487	0.208314
C73	C	1.783852	-0.321214	-0.199146
C74	C	2.283852	0.178786	0.300854
H75	H	1.647924	-0.861739	-0.572250
H76	H	2.147924	-0.361739	-0.072250
C77	C	1.622657	-0.430335	-1.033527
C78	C	2.122657	0.069665	-0.533527
H79	H	1.575023	-0.462571	-0.994410
H80	H	2.075023	0.037429	-0.494410
H81	H	1.665286	-0.466375	-1.071492
H82	H	2.165286	0.033625	-0.571492
H83	H	1.567591	-0.402684	-1.063292
H84	H	2.067591	0.097316	-0.563292
C85	C	1.217815	-0.420139	-0.426003
C86	C	1.717815	0.079861	0.073997
H87	H	1.129915	-0.417084	-0.429099
H88	H	1.629915	0.082916	0.070901
H89	H	1.244843	-0.403697	-0.370533
H90	H	1.744843	0.096303	0.129467
H91	H	1.233829	-0.476172	-0.441752
H92	H	1.733829	0.023828	0.058248
C93	C	1.894861	-0.246172	-0.983322
C94	C	2.394861	0.253828	-0.483322
H95	H	1.942490	-0.213928	-1.022434
H96	H	2.442490	0.286072	-0.522434
H97	H	1.949912	-0.273825	-0.953554
H98	H	2.449912	0.226175	-0.453554
H99	H	1.852227	-0.210127	-0.945358
H100	H	2.352227	0.289873	-0.445358
C101	C	1.300690	-0.256593	-0.590088
C102	C	1.800690	0.243407	-0.090088
H103	H	1.242684	-0.229181	-0.617599
H104	H	1.742684	0.270819	-0.117599
H105	H	1.346604	-0.288269	-0.630255
H106	H	1.846604	0.211731	-0.130255
H107	H	1.357613	-0.215789	-0.559041
H108	H	1.857613	0.284211	-0.059041
C109	C	1.894813	-0.799670	-0.429110
C110	C	2.394813	-0.299670	0.070890
H111	H	1.887168	-0.742210	-0.433489
H112	H	2.387168	-0.242210	0.066511
H113	H	1.977495	-0.810499	-0.446081
H114	H	2.477495	-0.310499	0.053919
H115	H	1.879788	-0.811849	-0.372925
H116	H	2.379788	-0.311849	0.127075
