data_functionalizedCrystal
_audit_creation_method	'MofGen! by Chris Wilmer'
_symmetry_space_group_name_H-M	'P1'
_symmetry_Int_Tables_number	1
_symmetry_cell_setting	triclinic
loop_
_symmetry_equiv_pos_as_xyz
  x,y,z
_cell_length_a	16.959455
_cell_length_b	12.645330
_cell_length_c	16.959455
_cell_angle_alpha	90.009915
_cell_angle_beta	90.001568
_cell_angle_gamma	90.014639
loop_
_atom_site_label
_atom_site_type_symbol
_atom_site_fract_x
_atom_site_fract_y
_atom_site_fract_z
Zn1	Zn	1.208297	-0.422274	0.446932
Zn2	Zn	1.208255	-0.599516	0.314763
Zn3	Zn	1.076155	-0.422257	0.314769
Zn4	Zn	1.076096	-0.599486	0.446902
O5	O	1.142201	-0.510883	0.380841
O6	O	1.318903	-0.445805	0.429409
O7	O	1.190738	-0.576007	0.204153
O8	O	1.093727	-0.273912	0.332316
O9	O	1.318871	-0.576023	0.332306
O10	O	1.190811	-0.273924	0.429415
O11	O	1.093685	-0.445776	0.204158
O12	O	0.965536	-0.445748	0.332287
O13	O	1.093626	-0.575973	0.557516
O14	O	0.965493	-0.575957	0.429364
O15	O	1.190754	-0.445776	0.557539
O16	O	1.190681	-0.747859	0.332276
O17	O	1.093585	-0.747837	0.429358
C18	C	0.936835	-0.510848	0.380823
C19	C	0.848978	-0.510859	0.380834
C20	C	0.477501	-0.443028	0.330399
C21	C	0.477504	-0.578826	0.431329
C22	C	0.560050	-0.578811	0.431324
C23	C	0.601325	-0.510904	0.380855
C24	C	0.560054	-0.443013	0.330391
C25	C	0.601327	-0.646709	0.481782
C26	C	0.683878	-0.646697	0.481779
C27	C	0.725155	-0.578784	0.431313
C28	C	0.683879	-0.510889	0.380847
C29	C	0.725154	-0.442982	0.330378
C30	C	0.683879	-0.375081	0.279916
C31	C	0.601331	-0.375100	0.279925
C32	C	0.807703	-0.578766	0.431303
C33	C	0.807707	-0.442967	0.330370
C34	C	1.142143	-0.786313	0.380830
C35	C	1.142191	-0.904143	0.380852
C36	C	1.081359	-1.071738	0.442114
C37	C	1.081048	-0.949178	0.441918
C38	C	1.119668	-0.948706	0.297550
C39	C	1.119297	-1.071305	0.297922
C40	C	1.225917	-1.071246	0.402216
C41	C	1.225404	-0.948639	0.404037
C42	C	1.348369	-0.510919	0.380860
C43	C	1.436226	-0.510934	0.380868
C44	C	1.142188	-0.510873	0.587010
C45	C	1.142182	-0.510869	0.674866
C46	C	1.142280	-0.234378	0.380870
C47	C	1.142314	-0.116548	0.380882
C48	C	1.091624	-0.578686	1.046333
C49	C	1.192764	-0.443110	1.046351
C50	C	1.192761	-0.443102	0.963805
C51	C	1.142190	-0.510887	0.922519
C52	C	1.091621	-0.578681	0.963779
C53	C	1.243335	-0.375316	0.922539
C54	C	1.243335	-0.375306	0.839988
C55	C	1.192759	-0.443086	0.798701
C56	C	1.142187	-0.510882	0.839966
C57	C	1.091616	-0.578668	0.798680
C58	C	1.041040	-0.646459	0.839943
C59	C	1.041045	-0.646462	0.922492
C60	C	1.192754	-0.443084	0.716152
C61	C	1.091614	-0.578663	0.716126
C62	C	1.142203	-0.510911	1.175475
C63	C	1.142195	-0.510900	1.087619
H64	H	0.567718	-0.319819	0.238841
F65	F	1.252780	-1.111589	0.480263
H66	H	1.162658	-0.919534	0.250681
F67	F	0.557396	-0.719002	0.535470
F68	F	0.727816	-0.302818	0.226200
F69	F	1.297159	-0.303154	0.796079
F70	F	1.174803	-1.110055	0.236252
H71	H	1.059191	-0.918084	0.279151
H72	H	0.841307	-0.387662	0.289276
F73	F	0.433574	-0.370761	0.276700
H74	H	1.242389	-0.919512	0.465343
F75	F	1.037798	-0.650828	1.090248
H76	H	0.717477	-0.701986	0.522869
F77	F	1.287890	-0.908556	0.349994
H78	H	0.999872	-0.701658	0.956096
H79	H	1.050425	-0.633854	0.682517
H80	H	1.284512	-0.320136	0.956160
F81	F	0.433574	-0.651111	0.485025
H82	H	0.841305	-0.634053	0.472387
F83	F	1.099461	-0.909791	0.522653
F84	F	1.099600	-1.110213	0.523116
F85	F	1.246588	-0.370980	1.090292
F86	F	0.987224	-0.718604	0.795995
F87	F	1.000854	-1.112133	0.423890
F88	F	1.000035	-0.910949	0.423447
F89	F	1.039417	-1.108796	0.274300
H90	H	1.271330	-1.100221	0.357618
F91	F	1.246581	-0.370947	0.672240
