data_functionalizedCrystal
_audit_creation_method	'MofGen! by Chris Wilmer'
_symmetry_space_group_name_H-M	'P1'
_symmetry_Int_Tables_number	1
_symmetry_cell_setting	triclinic
loop_
_symmetry_equiv_pos_as_xyz
  x,y,z
_cell_length_a	15.297475
_cell_length_b	16.120444
_cell_length_c	15.296720
_cell_angle_alpha	78.012939
_cell_angle_beta	88.382886
_cell_angle_gamma	83.688625
loop_
_atom_site_label
_atom_site_type_symbol
_atom_site_fract_x
_atom_site_fract_y
_atom_site_fract_z
Zn1	Zn	1.212923	-0.646918	0.755060
Zn2	Zn	1.230696	-0.766608	0.613842
Zn3	Zn	1.094722	-0.600222	0.581247
Zn4	Zn	1.059433	-0.758438	0.734611
O5	O	1.149444	-0.693046	0.671190
O6	O	1.336421	-0.685757	0.758527
O7	O	1.234865	-0.728414	0.486234
O8	O	1.117732	-0.490111	0.599220
O9	O	1.349480	-0.773693	0.654774
O10	O	1.204573	-0.524418	0.726921
O11	O	1.134966	-0.606170	0.462287
O12	O	0.968900	-0.598247	0.579391
O13	O	1.057587	-0.759767	0.860608
O14	O	0.942973	-0.714488	0.692068
O15	O	1.170355	-0.677834	0.875632
O16	O	1.200647	-0.881830	0.634945
O17	O	1.074822	-0.875827	0.723674
C18	C	0.924526	-0.650415	0.629974
C19	C	0.828300	-0.632199	0.612363
C20	C	0.503200	-0.823240	0.797059
C21	C	0.593609	-0.840360	0.813602
C22	C	0.652286	-0.788321	0.763294
C23	C	0.620546	-0.719160	0.696439
C24	C	0.530128	-0.702042	0.679889
C25	C	0.679214	-0.667123	0.646125
C26	C	0.647474	-0.597962	0.579269
C27	C	0.557065	-0.580847	0.562723
C28	C	0.498388	-0.632885	0.613031
C29	C	0.769632	-0.684241	0.662675
C30	C	0.796560	-0.563043	0.545505
C31	C	0.706151	-0.545923	0.528961
C32	C	1.135854	-0.908992	0.680651
C33	C	1.130114	-1.001393	0.684743
C34	C	1.179397	-1.214703	0.650194
C35	C	1.119649	-1.170570	0.692225
C36	C	1.125474	-1.076431	0.688060
C37	C	1.173574	-1.308851	0.654357
C38	C	1.375239	-0.735845	0.712568
C39	C	1.471460	-0.754084	0.730200
C40	C	1.108052	-0.723098	0.900980
C41	C	1.090414	-0.735905	0.998902
C42	C	1.163106	-0.476265	0.661716
C43	C	1.168929	-0.383886	0.657678
C44	C	1.190727	-0.663061	0.442301
C45	C	1.208548	-0.650052	0.344399
C46	C	1.275550	-0.601378	1.306221
C47	C	1.292127	-0.589348	1.214218
C48	C	1.241700	-0.625986	1.160385
C49	C	1.174693	-0.674656	1.198562
C50	C	1.158118	-0.686693	1.290575
C51	C	1.124269	-0.711301	1.144739
C52	C	1.057262	-0.759971	1.182917
C53	C	1.040690	-0.772005	1.274920
C54	C	1.091117	-0.735367	1.328753
C55	C	1.140844	-0.699264	1.052727
C56	C	1.023412	-0.784579	1.037081
C57	C	1.006835	-0.796608	1.129083
H58	H	0.725901	-0.802265	0.776769
H59	H	0.619446	-0.896673	0.868034
O60	O	1.053471	-1.209826	0.739022
C61	C	0.982668	-1.248133	0.882263
C62	C	1.057664	-1.203663	0.829384
H63	H	0.986022	-1.243150	0.955327
H64	H	0.989698	-1.318182	0.877428
H65	H	0.916719	-1.215936	0.853157
H66	H	1.123648	-1.235790	0.858453
H67	H	1.050556	-1.133613	0.834217
O68	O	0.446081	-0.873679	0.845863
C69	C	0.294862	-0.901051	0.872244
C70	C	0.359452	-0.843843	0.816918
H71	H	0.224810	-0.876961	0.848850
H72	H	0.300686	-0.899215	0.945938
H73	H	0.311285	-0.969376	0.862862
H74	H	0.343070	-0.775493	0.826225
H75	H	0.353615	-0.845752	0.743244
H76	H	0.952277	-0.836236	1.160180
H77	H	1.255202	-0.616189	1.085473
H78	H	1.234919	-1.181790	0.611084
O79	O	0.853645	-0.512614	0.496611
C80	C	0.977805	-0.505018	0.395829
C81	C	0.913221	-0.562221	0.451173
H82	H	1.025977	-0.545098	0.359064
H83	H	1.015634	-0.474950	0.442163
H84	H	0.939568	-0.452635	0.345235
H85	H	0.951390	-0.614648	0.501771
H86	H	0.875391	-0.592225	0.404784
H87	H	0.424768	-0.618949	0.599566
H88	H	0.531227	-0.524538	0.508276
H89	H	1.195401	-0.659636	1.021652
O90	O	1.357218	-0.542016	1.177272
C91	C	1.471978	-0.458709	1.202514
C92	C	1.398274	-0.512281	1.244469
H93	H	1.505205	-0.434668	1.256826
H94	H	1.442775	-0.402038	1.150286
H95	H	1.522563	-0.499818	1.169372
H96	H	1.347664	-0.471243	1.277660
H97	H	1.427540	-0.568958	1.296652
O98	O	1.324424	-0.565827	1.358636
C99	C	1.350973	-0.546621	1.507329
C100	C	1.295535	-0.586914	1.448068
H101	H	1.327650	-0.563670	1.579649
H102	H	1.343249	-0.474346	1.483601
H103	H	1.423114	-0.572069	1.502612
H104	H	1.223374	-0.561534	1.452758
H105	H	1.303335	-0.659187	1.471813
O106	O	1.075010	-0.747206	1.418135
C107	C	1.068499	-0.848358	1.557741
C108	C	1.086740	-0.835076	1.456524
H109	H	1.077993	-0.919396	1.588812
H110	H	0.998032	-0.821732	1.569732
H111	H	1.116030	-0.813765	1.589623
H112	H	1.039265	-0.869669	1.424576
H113	H	1.157229	-0.861680	1.444597
H114	H	0.986135	-0.811643	1.306002
H115	H	0.982352	-0.814414	0.993250
H116	H	0.795465	-0.740553	0.717110
O117	O	0.675170	-0.478802	0.464022
C118	C	0.547809	-0.398698	0.386642
C119	C	0.582778	-0.474749	0.460197
H120	H	0.473105	-0.395385	0.383539
H121	H	0.577398	-0.407243	0.319432
H122	H	0.567041	-0.337120	0.402545
H123	H	0.563558	-0.536361	0.444379
H124	H	0.553193	-0.466128	0.527386
