data_functionalizedCrystal
_audit_creation_method	'MofGen! by Chris Wilmer'
_symmetry_space_group_name_H-M	'P1'
_symmetry_Int_Tables_number	1
_symmetry_cell_setting	triclinic
loop_
_symmetry_equiv_pos_as_xyz
  x,y,z
_cell_length_a	12.645331
_cell_length_b	12.759394
_cell_length_c	12.759387
_cell_angle_alpha	89.968340
_cell_angle_beta	90.023088
_cell_angle_gamma	89.986184
loop_
_atom_site_label
_atom_site_type_symbol
_atom_site_fract_x
_atom_site_fract_y
_atom_site_fract_z
Zn1	Zn	1.620757	0.418240	0.594071
Zn2	Zn	1.620646	0.593957	0.418389
Zn3	Zn	1.443470	0.418289	0.418400
Zn4	Zn	1.443462	0.593874	0.594020
O5	O	1.532084	0.506090	0.506220
O6	O	1.769089	0.441563	0.570783
O7	O	1.597100	0.570709	0.271369
O8	O	1.467037	0.271261	0.441729
O9	O	1.769008	0.570661	0.441710
O10	O	1.597289	0.271225	0.570794
O11	O	1.466930	0.441647	0.271377
O12	O	1.295122	0.441567	0.441680
O13	O	1.467023	0.570521	0.741048
O14	O	1.295116	0.570569	0.570707
O15	O	1.597281	0.441483	0.741086
O16	O	1.597092	0.740967	0.441661
O17	O	1.466916	0.740906	0.570696
C18	C	1.256654	0.506065	0.506190
C19	C	1.138824	0.506080	0.506202
C20	C	1.532020	0.779057	0.506195
C21	C	1.532090	0.895834	0.506219
C22	C	1.532164	0.505987	0.780254
C23	C	1.532198	0.505943	0.897030
C24	C	0.971228	0.424551	0.425478
C25	C	1.093788	0.424762	0.425123
C26	C	1.094309	0.616758	0.475955
C27	C	0.971710	0.616312	0.475404
C28	C	0.971674	0.477983	0.617483
C29	C	1.094279	0.475511	0.616865
C30	C	1.808589	0.506116	0.506251
C31	C	1.926419	0.506127	0.506264
C32	C	1.532176	0.232056	0.506269
C33	C	1.532216	0.115280	0.506289
C34	C	1.667744	0.895844	0.371955
C35	C	1.735599	0.950710	0.304835
C36	C	1.735661	1.060431	0.304864
C37	C	1.667863	1.115290	0.372021
C38	C	1.600008	1.060424	0.439141
C39	C	1.599951	0.950700	0.439103
C40	C	1.464361	1.060414	0.573409
C41	C	1.464292	0.950692	0.573377
C42	C	1.396563	1.115272	0.640566
C43	C	1.328702	1.060407	0.707682
C44	C	1.328641	0.950679	0.707650
C45	C	1.396437	0.895827	0.640496
C46	C	1.532065	0.506117	0.233253
C47	C	1.532236	0.505865	0.116476
C48	C	1.667844	0.371585	0.897089
C49	C	1.735682	0.304390	0.951979
C50	C	1.735708	0.304352	1.061701
C51	C	1.667886	0.371513	1.116535
C52	C	1.600048	0.438708	1.061645
C53	C	1.600032	0.438741	0.951921
C54	C	1.464398	0.573059	1.061586
C55	C	1.464376	0.573105	0.951864
C56	C	1.396576	0.640221	1.116420
C57	C	1.328742	0.707423	1.061530
C58	C	1.328720	0.707459	0.951801
C59	C	1.396538	0.640300	0.896974
H60	H	0.941760	0.342233	0.444233
O61	O	1.262715	0.772544	1.114747
C62	C	1.082380	0.823544	1.148225
C63	C	1.157032	0.749710	1.087906
H64	H	0.996921	0.805125	1.126530
H65	H	1.093953	0.811965	1.236086
H66	H	1.101013	0.908266	1.126658
H67	H	1.138445	0.664961	1.109385
H68	H	1.145445	0.761381	1.000059
O69	O	1.801354	0.897258	0.239633
C70	C	1.861427	0.728230	0.180118
C71	C	1.786887	0.788627	0.253991
H72	H	1.849772	0.640391	0.191716
H73	H	1.842856	0.749811	0.095370
H74	H	1.946899	0.749784	0.198631
H75	H	1.701389	0.767105	0.235572
H76	H	1.805549	0.767040	0.338717
H77	H	1.667840	0.371619	0.807748
H78	H	1.123885	0.342690	0.444081
H79	H	1.396531	0.640327	0.807633
O80	O	1.801723	1.113614	0.239717
C81	C	1.982091	1.147144	0.188924
C82	C	1.907395	1.086833	0.262749
H83	H	2.067543	1.125531	0.207533
H84	H	1.963590	1.125637	0.104168
H85	H	1.970433	1.234982	0.200464
H86	H	1.919012	0.998981	0.251303
H87	H	1.925914	1.108427	0.347478
H88	H	1.667687	0.806503	0.371911
O89	O	1.396604	0.640379	1.223003
C90	C	1.423890	0.741047	1.380437
C91	C	1.423871	0.741014	1.259733
H92	H	1.445954	0.822396	1.410170
H93	H	1.341809	0.719288	1.410276
H94	H	1.483996	0.681446	1.410225
H95	H	1.363817	0.800616	1.229855
H96	H	1.505990	0.762727	1.229965
H97	H	1.667929	1.204631	0.372048
O98	O	1.396721	1.221855	0.640768
C99	C	1.423942	1.379203	0.741577
C100	C	1.423829	1.258499	0.741488
H101	H	1.445834	1.408867	0.823006
H102	H	1.484117	1.409053	0.682131
H103	H	1.341872	1.409051	0.719668
H104	H	1.505853	1.228563	0.763423
H105	H	1.363597	1.228722	0.800912
H106	H	1.273511	1.105081	0.762361
H107	H	1.790900	0.249707	0.907322
O108	O	1.262630	0.897548	0.772890
C109	C	1.128148	0.909132	0.906131
C110	C	1.202832	0.969427	0.832280
H111	H	1.079798	0.967220	0.954184
H112	H	1.072631	0.857875	0.857894
H113	H	1.176789	0.857650	0.961043
H114	H	1.154277	1.020965	0.777354
H115	H	1.258352	1.020617	0.880583
H116	H	1.396388	0.806486	0.640457
O117	O	0.936161	0.691208	0.542518
C118	C	0.784551	0.776538	0.618664
C119	C	0.824660	0.691661	0.542655
H120	H	0.694399	0.776948	0.618784
H121	H	0.814680	0.759108	0.701076
H122	H	0.814895	0.856454	0.592346
H123	H	0.794333	0.611712	0.568877
H124	H	0.794541	0.709183	0.460260
O125	O	1.668070	0.371370	1.223118
C126	C	1.742474	0.297537	1.380606
C127	C	1.742394	0.297610	1.259902
H128	H	1.802542	0.237893	1.410382
H129	H	1.764504	0.378858	1.410447
H130	H	1.660365	0.275758	1.410350
H131	H	1.824478	0.319344	1.230069
H132	H	1.720304	0.216280	1.230133
H133	H	1.790941	0.249629	1.106393
O134	O	0.934486	0.446311	0.327671
C135	C	0.933678	0.397419	0.145283
C136	C	0.975346	0.372639	0.255996
H137	H	0.966714	0.337883	0.087299
H138	H	0.843622	0.393246	0.145066
H139	H	0.959908	0.479533	0.121511
H140	H	0.949194	0.290525	0.279836
H141	H	1.065397	0.376884	0.256152
O142	O	1.129157	0.691329	0.543790
C143	C	1.226690	0.852092	0.565436
C144	C	1.187269	0.767730	0.488495
H145	H	1.273700	0.913871	0.520764
H146	H	1.156104	0.890693	0.605396
H147	H	1.279513	0.814116	0.627131
H148	H	1.134464	0.805624	0.426740
H149	H	1.257903	0.729136	0.448614
H150	H	1.123066	0.443364	0.342705
H151	H	0.943065	0.640178	0.394098
H152	H	1.124965	0.641033	0.395522
H153	H	0.940773	0.398685	0.644990
H154	H	1.124940	0.530591	0.680276
O155	O	1.128808	0.378270	0.644037
C156	C	1.080546	0.201495	0.690213
C157	C	1.041295	0.311567	0.659437
H158	H	1.009812	0.147541	0.702695
H159	H	1.132548	0.168772	0.625004
H160	H	1.128349	0.206708	0.765802
H161	H	0.993448	0.306443	0.583874
H162	H	0.989348	0.344249	0.724709
O163	O	0.937282	0.548935	0.689306
C164	C	0.985768	0.679829	0.816614
C165	C	1.024867	0.599532	0.735299
H166	H	1.056561	0.720743	0.853838
H167	H	0.933365	0.740407	0.776337
H168	H	0.938423	0.637722	0.879922
H169	H	1.072257	0.641548	0.671969
H170	H	1.077216	0.538958	0.775652
H171	H	1.273466	0.762166	0.907116
