data_functionalizedCrystal
_audit_creation_method	'MofGen! by Chris Wilmer'
_symmetry_space_group_name_H-M	'P1'
_symmetry_Int_Tables_number	1
_symmetry_cell_setting	triclinic
loop_
_symmetry_equiv_pos_as_xyz
  x,y,z
_cell_length_a	13.032831
_cell_length_b	21.295417
_cell_length_c	13.032268
_cell_angle_alpha	82.859352
_cell_angle_beta	89.113023
_cell_angle_gamma	82.834379
loop_
_atom_site_label
_atom_site_type_symbol
_atom_site_fract_x
_atom_site_fract_y
_atom_site_fract_z
Zn1	Zn	1.498336	-0.425102	0.780728
Zn2	Zn	1.998336	0.074898	1.280728
Zn3	Zn	1.520047	-0.518887	0.608724
Zn4	Zn	2.020047	-0.018887	1.108724
Zn5	Zn	1.348204	-0.398806	0.586976
Zn6	Zn	1.848204	0.101194	1.086976
Zn7	Zn	1.326296	-0.515483	0.758850
Zn8	Zn	1.826296	-0.015483	1.258850
O9	O	1.423221	-0.464570	0.683820
O10	O	1.923221	0.035430	1.183820
O11	O	1.645133	-0.449972	0.776169
O12	O	2.145133	0.050028	1.276169
O13	O	1.515506	-0.493377	0.461925
O14	O	2.015506	0.006623	0.961925
O15	O	1.368201	-0.314216	0.612731
O16	O	1.868201	0.185784	1.112731
O17	O	1.661084	-0.518875	0.649799
O18	O	2.161084	-0.018875	1.149799
O19	O	1.478503	-0.333535	0.755080
O20	O	1.978503	0.166465	1.255080
O21	O	1.389253	-0.405155	0.445946
O22	O	1.889253	0.094845	0.945946
O23	O	1.201381	-0.401855	0.591517
O24	O	1.701381	0.098145	1.091517
O25	O	1.330864	-0.513075	0.905667
O26	O	1.830864	-0.013075	1.405667
O27	O	1.185286	-0.487577	0.717793
O28	O	1.685286	0.012423	1.217793
O29	O	1.457261	-0.446672	0.921740
O30	O	1.957261	0.053328	1.421740
O31	O	1.494263	-0.606514	0.628585
O32	O	1.994263	-0.106514	1.128585
O33	O	1.351916	-0.604014	0.738882
O34	O	1.851916	-0.104014	1.238882
C35	C	1.156018	-0.441494	0.649922
C36	C	1.656018	0.058506	1.149922
C37	C	1.041704	-0.431638	0.635445
C38	C	1.541704	0.068362	1.135445
C39	C	0.982815	-0.469713	0.691375
C40	C	1.482815	0.030287	1.191375
C41	C	0.864665	-0.459528	0.676414
C42	C	1.364665	0.040472	1.176414
C43	C	1.423093	-0.628106	0.683746
C44	C	1.923093	-0.128106	1.183746
C45	C	1.423128	-0.698078	0.683760
C46	C	1.923128	-0.198078	1.183760
C47	C	1.497299	-0.732235	0.626403
C48	C	1.997299	-0.232235	1.126403
C49	C	1.497344	-0.797983	0.626433
C50	C	1.997344	-0.297983	1.126433
C51	C	1.423202	-0.829569	0.683806
C52	C	1.923202	-0.329569	1.183806
C53	C	1.349025	-0.795405	0.741175
C54	C	1.849025	-0.295405	1.241175
C55	C	1.348989	-0.729659	0.741152
C56	C	1.848989	-0.229659	1.241152
N57	N	1.332239	-0.925592	0.680232
N58	N	1.832239	-0.425592	1.180232
N59	N	1.332278	-0.988048	0.680248
N60	N	1.832278	-0.488048	1.180248
C61	C	1.423310	-1.027658	0.683879
C62	C	1.923310	-0.527658	1.183879
N63	N	1.514306	-1.002451	0.687474
N64	N	2.014306	-0.502451	1.187474
N65	N	1.514267	-0.939990	0.687452
N66	N	2.014267	-0.439990	1.187452
C67	C	1.423234	-0.900860	0.683837
C68	C	1.923234	-0.400860	1.183837
C69	C	1.497535	-1.133107	0.626551
C70	C	1.997535	-0.633107	1.126551
C71	C	1.497581	-1.198857	0.626588
C72	C	1.997581	-0.698857	1.126588
C73	C	1.349254	-1.196276	0.741323
C74	C	1.849254	-0.696276	1.241323
C75	C	1.349216	-1.130528	0.741293
C76	C	1.849216	-0.630528	1.241293
C77	C	1.423356	-1.098947	0.683901
C78	C	1.923356	-0.598947	1.183901
C79	C	1.691467	-0.487736	0.717850
C80	C	2.191467	0.012264	1.217850
C81	C	1.805778	-0.497609	0.732352
C82	C	2.305778	0.002391	1.232352
C83	C	1.389197	-0.482427	0.952062
C84	C	1.889197	0.017573	1.452062
C85	C	1.374697	-0.490036	1.066371
C86	C	1.874697	0.009964	1.566371
C87	C	1.423374	-0.300399	0.683920
C88	C	1.923374	0.199601	1.183920
C89	C	1.423439	-0.230439	0.683963
C90	C	1.923439	0.269561	1.183963
C91	C	1.457172	-0.446742	0.416628
C92	C	1.957172	0.053258	0.916628
C93	C	1.471870	-0.438972	0.302345
C94	C	1.971870	0.061028	0.802345
C95	C	1.430772	-0.460574	1.125287
C96	C	1.930772	0.039426	1.625287
C97	C	1.415788	-0.468438	1.243431
C98	C	1.915788	0.031562	1.743431
H99	H	0.842824	-0.537746	0.791324
H100	H	1.342824	-0.037746	1.291324
C101	C	0.884334	-0.377863	0.556410
C102	C	1.384334	0.122137	1.056410
C103	C	0.991697	-0.377460	0.555831
C104	C	1.491697	0.122540	1.055831
H105	H	0.853468	-0.344418	0.507249
H106	H	1.353468	0.155582	1.007249
H107	H	0.858034	-0.371806	0.623319
H108	H	1.358034	0.128194	1.123319
H109	H	0.868690	-0.417635	0.539035
H110	H	1.368690	0.082365	1.039035
H111	H	1.007342	-0.337689	0.573213
H112	H	1.507342	0.162311	1.073213
H113	H	1.018007	-0.383512	0.488907
H114	H	1.518007	0.116488	0.988907
C115	C	1.643922	-0.741396	0.513003
C116	C	2.143922	-0.241396	1.013003
C117	C	1.578805	-0.697524	0.563336
C118	C	2.078805	-0.197524	1.063336
H119	H	1.694245	-0.719966	0.474077
H120	H	2.194245	-0.219966	0.974077
H121	H	1.604154	-0.760584	0.467954
H122	H	2.104154	-0.260584	0.967954
H123	H	1.677541	-0.773387	0.562849
H124	H	2.177541	-0.273387	1.062849
H125	H	1.545180	-0.665536	0.513489
H126	H	2.045180	-0.165536	1.013489
H127	H	1.618578	-0.678326	0.608389
H128	H	2.118578	-0.178326	1.108389
H129	H	1.288890	-1.221993	0.788043
H130	H	1.788890	-0.721993	1.288043
C131	C	1.202600	-1.134581	0.854689
C132	C	1.702600	-0.634581	1.354689
C133	C	1.267672	-1.092976	0.804327
C134	C	1.767672	-0.592976	1.304327
H135	H	1.152253	-1.111396	0.893600
H136	H	1.652253	-0.611396	1.393600
H137	H	1.242394	-1.166672	0.899755
H138	H	1.742394	-0.666672	1.399755
H139	H	1.169007	-1.153884	0.804860
H140	H	1.669007	-0.653884	1.304860
H141	H	1.301271	-1.073677	0.854156
H142	H	1.801271	-0.573677	1.354156
H143	H	1.227873	-1.060874	0.759256
H144	H	1.727873	-0.560874	1.259256
C145	C	1.526244	-0.334515	1.275513
C146	C	2.026244	0.165485	1.775513
C147	C	1.551658	-0.397051	1.252389
C148	C	2.051658	0.102949	1.752389
H149	H	1.575498	-0.308634	1.244669
H150	H	2.075498	0.191366	1.744669
H151	H	1.526640	-0.334312	1.348346
H152	H	2.026640	0.165688	1.848346
H153	H	1.459362	-0.318184	1.249189
H154	H	1.959362	0.181816	1.749189
H155	H	1.618538	-0.413383	1.278720
H156	H	2.118538	0.086617	1.778720
H157	H	1.551273	-0.397256	1.179541
H158	H	2.051273	0.102744	1.679541
C159	C	1.485158	-0.356121	1.098418
C160	C	1.985158	0.143879	1.598418
C161	C	1.510558	-0.418662	1.075310
C162	C	2.010558	0.081338	1.575310
H163	H	1.534413	-0.330246	1.067559
H164	H	2.034413	0.169754	1.567559
H165	H	1.485565	-0.355911	1.171249
H166	H	1.985565	0.144089	1.671249
H167	H	1.418274	-0.339789	1.072100
H168	H	1.918274	0.160211	1.572100
H169	H	1.577438	-0.434995	1.101635
H170	H	2.077438	0.065005	1.601635
H171	H	1.510161	-0.418875	1.002464
H172	H	2.010161	0.081125	1.502464
C173	C	1.336606	-0.510038	1.400767
C174	C	1.836606	-0.010038	1.900767
C175	C	1.336003	-0.510357	1.293400
C176	C	1.836003	-0.010357	1.793400
H177	H	1.287357	-0.535921	1.431615
H178	H	1.787357	-0.035921	1.931615
H179	H	1.319376	-0.467613	1.416432
H180	H	1.819376	0.032387	1.916432
H181	H	1.403494	-0.526374	1.427069
H182	H	1.903494	-0.026374	1.927069
H183	H	1.269117	-0.494017	1.267097
H184	H	1.769117	0.005983	1.767097
H185	H	1.353227	-0.552791	1.277727
H186	H	1.853227	-0.052791	1.777727
H187	H	1.315590	-0.521077	1.103397
H188	H	1.815590	-0.021077	1.603397
H189	H	1.288660	-0.821126	0.787890
H190	H	1.788660	-0.321126	1.287890
C191	C	1.086247	-0.498149	0.844887
C192	C	1.586247	0.001851	1.344887
C193	C	1.032827	-0.523899	0.770972
C194	C	1.532827	-0.023899	1.270972
H195	H	1.117126	-0.531603	0.894023
H196	H	1.617126	-0.031603	1.394023
H197	H	1.039360	-0.469807	0.879042
H198	H	1.539360	0.030193	1.379042
H199	H	1.138498	-0.475581	0.811723
H200	H	1.638498	0.024419	1.311723
H201	H	0.980571	-0.546464	0.804136
H202	H	1.480571	-0.046464	1.304136
H203	H	1.079718	-0.552252	0.736814
H204	H	1.579718	-0.052252	1.236814
H205	H	1.557746	-0.825800	0.579727
H206	H	2.057746	-0.325800	1.079727
C207	C	1.202380	-0.733713	0.854565
C208	C	1.702380	-0.233713	1.354565
C209	C	1.267449	-0.692108	0.804196
C210	C	1.767449	-0.192108	1.304196
H211	H	1.152037	-0.710528	0.893479
H212	H	1.652037	-0.210528	1.393479
H213	H	1.242177	-0.765803	0.899630
H214	H	1.742177	-0.265803	1.399630
H215	H	1.168783	-0.753017	0.804740
H216	H	1.668783	-0.253017	1.304740
H217	H	1.301052	-0.672808	0.854022
H218	H	1.801052	-0.172808	1.354022
H219	H	1.227646	-0.660007	0.759128
H220	H	1.727646	-0.160007	1.259128
C221	C	1.637861	-1.283655	0.630125
C222	C	2.137861	-0.783655	1.130125
C223	C	1.579213	-1.236384	0.563607
C224	C	2.079213	-0.736384	1.063607
H225	H	1.688289	-1.306813	0.591261
H226	H	2.188289	-0.806813	1.091261
H227	H	1.593727	-1.311896	0.664244
H228	H	2.093727	-0.811896	1.164244
H229	H	1.671356	-1.264311	0.679970
H230	H	2.171356	-0.764311	1.179970
H231	H	1.545712	-1.255728	0.513766
H232	H	2.045712	-0.755728	1.013766
H233	H	1.623354	-1.208138	0.529471
H234	H	2.123354	-0.708138	1.029471
H235	H	0.827617	-0.419386	0.617453
H236	H	1.327617	0.080614	1.117453
C237	C	1.644154	-1.142260	0.513146
C238	C	2.144154	-0.642260	1.013146
C239	C	1.579033	-1.098389	0.563476
C240	C	2.079033	-0.598389	1.063476
H241	H	1.694469	-1.120827	0.474211
H242	H	2.194469	-0.620827	0.974211
H243	H	1.604388	-1.161455	0.468105
H244	H	2.104388	-0.661455	0.968105
H245	H	1.677783	-1.174245	0.562994
H246	H	2.177783	-0.674245	1.062994
H247	H	1.545398	-1.066406	0.513627
H248	H	2.045398	-0.566406	1.013627
H249	H	1.618804	-1.079184	0.608521
H250	H	2.118804	-0.579184	1.108521
