data_functionalizedCrystal
_audit_creation_method	'MofGen! by Chris Wilmer'
_symmetry_space_group_name_H-M	'P1'
_symmetry_Int_Tables_number	1
_symmetry_cell_setting	triclinic
loop_
_symmetry_equiv_pos_as_xyz
  x,y,z
_cell_length_a	17.699077
_cell_length_b	14.044190
_cell_length_c	16.176319
_cell_angle_alpha	90.008093
_cell_angle_beta	90.005422
_cell_angle_gamma	88.236177
loop_
_atom_site_label
_atom_site_type_symbol
_atom_site_fract_x
_atom_site_fract_y
_atom_site_fract_z
O1	O	1.012348	0.119819	0.068745
O2	O	1.512348	0.619819	0.568745
O3	O	0.793046	0.135418	0.068750
O4	O	1.293046	0.635418	0.568750
O5	O	0.899402	-0.010359	0.068731
O6	O	1.399402	0.489641	0.568731
O7	O	0.905991	0.265595	0.068764
O8	O	1.405991	0.765595	0.568764
O9	O	0.899389	-0.010359	-0.068762
O10	O	1.399389	0.489641	0.431238
O11	O	0.793032	0.135417	-0.068743
O12	O	1.293032	0.635417	0.431257
O13	O	1.012335	0.119819	-0.068748
O14	O	1.512335	0.619819	0.431252
Cu15	Cu	0.902682	0.127618	-0.081300
Cu16	Cu	1.402682	0.627618	0.418700
Cu17	Cu	0.902698	0.127618	0.081302
Cu18	Cu	1.402698	0.627618	0.581302
O19	O	0.905978	0.265595	-0.068730
O20	O	1.405978	0.765595	0.431270
C21	C	0.764803	0.134859	0.000004
C22	C	1.264803	0.634859	0.500004
C23	C	0.680669	0.133185	0.000005
C24	C	1.180669	0.633185	0.500005
C25	C	0.641140	0.132397	-0.074943
C26	C	1.141140	0.632397	0.425057
C27	C	0.562088	0.130809	-0.074944
C28	C	1.062088	0.630809	0.425056
C29	C	0.522566	0.130016	0.000004
C30	C	1.022566	0.630016	0.500004
C31	C	0.562101	0.130803	0.074958
C32	C	1.062101	0.630803	0.574958
C33	C	0.641152	0.132384	0.074958
C34	C	1.141152	0.632384	0.574958
C35	C	0.243298	0.124425	0.074959
C36	C	0.743298	0.624425	0.574959
C37	C	0.164241	0.122846	0.074953
C38	C	0.664241	0.622846	0.574953
C39	C	0.164234	0.122850	-0.074944
C40	C	0.664234	0.622850	0.425056
C41	C	0.243285	0.124431	-0.074944
C42	C	0.743285	0.624431	0.425056
C43	C	0.282813	0.125212	0.000010
C44	C	0.782813	0.625212	0.500010
C45	C	0.368530	0.126932	0.000010
C46	C	0.868530	0.626932	0.500010
C47	C	0.436850	0.128303	0.000005
C48	C	0.936850	0.628303	0.500005
C49	C	0.896513	-0.045667	-0.000018
C50	C	1.396513	0.454333	0.499982
C51	C	0.887915	-0.150873	-0.000025
C52	C	1.387915	0.349127	0.499975
C53	C	0.933175	-0.401265	0.000007
C54	C	1.433175	0.098735	0.500007
C55	C	0.872208	-0.343494	0.000002
C56	C	1.372208	0.156506	0.500002
C57	C	0.880950	-0.236310	-0.000013
C58	C	1.380950	0.263690	0.499987
C59	C	0.924435	-0.508459	0.000022
C60	C	1.424435	-0.008459	0.500022
C61	C	1.040577	0.120377	-0.000000
C62	C	1.540577	0.620377	0.500000
C63	C	1.124711	0.122051	0.000004
C64	C	1.624711	0.622051	0.500004
C65	C	0.908867	0.300903	0.000021
C66	C	1.408867	0.800903	0.500021
C67	C	0.917465	0.406109	0.000034
C68	C	1.417465	0.906109	0.500034
N69	N	0.902676	0.127617	-0.195665
N70	N	1.402676	0.627617	0.304335
C71	C	0.952452	0.185027	-0.238920
C72	C	1.452452	0.685027	0.261080
C73	C	0.952460	0.185023	-0.325467
C74	C	1.452460	0.685023	0.174533
C75	C	0.902688	0.127614	-0.368758
C76	C	1.402688	0.627614	0.131242
C77	C	0.852909	0.070198	-0.325497
C78	C	1.352909	0.570198	0.174503
C79	C	0.852905	0.070197	-0.238952
C80	C	1.352905	0.570197	0.261048
C81	C	0.852923	0.070199	-0.674525
C82	C	1.352923	0.570199	-0.174525
C83	C	0.852929	0.070206	-0.761077
C84	C	1.352929	0.570206	-0.261077
C85	C	0.952478	0.185025	-0.761041
C86	C	1.452478	0.685025	-0.261041
C87	C	0.952474	0.185024	-0.674495
C88	C	1.452474	0.685024	-0.174495
C89	C	0.902699	0.127605	-0.631242
C90	C	1.402699	0.627605	-0.131242
C91	C	0.902692	0.127608	-0.537398
C92	C	1.402692	0.627608	-0.037398
C93	C	0.902690	0.127615	-0.462600
C94	C	1.402690	0.627615	0.037400
N95	N	0.902710	0.127612	0.195667
N96	N	1.402710	0.627612	0.695667
H97	H	0.132065	0.122200	0.135989
H98	H	0.632065	0.622200	0.635989
H99	H	0.813447	-0.374532	0.000008
H100	H	1.313447	0.125468	0.500008
H101	H	0.991932	-0.370228	-0.000003
H102	H	1.491932	0.129772	0.499997
H103	H	0.992979	0.231781	-0.203679
H104	H	1.492979	0.731781	0.296321
C105	C	1.007191	0.248216	-0.373043
C106	C	1.507191	0.748216	0.126957
N107	N	1.048407	0.295829	-0.408877
N108	N	1.548407	0.795829	0.091123
C109	C	1.007230	0.248175	-0.626880
C110	C	1.507230	0.748175	-0.126880
N111	N	1.048477	0.295738	-0.591017
N112	N	1.548477	0.795738	-0.091017
C113	C	1.007239	0.248180	-0.808627
C114	C	1.507239	0.748180	-0.308627
N115	N	1.048483	0.295747	-0.844467
N116	N	1.548483	0.795747	-0.344467
H117	H	0.812372	0.023448	-0.203735
H118	H	1.312372	0.523448	0.296265
C119	C	0.798175	0.007045	-0.808695
C120	C	1.298175	0.507045	-0.308695
N121	N	0.756937	-0.040526	-0.844561
N122	N	1.256937	0.459474	-0.344561
C123	C	0.798162	0.007044	-0.626958
C124	C	1.298162	0.507044	-0.126958
N125	N	0.756912	-0.040525	-0.591128
N126	N	1.256912	0.459475	-0.091128
C127	C	0.518609	0.129963	-0.157394
C128	C	1.018609	0.629963	0.342606
N129	N	0.485860	0.129333	-0.219498
N130	N	0.985860	0.629333	0.280502
C131	C	0.684607	0.133267	-0.157394
C132	C	1.184607	0.633267	0.342606
N133	N	0.717344	0.133919	-0.219498
N134	N	1.217344	0.633919	0.280502
H135	H	0.812387	0.023450	-0.360751
H136	H	1.312387	0.523450	0.139249
H137	H	0.275459	0.125080	-0.135974
H138	H	0.775459	0.625080	0.364026
H139	H	0.529917	0.130151	0.135983
H140	H	1.029917	0.630151	0.635983
C141	C	0.684634	0.133254	0.157408
C142	C	1.184634	0.633254	0.657408
N143	N	0.717383	0.133906	0.219511
N144	N	1.217383	0.633906	0.719511
H145	H	0.275472	0.125058	0.135991
H146	H	0.775472	0.625058	0.635991
C147	C	0.120746	0.121979	-0.157395
C148	C	0.620746	0.621979	0.342605
N149	N	0.087992	0.121325	-0.219496
N150	N	0.587992	0.621325	0.280504
