data_functionalizedCrystal
_audit_creation_method	'MofGen! by Chris Wilmer'
_symmetry_space_group_name_H-M	'P1'
_symmetry_Int_Tables_number	1
_symmetry_cell_setting	triclinic
loop_
_symmetry_equiv_pos_as_xyz
  x,y,z
_cell_length_a	14.044220
_cell_length_b	19.188930
_cell_length_c	12.503572
_cell_angle_alpha	93.506241
_cell_angle_beta	86.164750
_cell_angle_gamma	88.166830
loop_
_atom_site_label
_atom_site_type_symbol
_atom_site_fract_x
_atom_site_fract_y
_atom_site_fract_z
O1	O	1.262485	0.164589	-0.089229
O2	O	0.986542	0.158515	-0.089255
O3	O	1.132475	0.060411	-0.089220
O4	O	1.116552	0.262693	-0.089264
O5	O	1.121500	0.067803	0.089419
O6	O	0.975567	0.165907	0.089384
O7	O	1.251510	0.171980	0.089411
Cu8	Cu	1.112536	0.169618	0.105709
Cu9	Cu	1.125516	0.160877	-0.105553
O10	O	1.105577	0.270084	0.089376
C11	C	0.945752	0.159553	0.000061
C12	C	0.840559	0.151624	0.000052
C13	C	1.126472	0.038063	0.000102
C14	C	1.124923	-0.039541	0.000112
C15	C	0.647956	0.137129	0.000077
C16	C	0.590090	0.193363	0.000069
C17	C	0.482920	0.185298	0.000083
C18	C	0.755137	0.145193	0.000063
C19	C	1.210552	-0.078939	0.000125
C20	C	1.209099	-0.151857	0.000108
C21	C	1.122010	-0.185374	0.000098
C22	C	1.036370	-0.145968	0.000079
C23	C	1.037826	-0.073051	0.000086
N24	N	1.051706	-0.295160	0.060886
N25	N	1.050328	-0.364427	0.060882
C26	C	1.117616	-0.405067	0.000076
N27	N	1.186348	-0.373823	-0.060712
N28	N	1.187729	-0.304548	-0.060704
C29	C	1.120421	-0.264440	0.000091
C30	C	1.201676	-0.523532	0.000069
C31	C	1.200219	-0.596451	0.000045
C32	C	1.027487	-0.590560	0.000028
C33	C	1.028947	-0.517642	0.000041
C34	C	1.116043	-0.484132	0.000067
C35	C	1.292301	0.170943	0.000092
C36	C	1.397493	0.178872	0.000094
C37	C	1.111580	0.292433	0.000051
C38	C	1.113129	0.370037	0.000034
N39	N	1.103414	0.175766	0.254299
N40	N	1.134645	0.154724	-0.254143
C41	C	1.089995	0.184816	0.473411
C42	C	1.148061	0.145676	0.526752
C43	C	1.140595	0.150712	0.648673
C44	C	1.097461	0.179782	0.351478
H45	H	0.617011	0.082933	0.000094
C46	C	1.294419	-0.639791	0.000057
C47	C	1.360159	-0.628371	0.092838
C48	C	1.454362	-0.671711	0.092850
C49	C	1.482823	-0.726471	0.000082
C50	C	1.417082	-0.737893	-0.092706
C51	C	1.322880	-0.694553	-0.092718
H52	H	1.339091	-0.587833	0.161517
H53	H	1.503028	-0.663255	0.161538
H54	H	1.552558	-0.758553	0.000091
H55	H	1.438150	-0.778431	-0.161385
H56	H	1.274214	-0.703009	-0.161406
C57	C	1.222802	0.095304	0.464751
C58	C	1.230217	0.090237	0.341066
C59	C	1.304957	0.039869	0.279060
C60	C	1.372282	-0.005432	0.340739
C61	C	1.364869	-0.000367	0.464431
C62	C	1.290129	0.050001	0.526437
H63	H	1.180377	0.123773	0.295402
H64	H	1.310444	0.036119	0.187495
H65	H	1.427609	-0.042718	0.294838
H66	H	1.414710	-0.033903	0.510095
H67	H	1.284642	0.053750	0.618002
C68	C	0.934749	-0.474300	0.000044
C69	C	0.868994	-0.485723	-0.092722
C70	C	0.774792	-0.442382	-0.092721
C71	C	0.746345	-0.387618	0.000046
C72	C	0.812101	-0.376193	0.092820
C73	C	0.906303	-0.419534	0.092818
H74	H	0.890052	-0.526264	-0.161400
H75	H	0.726115	-0.450840	-0.161398
H76	H	0.676610	-0.355535	0.000047
H77	H	0.791044	-0.335652	0.161498
H78	H	0.954980	-0.411076	0.161496
H79	H	1.034680	0.222105	0.519305
H80	H	1.278831	-0.183941	0.000114
C81	C	0.631890	0.266587	0.000046
C82	C	0.740631	0.274660	0.000031
C83	C	0.782435	0.347880	0.000008
C84	C	0.715499	0.413028	-0.000002
C85	C	0.606751	0.404958	0.000013
C86	C	0.564947	0.331737	0.000036
H87	H	0.790187	0.226431	0.000038
H88	H	0.862938	0.353854	-0.000003
H89	H	0.746445	0.467231	-0.000019
H90	H	0.557195	0.453186	0.000006
H91	H	0.484444	0.325764	0.000047
H92	H	1.281473	-0.051660	0.000142
H93	H	0.968095	-0.040973	0.000075
C94	C	0.940571	-0.182833	0.000068
C95	C	0.938964	-0.263038	0.000065
C96	C	0.843161	-0.299902	0.000046
C97	C	0.748966	-0.256561	0.000030
C98	C	0.750569	-0.176352	0.000033
C99	C	0.846372	-0.139487	0.000051
H100	H	1.008696	-0.295125	0.000077
H101	H	0.841974	-0.359278	0.000045
H102	H	0.678047	-0.283850	0.000016
H103	H	0.680837	-0.144264	0.000020
H104	H	0.847559	-0.080111	0.000053
H105	H	1.272595	-0.496247	0.000085
H106	H	0.956578	-0.617849	0.000015
