data_functionalizedCrystal
_audit_creation_method	'MofGen! by Chris Wilmer'
_symmetry_space_group_name_H-M	'P1'
_symmetry_Int_Tables_number	1
_symmetry_cell_setting	triclinic
loop_
_symmetry_equiv_pos_as_xyz
  x,y,z
_cell_length_a	10.654556
_cell_length_b	12.837942
_cell_length_c	9.730223
_cell_angle_alpha	89.998888
_cell_angle_beta	89.999363
_cell_angle_gamma	89.658175
loop_
_atom_site_label
_atom_site_type_symbol
_atom_site_fract_x
_atom_site_fract_y
_atom_site_fract_z
O1	O	1.683734	0.145749	-0.114303
O2	O	1.319771	0.159626	-0.114303
O3	O	1.493682	0.001726	-0.114295
O4	O	1.509823	0.303648	-0.114312
O5	O	1.493680	0.001730	0.114285
O6	O	1.319769	0.159630	0.114277
O7	O	1.683732	0.145753	0.114277
Zn8	Zn	1.501751	0.152692	0.150569
Zn9	Zn	1.501753	0.152687	-0.150595
O10	O	1.509821	0.303652	0.114268
C11	C	1.272861	0.158608	-0.000013
C12	C	1.133085	0.155555	-0.000013
C13	C	1.488229	-0.036931	-0.000005
C14	C	1.471966	-0.152126	-0.000008
C15	C	0.936087	0.151257	-0.124623
C16	C	1.067422	0.154120	-0.124617
C17	C	1.067407	0.154118	0.124594
C18	C	0.936075	0.151248	0.124586
C19	C	0.936096	0.151263	-0.268502
C20	C	1.067431	0.154125	-0.268497
C21	C	1.667470	-0.391675	-0.000037
C22	C	1.652196	-0.499911	-0.000039
C23	C	1.426145	-0.476836	-0.000024
C24	C	1.441419	-0.368600	-0.000022
C25	C	1.562086	-0.326024	-0.000026
C26	C	1.577359	-0.217786	-0.000014
C27	C	1.351308	-0.194712	-0.000009
C28	C	1.336034	-0.302948	-0.000012
C29	C	1.730643	0.146771	-0.000016
C30	C	1.870418	0.149824	-0.000026
C31	C	1.515275	0.342310	-0.000024
C32	C	1.531537	0.457505	-0.000031
N33	N	1.501758	0.152695	0.356105
N34	N	1.501754	0.152676	-0.356132
C35	C	1.578790	0.082801	0.428035
C36	C	1.578786	0.082788	0.571918
C37	C	1.424713	0.222573	0.571929
C38	C	1.424712	0.222580	0.428048
C39	C	1.667747	0.002100	0.428030
C40	C	1.667742	0.002088	0.571913
H41	H	0.882614	0.150060	0.226045
H42	H	1.738012	-0.553361	-0.000052
C43	C	1.615397	-0.099712	0.632199
N44	N	1.575964	-0.176383	0.677609
H45	H	1.111074	0.080232	-0.313138
H46	H	0.903279	0.078008	-0.323747
H47	H	1.761688	0.027371	0.383402
H48	H	1.361984	0.279470	0.630520
C49	C	1.340076	0.299548	0.348931
N50	N	1.276367	0.357556	0.289340
C51	C	1.293422	-0.523689	-0.000007
N52	N	1.193453	-0.558980	0.000016
H53	H	1.675611	-0.183122	-0.000012
C54	C	1.139641	0.155719	0.261660
N55	N	1.194046	0.156937	0.364901
H56	H	1.765722	-0.357009	-0.000026
H57	H	0.892454	0.225152	-0.313151
H58	H	1.237790	-0.337629	-0.000014
C59	C	1.627014	-0.105628	0.375269
N60	N	1.596331	-0.186767	0.335530
C61	C	1.111786	0.253090	-0.343121
N62	N	1.145194	0.327629	-0.399324
C63	C	1.235377	-0.122486	0.000003
N64	N	1.148061	-0.068085	0.000016
H65	H	1.766194	0.019866	0.610962
