data_functionalizedCrystal
_audit_creation_method	'MofGen! by Chris Wilmer'
_symmetry_space_group_name_H-M	'P1'
_symmetry_Int_Tables_number	1
_symmetry_cell_setting	triclinic
loop_
_symmetry_equiv_pos_as_xyz
  x,y,z
_cell_length_a	25.639242
_cell_length_b	21.295417
_cell_length_c	21.295412
_cell_angle_alpha	90.027661
_cell_angle_beta	90.026311
_cell_angle_gamma	90.022517
loop_
_atom_site_label
_atom_site_type_symbol
_atom_site_fract_x
_atom_site_fract_y
_atom_site_fract_z
Zn1	Zn	-0.799280	0.250711	-0.356092
Zn2	Zn	-0.799215	0.355981	-0.250824
Zn3	Zn	-0.711852	0.250719	-0.250819
Zn4	Zn	-0.711818	0.355937	-0.356038
O5	O	-0.755541	0.303337	-0.303444
O6	O	-0.872437	0.264690	-0.342153
O7	O	-0.787614	0.342039	-0.162734
O8	O	-0.723490	0.162629	-0.264805
O9	O	-0.872389	0.342031	-0.264813
O10	O	-0.787724	0.162623	-0.342149
O11	O	-0.723428	0.264704	-0.162731
O12	O	-0.638682	0.264662	-0.264752
O13	O	-0.723433	0.341957	-0.444135
O14	O	-0.638657	0.341965	-0.342056
O15	O	-0.787691	0.264648	-0.444175
O16	O	-0.787581	0.444064	-0.264760
O17	O	-0.723370	0.444032	-0.342060
C18	C	-0.619699	0.303310	-0.303398
C19	C	-0.561585	0.303313	-0.303393
C20	C	-0.310395	0.263016	-0.263245
C21	C	-0.365000	0.263011	-0.263239
O22	O	-0.393240	0.228713	-0.229077
N23	N	-0.392311	0.303320	-0.303419
C24	C	-0.365015	0.343634	-0.343611
O25	O	-0.393259	0.377919	-0.377787
C26	C	-0.310411	0.343635	-0.343620
C27	C	-0.283103	0.303328	-0.303433
C28	C	-0.283087	0.222711	-0.223062
C29	C	-0.228486	0.222718	-0.223068
C30	C	-0.201194	0.263029	-0.263256
C31	C	-0.228503	0.303334	-0.303439
C32	C	-0.283116	0.383945	-0.383815
C33	C	-0.228509	0.383943	-0.383821
C34	C	-0.201201	0.343635	-0.343634
C35	C	-0.146610	0.343652	-0.343632
N36	N	-0.119299	0.303343	-0.303453
C37	C	-0.146591	0.263031	-0.263265
C38	C	-0.479685	0.343626	-0.343591
C39	C	-0.534288	0.343627	-0.343579
C40	C	-0.534269	0.263003	-0.263208
C41	C	-0.479666	0.263005	-0.263216
C42	C	-0.452374	0.303316	-0.303411
C43	C	-0.031926	0.263048	-0.263279
C44	C	0.022679	0.263060	-0.263286
C45	C	0.022656	0.343681	-0.343659
C46	C	-0.031945	0.343672	-0.343650
C47	C	-0.059234	0.303350	-0.303458
O48	O	-0.118335	0.377931	-0.377779
O49	O	-0.118340	0.228745	-0.229101
C50	C	-0.755479	0.466889	-0.303419
C51	C	-0.755500	0.536857	-0.303429
C52	C	0.108086	0.303364	-0.303481
C53	C	0.049972	0.303372	-0.303474
C54	C	-0.789096	1.036311	-0.263318
C55	C	-0.789077	0.970568	-0.263301
C56	C	-0.755611	0.937696	-0.303508
C57	C	-0.722152	0.970572	-0.343723
C58	C	-0.722169	1.036313	-0.343734
N59	N	-0.751544	0.834444	-0.358587
N60	N	-0.751531	0.771992	-0.358574
C61	C	-0.755558	0.739621	-0.303475
N62	N	-0.759607	0.772061	-0.248388
N63	N	-0.759623	0.834519	-0.248401
C64	C	-0.755589	0.866411	-0.303500
C65	C	-0.788990	0.635468	-0.263241
C66	C	-0.788967	0.569724	-0.263223
C67	C	-0.722045	0.569730	-0.343650
C68	C	-0.722066	0.635472	-0.343663
C69	C	-0.755541	0.668337	-0.303459
C70	C	-0.755565	0.303296	-0.467634
C71	C	-0.755576	0.303279	-0.537602
C72	C	-0.755616	1.139147	-0.303490
C73	C	-0.755644	1.069179	-0.303531
C74	C	-0.789084	0.262925	-1.037082
C75	C	-0.789080	0.262940	-0.971340
C76	C	-0.755621	0.303196	-0.938442
C77	C	-0.722173	0.343451	-0.971292
C78	C	-0.722181	0.343439	-1.037033
N79	N	-0.709839	0.308035	-0.835204
N80	N	-0.709832	0.308042	-0.772752
C81	C	-0.755594	0.303235	-0.740367
N82	N	-0.801363	0.298408	-0.772792
N83	N	-0.801370	0.298397	-0.835249
C84	C	-0.755608	0.303214	-0.867156
C85	C	-0.789038	0.263002	-0.636239
C86	C	-0.789035	0.263022	-0.570495
C87	C	-0.722122	0.343530	-0.570449
C88	C	-0.722130	0.343513	-0.636191
C89	C	-0.755587	0.303246	-0.669083
C90	C	-0.755547	0.303332	-0.139892
C91	C	-0.755638	0.303172	-0.069924
H92	H	-0.206257	0.189895	-0.190344
H93	H	0.044911	0.230236	-0.230559
H94	H	-0.305303	0.189881	-0.190336
Cl95	Cl	-0.066276	0.394352	-0.394164
H96	H	0.044887	0.376504	-0.376377
Cl97	Cl	-0.831069	0.676787	-0.212696
H98	H	-0.816319	0.943802	-0.230555
Cl99	Cl	-0.680080	0.394112	-0.677481
Cl100	Cl	-0.831088	0.212424	-0.529207
Cl101	Cl	-0.831178	1.077623	-0.212774
H102	H	-0.816280	0.230214	-0.663021
H103	H	-0.694881	0.376309	-0.543664
Cl104	Cl	-0.445341	0.212330	-0.212696
Cl105	Cl	-0.831026	0.528403	-0.212665
H106	H	-0.054139	0.230211	-0.230553
H107	H	-0.556500	0.230178	-0.230485
Cl108	Cl	-0.680112	1.077636	-0.394293
Cl109	Cl	-0.680014	0.676794	-0.394225
Cl110	Cl	-0.568611	0.394311	-0.394093
Cl111	Cl	-0.445382	0.394313	-0.394121
Cl112	Cl	-0.680079	0.929249	-0.394267
H113	H	-0.305342	0.416768	-0.416539
Cl114	Cl	-0.194204	0.434622	-0.434356
H115	H	-0.694794	0.542966	-0.376385
H116	H	-0.816330	0.230139	-1.063858
H117	H	-0.816316	0.230163	-0.944594
H118	H	-0.694931	0.376229	-0.944502
Cl119	Cl	-0.680131	0.394040	-1.078323
