data_functionalizedCrystal
_audit_creation_method	'MofGen! by Chris Wilmer'
_symmetry_space_group_name_H-M	'P1'
_symmetry_Int_Tables_number	1
_symmetry_cell_setting	triclinic
loop_
_symmetry_equiv_pos_as_xyz
  x,y,z
_cell_length_a	19.805407
_cell_length_b	16.625546
_cell_length_c	19.805398
_cell_angle_alpha	89.973797
_cell_angle_beta	89.984135
_cell_angle_gamma	90.022468
loop_
_atom_site_label
_atom_site_type_symbol
_atom_site_fract_x
_atom_site_fract_y
_atom_site_fract_z
Zn1	Zn	1.034729	-0.321034	-0.382718
Zn2	Zn	1.284729	-0.071034	-0.132718
Zn3	Zn	1.534729	0.178966	0.117282
Zn4	Zn	1.784729	0.428966	0.367282
Zn5	Zn	1.034659	-0.455867	-0.269529
Zn6	Zn	1.284659	-0.205867	-0.019529
Zn7	Zn	1.534659	0.044133	0.230471
Zn8	Zn	1.784659	0.294133	0.480471
Zn9	Zn	0.921551	-0.321052	-0.269543
Zn10	Zn	1.171551	-0.071052	-0.019543
Zn11	Zn	1.421551	0.178948	0.230457
Zn12	Zn	1.671551	0.428948	0.480457
Zn13	Zn	0.921515	-0.455828	-0.382676
Zn14	Zn	1.171515	-0.205828	-0.132676
Zn15	Zn	1.421515	0.044172	0.117324
Zn16	Zn	1.671515	0.294172	0.367324
O17	O	0.978114	-0.388445	-0.326117
O18	O	1.228114	-0.138445	-0.076117
O19	O	1.478114	0.111555	0.173883
O20	O	1.728114	0.361555	0.423883
O21	O	1.129437	-0.338928	-0.367716
O22	O	1.379437	-0.088928	-0.117716
O23	O	1.629437	0.161072	0.132284
O24	O	1.879437	0.411072	0.382284
O25	O	1.019641	-0.438007	-0.174815
O26	O	1.269641	-0.188007	0.075185
O27	O	1.519641	0.061993	0.325185
O28	O	1.769641	0.311993	0.575185
O29	O	0.936609	-0.208217	-0.284579
O30	O	1.186609	0.041783	-0.034579
O31	O	1.436609	0.291783	0.215421
O32	O	1.686609	0.541783	0.465421
O33	O	1.129385	-0.437990	-0.284556
O34	O	1.379385	-0.187990	-0.034556
O35	O	1.629385	0.062010	0.215444
O36	O	1.879385	0.312010	0.465444
O37	O	1.019761	-0.208204	-0.367729
O38	O	1.269761	0.041796	-0.117729
O39	O	1.519761	0.291796	0.132271
O40	O	1.769761	0.541796	0.382271
O41	O	0.936541	-0.338959	-0.174825
O42	O	1.186541	-0.088959	0.075175
O43	O	1.436541	0.161041	0.325175
O44	O	1.686541	0.411041	0.575175
O45	O	0.826830	-0.338922	-0.284538
O46	O	1.076830	-0.088922	-0.034538
O47	O	1.326830	0.161078	0.215462
O48	O	1.576830	0.411078	0.465462
O49	O	0.936548	-0.437923	-0.477398
O50	O	1.186548	-0.187923	-0.227398
O51	O	1.436548	0.062077	0.022602
O52	O	1.686548	0.312077	0.272602
O53	O	0.826804	-0.437941	-0.367657
O54	O	1.076804	-0.187941	-0.117657
O55	O	1.326804	0.062059	0.132343
O56	O	1.576804	0.312059	0.382343
O57	O	1.019726	-0.338890	-0.477429
O58	O	1.269726	-0.088890	-0.227429
O59	O	1.519726	0.161110	0.022571
O60	O	1.769726	0.411110	0.272571
O61	O	1.019606	-0.568694	-0.284515
O62	O	1.269606	-0.318694	-0.034515
O63	O	1.519606	-0.068694	0.215485
O64	O	1.769606	0.181306	0.465485
O65	O	0.936480	-0.568665	-0.367644
O66	O	1.186480	-0.318665	-0.117644
O67	O	1.436480	-0.068665	0.132356
O68	O	1.686480	0.181335	0.382356
C69	C	0.802258	-0.388430	-0.326095
C70	C	1.052258	-0.138430	-0.076095
C71	C	1.302258	0.111570	0.173905
C72	C	1.552258	0.361570	0.423905
C73	C	0.727026	-0.388442	-0.326102
C74	C	0.977026	-0.138442	-0.076102
C75	C	1.227026	0.111558	0.173898
C76	C	1.477026	0.361558	0.423898
C77	C	0.691686	-0.440079	-0.369311
C78	C	0.941686	-0.190079	-0.119311
C79	C	1.191686	0.059921	0.130689
C80	C	1.441686	0.309921	0.380689
C81	C	0.620997	-0.440081	-0.369321
C82	C	0.870997	-0.190081	-0.119321
C83	C	1.120997	0.059919	0.130679
C84	C	1.370997	0.309919	0.380679
C85	C	0.585650	-0.388449	-0.326117
C86	C	0.835650	-0.138449	-0.076117
C87	C	1.085650	0.111551	0.173883
C88	C	1.335650	0.361551	0.423883
C89	C	0.620995	-0.336806	-0.282905
C90	C	0.870995	-0.086806	-0.032905
C91	C	1.120995	0.163194	0.217095
C92	C	1.370995	0.413194	0.467095
C93	C	0.691683	-0.336801	-0.282899
C94	C	0.941683	-0.086801	-0.032899
C95	C	1.191683	0.163199	0.217101
C96	C	1.441683	0.413199	0.467101
C97	C	0.335922	-0.336824	-0.282927
C98	C	0.585922	-0.086824	-0.032927
C99	C	0.835922	0.163176	0.217073
C100	C	1.085922	0.413176	0.467073
C101	C	0.265230	-0.336834	-0.282935
C102	C	0.515230	-0.086834	-0.032935
C103	C	0.765230	0.163166	0.217065
C104	C	1.015230	0.413166	0.467065
C105	C	0.265237	-0.440104	-0.369349
C106	C	0.515237	-0.190104	-0.119349
C107	C	0.765237	0.059896	0.130651
C108	C	1.015237	0.309896	0.380651
C109	C	0.335924	-0.440099	-0.369343
C110	C	0.585924	-0.190099	-0.119343
C111	C	0.835924	0.059901	0.130657
C112	C	1.085924	0.309901	0.380657
C113	C	0.371263	-0.388453	-0.326134
C114	C	0.621263	-0.138453	-0.076134
C115	C	0.871263	0.111547	0.173866
C116	C	1.121263	0.361547	0.423866
C117	C	0.447911	-0.388451	-0.326125
C118	C	0.697911	-0.138451	-0.076125
C119	C	0.947911	0.111549	0.173875
C120	C	1.197911	0.361549	0.423875
C121	C	0.509003	-0.388454	-0.326122
C122	C	0.759003	-0.138454	-0.076122
C123	C	1.009003	0.111546	0.173878
C124	C	1.259003	0.361546	0.423878
C125	C	0.978050	-0.597936	-0.326088
C126	C	1.228050	-0.347936	-0.076088
C127	C	1.478050	-0.097936	0.173912
C128	C	1.728050	0.152064	0.423912
C129	C	0.978084	-0.687557	-0.326099
C130	C	1.228084	-0.437557	-0.076099
C131	C	1.478084	-0.187557	0.173901
C132	C	1.728084	0.062443	0.423901
C133	C	0.978202	-1.015733	-0.326169
C134	C	1.228202	-0.765733	-0.076169
C135	C	1.478202	-0.515733	0.173831
C136	C	1.728202	-0.265733	0.423831
C137	C	0.978167	-0.924424	-0.326152
C138	C	1.228167	-0.674424	-0.076152
C139	C	1.478167	-0.424424	0.173848
C140	C	1.728167	-0.174424	0.423848
C141	C	0.978143	-0.851648	-0.326134
C142	C	1.228143	-0.601648	-0.076134
C143	C	1.478143	-0.351648	0.173866
C144	C	1.728143	-0.101648	0.423866
C145	C	0.978109	-0.760333	-0.326117
C146	C	1.228109	-0.510333	-0.076117
C147	C	1.478109	-0.260333	0.173883
C148	C	1.728109	-0.010333	0.423883
C149	C	1.154657	-0.388461	-0.326139
C150	C	1.404657	-0.138461	-0.076139
C151	C	1.654657	0.111539	0.173861
C152	C	1.904657	0.361539	0.423861
C153	C	1.229889	-0.388468	-0.326149
C154	C	1.479889	-0.138468	-0.076149
C155	C	1.729889	0.111532	0.173851
C156	C	1.979889	0.361532	0.423851
C157	C	0.978140	-0.388400	-0.502660
C158	C	1.228140	-0.138400	-0.252660
C159	C	1.478140	0.111600	-0.002660
C160	C	1.728140	0.361600	0.247340
C161	C	0.978152	-0.388381	-0.577892
C162	C	1.228152	-0.138381	-0.327892
C163	C	1.478152	0.111619	-0.077892
C164	C	1.728152	0.361619	0.172108
C165	C	0.978197	-0.178136	-0.326160
C166	C	1.228197	0.071864	-0.076160
C167	C	1.478197	0.321864	0.173840
C168	C	1.728197	0.571864	0.423840
C169	C	0.978232	-0.088515	-0.326178
C170	C	1.228232	0.161485	-0.076178
C171	C	1.478232	0.411485	0.173822
C172	C	1.728232	0.661485	0.423822
C173	C	1.021544	-0.336672	-1.039700
C174	C	1.271544	-0.086672	-0.789700
C175	C	1.521544	0.163328	-0.539700
C176	C	1.771544	0.413328	-0.289700
C177	C	1.021533	-0.336697	-0.969012
C178	C	1.271533	-0.086697	-0.719012
C179	C	1.521533	0.163303	-0.469012
C180	C	1.771533	0.413303	-0.219012
C181	C	0.978221	-0.388269	-0.933653
C182	C	1.228221	-0.138269	-0.683653
C183	C	1.478221	0.111731	-0.433653
C184	C	1.728221	0.361731	-0.183653
C185	C	0.934921	-0.439826	-0.968988
C186	C	1.184921	-0.189826	-0.718988
C187	C	1.434921	0.060174	-0.468988
C188	C	1.684921	0.310174	-0.218988
C189	C	0.934936	-0.439805	-1.039675
C190	C	1.184936	-0.189805	-0.789675
C191	C	1.434936	0.060195	-0.539675
C192	C	1.684936	0.310195	-0.289675
C193	C	0.934863	-0.439913	-0.683914
C194	C	1.184863	-0.189913	-0.433914
C195	C	1.434863	0.060087	-0.183914
C196	C	1.684863	0.310087	0.066086
C197	C	0.934850	-0.439929	-0.613222
C198	C	1.184850	-0.189929	-0.363222
C199	C	1.434850	0.060071	-0.113222
C200	C	1.684850	0.310071	0.136778
C201	C	1.021460	-0.336806	-0.613251
C202	C	1.271460	-0.086806	-0.363251
C203	C	1.521460	0.163194	-0.113251
C204	C	1.771460	0.413194	0.136749
C205	C	1.021475	-0.336784	-0.683938
C206	C	1.271475	-0.086784	-0.433938
C207	C	1.521475	0.163216	-0.183938
C208	C	1.771475	0.413216	0.066062
C209	C	0.978178	-0.388344	-0.719266
C210	C	1.228178	-0.138344	-0.469266
C211	C	1.478178	0.111656	-0.219266
C212	C	1.728178	0.361656	0.030734
C213	C	0.978191	-0.388317	-0.795914
C214	C	1.228191	-0.138317	-0.545914
C215	C	1.478191	0.111683	-0.295914
C216	C	1.728191	0.361683	-0.045914
C217	C	0.978204	-0.388292	-0.857006
C218	C	1.228204	-0.138292	-0.607006
C219	C	1.478204	0.111708	-0.357006
C220	C	1.728204	0.361708	-0.107006
C221	C	0.978126	-0.388431	-0.150261
C222	C	1.228126	-0.138431	0.099739
C223	C	1.478126	0.111569	0.349739
C224	C	1.728126	0.361569	0.599739
C225	C	0.978246	-0.388223	-0.075029
C226	C	1.228246	-0.138223	0.174971
C227	C	1.478246	0.111777	0.424971
C228	C	1.728246	0.361777	0.674971
H229	H	0.592210	-0.294763	-0.247730
H230	H	0.842210	-0.044763	0.002270
H231	H	1.092210	0.205237	0.252270
H232	H	1.342210	0.455237	0.502270
H233	H	1.056741	-0.294786	-0.712723
H234	H	1.306741	-0.044786	-0.462723
H235	H	1.556741	0.205214	-0.212723
H236	H	1.806741	0.455214	0.037277
H237	H	0.720456	-0.294749	-0.247717
H238	H	0.970456	-0.044749	0.002283
H239	H	1.220456	0.205251	0.252283
H240	H	1.470456	0.455251	0.502283
H241	H	1.056810	-0.294671	-1.068483
H242	H	1.306810	-0.044671	-0.818483
H243	H	1.556810	0.205329	-0.568483
H244	H	1.806810	0.455329	-0.318483
H245	H	1.056716	-0.294826	-0.584478
H246	H	1.306716	-0.044826	-0.334478
H247	H	1.556716	0.205174	-0.084478
H248	H	1.806716	0.455174	0.165522
H249	H	0.720460	-0.482127	-0.404491
H250	H	0.970460	-0.232127	-0.154491
H251	H	1.220460	0.017873	0.095509
H252	H	1.470460	0.267873	0.345509
H253	H	0.364700	-0.482146	-0.404522
H254	H	0.614700	-0.232146	-0.154522
H255	H	0.864700	0.017854	0.095478
H256	H	1.114700	0.267854	0.345478
H257	H	0.592226	-0.482130	-0.404506
H258	H	0.842226	-0.232130	-0.154506
H259	H	1.092226	0.017870	0.095494
H260	H	1.342226	0.267870	0.345494
H261	H	1.056793	-0.294721	-0.940250
H262	H	1.306793	-0.044721	-0.690250
H263	H	1.556793	0.205279	-0.440250
H264	H	1.806793	0.455279	-0.190250
H265	H	0.899659	-0.481821	-0.940193
H266	H	1.149659	-0.231821	-0.690193
H267	H	1.399659	0.018179	-0.440193
H268	H	1.649659	0.268179	-0.190193
H269	H	0.899575	-0.481925	-0.584435
H270	H	1.149575	-0.231925	-0.334435
H271	H	1.399575	0.018075	-0.084435
H272	H	1.649575	0.268075	0.165565
H273	H	0.899679	-0.481784	-1.068439
H274	H	1.149679	-0.231784	-0.818439
H275	H	1.399679	0.018216	-0.568439
H276	H	1.649679	0.268216	-0.318439
H277	H	0.236455	-0.482153	-0.404534
H278	H	0.486455	-0.232153	-0.154534
H279	H	0.736455	0.017847	0.095466
H280	H	0.986455	0.267847	0.345466
H281	H	0.899607	-0.481895	-0.712670
H282	H	1.149607	-0.231895	-0.462670
H283	H	1.399607	0.018105	-0.212670
H284	H	1.649607	0.268105	0.037330
H285	H	0.236453	-0.294784	-0.247753
H286	H	0.486453	-0.044784	0.002247
H287	H	0.736453	0.205216	0.252247
H288	H	0.986453	0.455216	0.502247
H289	H	0.364687	-0.294777	-0.247739
H290	H	0.614687	-0.044777	0.002261
H291	H	0.864687	0.205223	0.252261
H292	H	1.114687	0.455223	0.502261
