data_functionalizedCrystal
_audit_creation_method	'MofGen! by Chris Wilmer'
_symmetry_space_group_name_H-M	'P1'
_symmetry_Int_Tables_number	1
_symmetry_cell_setting	triclinic
loop_
_symmetry_equiv_pos_as_xyz
  x,y,z
_cell_length_a	10.540539
_cell_length_b	10.654550
_cell_length_c	9.730223
_cell_angle_alpha	89.999957
_cell_angle_beta	90.002267
_cell_angle_gamma	95.494789
loop_
_atom_site_label
_atom_site_type_symbol
_atom_site_fract_x
_atom_site_fract_y
_atom_site_fract_z
O1	O	0.178301	-1.667902	0.114180
O2	O	0.195288	-1.302429	0.114205
O3	O	0.002085	-1.493504	0.114190
O4	O	0.371504	-1.476827	0.114195
O5	O	0.002079	-1.493491	-0.114390
O6	O	0.195282	-1.302417	-0.114375
O7	O	0.178295	-1.667889	-0.114400
Zn8	Zn	0.186788	-1.485151	-0.150679
Zn9	Zn	0.186795	-1.485167	0.150484
O10	O	0.371498	-1.476815	-0.114385
C11	C	0.194038	-1.255625	-0.000082
C12	C	0.190306	-1.116180	-0.000072
C13	C	-0.045221	-1.492247	-0.000097
C14	C	-0.186167	-1.488505	-0.000090
C15	C	0.179545	-1.714694	-0.000110
C16	C	0.183277	-1.854139	-0.000110
C17	C	-0.369543	-1.345134	0.000433
C18	C	-0.222926	-1.348927	-0.000082
C19	C	-0.247852	-1.555670	-0.130624
C20	C	-0.394395	-1.550906	-0.130734
C21	C	-0.394908	-1.553759	0.129204
C22	C	-0.247927	-1.555044	0.130930
C23	C	0.418804	-1.478072	-0.000095
C24	C	0.559750	-1.481813	-0.000093
N25	N	0.186782	-1.485149	-0.356216
C26	C	0.304061	-1.036735	-0.000075
C27	C	0.300547	-0.905712	-0.000099
C28	C	0.069513	-0.933594	-0.000112
C29	C	0.073029	-1.064614	-0.000098
C30	C	0.101269	-1.569786	-0.428148
C31	C	0.101269	-1.569799	-0.572031
C32	C	0.272309	-1.400533	-0.572037
C33	C	0.272301	-1.400516	-0.428156
N34	N	0.186791	-1.485179	0.356021
H35	H	-0.180301	-1.296078	0.093491
H36	H	0.341938	-1.331628	-0.630625
F37	F	0.010251	-1.659878	-0.648582
F38	F	0.010249	-1.659857	-0.351589
F39	F	0.363316	-1.310424	-0.351595
H40	H	-0.398121	-1.290002	0.094042
H41	H	-0.019610	-1.129302	-0.000100
H42	H	-0.223742	-1.656808	0.138805
H43	H	-0.181153	-1.295697	-0.093803
H44	H	-0.399732	-1.290216	-0.092644
H45	H	-0.422579	-1.501258	-0.228305
F46	F	0.421621	-0.821165	-0.000104
F47	F	-0.457144	-1.682110	-0.138497
F48	F	-0.218685	-1.689648	-0.136982
H49	H	-0.205238	-1.509003	-0.227758
H50	H	-0.426442	-1.508590	0.228141
F51	F	-0.193901	-1.491314	0.257168
H52	H	0.399556	-1.078715	-0.000064
F53	F	-0.456684	-1.685532	0.130346
F54	F	-0.055295	-0.878702	-0.000133
