data_functionalizedCrystal
_audit_creation_method	'MofGen! by Chris Wilmer'
_symmetry_space_group_name_H-M	'P1'
_symmetry_Int_Tables_number	1
_symmetry_cell_setting	triclinic
loop_
_symmetry_equiv_pos_as_xyz
  x,y,z
_cell_length_a	12.784905
_cell_length_b	12.837942
_cell_length_c	9.730223
_cell_angle_alpha	89.996108
_cell_angle_beta	89.996104
_cell_angle_gamma	83.968130
loop_
_atom_site_label
_atom_site_type_symbol
_atom_site_fract_x
_atom_site_fract_y
_atom_site_fract_z
O1	O	1.410965	0.006436	-0.114298
O2	O	1.910965	0.506436	0.385702
O3	O	1.105966	0.050428	-0.114299
O4	O	1.605966	0.550428	0.385701
O5	O	1.251702	-0.121861	-0.114290
O6	O	1.751702	0.378139	0.385710
O7	O	1.265228	0.178725	-0.114307
O8	O	1.765228	0.678725	0.385693
O9	O	1.251691	-0.121865	0.114290
O10	O	1.751691	0.378135	0.614290
O11	O	1.105955	0.050425	0.114281
O12	O	1.605955	0.550425	0.614281
O13	O	1.410954	0.006432	0.114282
O14	O	1.910954	0.506432	0.614282
Zn15	Zn	1.258453	0.028428	0.150574
Zn16	Zn	1.758453	0.528428	0.650574
Zn17	Zn	1.258467	0.028432	-0.150590
Zn18	Zn	1.758467	0.528432	0.349410
O19	O	1.265218	0.178722	0.114273
O20	O	1.765218	0.678722	0.614273
C21	C	1.066651	0.053288	-0.000009
C22	C	1.566651	0.553288	0.499991
C23	C	0.949519	0.061801	-0.000009
C24	C	1.449519	0.561801	0.499991
C25	C	1.247128	-0.160072	-0.000001
C26	C	1.747128	0.339928	0.499999
C27	C	1.233500	-0.273920	-0.000003
C28	C	1.733500	0.226080	0.499997
C29	C	0.735568	-0.111642	-0.000024
C30	C	1.235568	0.388358	0.499976
C31	C	0.625513	-0.103648	-0.000024
C32	C	1.125513	0.396352	0.499976
C33	C	0.619351	0.085781	-0.000019
C34	C	1.119351	0.585781	0.499981
C35	C	0.729407	0.077787	-0.000019
C36	C	1.229407	0.577787	0.499981
C37	C	0.787511	-0.020928	-0.000019
C38	C	1.287511	0.479072	0.499981
C39	C	0.897569	-0.028921	-0.000009
C40	C	1.397569	0.471079	0.499991
C41	C	0.891405	0.160508	-0.000015
C42	C	1.391405	0.660508	0.499985
C43	C	0.781350	0.168502	-0.000015
C44	C	1.281350	0.668502	0.499985
C45	C	1.397331	-0.529646	-0.000031
C46	C	1.897331	-0.029646	0.499969
C47	C	1.384532	-0.636618	-0.000034
C48	C	1.884532	-0.136618	0.499966
C49	C	1.195102	-0.594839	-0.000020
C50	C	1.695102	-0.094839	0.499980
C51	C	1.207901	-0.487867	-0.000017
C52	C	1.707901	0.012133	0.499983
C53	C	1.309019	-0.455275	-0.000021
C54	C	1.809019	0.044725	0.499979
C55	C	1.321818	-0.348301	-0.000009
C56	C	1.821818	0.151699	0.499991
C57	C	1.132389	-0.306523	-0.000005
C58	C	1.632389	0.193477	0.499995
C59	C	1.119589	-0.413495	-0.000007
C60	C	1.619589	0.086505	0.499993
C61	C	1.450269	0.003573	-0.000011
C62	C	1.950269	0.503573	0.499989
C63	C	1.567401	-0.004940	-0.000020
C64	C	2.067401	0.495060	0.499980
C65	C	1.269792	0.216932	-0.000019
C66	C	1.769792	0.716932	0.499981
C67	C	1.283420	0.330781	-0.000026
C68	C	1.783420	0.830781	0.499974
N69	N	1.258451	0.028424	0.356110
N70	N	1.758451	0.528424	0.856110
N71	N	1.258477	0.028428	-0.356127
N72	N	1.758477	0.528428	0.143873
C73	C	1.323010	-0.047839	0.428040
C74	C	1.823010	0.452161	0.928040
C75	C	1.323021	-0.047839	0.571923
C76	C	1.823021	0.452161	1.071923
C77	C	1.193910	0.104695	0.571933
C78	C	1.693910	0.604695	1.071933
C79	C	1.193895	0.104690	0.428053
C80	C	1.693895	0.604690	0.928053
H81	H	0.944876	-0.109300	-0.000007
H82	H	1.444876	0.390700	0.499993
F83	F	0.946694	0.257059	0.000008
F84	F	1.446694	0.757059	0.500008
H85	H	1.456445	-0.697169	-0.000046
H86	H	1.956445	-0.197169	0.499954
H87	H	1.375589	-0.109940	0.630484
H88	H	1.875589	0.390060	1.130484
H89	H	0.782878	-0.192020	-0.000015
H90	H	1.282878	0.307980	0.499985
H91	H	1.037262	-0.440047	-0.000010
H92	H	1.537262	0.059953	0.499990
F93	F	1.391714	-0.129010	0.351478
F94	F	1.891714	0.370990	0.851478
F95	F	0.570235	-0.200199	-0.000033
F96	F	1.070235	0.299801	0.499967
F97	F	0.557495	0.190832	-0.000046
F98	F	1.057495	0.690832	0.499954
F99	F	0.719499	0.273555	-0.000023
F100	F	1.219499	0.773555	0.499977
F101	F	1.125211	0.185861	0.648510
F102	F	1.625211	0.685861	1.148510
H103	H	1.060479	-0.245957	0.000014
H104	H	1.560479	0.254043	0.500014
F105	F	1.429435	-0.313616	-0.000004
F106	F	1.929435	0.186384	0.499996
H107	H	1.141318	0.166793	0.369484
H108	H	1.641318	0.666793	0.869484
H109	H	1.479665	-0.503110	-0.000021
H110	H	1.979665	-0.003110	0.499979
H111	H	1.112776	-0.621395	-0.000032
H112	H	1.612776	-0.121395	0.499968
