data_functionalizedCrystal
_audit_creation_method	'MofGen! by Chris Wilmer'
_symmetry_space_group_name_H-M	'P1'
_symmetry_Int_Tables_number	1
_symmetry_cell_setting	triclinic
loop_
_symmetry_equiv_pos_as_xyz
  x,y,z
_cell_length_a	9.016244
_cell_length_b	10.723024
_cell_length_c	10.723024
_cell_angle_alpha	84.467869
_cell_angle_beta	89.998964
_cell_angle_gamma	89.992945
loop_
_atom_site_label
_atom_site_type_symbol
_atom_site_fract_x
_atom_site_fract_y
_atom_site_fract_z
O1	O	0.123327	-1.657194	-0.175022
O2	O	0.123331	-1.294042	-0.191775
O3	O	0.123323	-1.483995	-0.001823
O4	O	0.123335	-1.467241	-0.364975
O5	O	-0.123357	-1.483967	-0.001827
O6	O	-0.123349	-1.294014	-0.191780
O7	O	-0.123354	-1.657166	-0.175026
Cu8	Cu	-0.145876	-1.475587	-0.183403
Cu9	Cu	0.145853	-1.475621	-0.183398
O10	O	-0.123346	-1.467213	-0.364979
C11	C	-0.000008	-1.247528	-0.190558
C12	C	-0.000007	-1.108974	-0.186911
C13	C	-0.000015	-1.482762	0.044675
C14	C	-0.000010	-1.479114	0.183229
N15	N	-0.351062	-1.475573	-0.183406
C16	C	-0.586090	-1.373650	-0.284678
C17	C	-0.414199	-1.373875	-0.285057
C18	C	-0.413401	-1.606029	-0.212962
C19	C	-0.585346	-1.605473	-0.213680
C20	C	-0.585609	-1.448337	-0.052246
C21	C	-0.413655	-1.445343	-0.053098
N22	N	0.351039	-1.475645	-0.183386
C23	C	-0.000011	-1.703680	-0.176243
C24	C	-0.000003	-1.842234	-0.179891
C25	C	-0.000002	-1.033991	-0.293198
C26	C	-0.000001	-0.890788	-0.289431
C27	C	-0.000004	-1.468447	-0.411477
C28	C	0.000000	-1.472094	-0.550031
C29	C	-0.000009	-1.585401	0.258212
C30	C	-0.000004	-1.581634	0.401415
H31	H	-0.372054	-1.276941	-0.267282
H32	H	-0.373050	-1.391421	-0.382352
H33	H	-0.629056	-1.355222	-0.024100
Br34	Br	-0.000028	-1.039282	-0.030585
H35	H	-0.000008	-1.075814	-0.386984
Br36	Br	-0.653366	-1.572285	0.073412
H37	H	0.000009	-0.826355	-0.380421
Br38	Br	0.000004	-1.741727	0.188520
Br39	Br	-0.000021	-1.733301	0.508799
H40	H	0.000003	-0.906659	-0.088896
H41	H	-0.370682	-1.514713	0.025895
Br42	Br	-0.000019	-1.320422	0.342592
H43	H	0.000001	-1.385328	0.225051
Br44	Br	-0.655036	-1.211566	-0.255490
Br45	Br	-0.658042	-1.402525	-0.445934
H46	H	-0.372912	-1.349373	-0.030693
H47	H	-0.625432	-1.629365	-0.309353
H48	H	-0.372500	-1.683779	-0.141198
Br49	Br	-0.341601	-1.646752	-0.370621
Br50	Br	-0.654668	-1.735737	-0.095351
