data_functionalizedCrystal
_audit_creation_method	'MofGen! by Chris Wilmer'
_symmetry_space_group_name_H-M	'P1'
_symmetry_Int_Tables_number	1
_symmetry_cell_setting	triclinic
loop_
_symmetry_equiv_pos_as_xyz
  x,y,z
_cell_length_a	12.759401
_cell_length_b	12.594510
_cell_length_c	12.759400
_cell_angle_alpha	90.034761
_cell_angle_beta	89.986272
_cell_angle_gamma	89.982312
loop_
_atom_site_label
_atom_site_type_symbol
_atom_site_fract_x
_atom_site_fract_y
_atom_site_fract_z
Zn1	Zn	1.606246	-0.601760	0.418198
Zn2	Zn	1.606143	-0.423780	0.593927
Zn3	Zn	1.430551	-0.423799	0.418259
Zn4	Zn	1.430537	-0.601720	0.593833
O5	O	1.518369	-0.512765	0.506054
O6	O	1.753254	-0.578158	0.441522
O7	O	1.582814	-0.274836	0.570689
O8	O	1.453906	-0.447430	0.271230
O9	O	1.753178	-0.447397	0.570630
O10	O	1.582989	-0.578177	0.271185
O11	O	1.453807	-0.274851	0.441627
O12	O	1.283528	-0.447392	0.441536
O13	O	1.453882	-0.750672	0.570469
O14	O	1.283518	-0.578111	0.570529
O15	O	1.582975	-0.750700	0.441431
O16	O	1.582800	-0.447360	0.740935
O17	O	1.453783	-0.578092	0.740866
C18	C	1.245402	-0.512750	0.506029
C19	C	1.128625	-0.512769	0.506044
C20	C	1.073796	-0.580962	0.438945
C21	C	0.964072	-0.580968	0.438965
C22	C	0.964017	-0.444587	0.573193
C23	C	1.073739	-0.444575	0.573167
C24	C	1.073827	-0.659704	0.361453
C25	C	0.964103	-0.659711	0.361473
C26	C	1.518439	-0.790386	0.505933
C27	C	1.518468	-0.908691	0.505881
C28	C	1.588703	-0.977960	0.435692
C29	C	1.492881	-1.048757	0.409975
C30	C	1.614347	-1.048694	0.531525
C31	C	1.422595	-0.977930	0.480114
C32	C	1.544126	-0.977860	0.601709
C33	C	1.448237	-1.048625	0.576028
C34	C	1.792403	-0.512780	0.506080
C35	C	1.909179	-0.512787	0.506091
C36	C	1.518307	-0.512743	0.779022
C37	C	1.518377	-0.512769	0.895798
C38	C	1.518361	-0.236224	0.506099
C39	C	1.518535	-0.117919	0.505855
C40	C	1.518461	-0.512810	0.232021
C41	C	1.518500	-0.512830	0.115244
C42	C	1.585630	-0.444772	0.950661
C43	C	1.585695	-0.444804	1.060385
C44	C	1.451243	-0.580834	1.060373
C45	C	1.451184	-0.580806	0.950651
C46	C	1.663252	-0.366232	0.950669
C47	C	1.663317	-0.366265	1.060393
H48	H	0.919314	-0.389066	0.627842
N49	N	1.111162	-0.632193	0.259332
N50	N	1.047487	-0.612811	0.187405
H51	H	1.073854	-0.593383	0.115282
N52	N	1.716020	-1.087700	0.558766
N53	N	1.732126	-1.185462	0.563871
H54	H	1.803935	-1.213008	0.583103
N55	N	1.320886	-0.939092	0.452777
N56	N	1.304452	-0.841352	0.448342
H57	H	1.232622	-0.813918	0.429033
N58	N	1.116553	-0.757867	0.398124
N59	N	1.056796	-0.831389	0.425606
H60	H	1.086971	-0.900718	0.451508
N61	N	1.382495	-0.650285	0.894626
N62	N	1.322512	-0.711026	0.943617
H63	H	1.273998	-0.760101	0.904050
N64	N	1.663087	-0.939004	0.361207
N65	N	1.737697	-0.882216	0.390983
H66	H	1.790227	-0.854699	0.338378
N67	N	1.373671	-1.087299	0.650472
N68	N	1.278834	-1.064396	0.640847
H69	H	1.226168	-1.091710	0.693419
N70	N	0.921410	-0.622860	0.264463
N71	N	0.941999	-0.670702	0.181100
H72	H	0.911848	-0.644674	0.112587
N73	N	1.626690	-0.267975	0.908073
N74	N	1.547625	-0.266580	0.850265
H75	H	1.521789	-0.197188	0.820184
H76	H	1.740620	-0.395860	1.094337
N77	N	0.926792	-0.763075	0.388957
N78	N	0.950473	-0.802672	0.475584
H79	H	0.924123	-0.875671	0.494998
H80	H	1.565833	-0.946698	0.682738
N81	N	1.635925	-0.262871	1.097853
N82	N	1.616570	-0.189999	1.034265
H83	H	1.597176	-0.116992	1.060720
H84	H	1.118377	-0.389036	0.627795
H85	H	1.471202	-1.079899	0.328924
H86	H	1.396538	-0.636229	1.105048
H87	H	1.744595	-0.388370	0.920811
