data_functionalizedCrystal
_audit_creation_method	'MofGen! by Chris Wilmer'
_symmetry_space_group_name_H-M	'P1'
_symmetry_Int_Tables_number	1
_symmetry_cell_setting	triclinic
loop_
_symmetry_equiv_pos_as_xyz
  x,y,z
_cell_length_a	10.654556
_cell_length_b	12.811415
_cell_length_c	9.730223
_cell_angle_alpha	84.564740
_cell_angle_beta	89.998368
_cell_angle_gamma	84.264596
loop_
_atom_site_label
_atom_site_type_symbol
_atom_site_fract_x
_atom_site_fract_y
_atom_site_fract_z
O1	O	1.667068	0.147458	-0.132614
O2	O	1.301518	0.161497	-0.134377
O3	O	1.493490	0.001752	-0.114454
O4	O	1.475097	0.307203	-0.152537
O5	O	1.493477	0.001748	0.114126
O6	O	1.301506	0.161493	0.094203
O7	O	1.667056	0.147454	0.095967
Zn8	Zn	1.484279	0.154473	0.131377
Zn9	Zn	1.484295	0.154478	-0.169787
O10	O	1.475085	0.307199	0.076044
C11	C	1.254719	0.160463	-0.019960
C12	C	1.115293	0.157374	-0.019580
C13	C	1.492453	-0.037362	0.004709
C14	C	1.489366	-0.153903	0.019230
C15	C	0.918776	0.153029	-0.143627
C16	C	1.049784	0.155924	-0.143996
C17	C	1.049789	0.155919	0.105215
C18	C	0.918785	0.153016	0.105584
C19	C	1.483557	-0.372879	-0.202711
C20	C	1.480657	-0.482379	-0.189074
C21	C	1.480656	-0.482405	0.060140
C22	C	1.483557	-0.372905	0.046503
C23	C	1.485009	-0.318146	-0.084927
C24	C	1.487918	-0.208644	-0.098562
C25	C	1.487909	-0.208671	0.150650
C26	C	1.485008	-0.318171	0.164287
C27	C	1.713855	0.148488	-0.018453
C28	C	1.853282	0.151577	-0.018842
C29	C	1.476122	0.346313	-0.043123
C30	C	1.479208	0.462854	-0.057653
N31	N	1.484277	0.154468	0.336914
N32	N	1.484307	0.154475	-0.375323
C33	C	1.569311	0.083763	0.417658
C34	C	1.569323	0.083763	0.561541
C35	C	1.399264	0.225183	0.543922
C36	C	1.399246	0.225177	0.400042
H37	H	0.865447	0.151855	-0.244942
H38	H	1.638564	0.026188	0.627280
H39	H	1.330036	0.282754	0.595335
H40	H	1.638546	0.026186	0.366263
H41	H	1.103104	0.157105	-0.245609
H42	H	1.329996	0.282754	0.334296
H43	H	0.865458	0.151833	0.207205
C44	C	1.121853	0.157534	0.242066
C45	C	1.090050	0.248132	0.333544
C46	C	1.162114	0.249761	0.470394
C47	C	1.265982	0.160791	0.515766
C48	C	1.297790	0.070187	0.424286
C49	C	1.225726	0.068558	0.287436
H50	H	1.013157	0.313999	0.299959
H51	H	1.138567	0.316833	0.538113
H52	H	1.319328	0.161997	0.617070
H53	H	1.374684	0.004320	0.457871
H54	H	1.249273	0.001486	0.219717
H55	H	1.489104	-0.164061	-0.205579
H56	H	1.484750	-0.328294	-0.309726
H57	H	1.479464	-0.527008	0.167144
C58	C	1.479065	-0.542588	-0.318638
C59	C	1.585993	-0.628986	-0.342149
C60	C	1.584400	-0.689195	-0.471719
C61	C	1.475879	-0.663004	-0.577778
C62	C	1.368943	-0.576602	-0.554269
C63	C	1.370536	-0.516393	-0.424699
H64	H	1.666335	-0.648378	-0.263635
H65	H	1.663562	-0.753156	-0.489121
H66	H	1.474700	-0.707574	-0.673693
H67	H	1.288602	-0.557210	-0.632783
H68	H	1.291374	-0.452432	-0.407297
H69	H	1.483821	-0.362770	0.271293
H70	H	1.489096	-0.164096	0.246559
