data_functionalizedCrystal
_audit_creation_method	'MofGen! by Chris Wilmer'
_symmetry_space_group_name_H-M	'P1'
_symmetry_Int_Tables_number	1
_symmetry_cell_setting	triclinic
loop_
_symmetry_equiv_pos_as_xyz
  x,y,z
_cell_length_a	19.805407
_cell_length_b	14.908520
_cell_length_c	19.805399
_cell_angle_alpha	93.270609
_cell_angle_beta	89.980427
_cell_angle_gamma	93.320773
loop_
_atom_site_label
_atom_site_type_symbol
_atom_site_fract_x
_atom_site_fract_y
_atom_site_fract_z
Zn1	Zn	1.019204	-0.359181	-0.398269
Zn2	Zn	1.012594	-0.510047	-0.291612
Zn3	Zn	0.906017	-0.359206	-0.285095
Zn4	Zn	0.899460	-0.509999	-0.404757
O5	O	0.959319	-0.434608	-0.344934
O6	O	1.113043	-0.379203	-0.384134
O7	O	0.998435	-0.490068	-0.196033
O8	O	0.926542	-0.232958	-0.294665
O9	O	1.108187	-0.490044	-0.305773
O10	O	1.009699	-0.232939	-0.377814
O11	O	0.920133	-0.379246	-0.191244
O12	O	0.810431	-0.379199	-0.300956
O13	O	0.915366	-0.489962	-0.498612
O14	O	0.805614	-0.489986	-0.388871
O15	O	1.003341	-0.379157	-0.493845
O16	O	0.992077	-0.636286	-0.312064
O17	O	0.908957	-0.636250	-0.395191
C18	C	0.783463	-0.434591	-0.344911
C19	C	0.708231	-0.434605	-0.344918
C20	C	0.670392	-0.492379	-0.390629
C21	C	0.599704	-0.492380	-0.390639
C22	C	0.566855	-0.434612	-0.344934
C23	C	0.604699	-0.376832	-0.299220
C24	C	0.675386	-0.376827	-0.299214
C25	C	0.319625	-0.376852	-0.299244
C26	C	0.248932	-0.376864	-0.299252
C27	C	0.243942	-0.492406	-0.390668
C28	C	0.314629	-0.492400	-0.390662
C29	C	0.352467	-0.434618	-0.344952
C30	C	0.429116	-0.434615	-0.344943
C31	C	0.490208	-0.434618	-0.344939
C32	C	0.949107	-0.669002	-0.355053
C33	C	0.944800	-0.769277	-0.359405
C34	C	1.023348	-0.957679	-0.281093
C35	C	1.019304	-1.051896	-0.285180
C36	C	0.932671	-1.051929	-0.371669
C37	C	0.936715	-0.957712	-0.367582
C38	C	0.982055	-0.910590	-0.322292
C39	C	0.986095	-0.816372	-0.318202
C40	C	0.899466	-0.816407	-0.404694
C41	C	0.895421	-0.910624	-0.408781
C42	C	1.135861	-0.434626	-0.344957
C43	C	1.211092	-0.434634	-0.344967
C44	C	0.959359	-0.434551	-0.521474
C45	C	0.959376	-0.434527	-0.596705
C46	C	0.969589	-0.199299	-0.334789
C47	C	0.973966	-0.099024	-0.330466
C48	C	1.005186	-0.376828	-0.629568
C49	C	1.005194	-0.376802	-0.700255
C50	C	0.959395	-0.434480	-0.738078
C51	C	0.913581	-0.492182	-0.705210
C52	C	0.913570	-0.492203	-0.634524
C53	C	0.913622	-0.492098	-0.990280
C54	C	0.913638	-0.492074	-1.060971
C55	C	1.005247	-0.376697	-1.056011
C56	C	1.005236	-0.376718	-0.985325
C57	C	0.959419	-0.434416	-0.952463
C58	C	0.959410	-0.434442	-0.875816
C59	C	0.959407	-0.434459	-0.814725
C60	C	0.959320	-0.434600	-0.169077
C61	C	0.959445	-0.434370	-0.093836
H62	H	0.350424	-0.329809	-0.262018
H63	H	0.876288	-0.539141	-0.736011
O64	O	0.869170	-0.548228	-1.097643
C65	C	0.829638	-0.701675	-1.125912
C66	C	0.880020	-0.638185	-1.084332
H67	H	0.838401	-0.774419	-1.115176
H68	H	0.775736	-0.685898	-1.111313
H69	H	0.837509	-0.691705	-1.182073
H70	H	0.872210	-0.648120	-1.028161
H71	H	0.933903	-0.653978	-1.098988
H72	H	0.876260	-0.539178	-0.607768
O73	O	1.067423	-0.911802	-0.237187
C74	C	1.163406	-0.805369	-0.223548
C75	C	1.113527	-0.857249	-0.273345
H76	H	1.200703	-0.761265	-0.252763
H77	H	1.134281	-0.761264	-0.186226
H78	H	1.192190	-0.855229	-0.194786
H79	H	1.084730	-0.807455	-0.302154
H80	H	1.142691	-0.901368	-0.310624
O81	O	0.869209	-0.548194	-0.958299
C82	C	0.854752	-0.670069	-0.883788
C83	C	0.905129	-0.606579	-0.919953
H84	H	0.883774	-0.717302	-0.852789
H85	H	0.821165	-0.628710	-0.848863
H86	H	0.822015	-0.711241	-0.922984
H87	H	0.937910	-0.565393	-0.880805
H88	H	0.938669	-0.647989	-0.954891
H89	H	0.697132	-0.539423	-0.427846
H90	H	0.568898	-0.539426	-0.427861
H91	H	0.213126	-0.539452	-0.427890
O92	O	0.346432	-0.548545	-0.435126
C93	C	0.334019	-0.663184	-0.525779
C94	C	0.297918	-0.599634	-0.475469
H95	H	0.294811	-0.704520	-0.558400
H96	H	0.368908	-0.621865	-0.559479
H97	H	0.365069	-0.710260	-0.496666
H98	H	0.266832	-0.552545	-0.504527
H99	H	0.263070	-0.641010	-0.441769
O100	O	0.859278	-0.770804	-0.444744
C101	C	0.772945	-0.780784	-0.530983
C102	C	0.818409	-0.832540	-0.485661
H103	H	0.739900	-0.830675	-0.564085
H104	H	0.739418	-0.736771	-0.497991
H105	H	0.805900	-0.736578	-0.564459
H106	H	0.785506	-0.876794	-0.452177
H107	H	0.851940	-0.876496	-0.518693
O108	O	1.030041	-0.770554	-0.274137
C109	C	1.043779	-0.664203	-0.178176
C110	C	0.993932	-0.716047	-0.228025
H111	H	1.014605	-0.620107	-0.140891
H112	H	1.072589	-0.714005	-0.149383
H113	H	1.081056	-0.620066	-0.207388
H114	H	0.956613	-0.760186	-0.198865
H115	H	0.965171	-0.666196	-0.256819
H116	H	0.222189	-0.329817	-0.262033
H117	H	0.577948	-0.329793	-0.262009
O118	O	0.712041	-0.320682	-0.254742
C119	C	0.709537	-0.206046	-0.164089
C120	C	0.667944	-0.269601	-0.214407
H121	H	0.673902	-0.164717	-0.131474
H122	H	0.740798	-0.247359	-0.130383
H123	H	0.744713	-0.158963	-0.193195
H124	H	0.632730	-0.316697	-0.185355
H125	H	0.636728	-0.228231	-0.248112
O126	O	0.851395	-0.956541	-0.452714
C127	C	0.806797	-1.101701	-0.497370
C128	C	0.856677	-1.049816	-0.447576
H129	H	0.811060	-1.177123	-0.493243
H130	H	0.753002	-1.083319	-0.484627
H131	H	0.819435	-1.083064	-0.551144
H132	H	0.844101	-1.068425	-0.393785
H133	H	0.910457	-1.068203	-0.460378
H134	H	1.052931	-1.090232	-0.251633
H135	H	0.895762	-1.090312	-0.408547
O136	O	1.049702	-0.320714	-0.592931
C137	C	1.140594	-0.206303	-0.595481
C138	C	1.090207	-0.269796	-0.637052
H139	H	1.173364	-0.165133	-0.631136
H140	H	1.111608	-0.159076	-0.560364
H141	H	1.174143	-0.247749	-0.564163
H142	H	1.056644	-0.228422	-0.668410
H143	H	1.119234	-0.317024	-0.672126
H144	H	1.042499	-0.329820	-0.727009
O145	O	1.049750	-0.320604	-0.948686
C146	C	1.140641	-0.206191	-0.951229
C147	C	1.090257	-0.269683	-0.992804
H148	H	1.173414	-0.165019	-0.986882
H149	H	1.111653	-0.158966	-0.916113
H150	H	1.174190	-0.247637	-0.919910
H151	H	1.056696	-0.228310	-1.024163
H152	H	1.119287	-0.316910	-1.027877
O153	O	1.049684	-0.320668	-1.088040
C154	C	1.090331	-0.269527	-1.194738
C155	C	1.039960	-0.333005	-1.158554
H156	H	1.082497	-0.279493	-1.251755
H157	H	1.081619	-0.196766	-1.177748
H158	H	1.144207	-0.285372	-1.181494
H159	H	0.986065	-0.317241	-1.171781
H160	H	1.048731	-0.405747	-1.175547
