data_functionalizedCrystal
_audit_creation_method	'MofGen! by Chris Wilmer'
_symmetry_space_group_name_H-M	'P1'
_symmetry_Int_Tables_number	1
_symmetry_cell_setting	triclinic
loop_
_symmetry_equiv_pos_as_xyz
  x,y,z
_cell_length_a	15.944499
_cell_length_b	15.021413
_cell_length_c	10.723024
_cell_angle_alpha	89.994776
_cell_angle_beta	83.972739
_cell_angle_gamma	90.009905
loop_
_atom_site_label
_atom_site_type_symbol
_atom_site_fract_x
_atom_site_fract_y
_atom_site_fract_z
O1	O	1.115475	0.074083	0.160610
O2	O	0.871034	0.074073	0.180519
O3	O	0.998893	0.074075	-0.011084
O4	O	0.987616	0.074081	0.352214
O5	O	0.998873	-0.073989	-0.011057
O6	O	0.871013	-0.073991	0.180547
O7	O	1.115455	-0.073981	0.160638
Zn8	Zn	0.993231	-0.097495	0.170597
Zn9	Zn	0.993258	0.097586	0.170560
O10	O	0.987596	-0.073983	0.352241
C11	C	0.839724	0.000040	0.179718
C12	C	0.746462	0.000036	0.177274
N13	N	0.993219	-0.230632	0.170620
C14	C	0.455563	0.000051	0.288591
C15	C	0.516271	0.073055	0.230712
C16	C	0.410774	0.000056	0.168396
C17	C	0.516237	-0.072925	0.230707
C18	C	0.575708	0.000045	0.172765
C19	C	0.470254	0.073120	0.110484
C20	C	0.470214	-0.072925	0.110496
C21	C	0.530903	0.000097	0.052529
C22	C	0.315760	0.000064	0.165883
C23	C	0.670722	0.000044	0.175268
C24	C	0.934087	-0.470316	0.259176
C25	C	1.010128	-0.529647	0.283380
C26	C	0.993240	-0.412239	0.170589
C27	C	0.917220	-0.529650	0.146413
C28	C	0.993254	-0.587663	0.170562
C29	C	1.069319	-0.470263	0.194849
C30	C	0.976361	-0.470261	0.057833
C31	C	1.052457	-0.529565	0.081989
C32	C	0.993231	-0.311182	0.170608
C33	C	0.993272	-0.688718	0.170542
C34	C	1.146765	0.000054	0.161439
C35	C	1.240027	0.000064	0.163883
C36	C	0.998062	0.000044	-0.057560
C37	C	0.995607	0.000047	-0.196082
N38	N	0.993277	0.230724	0.170527
C39	C	1.067150	0.000051	-0.271988
C40	C	1.064614	0.000054	-0.415159
C41	C	0.988427	0.000050	0.398716
C42	C	0.990882	0.000053	0.537239
H43	H	0.422804	0.000123	0.388340
C44	C	0.543514	-0.155252	0.298325
C45	C	0.598571	-0.205753	0.216156
C46	C	0.623720	-0.281588	0.278415
H47	H	0.495351	-0.189954	0.326172
H48	H	0.571406	-0.137732	0.368445
H49	H	0.570678	-0.223275	0.146060
H50	H	0.646746	-0.171078	0.188305
H51	H	0.651612	-0.264068	0.348535
H52	H	0.575552	-0.316282	0.306260
H53	H	0.661084	-0.315858	0.222677
C54	C	1.029344	-0.564494	0.410397
C55	C	1.103086	-0.615693	0.395473
C56	C	1.120812	-0.647798	0.512456
H57	H	0.983753	-0.600253	0.445696
H58	H	1.036954	-0.515776	0.464573
H59	H	1.095471	-0.664404	0.341317
H60	H	1.148693	-0.579953	0.360194
H61	H	1.128422	-0.599080	0.566632
H62	H	1.075215	-0.683554	0.547746
H63	H	1.170850	-0.682533	0.502348
H64	H	0.884115	-0.444302	0.334152
H65	H	1.130278	0.000048	-0.230981
C66	C	0.443074	0.155480	0.042843
C67	C	0.355375	0.154555	0.041376
C68	C	0.330304	0.230416	-0.020902
H69	H	0.469460	0.155771	-0.040805
H70	H	0.459160	0.207280	0.085259
H71	H	0.339297	0.102768	-0.001043
H72	H	0.328968	0.154277	0.125006
H73	H	0.346390	0.282216	0.021514
H74	H	0.356695	0.230700	-0.104546
H75	H	0.270797	0.229802	-0.021896
H76	H	0.536669	0.134772	0.281542
C77	C	1.146259	0.000244	-0.502177
C78	C	1.149355	0.076433	-0.577750
C79	C	1.224561	0.076645	-0.657916
H80	H	1.148568	-0.051327	-0.553679
H81	H	1.192870	0.000294	-0.453782
H82	H	1.102757	0.076375	-0.626140
H83	H	1.147061	0.128017	-0.526281
H84	H	1.271172	0.076694	-0.609522
H85	H	1.226864	0.025070	-0.709410
H86	H	1.226676	0.128341	-0.709194
H87	H	0.929632	0.000043	-0.397545
C88	C	0.911343	0.000092	-0.250504
C89	C	0.845830	0.000109	-0.152729
C90	C	0.768193	0.000163	-0.202811
H91	H	0.907182	-0.051525	-0.300652
H92	H	0.907272	0.051748	-0.300640
H93	H	0.849899	-0.051542	-0.102614
H94	H	0.849963	0.051722	-0.102573
H95	H	0.764122	0.051819	-0.252947
H96	H	0.764041	-0.051455	-0.252958
H97	H	0.723733	0.000183	-0.136479
C98	C	0.442824	-0.155359	0.043242
C99	C	0.386594	-0.204808	0.125096
C100	C	0.361324	-0.280802	0.063312
H101	H	0.490830	-0.190689	0.016853
H102	H	0.415803	-0.138031	-0.027799
H103	H	0.413617	-0.222138	0.196114
H104	H	0.338576	-0.169504	0.151489
H105	H	0.334302	-0.263473	-0.007729
H106	H	0.409335	-0.316124	0.036926
H107	H	0.323164	-0.314358	0.118836
H108	H	1.133629	-0.444287	0.215400
C109	C	0.574349	0.000329	-0.080612
C110	C	0.551030	0.076900	-0.142957
C111	C	0.591044	0.077153	-0.265601
H112	H	0.557912	-0.050980	-0.123766
H113	H	0.633755	-0.000116	-0.078359
H114	H	0.491637	0.077336	-0.145217
H115	H	0.567468	0.128221	-0.099842
H116	H	0.650450	0.076709	-0.263348
H117	H	0.574604	0.025841	-0.308743
H118	H	0.575234	0.129109	-0.307914
H119	H	0.962049	-0.444155	-0.037480
C120	C	1.119363	-0.563997	-0.017769
C121	C	1.198777	-0.533760	0.008124
C122	C	1.260433	-0.565472	-0.083730
H123	H	1.107941	-0.542783	-0.097711
H124	H	1.118747	-0.627240	-0.017681
H125	H	1.199390	-0.470530	0.008023
H126	H	1.210225	-0.554971	0.088049
H127	H	1.259818	-0.628716	-0.083642
H128	H	1.249003	-0.544257	-0.163666
H129	H	1.314323	-0.544969	-0.066168
C130	C	0.831412	-0.564306	0.119326
C131	C	0.769727	-0.534265	0.212359
C132	C	0.690668	-0.566158	0.187450
H133	H	0.832064	-0.627537	0.118781
H134	H	0.818966	-0.543071	0.039866
H135	H	0.782169	-0.555505	0.291799
H136	H	0.769048	-0.471038	0.212919
H137	H	0.678223	-0.544923	0.107989
H138	H	0.691330	-0.629388	0.186904
H139	H	0.648805	-0.545773	0.250561
