data_functionalizedCrystal
_audit_creation_method	'MofGen! by Chris Wilmer'
_symmetry_space_group_name_H-M	'P1'
_symmetry_Int_Tables_number	1
_symmetry_cell_setting	triclinic
loop_
_symmetry_equiv_pos_as_xyz
  x,y,z
_cell_length_a	23.532407
_cell_length_b	16.992695
_cell_length_c	16.053802
_cell_angle_alpha	87.258926
_cell_angle_beta	87.440303
_cell_angle_gamma	93.241550
loop_
_atom_site_label
_atom_site_type_symbol
_atom_site_fract_x
_atom_site_fract_y
_atom_site_fract_z
O1	O	0.762229	-0.091835	-0.069325
O2	O	0.597050	-0.105601	-0.069350
O3	O	0.678977	0.015419	-0.069331
O4	O	0.680302	-0.212855	-0.069344
O5	O	0.674466	0.008785	0.069527
O6	O	0.592539	-0.112235	0.069508
O7	O	0.757718	-0.098469	0.069533
Zn8	Zn	0.674413	-0.106406	0.091567
Zn9	Zn	0.680356	-0.097665	-0.091384
O10	O	0.675791	-0.219489	0.069514
C11	C	0.573561	-0.108568	0.000076
C12	C	0.510292	-0.107513	0.000067
N13	N	0.670361	-0.112370	0.216427
C14	C	0.675018	0.041301	0.000098
C15	C	0.669935	0.128306	0.000097
C16	C	0.114414	-0.172521	0.000101
C17	C	0.054965	-0.171542	0.000106
O18	O	0.021210	-0.231805	0.000133
N19	N	0.028768	-0.099595	0.000109
C20	C	0.062024	-0.028623	0.000115
O21	O	0.034283	0.032663	0.000119
C22	C	0.121471	-0.029603	0.000116
C23	C	0.147665	-0.101554	0.000105
C24	C	0.140607	-0.244467	0.000091
C25	C	0.200052	-0.245445	0.000084
C26	C	0.233304	-0.174478	0.000088
C27	C	0.207110	-0.102533	0.000098
C28	C	0.154726	0.041368	0.000128
C29	C	0.214177	0.040381	0.000129
C30	C	0.240371	-0.031570	0.000118
C31	C	0.299806	-0.032545	0.000095
N32	N	0.326002	-0.104492	0.000092
C33	C	0.292751	-0.175458	0.000088
C34	C	-0.062821	-0.026571	0.000115
C35	C	-0.122267	-0.025590	0.000108
C36	C	-0.129322	-0.168509	0.000101
C37	C	-0.069874	-0.169489	0.000102
C38	C	-0.036624	-0.098518	0.000112
C39	C	0.417590	-0.177508	0.000074
C40	C	0.477041	-0.178480	0.000063
C41	C	0.484091	-0.035561	0.000075
C42	C	0.424645	-0.034588	0.000081
C43	C	0.391396	-0.105568	0.000083
O44	O	0.333597	0.027687	0.000071
O45	O	0.320500	-0.236735	0.000096
C46	C	0.781207	-0.095503	0.000105
C47	C	0.844476	-0.096557	0.000109
C48	C	0.679750	-0.245372	0.000083
C49	C	0.684834	-0.332376	0.000079
C50	C	0.718981	0.178928	0.000105
C51	C	0.714202	0.260678	0.000096
C52	C	0.660375	0.291804	0.000085
C53	C	0.611326	0.241175	0.000075
C54	C	0.616106	0.159427	0.000077
C55	C	0.640564	0.535248	0.000071
C56	C	0.635788	0.617002	0.000071
C57	C	0.738664	0.636499	0.000091
C58	C	0.743439	0.554748	0.000098
C59	C	0.694390	0.504127	0.000083
N60	N	0.655489	0.375365	0.000079
N61	N	0.699277	0.420568	0.000084
N62	N	0.684412	-0.091694	-0.216243
C63	C	0.705235	-0.060894	0.260128
C64	C	0.702407	-0.065074	0.347535
C65	C	0.664706	-0.120734	0.391237
C66	C	0.629827	-0.172213	0.347529
C67	C	0.632654	-0.168028	0.260125
C68	C	0.652360	-0.138988	0.652644
C69	C	0.649537	-0.143170	0.740055
C70	C	0.722116	-0.036030	0.740054
C71	C	0.724941	-0.031854	0.652648
C72	C	0.690061	-0.083330	0.608947
N73	N	0.661815	-0.125009	0.480580
N74	N	0.692949	-0.079050	0.519606
H75	H	0.390525	-0.235307	0.000078
N76	N	0.759731	0.019494	0.787186
H77	H	0.801038	0.011476	0.771964
H78	H	0.752174	0.008372	0.849172
N79	N	0.608878	-0.203214	0.787194
H80	H	0.587211	-0.235190	0.746248
H81	H	0.581175	-0.175122	0.823477
H82	H	0.599128	-0.217530	0.383117
N83	N	0.126482	0.118971	0.000148
H84	H	0.140041	0.152506	-0.051320
H85	H	0.136717	0.147505	0.051663
N86	N	0.801492	0.521169	0.000088
H87	H	0.804098	0.485227	0.051561
H88	H	0.831809	0.565681	0.000055
N89	N	0.553268	0.274737	0.000062
H90	H	0.550663	0.310678	-0.051412
H91	H	0.547353	0.305721	0.051572
N92	N	0.614736	-0.194510	0.605527
H93	H	0.623331	-0.250823	0.620728
H94	H	0.622255	-0.183352	0.543538
N95	N	0.577729	0.650573	0.000051
H96	H	0.582146	0.710041	0.000056
H97	H	0.554427	0.629569	0.051521
N98	N	0.595042	-0.223555	0.212988
H99	H	0.602551	-0.212457	0.150986
H100	H	0.553751	-0.215512	0.228276
H101	H	0.730804	-0.023157	0.383116
H102	H	0.221373	-0.304035	0.000075
H103	H	-0.035751	0.031227	0.000116
H104	H	0.755640	0.013469	0.617067
N105	N	0.505292	-0.256087	0.000043
H106	H	0.475204	-0.300893	0.000043
H107	H	0.528139	-0.262071	0.051514
H108	H	0.113540	-0.302260	0.000091
H109	H	-0.048552	-0.228078	0.000097
N110	N	-0.150518	0.052012	0.000110
H111	H	-0.136961	0.085541	-0.051363
H112	H	-0.140286	0.080556	0.051621
N113	N	-0.165177	-0.245068	0.000115
H114	H	-0.188337	-0.245407	-0.051354
H115	H	-0.191628	-0.250261	0.051630
N116	N	0.250039	0.116931	0.000146
H117	H	0.224421	0.162655	0.000154
H118	H	0.276526	0.122104	-0.051331
N119	N	0.396390	0.043014	0.000077
H120	H	0.426478	0.087822	0.000074
H121	H	0.370214	0.044076	0.051558
N122	N	0.777036	0.145359	0.000124
H123	H	0.807381	0.189836	0.000127
H124	H	0.782934	0.114321	-0.051349
N125	N	0.519960	0.040979	0.000079
H126	H	0.561593	0.029434	0.000079
H127	H	0.509443	0.069890	0.051562
N128	N	0.791565	0.691096	0.000108
H129	H	0.780372	0.747606	0.000105
H130	H	0.816535	0.683520	-0.051363
N131	N	0.767101	0.315278	0.000110
H132	H	0.801924	0.283155	0.000125
H133	H	0.765681	0.347163	0.051586
H134	H	0.600624	0.494041	0.000059
H135	H	0.576167	0.118211	0.000071
N136	N	0.745902	-0.000865	0.212995
H137	H	0.767565	0.031111	0.253947
H138	H	0.723705	0.035372	0.176740
