data_functionalizedCrystal
_audit_creation_method	'MofGen! by Chris Wilmer'
_symmetry_space_group_name_H-M	'P1'
_symmetry_Int_Tables_number	1
_symmetry_cell_setting	triclinic
loop_
_symmetry_equiv_pos_as_xyz
  x,y,z
_cell_length_a	8.559649
_cell_length_b	12.837942
_cell_length_c	7.681481
_cell_angle_alpha	83.650030
_cell_angle_beta	94.913240
_cell_angle_gamma	82.303802
loop_
_atom_site_label
_atom_site_type_symbol
_atom_site_fract_x
_atom_site_fract_y
_atom_site_fract_z
O1	O	2.101390	-0.023863	-0.146400
O2	O	1.644239	0.029032	-0.146410
O3	O	1.862678	-0.147512	-0.146394
O4	O	1.882950	0.152681	-0.146416
O5	O	1.889558	-0.169285	0.146465
O6	O	1.671118	0.007259	0.146450
O7	O	2.128269	-0.045636	0.146459
Zn8	Zn	1.903962	-0.022646	0.192952
Zn9	Zn	1.868546	0.006042	-0.192903
O10	O	1.909830	0.130908	0.146444
C11	C	1.598759	0.022154	0.000019
C12	C	1.423195	0.034086	0.000015
C13	C	1.869269	-0.196474	0.000034
C14	C	1.848843	-0.309925	0.000031
C15	C	2.094400	-0.570430	-0.000001
C16	C	2.075215	-0.677028	-0.000004
C17	C	1.791288	-0.629721	0.000008
C18	C	1.810473	-0.523122	0.000012
C19	C	1.962034	-0.493482	0.000010
C20	C	1.981219	-0.386882	0.000026
C21	C	1.697292	-0.339576	0.000025
C22	C	1.678107	-0.446174	0.000022
C23	C	2.173749	-0.038758	0.000027
C24	C	2.349311	-0.050689	0.000019
C25	C	1.903238	0.179870	0.000011
C26	C	1.923664	0.293322	0.000003
N27	N	1.928143	-0.042226	0.456288
N28	N	1.844376	0.025613	-0.456239
H29	H	1.352129	0.115800	0.000000
C30	C	2.259936	-0.444352	-0.000021
C31	C	2.147809	-0.354296	0.000006
H32	H	2.362781	-0.424233	-0.000051
H33	H	2.255937	-0.492539	0.102102
H34	H	2.237143	-0.477348	-0.102152
H35	H	2.170595	-0.321305	0.102144
H36	H	2.151813	-0.306091	-0.102127
C37	C	2.197374	-0.128473	0.513343
C38	C	2.043594	-0.135707	0.557806
H39	H	2.268645	-0.186182	0.576025
H40	H	2.199977	-0.130604	0.390408
H41	H	2.227801	-0.063732	0.543474
H42	H	2.013163	-0.200445	0.527663
H43	H	2.040987	-0.133586	0.680769
C44	C	1.606414	-0.151865	0.000039
C45	C	1.445226	-0.160997	0.000032
H46	H	1.665631	-0.219968	0.000058
H47	H	1.622095	-0.107138	-0.102084
H48	H	1.640834	-0.122312	0.102170
H49	H	1.410802	-0.190543	-0.102105
H50	H	1.429535	-0.205742	0.102167
H51	H	2.217808	-0.546298	0.000015
H52	H	2.183001	-0.739677	-0.000018
C53	C	1.635826	-0.772131	0.000003
C54	C	1.624702	-0.662316	0.000011
H55	H	1.532982	-0.792252	0.000017
H56	H	1.681624	-0.791708	-0.102124
H57	H	1.700398	-0.806907	0.102130
H58	H	1.560139	-0.627540	-0.102123
H59	H	1.578882	-0.642729	0.102148
H60	H	1.554709	-0.470323	0.000017
H61	H	1.589511	-0.276913	0.000048
C62	C	1.773828	0.214506	0.486668
C63	C	1.728933	0.119090	0.442249
H64	H	1.702561	0.272214	0.423981
H65	H	1.771201	0.216629	0.609602
H66	H	1.878165	0.219390	0.456514
H67	H	1.624600	0.114202	0.472415
H68	H	1.731544	0.116965	0.319287
