data_functionalizedCrystal
_audit_creation_method	'MofGen! by Chris Wilmer'
_symmetry_space_group_name_H-M	'P1'
_symmetry_Int_Tables_number	1
_symmetry_cell_setting	triclinic
loop_
_symmetry_equiv_pos_as_xyz
  x,y,z
_cell_length_a	13.032831
_cell_length_b	19.805405
_cell_length_c	19.805399
_cell_angle_alpha	90.029301
_cell_angle_beta	82.810414
_cell_angle_gamma	97.169491
loop_
_atom_site_label
_atom_site_type_symbol
_atom_site_fract_x
_atom_site_fract_y
_atom_site_fract_z
Zn1	Zn	1.597580	0.401093	-0.513861
Zn2	Zn	2.097580	0.901093	-0.013861
Zn3	Zn	1.597448	0.514271	-0.400659
Zn4	Zn	2.097448	1.014271	0.099341
Zn5	Zn	1.422827	0.386715	-0.386340
Zn6	Zn	1.922827	0.886715	0.113660
Zn7	Zn	1.422771	0.499844	-0.499466
Zn8	Zn	1.922771	0.999844	0.000534
O9	O	1.510157	0.450481	-0.450082
O10	O	2.010157	0.950481	0.049918
O11	O	1.743800	0.428162	-0.510862
O12	O	2.243800	0.928162	-0.010862
O13	O	1.574253	0.497371	-0.304040
O14	O	2.074253	0.997371	0.195960
O15	O	1.446087	0.293913	-0.403288
O16	O	1.946087	0.793913	0.096712
O17	O	1.743703	0.511313	-0.427692
O18	O	2.243703	1.011313	0.072308
O19	O	1.574477	0.304476	-0.496977
O20	O	2.074477	0.804476	0.003023
O21	O	1.445960	0.403656	-0.293520
O22	O	1.945960	0.903656	0.206480
O23	O	1.276582	0.389667	-0.389329
O24	O	1.776582	0.889667	0.110671
O25	O	1.445991	0.486725	-0.596095
O26	O	1.945991	0.986725	-0.096095
O27	O	1.276541	0.472783	-0.472442
O28	O	1.776541	0.972783	0.027558
O29	O	1.574423	0.414173	-0.606671
O30	O	2.074423	0.914173	-0.106671
O31	O	1.574198	0.607067	-0.413734
O32	O	2.074198	1.107067	0.086266
O33	O	1.445864	0.596468	-0.486327
O34	O	1.945864	1.096468	0.013673
C35	C	1.238644	0.428100	-0.427770
C36	C	1.738644	0.928100	0.072230
C37	C	1.122489	0.418541	-0.418242
C38	C	1.622489	0.918541	0.081758
C39	C	1.510039	0.626327	-0.450039
C40	C	2.010039	1.126327	0.049961
C41	C	1.510084	0.701563	-0.450051
C42	C	2.010084	1.201563	0.049949
C43	C	1.510215	0.450443	-0.626629
C44	C	2.010215	0.950443	-0.126629
C45	C	1.510240	0.450427	-0.701863
C46	C	2.010240	0.950427	-0.201863
C47	C	1.070711	0.455470	-0.455055
C48	C	1.570711	0.955470	0.044945
C49	C	0.950660	0.445592	-0.445207
C50	C	1.450660	0.945592	0.054793
C51	C	1.782730	0.472950	-0.472480
C52	C	2.282730	0.972950	0.027520
C53	C	1.898884	0.482525	-0.482025
C54	C	2.398884	0.982525	0.017975
C55	C	1.510303	0.273950	-0.450141
C56	C	2.010303	0.773950	0.049859
C57	C	1.510366	0.198724	-0.450167
C58	C	2.010366	0.698724	0.049833
C59	C	1.576973	0.742409	-0.412303
C60	C	2.076973	1.242409	0.087697
C61	C	1.577018	0.813101	-0.412321
C62	C	2.077018	1.313101	0.087679
C63	C	1.510167	0.842945	-0.450085
C64	C	2.010167	1.342945	0.049915
C65	C	1.443275	0.802094	-0.487838
C66	C	1.943275	1.302094	0.012162
C67	C	1.443237	0.731404	-0.487823
C68	C	1.943237	1.231404	0.012177
C69	C	1.443429	1.087180	-0.487901
C70	C	1.943429	1.587180	0.012099
C71	C	1.443471	1.157876	-0.487912
C72	C	1.943471	1.657876	0.012088
C73	C	1.577210	1.168877	-0.412400
C74	C	2.077210	1.668877	0.087600
C75	C	1.577172	1.098187	-0.412384
C76	C	2.077172	1.598187	0.087616
C77	C	1.510284	1.057342	-0.450140
C78	C	2.010284	1.557342	0.049860
C79	C	1.510238	0.980690	-0.450120
C80	C	2.010238	1.480690	0.049880
C81	C	1.510207	0.919596	-0.450101
C82	C	2.010207	1.419596	0.049899
C83	C	1.577116	0.412647	-0.742716
C84	C	2.077116	0.912647	-0.242716
C85	C	1.577127	0.412629	-0.813405
C86	C	2.077127	0.912629	-0.313405
C87	C	1.510266	0.450394	-0.843241
C88	C	2.010266	0.950394	-0.343241
C89	C	1.443383	0.488175	-0.802383
C90	C	1.943383	0.988175	-0.302383
C91	C	1.443368	0.488190	-0.731695
C92	C	1.943368	0.988190	-0.231695
C93	C	1.443442	0.488117	-1.087461
C94	C	1.943442	0.988117	-0.587461
C95	C	1.443465	0.488101	-1.158155
C96	C	1.943465	0.988101	-0.658155
C97	C	1.577201	0.412556	-1.169172
C98	C	2.077201	0.912556	-0.669172
C99	C	1.577186	0.412570	-1.098483
C100	C	2.077186	0.912570	-0.598483
C101	C	1.510299	0.450348	-1.057631
C102	C	2.010299	0.950348	-0.557631
C103	C	1.510287	0.450367	-0.980982
C104	C	2.010287	0.950367	-0.480982
C105	C	1.510283	0.450379	-0.919890
C106	C	2.010283	0.950379	-0.419890
C107	C	1.510158	0.450475	-0.274226
C108	C	2.010158	0.950475	0.225774
C109	C	1.510336	0.450317	-0.199009
C110	C	2.010336	0.950317	0.300991
H111	H	1.115260	0.494396	-0.493864
H112	H	1.615260	0.994396	0.006136
H113	H	1.631604	1.073890	-0.381631
H114	H	2.131604	1.573890	0.118369
H115	H	1.388849	0.826399	-0.518590
H116	H	1.888849	1.326399	-0.018590
H117	H	1.631406	0.718115	-0.381548
H118	H	2.131406	1.218115	0.118452
O119	O	1.063500	0.366971	-0.366834
O120	O	1.563500	0.866971	0.133166
H121	H	1.084361	0.380215	-0.315392
H122	H	1.584361	0.880215	0.184608
H123	H	1.631484	0.846355	-0.381582
H124	H	2.131484	1.346355	0.118418
O125	O	0.891670	0.394032	-0.393785
O126	O	1.391670	0.894032	0.106215
H127	H	0.806634	0.394373	-0.394110
H128	H	1.306634	0.894373	0.105890
O129	O	1.371256	1.043138	-0.528604
O130	O	1.871256	1.543138	-0.028604
H131	H	1.389113	1.058137	-0.583207
H132	H	1.889113	1.558137	-0.083207
H133	H	1.631677	1.202142	-0.381660
H134	H	2.131677	1.702142	0.118340
O135	O	1.371373	1.190070	-0.528650
O136	O	1.871373	1.690070	-0.028650
H137	H	1.324863	1.149793	-0.554908
H138	H	1.824863	1.649793	-0.054908
O139	O	1.371090	0.687349	-0.528539
O140	O	1.871090	1.187349	-0.028539
H141	H	1.382302	0.633180	-0.522191
H142	H	1.882302	1.133180	-0.022191
O143	O	1.649230	0.371915	-0.710536
O144	O	2.149230	0.871915	-0.210536
H145	H	1.695727	0.345636	-0.750821
H146	H	2.195727	0.845636	-0.250821
O147	O	1.649262	0.371885	-0.857470
O148	O	2.149262	0.871885	-0.357470
H149	H	1.695763	0.345636	-0.824849
H150	H	2.195763	0.845636	-0.324849
O151	O	1.371336	0.528831	-1.190333
O152	O	1.871336	1.028831	-0.690333
H153	H	1.382594	0.522477	-1.246351
H154	H	1.882594	1.022477	-0.746351
H155	H	0.943427	0.521453	-0.520839
H156	H	1.443427	1.021453	-0.020839
H157	H	1.631634	0.381820	-1.074195
H158	H	2.131634	0.881820	-0.574195
O159	O	1.649318	0.371785	-1.213230
O160	O	2.149318	0.871785	-0.713230
H161	H	1.638084	0.378105	-1.267396
H162	H	2.138084	0.878105	-0.767396
H163	H	1.388994	0.518889	-1.054209
H164	H	1.888994	1.018889	-0.554209
H165	H	1.388940	0.518921	-0.826681
H166	H	1.888940	1.018921	-0.326681
H167	H	1.388900	0.518946	-0.698432
H168	H	1.888900	1.018946	-0.198432
