data_functionalizedCrystal
_audit_creation_method	'MofGen! by Chris Wilmer'
_symmetry_space_group_name_H-M	'P1'
_symmetry_Int_Tables_number	1
_symmetry_cell_setting	triclinic
loop_
_symmetry_equiv_pos_as_xyz
  x,y,z
_cell_length_a	14.519710
_cell_length_b	11.026607
_cell_length_c	9.482900
_cell_angle_alpha	78.599815
_cell_angle_beta	80.694056
_cell_angle_gamma	83.866919
loop_
_atom_site_label
_atom_site_type_symbol
_atom_site_fract_x
_atom_site_fract_y
_atom_site_fract_z
O1	O	1.261306	-0.140161	-0.120859
O2	O	1.594640	0.193172	0.212475
O3	O	1.927973	0.526506	0.545808
O4	O	0.995918	-0.158899	-0.120868
O5	O	1.329251	0.174434	0.212465
O6	O	1.662585	0.507767	0.545799
O7	O	1.106616	0.027170	-0.120859
O8	O	1.439950	0.360503	0.212475
O9	O	1.773283	0.693837	0.545808
O10	O	1.150608	-0.326230	-0.120868
O11	O	1.483941	0.007103	0.212465
O12	O	1.817274	0.340436	0.545799
O13	O	1.084156	-0.010777	0.120932
O14	O	1.417490	0.322556	0.454265
O15	O	1.750823	0.655890	0.787598
O16	O	0.973458	-0.196846	0.120923
O17	O	1.306791	0.136487	0.454256
O18	O	1.640124	0.469820	0.787589
O19	O	1.238846	-0.178108	0.120932
O20	O	1.572179	0.155226	0.454265
O21	O	1.905513	0.488559	0.787599
Cu22	Cu	1.104101	-0.190942	0.143005
Cu23	Cu	1.437434	0.142391	0.476338
Cu24	Cu	1.770768	0.475725	0.809671
Cu25	Cu	1.130663	-0.146065	-0.142941
Cu26	Cu	1.463996	0.187268	0.190393
Cu27	Cu	1.797330	0.520601	0.523726
O28	O	1.128148	-0.364177	0.120923
O29	O	1.461481	-0.030844	0.454256
O30	O	1.794814	0.302490	0.787589
C31	C	0.950184	-0.176999	0.000026
C32	C	1.283518	0.156334	0.333359
C33	C	1.616851	0.489667	0.666693
C34	C	0.847372	-0.174382	0.000022
C35	C	1.180705	0.158952	0.333356
C36	C	1.514039	0.492285	0.666689
C37	C	1.087271	0.053425	0.000034
C38	C	1.420604	0.386759	0.333368
C39	C	1.753938	0.720092	0.666701
C40	C	1.063079	0.188193	0.000028
C41	C	1.396413	0.521526	0.333362
C42	C	1.729746	0.854859	0.666695
C43	C	1.284580	-0.160007	0.000035
C44	C	1.617913	0.173326	0.333368
C45	C	1.951247	0.506659	0.666701
C46	C	1.387393	-0.162624	0.000029
C47	C	1.720726	0.170710	0.333362
C48	C	2.054060	0.504043	0.666695
C49	C	1.763876	-0.172258	0.000028
C50	C	2.097210	0.161075	0.333361
C51	C	2.430543	0.494408	0.666694
C52	C	1.659128	-0.169583	0.000028
C53	C	1.992461	0.163751	0.333361
C54	C	2.325794	0.497084	0.666694
C55	C	1.575638	-0.167441	0.000027
C56	C	1.908972	0.165892	0.333360
C57	C	2.242305	0.499226	0.666694
C58	C	1.470883	-0.164765	0.000029
C59	C	1.804216	0.168568	0.333363
C60	C	2.137549	0.501901	0.666696
C61	C	1.147493	-0.390432	0.000026
C62	C	1.480827	-0.057099	0.333360
C63	C	1.814160	0.276235	0.666693
C64	C	1.171686	-0.525198	0.000023
C65	C	1.505019	-0.191865	0.333356
C66	C	1.838353	0.141469	0.666689
N67	N	1.085426	-0.222505	0.344123
N68	N	1.418759	0.110829	0.677457
N69	N	1.752092	0.444162	1.010790
C70	C	1.129879	0.261853	0.000029
C71	C	1.463212	0.595187	0.333362
C72	C	1.796545	0.928520	0.666695
C73	C	1.104877	0.401143	0.000022
C74	C	1.438210	0.734476	0.333356
C75	C	1.771543	1.067810	0.666689
N76	N	1.149344	-0.114493	-0.344059
N77	N	1.482677	0.218841	-0.010726
N78	N	1.816011	0.552174	0.322607
C79	C	1.125147	-0.155369	0.416326
C80	C	1.458480	0.177965	0.749659
C81	C	1.791814	0.511298	1.082992
C82	C	1.109617	-0.181639	0.583742
C83	C	1.442950	0.151694	0.917075
C84	C	1.776284	0.485028	1.250409
H85	H	1.205577	0.221796	0.000040
H86	H	1.538910	0.555129	0.333374
H87	H	1.872244	0.888463	0.666707
H88	H	1.194847	-0.037557	0.593820
H89	H	1.528181	0.295777	0.927153
H90	H	1.861514	0.629110	1.260487
Cl91	Cl	1.015163	-0.341271	0.440031
Cl92	Cl	1.348496	-0.007937	0.773365
Cl93	Cl	1.681829	0.325396	1.106698
H94	H	1.064106	-0.258566	0.645863
H95	H	1.397439	0.074767	0.979196
H96	H	1.730772	0.408101	1.312529
H97	H	0.987381	0.228250	0.000016
H98	H	1.320714	0.561584	0.333350
H99	H	1.654048	0.894917	0.666683
H100	H	1.029174	0.441195	0.000010
H101	H	1.362507	0.774528	0.333344
H102	H	1.695840	1.107862	0.666677
Cl103	Cl	1.288570	0.412980	0.000020
Cl104	Cl	1.621903	0.746313	0.333353
Cl105	Cl	1.955237	1.079647	0.666687
H106	H	1.170647	-0.078437	0.354202
H107	H	1.503981	0.254896	0.687535
H108	H	1.837314	0.588230	1.020868
