data_functionalizedCrystal
_audit_creation_method	'MofGen! by Chris Wilmer'
_symmetry_space_group_name_H-M	'P1'
_symmetry_Int_Tables_number	1
_symmetry_cell_setting	triclinic
loop_
_symmetry_equiv_pos_as_xyz
  x,y,z
_cell_length_a	10.654541
_cell_length_b	14.519731
_cell_length_c	9.730217
_cell_angle_alpha	89.995761
_cell_angle_beta	89.999932
_cell_angle_gamma	84.086391
loop_
_atom_site_label
_atom_site_type_symbol
_atom_site_fract_x
_atom_site_fract_y
_atom_site_fract_z
O1	O	1.666607	0.129519	-0.114251
O2	O	2.166607	0.629519	0.385749
O3	O	1.301010	0.141862	-0.114264
O4	O	1.801010	0.641862	0.385736
O5	O	1.493488	0.001504	-0.114245
O6	O	1.993488	0.501504	0.385755
O7	O	1.474129	0.269878	-0.114270
O8	O	1.974129	0.769878	0.385730
O9	O	1.493482	0.001502	0.114335
O10	O	1.993482	0.501502	0.614335
O11	O	1.301004	0.141861	0.114317
O12	O	1.801004	0.641861	0.614317
O13	O	1.666601	0.129518	0.114329
O14	O	2.166601	0.629518	0.614329
Zn15	Zn	1.483802	0.135689	0.150615
Zn16	Zn	1.983802	0.635689	0.650615
Zn17	Zn	1.483809	0.135691	-0.150549
Zn18	Zn	1.983809	0.635691	0.349451
O19	O	1.474123	0.269876	0.114310
O20	O	1.974123	0.769876	0.614310
C21	C	1.254218	0.140956	0.000025
C22	C	1.754218	0.640956	0.500025
C23	C	1.114800	0.138246	0.000021
C24	C	1.614800	0.638246	0.500021
C25	C	1.085233	0.306082	-0.000012
C26	C	1.585233	0.806082	0.499988
C27	C	1.004953	0.388724	-0.000035
C28	C	1.504953	0.888724	0.499965
C29	C	0.873959	0.386172	-0.000036
C30	C	1.373959	0.886172	0.499964
C31	C	0.823244	0.300969	-0.000011
C32	C	1.323244	0.800969	0.499989
C33	C	0.903524	0.218328	0.000012
C34	C	1.403524	0.718328	0.500012
C35	C	1.034519	0.220889	0.000008
C36	C	1.534519	0.720889	0.500008
C37	C	0.933091	0.050493	0.000055
C38	C	1.433091	0.550493	0.500055
C39	C	1.064085	0.053043	0.000046
C40	C	1.564085	0.553043	0.500046
C41	C	0.882376	-0.034710	0.000080
C42	C	1.382376	0.465290	0.500080
C43	C	0.962657	-0.117353	0.000092
C44	C	1.462657	0.382647	0.500092
C45	C	1.093658	-0.114797	0.000091
C46	C	1.593658	0.385203	0.500091
C47	C	1.144366	-0.029598	0.000068
C48	C	1.644366	0.470402	0.500068
C49	C	1.492578	-0.032861	0.000046
C50	C	1.992578	0.467139	0.500046
C51	C	1.489860	-0.135256	0.000046
C52	C	1.989860	0.364744	0.500046
C53	C	1.487651	-0.218411	0.000043
C54	C	1.987651	0.281589	0.500043
C55	C	1.484891	-0.322734	0.000033
C56	C	1.984891	0.177266	0.500033
C57	C	1.482701	-0.405885	0.000024
C58	C	1.982701	0.094115	0.500024
C59	C	1.479942	-0.510214	0.000016
C60	C	1.979942	-0.010214	0.500016
C61	C	1.713393	0.130424	0.000037
C62	C	2.213393	0.630424	0.500037
C63	C	1.852811	0.133134	0.000032
C64	C	2.352811	0.633134	0.500032
C65	C	1.475033	0.304241	0.000017
C66	C	1.975033	0.804241	0.500017
C67	C	1.477751	0.406635	0.000007
C68	C	1.977751	0.906635	0.500007
N69	N	1.483805	0.135687	0.356151
N70	N	1.983805	0.635687	0.856151
N71	N	1.483815	0.135685	-0.356086
N72	N	1.983815	0.635685	0.143914
C73	C	1.654314	0.011436	0.356159
C74	C	2.154314	0.511436	0.856159
C75	C	1.739576	-0.050686	0.428102
C76	C	2.239576	0.449314	0.928102
C77	C	1.739589	-0.050687	0.571982
C78	C	2.239589	0.449313	1.071982
C79	C	1.654328	0.011440	0.643921
C80	C	2.154328	0.511440	1.143921
C81	C	1.569065	0.073563	0.571978
C82	C	2.069065	0.573563	1.071978
C83	C	1.569064	0.073559	0.428095
C84	C	2.069064	0.573559	0.928095
C85	C	1.398553	0.197808	0.571970
C86	C	1.898553	0.697808	1.071970
C87	C	1.398544	0.197814	0.428091
C88	C	1.898544	0.697814	0.928091
C89	C	1.313291	0.259935	0.643910
C90	C	1.813291	0.759935	1.143910
C91	C	1.228033	0.322064	0.571966
C92	C	1.728033	0.822064	1.071966
C93	C	1.228024	0.322063	0.428078
C94	C	1.728024	0.822063	0.928078
C95	C	1.313281	0.259937	0.356147
C96	C	1.813281	0.759937	0.856147
H97	H	0.716581	0.298898	0.000005
H98	H	1.216581	0.798898	0.500005
H99	H	1.809013	-0.101276	0.630559
H100	H	2.309013	0.398724	1.130559
F101	F	1.313285	0.259934	0.203017
F102	F	1.813285	0.759934	0.703017
H103	H	0.775713	-0.036782	0.000086
H104	H	1.275713	0.463218	0.500086
H105	H	1.159016	-0.182095	0.000114
H106	H	1.659016	0.317905	0.500114
H107	H	1.654333	0.011428	0.761076
H108	H	2.154333	0.511428	1.261076
H109	H	1.158614	0.372639	0.630548
H110	H	1.658614	0.872639	1.130548
F111	F	1.058936	0.479398	-0.000061
F112	F	1.558936	0.979398	0.499939
F113	F	1.313299	0.259930	0.797040
F114	F	1.813299	0.759930	1.297040
F115	F	1.137268	0.388179	0.351521
F116	F	1.637268	0.888179	0.851521
H117	H	1.191893	0.308169	-0.000042
H118	H	1.691893	0.808169	0.499958
H119	H	0.808593	0.453465	-0.000044
H120	H	1.308593	0.953465	0.499956
H121	H	0.921353	-0.186718	0.000111
H122	H	1.421353	0.313282	0.500111
H123	H	1.251026	-0.027509	0.000051
H124	H	1.751026	0.472491	0.500051
F125	F	1.654323	0.011441	0.203029
F126	F	2.154323	0.511441	0.703029
F127	F	1.830310	-0.116807	0.351533
F128	F	2.330310	0.383193	0.851533
