data_functionalizedCrystal
_audit_creation_method	'MofGen! by Chris Wilmer'
_symmetry_space_group_name_H-M	'P1'
_symmetry_Int_Tables_number	1
_symmetry_cell_setting	triclinic
loop_
_symmetry_equiv_pos_as_xyz
  x,y,z
_cell_length_a	19.805407
_cell_length_b	12.759400
_cell_length_c	12.759393
_cell_angle_alpha	90.031564
_cell_angle_beta	89.977368
_cell_angle_gamma	89.985315
loop_
_atom_site_label
_atom_site_type_symbol
_atom_site_fract_x
_atom_site_fract_y
_atom_site_fract_z
Zn1	Zn	1.034811	0.418204	-0.594097
Zn2	Zn	1.034743	0.593923	-0.418417
Zn3	Zn	0.921620	0.418259	-0.418424
Zn4	Zn	0.921613	0.593842	-0.594046
O5	O	0.978197	0.506057	-0.506246
O6	O	1.129519	0.441525	-0.570812
O7	O	1.019712	0.570678	-0.271397
O8	O	0.936666	0.271231	-0.441752
O9	O	1.129469	0.570625	-0.441740
O10	O	1.019828	0.271190	-0.570818
O11	O	0.936601	0.441618	-0.271402
O12	O	0.826902	0.441539	-0.441702
O13	O	0.936654	0.570486	-0.741074
O14	O	0.826897	0.570539	-0.570731
O15	O	1.019821	0.441446	-0.741112
O16	O	1.019705	0.740933	-0.441691
O17	O	0.936588	0.740874	-0.570725
C18	C	0.802341	0.506037	-0.506212
C19	C	0.727109	0.506054	-0.506223
C20	C	0.978157	0.779024	-0.506224
C21	C	0.978201	0.895801	-0.506250
C22	C	0.978244	0.505951	-0.780280
C23	C	0.978264	0.505906	-0.897056
C24	C	0.691780	0.573325	-0.573299
C25	C	0.621091	0.573327	-0.573314
C26	C	0.585733	0.506062	-0.506246
C27	C	0.621067	0.438783	-0.439167
C28	C	0.691754	0.438777	-0.439158
C29	C	0.335994	0.438806	-0.439201
C30	C	0.265302	0.438820	-0.439213
C31	C	0.265331	0.573356	-0.573357
C32	C	0.336018	0.573350	-0.573349
C33	C	0.371346	0.506068	-0.506274
C34	C	0.447994	0.506065	-0.506260
C35	C	0.509086	0.506069	-0.506254
C36	C	1.154739	0.506078	-0.506281
C37	C	1.229971	0.506087	-0.506296
C38	C	0.978256	0.232024	-0.506291
C39	C	0.978281	0.115247	-0.506310
C40	C	1.021528	0.950659	-0.439137
C41	C	1.021570	1.060383	-0.439169
C42	C	0.934952	1.060381	-0.573431
C43	C	0.934914	0.950659	-0.573403
C44	C	1.071534	0.950661	-0.361618
C45	C	1.071576	1.060385	-0.361650
C46	C	1.021575	0.438708	-0.951940
C47	C	1.021591	0.438670	-1.061664
C48	C	0.934984	0.573037	-1.061612
C49	C	0.934965	0.573068	-0.951890
C50	C	1.071579	0.361136	-0.951971
C51	C	1.071595	0.361098	-1.061695
C52	C	0.978188	0.506087	-0.233279
C53	C	0.978299	0.505836	-0.116503
H54	H	0.720563	0.628104	-0.627910
H55	H	0.592329	0.628107	-0.627934
F56	F	0.888904	0.644511	-1.119978
H57	H	1.057572	1.090248	-0.280268
H58	H	1.057555	0.279772	-0.922213
H59	H	0.364750	0.384029	-0.384577
H60	H	0.364803	0.628128	-0.627959
F61	F	0.227726	0.644964	-0.644747
H62	H	0.720519	0.383992	-0.384543
F63	F	0.583435	0.367187	-0.367794
F64	F	1.140029	0.911630	-0.390187
F65	F	0.888809	0.892279	-0.644849
H66	H	0.236515	0.384038	-0.384598
F67	F	0.888886	1.118774	-0.644898
H68	H	1.121361	0.390305	-0.917940
F69	F	1.140115	0.389570	-1.100630
H70	H	1.052839	0.283789	-1.095741
F71	F	0.888858	0.644574	-0.893482
F72	F	1.046997	0.906284	-0.260553
H73	H	1.121378	1.094330	-0.390868
