data_functionalizedCrystal
_audit_creation_method	'MofGen! by Chris Wilmer'
_symmetry_space_group_name_H-M	'P1'
_symmetry_Int_Tables_number	1
_symmetry_cell_setting	triclinic
loop_
_symmetry_equiv_pos_as_xyz
  x,y,z
_cell_length_a	10.654558
_cell_length_b	11.792241
_cell_length_c	9.130313
_cell_angle_alpha	90.001417
_cell_angle_beta	89.998588
_cell_angle_gamma	95.659182
loop_
_atom_site_label
_atom_site_type_symbol
_atom_site_fract_x
_atom_site_fract_y
_atom_site_fract_z
O1	O	-1.667377	0.159458	0.121840
O2	O	-1.301857	0.174637	0.121834
O3	O	-1.493487	0.001898	0.121827
O4	O	-1.475747	0.332198	0.121847
O5	O	-1.493485	0.001903	-0.121772
O6	O	-1.301855	0.174642	-0.121765
O7	O	-1.667375	0.159463	-0.121759
Cu8	Cu	-1.484614	0.167053	-0.144004
Cu9	Cu	-1.484617	0.167048	0.144080
O10	O	-1.475745	0.332202	-0.121752
C11	C	-1.255061	0.173523	0.000034
C12	C	-1.115628	0.170183	0.000032
C13	C	-1.492372	-0.040393	0.000028
C14	C	-1.489036	-0.166415	0.000029
C15	C	-0.933372	0.062196	0.000042
C16	C	-1.064384	0.065333	0.000029
C17	C	-1.035851	0.271902	0.000033
C18	C	-0.904841	0.268763	0.000036
C19	C	-0.949846	-0.057065	0.000046
C20	C	-1.080859	-0.053928	0.000033
C21	C	-1.482903	-0.397141	0.000054
C22	C	-1.486311	-0.268748	0.000041
C23	C	-0.714171	0.160574	0.000043
C24	C	-0.853605	0.163907	0.000048
C25	C	-1.476860	0.374494	0.000051
C26	C	-1.480195	0.500515	0.000059
N27	N	-1.484622	0.167056	-0.346627
C28	C	-1.569497	0.090594	-0.423282
C29	C	-1.569494	0.090580	-0.576619
C30	C	-1.399735	0.243502	-0.576632
C31	C	-1.399733	0.243509	-0.423298
C32	C	-1.667510	0.002309	-0.423276
C33	C	-1.667507	0.002295	-0.576613
N34	N	-1.484620	0.167035	0.346702
H35	H	-1.077584	0.357273	0.000022
N36	N	-0.913184	-0.115583	-0.127836
N37	N	-0.994790	-0.154230	-0.217946
H38	H	-0.968899	-0.195557	-0.308262
N39	N	-1.313047	0.321610	-0.654951
N40	N	-1.315472	0.426540	-0.637836
H41	H	-1.254247	0.481708	-0.693146
H42	H	-1.646314	-0.084933	-0.381661
N43	N	-1.781805	0.037002	-0.363639
N44	N	-1.884961	-0.018431	-0.392379
H45	H	-1.965681	0.006083	-0.350268
N46	N	-1.629512	-0.101127	-0.636258
N47	N	-1.601064	-0.178568	-0.552701
H48	H	-1.574227	-0.251607	-0.594826
H49	H	-1.126598	-0.089963	-0.105153
H50	H	-1.330610	0.305761	-0.360886
N51	N	-0.905294	-0.104701	0.132001
N52	N	-0.981486	-0.137752	0.230814
H53	H	-0.950021	-0.171391	0.324011
H54	H	-1.763963	0.021745	-0.618226
H55	H	-0.839899	0.351586	0.000024
N56	N	-1.133422	-0.110312	0.127897
N57	N	-1.119244	-0.212935	0.149545
H58	H	-1.156368	-0.252756	0.239844
