data_functionalizedCrystal
_audit_creation_method	'MofGen! by Chris Wilmer'
_symmetry_space_group_name_H-M	'P1'
_symmetry_Int_Tables_number	1
_symmetry_cell_setting	triclinic
loop_
_symmetry_equiv_pos_as_xyz
  x,y,z
_cell_length_a	16.109301
_cell_length_b	19.188924
_cell_length_c	15.186229
_cell_angle_alpha	89.994194
_cell_angle_beta	89.999006
_cell_angle_gamma	83.301774
loop_
_atom_site_label
_atom_site_type_symbol
_atom_site_fract_x
_atom_site_fract_y
_atom_site_fract_z
O1	O	1.102830	0.089745	-0.073184
O2	O	0.860731	0.100913	-0.073197
O3	O	0.988770	-0.006310	-0.073180
O4	O	0.974791	0.196969	-0.073201
O5	O	0.988762	-0.006312	0.073277
O6	O	0.860723	0.100912	0.073260
O7	O	1.102822	0.089744	0.073273
Zn8	Zn	0.981771	0.095327	0.096520
Zn9	Zn	0.981782	0.095329	-0.096444
O10	O	0.974783	0.196967	0.073256
C11	C	0.829754	0.100460	0.000030
C12	C	0.737463	0.099104	0.000025
C13	C	0.428267	0.158294	0.000035
C14	C	0.514983	0.159575	0.000029
C15	C	0.535281	0.032358	0.000031
C16	C	0.448567	0.031077	0.000030
C17	C	0.395061	0.094048	0.000036
C18	C	0.568492	0.096609	0.000032
C19	C	0.662513	0.097997	0.000026
C20	C	0.301034	0.092660	0.000040
C21	C	0.988314	-0.032323	0.000049
C22	C	0.986958	-0.109831	0.000052
C23	C	0.986330	-0.146231	-0.079782
C24	C	0.985044	-0.219057	-0.079789
C25	C	0.984403	-0.255482	0.000043
C26	C	0.985027	-0.219073	0.079887
C27	C	0.986304	-0.146248	0.079892
N28	N	1.029706	-0.375040	0.059462
N29	N	1.028494	-0.444221	0.059452
C30	C	0.980552	-0.474900	0.000034
N31	N	0.933878	-0.433786	-0.059388
N32	N	0.935094	-0.364598	-0.059381
C33	C	0.983017	-0.334448	0.000047
C34	C	0.978528	-0.590265	-0.079813
C35	C	0.977237	-0.663092	-0.079816
C36	C	0.977228	-0.663108	0.079863
C37	C	0.978511	-0.590282	0.079864
C38	C	0.979165	-0.553865	0.000024
C39	C	1.133800	0.090197	0.000044
C40	C	1.226090	0.091553	0.000043
C41	C	0.975239	0.222980	0.000024
C42	C	0.976595	0.300488	0.000016
N43	N	0.981769	0.095326	0.228212
N44	N	0.981790	0.095326	-0.228137
C45	C	1.038484	0.047863	0.453943
C46	C	1.038487	0.047861	0.546133
C47	C	0.925069	0.142791	0.546126
C48	C	0.925064	0.142788	0.453938
C49	C	0.981776	0.095325	0.407849
C50	C	0.981784	0.095326	0.592227
C51	C	0.981787	0.095325	0.692183
C52	C	0.981772	0.095326	0.307887
H53	H	0.421532	-0.021243	0.000028
C54	C	0.987042	-0.106176	-0.167609
N55	N	0.987575	-0.076006	-0.233761
C56	C	0.984348	-0.259104	-0.167616
N57	N	0.983823	-0.289265	-0.233768
H58	H	0.384704	0.209569	0.000039
H59	H	0.542014	0.211891	0.000027
C60	C	0.979211	-0.550242	0.167689
N61	N	0.979737	-0.520084	0.233843
H62	H	0.578855	-0.018910	0.000028
C63	C	1.100862	-0.004353	0.403248
N64	N	1.147845	-0.043686	0.365067
C65	C	1.100864	-0.004357	0.596832
N66	N	1.147847	-0.043692	0.635018
H67	H	0.878897	0.181435	0.583662
C68	C	0.984320	-0.259142	0.167703
N69	N	0.983784	-0.289321	0.233848
H70	H	0.878880	0.181438	0.416406
H71	H	0.986812	-0.116611	0.144904
H72	H	0.976721	-0.692727	-0.144829
C73	C	0.979235	-0.550203	-0.167638
N74	N	0.979765	-0.520030	-0.233788
C75	C	0.976523	-0.703171	0.167679
N76	N	0.975991	-0.733350	0.233825
