data_functionalizedCrystal
_audit_creation_method	'MofGen! by Chris Wilmer'
_symmetry_space_group_name_H-M	'P1'
_symmetry_Int_Tables_number	1
_symmetry_cell_setting	triclinic
loop_
_symmetry_equiv_pos_as_xyz
  x,y,z
_cell_length_a	15.944545
_cell_length_b	17.038272
_cell_length_c	15.021413
_cell_angle_alpha	90.004029
_cell_angle_beta	89.995468
_cell_angle_gamma	87.303864
loop_
_atom_site_label
_atom_site_type_symbol
_atom_site_fract_x
_atom_site_fract_y
_atom_site_fract_z
O1	O	1.121729	0.100804	-0.073975
O2	O	1.621729	0.600804	0.426025
O3	O	0.878067	0.113241	-0.073990
O4	O	1.378067	0.613241	0.426010
O5	O	0.998450	-0.006793	-0.073975
O6	O	1.498450	0.493207	0.426025
O7	O	1.001346	0.220838	-0.073989
O8	O	1.501346	0.720838	0.426011
O9	O	0.998431	-0.006776	0.074089
O10	O	1.498431	0.493224	0.574089
O11	O	0.878048	0.113258	0.074075
O12	O	1.378048	0.613258	0.574075
O13	O	1.121710	0.100821	0.074089
O14	O	1.621710	0.600821	0.574089
Zn15	Zn	0.999876	0.107042	0.097590
Zn16	Zn	1.499876	0.607042	0.597590
Zn17	Zn	0.999901	0.107020	-0.097491
Zn18	Zn	1.499901	0.607020	0.402509
O19	O	1.001327	0.220855	0.074075
O20	O	1.501327	0.720855	0.574075
C21	C	0.846727	0.112734	0.000041
C22	C	1.346727	0.612734	0.500041
C23	C	0.753370	0.111189	0.000035
C24	C	1.253370	0.611189	0.500035
C25	C	0.477095	0.032168	0.000050
C26	C	0.977095	0.532168	0.500050
C27	C	0.530387	0.070274	0.073053
C28	C	1.030387	0.570274	0.573053
C29	C	0.417333	0.105678	0.000051
C30	C	0.917333	0.605678	0.500051
C31	C	0.530388	0.070277	-0.072927
C32	C	1.030388	0.570277	0.427073
C33	C	0.582439	0.108381	0.000042
C34	C	1.082439	0.608381	0.500042
C35	C	0.469395	0.143764	0.073114
C36	C	0.969395	0.643764	0.573114
C37	C	0.469392	0.143756	-0.072931
C38	C	0.969392	0.643756	0.427069
C39	C	0.522655	0.181916	0.000090
C40	C	1.022655	0.681916	0.500090
C41	C	0.322219	0.104118	0.000057
C42	C	0.822219	0.604118	0.500057
C43	C	0.677550	0.109947	0.000042
C44	C	1.177550	0.609947	0.500042
C45	C	0.995806	-0.035914	0.000056
C46	C	1.495806	0.464086	0.500056
C47	C	0.987947	-0.122709	0.000056
C48	C	1.487947	0.377291	0.500056
C49	C	1.060104	-0.172803	0.000061
C50	C	1.560104	0.327197	0.500061
C51	C	1.052715	-0.254356	0.000052
C52	C	1.552715	0.245644	0.500052
C53	C	0.973167	-0.285812	0.000044
C54	C	1.473167	0.214188	0.500044
C55	C	0.901004	-0.235712	0.000036
C56	C	1.401004	0.264288	0.500036
C57	C	0.908394	-0.154161	0.000039
C58	C	1.408394	0.345839	0.500039
C59	C	0.947058	-0.531578	0.000031
C60	C	1.447058	-0.031578	0.500031
C61	C	0.939673	-0.613135	0.000031
C62	C	1.439673	-0.113135	0.500031
C63	C	1.091385	-0.631773	0.000045
C64	C	1.591385	-0.131773	0.500045
C65	C	1.098768	-0.550220	0.000053
C66	C	1.598768	-0.050220	0.500053
C67	C	1.026605	-0.500127	0.000040
C68	C	1.526605	-0.000127	0.500040
C69	C	0.965611	-0.369172	0.000038
C70	C	1.465611	0.130828	0.500038
C71	C	1.034161	-0.416768	0.000040
C72	C	1.534161	0.083232	0.500040
C73	C	1.153051	0.101328	0.000057
C74	C	1.653051	0.601328	0.500057
C75	C	1.246407	0.102873	0.000056
C76	C	1.746407	0.602873	0.500056
C77	C	1.003971	0.249976	0.000041
C78	C	1.503971	0.749976	0.500041
C79	C	1.011830	0.336771	0.000036
C80	C	1.511830	0.836771	0.500036
N81	N	0.999865	0.107057	0.230728
N82	N	1.499865	0.607057	0.730728
N83	N	0.999919	0.106998	-0.230628
N84	N	1.499919	0.606998	0.269372
C85	C	0.944188	0.162535	0.470405
C86	C	1.444188	0.662535	0.970405
C87	C	1.021173	0.177712	0.529743
C88	C	1.521173	0.677712	1.029743
C89	C	0.999885	0.107038	0.412335
C90	C	1.499885	0.607038	0.912335
C91	C	0.922922	0.091878	0.529739
C92	C	1.422922	0.591878	1.029739
C93	C	0.999897	0.107020	0.587759
C94	C	1.499897	0.607020	1.087759
C95	C	1.076910	0.122250	0.470366
C96	C	1.576910	0.622250	0.970366
C97	C	0.978607	0.036385	0.470357
C98	C	1.478607	0.536385	0.970357
C99	C	1.055644	0.051532	0.529668
C100	C	1.555644	0.551532	1.029668
C101	C	0.999876	0.107049	0.311277
C102	C	1.499876	0.607049	0.811277
C103	C	0.999914	0.107008	0.688814
C104	C	1.499914	0.607008	1.188814
H105	H	0.542671	0.245272	0.000129
H106	H	1.042671	0.745272	0.500129
C107	C	0.954246	-0.044297	0.435084
C108	C	1.454246	0.455703	0.935084
N109	N	0.935888	-0.105066	0.408513
N110	N	1.435888	0.394934	0.908513
H111	H	0.849635	-0.113374	0.000035
H112	H	1.349635	0.386626	0.500035
H113	H	0.557096	0.039212	-0.134642
H114	H	1.057096	0.539212	0.365358
C115	C	0.433282	0.185646	-0.156319
C116	C	0.933282	0.685646	0.343681
N117	N	0.406081	0.217192	-0.219134
N118	N	0.906081	0.717192	0.280866
H119	H	1.142020	0.135136	0.444396
H120	H	1.642020	0.635136	0.944396
H121	H	0.888297	-0.490801	0.000021
H122	H	1.388297	0.009199	0.500021
H123	H	0.857831	0.079063	0.555821
H124	H	1.357831	0.579063	1.055821
C125	C	1.147614	-0.138209	0.000070
C126	C	1.647614	0.361791	0.500070
N127	N	1.213529	-0.112156	0.000072
N128	N	1.713529	0.387844	0.500072
H129	H	1.039181	0.237454	0.555827
H130	H	1.539181	0.737454	1.055827
C131	C	0.449834	-0.053354	0.000152
C132	C	0.949834	0.446646	0.500152
N133	N	0.429297	-0.117767	0.000235
N134	N	0.929297	0.382233	0.500235
H135	H	1.111474	-0.295140	0.000058
H136	H	1.611474	0.204860	0.500058
H137	H	1.163544	-0.524615	0.000059
H138	H	1.663544	-0.024615	0.500059
H139	H	0.897142	0.209505	0.444383
H140	H	1.397142	0.709505	0.944383
H141	H	0.836234	-0.261330	0.000025
H142	H	1.336234	0.238670	0.500025
C143	C	1.170758	-0.686882	0.000050
C144	C	1.670758	-0.186882	0.500050
N145	N	1.230546	-0.728391	0.000050
N146	N	1.730546	-0.228391	0.500050
C147	C	1.119356	-0.011878	0.564617
C148	C	1.619356	0.488122	1.064617
N149	N	1.167347	-0.059633	0.590946
N150	N	1.667347	0.440367	1.090946
C151	C	0.852160	-0.647735	0.000016
C152	C	1.352160	-0.147735	0.500016
N153	N	0.786249	-0.673795	0.000004
N154	N	1.286249	-0.173795	0.500004
H155	H	0.442793	0.174793	0.134899
H156	H	0.942793	0.674793	0.634899
C157	C	0.566470	0.028343	0.156435
C158	C	1.066470	0.528343	0.656435
N159	N	0.593645	-0.003244	0.219236
N160	N	1.093645	0.496756	0.719236
H161	H	0.900843	-0.394793	0.000034
H162	H	1.400843	0.105207	0.500034
C163	C	1.121662	-0.382163	0.000053
C164	C	1.621662	0.117837	0.500053
N165	N	1.187567	-0.356092	0.000069
N166	N	1.687567	0.143908	0.500069
