data_functionalizedCrystal
_audit_creation_method	'MofGen! by Chris Wilmer'
_symmetry_space_group_name_H-M	'P1'
_symmetry_Int_Tables_number	1
_symmetry_cell_setting	triclinic
loop_
_symmetry_equiv_pos_as_xyz
  x,y,z
_cell_length_a	12.811457
_cell_length_b	11.792241
_cell_length_c	11.295483
_cell_angle_alpha	94.123059
_cell_angle_beta	91.289320
_cell_angle_gamma	84.118185
loop_
_atom_site_label
_atom_site_type_symbol
_atom_site_fract_x
_atom_site_fract_y
_atom_site_fract_z
O1	O	1.389904	0.156789	0.051074
O2	O	1.889904	0.656789	0.551074
O3	O	1.086741	0.170898	0.018332
O4	O	1.586741	0.670898	0.518332
O5	O	1.245679	-0.001280	0.035506
O6	O	1.745679	0.498720	0.535506
O7	O	1.230966	0.328966	0.033900
O8	O	1.730966	0.828966	0.533900
O9	O	1.231719	0.013819	0.232048
O10	O	1.731719	0.513819	0.732048
O11	O	1.072781	0.185997	0.214875
O12	O	1.572781	0.685997	0.714875
O13	O	1.375944	0.171888	0.247616
O14	O	1.875944	0.671888	0.747616
Cu15	Cu	1.223088	0.180321	0.249191
Cu16	Cu	1.723088	0.680321	0.749191
Cu17	Cu	1.239597	0.162465	0.016757
Cu18	Cu	1.739597	0.662465	0.516757
O19	O	1.217006	0.344066	0.230443
O20	O	1.717006	0.844066	0.730443
C21	C	1.040950	0.177194	0.112412
C22	C	1.540950	0.677194	0.612412
C23	C	0.925304	0.173446	0.099922
C24	C	1.425304	0.673446	0.599922
C25	C	0.692772	0.182844	0.290747
C26	C	1.192772	0.682844	0.790747
C27	C	0.584112	0.179323	0.279018
C28	C	1.084112	0.679323	0.779018
C29	C	0.599322	0.162873	0.064736
C30	C	1.099322	0.662873	0.564736
C31	C	0.707982	0.166395	0.076465
C32	C	1.207982	0.666395	0.576465
C33	C	0.754703	0.176382	0.189474
C34	C	1.254703	0.676382	0.689474
C35	C	0.863364	0.179912	0.201202
C36	C	1.363364	0.679912	0.701202
C37	C	0.878573	0.163454	-0.013079
C38	C	1.378573	0.663454	0.486921
C39	C	0.769913	0.159932	-0.024808
C40	C	1.269913	0.659932	0.475192
C41	C	1.237775	-0.036027	0.133677
C42	C	1.737775	0.463973	0.633677
C43	C	1.235009	-0.162059	0.133377
C44	C	1.735009	0.337941	0.633377
C45	C	1.229923	-0.392804	0.132808
C46	C	1.729923	0.107196	0.632808
C47	C	1.232749	-0.264401	0.133124
C48	C	1.732749	0.235599	0.633124
C49	C	1.421736	0.165591	0.153534
C50	C	1.921736	0.665591	0.653534
C51	C	1.537383	0.169339	0.166016
C52	C	2.037383	0.669339	0.666016
C53	C	1.224911	0.378813	0.132269
C54	C	1.724911	0.878813	0.632269
C55	C	1.227678	0.504843	0.132561
C56	C	1.727678	1.004843	0.632561
N57	N	1.211484	0.192880	0.412674
N58	N	1.711484	0.692880	0.912674
N59	N	1.251210	0.149897	-0.146724
N60	N	1.751210	0.649897	0.353276
C61	C	1.334743	0.059429	0.675282
C62	C	1.834743	0.559429	1.175282
C63	C	1.325981	0.068928	0.798999
C64	C	1.825981	0.568928	1.298999
C65	C	1.185194	0.221370	0.783826
C66	C	1.685194	0.721370	1.283826
C67	C	1.193956	0.211871	0.660109
C68	C	1.693956	0.711871	1.160109
C69	C	1.268734	0.130899	0.605842
C70	C	1.768734	0.630899	1.105842
C71	C	1.277500	0.121407	0.482123
C72	C	1.777500	0.621407	0.982123
C73	C	1.136709	0.273843	0.466953
C74	C	1.636709	0.773843	0.966953
C75	C	1.127947	0.283342	0.590669
C76	C	1.627947	0.783342	1.090669
H77	H	0.561265	0.154722	-0.027271
H78	H	1.061265	0.654722	0.472729
H79	H	0.731858	0.151795	-0.116817
H80	H	1.231858	0.651795	0.383183
O81	O	0.743168	0.193626	0.412630
O82	O	1.243168	0.693626	0.912630
H83	H	0.783453	0.272824	0.422135
H84	H	1.283453	0.772824	0.922135
H85	H	0.929008	0.158199	-0.095543
H86	H	1.429008	0.658199	0.404457
H87	H	1.338390	0.055478	0.437940
H88	H	1.838390	0.555478	0.937940
O89	O	0.913760	0.190684	0.323086
O90	O	1.413760	0.690684	0.823086
H91	H	0.954044	0.269883	0.332602
H92	H	1.454044	0.769883	0.832602
H93	H	0.533691	0.184591	0.361485
H94	H	1.033691	0.684591	0.861485
H95	H	1.082963	0.332042	0.410400
H96	H	1.582963	0.832042	0.910400
O97	O	1.415390	-0.027898	0.616737
O98	O	1.915390	0.472102	1.116737
H99	H	1.459818	-0.076005	0.685809
H100	H	1.959818	0.423995	1.185809
H101	H	1.124305	0.287288	0.828027
H102	H	1.624305	0.787288	1.328027
O103	O	1.397186	-0.008144	0.873902
O104	O	1.897186	0.491856	1.373902
H105	H	1.450660	-0.066032	0.815377
H106	H	1.950660	0.433968	1.315377
H107	H	1.067061	0.349265	0.634868
H108	H	1.567061	0.849265	1.134868
