data_functionalizedCrystal
_audit_creation_method	'MofGen! by Chris Wilmer'
_symmetry_space_group_name_H-M	'P1'
_symmetry_Int_Tables_number	1
_symmetry_cell_setting	triclinic
loop_
_symmetry_equiv_pos_as_xyz
  x,y,z
_cell_length_a	18.050591
_cell_length_b	18.050589
_cell_length_c	18.050582
_cell_angle_alpha	90.018205
_cell_angle_beta	90.020922
_cell_angle_gamma	90.024227
loop_
_atom_site_label
_atom_site_type_symbol
_atom_site_fract_x
_atom_site_fract_y
_atom_site_fract_z
Zn1	Zn	-1.135293	0.295786	-0.420054
Zn2	Zn	-0.801959	0.629119	-0.086721
Zn3	Zn	-0.468626	0.962452	0.246613
Zn4	Zn	-1.135203	0.419969	-0.295873
Zn5	Zn	-0.801870	0.753302	0.037460
Zn6	Zn	-0.468537	1.086636	0.370793
Zn7	Zn	-1.011112	0.295789	-0.295865
Zn8	Zn	-0.677778	0.629122	0.037468
Zn9	Zn	-0.344445	0.962455	0.370802
Zn10	Zn	-1.011060	0.419930	-0.420009
Zn11	Zn	-0.677726	0.753263	-0.086676
Zn12	Zn	-0.344393	1.086596	0.246658
O13	O	-1.073167	0.357868	-0.357950
O14	O	-0.739833	0.691202	-0.024617
O15	O	-0.406500	1.024535	0.308716
O16	O	-1.239205	0.312274	-0.403603
O17	O	-0.905872	0.645607	-0.070270
O18	O	-0.572539	0.978941	0.263063
O19	O	-1.118727	0.403514	-0.191948
O20	O	-0.785393	0.736847	0.141386
O21	O	-0.452060	1.070181	0.474719
O22	O	-1.027644	0.191864	-0.312354
O23	O	-0.694310	0.525197	0.020979
O24	O	-0.360977	0.858530	0.354312
O25	O	-1.239140	0.403511	-0.312369
O26	O	-0.905806	0.736844	0.020965
O27	O	-0.572473	1.070178	0.354298
O28	O	-1.118879	0.191862	-0.403595
O29	O	-0.785545	0.525195	-0.070262
O30	O	-0.452212	0.858528	0.263071
O31	O	-1.027557	0.312279	-0.191942
O32	O	-0.694224	0.645613	0.141392
O33	O	-0.360890	0.978946	0.474725
O34	O	-0.907180	0.312241	-0.312311
O35	O	-0.573847	0.645574	0.021023
O36	O	-0.240514	0.978908	0.354356
O37	O	-1.027555	0.403444	-0.523940
O38	O	-0.694222	0.736777	-0.190606
O39	O	-0.360888	1.070111	0.142727
O40	O	-0.907142	0.403447	-0.403519
O41	O	-0.573809	0.736780	-0.070185
O42	O	-0.240475	1.070114	0.263148
O43	O	-1.118828	0.312236	-0.523973
O44	O	-0.785495	0.645569	-0.190639
O45	O	-0.452162	0.978903	0.142694
O46	O	-1.118676	0.523888	-0.312325
O47	O	-0.785343	0.857222	0.021008
O48	O	-0.452010	1.190555	0.354342
O49	O	-1.027468	0.523860	-0.403527
O50	O	-0.694135	0.857193	-0.070193
O51	O	-0.360802	1.190526	0.263140
C52	C	-0.880215	0.357841	-0.357909
C53	C	-0.546881	0.691174	-0.024576
C54	C	-0.213548	1.024507	0.308757
C55	C	-0.797669	0.357847	-0.357909
C56	C	-0.464336	0.691180	-0.024576
C57	C	-0.131002	1.024513	0.308757
C58	C	-1.073077	0.550820	-0.357938
C59	C	-0.739744	0.884154	-0.024605
C60	C	-0.406410	1.217487	0.308729
C61	C	-1.073107	0.633366	-0.357958
C62	C	-0.739773	0.966700	-0.024624
C63	C	-0.406440	1.300033	0.308709
C64	C	-1.073196	0.357835	-0.551656
C65	C	-0.739863	0.691169	-0.218323
C66	C	-0.406529	1.024502	0.115011
C67	C	-1.073208	0.357821	-0.634202
C68	C	-0.739875	0.691155	-0.300868
C69	C	-0.406542	1.024488	0.032465
C70	C	-1.266872	0.357897	-0.357992
C71	C	-0.933539	0.691230	-0.024659
C72	C	-0.600206	1.024563	0.308675
C73	C	-1.349418	0.357909	-0.358010
C74	C	-1.016085	0.691242	-0.024676
C75	C	-0.682751	1.024575	0.308657
C76	C	-0.598217	0.308191	-0.308425
C77	C	-0.264884	0.641525	0.024909
C78	C	0.068449	0.974858	0.358242
C79	C	-0.548798	0.375927	-0.290154
C80	C	-0.215464	0.709261	0.043180
C81	C	0.117869	1.042594	0.376513
C82	C	-0.646539	0.357869	-0.357943
C83	C	-0.313205	0.691203	-0.024610
C84	C	0.020128	1.024536	0.308724
C85	C	-0.548877	0.290157	-0.376212
C86	C	-0.215543	0.623490	-0.042879
C87	C	0.117790	0.956824	0.290455
C88	C	-0.500553	0.357885	-0.357974
C89	C	-0.167220	0.691218	-0.024641
C90	C	0.166113	1.024552	0.308693
C91	C	-0.598206	0.425641	-0.339637
C92	C	-0.264873	0.758974	-0.006303
C93	C	0.068461	1.092307	0.327030
C94	C	-0.598289	0.339825	-0.425726
C95	C	-0.264956	0.673158	-0.092393
C96	C	0.068378	1.006491	0.240940
C97	C	-0.548892	0.407607	-0.407481
C98	C	-0.215558	0.740941	-0.074148
C99	C	0.117775	1.074274	0.259186
C100	C	-0.730637	0.357859	-0.357923
C101	C	-0.397303	0.691192	-0.024590
C102	C	-0.063970	1.024526	0.308744
C103	C	-0.416457	0.357903	-0.357994
C104	C	-0.083124	0.691236	-0.024660
C105	C	0.250210	1.024569	0.308673
C106	C	-1.073277	0.164163	-0.357979
C107	C	-0.739944	0.497496	-0.024646
C108	C	-0.406610	0.830829	0.308688
C109	C	-1.073324	0.081617	-0.357991
C110	C	-0.739991	0.414950	-0.024658
C111	C	-0.406657	0.748284	0.308675
C112	C	-1.023557	0.832828	-0.407536
C113	C	-0.690223	1.166161	-0.074202
C114	C	-0.356890	1.499495	0.259131
C115	C	-1.005459	0.882261	-0.339767
C116	C	-0.672126	1.215594	-0.006433
C117	C	-0.338792	1.548928	0.326900
C118	C	-1.073180	0.784497	-0.357967
C119	C	-0.739846	1.117830	-0.024634
C120	C	-0.406513	1.451163	0.308699
C121	C	-1.091314	0.882146	-0.425744
C122	C	-0.757981	1.215479	-0.092411
C123	C	-0.424647	1.548812	0.240922
C124	C	-1.073249	0.930482	-0.357983
C125	C	-0.739915	1.263815	-0.024649
C126	C	-0.406582	1.597148	0.308684
C127	C	-1.055046	0.832842	-0.290162
C128	C	-0.721713	1.166175	0.043171
C129	C	-0.388380	1.499509	0.376505
C130	C	-1.140933	0.832722	-0.376186
C131	C	-0.807600	1.166056	-0.042852
C132	C	-0.474266	1.499389	0.290481
C133	C	-1.122861	0.882133	-0.308370
C134	C	-0.789527	1.215466	0.024964
C135	C	-0.456194	1.548799	0.358297
C136	C	-1.073138	0.700398	-0.357959
C137	C	-0.739805	1.033732	-0.024626
C138	C	-0.406471	1.367065	0.308707
C139	C	-1.073291	1.014578	-0.357983
C140	C	-0.739957	1.347911	-0.024649
C141	C	-0.406624	1.681245	0.308684
C142	C	-1.023612	0.407353	-0.833635
C143	C	-0.690278	0.740686	-0.500301
C144	C	-0.356945	1.074019	-0.166968
C145	C	-1.091367	0.425511	-0.883034
C146	C	-0.758034	0.758844	-0.549701
C147	C	-0.424700	1.092177	-0.216368
C148	C	-1.073245	0.357765	-0.785332
C149	C	-0.739912	0.691098	-0.451999
C150	C	-0.406578	1.024431	-0.118666
C151	C	-1.005527	0.339586	-0.883014
C152	C	-0.672194	0.672919	-0.549681
C153	C	-0.338860	1.006253	-0.216348
C154	C	-1.073274	0.357711	-0.931317
C155	C	-0.739941	0.691045	-0.597984
C156	C	-0.406608	1.024378	-0.264651
C157	C	-1.141036	0.375958	-0.833645
C158	C	-0.807702	0.709292	-0.500312
C159	C	-0.474369	1.042625	-0.166978
C160	C	-1.055150	0.290002	-0.833620
C161	C	-0.721816	0.623335	-0.500287
C162	C	-0.388483	0.956669	-0.166954
C163	C	-1.122952	0.308134	-0.882998
C164	C	-0.789619	0.641468	-0.549665
C165	C	-0.456285	0.974801	-0.216331
C166	C	-1.073227	0.357797	-0.701234
C167	C	-0.739894	0.691131	-0.367901
C168	C	-0.406560	1.024464	-0.034567
C169	C	-1.073300	0.357679	-1.015414
C170	C	-0.739967	0.691012	-0.682081
C171	C	-0.406633	1.024345	-0.348747
C172	C	-1.073181	0.357848	-0.164998
C173	C	-0.739847	0.691181	0.168335
C174	C	-0.406514	1.024514	0.501668
C175	C	-1.073312	0.357652	-0.082453
C176	C	-0.739979	0.690986	0.250880
C177	C	-0.406645	1.024319	0.584214
H178	H	-0.619875	0.266226	-0.266503
H179	H	-0.286542	0.599559	0.066830
H180	H	0.046791	0.932892	0.400163
H181	H	-0.948195	0.904037	-0.324371
H182	H	-0.614861	1.237370	0.008962
H183	H	-0.281528	1.570704	0.342295
C184	C	-0.670586	0.530862	-0.376740
C185	C	-0.337253	0.864195	-0.043407
C186	C	-0.003920	1.197528	0.289927
C187	C	-0.627330	0.502976	-0.318700
C188	C	-0.293996	0.836309	0.014633
C189	C	0.039337	1.169643	0.347966
H190	H	-0.688570	0.578601	-0.363810
H191	H	-0.355236	0.911935	-0.030477
H192	H	-0.021903	1.245268	0.302857
H193	H	-0.641313	0.534351	-0.420315
H194	H	-0.307980	0.867685	-0.086982
H195	H	0.025353	1.201018	0.246351
H196	H	-0.711220	0.498547	-0.385447
H197	H	-0.377887	0.831881	-0.052114
H198	H	-0.044554	1.165214	0.281220
H199	H	-0.586692	0.535287	-0.309997
H200	H	-0.253359	0.868621	0.023336
H201	H	0.079974	1.201954	0.356670
H202	H	-0.656604	0.499491	-0.275112
H203	H	-0.323271	0.832824	0.058221
H204	H	0.010062	1.166157	0.391555
H205	H	-0.981531	0.811178	-0.449395
H206	H	-0.648197	1.144512	-0.116062
H207	H	-0.314864	1.477845	0.217272
H208	H	-1.106690	0.482794	-0.904739
H209	H	-0.773357	0.816127	-0.571406
H210	H	-0.440023	1.149460	-0.238073
H211	H	-0.620045	0.324530	-0.483019
H212	H	-0.286711	0.657863	-0.149686
H213	H	0.046622	0.991196	0.183648
H214	H	-1.039669	0.811275	-0.232834
H215	H	-0.706336	1.144608	0.100499
H216	H	-0.373003	1.477941	0.433832
H217	H	-0.527169	0.232894	-0.391625
H218	H	-0.193835	0.566228	-0.058292
H219	H	0.139498	0.899561	0.275041
H220	H	-0.948246	0.324232	-0.904701
H221	H	-0.614913	0.657566	-0.571368
H222	H	-0.281580	0.990899	-0.238034
C223	C	-1.160420	0.886161	-0.180843
C224	C	-0.827086	1.219494	0.152491
C225	C	-0.493753	1.552828	0.485824
C226	C	-1.179550	0.911184	-0.251729
C227	C	-0.846217	1.244518	0.081604
C228	C	-0.512883	1.577851	0.414938
H229	H	-1.195413	0.904102	-0.145875
H230	H	-0.862079	1.237435	0.187459
H231	H	-0.528746	1.570769	0.520792
H232	H	-1.160417	0.833545	-0.180251
H233	H	-0.827083	1.166878	0.153083
H234	H	-0.493750	1.500211	0.486416
H235	H	-1.112458	0.903878	-0.168324
H236	H	-0.779125	1.237211	0.165009
H237	H	-0.445792	1.570544	0.498343
H238	H	-1.227509	0.893463	-0.264250
H239	H	-0.894176	1.226796	0.069084
H240	H	-0.560843	1.560130	0.402417
H241	H	-1.179561	0.963812	-0.252323
H242	H	-0.846227	1.297145	0.081011
H243	H	-0.512894	1.630478	0.414344
C244	C	-1.237063	0.828160	-0.468038
C245	C	-0.903730	1.161493	-0.134705
C246	C	-0.570396	1.494827	0.198629
C247	C	-1.218218	0.803318	-0.397011
C248	C	-0.884884	1.136651	-0.063678
C249	C	-0.551551	1.469985	0.269655
H250	H	-1.284774	0.810001	-0.480901
H251	H	-0.951440	1.143334	-0.147568
H252	H	-0.618107	1.476668	0.185765
H253	H	-1.237542	0.880774	-0.468638
H254	H	-0.904209	1.214107	-0.135305
H255	H	-0.570875	1.547440	0.198029
H256	H	-1.201659	0.810540	-0.502746
H257	H	-0.868326	1.143874	-0.169412
H258	H	-0.534992	1.477207	0.163921
H259	H	-1.253619	0.820943	-0.362303
H260	H	-0.920286	1.154276	-0.028969
H261	H	-0.586953	1.487609	0.304364
H262	H	-1.217745	0.750693	-0.396406
H263	H	-0.884411	1.084027	-0.063072
H264	H	-0.551078	1.417360	0.270261
C265	C	-1.178820	0.251479	-0.989645
C266	C	-0.845487	0.584813	-0.656311
C267	C	-0.512153	0.918146	-0.322978
C268	C	-1.179684	0.251484	-0.912077
C269	C	-0.846351	0.584817	-0.578744
C270	C	-0.513018	0.918150	-0.245410
H271	H	-1.213841	0.216502	-1.007595
H272	H	-0.880507	0.549835	-0.674261
H273	H	-0.547174	0.883169	-0.340928
H274	H	-1.191287	0.299442	-1.007312
H275	H	-0.857954	0.632775	-0.673979
H276	H	-0.524620	0.966109	-0.340645
H277	H	-1.130747	0.238479	-1.006632
H278	H	-0.797414	0.571812	-0.673299
H279	H	-0.464080	0.905145	-0.339965
H280	H	-1.227756	0.264490	-0.895089
H281	H	-0.894423	0.597823	-0.561756
H282	H	-0.561089	0.931156	-0.228423
H283	H	-1.167222	0.203510	-0.894402
H284	H	-0.833888	0.536844	-0.561069
H285	H	-0.500555	0.870177	-0.227736
H286	H	-0.981678	0.449342	-0.811961
H287	H	-0.648345	0.782676	-0.478628
H288	H	-0.315012	1.116009	-0.145294
C289	C	-1.217658	0.396657	-0.726929
C290	C	-0.884324	0.729990	-0.393596
C291	C	-0.550991	1.063323	-0.060263
C292	C	-1.218384	0.396784	-0.804499
C293	C	-0.885051	0.730117	-0.471166
C294	C	-0.551717	1.063451	-0.137832
H295	H	-1.265407	0.409520	-0.708937
H296	H	-0.932073	0.742853	-0.375603
H297	H	-0.598740	1.076187	-0.042270
H298	H	-1.204721	0.348694	-0.709604
H299	H	-0.871387	0.682027	-0.376270
H300	H	-0.538054	1.015360	-0.042937
H301	H	-1.182360	0.431680	-0.709641
H302	H	-0.849026	0.765013	-0.376308
H303	H	-0.515693	1.098347	-0.042975
H304	H	-1.253678	0.361756	-0.821787
H305	H	-0.920345	0.695090	-0.488454
H306	H	-0.587012	1.028423	-0.155120
H307	H	-1.231330	0.444754	-0.821831
H308	H	-0.897997	0.778087	-0.488498
H309	H	-0.564663	1.111420	-0.155165
H310	H	-1.039807	0.232736	-0.811899
H311	H	-0.706474	0.566069	-0.478566
H312	H	-0.373141	0.899402	-0.145232
H313	H	-1.106625	0.903802	-0.483056
H314	H	-0.773291	1.237136	-0.149723
H315	H	-0.439958	1.570469	0.183610
H316	H	-0.527370	0.449673	-0.449370
H317	H	-0.194037	0.783007	-0.116037
H318	H	0.139296	1.116340	0.217296
C319	C	-0.544336	0.344447	-0.161004
C320	C	-0.211003	0.677780	0.172329
C321	C	0.122331	1.011113	0.505663
C322	C	-0.519444	0.396547	-0.212791
C323	C	-0.186111	0.729880	0.120542
C324	C	0.147223	1.063214	0.453875
H325	H	-0.526211	0.357172	-0.113245
H326	H	-0.192878	0.690505	0.220089
H327	H	0.140455	1.023839	0.553422
H328	H	-0.596951	0.344151	-0.160322
H329	H	-0.263617	0.677485	0.173011
H330	H	0.069716	1.010818	0.506345
H331	H	-0.526716	0.296683	-0.174320
H332	H	-0.193383	0.630017	0.159014
H333	H	0.139951	0.963350	0.492347
H334	H	-0.537069	0.444310	-0.199479
H335	H	-0.203735	0.777643	0.133854
H336	H	0.129598	1.110977	0.467188
H337	H	-0.466818	0.396850	-0.213472
H338	H	-0.133485	0.730183	0.119862
H339	H	0.199848	1.063517	0.453195
