data_functionalizedCrystal
_audit_creation_method	'MofGen! by Chris Wilmer'
_symmetry_space_group_name_H-M	'P1'
_symmetry_Int_Tables_number	1
_symmetry_cell_setting	triclinic
loop_
_symmetry_equiv_pos_as_xyz
  x,y,z
_cell_length_a	15.944493
_cell_length_b	10.654551
_cell_length_c	9.730223
_cell_angle_alpha	90.004460
_cell_angle_beta	90.003719
_cell_angle_gamma	83.980236
loop_
_atom_site_label
_atom_site_type_symbol
_atom_site_fract_x
_atom_site_fract_y
_atom_site_fract_z
O1	O	1.115490	0.161622	0.114266
O2	O	0.871050	0.181667	0.114272
O3	O	0.998889	-0.011169	0.114266
O4	O	0.987650	0.354458	0.114272
O5	O	0.998879	-0.011181	-0.114314
O6	O	0.871040	0.181655	-0.114308
O7	O	1.115480	0.161610	-0.114314
Zn8	Zn	0.993258	0.171631	-0.150603
Zn9	Zn	0.993272	0.171646	0.150561
O10	O	0.987640	0.354446	-0.114307
C11	C	0.839745	0.180842	-0.000017
C12	C	0.746482	0.178385	-0.000014
C13	C	0.998059	-0.057962	-0.000022
C14	C	0.995589	-0.197373	-0.000015
C15	C	0.994436	-0.262855	0.124585
C16	C	0.992108	-0.393844	0.124586
C17	C	0.992091	-0.393859	-0.124624
C18	C	0.994413	-0.262870	-0.124624
C19	C	0.511380	0.291893	-0.000011
C20	C	0.460462	0.230677	-0.112720
C21	C	0.575735	0.173834	-0.000017
C22	C	0.460476	0.230661	0.112642
C23	C	0.410800	0.169447	-0.000014
C24	C	0.526045	0.112650	-0.112819
C25	C	0.526063	0.112651	0.112644
C26	C	0.475178	0.051348	-0.000092
C27	C	0.670749	0.176365	-0.000020
C28	C	0.315788	0.166907	-0.000020
C29	C	1.146784	0.162435	-0.000021
C30	C	1.240047	0.164892	-0.000015
C31	C	0.988471	0.401239	-0.000017
C32	C	0.990940	0.540650	-0.000014
N33	N	0.993255	0.171620	-0.356139
C34	C	0.941891	0.095441	-0.572002
C35	C	0.941880	0.095423	-0.428119
C36	C	1.044651	0.247829	-0.428049
C37	C	1.044666	0.247839	-0.571930
N38	N	0.993281	0.171647	0.356098
H39	H	0.991167	-0.447154	0.226048
C40	C	0.995720	-0.190809	0.261648
H41	H	0.994692	-0.248572	0.335854
H42	H	1.045522	-0.149297	0.266831
H43	H	0.947722	-0.130124	0.266827
C44	C	0.885377	0.011628	-0.651174
H45	H	0.892739	0.022555	-0.747163
H46	H	0.900484	-0.074289	-0.627605
H47	H	0.828037	0.034930	-0.627610
C48	C	0.990810	-0.465912	-0.261682
H49	H	0.989271	-0.553305	-0.243839
H50	H	0.942292	-0.434865	-0.312883
H51	H	1.040092	-0.454033	-0.312874
C52	C	0.995684	-0.190835	-0.261691
H53	H	0.994663	-0.248604	-0.335903
H54	H	0.947693	-0.130148	-0.266866
H55	H	1.045493	-0.149328	-0.266869
H56	H	0.527592	0.393588	-0.000115
H57	H	0.431809	0.280530	-0.208004
C58	C	0.885330	0.011631	-0.349028
H59	H	0.892679	0.022533	-0.253029
H60	H	0.828003	0.034956	-0.372640
H61	H	0.900429	-0.074296	-0.372607
H62	H	0.459123	-0.050423	-0.000159
C63	C	0.421791	0.298040	0.241359
H64	H	0.433950	0.383443	0.241214
H65	H	0.362434	0.295307	0.240886
H66	H	0.445142	0.256951	0.321389
H67	H	0.554580	0.062817	-0.208200
H68	H	1.086486	0.309863	-0.369432
C69	C	0.564802	0.045370	0.241365
H70	H	0.542249	0.087461	0.321369
H71	H	0.551791	-0.039614	0.242176
H72	H	0.624271	0.046786	0.239981
C73	C	1.101196	0.331674	-0.651026
H74	H	1.131788	0.377063	-0.587557
H75	H	1.139559	0.280240	-0.707149
H76	H	1.067109	0.389455	-0.707154
