data_functionalizedCrystal
_audit_creation_method	'MofGen! by Chris Wilmer'
_symmetry_space_group_name_H-M	'P1'
_symmetry_Int_Tables_number	1
_symmetry_cell_setting	triclinic
loop_
_symmetry_equiv_pos_as_xyz
  x,y,z
_cell_length_a	21.295419
_cell_length_b	21.295417
_cell_length_c	21.295411
_cell_angle_alpha	90.020597
_cell_angle_beta	90.024539
_cell_angle_gamma	90.044503
loop_
_atom_site_label
_atom_site_type_symbol
_atom_site_fract_x
_atom_site_fract_y
_atom_site_fract_z
Zn1	Zn	0.962359	-0.250432	0.355916
Zn2	Zn	0.962263	-0.355684	0.250643
Zn3	Zn	0.857082	-0.250460	0.250661
Zn4	Zn	0.857053	-0.355695	0.355875
O5	O	0.909689	-0.303068	0.303274
O6	O	1.050436	-0.264378	0.341961
O7	O	0.948282	-0.341733	0.162556
O8	O	0.871100	-0.162367	0.264648
O9	O	1.050365	-0.341706	0.264617
O10	O	0.948446	-0.162347	0.341978
O11	O	0.871007	-0.264425	0.162569
O12	O	0.768989	-0.264436	0.264608
O13	O	0.871050	-0.341724	0.443970
O14	O	0.768968	-0.341751	0.341908
O15	O	0.948418	-0.264388	0.444000
O16	O	0.948254	-0.443775	0.264578
O17	O	0.870957	-0.443783	0.341891
C18	C	0.746138	-0.303098	0.303256
C19	C	0.676170	-0.303126	0.303263
C20	C	0.643362	-0.262927	0.343598
C21	C	0.577620	-0.262910	0.343601
C22	C	0.544687	-0.303104	0.303275
C23	C	0.577502	-0.343305	0.262932
C24	C	0.643244	-0.343317	0.262926
N25	N	0.441412	-0.358181	0.298356
N26	N	0.378961	-0.358168	0.298365
C27	C	0.346612	-0.303071	0.303289
N28	N	0.379074	-0.247985	0.308215
N29	N	0.441532	-0.247999	0.308209
C30	C	0.473402	-0.303095	0.303276
C31	C	0.242519	-0.262850	0.343628
C32	C	0.176776	-0.262832	0.343626
C33	C	0.176660	-0.343233	0.262961
C34	C	0.242402	-0.343245	0.262960
C35	C	0.275328	-0.303055	0.303297
C36	C	0.909609	-0.466619	0.303242
C37	C	0.909632	-0.536588	0.303249
C38	C	0.949884	-0.569386	0.343544
C39	C	0.949906	-0.635129	0.343559
C40	C	0.909683	-0.668070	0.303269
C41	C	0.869424	-0.635263	0.262971
C42	C	0.869399	-0.569522	0.262962
N43	N	0.904924	-0.771324	0.248178
N44	N	0.904952	-0.833775	0.248189
C45	C	0.909757	-0.866145	0.303297
N46	N	0.914545	-0.833704	0.358395
N47	N	0.914521	-0.771247	0.358383
C48	C	0.909706	-0.739355	0.303276
C49	C	0.950034	-0.970229	0.343612
C50	C	0.950052	-1.035973	0.343629
C51	C	0.869574	-1.036106	0.263035
C52	C	0.869553	-0.970363	0.263024
C53	C	0.909786	-0.937429	0.303312
C54	C	1.073880	-0.303038	0.303292
C55	C	1.143848	-0.303025	0.303299
C56	C	0.909742	-0.303055	0.467464
C57	C	0.909764	-0.303049	0.537432
C58	C	0.909787	-0.138878	0.303319
C59	C	0.909829	-0.068909	0.303339
C60	C	0.909674	-0.303036	0.139722
C61	C	0.909773	-0.302864	0.069754
C62	C	0.950048	-0.262778	0.570315
C63	C	0.950047	-0.262751	0.636058
C64	C	0.909769	-0.303006	0.668915
C65	C	0.869477	-0.343279	0.636023
C66	C	0.869475	-0.343301	0.570282
N67	N	0.904913	-0.358075	0.772131
N68	N	0.904919	-0.358052	0.834582
C69	C	0.909773	-0.302942	0.866989
N70	N	0.914633	-0.247853	0.834586
N71	N	0.914630	-0.247876	0.772128
C72	C	0.909767	-0.302986	0.740200
C73	C	0.950058	-0.262638	0.971158
C74	C	0.950052	-0.262610	1.036902
C75	C	0.869486	-0.343143	1.036866
C76	C	0.869488	-0.343166	0.971124
C77	C	0.909777	-0.302914	0.938274
H78	H	0.269329	-0.230121	0.376469
F79	F	0.542452	-0.386079	0.220012
H80	H	0.836681	-0.376052	0.662779
F81	F	0.992937	-0.219753	1.071899
H82	H	0.836779	-0.943657	0.230210
H83	H	0.836685	-0.375913	1.063618
H84	H	0.836621	-0.542817	0.230148
F85	F	0.826597	-0.386164	0.535284
F86	F	0.992924	-0.219936	0.535358
H87	H	0.982829	-1.062677	0.376445
H88	H	0.836689	-0.375963	0.944350
F89	F	0.992934	-0.219797	0.936195
F90	F	0.141615	-0.386006	0.220039
H91	H	0.982849	-0.229954	0.662837
H92	H	0.836674	-0.662088	0.230168
F93	F	0.141860	-0.220042	0.386556
F94	F	0.542696	-0.220123	0.386531
F95	F	0.678401	-0.220152	0.386528
H96	H	0.982793	-0.943413	0.376419
F97	F	0.826764	-1.071160	0.220157
H98	H	0.269114	-0.375982	0.230117
F99	F	0.678161	-0.386102	0.219993
H100	H	0.982642	-0.542573	0.376350
F101	F	0.992751	-0.670043	0.386445
