data_functionalizedCrystal
_audit_creation_method	'MofGen! by Chris Wilmer'
_symmetry_space_group_name_H-M	'P1'
_symmetry_Int_Tables_number	1
_symmetry_cell_setting	triclinic
loop_
_symmetry_equiv_pos_as_xyz
  x,y,z
_cell_length_a	12.594517
_cell_length_b	12.594516
_cell_length_c	12.594509
_cell_angle_alpha	89.975348
_cell_angle_beta	90.021621
_cell_angle_gamma	89.984147
loop_
_atom_site_label
_atom_site_type_symbol
_atom_site_fract_x
_atom_site_fract_y
_atom_site_fract_z
Zn1	Zn	1.627270	0.423732	0.601875
Zn2	Zn	1.627160	0.601737	0.423903
Zn3	Zn	1.449273	0.423773	0.423904
Zn4	Zn	1.449256	0.601668	0.601833
O5	O	1.538240	0.512728	0.512879
O6	O	1.776201	0.447357	0.578284
O7	O	1.603524	0.578176	0.274957
O8	O	1.472938	0.274821	0.447530
O9	O	1.776120	0.578136	0.447528
O10	O	1.603711	0.274792	0.578285
O11	O	1.472831	0.447426	0.274958
O12	O	1.300325	0.447359	0.447489
O13	O	1.472909	0.578019	0.750784
O14	O	1.300313	0.578058	0.578213
O15	O	1.603695	0.447290	0.750815
O16	O	1.603508	0.750674	0.447488
O17	O	1.472802	0.750623	0.578212
C18	C	1.261699	0.512706	0.512847
C19	C	1.143393	0.512723	0.512859
C20	C	1.538170	0.789269	0.512868
C21	C	1.538238	0.907574	0.512899
C22	C	1.538312	0.512642	0.790500
C23	C	1.538343	0.512605	0.908805
C24	C	1.074116	0.441538	0.441894
C25	C	1.003305	0.538626	0.415718
C26	C	1.003406	0.415682	0.539054
C27	C	1.074140	0.609862	0.486632
C28	C	1.074247	0.486852	0.610013
C29	C	1.003468	0.584007	0.583874
C30	C	1.815861	0.512750	0.512911
C31	C	1.934166	0.512759	0.512924
C32	C	1.538339	0.235107	0.512912
C33	C	1.538381	0.116801	0.512927
C34	C	1.467140	0.976838	0.583950
C35	C	1.441206	1.047701	0.486827
C36	C	1.564268	1.047510	0.610039
C37	C	1.512252	0.976878	0.415725
C38	C	1.635360	0.976682	0.539002
C39	C	1.609463	1.047512	0.441812
C40	C	1.538229	0.512736	0.236338
C41	C	1.538404	0.512473	0.118033
C42	C	1.467254	0.583620	1.048805
C43	C	1.441231	0.486555	0.978000
C44	C	1.564318	0.609660	0.978039
C45	C	1.512331	0.415355	1.048786
C46	C	1.635464	0.538527	1.048831
C47	C	1.609478	0.441395	0.978058
H48	H	0.972146	0.560531	0.333584
H49	H	1.359123	0.464568	0.946887
N50	N	1.115113	0.718621	0.457195
H51	H	1.195303	0.717929	0.457320
H52	H	1.088602	0.738272	0.384088
H53	H	1.105137	0.381399	0.381807
N54	N	0.962628	0.663849	0.663408
H55	H	0.988498	0.737099	0.643510
H56	H	0.882443	0.662901	0.663405
H57	H	1.669649	1.078349	0.381669
H58	H	1.406908	0.945805	0.643949
N59	N	1.115560	0.457793	0.718773
H60	H	1.195745	0.458681	0.718100
H61	H	1.088667	0.510819	0.772557
N62	N	0.962239	0.306963	0.568371
H63	H	0.987937	0.253242	0.514688
H64	H	0.989160	0.286947	0.641228
N65	N	1.332495	1.089012	0.457573
H66	H	1.278783	1.063309	0.511272
H67	H	1.333620	1.169193	0.457102
N68	N	1.387537	0.663143	1.089969
H69	H	1.406384	0.736326	1.063125
H70	H	1.314246	0.643276	1.064192
N71	N	1.744044	0.935329	0.568269
H72	H	1.763591	0.960974	0.641689
H73	H	1.743271	0.855149	0.567292
N74	N	1.593359	1.088620	0.718834
H75	H	1.539547	1.062912	0.772431
H76	H	1.666161	1.061669	0.739001
H77	H	1.490294	0.333197	1.079732
N78	N	1.689155	0.361692	0.937171
H79	H	1.669423	0.288395	0.963048
H80	H	1.689110	0.362699	0.856986
H81	H	1.490198	0.945981	0.333563
H82	H	1.586264	0.691796	0.946963
N83	N	1.744185	0.567701	1.090088
H84	H	1.743556	0.566749	1.170273
H85	H	1.798067	0.514772	1.063161
