data_functionalizedCrystal
_audit_creation_method	'MofGen! by Chris Wilmer'
_symmetry_space_group_name_H-M	'P1'
_symmetry_Int_Tables_number	1
_symmetry_cell_setting	triclinic
loop_
_symmetry_equiv_pos_as_xyz
  x,y,z
_cell_length_a	21.295418
_cell_length_b	21.295417
_cell_length_c	21.295411
_cell_angle_alpha	89.979403
_cell_angle_beta	89.956262
_cell_angle_gamma	90.045515
loop_
_atom_site_label
_atom_site_type_symbol
_atom_site_fract_x
_atom_site_fract_y
_atom_site_fract_z
Zn1	Zn	0.962359	-0.250415	-0.356238
Zn2	Zn	0.962263	-0.355667	-0.250965
Zn3	Zn	0.857082	-0.250445	-0.250948
Zn4	Zn	0.857053	-0.355680	-0.356162
O5	O	0.909690	-0.303052	-0.303578
O6	O	1.050436	-0.264360	-0.342313
O7	O	0.948283	-0.341716	-0.162874
O8	O	0.871100	-0.162351	-0.264940
O9	O	1.050365	-0.341688	-0.264969
O10	O	0.948447	-0.162330	-0.342296
O11	O	0.871007	-0.264410	-0.162861
O12	O	0.768989	-0.264422	-0.264866
O13	O	0.871050	-0.341709	-0.444262
O14	O	0.768968	-0.341738	-0.342166
O15	O	0.948418	-0.264372	-0.444318
O16	O	0.948254	-0.443758	-0.264895
O17	O	0.870957	-0.443767	-0.342183
C18	C	0.746138	-0.303085	-0.303506
C19	C	0.676170	-0.303114	-0.303490
C20	C	0.909609	-0.466603	-0.303547
C21	C	0.909633	-0.536571	-0.303554
C22	C	0.643308	-0.343426	-0.343680
C23	C	0.577566	-0.343410	-0.343708
C24	C	0.544687	-0.303090	-0.303535
C25	C	0.577557	-0.262770	-0.263342
C26	C	0.643298	-0.262783	-0.263320
N27	N	0.441411	-0.298163	-0.248477
N28	N	0.378960	-0.298155	-0.248501
C29	C	0.346613	-0.303050	-0.303602
N30	N	0.379076	-0.307965	-0.358680
N31	N	0.441533	-0.307976	-0.358656
C32	C	0.473402	-0.303072	-0.303556
C33	C	0.242466	-0.343346	-0.343826
C34	C	0.176722	-0.343326	-0.343855
C35	C	0.176714	-0.262690	-0.263484
C36	C	0.242456	-0.262707	-0.263460
C37	C	0.275328	-0.303038	-0.303630
C38	C	0.949884	-0.569370	-0.343862
C39	C	0.949906	-0.635112	-0.343878
C40	C	0.909684	-0.668054	-0.303574
C41	C	0.869425	-0.635248	-0.263263
C42	C	0.869399	-0.569507	-0.263253
N43	N	0.904924	-0.771307	-0.248481
N44	N	0.904952	-0.833759	-0.248492
C45	C	0.909757	-0.866129	-0.303602
N46	N	0.914546	-0.833687	-0.358702
N47	N	0.914521	-0.771230	-0.358690
C48	C	0.909707	-0.739339	-0.303580
C49	C	0.950035	-0.970212	-0.343931
C50	C	0.950052	-1.035956	-0.343947
C51	C	0.869574	-1.036090	-0.263327
C52	C	0.869553	-0.970348	-0.263316
C53	C	0.909787	-0.937413	-0.303617
C54	C	1.073880	-0.303019	-0.303652
C55	C	1.143848	-0.303005	-0.303683
C56	C	0.909742	-0.303038	-0.467769
C57	C	0.909764	-0.303033	-0.537737
C58	C	0.909787	-0.138861	-0.303624
C59	C	0.909829	-0.068893	-0.303644
C60	C	0.950048	-0.262761	-0.570634
C61	C	0.950047	-0.262734	-0.636376
C62	C	0.909769	-0.302989	-0.669219
C63	C	0.869477	-0.343263	-0.636315
C64	C	0.869475	-0.343285	-0.570573
N65	N	0.904913	-0.358058	-0.772434
N66	N	0.904919	-0.358036	-0.834886
C67	C	0.909773	-0.302926	-0.867294
N68	N	0.914633	-0.247837	-0.834892
N69	N	0.914630	-0.247860	-0.772435
C70	C	0.909767	-0.302970	-0.740505
C71	C	0.950058	-0.262621	-0.971477
C72	C	0.950053	-0.262593	-1.037220
C73	C	0.869486	-0.343128	-1.037158
C74	C	0.869488	-0.343151	-0.971415
C75	C	0.909777	-0.302898	-0.938579
C76	C	0.909674	-0.303019	-0.140027
C77	C	0.909774	-0.302848	-0.070059
H78	H	0.670069	-0.376266	-0.376391
C79	C	0.789844	-0.422891	-0.577116
C80	C	0.825199	-0.387562	-0.534409
H81	H	0.762514	-0.450230	-0.554788
H82	H	0.765779	-0.395461	-0.602735
H83	H	0.817263	-0.446952	-0.602782
H84	H	0.797780	-0.363498	-0.508746
H85	H	0.849265	-0.414995	-0.508779
H86	H	0.550805	-0.376236	-0.376438
C87	C	1.034712	-0.253995	-0.496747
C88	C	0.994310	-0.218501	-0.534531
H89	H	1.062033	-0.226666	-0.474459
H90	H	1.010720	-0.277986	-0.467753
H91	H	1.058791	-0.281399	-0.522409
H92	H	0.970227	-0.191101	-0.508869
H93	H	1.018304	-0.194499	-0.563528
H94	H	0.836674	-0.662073	-0.230449
H95	H	0.982830	-1.062659	-0.376774
H96	H	0.836820	-1.062911	-0.230515
H97	H	0.982860	-0.229842	-0.944740
H98	H	0.836779	-0.943642	-0.230490
C99	C	0.235873	-0.423042	-0.423280
C100	C	0.278604	-0.387668	-0.387989
H101	H	0.258183	-0.450400	-0.450547
H102	H	0.210179	-0.447077	-0.395821
H103	H	0.210285	-0.395636	-0.447414
H104	H	0.304189	-0.415074	-0.363851
H105	H	0.304309	-0.363632	-0.415451
C106	C	1.029696	-0.183144	-0.629842
C107	C	0.994334	-0.218469	-0.672547
H108	H	1.057039	-0.155820	-0.652172
H109	H	1.002286	-0.159074	-0.604184
H110	H	1.053752	-0.210582	-0.604213
H111	H	0.970274	-0.191030	-0.698172
H112	H	1.021746	-0.242541	-0.698215
C113	C	1.029699	-0.183003	-1.030675
C114	C	0.994337	-0.218324	-1.073383
H115	H	1.057042	-0.155676	-1.053002
H116	H	1.002290	-0.158936	-1.005014
H117	H	1.053757	-0.210444	-1.005050
H118	H	0.970276	-0.190883	-1.099005
H119	H	1.021750	-0.242392	-1.099055
C120	C	0.980524	-0.655274	-0.450511
C121	C	0.994147	-0.671179	-0.388190
H122	H	1.007837	-0.677538	-0.477867
H123	H	0.938231	-0.666091	-0.459665
H124	H	0.986274	-0.611408	-0.456269
H125	H	0.988392	-0.715045	-0.382431
H126	H	1.036450	-0.660367	-0.379033
H127	H	0.836621	-0.542802	-0.230429
H128	H	0.670053	-0.229954	-0.230592
H129	H	0.836685	-0.375898	-1.063898
C130	C	0.789857	-0.422753	-0.977959
C131	C	0.825211	-0.387424	-0.935251
H132	H	0.762523	-0.450087	-0.955631
H133	H	0.765798	-0.395323	-1.003582
H134	H	0.817277	-0.446818	-1.003620
H135	H	0.797792	-0.363355	-0.909592
H136	H	0.849273	-0.414858	-0.909616
H137	H	0.982793	-0.943395	-0.376748
H138	H	0.550783	-0.229940	-0.230634
C139	C	0.075952	-0.379107	-0.379581
C140	C	0.140597	-0.387638	-0.388038
H141	H	0.053651	-0.406462	-0.406861
H142	H	0.065123	-0.388254	-0.337278
H143	H	0.065239	-0.336822	-0.388880
H144	H	0.151311	-0.429923	-0.378735
H145	H	0.151430	-0.378496	-0.430351
C146	C	0.075937	-0.226897	-0.227802
C147	C	0.140581	-0.218388	-0.219304
H148	H	0.053630	-0.199552	-0.200519
H149	H	0.065214	-0.217724	-0.270106
H150	H	0.065127	-0.269185	-0.218533
H151	H	0.151392	-0.176101	-0.228578
H152	H	0.151309	-0.227556	-0.176991
C153	C	0.262611	-0.231897	-0.156915
C154	C	0.278583	-0.218401	-0.219275
H155	H	0.284917	-0.204544	-0.129638
H156	H	0.218758	-0.226116	-0.151184
H157	H	0.273336	-0.274182	-0.147630
H158	H	0.267853	-0.176117	-0.228561
H159	H	0.322445	-0.224177	-0.225009
C160	C	0.958563	-0.495391	-0.428540
C161	C	0.994102	-0.533168	-0.388166
H162	H	0.985862	-0.473039	-0.455889
H163	H	0.931140	-0.521059	-0.452585
H164	H	0.934591	-0.466446	-0.404525
H165	H	1.018071	-0.562116	-0.412181
H166	H	1.021536	-0.507498	-0.364119
H167	H	0.836681	-0.376038	-0.663060
