data_functionalizedCrystal
_audit_creation_method	'MofGen! by Chris Wilmer'
_symmetry_space_group_name_H-M	'P1'
_symmetry_Int_Tables_number	1
_symmetry_cell_setting	triclinic
loop_
_symmetry_equiv_pos_as_xyz
  x,y,z
_cell_length_a	10.654550
_cell_length_b	16.109301
_cell_length_c	15.186229
_cell_angle_alpha	90.000638
_cell_angle_beta	89.996404
_cell_angle_gamma	96.026794
loop_
_atom_site_label
_atom_site_type_symbol
_atom_site_fract_x
_atom_site_fract_y
_atom_site_fract_z
O1	O	0.161419	-1.104090	-0.073173
O2	O	0.661419	-0.604090	0.426827
O3	O	0.181507	-0.862148	-0.073187
O4	O	0.681507	-0.362148	0.426813
O5	O	-0.011352	-0.988682	-0.073174
O6	O	0.488648	-0.488682	0.426826
O7	O	0.354278	-0.977556	-0.073185
O8	O	0.854278	-0.477556	0.426815
O9	O	-0.011354	-0.988673	0.073284
O10	O	0.488646	-0.488673	0.573284
O11	O	0.181504	-0.862139	0.073271
O12	O	0.681504	-0.362139	0.573271
O13	O	0.161416	-1.104082	0.073285
O14	O	0.661416	-0.604082	0.573285
Zn15	Zn	0.171460	-0.983109	0.096531
Zn16	Zn	0.671460	-0.483109	0.596531
Zn17	Zn	0.171463	-0.983120	-0.096433
Zn18	Zn	0.671463	-0.483120	0.403567
O19	O	0.354275	-0.977548	0.073272
O20	O	0.854275	-0.477548	0.573272
C21	C	0.180692	-0.831164	0.000040
C22	C	0.680692	-0.331164	0.500040
C23	C	0.178253	-0.738854	0.000035
C24	C	0.678253	-0.238854	0.500035
C25	C	-0.058140	-0.987861	0.000054
C26	C	0.441860	-0.487861	0.500054
C27	C	-0.197550	-0.985417	0.000053
C28	C	0.302450	-0.485417	0.500053
C29	C	0.162231	-1.135066	0.000056
C30	C	0.662231	-0.635066	0.500056
C31	C	0.164671	-1.227376	0.000055
C32	C	0.664671	-0.727376	0.500055
C33	C	-0.278046	-1.059918	0.000057
C34	C	0.221954	-0.559918	0.500057
C35	C	-0.409036	-1.057616	0.000046
C36	C	0.090964	-0.557616	0.500046
C37	C	-0.379020	-0.906306	0.000031
C38	C	0.120980	-0.406306	0.500031
C39	C	-0.248033	-0.908608	0.000035
C40	C	0.251967	-0.408608	0.500035
C41	C	-0.606070	-1.145364	-0.051264
C42	C	-0.106070	-0.645364	0.448736
C43	C	-0.686572	-1.219869	-0.051245
C44	C	-0.186572	-0.719869	0.448755
C45	C	-0.657317	-1.287407	0.000083
C46	C	-0.157317	-0.787407	0.500083
C47	C	-0.547563	-1.280443	0.051414
C48	C	-0.047563	-0.780443	0.551414
C49	C	-0.467068	-1.205937	0.051402
C50	C	0.032932	-0.705937	0.551402
C51	C	-0.496322	-1.138402	0.000054
C52	C	0.003678	-0.638402	0.500054
C53	C	-0.050997	-0.820866	0.051353
C54	C	0.449003	-0.320866	0.551353
C55	C	0.029500	-0.746359	0.051348
C56	C	0.529500	-0.246359	0.551348
C57	C	0.000249	-0.678814	0.000025
C58	C	0.500249	-0.178814	0.500025
C59	C	-0.109507	-0.685769	-0.051292
C60	C	0.390493	-0.185769	0.448708
C61	C	-0.190004	-0.760277	-0.051287
C62	C	0.309996	-0.260277	0.448713
C63	C	-0.160745	-0.827822	0.000034
C64	C	0.339255	-0.327822	0.500034
C65	C	0.401063	-0.978369	0.000042
C66	C	0.901063	-0.478369	0.500042
C67	C	0.540473	-0.980813	0.000037
C68	C	1.040473	-0.480813	0.500037
N69	N	0.171457	-0.983108	0.228224
N70	N	0.671457	-0.483108	0.728224
C71	C	0.287019	-0.517228	0.000042
C72	C	0.787019	-0.017228	0.500042
C73	C	0.284717	-0.430494	0.000048
C74	C	0.784717	0.069506	0.500048
C75	C	0.055896	-0.449008	0.000051
C76	C	0.555896	0.050992	0.500051
C77	C	0.058199	-0.535741	0.000052
C78	C	0.558199	-0.035741	0.500052
C79	C	0.173764	-0.569848	0.000043
C80	C	0.673764	-0.069848	0.500043
C81	C	0.169159	-0.396382	0.000048
C82	C	0.669159	0.103618	0.500048
C83	C	0.166662	-0.302341	0.000054
C84	C	0.666662	0.197659	0.500054
C85	C	0.176262	-0.663895	0.000038
C86	C	0.676262	-0.163895	0.500038
N87	N	0.171457	-0.983129	-0.228126
N88	N	0.671457	-0.483129	0.271874
C89	C	0.086088	-1.039156	0.453952
C90	C	0.586088	-0.539156	0.953952
C91	C	0.086085	-1.039159	0.546142
C92	C	0.586085	-0.539159	1.046142
C93	C	0.256830	-0.927074	0.546140
C94	C	0.756830	-0.427074	1.046140
C95	C	0.256826	-0.927068	0.453952
C96	C	0.756826	-0.427068	0.953952
C97	C	0.171456	-0.983114	0.407860
C98	C	0.671456	-0.483114	0.907860
C99	C	0.171457	-0.983122	0.592238
C100	C	0.671457	-0.483122	1.092238
C101	C	0.171455	-0.983125	0.692194
C102	C	0.671455	-0.483125	1.192194
C103	C	0.171457	-0.983111	0.307898
C104	C	0.671457	-0.483111	0.807898
H105	H	-0.236948	-1.122460	0.000069
H106	H	0.263052	-0.622460	0.500069
H107	H	0.376940	-0.387654	0.000049
H108	H	0.876940	0.112346	0.500049
H109	H	0.016573	-1.084791	0.416427
H110	H	0.516573	-0.584791	0.916427
H111	H	-0.038193	-0.421227	0.000064
H112	H	0.461807	0.078773	0.500064
H113	H	-0.034032	-0.578586	0.000055
H114	H	0.465968	-0.078586	0.500055
H115	H	0.381119	-0.544996	0.000041
H116	H	0.881119	-0.044996	0.500041
H117	H	0.016568	-1.084793	0.583667
H118	H	0.516568	-0.584793	1.083667
H119	H	0.326338	-0.881444	0.583676
H120	H	0.826338	-0.381444	1.083676
O121	O	0.348910	-0.866622	0.404227
O122	O	0.848910	-0.366622	0.904227
H123	H	0.408287	-0.827660	0.451764
H124	H	0.908287	-0.327660	0.951764
H125	H	-0.279365	-0.765940	-0.093086
H126	H	0.220635	-0.265940	0.406914
O127	O	-0.141069	-0.612922	-0.106656
O128	O	0.358931	-0.112922	0.393344
H129	H	-0.066649	-0.559948	-0.098046
H130	H	0.433351	-0.059948	0.401954
O131	O	-0.348718	-1.198414	0.106780
O132	O	0.151282	-0.698414	0.606780
H133	H	-0.297669	-1.135255	0.098154
H134	H	0.202331	-0.635255	0.598154
H135	H	-0.722871	-1.348071	0.000097
H136	H	-0.222871	-0.848071	0.500097
O137	O	-0.516007	-1.353289	0.106779
O138	O	-0.016007	-0.853289	0.606779
H139	H	-0.590411	-1.406271	0.098156
H140	H	-0.090411	-0.906271	0.598156
H141	H	-0.775932	-1.225534	-0.093046
H142	H	-0.275932	-0.725534	0.406954
O143	O	-0.019454	-0.893728	0.106706
O144	O	0.480546	-0.393728	0.606706
H145	H	-0.014311	-0.874947	0.177042
H146	H	0.485689	-0.374947	0.677042
H147	H	-0.420140	-0.843771	0.000018
H148	H	0.079860	-0.343771	0.500018
O149	O	-0.637623	-1.072515	-0.106626
O150	O	-0.137623	-0.572515	0.393374
H151	H	-0.727474	-1.089872	-0.142298
H152	H	-0.227474	-0.589872	0.357702
H153	H	0.118862	-0.740696	0.093145
H154	H	0.618862	-0.240696	0.593145
H155	H	0.065794	-0.618142	0.000037
H156	H	0.565794	-0.118142	0.500037
