data_functionalizedCrystal
_audit_creation_method	'MofGen! by Chris Wilmer'
_symmetry_space_group_name_H-M	'P1'
_symmetry_Int_Tables_number	1
_symmetry_cell_setting	triclinic
loop_
_symmetry_equiv_pos_as_xyz
  x,y,z
_cell_length_a	17.077404
_cell_length_b	11.169416
_cell_length_c	11.169409
_cell_angle_alpha	89.971970
_cell_angle_beta	90.023076
_cell_angle_gamma	89.986686
loop_
_atom_site_label
_atom_site_type_symbol
_atom_site_fract_x
_atom_site_fract_y
_atom_site_fract_z
Zn1	Zn	1.200136	0.477703	0.678683
Zn2	Zn	1.700136	0.977703	1.178683
Zn3	Zn	1.200057	0.678443	0.478015
Zn4	Zn	1.700057	1.178443	0.978015
Zn5	Zn	1.068859	0.477774	0.478006
Zn6	Zn	1.568859	0.977774	0.978006
Zn7	Zn	1.068858	0.678343	0.678648
Zn8	Zn	1.568858	1.178343	1.178648
O9	O	1.134478	0.578066	0.578338
O10	O	1.634478	1.078066	1.078338
O11	O	1.309972	0.504344	0.652082
O12	O	1.809972	1.004344	1.152082
O13	O	1.182621	0.651895	0.310064
O14	O	1.682621	1.151895	0.810064
O15	O	1.086307	0.309814	0.504637
O16	O	1.586307	0.809814	1.004637
O17	O	1.309914	0.651827	0.504652
O18	O	1.809914	1.151827	1.004652
O19	O	1.182755	0.309762	0.652073
O20	O	1.682755	0.809762	1.152073
O21	O	1.086231	0.504464	0.310057
O22	O	1.586231	1.004464	0.810057
O23	O	0.959012	0.504367	0.504603
O24	O	1.459012	1.004367	1.004603
O25	O	1.086305	0.651656	0.846603
O26	O	1.586305	1.151656	1.346603
O27	O	0.959011	0.651725	0.652014
O28	O	1.459011	1.151725	1.152014
O29	O	1.182754	0.504247	0.846628
O30	O	1.682754	1.004247	1.346628
O31	O	1.182620	0.846380	0.504619
O32	O	1.682620	1.346380	1.004619
O33	O	1.086228	0.846306	0.652023
O34	O	1.586228	1.346306	1.152023
C35	C	0.930530	0.578044	0.578305
C36	C	1.430530	1.078044	1.078305
C37	C	0.843280	0.578064	0.578319
C38	C	1.343280	1.078064	1.078319
C39	C	0.802310	0.654908	0.654953
C40	C	1.302310	1.154908	1.154953
C41	C	0.720329	0.654911	0.654972
C42	C	1.220329	1.154911	1.154972
C43	C	0.679321	0.578074	0.578350
C44	C	1.179321	1.078074	1.078350
C45	C	0.720296	0.501220	0.501713
C46	C	1.220296	1.001220	1.001713
C47	C	0.802275	0.501213	0.501701
C48	C	1.302275	1.001213	1.001701
C49	C	0.549426	0.501244	0.501742
C50	C	1.049426	1.001244	1.001742
C51	C	0.467442	0.501253	0.501752
C52	C	0.967442	1.001253	1.001752
C53	C	0.467480	0.654942	0.655013
C54	C	0.967480	1.154942	1.155013
C55	C	0.549459	0.654935	0.655001
C56	C	1.049459	1.154935	1.155001
C57	C	0.590430	0.578083	0.578362
C58	C	1.090430	1.078083	1.078362
C59	C	1.134437	0.889890	0.578344
C60	C	1.634437	1.389890	1.078344
C61	C	1.134491	1.023290	0.578387
C62	C	1.634491	1.523290	1.078387
C63	C	1.339222	0.578088	0.578372
C64	C	1.839222	1.078088	1.078372
C65	C	1.426472	0.578098	0.578386
C66	C	1.926472	1.078098	1.078386
C67	C	1.134538	0.577932	0.891380
C68	C	1.634538	1.077932	1.391380
C69	C	1.134564	0.577876	1.024781
C70	C	1.634564	1.077876	1.524781
C71	C	1.134532	1.265023	0.578370
C72	C	1.634532	1.765023	1.078370
C73	C	1.134535	1.131623	0.578416
C74	C	1.634535	1.631623	1.078416
C75	C	1.134463	0.578112	0.266513
C76	C	1.634463	1.078112	0.766513
C77	C	1.134589	0.577831	0.133114
C78	C	1.634589	1.077831	0.633114
H79	H	0.434055	0.438671	0.439375
H80	H	0.934055	0.938671	0.939375
H81	H	0.686975	0.717487	0.717374
H82	H	1.186975	1.217487	1.217374
Br83	Br	0.857957	0.759202	0.758936
Br84	Br	1.357957	1.259202	1.258936
H85	H	0.582846	0.717509	0.717387
H86	H	1.082846	1.217509	1.217387
H87	H	0.835632	0.438631	0.439304
H88	H	1.335632	0.938631	0.939304
Br89	Br	0.605029	0.396941	0.397733
Br90	Br	1.105029	0.896941	0.897733
H91	H	0.434118	0.717515	0.717419
H92	H	0.934118	1.217515	1.217419
H93	H	0.686901	0.438653	0.439332
H94	H	1.186901	0.938653	0.939332
