data_functionalizedCrystal
_audit_creation_method	'MofGen! by Chris Wilmer'
_symmetry_space_group_name_H-M	'P1'
_symmetry_Int_Tables_number	1
_symmetry_cell_setting	triclinic
loop_
_symmetry_equiv_pos_as_xyz
  x,y,z
_cell_length_a	12.594517
_cell_length_b	12.594516
_cell_length_c	21.395355
_cell_angle_alpha	90.013083
_cell_angle_beta	90.024858
_cell_angle_gamma	90.011616
loop_
_atom_site_label
_atom_site_type_symbol
_atom_site_fract_x
_atom_site_fract_y
_atom_site_fract_z
Zn1	Zn	1.627335	-0.423871	0.354290
Zn2	Zn	1.627228	-0.601835	0.249523
Zn3	Zn	1.449328	-0.423871	0.249526
Zn4	Zn	1.449335	-0.601807	0.354262
O5	O	1.538307	-0.512846	0.301900
O6	O	1.776267	-0.447490	0.340403
O7	O	1.603582	-0.578239	0.161845
O8	O	1.472983	-0.274925	0.263437
O9	O	1.776188	-0.578240	0.263430
O10	O	1.603764	-0.274925	0.340406
O11	O	1.472880	-0.447490	0.161848
O12	O	1.300383	-0.447462	0.263410
O13	O	1.472994	-0.578192	0.441944
O14	O	1.300388	-0.578192	0.340359
O15	O	1.603771	-0.447463	0.441964
O16	O	1.603588	-0.750777	0.263403
O17	O	1.472890	-0.750757	0.340355
C18	C	1.261766	-0.512825	0.301882
C19	C	1.143460	-0.512841	0.301889
C20	C	1.074174	-0.441641	0.260116
C21	C	1.003368	-0.538723	0.244706
C22	C	1.003467	-0.415807	0.317310
C23	C	1.074213	-0.609974	0.286448
C24	C	1.074318	-0.486993	0.359080
C25	C	1.003544	-0.584142	0.343691
C26	C	1.538257	-0.789387	0.301890
C27	C	1.538334	-0.907692	0.301906
C28	C	1.609503	-0.976918	0.260096
C29	C	1.635519	-1.047640	0.317284
C30	C	1.512450	-1.047770	0.244755
C31	C	1.564400	-0.976856	0.359123
C32	C	1.441286	-0.976980	0.286555
C33	C	1.467265	-1.047669	0.343782
C34	C	1.815927	-0.512868	0.301919
C35	C	1.934233	-0.512878	0.301927
C36	C	1.538395	-0.512825	0.465324
C37	C	1.538433	-0.512815	0.534965
C38	C	1.538385	-0.235225	0.301925
C39	C	1.538419	-0.116920	0.301936
C40	C	1.538280	-0.512791	0.139113
C41	C	1.538448	-0.512500	0.069472
C42	C	1.606525	-0.444742	0.567690
C43	C	1.606524	-0.444696	0.633125
C44	C	1.538441	-0.512743	0.665833
C45	C	1.470335	-0.580821	0.633101
C46	C	1.470331	-0.580857	0.567667
C47	C	1.530019	-0.608580	0.769504
C48	C	1.530031	-0.608546	0.834937
C49	C	1.538448	-0.512630	0.867654
C50	C	1.546875	-0.416747	0.834930
C51	C	1.546870	-0.416783	0.769496
C52	C	1.538437	-0.512711	0.736786
C53	C	1.606542	-0.444502	0.971332
C54	C	1.606533	-0.444454	1.036768
C55	C	1.470350	-0.580588	1.036742
C56	C	1.470354	-0.580626	0.971307
C57	C	1.538455	-0.512584	0.938606
H58	H	1.105186	-0.381487	0.224747
C59	C	1.395459	-0.655442	1.072718
N60	N	1.339048	-0.711823	1.099817
H61	H	1.717627	-1.078681	0.330284
C62	C	1.482822	-1.089844	0.179443
N63	N	1.460513	-1.121530	0.130249
C64	C	1.330398	-0.934999	0.268966
N65	N	1.246879	-0.903375	0.255710
H66	H	1.661970	-0.389257	0.659775
C67	C	1.594160	-0.934957	0.424453
N68	N	1.616580	-0.903396	0.473657
C69	C	1.116463	-0.457382	0.424375
N70	N	1.148211	-0.435066	0.473555
C71	C	0.961260	-0.568285	0.179390
N72	N	0.929545	-0.590542	0.130193
H73	H	1.105159	-0.692075	0.273367
H74	H	1.407116	-1.078539	0.379193
H75	H	0.972335	-0.333742	0.330316
H76	H	1.669698	-0.945852	0.224771
H77	H	0.972727	-0.644439	0.379033
H78	H	1.661977	-0.389335	0.541068
H79	H	1.414912	-0.636066	0.944662
H80	H	1.553729	-0.338711	0.742855
C81	C	1.556131	-0.311230	0.870914
N82	N	1.563104	-0.231759	0.898020
H83	H	1.414899	-0.636222	0.659736
H84	H	1.661988	-0.389092	0.944705
H85	H	1.661980	-0.389014	1.063412
H86	H	1.523176	-0.686620	0.861576
H87	H	1.522881	-0.686666	0.742872
C88	C	1.395423	-0.655749	0.531668
N89	N	1.339003	-0.712161	0.504553
