data_functionalizedCrystal
_audit_creation_method	'MofGen! by Chris Wilmer'
_symmetry_space_group_name_H-M	'P1'
_symmetry_Int_Tables_number	1
_symmetry_cell_setting	triclinic
loop_
_symmetry_equiv_pos_as_xyz
  x,y,z
_cell_length_a	13.897449
_cell_length_b	18.050589
_cell_length_c	13.897441
_cell_angle_alpha	90.027672
_cell_angle_beta	89.976606
_cell_angle_gamma	89.964475
loop_
_atom_site_label
_atom_site_type_symbol
_atom_site_fract_x
_atom_site_fract_y
_atom_site_fract_z
Zn1	Zn	1.474589	0.295619	-0.545469
Zn2	Zn	1.974589	0.795619	-0.045469
Zn3	Zn	1.474435	0.419824	-0.384179
Zn4	Zn	1.974435	0.919824	0.115821
Zn5	Zn	1.313278	0.295654	-0.384180
Zn6	Zn	1.813278	0.795654	0.115820
Zn7	Zn	1.313212	0.419774	-0.545424
Zn8	Zn	1.813212	0.919774	-0.045424
O9	O	1.393878	0.357718	-0.464813
O10	O	1.893878	0.857718	0.035187
O11	O	1.609550	0.312102	-0.524092
O12	O	2.109550	0.812102	-0.024092
O13	O	1.453020	0.403387	-0.249197
O14	O	1.953020	0.903387	0.250803
O15	O	1.334768	0.191725	-0.405595
O16	O	1.834768	0.691725	0.094405
O17	O	1.609437	0.403354	-0.405593
O18	O	2.109437	0.903354	0.094407
O19	O	1.453283	0.191699	-0.524093
O20	O	1.953283	0.691699	-0.024093
O21	O	1.334619	0.312160	-0.249198
O22	O	1.834619	0.812160	0.250802
O23	O	1.178287	0.312112	-0.405551
O24	O	1.678287	0.812112	0.094449
O25	O	1.334655	0.403269	-0.680412
O26	O	1.834655	0.903269	-0.180412
O27	O	1.178239	0.403303	-0.524016
O28	O	1.678239	0.903303	-0.024016
O29	O	1.453218	0.312054	-0.680445
O30	O	1.953218	0.812054	-0.180445
O31	O	1.452956	0.523742	-0.405549
O32	O	1.952956	1.023742	0.094451
O33	O	1.334506	0.523705	-0.524015
O34	O	1.834506	1.023705	-0.024015
C35	C	1.143264	0.357706	-0.464779
C36	C	1.643264	0.857706	0.035221
C37	C	1.036050	0.357719	-0.464788
C38	C	1.536050	0.857719	0.035212
C39	C	0.948980	0.357722	-0.464804
C40	C	1.448980	0.857722	0.035196
C41	C	0.839748	0.357727	-0.464833
C42	C	1.339748	0.857727	0.035167
C43	C	1.393733	0.550670	-0.464798
C44	C	1.893733	1.050670	0.035202
C45	C	1.393760	0.633216	-0.464824
C46	C	1.893760	1.133216	0.035176
C47	C	1.329381	0.832673	-0.529224
C48	C	1.829381	1.332673	-0.029224
C49	C	1.305856	0.882119	-0.441204
C50	C	1.805856	1.382119	0.058796
C51	C	1.393832	0.784346	-0.464837
C52	C	1.893832	1.284346	0.035163
C53	C	1.417382	0.881982	-0.552867
C54	C	1.917382	1.381982	-0.052867
C55	C	1.393901	0.930331	-0.464858
C56	C	1.893901	1.430331	0.035142
C57	C	1.370262	0.832704	-0.376771
C58	C	1.870262	1.332704	0.123229
C59	C	1.481829	0.832563	-0.488493
C60	C	1.981829	1.332563	0.011507
C61	C	1.458338	0.881986	-0.400413
C62	C	1.958338	1.381986	0.099587
C63	C	1.393791	0.700248	-0.464826
C64	C	1.893791	1.200248	0.035174
C65	C	1.393943	1.014428	-0.464858
C66	C	1.893943	1.514428	0.035142
C67	C	1.645471	0.357730	-0.464847
C68	C	2.145471	0.857730	0.035153
C69	C	1.752685	0.357735	-0.464862
C70	C	2.252685	0.857735	0.035138
C71	C	1.393947	0.357652	-0.716406
C72	C	1.893947	0.857652	-0.216406
C73	C	1.393976	0.357624	-0.823620
C74	C	1.893976	0.857624	-0.323620
C75	C	1.394013	1.164012	-0.464850
C76	C	1.894013	1.664012	0.035150
C77	C	1.393976	1.081466	-0.464869
C78	C	1.893976	1.581466	0.035131
C79	C	1.394002	0.357574	-1.019915
C80	C	1.894002	0.857574	-0.519915
C81	C	1.393985	0.357604	-0.910683
C82	C	1.893985	0.857604	-0.410683
C83	C	1.393866	0.357729	-0.214199
C84	C	1.893866	0.857729	0.285801
C85	C	1.394023	0.357548	-0.106985
C86	C	1.894023	0.857548	0.393015
H87	H	1.274805	0.811020	-0.583596
H88	H	1.774805	1.311020	-0.083596
O89	O	1.441235	0.907894	-0.641594
O90	O	1.941235	1.407894	-0.141594
C91	C	1.525752	0.950767	-0.635046
C92	C	2.025752	1.450767	-0.135046
H93	H	1.534349	0.972090	-0.558306
H94	H	2.034349	1.472090	-0.058306
H95	H	1.520664	0.999705	-0.686619
H96	H	2.020664	1.499705	-0.186619
H97	H	1.590583	0.915175	-0.654917
H98	H	2.090583	1.415175	-0.154917
O99	O	1.217186	0.908216	-0.417310
O100	O	1.717186	1.408216	0.082690
C101	C	1.218684	0.986316	-0.416825
C102	C	1.718684	1.486316	0.083175
H103	H	1.295623	1.006418	-0.405669
H104	H	1.795623	1.506418	0.094331
H105	H	1.171245	1.007733	-0.355913
H106	H	1.671245	1.507733	0.144087
H107	H	1.190397	1.007951	-0.488497
H108	H	1.690397	1.507951	0.011503
O109	O	1.523288	0.907628	-0.335264
O110	O	2.023288	1.407628	0.164736
C111	C	1.498151	0.882368	-0.242623
C112	C	1.998151	1.382368	0.257377
H113	H	1.418117	0.868641	-0.240711
H114	H	1.918117	1.368641	0.259289
H115	H	1.514391	0.927447	-0.187503
H116	H	2.014391	1.427447	0.312497
H117	H	1.541617	0.830594	-0.224742
H118	H	2.041617	1.330594	0.275258
H119	H	1.350284	0.811148	-0.302313
H120	H	1.850284	1.311148	0.197687
O121	O	1.570500	0.806448	-0.512327
O122	O	2.070500	1.306448	-0.012327
C123	C	1.569419	0.728348	-0.511135
C124	C	2.069419	1.228348	-0.011135
H125	H	1.508447	0.708281	-0.462855
H126	H	2.008447	1.208281	0.037145
H127	H	1.640984	0.706942	-0.482252
H128	H	2.140984	1.206942	0.017748
H129	H	1.557952	0.706668	-0.587331
H130	H	2.057952	1.206668	-0.087331
