data_functionalizedCrystal
_audit_creation_method	'MofGen! by Chris Wilmer'
_symmetry_space_group_name_H-M	'P1'
_symmetry_Int_Tables_number	1
_symmetry_cell_setting	triclinic
loop_
_symmetry_equiv_pos_as_xyz
  x,y,z
_cell_length_a	25.639243
_cell_length_b	13.897447
_cell_length_c	13.897441
_cell_angle_alpha	90.029327
_cell_angle_beta	90.024451
_cell_angle_gamma	90.022254
loop_
_atom_site_label
_atom_site_type_symbol
_atom_site_fract_x
_atom_site_fract_y
_atom_site_fract_z
Zn1	Zn	0.799339	-0.383914	0.545485
Zn2	Zn	1.299339	0.116086	1.045485
Zn3	Zn	0.799278	-0.545236	0.384190
Zn4	Zn	1.299278	-0.045236	0.884190
Zn5	Zn	0.711902	-0.383964	0.384193
Zn6	Zn	1.211902	0.116036	0.884193
Zn7	Zn	0.711889	-0.545176	0.545433
Zn8	Zn	1.211889	-0.045176	1.045433
O9	O	0.755602	-0.464573	0.464825
O10	O	1.255602	0.035427	0.964825
O11	O	0.872496	-0.405318	0.524110
O12	O	1.372496	0.094682	1.024110
O13	O	0.787668	-0.523888	0.249209
O14	O	1.287668	-0.023888	0.749209
O15	O	0.723531	-0.248976	0.405612
O16	O	1.223531	0.251024	0.905612
O17	O	0.872451	-0.523840	0.405607
O18	O	1.372451	-0.023840	0.905607
O19	O	0.787770	-0.248939	0.524113
O20	O	1.287770	0.251061	1.024113
O21	O	0.723473	-0.405403	0.249211
O22	O	1.223473	0.094597	0.749211
O23	O	0.638735	-0.405345	0.405561
O24	O	1.138735	0.094655	0.905561
O25	O	0.723509	-0.523739	0.680421
O26	O	1.223509	-0.023739	1.180421
O27	O	0.638726	-0.523787	0.524023
O28	O	1.138726	-0.023787	1.024023
O29	O	0.787758	-0.405260	0.680460
O30	O	1.287758	0.094740	1.180460
O31	O	0.787655	-0.680209	0.405556
O32	O	1.287655	-0.180209	0.905556
O33	O	0.723451	-0.680166	0.524020
O34	O	1.223451	-0.180166	1.024020
C35	C	0.755559	-0.715187	0.464803
C36	C	1.255559	-0.215187	0.964803
C37	C	0.755589	-0.822401	0.464826
C38	C	1.255589	-0.322401	0.964826
C39	C	0.619759	-0.464566	0.464787
C40	C	1.119759	0.035434	0.964787
C41	C	0.561645	-0.464586	0.464794
C42	C	1.061645	0.035414	0.964794
C43	C	0.755614	-0.909471	0.464848
C44	C	1.255614	-0.409471	0.964848
C45	C	0.755651	-1.018703	0.464873
C46	C	1.255651	-0.518703	0.964873
C47	C	0.201300	-0.402955	0.526633
C48	C	0.701300	0.097045	1.026633
C49	C	0.146695	-0.402954	0.526639
C50	C	0.646695	0.097046	1.026639
O51	O	0.118474	-0.350535	0.579169
O52	O	0.618474	0.149465	1.079169
N53	N	0.119363	-0.464570	0.464852
N54	N	0.619363	0.035430	0.964852
C55	C	0.146637	-0.526183	0.403048
C56	C	0.646637	-0.026183	0.903048
O57	O	0.118375	-0.578591	0.350494
O58	O	0.618375	-0.078591	0.850494
C59	C	0.201241	-0.526178	0.403038
C60	C	0.701241	-0.026178	0.903038
C61	C	0.228571	-0.464566	0.464836
C62	C	0.728571	0.035434	0.964836
C63	C	0.228630	-0.341346	0.588425
C64	C	0.728630	0.158654	1.088425
C65	C	0.283230	-0.341349	0.588420
C66	C	0.783230	0.158651	1.088420
C67	C	0.310501	-0.402960	0.526623
C68	C	0.810501	0.097040	1.026623
C69	C	0.283171	-0.464568	0.464831
C70	C	0.783171	0.035432	0.964831
C71	C	0.228514	-0.587786	0.341230
C72	C	0.728514	-0.087786	0.841230
C73	C	0.283121	-0.587776	0.341225
C74	C	0.783121	-0.087776	0.841225
C75	C	0.310451	-0.526163	0.403023
C76	C	0.810451	-0.026163	0.903023
C77	C	0.365042	-0.526181	0.403029
C78	C	0.865042	-0.026181	0.903029
N79	N	0.392375	-0.464566	0.464816
N80	N	0.892375	0.035434	0.964816
C81	C	0.365104	-0.402955	0.526613
C82	C	0.865104	0.097045	1.026613
C83	C	0.031967	-0.526187	0.403073
C84	C	0.531967	-0.026187	0.903073
C85	C	-0.022636	-0.526198	0.403087
C86	C	0.477364	-0.026198	0.903087
C87	C	-0.022574	-0.402967	0.526677
C88	C	0.477426	0.097033	1.026677
C89	C	0.032030	-0.402962	0.526667
C90	C	0.532030	0.097038	1.026667
C91	C	0.059299	-0.464572	0.464860
C92	C	0.559299	0.035428	0.964860
C93	C	0.479769	-0.402965	0.526598
C94	C	0.979769	0.097035	1.026598
C95	C	0.534375	-0.402976	0.526591
C96	C	1.034375	0.097024	1.026591
C97	C	0.534308	-0.526202	0.402998
C98	C	1.034308	-0.026202	0.902998
C99	C	0.479707	-0.526196	0.403009
C100	C	0.979707	-0.026196	0.903009
C101	C	0.452439	-0.464569	0.464812
C102	C	0.952439	0.035431	0.964812
O103	O	0.393299	-0.578571	0.350523
O104	O	0.893299	-0.078571	0.850523
O105	O	0.393373	-0.350546	0.579149
O106	O	0.893373	0.149454	1.079149
C107	C	0.891975	-0.464580	0.464864
C108	C	1.391975	0.035420	0.964864
C109	C	0.950089	-0.464583	0.464881
C110	C	1.450089	0.035417	0.964881
C111	C	0.755639	-0.464487	0.716419
C112	C	1.255639	0.035513	1.216419
C113	C	0.755655	-0.464451	0.823633
C114	C	1.255655	0.035549	1.323633
C115	C	0.755659	-0.212980	0.464869
C116	C	1.255659	0.287020	0.964869
C117	C	0.755683	-0.105766	0.464888
C118	C	1.255683	0.394234	0.964888
C119	C	0.755595	-0.464588	0.214211
C120	C	1.255595	0.035412	0.714211
C121	C	0.755681	-0.464352	0.106998
C122	C	1.255681	0.035648	0.606998
C123	C	0.755669	-0.464386	1.019928
C124	C	1.255669	0.035614	1.519928
C125	C	0.755660	-0.464425	0.910695
C126	C	1.255660	0.035575	1.410695
H127	H	0.556624	-0.352802	0.576917
H128	H	1.056624	0.147198	1.076917
C129	C	-0.052582	-0.335187	0.594649
C130	C	0.447418	0.164813	1.094649
N131	N	-0.075186	-0.284139	0.645842
N132	N	0.424814	0.215861	1.145842
H133	H	0.457574	-0.352780	0.576921
H134	H	0.957574	0.147220	1.076921
H135	H	0.305322	-0.637946	0.290892
H136	H	0.805322	-0.137946	0.790892
C137	C	0.449644	-0.593981	0.335037
C138	C	0.949644	-0.093981	0.835037
N139	N	0.427004	-0.645032	0.283833
N140	N	0.927004	-0.145032	0.783833
H141	H	0.305477	-0.291176	0.638740
H142	H	0.805477	0.208824	1.138740
C143	C	-0.052692	-0.593982	0.335110
C144	C	0.447308	-0.093982	0.835110
N145	N	-0.075329	-0.645033	0.283901
N146	N	0.424671	-0.145033	0.783901
C147	C	0.564316	-0.593963	0.335017
C148	C	1.064316	-0.093963	0.835017
N149	N	0.586920	-0.644994	0.283806
N150	N	1.086920	-0.144994	0.783806
C151	C	0.061959	-0.593978	0.335087
C152	C	0.561959	-0.093978	0.835087
N153	N	0.084546	-0.645039	0.283881
N154	N	0.584546	-0.145039	0.783881
H155	H	0.206272	-0.637957	0.290907
H156	H	0.706272	-0.137957	0.790907
C157	C	0.198640	-0.273567	0.656416
C158	C	0.698640	0.226433	1.156416
N159	N	0.176056	-0.222518	0.707638
N160	N	0.676056	0.277482	1.207638
H161	H	0.054278	-0.352790	0.576986
H162	H	0.554278	0.147210	1.076986
