data_functionalizedCrystal
_audit_creation_method	'MofGen! by Chris Wilmer'
_symmetry_space_group_name_H-M	'P1'
_symmetry_Int_Tables_number	1
_symmetry_cell_setting	triclinic
loop_
_symmetry_equiv_pos_as_xyz
  x,y,z
_cell_length_a	10.489741
_cell_length_b	16.109301
_cell_length_c	15.186229
_cell_angle_alpha	90.000638
_cell_angle_beta	89.996534
_cell_angle_gamma	95.999673
loop_
_atom_site_label
_atom_site_type_symbol
_atom_site_fract_x
_atom_site_fract_y
_atom_site_fract_z
O1	O	0.163947	-1.104141	-0.073172
O2	O	0.184350	-0.862205	-0.073186
O3	O	-0.011529	-0.988678	-0.073174
O4	O	0.359826	-0.977668	-0.073185
O5	O	-0.011532	-0.988670	0.073284
O6	O	0.184347	-0.862196	0.073271
O7	O	0.163944	-1.104133	0.073285
Zn8	Zn	0.174145	-0.983163	0.096531
Zn9	Zn	0.174149	-0.983174	-0.096433
O10	O	0.359823	-0.977659	0.073272
C11	C	0.183522	-0.831221	0.000041
C12	C	0.181044	-0.738910	0.000035
C13	C	0.164772	-1.135117	0.000056
C14	C	0.167250	-1.227427	0.000056
C15	C	-0.059050	-0.987842	0.000054
C16	C	-0.200644	-0.985354	0.000053
C17	C	-0.267616	-0.904883	0.000042
C18	C	-0.360292	-0.942893	0.072255
C19	C	-0.360264	-0.942920	-0.072141
C20	C	-0.291454	-1.023397	0.072325
C21	C	-0.291417	-1.023413	-0.072135
C22	C	-0.384066	-1.061482	0.000096
C23	C	0.407344	-0.978495	0.000042
C24	C	0.548938	-0.980983	0.000038
N25	N	0.174142	-0.983162	0.228224
C26	C	0.291514	-0.517319	0.000042
C27	C	0.289175	-0.430584	0.000048
C28	C	0.056771	-0.449026	0.000051
C29	C	0.059111	-0.535759	0.000052
C30	C	0.176486	-0.569903	0.000043
C31	C	0.171808	-0.396435	0.000048
C32	C	0.169272	-0.302393	0.000054
C33	C	0.179022	-0.663950	0.000038
N34	N	0.174142	-0.983183	-0.228125
C35	C	0.087436	-1.039183	0.453952
C36	C	0.087433	-1.039186	0.546142
C37	C	0.260852	-0.927155	0.546140
C38	C	0.260848	-0.927149	0.453952
C39	C	0.174141	-0.983168	0.407860
C40	C	0.174142	-0.983176	0.592238
C41	C	0.174140	-0.983179	0.692194
C42	C	0.174142	-0.983165	0.307898
H43	H	-0.217005	-0.838720	0.000110
H44	H	0.382843	-0.387773	0.000049
O45	O	-0.006084	-1.099612	0.595847
H46	H	-0.068108	-1.064254	0.637848
O47	O	-0.069823	-0.412200	0.000055
H48	H	-0.052128	-0.343055	0.000046
H49	H	-0.034565	-0.578575	0.000055
O50	O	-0.250925	-1.068483	-0.152997
H51	H	-0.278158	-1.034956	-0.212858
H52	H	0.016832	-1.084796	0.416427
H53	H	0.331455	-0.881530	0.416421
H54	H	0.331449	-0.881546	0.583677
H55	H	-0.390810	-0.908840	0.133302
O56	O	-0.400658	-0.897816	-0.153011
H57	H	-0.314750	-0.876681	-0.192967
O58	O	-0.251287	-1.068452	0.153291
H59	H	-0.145737	-1.069916	0.152680
H60	H	0.387088	-0.545116	0.000042
H61	H	-0.434450	-1.127704	0.000140
