data_functionalizedCrystal
_audit_creation_method	'MofGen! by Chris Wilmer'
_symmetry_space_group_name_H-M	'P1'
_symmetry_Int_Tables_number	1
_symmetry_cell_setting	triclinic
loop_
_symmetry_equiv_pos_as_xyz
  x,y,z
_cell_length_a	16.625548
_cell_length_b	12.759399
_cell_length_c	12.759393
_cell_angle_alpha	90.031461
_cell_angle_beta	89.977740
_cell_angle_gamma	89.983816
loop_
_atom_site_label
_atom_site_type_symbol
_atom_site_fract_x
_atom_site_fract_y
_atom_site_fract_z
Zn1	Zn	1.232735	0.418180	-0.594067
Zn2	Zn	1.566068	0.751513	-0.260734
Zn3	Zn	1.899402	1.084846	0.072599
Zn4	Zn	1.232652	0.593897	-0.418386
Zn5	Zn	1.565985	0.927230	-0.085053
Zn6	Zn	1.899318	1.260564	0.248281
Zn7	Zn	1.097893	0.418236	-0.418397
Zn8	Zn	1.431226	0.751569	-0.085064
Zn9	Zn	1.764560	1.084903	0.248270
Zn10	Zn	1.097885	0.593821	-0.594018
Zn11	Zn	1.431218	0.927154	-0.260684
Zn12	Zn	1.764551	1.260487	0.072649
O13	O	1.165291	0.506033	-0.506217
O14	O	1.498624	0.839367	-0.172884
O15	O	1.831958	1.172700	0.160450
O16	O	1.345556	0.441498	-0.570779
O17	O	1.678890	0.774831	-0.237446
O18	O	2.012223	1.108164	0.095888
O19	O	1.214744	0.570651	-0.271366
O20	O	1.548078	0.903984	0.061967
O21	O	1.881411	1.237317	0.395300
O22	O	1.115818	0.271207	-0.441725
O23	O	1.449152	0.604541	-0.108392
O24	O	1.782485	0.937874	0.224942
O25	O	1.345495	0.570596	-0.441707
O26	O	1.678828	0.903930	-0.108373
O27	O	2.012162	1.237263	0.224960
O28	O	1.214886	0.271166	-0.570789
O29	O	1.548220	0.604499	-0.237456
O30	O	1.881553	0.937833	0.095877
O31	O	1.115738	0.441593	-0.271374
O32	O	1.449071	0.774927	0.061959
O33	O	1.782404	1.108260	0.395292
O34	O	0.985059	0.441519	-0.441677
O35	O	1.318393	0.774852	-0.108344
O36	O	1.651726	1.108186	0.224989
O37	O	1.115804	0.570466	-0.741046
O38	O	1.449138	0.903799	-0.407712
O39	O	1.782471	1.237133	-0.074379
O40	O	0.985053	0.570520	-0.570705
O41	O	1.318387	0.903854	-0.237372
O42	O	1.651720	1.237187	0.095961
O43	O	1.214878	0.441423	-0.741082
O44	O	1.548212	0.774757	-0.407748
O45	O	1.881545	1.108090	-0.074415
O46	O	1.214736	0.740908	-0.441659
O47	O	1.548069	1.074241	-0.108325
O48	O	1.881403	1.407575	0.225008
O49	O	1.115723	0.740852	-0.570695
O50	O	1.449057	1.074185	-0.237361
O51	O	1.782390	1.407518	0.095972
C52	C	1.165242	0.779001	-0.506193
C53	C	1.498575	1.112334	-0.172860
C54	C	1.831908	1.445667	0.160474
C55	C	1.165294	0.895777	-0.506218
C56	C	1.498628	1.229111	-0.172885
C57	C	1.831961	1.562444	0.160449
C58	C	0.955800	0.506018	-0.506188
C59	C	1.289134	0.839352	-0.172854
C60	C	1.622467	1.172685	0.160479
C61	C	0.866179	0.506037	-0.506200
C62	C	1.199512	0.839370	-0.172867
C63	C	1.532846	1.172704	0.160467
C64	C	1.165350	0.505930	-0.780250
C65	C	1.498683	0.839263	-0.446917
C66	C	1.832016	1.172596	-0.113584
C67	C	1.165375	0.505886	-0.897027
C68	C	1.498708	0.839219	-0.563694
C69	C	1.832041	1.172552	-0.230361
C70	C	0.538004	0.506044	-0.506245
C71	C	0.871337	0.839377	-0.172912
C72	C	1.204670	1.172711	0.160422
C73	C	0.629312	0.506039	-0.506229
C74	C	0.962645	0.839373	-0.172896
C75	C	1.295979	1.172706	0.160438
C76	C	0.702088	0.506041	-0.506222
C77	C	1.035422	0.839374	-0.172888
C78	C	1.368755	1.172708	0.160445
C79	C	0.793403	0.506035	-0.506207
C80	C	1.126736	0.839369	-0.172874
C81	C	1.460069	1.172702	0.160459
C82	C	1.375600	0.506049	-0.506247
C83	C	1.708933	0.839382	-0.172914
C84	C	2.042267	1.172716	0.160420
C85	C	1.465221	0.506056	-0.506260
C86	C	1.798554	0.839389	-0.172927
C87	C	2.131888	1.172723	0.160407
C88	C	1.165363	0.232000	-0.506264
C89	C	1.498696	0.565333	-0.172931
C90	C	1.832029	0.898667	0.160403
C91	C	1.165393	0.115223	-0.506284
C92	C	1.498727	0.448557	-0.172951
C93	C	1.832060	0.781890	0.160383
C94	C	1.216909	0.950634	-0.439105
C95	C	1.550242	1.283967	-0.105772
C96	C	1.883576	1.617300	0.227561
C97	C	1.216961	1.060358	-0.439141
C98	C	1.550294	1.393691	-0.105807
C99	C	1.883628	1.727024	0.227526
C100	C	1.113776	1.060359	-0.573404
C101	C	1.447109	1.393693	-0.240071
C102	C	1.780443	1.727026	0.093263
C103	C	1.113729	0.950637	-0.573373
C104	C	1.447062	1.283971	-0.240040
C105	C	1.780396	1.617304	0.093293
C106	C	1.216983	0.438643	-1.061641
C107	C	1.550316	0.771976	-0.728308
C108	C	1.883650	1.105309	-0.394974
C109	C	1.216968	0.438684	-0.951917
C110	C	1.550301	0.772017	-0.618584
C111	C	1.883634	1.105350	-0.285250
C112	C	1.113800	0.573059	-0.951867
C113	C	1.447133	0.906392	-0.618534
C114	C	1.780466	1.239726	-0.285201
C115	C	1.113820	0.573023	-1.061590
C116	C	1.447153	0.906356	-0.728256
C117	C	1.780487	1.239689	-0.394923
C118	C	1.165279	0.506061	-0.233250
C119	C	1.498612	0.839394	0.100084
C120	C	1.831946	1.172727	0.433417
C121	C	1.165410	0.505809	-0.116474
C122	C	1.498744	0.839142	0.216860
C123	C	1.832077	1.172475	0.550193
H124	H	1.258898	0.905969	-0.384425
H125	H	1.592231	1.239302	-0.051092
H126	H	1.925564	1.572636	0.282242
H127	H	1.258991	0.383912	-1.106324
H128	H	1.592324	0.717246	-0.772991
H129	H	1.925658	1.050579	-0.439658
N130	N	1.061015	0.894582	-0.641936
N131	N	1.394348	1.227915	-0.308603
N132	N	1.727682	1.561248	0.024730
N133	N	1.089341	0.833272	-0.708898
N134	N	1.422674	1.166606	-0.375564
N135	N	1.756008	1.499939	-0.042231
H136	H	1.052117	0.793682	-0.757323
H137	H	1.385451	1.127015	-0.423989
H138	H	1.718784	1.460348	-0.090656
H139	H	1.258992	1.105017	-0.384492
H140	H	1.592325	1.438350	-0.051159
H141	H	1.925659	1.771683	0.282174
N142	N	1.269645	0.370085	-0.895889
N143	N	1.602978	0.703419	-0.562556
N144	N	1.936311	1.036752	-0.229223
N145	N	1.321005	0.407074	-0.834667
N146	N	1.654339	0.740407	-0.501333
N147	N	1.987672	1.073740	-0.168000
H148	H	1.358211	0.358625	-0.795095
H149	H	1.691545	0.691958	-0.461762
H150	H	2.024878	1.025292	-0.128428
H151	H	1.071792	1.105040	-0.628078
H152	H	1.405126	1.438373	-0.294745
H153	H	1.738459	1.771706	0.038589
N154	N	1.061134	0.641619	-1.117623
N155	N	1.394467	0.974952	-0.784290
N156	N	1.727801	1.308286	-0.450956
N157	N	1.061161	0.641573	-1.215588
N158	N	1.394494	0.974906	-0.882255
N159	N	1.727827	1.308240	-0.548922
H160	H	1.023955	0.690018	-1.255165
H161	H	1.357288	1.023351	-0.921831
H162	H	1.690621	1.356684	-0.588498
H163	H	1.071795	0.627781	-0.907168
H164	H	1.405129	0.961114	-0.573834
H165	H	1.738462	1.294447	-0.240501
