data_functionalizedCrystal
_audit_creation_method	'MofGen! by Chris Wilmer'
_symmetry_space_group_name_H-M	'P1'
_symmetry_Int_Tables_number	1
_symmetry_cell_setting	triclinic
loop_
_symmetry_equiv_pos_as_xyz
  x,y,z
_cell_length_a	12.759401
_cell_length_b	25.639239
_cell_length_c	25.639234
_cell_angle_alpha	89.975416
_cell_angle_beta	89.983578
_cell_angle_gamma	90.040211
loop_
_atom_site_label
_atom_site_type_symbol
_atom_site_fract_x
_atom_site_fract_y
_atom_site_fract_z
Zn1	Zn	1.606044	-0.208163	-0.295595
Zn2	Zn	1.605876	-0.295591	-0.208159
Zn3	Zn	1.430357	-0.208173	-0.208175
Zn4	Zn	1.430261	-0.295572	-0.295565
O5	O	1.518135	-0.251875	-0.251874
O6	O	1.753043	-0.219764	-0.284002
O7	O	1.582562	-0.284007	-0.134996
O8	O	1.453773	-0.135007	-0.219790
O9	O	1.752919	-0.283997	-0.219763
O10	O	1.582850	-0.134999	-0.284017
O11	O	1.453609	-0.219782	-0.135008
O12	O	1.283323	-0.219763	-0.219762
O13	O	1.453610	-0.283964	-0.368734
O14	O	1.283253	-0.283974	-0.283967
O15	O	1.582757	-0.219746	-0.368756
O16	O	1.582470	-0.368753	-0.219735
O17	O	1.453447	-0.368739	-0.283952
C18	C	1.245167	-0.251868	-0.251863
C19	C	1.128391	-0.251878	-0.251871
C20	C	1.073520	-0.285364	-0.285250
C21	C	0.963796	-0.285366	-0.285260
C22	C	0.963823	-0.218395	-0.218508
C23	C	1.073545	-0.218391	-0.218501
C24	C	1.517958	-0.387717	-0.251850
C25	C	1.517978	-0.445831	-0.251857
C26	C	1.585492	-0.806189	-0.218493
C27	C	1.585533	-0.860793	-0.218500
O28	O	1.642752	-0.889026	-0.190106
N29	N	1.518319	-0.888114	-0.251908
C30	C	1.451068	-0.860827	-0.285315
O31	O	1.393902	-0.889079	-0.313733
C32	C	1.451033	-0.806224	-0.285311
C33	C	1.518244	-0.778906	-0.251896
C34	C	1.652698	-0.778872	-0.185082
C35	C	1.652656	-0.724271	-0.185074
C36	C	1.585408	-0.696988	-0.218478
C37	C	1.518202	-0.724306	-0.251889
C38	C	1.383788	-0.778938	-0.318720
C39	C	1.383760	-0.724331	-0.318713
C40	C	1.450971	-0.697013	-0.285299
C41	C	1.450911	-0.642422	-0.285285
N42	N	1.518125	-0.615102	-0.251877
C43	C	1.585373	-0.642385	-0.218473
C44	C	1.451147	-0.975498	-0.285324
C45	C	1.451176	-1.030100	-0.285326
C46	C	1.585642	-1.030063	-0.218511
C47	C	1.585608	-0.975459	-0.218506
C48	C	1.518361	-0.948177	-0.251915
C49	C	1.585278	-0.527720	-0.218459
C50	C	1.585227	-0.473114	-0.218453
C51	C	1.450765	-0.473156	-0.285270
C52	C	1.450812	-0.527757	-0.285274
C53	C	1.518077	-0.555037	-0.251867
O54	O	1.393724	-0.614155	-0.313666
O55	O	1.642539	-0.614126	-0.190065
C56	C	1.792168	-0.251881	-0.251884
C57	C	1.908945	-0.251884	-0.251889
C58	C	1.518192	-0.251852	-0.388247
C59	C	1.518216	-0.251842	-0.446361
C60	C	1.518341	-0.115502	-0.251909
C61	C	1.518428	-0.057388	-0.251924
C62	C	1.585389	-0.285241	-0.697541
C63	C	1.585378	-0.285252	-0.642936
O64	O	1.642443	-0.313707	-0.614688
N65	N	1.518239	-0.251816	-0.615635
C66	C	1.451098	-0.218372	-0.642940
O67	O	1.393989	-0.189934	-0.614704
C68	C	1.451105	-0.218364	-0.697543
C69	C	1.518256	-0.251798	-0.724842
C70	C	1.652535	-0.318672	-0.724839
C71	C	1.652547	-0.318661	-0.779440
C72	C	1.585414	-0.285217	-0.806742
C73	C	1.518269	-0.251786	-0.779443
C74	C	1.383960	-0.184922	-0.724848
C75	C	1.383972	-0.184917	-0.779455
C76	C	1.451123	-0.218351	-0.806754
C77	C	1.451148	-0.218331	-0.861345
N78	N	1.518287	-0.251766	-0.888647
C79	C	1.585420	-0.285209	-0.861345
C80	C	1.451088	-0.218392	-0.528269
C81	C	1.451086	-0.218396	-0.473667
C82	C	1.585365	-0.285277	-0.473667
C83	C	1.585372	-0.285269	-0.528270
C84	C	1.518228	-0.251827	-0.555571
C85	C	1.585441	-0.285182	-0.976010
C86	C	1.585451	-0.285166	-1.030616
C87	C	1.451168	-0.218287	-1.030611
C88	C	1.451163	-0.218301	-0.976010
C89	C	1.518303	-0.251753	-0.948711
O90	O	1.394110	-0.189892	-0.889628
O91	O	1.642510	-0.313648	-0.889588
C92	C	1.518138	-0.251860	-0.116031
C93	C	1.518318	-0.251722	-0.057917
H94	H	1.640054	-0.549925	-0.191257
H95	H	1.396378	-0.953287	-0.312528
O96	O	1.311303	-0.808394	-0.354764
H97	H	1.264554	-0.780241	-0.377992
H98	H	1.707466	-0.801080	-0.157880
O99	O	1.725163	-0.694809	-0.149042
H100	H	1.771935	-0.722962	-0.125824
O101	O	1.378240	-0.443720	-0.321297
H102	H	1.295797	-0.454240	-0.312295
O103	O	1.657864	-0.321236	-1.060061
H104	H	1.704529	-0.344498	-1.031899
H105	H	1.118222	-0.191120	-0.191320
H106	H	1.329276	-0.157698	-0.702631
O107	O	1.657728	-0.443649	-0.182416
H108	H	1.704505	-0.471798	-0.159196
O109	O	1.311558	-0.148843	-0.808902
H110	H	1.264875	-0.125595	-0.780742
H111	H	1.640403	-1.052286	-0.191314
H112	H	0.919155	-0.191132	-0.191339
H113	H	1.118172	-0.312630	-0.312424
O114	O	1.658108	-0.945996	-0.182473
H115	H	1.704877	-0.974146	-0.159250
O116	O	0.904553	-0.321483	-0.321238
H117	H	0.854514	-0.348028	-0.297761
O118	O	1.378674	-1.059564	-0.321359
H119	H	1.396640	-1.049053	-0.362400
O120	O	1.378669	-0.182328	-0.444229
H121	H	1.389937	-0.187946	-0.401672
H122	H	1.329001	-0.702120	-0.345920
H123	H	1.396087	-0.550000	-0.312485
H124	H	1.640120	-0.312418	-0.953790
O125	O	1.724945	-0.354736	-0.808881
H126	H	1.771603	-0.377997	-0.780716
O127	O	1.724964	-0.354738	-0.695396
H128	H	1.771657	-0.377975	-0.723561
H129	H	1.640052	-0.312494	-0.550493
O130	O	1.657768	-0.321355	-0.444216
H131	H	1.646466	-0.315746	-0.401661
H132	H	1.396415	-0.191154	-0.550494
O133	O	1.378741	-0.182241	-0.946561
H134	H	1.332058	-0.158986	-0.974722
H135	H	1.396513	-0.191057	-1.052850
