data_functionalizedCrystal
_audit_creation_method	'MofGen! by Chris Wilmer'
_symmetry_space_group_name_H-M	'P1'
_symmetry_Int_Tables_number	1
_symmetry_cell_setting	triclinic
loop_
_symmetry_equiv_pos_as_xyz
  x,y,z
_cell_length_a	13.897449
_cell_length_b	14.908968
_cell_length_c	14.908308
_cell_angle_alpha	89.835775
_cell_angle_beta	93.276458
_cell_angle_gamma	93.278502
loop_
_atom_site_label
_atom_site_type_symbol
_atom_site_fract_x
_atom_site_fract_y
_atom_site_fract_z
Zn1	Zn	1.468455	0.387267	-0.487822
Zn2	Zn	1.486910	0.528964	-0.328806
Zn3	Zn	1.315898	0.378629	-0.337474
Zn4	Zn	1.316934	0.537582	-0.479113
O5	O	1.397049	0.458111	-0.408304
O6	O	1.605884	0.406073	-0.466745
O7	O	1.471514	0.501801	-0.204130
O8	O	1.327978	0.253952	-0.364691
O9	O	1.619443	0.510177	-0.349916
O10	O	1.440061	0.260299	-0.475151
O11	O	1.345873	0.391350	-0.210499
O12	O	1.181054	0.399706	-0.356246
O13	O	1.329744	0.524864	-0.606094
O14	O	1.181815	0.516487	-0.460308
O15	O	1.441065	0.414428	-0.612492
O16	O	1.472519	0.655930	-0.341472
O17	O	1.347638	0.662261	-0.451902
C18	C	1.146436	0.458095	-0.408273
C19	C	1.039222	0.458111	-0.408280
C20	C	1.412219	0.691721	-0.394821
C21	C	1.418795	0.791663	-0.389083
C22	C	0.952152	0.458115	-0.408295
C23	C	0.842918	0.458123	-0.408322
C24	C	1.493119	0.929202	-0.323554
C25	C	1.486945	0.835298	-0.328942
C26	C	1.356812	0.841938	-0.443838
C27	C	1.362985	0.935842	-0.438450
C28	C	1.431142	0.979471	-0.378307
C29	C	1.437320	1.073377	-0.372924
C30	C	1.307183	1.080015	-0.487816
C31	C	1.301009	0.986111	-0.493204
C32	C	1.648641	0.458127	-0.408335
C33	C	1.755855	0.458134	-0.408348
C34	C	1.383461	0.471571	-0.642830
C35	C	1.377671	0.477307	-0.742771
C36	C	1.381838	1.223590	-0.421870
C37	C	1.375337	1.123652	-0.427680
C38	C	1.482706	0.373068	-0.937237
C39	C	1.477268	0.378454	-1.031140
C40	C	1.361354	0.493460	-1.024485
C41	C	1.366791	0.488074	-0.930581
C42	C	1.427471	0.427877	-0.886960
C43	C	1.432913	0.422496	-0.793054
C44	C	1.316994	0.537497	-0.786401
C45	C	1.311556	0.542883	-0.880304
C46	C	1.410635	0.444638	-0.174694
C47	C	1.416596	0.438649	-0.074768
H48	H	1.492820	1.108898	-0.323956
F49	F	1.547294	0.309011	-0.890810
F50	F	1.296774	0.557515	-1.070924
F51	F	1.497495	0.358432	-0.746631
H52	H	1.301314	0.806403	-0.492799
F53	F	1.228477	0.939668	-0.557210
H54	H	1.272019	0.582128	-0.745455
H55	H	1.256720	1.120954	-0.532403
H56	H	1.548622	0.964726	-0.274591
H57	H	1.522244	0.333820	-1.072072
H58	H	1.262151	0.591892	-0.915833
H59	H	1.537411	0.794372	-0.284355
