data_functionalizedCrystal
_audit_creation_method	'MofGen! by Chris Wilmer'
_symmetry_space_group_name_H-M	'P1'
_symmetry_Int_Tables_number	1
_symmetry_cell_setting	triclinic
loop_
_symmetry_equiv_pos_as_xyz
  x,y,z
_cell_length_a	14.971486
_cell_length_b	12.837942
_cell_length_c	13.448316
_cell_angle_alpha	89.994234
_cell_angle_beta	89.998199
_cell_angle_gamma	89.221535
loop_
_atom_site_label
_atom_site_type_symbol
_atom_site_fract_x
_atom_site_fract_y
_atom_site_fract_z
O1	O	1.198338	0.135106	-0.082576
O2	O	0.939302	0.151285	-0.082603
O3	O	1.063076	-0.007715	-0.082584
O4	O	1.074564	0.294105	-0.082595
O5	O	1.063058	-0.007724	0.082800
O6	O	0.939284	0.151275	0.082781
O7	O	1.198320	0.135096	0.082808
Cu8	Cu	1.068800	0.143185	0.097895
Cu9	Cu	1.068822	0.143196	-0.097690
O10	O	1.074546	0.294095	0.082789
C11	C	0.905907	0.150556	0.000086
C12	C	0.806427	0.148388	0.000075
C13	C	0.757077	0.241796	0.000073
C14	C	0.663606	0.239752	0.000088
C15	C	0.619486	0.144300	0.000098
C16	C	0.668842	0.050885	0.000103
C17	C	0.762313	0.052930	0.000095
C18	C	0.474021	0.046630	0.000117
C19	C	0.380545	0.044585	0.000123
C20	C	0.375314	0.233453	0.000110
C21	C	0.468784	0.235497	0.000102
C22	C	0.518135	0.142082	0.000105
C23	C	1.059187	-0.046345	0.000107
C24	C	1.047612	-0.161436	0.000104
C25	C	1.186755	-0.402222	0.000098
C26	C	1.175884	-0.510362	0.000095
C27	C	1.015001	-0.485856	0.000089
C28	C	1.025872	-0.377717	0.000092
C29	C	1.111751	-0.335904	0.000098
C30	C	1.122621	-0.227763	0.000108
C31	C	0.961739	-0.203260	0.000094
C32	C	0.950868	-0.311399	0.000091
C33	C	1.231715	0.135824	0.000117
C34	C	1.331195	0.137993	0.000121
C35	C	1.078436	0.332726	0.000096
C36	C	1.090010	0.447817	0.000092
N37	N	1.068792	0.143176	0.235460
N38	N	1.068837	0.143197	-0.235255
C39	C	1.123620	0.072800	0.287508
C40	C	1.123626	0.072799	0.391612
C41	C	1.068807	0.143180	0.443664
C42	C	1.013972	0.213559	0.391608
C43	C	1.013963	0.213554	0.287507
C44	C	1.013998	0.213566	0.608588
C45	C	1.014008	0.213573	0.712697
C46	C	1.123661	0.072811	0.712693
C47	C	1.123651	0.072806	0.608592
C48	C	1.068818	0.143187	0.556543
H49	H	0.623429	0.315815	0.000086
H50	H	1.168271	0.015493	0.433989
H51	H	0.900666	-0.149251	0.000102
H52	H	0.504704	0.313223	0.000085
H53	H	1.168308	0.015504	0.755077
H54	H	1.236960	-0.564355	0.000092
H55	H	0.335129	0.309515	0.000112
C56	C	0.332014	-0.060410	0.000140
H57	H	0.374790	-0.115752	0.000154
H58	H	0.295659	-0.065133	-0.057531
H59	H	0.295661	-0.065126	0.057822
C60	C	0.528305	-0.056125	0.000109
H61	H	0.488643	-0.113267	0.000102
H62	H	0.564884	-0.059266	0.057774
H63	H	0.564868	-0.059240	-0.057579
H64	H	0.632913	-0.026834	0.000125
H65	H	1.168294	0.015502	0.566211
H66	H	1.256681	-0.368178	0.000113
C67	C	1.183921	-0.004622	0.230259
H68	H	1.216568	-0.046542	0.276172
H69	H	1.224333	0.032738	0.189636
H70	H	1.148054	-0.047846	0.189664
H71	H	0.969343	0.270875	0.566213
C72	C	0.920544	-0.531864	0.000081
H73	H	0.924816	-0.605766	0.000084
H74	H	0.889274	-0.509100	-0.057590
H75	H	0.889272	-0.509121	0.057764
C76	C	0.953647	0.290924	0.769953
H77	H	0.920961	0.332811	0.724047
H78	H	0.989452	0.334172	0.810584
H79	H	0.913255	0.253483	0.810542
H80	H	1.192549	-0.193721	0.000116
H81	H	0.969314	0.270860	0.245130
H82	H	0.880947	-0.345458	0.000082
H83	H	0.802492	-0.023133	0.000096
C84	C	0.953642	0.290948	0.448858
H85	H	0.920972	0.332845	0.402947
H86	H	0.989474	0.334182	0.489473
H87	H	0.913236	0.253546	0.489463
H88	H	0.792993	0.319524	0.000065
