data_functionalizedCrystal
_audit_creation_method	'MofGen! by Chris Wilmer'
_symmetry_space_group_name_H-M	'P1'
_symmetry_Int_Tables_number	1
_symmetry_cell_setting	triclinic
loop_
_symmetry_equiv_pos_as_xyz
  x,y,z
_cell_length_a	13.897448
_cell_length_b	18.215407
_cell_length_c	18.215399
_cell_angle_alpha	89.982187
_cell_angle_beta	89.973672
_cell_angle_gamma	90.012205
loop_
_atom_site_label
_atom_site_type_symbol
_atom_site_fract_x
_atom_site_fract_y
_atom_site_fract_z
Zn1	Zn	-0.384166	1.125109	-0.416084
Zn2	Zn	-0.545476	1.125033	-0.293022
Zn3	Zn	-0.384181	1.002041	-0.293036
Zn4	Zn	-0.545405	1.002023	-0.416051
O5	O	-0.464807	1.063551	-0.354548
O6	O	-0.405587	1.228083	-0.399768
O7	O	-0.524115	1.108693	-0.190039
O8	O	-0.249197	1.018406	-0.309379
O9	O	-0.524101	1.228027	-0.309354
O10	O	-0.249186	1.108823	-0.399782
O11	O	-0.405613	1.018332	-0.190050
O12	O	-0.405544	0.899055	-0.309346
O13	O	-0.523981	1.018374	-0.519040
O14	O	-0.523995	0.899041	-0.399725
O15	O	-0.405519	1.108805	-0.519064
O16	O	-0.680448	1.108675	-0.309322
O17	O	-0.680396	1.018300	-0.399711
C18	C	-0.464765	0.872345	-0.354534
C19	C	-0.464770	0.790546	-0.354545
C20	C	-0.403216	0.525512	-0.401702
C21	C	-0.403200	0.602371	-0.401699
C22	C	-0.526429	0.602332	-0.307411
C23	C	-0.526449	0.525474	-0.307417
C24	C	-0.464837	0.487067	-0.354562
C25	C	-0.464801	0.640783	-0.354553
C26	C	-0.464785	0.724116	-0.354550
C27	C	-0.464854	0.403728	-0.354566
C28	C	-0.715421	1.063498	-0.354527
C29	C	-0.822635	1.063542	-0.354542
C30	C	-1.018930	1.063619	-0.354589
C31	C	-0.909698	1.063574	-0.354565
C32	C	-0.213214	1.063625	-0.354586
C33	C	-0.106000	1.063657	-0.354602
C34	C	-0.464740	1.063596	-0.546501
C35	C	-0.464712	1.063615	-0.628300
C36	C	-0.464850	1.255504	-0.354563
C37	C	-0.464869	1.337303	-0.354569
C38	C	-0.402971	1.110719	-0.816508
C39	C	-0.402943	1.110728	-0.893367
C40	C	-0.526304	1.016563	-0.893330
C41	C	-0.526326	1.016551	-0.816473
C42	C	-0.464662	1.063633	-0.778064
C43	C	-0.464611	1.063654	-0.931780
C44	C	-0.464581	1.063663	-1.015114
C45	C	-0.464690	1.063624	-0.694725
C46	C	-0.464804	1.063549	-0.163342
C47	C	-0.464560	1.063672	-0.081544
H48	H	-0.576634	0.494171	-0.269030
O49	O	-0.343248	0.639603	-0.447513
C50	C	-0.288895	0.589219	-0.489136
H51	H	-0.285521	0.534422	-0.458999
H52	H	-0.212903	0.611430	-0.497081
H53	H	-0.324307	0.581063	-0.544985
O54	O	-0.342976	1.156472	-0.779311
C55	C	-0.288537	1.198045	-0.829728
H56	H	-0.285179	1.167909	-0.884510
H57	H	-0.212545	1.205910	-0.807538
H58	H	-0.323865	1.253930	-0.837905
H59	H	-0.576590	0.633613	-0.269026
H60	H	-0.576511	0.978232	-0.924612
H61	H	-0.576561	0.978203	-0.785170
O62	O	-0.343510	0.488121	-0.447537
C63	C	-0.398518	0.443696	-0.495013
H64	H	-0.471577	0.432169	-0.468962
H65	H	-0.359258	0.389654	-0.504933
H66	H	-0.409200	0.473338	-0.549534
O67	O	-0.342913	1.156363	-0.930743
C68	C	-0.280602	1.114487	-0.975213
H69	H	-0.274646	1.056523	-0.952043
H70	H	-0.206373	1.141122	-0.976096
H71	H	-0.310400	1.111953	-1.033459
