data_functionalizedCrystal
_audit_creation_method	'MofGen! by Chris Wilmer'
_symmetry_space_group_name_H-M	'P1'
_symmetry_Int_Tables_number	1
_symmetry_cell_setting	triclinic
loop_
_symmetry_equiv_pos_as_xyz
  x,y,z
_cell_length_a	16.992694
_cell_length_b	8.559649
_cell_length_c	15.455313
_cell_angle_alpha	92.289439
_cell_angle_beta	87.142206
_cell_angle_gamma	80.223444
loop_
_atom_site_label
_atom_site_type_symbol
_atom_site_fract_x
_atom_site_fract_y
_atom_site_fract_z
O1	O	1.023967	0.329735	-0.072017
O2	O	0.795905	0.326044	-0.072043
O3	O	0.930028	0.097853	-0.072027
O4	O	0.889844	0.557925	-0.072033
O5	O	0.922362	0.110845	0.072234
O6	O	0.788239	0.339035	0.072218
O7	O	1.016301	0.342726	0.072244
Cu8	Cu	0.901570	0.342067	0.085403
Cu9	Cu	0.910636	0.326703	-0.085202
O10	O	0.882177	0.570917	0.072228
C11	C	0.763145	0.327794	0.000084
C12	C	0.676954	0.313635	0.000075
C13	C	0.929241	0.045208	0.000102
C14	C	0.938306	-0.131015	0.000099
C15	C	0.618488	0.450242	0.000073
C16	C	0.537502	0.436931	0.000086
C17	C	0.514985	0.287010	0.000093
C18	C	0.573459	0.150392	0.000096
C19	C	0.654442	0.163706	0.000090
C20	C	0.274709	0.231831	0.000117
C21	C	0.193718	0.218527	0.000120
C22	C	0.157767	0.505067	0.000111
C23	C	0.238755	0.518367	0.000099
C24	C	0.297221	0.381750	0.000108
N25	N	0.432205	0.273400	0.000102
N26	N	0.379998	0.395362	0.000104
C27	C	1.049061	0.340976	0.000115
C28	C	1.135252	0.355134	0.000119
C29	C	0.882965	0.623562	0.000097
C30	C	0.873900	0.799784	0.000095
N31	N	0.895199	0.352873	0.205398
N32	N	0.917014	0.315885	-0.205197
C33	C	0.952194	0.255970	0.250799
C34	C	0.947382	0.264158	0.341606
C35	C	0.885578	0.369258	0.387011
C36	C	0.828576	0.466164	0.341604
C37	C	0.833386	0.457968	0.250798
C38	C	0.864822	0.404595	0.658590
C39	C	0.860018	0.412788	0.749402
C40	C	0.978824	0.210778	0.749398
C41	C	0.983631	0.202598	0.658591
C42	C	0.926627	0.299499	0.613191
N43	N	0.880659	0.377633	0.479831
N44	N	0.931543	0.291114	0.520373
H45	H	0.636813	0.572324	0.000067
H46	H	1.025233	0.131884	0.786371
F47	F	0.792762	-0.101444	0.000088
H48	H	1.000384	-0.206593	0.000112
F49	F	1.017980	0.144115	0.202484
F50	F	0.262712	0.677933	0.000087
H51	H	0.786973	0.536874	0.213833
H52	H	0.993792	0.185251	0.378571
H53	H	1.033957	0.117017	0.621624
F54	F	0.794234	0.524660	0.797719
F55	F	0.762795	0.578013	0.389928
H56	H	0.489900	0.548172	0.000084
F57	F	0.095539	0.650454	0.000104
F58	F	0.336923	0.086428	0.000125
F59	F	0.169757	0.058955	0.000143
F60	F	0.804157	0.507728	0.610280
H61	H	0.555118	0.028324	0.000115
F62	F	0.716667	0.018309	0.000095
