data_functionalizedCrystal
_audit_creation_method	'MofGen! by Chris Wilmer'
_symmetry_space_group_name_H-M	'P1'
_symmetry_Int_Tables_number	1
_symmetry_cell_setting	triclinic
loop_
_symmetry_equiv_pos_as_xyz
  x,y,z
_cell_length_a	20.453700
_cell_length_b	17.110477
_cell_length_c	11.102315
_cell_angle_alpha	84.813817
_cell_angle_beta	108.606275
_cell_angle_gamma	80.939702
loop_
_atom_site_label
_atom_site_type_symbol
_atom_site_fract_x
_atom_site_fract_y
_atom_site_fract_z
V1	V	1.354455	-0.109487	0.396094
O2	O	1.357628	0.005257	0.388723
O3	O	1.330931	-0.217090	0.393223
O4	O	1.346963	-0.107804	0.568918
O5	O	1.341486	-0.104785	0.211811
V6	V	1.515502	-0.095762	0.374072
O7	O	1.441820	-0.139593	0.444401
O8	O	1.578202	-0.065655	0.325765
O9	O	1.464623	0.011841	0.376943
O10	O	1.551460	-0.210506	0.381443
O11	O	1.567603	-0.100464	0.558355
O12	O	1.448591	-0.097444	0.201248
V13	V	1.687788	-0.109487	0.396094
O14	O	1.690962	0.005257	0.388723
O15	O	1.664264	-0.217090	0.393223
O16	O	1.680296	-0.107804	0.568918
O17	O	1.674819	-0.104785	0.211811
V18	V	1.848835	-0.095762	0.374072
O19	O	1.775153	-0.139593	0.444401
O20	O	1.911536	-0.065655	0.325765
O21	O	1.797956	0.011841	0.376943
O22	O	1.884793	-0.210506	0.381443
O23	O	1.900936	-0.100464	0.558355
O24	O	1.781924	-0.097444	0.201248
V25	V	2.021121	-0.109487	0.396094
O26	O	2.024295	0.005257	0.388723
O27	O	1.997598	-0.217090	0.393223
O28	O	2.013630	-0.107804	0.568918
O29	O	2.008152	-0.104785	0.211811
V30	V	2.182168	-0.095762	0.374072
O31	O	2.108486	-0.139593	0.444401
O32	O	2.244869	-0.065655	0.325765
O33	O	2.131289	0.011841	0.376943
O34	O	2.218127	-0.210506	0.381443
O35	O	2.234269	-0.100464	0.558355
O36	O	2.115258	-0.097444	0.201248
C37	C	1.277187	-0.243321	0.386932
C38	C	1.285107	-0.331288	0.385737
C39	C	1.349573	-0.376645	0.391508
C40	C	1.357012	-0.459300	0.390393
C41	C	1.299983	-0.496595	0.383496
C42	C	1.235513	-0.451232	0.377728
C43	C	1.228076	-0.368579	0.378853
C44	C	1.319400	-0.745950	0.379791
C45	C	1.326841	-0.828608	0.378662
C46	C	1.448340	-0.836671	0.391329
C47	C	1.440896	-0.754016	0.392446
C48	C	1.376428	-0.708661	0.386685
C49	C	1.307585	-0.581081	0.382351
C50	C	1.368829	-0.624178	0.387839
C51	C	1.297637	-0.103916	0.611048
C52	C	1.318558	-0.103252	0.752331
C53	C	1.406147	0.038068	0.383230
C54	C	1.391306	0.126034	0.384434
C55	C	1.385697	-0.101335	0.159111
C56	C	1.357856	-0.101995	0.017827
C57	C	1.610521	-0.243321	0.386932
C58	C	1.618441	-0.331288	0.385737
C59	C	1.440082	-0.111160	0.765289
C60	C	1.510671	-0.114805	0.838143
C61	C	1.530323	-0.114180	0.970890
C62	C	1.479381	-0.109909	1.030786
C63	C	1.408792	-0.106264	0.957933
C64	C	1.389146	-0.106891	0.825183
C65	C	1.287268	-0.098350	0.944973
C66	C	1.267615	-0.098980	0.812227
C67	C	1.236326	-0.094078	1.004869
C68	C	1.165737	-0.090439	0.932017
C69	C	1.146086	-0.091065	0.799262
C70	C	1.197027	-0.095336	0.739374
C71	C	1.630970	-0.103916	0.611048
C72	C	1.651891	-0.103252	0.752331
C73	C	1.739480	0.038068	0.383230
C74	C	1.724640	0.126034	0.384434
C75	C	1.719030	-0.101335	0.159111
C76	C	1.691190	-0.101995	0.017827
C77	C	1.943854	-0.243321	0.386932
C78	C	1.951774	-0.331288	0.385737
C79	C	1.964304	-0.103916	0.611048
C80	C	1.985224	-0.103252	0.752331
C81	C	2.072813	0.038068	0.383230
C82	C	2.057973	0.126034	0.384434
C83	C	2.052364	-0.101335	0.159111
C84	C	2.024523	-0.101995	0.017827
C85	C	1.682913	-0.376633	0.391519
C86	C	1.690368	-0.459289	0.390416
C87	C	1.633347	-0.496599	0.383520
C88	C	1.568870	-0.451248	0.377741
C89	C	1.561418	-0.368594	0.378854
C90	C	1.775163	0.171379	0.378655
C91	C	1.761224	0.254035	0.379765
C92	C	1.696763	0.291344	0.386663
C93	C	1.646235	0.245994	0.392439
C94	C	1.660173	0.163340	0.391319
C95	C	2.016247	-0.376633	0.391519
C96	C	2.023701	-0.459289	0.390416
C97	C	1.966680	-0.496599	0.383520
C98	C	1.902203	-0.451248	0.377741
C99	C	1.894751	-0.368594	0.378854
C100	C	2.108497	0.171379	0.378655
C101	C	2.094557	0.254035	0.379765
C102	C	2.030096	0.291344	0.386663
C103	C	1.979568	0.245994	0.392439
C104	C	1.993506	0.163340	0.391319
C105	C	1.670743	-0.248187	0.788442
C106	C	1.689996	-0.320339	0.872870
C107	C	1.709653	-0.319711	1.005617
C108	C	1.710059	-0.246923	1.053937
C109	C	1.690806	-0.174771	0.969509
C110	C	1.671148	-0.175407	0.836761
C111	C	1.671959	-0.029839	0.933400
C112	C	1.652297	-0.030464	0.800652
C113	C	1.672365	0.042949	0.981720
C114	C	1.653108	0.115104	0.897291
C115	C	1.633449	0.114473	0.764536
C116	C	1.633045	0.041688	0.716224
C117	C	2.004077	-0.248187	0.788442
C118	C	2.023329	-0.320339	0.872870
C119	C	2.042986	-0.319711	1.005617
C120	C	2.043392	-0.246923	1.053937
C121	C	2.024140	-0.174771	0.969509
C122	C	2.004481	-0.175407	0.836761
C123	C	2.005292	-0.029839	0.933400
C124	C	1.985630	-0.030464	0.800652
C125	C	2.005698	0.042949	0.981720
C126	C	1.986441	0.115104	0.897291
C127	C	1.966783	0.114473	0.764536
C128	C	1.966378	0.041688	0.716224
H129	H	1.396011	-0.346285	0.397112
C130	C	1.982458	-0.248881	0.642425
H131	H	1.984979	-0.302562	0.625740
H132	H	1.935662	-0.219726	0.601582
H133	H	2.013410	-0.224795	0.609874
H134	H	1.688377	0.043455	1.089811
H135	H	1.587801	-0.117147	1.030207
H136	H	2.062682	-0.346266	0.397126
C137	C	1.653555	0.195159	0.950445
H138	H	1.668019	0.185199	1.041595
H139	H	1.685327	0.222305	0.925403
H140	H	1.607585	0.227359	0.917145
H141	H	1.508915	-0.331679	0.374139
H142	H	1.639424	-0.563902	0.382615
H143	H	1.617777	0.173228	0.695801
C144	C	1.649125	-0.248881	0.642425
H145	H	1.651645	-0.302562	0.625740
H146	H	1.602329	-0.219726	0.601582
H147	H	1.680077	-0.224795	0.609874
C148	C	1.109710	-0.085742	0.997903
H149	H	1.131524	-0.085893	1.087396
H150	H	1.075491	-0.037863	0.961939
H151	H	1.087557	-0.130587	0.985042
H152	H	1.986779	0.174361	0.936645
C153	C	1.846071	0.130355	0.371056
H154	H	1.874154	0.169210	0.367758
H155	H	1.869828	0.091049	0.444796
H156	H	1.837972	0.105514	0.295896
H157	H	1.972758	-0.563902	0.382615
C158	C	1.689544	-0.400399	0.819715
H159	H	1.675074	-0.390443	0.728563
H160	H	1.735507	-0.432606	0.853022
H161	H	1.657761	-0.427535	0.844753
C162	C	1.611430	0.040990	0.570208
H163	H	1.613954	-0.012692	0.553528
H164	H	1.564635	0.070143	0.529358
H165	H	1.642385	0.065075	0.537661
C166	C	1.816812	0.303904	0.373425
H167	H	1.857201	0.269839	0.369179
H168	H	1.797855	0.343543	0.299151
H169	H	1.829685	0.329083	0.448054
C170	C	1.068439	-0.087058	0.719134
H171	H	1.040920	-0.084430	0.773824
H172	H	1.052217	-0.040781	0.655530
H173	H	1.064277	-0.133504	0.678633
C174	C	2.022878	-0.400399	0.819715
H175	H	2.008407	-0.390443	0.728563
H176	H	2.068840	-0.432606	0.853022
H177	H	1.991095	-0.427535	0.844753
H178	H	2.058663	-0.378464	1.074360
H179	H	1.950368	0.041168	0.608136
C180	C	1.506152	-0.492295	0.370144
H181	H	1.519829	-0.548012	0.370295
H182	H	1.491732	-0.484331	0.442162
H183	H	1.468203	-0.469870	0.293262
C184	C	2.065019	-0.246234	1.199955
H185	H	2.076425	-0.299629	1.243316
H186	H	2.104854	-0.221855	1.227451
H187	H	2.027110	-0.216799	1.219184
C188	C	1.257937	-0.093384	1.150885
H189	H	1.217488	-0.090310	1.176117
H190	H	1.290851	-0.141061	1.194861
H191	H	1.278793	-0.048338	1.171755
H192	H	2.021710	0.043455	1.089811
H193	H	1.685422	0.358646	0.387573
H194	H	1.181034	-0.095850	0.631286
H195	H	1.729349	-0.346266	0.397126
H196	H	1.927083	0.276383	0.398054
H197	H	1.855780	-0.481638	0.372127
C198	C	1.945606	0.193842	0.671675
H199	H	1.948660	0.237277	0.719469
H200	H	1.976412	0.194079	0.623270
H201	H	1.898670	0.199142	0.615009
C202	C	1.730834	-0.399076	1.098490
H203	H	1.727775	-0.442516	1.050706
H204	H	1.777763	-0.404368	1.155161
H205	H	1.700019	-0.399310	1.146887
H206	H	1.409506	-0.496227	0.395095
C207	C	1.731686	-0.246234	1.199955
H208	H	1.743092	-0.299629	1.243316
H209	H	1.771520	-0.221855	1.227451
H210	H	1.693777	-0.216799	1.219184
H211	H	1.742872	-0.496203	0.395118
H212	H	1.619029	0.126425	0.396037
C213	C	1.503634	-0.713001	0.400066
H214	H	1.543097	-0.751854	0.403362
H215	H	1.491496	-0.673690	0.326332
H216	H	1.515023	-0.688164	0.475231
H217	H	1.842248	-0.331679	0.374139
C218	C	2.094624	-0.509159	0.396756
H219	H	2.127508	-0.475094	0.400998
H220	H	2.111838	-0.548797	0.471030
H221	H	2.088280	-0.534339	0.322127
C222	C	2.179404	0.130355	0.371056
H223	H	2.207488	0.169210	0.367758
H224	H	2.203161	0.091049	0.444796
H225	H	2.171306	0.105514	0.295896
H226	H	1.500828	-0.873608	0.396020
H227	H	2.135708	0.290948	0.375063
C228	C	1.264111	-0.869637	0.371091
H229	H	1.277774	-0.925356	0.371233
H230	H	1.249708	-0.861668	0.443124
H231	H	1.226155	-0.847204	0.294222
H232	H	1.189081	-0.481604	0.372120
C233	C	1.248487	-0.696069	0.373442
H234	H	1.215588	-0.730119	0.369160
H235	H	1.254829	-0.670890	0.448065
H236	H	1.231287	-0.656428	0.299163
H237	H	1.175583	-0.331651	0.374158
H238	H	1.415262	-0.593809	0.393460
H239	H	1.424088	-0.111679	0.657203
C240	C	1.566702	-0.119507	0.772257
H241	H	1.544893	-0.119365	0.682765
H242	H	1.588864	-0.074674	0.785129
H243	H	1.600915	-0.167397	0.808222
H244	H	2.018756	0.358646	0.387573
H245	H	1.593750	0.276383	0.398054
H246	H	1.261153	-0.611455	0.376732
H247	H	1.952363	0.126425	0.396037
H248	H	1.495387	-0.109390	1.138874
