data_functionalizedCrystal
_audit_creation_method	'MofGen! by Chris Wilmer'
_symmetry_space_group_name_H-M	'P1'
_symmetry_Int_Tables_number	1
_symmetry_cell_setting	triclinic
loop_
_symmetry_equiv_pos_as_xyz
  x,y,z
_cell_length_a	10.967819
_cell_length_b	11.026607
_cell_length_c	15.186229
_cell_angle_alpha	89.998222
_cell_angle_beta	77.867327
_cell_angle_gamma	96.381100
loop_
_atom_site_label
_atom_site_type_symbol
_atom_site_fract_x
_atom_site_fract_y
_atom_site_fract_z
O1	O	1.694024	0.170547	-0.330298
O2	O	1.334388	0.186863	-0.275724
O3	O	1.484400	0.001803	-0.298485
O4	O	1.544012	0.355607	-0.307538
O5	O	1.484386	0.001801	-0.152026
O6	O	1.334375	0.186860	-0.129265
O7	O	1.694011	0.170544	-0.183839
Zn8	Zn	1.514191	0.178702	-0.133299
Zn9	Zn	1.514208	0.178705	-0.326265
O10	O	1.543999	0.355604	-0.161078
C11	C	1.287624	0.185673	-0.195399
C12	C	1.148300	0.182117	-0.174257
C13	C	0.942202	0.176870	-0.218867
C14	C	1.086200	0.180537	-0.240713
C15	C	1.473396	-0.043501	-0.223588
C16	C	1.440612	-0.178488	-0.218616
C17	C	1.531134	-0.251539	-0.232354
C18	C	1.497252	-0.391056	-0.227215
C19	C	1.740775	0.171734	-0.264166
C20	C	1.880099	0.175290	-0.285314
C21	C	1.555003	0.400908	-0.235978
C22	C	1.587787	0.535895	-0.240955
N23	N	1.514188	0.178699	-0.001605
N24	N	1.514219	0.178699	-0.457959
C25	C	1.580648	0.096782	0.214034
C26	C	1.580651	0.096779	0.306223
C27	C	1.447750	0.260619	0.326397
C28	C	1.447741	0.260615	0.234210
C29	C	1.514197	0.178698	0.178030
C30	C	1.514210	0.178699	0.362406
C31	C	1.514213	0.178697	0.462361
C32	C	1.514192	0.178699	0.078068
H33	H	0.933536	0.176659	-0.358375
H34	H	0.888766	0.175515	-0.145807
H35	H	1.634758	0.030079	0.168294
H36	H	1.139632	0.181906	-0.313779
H37	H	1.634760	0.030075	0.335534
H38	H	1.394663	-0.431797	-0.211654
H39	H	1.633716	-0.210792	-0.247915
H40	H	1.393645	0.327316	0.372147
H41	H	1.094871	0.180763	-0.101191
H42	H	1.393622	0.327322	0.204895
H43	H	1.690377	-0.423365	-0.256589
H44	H	1.338029	-0.219235	-0.203055
