data_functionalizedCrystal
_audit_creation_method	'MofGen! by Chris Wilmer'
_symmetry_space_group_name_H-M	'P1'
_symmetry_Int_Tables_number	1
_symmetry_cell_setting	triclinic
loop_
_symmetry_equiv_pos_as_xyz
  x,y,z
_cell_length_a	25.639242
_cell_length_b	16.994747
_cell_length_c	25.639233
_cell_angle_alpha	89.993240
_cell_angle_beta	90.022166
_cell_angle_gamma	90.006589
loop_
_atom_site_label
_atom_site_type_symbol
_atom_site_fract_x
_atom_site_fract_y
_atom_site_fract_z
Zn1	Zn	0.799326	-0.314218	0.295835
Zn2	Zn	0.799291	-0.446103	0.208438
Zn3	Zn	0.711902	-0.314207	0.208399
Zn4	Zn	0.711889	-0.446074	0.295828
O5	O	0.755602	-0.380150	0.252125
O6	O	0.872486	-0.331730	0.284261
O7	O	0.787690	-0.428614	0.135268
O8	O	0.723518	-0.203827	0.219984
O9	O	0.872461	-0.428625	0.220051
O10	O	0.787748	-0.203835	0.284223
O11	O	0.723485	-0.331710	0.135239
O12	O	0.638735	-0.331682	0.219977
O13	O	0.723497	-0.428575	0.368994
O14	O	0.638726	-0.428564	0.284211
O15	O	0.787736	-0.331702	0.368999
O16	O	0.787677	-0.556480	0.220044
O17	O	0.723463	-0.556459	0.284249
C18	C	0.619759	-0.380119	0.252090
C19	C	0.561645	-0.380125	0.252087
C20	C	0.755572	-0.585090	0.252149
C21	C	0.755575	-0.674412	0.252147
Zn22	Zn	0.711917	-0.945293	0.208384
Zn23	Zn	0.799349	-0.945283	0.295812
Zn24	Zn	0.711907	-0.813466	0.295819
Zn25	Zn	0.799301	-0.813358	0.208421
O26	O	0.755618	-0.879350	0.252109
O27	O	0.723539	-1.055673	0.219963
O28	O	0.787765	-0.927838	0.368978
O29	O	0.638743	-0.831003	0.284209
O30	O	0.787775	-1.055666	0.284196
O31	O	0.638750	-0.927855	0.219971
O32	O	0.723522	-0.830993	0.368984
O33	O	0.723476	-0.703071	0.284244
O34	O	0.787693	-0.830819	0.135251
O35	O	0.787683	-0.702991	0.220033
O36	O	0.723492	-0.927751	0.135224
O37	O	0.872508	-0.927734	0.284232
O38	O	0.872472	-0.830809	0.220026
C39	C	0.201286	-0.430681	0.285540
C40	C	0.146682	-0.430686	0.285548
O41	O	0.118449	-0.473632	0.313961
N42	N	0.119363	-0.380172	0.252159
C43	C	0.146651	-0.329644	0.218764
O44	O	0.118400	-0.286678	0.190365
C45	C	0.201254	-0.329636	0.218758
C46	C	0.228570	-0.380159	0.252146
C47	C	0.228603	-0.481199	0.318925
C48	C	0.283203	-0.481195	0.318916
C49	C	0.310487	-0.430673	0.285522
C50	C	0.283171	-0.380155	0.252137
C51	C	0.228541	-0.279105	0.185366
C52	C	0.283148	-0.279101	0.185364
C53	C	0.310464	-0.329624	0.218751
C54	C	0.365056	-0.329629	0.218733
N55	N	0.392375	-0.380143	0.252122
C56	C	0.365091	-0.430665	0.285517
C57	C	0.031980	-0.329664	0.218778
C58	C	-0.022622	-0.329676	0.218780
C59	C	-0.022587	-0.430717	0.285565
C60	C	0.032016	-0.430709	0.285560
C61	C	0.059299	-0.380178	0.252167
C62	C	0.479756	-0.430653	0.285495
C63	C	0.534361	-0.430647	0.285481
C64	C	0.534321	-0.329604	0.218698
C65	C	0.479721	-0.329612	0.218709
C66	C	0.452439	-0.380140	0.252112
O67	O	0.393324	-0.286702	0.190336
O68	O	0.393348	-0.473617	0.313916
C69	C	0.891975	-0.380182	0.252161
C70	C	0.950089	-0.380196	0.252176
C71	C	0.755619	-0.380137	0.388498
C72	C	0.755626	-0.380131	0.446612
C73	C	0.755635	-0.174410	0.252098
C74	C	0.755651	-0.085088	0.252087
C75	C	0.755615	-0.380107	0.116283
C76	C	0.755709	-0.379891	0.058169
C77	C	0.789118	-0.329539	0.806984
C78	C	0.789124	-0.329517	0.861588
O79	O	0.817558	-0.286595	0.889832
N80	N	0.755684	-0.379946	0.888895
C81	C	0.722231	-0.430394	0.861595
O82	O	0.693787	-0.473285	0.889835
C83	C	0.722222	-0.430411	0.806991
C84	C	0.755668	-0.379985	0.779687
C85	C	0.822561	-0.279115	0.779680
C86	C	0.822555	-0.279139	0.725079
C87	C	0.789106	-0.329585	0.697783
C88	C	0.755662	-0.380008	0.725087
C89	C	0.688767	-0.480855	0.779692
C90	C	0.688761	-0.480868	0.725085
C91	C	0.722207	-0.430441	0.697781
C92	C	0.722207	-0.430477	0.643190
N93	N	0.755648	-0.380048	0.615883
C94	C	0.789097	-0.329602	0.643179
C95	C	0.722251	-0.430353	0.976265
C96	C	0.722262	-0.430340	1.030868
C97	C	0.789155	-0.329462	1.030857
C98	C	0.789146	-0.329479	0.976254
C99	C	0.755691	-0.379924	0.948958
C100	C	0.789083	-0.329655	0.528514
C101	C	0.789075	-0.329684	0.473909
C102	C	0.722181	-0.430560	0.473924
C103	C	0.722190	-0.430533	0.528524
C104	C	0.755642	-0.380074	0.555818
O105	O	0.693787	-0.473375	0.614911
O106	O	0.817531	-0.286711	0.614932
C107	C	0.891461	-0.879261	0.252133
C108	C	0.949575	-0.879245	0.252159
C109	C	0.755588	-0.879274	0.115736
C110	C	0.755576	-0.879241	0.057622
C111	C	0.619245	-0.879442	0.252086
C112	C	0.561131	-0.879481	0.252077
C113	C	0.755611	-0.879471	0.387952
C114	C	0.755477	-0.879654	0.446065
C115	C	0.976869	-0.929749	0.285572
C116	C	1.031473	-0.929750	0.285597
C117	C	1.058783	-0.879243	0.252210
C118	C	1.031485	-0.828737	0.218793
C119	C	0.976881	-0.828741	0.218766
C120	C	0.722140	-0.929694	0.030314
C121	C	0.722118	-0.929663	-0.024290
C122	C	0.755534	-0.879184	-0.051586
C123	C	0.788971	-0.828726	-0.024274
C124	C	0.788991	-0.828753	0.030330
C125	C	0.533834	-0.829068	0.285518
C126	C	0.479229	-0.829089	0.285509
C127	C	0.451924	-0.879529	0.252061
C128	C	0.479225	-0.929944	0.218616
C129	C	0.533828	-0.929919	0.218623
C130	C	0.722207	-0.828952	0.473337
C131	C	0.722071	-0.829124	0.527941
C132	C	0.755210	-0.879994	0.555273
C133	C	0.788482	-0.930701	0.527998
C134	C	0.788615	-0.930533	0.473394
H135	H	0.556600	-0.471792	0.312670
C136	C	0.946839	-0.985276	0.322324
H137	H	0.970921	-1.015345	0.342227
H138	H	0.925549	-0.955119	0.345111
H139	H	0.925528	-1.019627	0.302308
C140	C	1.061491	-0.985300	0.322362
H141	H	1.037403	-1.015368	0.342247
H142	H	1.082792	-1.019640	0.302354
H143	H	1.082790	-0.955158	0.345175
C144	C	0.685387	-0.486042	0.443891
H145	H	0.690172	-0.478822	0.407461
H146	H	0.693023	-0.539043	0.452850
H147	H	0.650259	-0.474475	0.452827
C148	C	0.563862	-0.773579	0.322310
H149	H	0.600293	-0.780781	0.317532
H150	H	0.554901	-0.720584	0.314662
H151	H	0.554922	-0.785148	0.357438
C152	C	0.825947	-0.273966	1.060888
H153	H	0.845867	-0.243936	1.036809
H154	H	0.805953	-0.239589	1.082176
H155	H	0.848726	-0.304143	1.082201
C156	C	1.118845	-0.879238	0.252249
H157	H	1.131185	-0.916545	0.276937
H158	H	1.131210	-0.892814	0.218509
H159	H	1.131195	-0.828347	0.261340
H160	H	1.053728	-0.787616	0.191610
H161	H	0.755514	-0.879171	-0.096047
C162	C	0.825221	-0.986300	0.443402
H163	H	0.844939	-1.016610	0.467504
H164	H	0.805122	-1.020402	0.421998
H165	H	0.848194	-0.956287	0.422208
C166	C	0.946863	-0.773174	0.182016
H167	H	0.970952	-0.743091	0.162142
H168	H	0.925560	-0.803296	0.159199
H169	H	0.925566	-0.738838	0.202036
H170	H	0.816221	-0.787670	0.052560
H171	H	0.457008	-0.788034	0.312745
H172	H	0.407462	-0.879539	0.252058
H173	H	0.556050	-0.970976	0.191392
H174	H	0.456984	-0.971010	0.191383
H175	H	0.694960	-0.471602	0.550757
H176	H	0.695221	-0.787524	0.451090
C177	C	0.685376	-0.985221	0.060329
H178	H	0.665458	-1.015253	0.036239
H179	H	0.705384	-1.019593	0.081628
H180	H	0.662594	-0.955066	0.081631
C181	C	0.825884	-0.274157	0.558530
H182	H	0.845801	-0.244140	0.534442
H183	H	0.805899	-0.239769	0.579818
H184	H	0.848665	-0.304334	0.579841
H185	H	0.694978	-0.787829	0.550140
H186	H	0.849800	-0.238032	0.801899
C187	C	0.824936	-0.986647	0.558068
H188	H	0.820093	-0.979472	0.594492
H189	H	0.817070	-1.039542	0.549036
H190	H	0.860140	-0.975425	0.549232
C191	C	0.198503	-0.223512	0.148652
H192	H	0.162074	-0.230741	0.153434
H193	H	0.207467	-0.170539	0.156365
H194	H	0.207431	-0.234963	0.113506
C195	C	0.449754	-0.486208	0.322253
H196	H	0.473849	-0.516287	0.342134
H197	H	0.428475	-0.456069	0.345061
H198	H	0.428433	-0.520549	0.302239
C199	C	0.685344	-0.985182	-0.054323
H200	H	0.665455	-1.015259	-0.030244
H201	H	0.662542	-0.955028	-0.075623
H202	H	0.705353	-1.019526	-0.075625
C203	C	0.825727	-0.773202	-0.054301
H204	H	0.845643	-0.743149	-0.030221
H205	H	0.848504	-0.803355	-0.075606
H206	H	0.805707	-0.738836	-0.075598
C207	C	0.313244	-0.536761	0.355649
H208	H	0.289168	-0.566841	0.375540
H209	H	0.334536	-0.571089	0.335622
H210	H	0.334554	-0.506629	0.378458
C211	C	0.198598	-0.536780	0.355661
H212	H	0.222695	-0.566864	0.375538
H213	H	0.177308	-0.506670	0.378475
H214	H	0.177290	-0.571114	0.335630
H215	H	0.755098	-0.880122	0.599734
C216	C	0.825865	-0.274212	0.443875
H217	H	0.821077	-0.281452	0.407445
H218	H	0.818224	-0.221209	0.452809
H219	H	0.860995	-0.285766	0.452838
C220	C	0.564341	-0.274030	0.181970
H221	H	0.600772	-0.281261	0.186754
H222	H	0.555378	-0.285486	0.146829
H223	H	0.555399	-0.221048	0.189678
C224	C	0.651978	-0.536327	0.809717
H225	H	0.656771	-0.529106	0.846148
H226	H	0.616851	-0.524778	0.800754
H227	H	0.659625	-0.589331	0.800777
C228	C	-0.052607	-0.486284	0.322303
H229	H	-0.089038	-0.479043	0.317526
H230	H	-0.043668	-0.539267	0.314608
H231	H	-0.043641	-0.474809	0.357444
C232	C	-0.052664	-0.274106	0.182051
H233	H	-0.028590	-0.244015	0.162165
H234	H	-0.073980	-0.304225	0.159244
H235	H	-0.073951	-0.239778	0.202088
C236	C	0.062059	-0.486277	0.322290
H237	H	0.037985	-0.516361	0.342179
H238	H	0.083352	-0.520599	0.302260
H239	H	0.083368	-0.456146	0.345101
H240	H	0.305359	-0.237947	0.158173
C241	C	0.061987	-0.274087	0.182036
H242	H	0.037893	-0.244012	0.162151
H243	H	0.083299	-0.239756	0.202061
H244	H	0.083274	-0.304211	0.159222
H245	H	0.849790	-0.238074	0.702853
C246	C	0.449672	-0.274042	0.181983
H247	H	0.473744	-0.243950	0.162095
H248	H	0.428353	-0.304159	0.159178
H249	H	0.428388	-0.239714	0.202024
H250	H	0.695032	-0.471411	1.053094
C251	C	0.685460	-0.485864	0.946245
H252	H	0.665553	-0.515899	0.970332
H253	H	0.662676	-0.455707	0.924928
H254	H	0.705459	-0.520247	0.924961
C255	C	0.651972	-0.536378	0.695063
H256	H	0.632063	-0.566413	0.719148
H257	H	0.629191	-0.506226	0.673742
H258	H	0.671977	-0.570761	0.673784
C259	C	0.825931	-0.274002	0.946224
H260	H	0.845849	-0.243955	0.970306
H261	H	0.848705	-0.304180	0.924932
H262	H	0.805929	-0.239630	0.924915
