data_functionalizedCrystal
_audit_creation_method	'MofGen! by Chris Wilmer'
_symmetry_space_group_name_H-M	'P1'
_symmetry_Int_Tables_number	1
_symmetry_cell_setting	triclinic
loop_
_symmetry_equiv_pos_as_xyz
  x,y,z
_cell_length_a	23.532407
_cell_length_b	16.776229
_cell_length_c	17.699083
_cell_angle_alpha	90.007545
_cell_angle_beta	96.934154
_cell_angle_gamma	89.998190
loop_
_atom_site_label
_atom_site_type_symbol
_atom_site_fract_x
_atom_site_fract_y
_atom_site_fract_z
O1	O	0.755525	-0.066190	-0.091879
O2	O	0.589700	-0.066214	-0.105173
O3	O	0.677298	-0.066194	0.011687
O4	O	0.667928	-0.066210	-0.208739
O5	O	0.677286	0.066382	0.011694
O6	O	0.589689	0.066363	-0.105166
O7	O	0.755514	0.066386	-0.091872
Zn8	Zn	0.672599	0.087424	-0.098518
Zn9	Zn	0.672615	-0.087252	-0.098527
O10	O	0.667916	0.066367	-0.208732
C11	C	0.568478	0.000071	-0.104831
C12	C	0.505258	0.000063	-0.103813
N13	N	0.672593	0.206635	-0.098511
N14	N	0.672626	-0.206463	-0.098528
C15	C	0.106335	0.000094	-0.166585
C16	C	0.046932	0.000099	-0.165639
O17	O	0.010354	0.000124	-0.223829
N18	N	0.024106	0.000103	-0.096166
C19	C	0.060687	0.000109	-0.027634
O20	O	0.035817	0.000114	0.031545
C21	C	0.120089	0.000110	-0.028580
C22	C	0.142911	0.000099	-0.098058
C23	C	0.129158	0.000084	-0.236057
C24	C	0.188557	0.000077	-0.237002
C25	C	0.225133	0.000081	-0.168475
C26	C	0.202310	0.000092	-0.099003
C27	C	0.156668	0.000123	0.039951
C28	C	0.216073	0.000124	0.038999
C29	C	0.238896	0.000112	-0.030479
C30	C	0.298285	0.000090	-0.031421
N31	N	0.321110	0.000086	-0.100894
C32	C	0.284534	0.000082	-0.169421
C33	C	-0.064061	0.000109	-0.025652
C34	C	-0.123462	0.000103	-0.024705
C35	C	-0.137213	0.000094	-0.162710
C36	C	-0.077811	0.000095	-0.163657
C37	C	-0.041236	0.000106	-0.095125
C38	C	0.409277	0.000068	-0.171401
C39	C	0.468682	0.000058	-0.172340
C40	C	0.482427	0.000071	-0.034335
C41	C	0.423028	0.000077	-0.033395
C42	C	0.386453	0.000078	-0.101935
O43	O	0.334897	0.000068	0.026738
O44	O	0.309412	0.000088	-0.228591
C45	C	0.776737	0.000099	-0.092214
C46	C	0.839957	0.000103	-0.093232
C47	C	0.676956	0.000094	0.039886
C48	C	0.675949	0.000094	0.123899
C49	C	0.711393	0.248361	-0.046787
C50	C	0.711396	0.331813	-0.046786
C51	C	0.672602	0.373538	-0.098514
C52	C	0.633798	0.331806	-0.150241
C53	C	0.633792	0.248356	-0.150237
C54	C	0.633818	0.668353	-0.150256
C55	C	0.633828	0.751810	-0.150257
C56	C	0.711422	0.751811	-0.046804
C57	C	0.711417	0.668360	-0.046801
C58	C	0.672611	0.626636	-0.098525
C59	C	0.672607	0.536147	-0.098524
C60	C	0.672608	0.464025	-0.098519
C61	C	0.668258	0.000077	-0.236931
C62	C	0.669265	0.000071	-0.320944
C63	C	0.727367	0.000102	0.172781
C64	C	0.726417	0.000095	0.251719
C65	C	0.674049	0.000085	0.281774
C66	C	0.622627	0.000074	0.232886
C67	C	0.623577	0.000076	0.153949
C68	C	0.618793	0.000067	0.551230
C69	C	0.617847	0.000068	0.630173
C70	C	0.721633	0.000087	0.649000
C71	C	0.722583	0.000088	0.570063
C72	C	0.671162	0.000073	0.521181
C73	C	0.672192	0.000079	0.435587
C74	C	0.673018	0.000085	0.367366
H75	H	0.487260	0.000048	-0.228920
O76	O	0.773439	0.000237	0.540831
C77	C	0.777084	0.068889	0.495726
H78	H	0.747348	0.116878	0.514177
H79	H	0.763861	0.053363	0.433370
C80	C	0.875619	0.041084	0.483100
C81	C	0.839100	0.100029	0.505767
H82	H	0.913873	0.060292	0.489291
H83	H	0.873163	-0.005170	0.513486
H84	H	0.864593	0.028152	0.431138
H85	H	0.850122	0.112953	0.557730
H86	H	0.841559	0.146286	0.475390
H87	H	-0.167004	0.000094	-0.218509
H88	H	0.581708	0.000069	0.114149
H89	H	0.602197	0.214383	-0.192356
H90	H	0.770011	0.000115	0.148316
O91	O	0.596059	0.792308	-0.200429
C92	C	0.539703	0.771919	-0.188507
H93	H	0.539514	0.748988	-0.127910
H94	H	0.522906	0.723478	-0.230570
C95	C	0.501318	0.874225	-0.274947
C96	C	0.501086	0.846067	-0.200519
H97	H	0.477497	0.919961	-0.282360
H98	H	0.539286	0.887960	-0.282982
H99	H	0.487323	0.833851	-0.309991
H100	H	0.515088	0.886437	-0.165477
H101	H	0.463119	0.832341	-0.192478
O102	O	-0.055739	0.000124	-0.231213
C103	C	-0.100766	0.000096	-0.291488
H104	H	-0.141093	0.025195	-0.270577
H105	H	-0.109197	-0.063510	-0.312606
C106	C	-0.034560	0.021258	-0.382733
C107	C	-0.084089	0.052090	-0.357052
H108	H	-0.024272	0.053327	-0.423178
H109	H	-0.004223	0.021274	-0.342125
H110	H	-0.041592	-0.031747	-0.400326
H111	H	-0.077054	0.105090	-0.339451
H112	H	-0.114424	0.052085	-0.397658
O113	O	0.373835	0.000028	-0.238048
C114	C	0.406728	0.000035	-0.299561
H115	H	0.451086	-0.025062	-0.279995
H116	H	0.410933	0.063635	-0.320879
C117	C	0.322574	-0.021143	-0.388418
C118	C	0.377055	-0.051974	-0.364388
H119	H	0.304270	-0.053222	-0.428408
H120	H	0.300413	-0.021145	-0.346976
H121	H	0.326086	0.031856	-0.406178
H122	H	0.373542	-0.104968	-0.346620
H123	H	0.399215	-0.051982	-0.405828
H124	H	-0.142038	0.000100	0.031871
H125	H	0.512218	0.000072	0.021458
O126	O	0.749075	0.627728	0.003401
C127	C	0.784146	0.579331	-0.036790
H128	H	0.785163	0.604467	-0.096449
H129	H	0.766225	0.516138	-0.040943
C130	C	0.844043	0.547004	0.078783
C131	C	0.845296	0.577880	0.005511
H132	H	0.881763	0.546105	0.104877
H133	H	0.820414	0.579607	0.105861
H134	H	0.829107	0.494345	0.075312
H135	H	0.860226	0.630541	0.008983
H136	H	0.868929	0.545285	-0.021566
O137	O	0.400789	0.000188	0.034047
C138	C	0.366859	0.068869	0.038737
H139	H	0.351988	0.091757	-0.021029
H140	H	0.393152	0.116947	0.072423
C141	C	0.332631	0.019919	0.152497
C142	C	0.314362	0.048026	0.079091
H143	H	0.300249	0.007064	0.177392
H144	H	0.355491	-0.026352	0.149339
H145	H	0.354542	0.059989	0.180558
H146	H	0.292457	0.007953	0.051028
H147	H	0.291496	0.094290	0.082244
O148	O	-0.028615	0.000072	0.040994
C149	C	-0.061506	0.000093	0.102509
H150	H	-0.105864	-0.025004	0.082943
H151	H	-0.065710	0.063697	0.123833
C152	C	0.022650	-0.021075	0.191360
C153	C	-0.031831	-0.051906	0.167331
H154	H	0.040955	-0.053147	0.231348
H155	H	0.044809	-0.021086	0.149918
H156	H	0.019138	0.031928	0.209125
H157	H	-0.028319	-0.104904	0.149558
H158	H	-0.053990	-0.051905	0.208772
O159	O	0.134603	0.000177	0.107509
C160	C	0.179634	0.000168	0.167780
H161	H	0.219958	0.025256	0.146862
H162	H	0.188067	-0.063431	0.188901
C163	C	0.113435	0.021367	0.259032
C164	C	0.162960	0.052187	0.233342
H165	H	0.103149	0.053451	0.299476
H166	H	0.083096	0.021370	0.218428
H167	H	0.120469	-0.031632	0.276628
H168	H	0.155924	0.105180	0.215737
H169	H	0.193298	0.052194	0.273945
O170	O	0.749101	0.207956	0.003536
C171	C	0.783356	0.262684	0.049177
H172	H	0.760012	0.322174	0.049871
H173	H	0.825626	0.271547	0.024886
C174	C	0.823879	0.157063	0.130057
C175	C	0.795205	0.230129	0.130914
H176	H	0.831191	0.136981	0.180475
H177	H	0.800802	0.120191	0.099306
H178	H	0.859101	0.164460	0.109811
H179	H	0.759981	0.222730	0.151151
H180	H	0.818276	0.266999	0.161670
O181	O	0.749061	0.792467	0.003419
C182	C	0.740758	0.875070	-0.007682
H183	H	0.695442	0.886473	-0.036273
H184	H	0.772937	0.898740	-0.045429
C185	C	0.805092	0.903917	0.104918
C186	C	0.749432	0.917923	0.069808
H187	H	0.810445	0.930353	0.152716
H188	H	0.810687	0.848266	0.112396
H189	H	0.831901	0.923643	0.073454
H190	H	0.722624	0.898189	0.101267
H191	H	0.743832	0.973572	0.062337
H192	H	0.763503	0.000095	0.688809
H193	H	0.207132	0.000067	-0.293578
O194	O	0.568792	0.000099	0.503861
C195	C	0.522369	0.000076	0.547319
H196	H	0.536908	0.025174	0.606351
H197	H	0.506314	-0.063528	0.552811
C198	C	0.455851	0.021241	0.435123
C199	C	0.473707	0.052073	0.507626
H200	H	0.425832	0.053312	0.410638
H201	H	0.487126	0.021253	0.405844
H202	H	0.442476	-0.031762	0.439710
H203	H	0.487088	0.105072	0.503037
H204	H	0.442432	0.052071	0.536903
O205	O	0.571742	-0.000078	0.262044
C206	C	0.540405	-0.068737	0.237005
H207	H	0.571035	-0.116723	0.220809
H208	H	0.508597	-0.053220	0.185317
C209	C	0.470147	-0.040940	0.321247
C210	C	0.507768	-0.099879	0.301361
H211	H	0.450012	-0.060149	0.360943
H212	H	0.491257	0.005318	0.338115
H213	H	0.443645	-0.028014	0.278168
H214	H	0.534273	-0.112797	0.344437
H215	H	0.486660	-0.146141	0.284502
H216	H	0.742990	0.365786	-0.004667
H217	H	0.768287	0.000104	0.291516
O218	O	0.596154	0.627706	-0.200437
C219	C	0.604475	0.545102	-0.189362
H220	H	0.625835	0.533706	-0.129040
H221	H	0.632982	0.521413	-0.232003
C222	C	0.519966	0.516264	-0.275239
C223	C	0.546197	0.502266	-0.201147
H224	H	0.484019	0.489840	-0.282512
H225	H	0.514361	0.571916	-0.282703
H226	H	0.543728	0.496523	-0.310764
H227	H	0.522439	0.522016	-0.165624
H228	H	0.551796	0.446617	-0.193678
H229	H	0.575200	0.000062	0.654640
H230	H	0.099383	0.000083	-0.291863
H231	H	0.245851	0.000133	0.094807
H232	H	0.602208	0.365784	-0.192357
