data_functionalizedCrystal
_audit_creation_method	'MofGen! by Chris Wilmer'
_symmetry_space_group_name_H-M	'P1'
_symmetry_Int_Tables_number	1
_symmetry_cell_setting	triclinic
loop_
_symmetry_equiv_pos_as_xyz
  x,y,z
_cell_length_a	8.497374
_cell_length_b	11.169417
_cell_length_c	11.169409
_cell_angle_alpha	90.019824
_cell_angle_beta	90.026041
_cell_angle_gamma	89.996290
loop_
_atom_site_label
_atom_site_type_symbol
_atom_site_fract_x
_atom_site_fract_y
_atom_site_fract_z
Zn1	Zn	-0.627891	1.835087	0.678595
Zn2	Zn	-0.127891	2.335087	1.178595
Zn3	Zn	-0.891756	1.835028	0.477934
Zn4	Zn	-0.391756	2.335028	0.977934
Zn5	Zn	-0.627987	1.634373	0.477930
Zn6	Zn	-0.127987	2.134373	0.977930
Zn7	Zn	-0.891627	1.634432	0.678579
Zn8	Zn	-0.391627	2.134432	1.178579
O9	O	-0.759815	1.734730	0.578260
O10	O	-0.259815	2.234730	1.078260
O11	O	-0.662907	2.003029	0.651986
O12	O	-0.162907	2.503029	1.151986
O13	O	-0.856860	1.808362	0.309984
O14	O	-0.356860	2.308362	0.809984
O15	O	-0.407212	1.660997	0.504553
O16	O	0.092788	2.160997	1.004553
O17	O	-0.856767	2.002986	0.504561
O18	O	-0.356767	2.502986	1.004561
O19	O	-0.407142	1.808461	0.651981
O20	O	0.092858	2.308461	1.151981
O21	O	-0.663071	1.660941	0.309980
O22	O	-0.163071	2.160941	0.809980
O23	O	-0.662946	1.466431	0.504538
O24	O	-0.162946	1.966431	1.004538
O25	O	-0.856548	1.661099	0.846531
O26	O	-0.356548	2.161099	1.346531
O27	O	-0.856641	1.466475	0.651954
O28	O	-0.356641	1.966475	1.151954
O29	O	-0.662782	1.808519	0.846543
O30	O	-0.162782	2.308519	1.346543
O31	O	-1.112501	1.808420	0.504545
O32	O	-0.612501	2.308420	1.004545
O33	O	-1.112407	1.661043	0.651958
O34	O	-0.612407	2.161043	1.151958
C35	C	-0.759791	1.422905	0.578244
C36	C	-0.259791	1.922905	1.078244
C37	C	-0.759819	1.289505	0.578266
C38	C	-0.259819	1.789505	1.078266
C39	C	-0.759640	1.734822	0.891302
C40	C	-0.259640	2.234822	1.391302
C41	C	-0.759566	1.734861	1.024702
C42	C	-0.259566	2.234861	1.524702
C43	C	-0.348335	1.734720	0.578265
C44	C	0.151665	2.234720	1.078265
C45	C	-0.169691	1.734720	0.578269
C46	C	0.330309	2.234720	1.078269
C47	C	-0.759840	2.047772	0.578276
C48	C	-0.259840	2.547772	1.078276
C49	C	-0.759851	2.181172	0.578283
C50	C	-0.259851	2.681172	1.078283
C51	C	-0.759876	1.734707	0.266435
C52	C	-0.259876	2.234707	0.766435
C53	C	-0.759506	1.734901	0.133035
C54	C	-0.259506	2.234901	0.633035
