data_functionalizedCrystal
_audit_creation_method	'MofGen! by Chris Wilmer'
_symmetry_space_group_name_H-M	'P1'
_symmetry_Int_Tables_number	1
_symmetry_cell_setting	triclinic
loop_
_symmetry_equiv_pos_as_xyz
  x,y,z
_cell_length_a	9.065218
_cell_length_b	12.837942
_cell_length_c	7.540329
_cell_angle_alpha	89.996889
_cell_angle_beta	89.996962
_cell_angle_gamma	89.922413
loop_
_atom_site_label
_atom_site_type_symbol
_atom_site_fract_x
_atom_site_fract_y
_atom_site_fract_z
O1	O	1.978903	0.152196	-0.147486
O2	O	1.551136	0.164680	-0.147489
O3	O	1.755535	0.007446	-0.147477
O4	O	1.774505	0.309430	-0.147498
O5	O	1.755521	0.007444	0.147488
O6	O	1.551123	0.164678	0.147476
O7	O	1.978890	0.152194	0.147479
Cu8	Cu	1.765005	0.158436	0.174410
Cu9	Cu	1.765021	0.158438	-0.174420
O10	O	1.774491	0.309428	0.147467
C11	C	1.495997	0.163479	-0.000007
C12	C	1.331718	0.159892	-0.000007
C13	C	1.749119	-0.031235	0.000005
C14	C	1.730006	-0.146492	0.000002
C15	C	1.959783	-0.385293	-0.000034
C16	C	1.941831	-0.493587	-0.000037
C17	C	1.676152	-0.471377	-0.000020
C18	C	1.694104	-0.363083	-0.000017
C19	C	1.835924	-0.320045	-0.000021
C20	C	1.853874	-0.211748	-0.000006
C21	C	1.588196	-0.189540	-0.000001
C22	C	1.570245	-0.297835	-0.000004
C23	C	2.034029	0.153395	-0.000007
C24	C	2.198308	0.156983	-0.000018
C25	C	1.780907	0.348110	-0.000019
C26	C	1.800020	0.463366	-0.000027
N27	N	1.765004	0.158434	0.419759
N28	N	1.765032	0.158433	-0.419769
H29	H	1.969351	-0.176709	-0.000002
C30	C	1.415338	-0.438559	-0.000048
C31	C	1.520273	-0.518696	-0.000048
H32	H	1.319105	-0.467774	-0.000083
H33	H	1.427844	-0.396797	0.102820
H34	H	1.427888	-0.396767	-0.102903
H35	H	1.507730	-0.560484	0.102814
H36	H	1.507761	-0.560476	-0.102927
H37	H	1.454779	-0.332891	-0.000008
C38	C	2.134094	-0.276402	0.151608
C39	C	2.115667	-0.337982	-0.000026
H40	H	2.230337	-0.247203	0.151615
H41	H	2.062909	-0.222046	0.151593
H42	H	2.121558	-0.318202	0.254455
H43	H	2.128193	-0.296179	-0.102874
H44	H	2.186874	-0.392345	-0.000027
C45	C	1.497737	-0.013672	0.000000
C46	C	1.452038	-0.117816	-0.000000
H47	H	1.413678	0.030605	-0.000007
H48	H	1.555244	-0.000498	0.102855
H49	H	1.555262	-0.000492	-0.102868
H50	H	1.394521	-0.130998	0.102875
H51	H	1.394506	-0.130995	-0.102866
C52	C	2.075766	-0.628268	0.151575
C53	C	2.077977	-0.565313	-0.000048
H54	H	2.159817	-0.672552	0.151556
H55	H	2.077258	-0.585564	0.254419
H56	H	1.988733	-0.669396	0.151561
H57	H	2.165005	-0.524179	-0.000028
H58	H	2.076499	-0.608021	-0.102918
