data_functionalizedCrystal
_audit_creation_method	'MofGen! by Chris Wilmer'
_symmetry_space_group_name_H-M	'P1'
_symmetry_Int_Tables_number	1
_symmetry_cell_setting	triclinic
loop_
_symmetry_equiv_pos_as_xyz
  x,y,z
_cell_length_a	29.839134
_cell_length_b	29.839131
_cell_length_c	18.101389
_cell_angle_alpha	89.971059
_cell_angle_beta	89.981060
_cell_angle_gamma	90.015800
loop_
_atom_site_label
_atom_site_type_symbol
_atom_site_fract_x
_atom_site_fract_y
_atom_site_fract_z
Zn1	Zn	0.686769	-0.179133	-0.418678
Zn2	Zn	1.186769	0.320867	0.081322
Zn3	Zn	0.686700	-0.254250	-0.294814
Zn4	Zn	1.186700	0.245750	0.205186
Zn5	Zn	0.611643	-0.179109	-0.294851
Zn6	Zn	1.111643	0.320891	0.205149
Zn7	Zn	0.611607	-0.254212	-0.418614
Zn8	Zn	1.111607	0.245788	0.081386
O9	O	0.649180	-0.216676	-0.356739
O10	O	1.149180	0.283324	0.143261
O11	O	0.749627	-0.189124	-0.402258
O12	O	1.249627	0.310876	0.097742
O13	O	0.676730	-0.244289	-0.191186
O14	O	1.176730	0.255711	0.308814
O15	O	0.621652	-0.116245	-0.311319
O16	O	1.121652	0.383755	0.188681
O17	O	0.749576	-0.244312	-0.311256
O18	O	1.249576	0.255688	0.188744
O19	O	0.676847	-0.116263	-0.402294
O20	O	1.176847	0.383737	0.097706
O21	O	0.621585	-0.189083	-0.191213
O22	O	1.121585	0.310917	0.308787
O23	O	0.548771	-0.189046	-0.311257
O24	O	1.048771	0.310954	0.188743
O25	O	0.621592	-0.244246	-0.522255
O26	O	1.121592	0.255754	-0.022255
O27	O	0.548745	-0.244223	-0.402185
O28	O	1.048745	0.255777	0.097815
O29	O	0.676812	-0.189087	-0.522302
O30	O	1.176812	0.310913	-0.022302
O31	O	0.676696	-0.317112	-0.311194
O32	O	1.176696	0.182888	0.188806
O33	O	0.621525	-0.317084	-0.402149
O34	O	1.121525	0.182916	0.097851
C35	C	0.532457	-0.216628	-0.356719
C36	C	1.032457	0.283372	0.143281
C37	C	0.482523	-0.216618	-0.356727
C38	C	0.982523	0.283382	0.143273
C39	C	0.649111	-0.333399	-0.356677
C40	C	1.149111	0.166601	0.143323
C41	C	0.649123	-0.383333	-0.356675
C42	C	1.149123	0.116667	0.143325
C43	C	0.125958	-0.188000	-0.404217
C44	C	0.625958	0.312000	0.095783
C45	C	0.313631	-0.187964	-0.404200
C46	C	0.813631	0.312036	0.095800
O47	O	0.337914	-0.163574	-0.444574
O48	O	0.837914	0.336426	0.055426
N49	N	0.337078	-0.216648	-0.356745
N50	N	0.837078	0.283352	0.143255
C51	C	0.313603	-0.245345	-0.309294
C52	C	0.813603	0.254655	0.190706
O53	O	0.337853	-0.269745	-0.268935
O54	O	0.837853	0.230255	0.231065
C55	C	0.125931	-0.245383	-0.309315
C56	C	0.625931	0.254617	0.190685
C57	C	0.102487	-0.216694	-0.356768
C58	C	0.602487	0.283306	0.143232
C59	C	0.102513	-0.159313	-0.451667
C60	C	0.602513	0.340687	0.048333
C61	C	0.055598	-0.159321	-0.451668
C62	C	0.555598	0.340679	0.048332
C63	C	0.032127	-0.188015	-0.404219
C64	C	0.532127	0.311985	0.095781
C65	C	0.055571	-0.216701	-0.356769
C66	C	0.555571	0.283299	0.143231
C67	C	0.102458	-0.274082	-0.261868
C68	C	0.602458	0.225918	0.238132
C69	C	0.055537	-0.274090	-0.261879
C70	C	0.555537	0.225910	0.238121
C71	C	0.032092	-0.245401	-0.309332
C72	C	0.532092	0.254599	0.190668
C73	C	-0.014815	-0.245403	-0.309321
C74	C	0.485185	0.254597	0.190679
N75	N	-0.038262	-0.216719	-0.356777
N76	N	0.461738	0.283281	0.143223
C77	C	-0.014791	-0.188025	-0.404226
C78	C	0.485209	0.311975	0.095774
C79	C	0.412134	-0.245322	-0.309285
C80	C	0.912134	0.254678	0.190715
C81	C	0.459052	-0.245312	-0.309278
C82	C	0.959052	0.254688	0.190722
C83	C	0.459076	-0.187931	-0.404186
C84	C	0.959076	0.312069	0.095814
C85	C	0.412157	-0.187939	-0.404188
C86	C	0.912157	0.312061	0.095812
C87	C	0.388687	-0.216638	-0.356740
C88	C	0.888687	0.283362	0.143260
C89	C	-0.113317	-0.188043	-0.404224
C90	C	0.386683	0.311957	0.095776
C91	C	-0.160236	-0.188051	-0.404218
C92	C	0.339764	0.311949	0.095782
C93	C	-0.160257	-0.245434	-0.309313
C94	C	0.339743	0.254566	0.190687
C95	C	-0.113341	-0.245423	-0.309316
C96	C	0.386659	0.254577	0.190684
C97	C	-0.089872	-0.216726	-0.356777
C98	C	0.410128	0.283274	0.143223
O99	O	-0.039127	-0.269783	-0.268974
O100	O	0.460873	0.230217	0.231026
O101	O	-0.039048	-0.163635	-0.444590
O102	O	0.460952	0.336365	0.055410
C103	C	0.172873	-0.187992	-0.404216
C104	C	0.672873	0.312008	0.095784
C105	C	0.196318	-0.216679	-0.356766
C106	C	0.696318	0.283321	0.143234
C107	C	0.172847	-0.245373	-0.309317
C108	C	0.672847	0.254627	0.190683
C109	C	0.243235	-0.216669	-0.356760
C110	C	0.743235	0.283331	0.143240
C111	C	0.266706	-0.187974	-0.404209
C112	C	0.766706	0.312026	0.095791
C113	C	0.243260	-0.159290	-0.451664
C114	C	0.743260	0.340710	0.048336
C115	C	0.196344	-0.159298	-0.451665
C116	C	0.696344	0.340702	0.048335
C117	C	0.196293	-0.274057	-0.261862
C118	C	0.696293	0.225943	0.238138
C119	C	0.243209	-0.274046	-0.261864
C120	C	0.743209	0.225954	0.238136
C121	C	0.266680	-0.245352	-0.309313
C122	C	0.766680	0.254648	0.190687
C123	C	0.677913	-0.692951	-0.404177
C124	C	1.177913	-0.192951	0.095823
C125	C	0.677962	-0.880624	-0.404222
C126	C	1.177962	-0.380624	0.095778
O127	O	0.702374	-0.904867	-0.444564
O128	O	1.202374	-0.404867	0.055436
N129	N	0.649256	-0.904118	-0.356821
N130	N	1.149256	-0.404118	0.143179
C131	C	0.620534	-0.880691	-0.309410
C132	C	1.120534	-0.380691	0.190590
O133	O	0.596115	-0.904981	-0.269099
O134	O	1.096115	-0.404981	0.230901
C135	C	0.620483	-0.693019	-0.309369
C136	C	1.120483	-0.193019	0.190631
C137	C	0.649194	-0.669527	-0.356768
C138	C	1.149194	-0.169527	0.143232
C139	C	0.706622	-0.669459	-0.451573
C140	C	1.206622	-0.169459	0.048427
C141	C	0.706611	-0.622543	-0.451558
C142	C	1.206611	-0.122543	0.048442
C143	C	0.677892	-0.599120	-0.404149
C144	C	1.177892	-0.099120	0.095851
C145	C	0.649183	-0.622612	-0.356753
C146	C	1.149183	-0.122612	0.143247
C147	C	0.591759	-0.669593	-0.261962
C148	C	1.091759	-0.169593	0.238038
C149	C	0.591748	-0.622672	-0.261957
C150	C	1.091748	-0.122672	0.238043
C151	C	0.620459	-0.599180	-0.309356
C152	C	1.120459	-0.099180	0.190644
C153	C	0.620453	-0.552273	-0.309329
C154	C	1.120453	-0.052273	0.190671
N155	N	0.649160	-0.528778	-0.356730
N156	N	1.149160	-0.028778	0.143270
C157	C	0.677879	-0.552202	-0.404140
C158	C	1.177879	-0.052202	0.095860
C159	C	0.620563	-0.979222	-0.309433
C160	C	1.120563	-0.479222	0.190567
C161	C	0.620576	-1.026140	-0.309442
C162	C	1.120576	-0.526140	0.190558
C163	C	0.678004	-1.026069	-0.404255
C164	C	1.178004	-0.526069	0.095745
C165	C	0.677993	-0.979150	-0.404242
C166	C	1.177993	-0.479150	0.095758
C167	C	0.649269	-0.955728	-0.356834
C168	C	1.149269	-0.455728	0.143166
C169	C	0.677854	-0.453676	-0.404105
C170	C	1.177854	0.046324	0.095895
C171	C	0.677842	-0.406757	-0.404084
C172	C	1.177842	0.093243	0.095916
C173	C	0.620413	-0.406831	-0.309274
C174	C	1.120413	0.093169	0.190726
C175	C	0.620426	-0.453747	-0.309292
C176	C	1.120426	0.046253	0.190708
C177	C	0.649148	-0.477168	-0.356713
C178	C	1.149148	0.022832	0.143287
O179	O	0.596051	-0.528001	-0.269014
O180	O	1.096051	-0.028001	0.230986
O181	O	0.702287	-0.527904	-0.444456
O182	O	1.202287	-0.027904	0.055544
C183	C	0.677924	-0.739866	-0.404192
C184	C	1.177924	-0.239866	0.095808
C185	C	0.649216	-0.763358	-0.356797
C186	C	1.149216	-0.263358	0.143203
C187	C	0.620496	-0.739935	-0.309387
C188	C	1.120496	-0.239935	0.190613
C189	C	0.649229	-0.810276	-0.356806
C190	C	1.149229	-0.310276	0.143194
C191	C	0.677948	-0.833699	-0.404215
C192	C	1.177948	-0.333699	0.095785
C193	C	0.706654	-0.810205	-0.451616
C194	C	1.206654	-0.310205	0.048384
C195	C	0.706643	-0.763290	-0.451601
C196	C	1.206643	-0.263290	0.048399
C197	C	0.591790	-0.763429	-0.261986
C198	C	1.091790	-0.263429	0.238014
C199	C	0.591804	-0.810345	-0.262004
C200	C	1.091804	-0.310345	0.237996
C201	C	0.620523	-0.833768	-0.309414
C202	C	1.120523	-0.333768	0.190586
C203	C	0.766358	-0.216725	-0.356760
C204	C	1.266358	0.283275	0.143240
C205	C	0.816293	-0.216746	-0.356769
C206	C	1.316293	0.283254	0.143231
C207	C	0.649206	-0.216665	-0.549901
C208	C	1.149206	0.283335	-0.049901
C209	C	0.649217	-0.216660	-0.632215
C210	C	1.149217	0.283340	-0.132215
C211	C	0.649261	-0.099498	-0.356818
C212	C	1.149261	0.400502	0.143182
C213	C	0.649295	-0.049563	-0.356852
C214	C	1.149295	0.450437	0.143148
C215	C	0.649243	-0.216576	-0.931306
C216	C	1.149243	0.283424	-0.431306
C217	C	0.614380	-0.251170	-0.899952
C218	C	1.114380	0.248830	-0.399952
C219	C	0.614474	-0.251331	-0.814333
C220	C	1.114474	0.248669	-0.314333
C221	C	0.649230	-0.216617	-0.782924
C222	C	1.149230	0.283383	-0.282924
C223	C	0.696561	-0.229484	-0.814018
C224	C	1.196561	0.270516	-0.314018
C225	C	0.696367	-0.229712	-0.899663
C226	C	1.196367	0.270288	-0.399663
C227	C	0.637186	-0.169037	-0.899747
C228	C	1.137186	0.330963	-0.399747
C229	C	0.636133	-0.169312	-0.814096
C230	C	1.136133	0.330688	-0.314096
C231	C	0.649225	-0.216640	-0.699064
C232	C	1.149225	0.283360	-0.199064
C233	C	0.649251	-0.216554	-1.015166
C234	C	1.149251	0.283446	-0.515166
C235	C	0.649180	-0.216655	-0.164329
C236	C	1.149180	0.283345	0.335671
C237	C	0.649256	-0.216533	-0.082015
C238	C	1.149256	0.283467	0.417985
H239	H	-0.094214	-0.164675	-0.442870
H240	H	0.405786	0.335325	0.057130
H241	H	0.036430	-0.297462	-0.223242
H242	H	0.536430	0.202538	0.276758
H243	H	0.730009	-0.688525	-0.490184
H244	H	1.230009	-0.188525	0.009816
O245	O	0.731914	-0.197758	-0.927144
O246	O	1.231914	0.302242	-0.427144
H247	H	0.732029	-0.197667	-0.988461
H248	H	1.232029	0.302333	-0.488461
O249	O	0.127738	-0.305025	-0.210684
O250	O	0.627738	0.194975	0.289316
H251	H	0.103527	-0.324979	-0.177702
H252	H	0.603527	0.175021	0.322298
H253	H	0.701372	-0.960026	-0.442838
H254	H	1.201372	-0.460026	0.057162
H255	H	0.393072	-0.164578	-0.442828
H256	H	0.893072	0.335422	0.057172
H257	H	0.568403	-0.744361	-0.223381
H258	H	1.068403	-0.244361	0.276619
O259	O	0.171064	-0.128355	-0.502853
O260	O	0.671064	0.371645	-0.002853
H261	H	0.149686	-0.105469	-0.469785
H262	H	0.649686	0.394531	0.030215
H263	H	-0.179323	-0.164687	-0.442860
H264	H	0.320677	0.335313	0.057140
O265	O	0.737615	-0.737954	-0.502716
O266	O	1.237615	-0.237954	-0.002716
H267	H	0.757584	-0.762130	-0.535681
H268	H	1.257584	-0.262130	-0.035681
O269	O	0.667322	-0.133356	-0.785797
O270	O	1.167322	0.366644	-0.285797
H271	H	0.657139	-0.100423	-0.808851
H272	H	1.157139	0.399577	-0.308851
O273	O	0.670816	-0.134891	-0.926610
O274	O	1.170816	0.365109	-0.426610
H275	H	0.695998	-0.151668	-0.962265
H276	H	1.195998	0.348332	-0.462265
O277	O	0.709904	-0.275744	-0.926120
O278	O	1.209904	0.224256	-0.426120
H279	H	0.709901	-0.276363	-0.987430
H280	H	1.209901	0.223637	-0.487430
O281	O	0.737627	-0.835473	-0.502759
O282	O	1.237627	-0.335473	-0.002759
H283	H	0.732804	-0.872043	-0.494806
H284	H	1.232804	-0.372043	0.005194
H285	H	0.701240	-0.472740	-0.442725
H286	H	1.201240	0.027260	0.057275
O287	O	0.567745	-0.240612	-0.927223
O288	O	1.067745	0.259388	-0.427223
H289	H	0.545526	-0.233905	-0.879302
H290	H	1.045526	0.266095	-0.379302
O291	O	0.624799	-0.297559	-0.928476
O292	O	1.124799	0.202441	-0.428476
H293	H	0.654703	-0.296083	-0.964882
H294	H	1.154703	0.203917	-0.464882
O295	O	0.268583	-0.128342	-0.502841
O296	O	0.768583	0.371658	-0.002841
H297	H	0.259585	-0.093072	-0.490250
H298	H	0.759585	0.406928	0.009750
O299	O	0.737585	-0.597208	-0.502670
O300	O	1.237585	-0.097208	-0.002670
H301	H	0.757555	-0.621384	-0.535633
H302	H	1.257555	-0.121384	-0.035633
O303	O	0.386822	-0.276271	-0.258095
O304	O	0.886822	0.223729	0.241905
H305	H	0.411012	-0.296208	-0.225093
H306	H	0.911012	0.203792	0.274907
H307	H	-0.094252	-0.268780	-0.270669
H308	H	0.405748	0.231220	0.229331
H309	H	0.478194	-0.164566	-0.442819
H310	H	0.978194	0.335434	0.057181
H311	H	0.036514	-0.135961	-0.490313
H312	H	0.536514	0.364039	0.009687
O313	O	0.592262	-0.153510	-0.928342
O314	O	1.092262	0.346490	-0.428342
H315	H	0.569212	-0.147880	-0.881113
H316	H	1.069212	0.352120	-0.381113
O317	O	0.708975	-1.051339	-0.455400
O318	O	1.208975	-0.551339	0.044600
H319	H	0.731848	-1.072720	-0.422300
H320	H	1.231848	-0.572720	0.077700
H321	H	-0.179375	-0.268794	-0.270679
H322	H	0.320625	0.231206	0.229321
O323	O	0.484337	-0.276250	-0.258088
O324	O	0.984337	0.223750	0.241912
H325	H	0.460129	-0.296205	-0.225102
H326	H	0.960129	0.203795	0.274898
H327	H	0.121618	-0.135947	-0.490310
H328	H	0.621618	0.364053	0.009690
O329	O	0.268494	-0.304990	-0.210676
O330	O	0.768494	0.195010	0.289324
H331	H	0.244286	-0.324944	-0.177689
H332	H	0.744286	0.175056	0.322311
H333	H	0.177188	-0.297424	-0.223223
H334	H	0.677188	0.202576	0.276777
H335	H	0.601301	-0.159609	-0.793772
H336	H	1.101301	0.340391	-0.293772
O337	O	0.589612	-1.051476	-0.258315
O338	O	1.089612	-0.551476	0.241685
H339	H	0.569638	-1.027301	-0.225355
H340	H	1.069638	-0.527301	0.274645
H341	H	0.622434	-0.286567	-0.793839
H342	H	1.122434	0.213433	-0.293839
H343	H	0.723234	-0.205080	-0.793676
H344	H	1.223234	0.294920	-0.293676
H345	H	0.597172	-0.960154	-0.270825
H346	H	1.097172	-0.460154	0.229175
H347	H	0.706960	-0.263867	-0.792564
H348	H	1.206960	0.236133	-0.292564
H349	H	0.701224	-0.387631	-0.442682
H350	H	1.201224	0.112369	0.057318
H351	H	0.568356	-0.603604	-0.223352
H352	H	1.068356	-0.103604	0.276648
O353	O	0.560788	-0.694925	-0.210844
O354	O	1.060788	-0.194925	0.289156
H355	H	0.540814	-0.670747	-0.177889
H356	H	1.040814	-0.170747	0.322111
O357	O	0.589462	-0.479089	-0.258170
O358	O	1.089462	0.020911	0.241830
H359	H	0.569488	-0.454917	-0.225203
H360	H	1.069488	0.045083	0.274797
O361	O	0.589436	-0.381564	-0.258142
O362	O	1.089436	0.118436	0.241858
H363	H	0.594251	-0.344993	-0.266106
H364	H	1.094251	0.155007	0.233894
O365	O	0.560834	-0.835681	-0.210880
O366	O	1.060834	-0.335681	0.289120
H367	H	0.540860	-0.811506	-0.177919
H368	H	1.040860	-0.311506	0.322081
H369	H	0.579376	-0.243277	-0.793309
H370	H	1.079376	0.256723	-0.293309
