data_functionalizedCrystal
_audit_creation_method	'MofGen! by Chris Wilmer'
_symmetry_space_group_name_H-M	'P1'
_symmetry_Int_Tables_number	1
_symmetry_cell_setting	triclinic
loop_
_symmetry_equiv_pos_as_xyz
  x,y,z
_cell_length_a	21.295417
_cell_length_b	16.120530
_cell_length_c	16.120297
_cell_angle_alpha	90.128140
_cell_angle_beta	92.867002
_cell_angle_gamma	87.125778
loop_
_atom_site_label
_atom_site_type_symbol
_atom_site_fract_x
_atom_site_fract_y
_atom_site_fract_z
Zn1	Zn	-0.318915	1.247391	-0.534523
Zn2	Zn	0.014418	1.580724	-0.201190
Zn3	Zn	0.347751	1.914057	0.132143
Zn4	Zn	-0.419125	1.254326	-0.395453
Zn5	Zn	-0.085792	1.587659	-0.062120
Zn6	Zn	0.247542	1.920993	0.271214
Zn7	Zn	-0.308278	1.115383	-0.388443
Zn8	Zn	0.025055	1.448716	-0.055109
Zn9	Zn	0.358389	1.782049	0.278224
Zn10	Zn	-0.418545	1.108282	-0.527422
Zn11	Zn	-0.085212	1.441616	-0.194089
Zn12	Zn	0.248121	1.774949	0.139244
O13	O	-0.366216	1.181345	-0.461460
O14	O	-0.032883	1.514679	-0.128127
O15	O	0.300451	1.848012	0.205206
O16	O	-0.336903	1.364676	-0.521981
O17	O	-0.003569	1.698010	-0.188648
O18	O	0.329764	2.031343	0.144686
O19	O	-0.400212	1.241769	-0.278158
O20	O	-0.066878	1.575102	0.055175
O21	O	0.266455	1.908435	0.388509
O22	O	-0.221604	1.132963	-0.407859
O23	O	0.111729	1.466296	-0.074526
O24	O	0.445063	1.799630	0.258808
O25	O	-0.410526	1.369771	-0.419806
O26	O	-0.077193	1.703105	-0.086473
O27	O	0.256140	2.036438	0.246860
O28	O	-0.229419	1.229949	-0.515184
O29	O	0.103914	1.563282	-0.181850
O30	O	0.437248	1.896615	0.151483
O31	O	-0.318773	1.139688	-0.273008
O32	O	0.014560	1.473021	0.060326
O33	O	0.347894	1.806354	0.393659
O34	O	-0.318211	0.998075	-0.400973
O35	O	0.015122	1.331409	-0.067640
O36	O	0.348456	1.664742	0.265694
O37	O	-0.409538	1.120862	-0.644729
O38	O	-0.076205	1.454195	-0.311396
O39	O	0.257128	1.787528	0.021938
O40	O	-0.399224	0.992859	-0.503081
O41	O	-0.065890	1.326192	-0.169747
O42	O	0.267443	1.659525	0.163586
O43	O	-0.336340	1.223064	-0.649946
O44	O	-0.003007	1.556397	-0.316613
O45	O	0.330326	1.889730	0.016720
O46	O	-0.507133	1.234884	-0.412921
O47	O	-0.173800	1.568217	-0.079587
O48	O	0.159533	1.901550	0.253746
O49	O	-0.506707	1.127586	-0.509878
O50	O	-0.173374	1.460920	-0.176545
O51	O	0.159959	1.794253	0.156789
C52	C	-0.357501	0.965295	-0.450496
C53	C	-0.024167	1.298628	-0.117163
C54	C	0.309166	1.631961	0.216171
C55	C	-0.353788	0.872866	-0.445825
C56	C	-0.020455	1.206200	-0.112492
C57	C	0.312879	1.539533	0.220841
C58	C	-0.529761	1.181239	-0.461409
C59	C	-0.196428	1.514572	-0.128075
C60	C	0.136905	1.847905	0.205258
C61	C	-0.599731	1.181268	-0.461418
C62	C	-0.266398	1.514601	-0.128085
C63	C	0.066936	1.847934	0.205248
C64	C	-0.346996	0.703638	-0.437305
C65	C	-0.013662	1.036971	-0.103971
C66	C	0.319671	1.370304	0.229362
C67	C	-0.385485	0.659891	-0.485677
C68	C	-0.052151	0.993224	-0.152343
C69	C	0.281182	1.326557	0.180990
C70	C	-0.381705	0.565726	-0.480936
C71	C	-0.048372	0.899059	-0.147602
C72	C	0.284961	1.232393	0.185731
C73	C	-0.350774	0.797811	-0.442045
C74	C	-0.017441	1.131144	-0.108711
C75	C	0.315893	1.464478	0.224622
C76	C	-0.632802	1.237182	-0.410990
C77	C	-0.299469	1.570515	-0.077656
C78	C	0.033864	1.903849	0.255677
C79	C	-0.698547	1.237220	-0.411010
C80	C	-0.365214	1.570553	-0.077677
C81	C	-0.031881	1.903887	0.255656
C82	C	-0.731217	1.181329	-0.461450
C83	C	-0.397884	1.514663	-0.128117
C84	C	-0.064550	1.847996	0.205216
C85	C	-0.698138	1.125411	-0.511889
C86	C	-0.364805	1.458744	-0.178556
C87	C	-0.031471	1.792078	0.154778
C88	C	-0.632395	1.125380	-0.511873
C89	C	-0.299062	1.458713	-0.178540
C90	C	0.034272	1.792047	0.154793
N91	N	-0.831783	1.108264	-0.464098
N92	N	-0.498450	1.441598	-0.130764
N93	N	-0.165116	1.774931	0.202569
N94	N	-0.894236	1.108296	-0.464108
N95	N	-0.560903	1.441629	-0.130775
N96	N	-0.227569	1.774963	0.202558
C97	C	-0.929297	1.181420	-0.461503
C98	C	-0.595964	1.514754	-0.128169
C99	C	-0.262631	1.848087	0.205164
N100	N	-0.899546	1.254514	-0.458870
N101	N	-0.566212	1.587847	-0.125537
N102	N	-0.232879	1.921180	0.207797
N103	N	-0.837087	1.254481	-0.458855
N104	N	-0.503753	1.587814	-0.125522
N105	N	-0.170420	1.921148	0.207811
C106	C	-0.802504	1.181357	-0.461473
C107	C	-0.469171	1.514690	-0.128140
C108	C	-0.135838	1.848024	0.205193
C109	C	-1.033657	1.237380	-0.411094
C110	C	-0.700323	1.570714	-0.077760
C111	C	-0.366990	1.904047	0.255573
C112	C	-1.099403	1.237419	-0.411120
C113	C	-0.766070	1.570753	-0.077787
C114	C	-0.432736	1.904086	0.255546
C115	C	-1.098992	1.125603	-0.511994
C116	C	-0.765659	1.458936	-0.178661
C117	C	-0.432325	1.792270	0.154672
C118	C	-1.033248	1.125571	-0.511973
C119	C	-0.699914	1.458904	-0.178639
C120	C	-0.366581	1.792238	0.154694
C121	C	-1.000584	1.181459	-0.461518
C122	C	-0.667250	1.514792	-0.128184
C123	C	-0.333917	1.848126	0.205149
C124	C	-0.202033	1.181474	-0.461531
C125	C	0.131300	1.514808	-0.128198
C126	C	0.464633	1.848141	0.205135
C127	C	-0.132068	1.181529	-0.461562
C128	C	0.201265	1.514863	-0.128228
C129	C	0.534598	1.848196	0.205105
C130	C	-0.374061	1.170397	-0.678353
C131	C	-0.040728	1.503730	-0.345020
C132	C	0.292605	1.837064	-0.011687
C133	C	-0.377404	1.165731	-0.770780
C134	C	-0.044071	1.499065	-0.437447
C135	C	0.289262	1.832398	-0.104114
C136	C	-0.374966	1.398240	-0.472468
C137	C	-0.041632	1.731573	-0.139134
C138	C	0.291701	2.064906	0.194199
C139	C	-0.378694	1.490667	-0.477159
C140	C	-0.045361	1.824001	-0.143825
C141	C	0.287972	2.157334	0.189508
C142	C	-0.383493	1.157183	-0.940004
C143	C	-0.050160	1.490516	-0.606671
C144	C	0.283174	1.823850	-0.273338
C145	C	-0.348757	1.205672	-0.983777
C146	C	-0.015423	1.539005	-0.650443
C147	C	0.317910	1.872339	-0.317110
C148	C	-0.352144	1.200915	-1.077938
C149	C	-0.018811	1.534249	-0.744605
C150	C	0.314522	1.867582	-0.411272
C151	C	-0.380106	1.161938	-0.845834
C152	C	-0.046773	1.495272	-0.512500
C153	C	0.286561	1.828605	-0.179167
C154	C	-0.358358	1.192299	-0.245413
C155	C	-0.025024	1.525632	0.087920
C156	C	0.308309	1.858966	0.421253
C157	C	-0.354844	1.197126	-0.152995
C158	C	-0.021510	1.530459	0.180338
C159	C	0.311823	1.863792	0.513672
H160	H	-0.311209	0.670373	-0.392335
H161	H	0.022125	1.003706	-0.059002
H162	H	0.355458	1.337040	0.274332
H163	H	-0.316473	1.250756	-0.950533
H164	H	0.016860	1.584089	-0.617200
H165	H	0.350194	1.917423	-0.283867
O166	O	-0.422081	1.103521	-0.979699
O167	O	-0.088748	1.436854	-0.646366
O168	O	0.244585	1.770187	-0.313033
C169	C	-0.510053	1.087423	-1.077345
C170	C	-0.176719	1.420756	-0.744011
C171	C	0.156614	1.754090	-0.410678
C172	C	-0.466405	1.148283	-1.032419
C173	C	-0.133071	1.481616	-0.699085
C174	C	0.200262	1.814950	-0.365752
H175	H	-0.545890	1.123588	-1.119992
H176	H	-0.212557	1.456921	-0.786658
H177	H	0.120777	1.790254	-0.453325
H178	H	-0.535726	1.051674	-1.029576
H179	H	-0.202393	1.385007	-0.696243
H180	H	0.130940	1.718340	-0.362910
H181	H	-0.480820	1.041937	-1.115769
H182	H	-0.147486	1.375270	-0.782436
H183	H	0.185847	1.708604	-0.449103
H184	H	-0.495591	1.193819	-0.993995
H185	H	-0.162258	1.527153	-0.660662
H186	H	0.171076	1.860486	-0.327329
H187	H	-0.440728	1.183972	-1.080229
H188	H	-0.107395	1.517305	-0.746896
H189	H	0.225939	1.850638	-0.413562
O190	O	-0.428167	0.699703	-0.539256
O191	O	-0.094834	1.033036	-0.205923
O192	O	0.238500	1.366370	0.127410
C193	C	-0.470854	0.831219	-0.592947
C194	C	-0.137520	1.164552	-0.259614
C195	C	0.195813	1.497886	0.073720
C196	C	-0.422499	0.786234	-0.532223
C197	C	-0.089165	1.119567	-0.198889
C198	C	0.244168	1.452901	0.134444
H199	H	-0.466278	0.901186	-0.587294
H200	H	-0.132945	1.234519	-0.253960
H201	H	0.200388	1.567853	0.079373
H202	H	-0.520407	0.814971	-0.577377
H203	H	-0.187074	1.148304	-0.244043
H204	H	0.146260	1.481637	0.089290
H205	H	-0.461644	0.810793	-0.659177
H206	H	-0.128310	1.144126	-0.325843
H207	H	0.205023	1.477459	0.007490
H208	H	-0.431650	0.806636	-0.465973
H209	H	-0.098317	1.139969	-0.132639
H210	H	0.235017	1.473302	0.200694
H211	H	-0.372961	0.802483	-0.547865
H212	H	-0.039628	1.135816	-0.214531
H213	H	0.293705	1.469150	0.118802
H214	H	-1.006319	1.080037	-0.553033
H215	H	-0.672985	1.413370	-0.219699
H216	H	-0.339652	1.746704	0.113634
H217	H	-0.606210	1.282691	-0.369908
H218	H	-0.272876	1.616024	-0.036575
H219	H	0.060457	1.949358	0.296758
H220	H	-0.725479	1.282755	-0.369945
H221	H	-0.392146	1.616089	-0.036612
H222	H	-0.058813	1.949422	0.296721
H223	H	-0.724742	1.079906	-0.552959
H224	H	-0.391409	1.413239	-0.219626
H225	H	-0.058076	1.746572	0.113707
O226	O	-1.001861	1.291708	-0.362208
O227	O	-0.668528	1.625042	-0.028875
O228	O	-0.335194	1.958375	0.304459
C229	C	-0.931714	1.404545	-0.356793
C230	C	-0.598381	1.737879	-0.023459
C231	C	-0.265048	2.071212	0.309874
C232	C	-0.967674	1.343053	-0.412250
C233	C	-0.634340	1.676386	-0.078917
C234	C	-0.301007	2.009720	0.254417
H235	H	-0.904076	1.446085	-0.397230
H236	H	-0.570742	1.779418	-0.063897
H237	H	-0.237409	2.112752	0.269437
H238	H	-0.897829	1.368631	-0.311349
H239	H	-0.564495	1.701964	0.021984
H240	H	-0.231162	2.035297	0.355318
H241	H	-0.966660	1.444483	-0.320738
H242	H	-0.633326	1.777816	0.012595
H243	H	-0.299993	2.111150	0.345928
H244	H	-0.932775	1.303100	-0.448358
H245	H	-0.599442	1.636433	-0.115024
H246	H	-0.266108	1.969767	0.218309
H247	H	-1.001569	1.379018	-0.457641
H248	H	-0.668236	1.712352	-0.124308
H249	H	-0.334902	2.045685	0.209025
H250	H	-0.605468	1.079847	-0.552939
H251	H	-0.272134	1.413180	-0.219606
H252	H	0.061199	1.746514	0.113727
H253	H	-1.126329	1.282957	-0.370057
H254	H	-0.792996	1.616290	-0.036724
H255	H	-0.459662	1.949623	0.296610
H256	H	-1.125592	1.080099	-0.553068
H257	H	-0.792258	1.413433	-0.219734
H258	H	-0.458925	1.746766	0.113599
