data_functionalizedCrystal
_audit_creation_method	'MofGen! by Chris Wilmer'
_symmetry_space_group_name_H-M	'P1'
_symmetry_Int_Tables_number	1
_symmetry_cell_setting	triclinic
loop_
_symmetry_equiv_pos_as_xyz
  x,y,z
_cell_length_a	12.759401
_cell_length_b	25.639234
_cell_length_c	25.639239
_cell_angle_alpha	89.975095
_cell_angle_beta	90.038698
_cell_angle_gamma	89.981665
loop_
_atom_site_label
_atom_site_type_symbol
_atom_site_fract_x
_atom_site_fract_y
_atom_site_fract_z
Zn1	Zn	1.606069	-0.295589	-0.208182
Zn2	Zn	1.605893	-0.208153	-0.295611
Zn3	Zn	1.430374	-0.208169	-0.208191
Zn4	Zn	1.430286	-0.295560	-0.295589
O5	O	1.518155	-0.251868	-0.251893
O6	O	1.753066	-0.283995	-0.219786
O7	O	1.582573	-0.134990	-0.284027
O8	O	1.453791	-0.219785	-0.135025
O9	O	1.752937	-0.219757	-0.284019
O10	O	1.582873	-0.284011	-0.135018
O11	O	1.453620	-0.135002	-0.219800
O12	O	1.283341	-0.219757	-0.219779
O13	O	1.453641	-0.368729	-0.283981
O14	O	1.283277	-0.283962	-0.283990
O15	O	1.582787	-0.368750	-0.219764
O16	O	1.582488	-0.219729	-0.368773
O17	O	1.453470	-0.283946	-0.368757
C18	C	1.245188	-0.251858	-0.251883
C19	C	1.128411	-0.251867	-0.251892
C20	C	1.518224	-0.388241	-0.251869
C21	C	1.518253	-0.446355	-0.251859
C22	C	0.963818	-0.285255	-0.285385
C23	C	1.073542	-0.285246	-0.285379
C24	C	1.073551	-0.218490	-0.218413
C25	C	0.963829	-0.218496	-0.218423
C26	C	0.908955	-0.318640	-0.318871
C27	C	0.963808	-0.352017	-0.352350
C28	C	1.073532	-0.352008	-0.352344
C29	C	1.128403	-0.318623	-0.318857
C30	C	1.451137	-0.806730	-0.218354
C31	C	1.451142	-0.861334	-0.218345
O32	O	1.394025	-0.889581	-0.189915
N33	N	1.518288	-0.888637	-0.251777
C34	C	1.585424	-0.861334	-0.285225
O35	O	1.642537	-0.889571	-0.313662
C36	C	1.585413	-0.806730	-0.285237
C37	C	1.518270	-0.779430	-0.251798
C38	C	1.383999	-0.779429	-0.184919
C39	C	1.383995	-0.724829	-0.184928
C40	C	1.451129	-0.697529	-0.218372
C41	C	1.518266	-0.724829	-0.251807
C42	C	1.652543	-0.779427	-0.318687
C43	C	1.652525	-0.724820	-0.318696
C44	C	1.585383	-0.697520	-0.285258
C45	C	1.585396	-0.642929	-0.285261
N46	N	1.518251	-0.615625	-0.251828
C47	C	1.451117	-0.642925	-0.218384
C48	C	1.585443	-0.976004	-0.285199
C49	C	1.585461	-1.030607	-0.285185
C50	C	1.451177	-1.030603	-0.218305
C51	C	1.451165	-0.976000	-0.218316
C52	C	1.518297	-0.948701	-0.251766
C53	C	1.451114	-0.528260	-0.218405
C54	C	1.451119	-0.473655	-0.218415
C55	C	1.585399	-0.473663	-0.285297
C56	C	1.585398	-0.528263	-0.285285
C57	C	1.518247	-0.555561	-0.251837
O58	O	1.642482	-0.614647	-0.313677
O59	O	1.394004	-0.614681	-0.189957
C60	C	1.792189	-0.251877	-0.251904
C61	C	1.908965	-0.251881	-0.251908
C62	C	1.517979	-0.251844	-0.387736
C63	C	1.517999	-0.251851	-0.445850
C64	C	1.518148	-0.116025	-0.251879
C65	C	1.518322	-0.057911	-0.251742
C66	C	1.585510	-0.218487	-0.806209
C67	C	1.585551	-0.218494	-0.860813
O68	O	1.642768	-0.190100	-0.889046
N69	N	1.518340	-0.251902	-0.888132
C70	C	1.451092	-0.285310	-0.860844
O71	O	1.393928	-0.313728	-0.889096
C72	C	1.451057	-0.285305	-0.806241
C73	C	1.518265	-0.251891	-0.778925
C74	C	1.652713	-0.185075	-0.778892
C75	C	1.652671	-0.185068	-0.724292
C76	C	1.585426	-0.218472	-0.697008
C77	C	1.518222	-0.251883	-0.724324
C78	C	1.383815	-0.318715	-0.778954
C79	C	1.383786	-0.318708	-0.724347
C80	C	1.450994	-0.285293	-0.697031
C81	C	1.450934	-0.285279	-0.642440
N82	N	1.518145	-0.251871	-0.615120
C83	C	1.585391	-0.218467	-0.642404
C84	C	1.451171	-0.285318	-0.975515
C85	C	1.451199	-0.285320	-1.030117
C86	C	1.585660	-0.218505	-1.030082
C87	C	1.585626	-0.218500	-0.975479
C88	C	1.518382	-0.251909	-0.948196
C89	C	1.585296	-0.218453	-0.527739
C90	C	1.585245	-0.218447	-0.473134
C91	C	1.450788	-0.285264	-0.473174
C92	C	1.450835	-0.285269	-0.527774
C93	C	1.518098	-0.251861	-0.555056
O94	O	1.393750	-0.313660	-0.614172
O95	O	1.642555	-0.190059	-0.614147
C96	C	1.518361	-0.251903	-0.115520
C97	C	1.518449	-0.251918	-0.057406
H98	H	0.819612	-0.318652	-0.318879
H99	H	1.396112	-0.312479	-0.550017
H100	H	0.919166	-0.191323	-0.191160
C101	C	1.726717	-0.211259	-0.589052
C102	C	1.659248	-0.181735	-0.557715
H103	H	1.772376	-0.188590	-0.607553
H104	H	1.686706	-0.231145	-0.613144
H105	H	1.766838	-0.234058	-0.567708
H106	H	1.619121	-0.158938	-0.579060
H107	H	1.699263	-0.161839	-0.533621
C108	C	1.332577	-0.407233	-0.795724
C109	C	1.309944	-0.355451	-0.808970
H110	H	1.286974	-0.429914	-0.814256
H111	H	1.322938	-0.411999	-0.759302
H112	H	1.403168	-0.414906	-0.804638
H113	H	1.239355	-0.347776	-0.800052
H114	H	1.319574	-0.350682	-0.845400
H115	H	1.396404	-0.312522	-0.953304
H116	H	1.396444	-0.451429	-0.191183
C117	C	0.795607	-0.381675	-0.382093
C118	C	0.903498	-0.388712	-0.389158
H119	H	0.758378	-0.404332	-0.404816
H120	H	0.777588	-0.346537	-0.389700
H121	H	0.777683	-0.389391	-0.346974
H122	H	0.921424	-0.380991	-0.424276
H123	H	0.921524	-0.423857	-0.381554
H124	H	1.707400	-0.157860	-0.702054
C125	C	1.391051	-0.314920	-0.389481
C126	C	1.376879	-0.321984	-0.443176
H127	H	1.345430	-0.337594	-0.370962
H128	H	1.375698	-0.279787	-0.380564
H129	H	1.461634	-0.322597	-0.380502
H130	H	1.306297	-0.314302	-0.452156
H131	H	1.392224	-0.357124	-0.452096
H132	H	1.217748	-0.318616	-0.318857
H133	H	1.118190	-0.379181	-0.379608
H134	H	1.329316	-0.702605	-0.157700
H135	H	1.396434	-0.550479	-0.191168
C136	C	1.436647	-0.914613	-0.147994
C137	C	1.377353	-0.945995	-0.181563
H138	H	1.391073	-0.896094	-0.125302
H139	H	1.476610	-0.890536	-0.167913
H140	H	1.482458	-0.935927	-0.127995
H141	H	1.331547	-0.924680	-0.201565
H142	H	1.337373	-0.970074	-0.161642
C143	C	1.636413	-0.456829	-0.373836
C144	C	1.659181	-0.443647	-0.322062
H145	H	1.681962	-0.438298	-0.396535
H146	H	1.565812	-0.447873	-0.381475
H147	H	1.646041	-0.493255	-0.378611
H148	H	1.649545	-0.407220	-0.317285
H149	H	1.729798	-0.452599	-0.314420
H150	H	1.329325	-0.801651	-0.157684
C151	C	1.391547	-1.114310	-0.188611
C152	C	1.377361	-1.060619	-0.181550
H153	H	1.345971	-1.132840	-0.165925
H154	H	1.462139	-1.123267	-0.180952
H155	H	1.376134	-1.123236	-0.223743
H156	H	1.392781	-1.051692	-0.146419
H157	H	1.306753	-1.051658	-0.189205
H158	H	1.118236	-0.191310	-0.191149
C159	C	1.718190	-1.025111	-0.351293
C160	C	1.659272	-1.060612	-0.321938
H161	H	1.763751	-1.043635	-0.373987
H162	H	1.758405	-1.003828	-0.328517
H163	H	1.672367	-1.003801	-0.371291
H164	H	1.705095	-1.081919	-0.301938
H165	H	1.619054	-1.081904	-0.344718
H166	H	1.640123	-0.953781	-0.312434
C167	C	1.718165	-0.152403	-0.478592
C168	C	1.659129	-0.181717	-0.443108
H169	H	1.763781	-0.129732	-0.460056
H170	H	1.672428	-0.132388	-0.499923
H171	H	1.758337	-0.175211	-0.499856
H172	H	1.618951	-0.158910	-0.421847
H173	H	1.704872	-0.201734	-0.421768
H174	H	1.707217	-0.801646	-0.345917
H175	H	1.707200	-0.702596	-0.345933
H176	H	1.640082	-0.550493	-0.312507
C177	C	1.369069	-0.389029	-0.662914
C178	C	1.309868	-0.355433	-0.694358
H179	H	1.323433	-0.411703	-0.644403
H180	H	1.409074	-0.369130	-0.638831
H181	H	1.414837	-0.409047	-0.684186
H182	H	1.264105	-0.335412	-0.673085
H183	H	1.269845	-0.375335	-0.718444
C184	C	1.399932	-0.373833	-1.046898
C185	C	1.377317	-0.322047	-1.060141
H186	H	1.354325	-0.396508	-1.065435
H187	H	1.390285	-0.378602	-1.010477
H188	H	1.470522	-0.381511	-1.055811
H189	H	1.306729	-0.314369	-1.051225
H190	H	1.386955	-0.317276	-1.096570
C191	C	1.830674	-0.159697	-0.795570
C192	C	1.726671	-0.148352	-0.808855
H193	H	1.876339	-0.137019	-0.814057
H194	H	1.846007	-0.194826	-0.804508
H195	H	1.840211	-0.154931	-0.759134
H196	H	1.717131	-0.153122	-0.845291
H197	H	1.711332	-0.113214	-0.799920
C198	C	1.718533	-0.152457	-0.980941
C199	C	1.659508	-0.181773	-0.945455
H200	H	1.764151	-0.129785	-0.962407
H201	H	1.672789	-0.132441	-1.002269
H202	H	1.758702	-0.175263	-1.002209
H203	H	1.619333	-0.158967	-0.924190
H204	H	1.705258	-0.201790	-0.924119
C205	C	1.645548	-0.188919	-1.113775
C206	C	1.659674	-0.181832	-1.060080
H207	H	1.691268	-0.166294	-1.132294
H208	H	1.575010	-0.181193	-1.122781
H209	H	1.660804	-0.224074	-1.122664
H210	H	1.644410	-0.146678	-1.051189
H211	H	1.730228	-0.189554	-1.051070
