data_functionalizedCrystal
_audit_creation_method	'MofGen! by Chris Wilmer'
_symmetry_space_group_name_H-M	'P1'
_symmetry_Int_Tables_number	1
_symmetry_cell_setting	triclinic
loop_
_symmetry_equiv_pos_as_xyz
  x,y,z
_cell_length_a	18.760487
_cell_length_b	12.970454
_cell_length_c	12.970454
_cell_angle_alpha	60.000396
_cell_angle_beta	90.034967
_cell_angle_gamma	60.020328
loop_
_atom_site_label
_atom_site_type_symbol
_atom_site_fract_x
_atom_site_fract_y
_atom_site_fract_z
Zr1	Zr	0.686686	1.128509	-0.134679
O2	O	0.572871	1.343598	-0.299402
O3	O	0.721576	0.913420	-0.084183
O4	O	0.721578	1.128508	-0.299271
O5	O	0.572869	1.128511	0.085353
O6	O	0.838881	1.128508	-0.299167
O7	O	0.572870	1.128510	-0.084314
O8	O	0.838878	0.743755	0.085586
O9	O	0.572872	1.513264	-0.299400
O10	O	0.823999	1.001890	-0.062568
O11	O	0.736457	1.001890	0.063974
O12	O	0.736458	1.255129	-0.189264
O13	O	0.648916	1.255130	-0.062722
Zr14	Zr	0.873770	1.128510	0.136086
Zr15	Zr	0.873771	1.128509	-0.134512
Zr16	Zr	0.686685	1.128511	0.135920
Zr17	Zr	0.686687	1.399107	-0.134676
Zr18	Zr	0.873769	0.857913	0.136084
O19	O	0.838880	1.343599	0.085591
O20	O	0.838881	1.343597	-0.299165
O21	O	0.572869	1.343600	0.085355
O22	O	0.987585	0.913422	0.300810
O23	O	0.987587	0.913420	-0.083947
O24	O	0.721575	0.913423	0.300573
O25	O	0.987587	1.128509	-0.083945
O26	O	0.838878	1.128511	0.300679
O27	O	0.721575	1.128512	0.300575
O28	O	0.987586	1.128510	0.085722
O29	O	0.721579	1.513263	-0.299268
O30	O	0.838877	0.743756	0.300676
O31	O	0.987584	0.743756	0.300808
O32	O	0.987585	0.743755	0.085718
O33	O	0.572871	1.513265	-0.084311
O34	O	0.721578	1.513264	-0.084178
O35	O	0.823998	1.001891	0.190672
O36	O	0.911540	1.001890	0.064130
O37	O	0.824000	1.255129	-0.062566
O38	O	0.736457	1.255130	0.063976
C39	C	0.780227	0.790033	0.000701
C40	C	0.780227	0.675158	0.000700
C41	C	0.546214	1.128510	0.000496
C42	C	0.466791	1.128510	0.000425
C43	C	0.085279	1.260703	-0.065210
C44	C	0.176678	0.996317	0.067062
C45	C	0.251300	0.996315	0.066954
C46	C	0.242914	1.128509	0.000761
C47	C	0.159907	1.260705	-0.065324
C48	C	0.334312	0.864121	0.133027
C49	C	0.408940	0.864114	0.132920
C50	C	0.400556	0.996309	0.066733
C51	C	0.317542	1.128511	0.000647
C52	C	0.309156	1.260705	-0.065546
C53	C	0.226143	1.392908	-0.131626
C54	C	0.151522	1.392901	-0.131511
C55	C	0.475177	0.996316	0.066618
C56	C	0.383784	1.260707	-0.065660
C57	C	1.014242	1.128509	0.000912
C58	C	1.093665	1.128509	0.000983
C59	C	0.780230	1.128508	-0.337774
C60	C	0.780230	1.128507	-0.452650
C61	C	0.780229	1.466986	0.000707
C62	C	0.780229	1.581862	0.000708
C63	C	0.780226	1.128512	0.339181
C64	C	0.780226	1.128512	0.454058
C65	C	1.014242	0.790033	0.000909
C66	C	1.093664	0.675157	0.000979
C67	C	0.780226	0.790035	0.339179
C68	C	0.780225	0.675160	0.454054
C69	C	1.014240	0.790035	0.339387
C70	C	1.093661	0.675160	0.454333
C71	C	0.546216	1.466985	-0.337979
C72	C	0.466795	1.581860	-0.452925
C73	C	0.546215	1.466987	0.000499
C74	C	0.466793	1.581863	0.000429
C75	C	0.780231	1.466984	-0.337771
C76	C	0.780231	1.581860	-0.452646
C77	C	1.085265	0.621210	-0.065135
C78	C	1.159884	0.513287	-0.065094
C79	C	1.242899	0.459305	0.001068
C80	C	1.251296	0.513263	0.067183
C81	C	1.176678	0.621192	0.067135
C82	C	1.176663	0.621212	0.442259
C83	C	1.251295	0.513290	0.550252
C84	C	1.242924	0.459309	0.670319
C85	C	1.159914	0.513267	0.682390
C86	C	1.085283	0.621195	0.574398
C87	C	0.383793	1.635820	-0.440851
C88	C	0.309161	1.743776	-0.548844
C89	C	0.317532	1.797763	-0.668911
C90	C	0.400543	1.743798	-0.680982
C91	C	0.475173	1.635852	-0.572990
C92	C	0.475191	1.635821	0.066531
C93	C	0.400572	1.743774	0.066461
C94	C	0.317557	1.797759	0.000295
C95	C	0.309160	1.743796	-0.065815
C96	C	0.383778	1.635853	-0.065752
H97	H	0.376945	1.368357	-0.119549
C98	C	0.993987	0.680509	0.587695
H99	H	0.999698	0.632884	0.674671
H100	H	0.962959	0.782413	0.548316
H101	H	0.962984	0.662789	0.548322
H102	H	1.318878	0.469368	0.540401
H103	H	0.542780	1.591875	0.120420
C104	C	0.374568	1.576470	-0.308792
H105	H	0.314442	1.624095	-0.317086
H106	H	0.401771	1.474568	-0.263903
H107	H	0.401784	1.594172	-0.263924
C108	C	0.235483	1.916489	0.000237
H109	H	0.184835	1.940926	-0.048641
H110	H	0.235488	1.881103	0.084450
H111	H	0.235488	2.000702	-0.035155
H112	H	0.241578	1.787696	-0.538991
C113	C	0.235434	1.916482	-0.787691
H114	H	0.184806	1.940865	-0.763293
H115	H	0.235414	2.000711	-0.836536
H116	H	0.235427	1.881087	-0.836511
H117	H	1.303699	0.371427	0.758243
H118	H	0.407348	1.787768	-0.778753
C119	C	-0.006026	1.406115	-0.137897
H120	H	-0.049272	1.387189	-0.128358
H121	H	-0.012503	1.460434	-0.105295
H122	H	-0.012639	1.460424	-0.224894
C123	C	0.217841	1.803180	-0.138581
H124	H	0.174611	1.875180	-0.129131
H125	H	0.211278	1.845294	-0.225547
H126	H	0.211290	1.725690	-0.105929
H127	H	0.407426	1.787693	0.120301
H128	H	1.303651	0.371422	0.001098
H129	H	0.542754	1.591918	-0.582836
H130	H	0.083929	1.500533	-0.185308
C131	C	0.374534	1.576489	-0.138451
H132	H	0.430858	1.504473	-0.128950
H133	H	0.343520	1.534398	-0.105830
H134	H	0.343526	1.653983	-0.225440
H135	H	0.219326	1.500540	-0.185527
C136	C	0.185899	0.850917	0.139867
H137	H	0.129568	0.869849	0.130474
H138	H	0.216840	0.796595	0.107231
H139	H	0.216969	0.796607	0.226828
H140	H	1.153111	0.469300	0.780162
H141	H	0.476526	0.756466	0.186724
C142	C	0.343531	0.718723	0.205827
H143	H	0.287199	0.737659	0.196440
H144	H	0.374465	0.664409	0.173181
H145	H	0.374607	0.664403	0.292787
C146	C	1.342615	0.453862	0.139967
H147	H	1.385845	0.381846	0.130532
H148	H	1.349180	0.531327	0.107353
H149	H	1.349164	0.411729	0.226937
C150	C	1.185927	0.680505	0.139882
H151	H	1.246057	0.632880	0.179299
H152	H	1.158721	0.782410	0.082832
H153	H	1.158725	0.662786	0.202419
H154	H	1.183495	0.665148	0.344504
C155	C	0.566481	0.850913	0.139303
H156	H	0.560787	0.772184	0.178745
H157	H	0.597429	0.845416	0.082216
H158	H	0.597554	0.845421	0.201817
C159	C	0.993958	0.680578	-0.137926
H160	H	0.999656	0.632992	-0.177302
H161	H	0.962941	0.662887	-0.080913
H162	H	0.962952	0.782488	-0.200501
H163	H	1.153030	0.469367	-0.118934
