data_functionalizedCrystal
_audit_creation_method	'MofGen! by Chris Wilmer'
_symmetry_space_group_name_H-M	'P1'
_symmetry_Int_Tables_number	1
_symmetry_cell_setting	triclinic
loop_
_symmetry_equiv_pos_as_xyz
  x,y,z
_cell_length_a	19.188905
_cell_length_b	17.666332
_cell_length_c	10.654550
_cell_angle_alpha	90.005259
_cell_angle_beta	83.809729
_cell_angle_gamma	90.016479
loop_
_atom_site_label
_atom_site_type_symbol
_atom_site_fract_x
_atom_site_fract_y
_atom_site_fract_z
O1	O	0.927185	0.063071	0.156632
O2	O	1.427185	0.563071	0.656632
O3	O	0.724010	0.063045	0.177770
O4	O	1.224010	0.563045	0.677770
O5	O	0.830269	0.063056	-0.015638
O6	O	1.330269	0.563056	0.484362
O7	O	0.820926	0.063060	0.350040
O8	O	1.320926	0.563060	0.850040
O9	O	0.830250	-0.062841	-0.015648
O10	O	1.330250	0.437159	0.484352
O11	O	0.723991	-0.062852	0.177760
O12	O	1.223991	0.437148	0.677760
O13	O	0.927166	-0.062825	0.156622
O14	O	1.427166	0.437175	0.656622
Cu15	Cu	0.825577	-0.074334	0.167190
Cu16	Cu	1.325577	0.425666	0.667190
Cu17	Cu	0.825599	0.074554	0.167202
Cu18	Cu	1.325599	0.574554	0.667202
O19	O	0.820907	-0.062836	0.350030
O20	O	1.320907	0.437164	0.850030
C21	C	0.697984	0.000094	0.177086
C22	C	1.197984	0.500094	0.677086
C23	C	0.620466	0.000084	0.175047
C24	C	1.120466	0.500084	0.675047
C25	C	0.584078	0.068712	0.174073
C26	C	1.084078	0.568712	0.674073
C27	C	0.511241	0.068721	0.172143
C28	C	1.011241	0.568721	0.672143
C29	C	0.474798	0.000098	0.171162
C30	C	0.974798	0.500098	0.671162
C31	C	0.511194	-0.068539	0.172143
C32	C	1.011194	0.431461	0.672143
C33	C	0.584028	-0.068546	0.174085
C34	C	1.084028	0.431454	0.674085
N35	N	0.365282	-0.050972	0.096644
N36	N	0.865282	0.449028	0.596644
N37	N	0.296093	-0.050960	0.094796
N38	N	0.796093	0.449040	0.594796
C39	C	0.255353	0.000117	0.165311
C40	C	0.755353	0.500117	0.665311
N41	N	0.286416	0.051193	0.237729
N42	N	0.786416	0.551193	0.737729
N43	N	0.355612	0.051183	0.239572
N44	N	0.855612	0.551183	0.739572
C45	C	0.395821	0.000099	0.169056
C46	C	0.895821	0.500099	0.669056
C47	C	0.139987	0.068760	0.162247
C48	C	0.639987	0.568760	0.662247
C49	C	0.067149	0.068766	0.160325
C50	C	0.567149	0.568766	0.660325
C51	C	0.067104	-0.068496	0.160312
C52	C	0.567104	0.431504	0.660312
C53	C	0.139940	-0.068500	0.162247
C54	C	0.639940	0.431500	0.662247
C55	C	0.176377	0.000130	0.163208
C56	C	0.676377	0.500130	0.663208
N57	N	0.825566	-0.179053	0.167181
N58	N	1.325566	0.320947	0.667181
C59	C	0.872633	-0.218658	0.081582
C60	C	1.372633	0.281342	0.581582
C61	C	0.872637	-0.297906	0.081575
C62	C	1.372637	0.202094	0.581575
C63	C	0.825581	-0.337545	0.167190
C64	C	1.325581	0.162455	0.667190
C65	C	0.778505	-0.297931	0.252796
C66	C	1.278505	0.202069	0.752796
C67	C	0.778498	-0.218685	0.252791
C68	C	1.278498	0.281315	0.752791
N69	N	0.817232	-0.461963	0.278358
N70	N	1.317232	0.038037	0.778358
N71	N	0.817243	-0.537244	0.278359
N72	N	1.317243	-0.037244	0.778359
C73	C	0.825600	-0.576309	0.167208
C74	C	1.325600	-0.076309	0.667208
N75	N	0.833958	-0.537251	0.056052
N76	N	1.333958	-0.037251	0.556052
N77	N	0.833951	-0.461963	0.056053
N78	N	1.333951	0.038037	0.556053
C79	C	0.825584	-0.423475	0.167204
C80	C	1.325584	0.076525	0.667204
C81	C	0.872674	-0.701844	0.081595
C82	C	1.372674	-0.201844	0.581595
C83	C	0.872673	-0.781093	0.081587
C84	C	1.372673	-0.281093	0.581587
C85	C	0.778544	-0.781116	0.252819
C86	C	1.278544	-0.281116	0.752819
C87	C	0.778541	-0.701869	0.252816
C88	C	1.278541	-0.201869	0.752816
C89	C	0.825610	-0.662237	0.167205
C90	C	1.325610	-0.162237	0.667205
C91	C	0.953191	0.000128	0.157306
C92	C	1.453191	0.500128	0.657306
C93	C	1.030710	0.000143	0.159345
C94	C	1.530710	0.500143	0.659345
C95	C	0.829573	0.000109	-0.062426
C96	C	1.329573	0.500109	0.437574
C97	C	0.827521	0.000111	-0.201826
C98	C	1.327521	0.500111	0.298174
N99	N	0.825615	0.179273	0.167201
N100	N	1.325615	0.679273	0.667201
C101	C	0.890085	0.000117	-0.282645
C102	C	1.390085	0.500117	0.217355
C103	C	0.888152	0.000122	-0.413625
C104	C	1.388152	0.500122	0.086375
C105	C	0.761086	0.000112	-0.382952
C106	C	1.261086	0.500112	0.117048
C107	C	0.763020	0.000112	-0.251975
C108	C	1.263020	0.500112	0.248025
C109	C	0.954586	0.000115	-0.232496
C110	C	1.454586	0.500115	0.267504
C111	C	1.017155	0.000120	-0.313317
C112	C	1.517155	0.500120	0.186683
C113	C	1.015222	0.000125	-0.444296
C114	C	1.515222	0.500125	0.055704
C115	C	0.950720	0.000125	-0.494455
C116	C	1.450720	0.500125	0.005545
C117	C	0.821603	0.000113	0.396818
C118	C	1.321603	0.500113	0.896818
C119	C	0.823655	0.000116	0.536218
C120	C	1.323655	0.500116	1.036218
H121	H	0.481609	0.124608	0.171352
H122	H	0.981609	0.624608	0.671352
O123	O	0.698494	0.000073	-0.431883
O124	O	1.198494	0.500073	0.068117
C125	C	0.710204	0.000091	-0.564817
C126	C	1.210204	0.500091	-0.064817
H127	H	0.764537	-0.023737	-0.595885
H128	H	1.264537	0.476263	-0.095885
H129	H	0.668890	-0.036466	-0.604806
H130	H	1.168890	0.463534	-0.104806
H131	H	0.706654	0.060489	-0.601254
H132	H	1.206654	0.560489	-0.101254
O133	O	1.076044	0.000235	-0.522678
O134	O	1.576044	0.500235	-0.022678
C135	C	1.115172	0.065448	-0.500009
C136	C	1.615172	0.565448	-0.000009
H137	H	1.098513	0.087183	-0.400547
H138	H	1.598513	0.587183	0.099453
H139	H	1.173355	0.050786	-0.509555
H140	H	1.673355	0.550786	-0.009555
H141	H	1.105289	0.111107	-0.571591
H142	H	1.605289	0.611107	-0.071591
H143	H	1.069669	0.000139	-0.272468
H144	H	1.569669	0.500139	0.227532
O145	O	0.031733	0.135387	0.159211
O146	O	0.531733	0.635387	0.659211
C147	C	-0.002993	0.139499	0.049341
C148	C	0.497007	0.639499	0.549341
H149	H	-0.011461	0.079912	0.012803
H150	H	0.488539	0.579912	0.512803
H151	H	-0.055863	0.168550	0.072435
H152	H	0.444137	0.668550	0.572435
H153	H	0.030261	0.173360	-0.026056
H154	H	0.530261	0.673360	0.473944
H155	H	0.712075	0.000107	-0.186169
H156	H	1.212075	0.500107	0.313831
H157	H	0.169656	0.124642	0.163043
H158	H	0.669656	0.624642	0.663043
O159	O	0.948930	0.000236	-0.621710
O160	O	1.448930	0.500236	-0.121710
C161	C	0.983127	0.065455	-0.673861
C162	C	1.483127	0.565455	-0.173861
H163	H	1.021342	0.087194	-0.607332
H164	H	1.521342	0.587194	-0.107332
H165	H	1.013063	0.050799	-0.769030
H166	H	1.513063	0.550799	-0.269030
H167	H	0.942630	0.111109	-0.687391
H168	H	1.442630	0.611109	-0.187391
O169	O	0.732801	-0.819695	0.335813
O170	O	1.232801	-0.319695	0.835813
C171	C	0.689398	-0.865541	0.268757
C172	C	1.189398	-0.365541	0.768757
H173	H	0.716733	-0.877410	0.170362
H174	H	1.216733	-0.377410	0.670362
H175	H	0.678608	-0.921267	0.321227
H176	H	1.178608	-0.421267	0.821227
H177	H	0.637758	-0.835020	0.260459
H178	H	1.137758	-0.335020	0.760459
O179	O	0.732800	-0.663510	0.336099
O180	O	1.232800	-0.163510	0.836099
C181	C	0.691254	-0.715486	0.411645
C182	C	1.191254	-0.215486	0.911645
H183	H	0.719889	-0.771964	0.412935
H184	H	1.219889	-0.271964	0.912935
H185	H	0.681084	-0.692586	0.511983
H186	H	1.181084	-0.192586	1.011983
H187	H	0.639195	-0.723939	0.371108
H188	H	1.139195	-0.223939	0.871108
H189	H	0.481516	-0.124412	0.171347
H190	H	0.981516	0.375588	0.671347
O191	O	0.619360	0.135444	0.175067
O192	O	1.119360	0.635444	0.675067
C193	C	0.571620	0.196020	0.173760
C194	C	1.071620	0.696020	0.673760
H195	H	0.516993	0.175906	0.212124
H196	H	1.016993	0.675906	0.712124
H197	H	0.588536	0.244020	0.235274
H198	H	1.088536	0.744020	0.735274
H199	H	0.570729	0.217118	0.072828
H200	H	1.070729	0.717118	0.572828
O201	O	0.031698	-0.135139	0.159128
O202	O	0.531698	0.364861	0.659128
C203	C	-0.003054	-0.139233	0.049283
C204	C	0.496946	0.360767	0.549283
H205	H	0.024073	-0.100286	-0.026124
H206	H	0.524073	0.399714	0.473876
H207	H	-0.001416	-0.199930	0.012750
H208	H	0.498584	0.300070	0.512750
H209	H	-0.059920	-0.120795	0.072397
H210	H	0.440080	0.379205	0.572397
H211	H	0.169568	-0.124385	0.163031
H212	H	0.669568	0.375615	0.663031
O213	O	0.619275	-0.135283	0.174964
O214	O	1.119275	0.364717	0.674964
C215	C	0.571492	-0.195852	0.173723
C216	C	1.071492	0.304148	0.673723
H217	H	0.522280	-0.175730	0.132598
H218	H	1.022280	0.324270	0.632598
H219	H	0.596663	-0.243853	0.113324
H220	H	1.096663	0.256147	0.613324
H221	H	0.556895	-0.216953	0.274240
H222	H	1.056895	0.283047	0.774240
H223	H	0.910966	-0.330158	0.011867
H224	H	1.410966	0.169842	0.511867
O225	O	0.918277	-0.180310	-0.001926
O226	O	1.418277	0.319690	0.498074
C227	C	0.906221	-0.199873	-0.126055
C228	C	1.406221	0.300127	0.373945
H229	H	0.850286	-0.221609	-0.126180
H230	H	1.350286	0.278391	0.373820
H231	H	0.913968	-0.147864	-0.189356
H232	H	1.413968	0.352136	0.310644
H233	H	0.944659	-0.245964	-0.163004
H234	H	1.444659	0.254036	0.336996
O235	O	0.732766	-0.336518	0.335791
O236	O	1.232766	0.163482	0.835791
C237	C	0.689367	-0.382369	0.268735
C238	C	1.189367	0.117631	0.768735
H239	H	0.716703	-0.394236	0.170341
H240	H	1.216703	0.105764	0.670341
H241	H	0.678581	-0.438095	0.321205
H242	H	1.178581	0.061905	0.821205
H243	H	0.637724	-0.351853	0.260435
H244	H	1.137724	0.148147	0.760435
O245	O	0.732752	-0.180326	0.336074
O246	O	1.232752	0.319674	0.836074
C247	C	0.691203	-0.232302	0.411616
C248	C	1.191203	0.267698	0.911616
H249	H	0.719835	-0.288781	0.412905
H250	H	1.219835	0.211219	0.912905
H251	H	0.681033	-0.209402	0.511955
H252	H	1.181033	0.290598	1.011955
H253	H	0.639144	-0.240751	0.371077
H254	H	1.139144	0.259249	0.871077
H255	H	0.910998	-0.669574	0.011882
H256	H	1.410998	-0.169574	0.511882
H257	H	0.910998	-0.813340	0.011875
H258	H	1.410998	-0.313340	0.511875
H259	H	0.956167	0.000109	-0.125847
H260	H	1.456167	0.500109	0.374153
