data_functionalizedCrystal
_audit_creation_method	'MofGen! by Chris Wilmer'
_symmetry_space_group_name_H-M	'P1'
_symmetry_Int_Tables_number	1
_symmetry_cell_setting	triclinic
loop_
_symmetry_equiv_pos_as_xyz
  x,y,z
_cell_length_a	17.639617
_cell_length_b	18.101395
_cell_length_c	17.640968
_cell_angle_alpha	101.231698
_cell_angle_beta	109.666032
_cell_angle_gamma	101.216463
loop_
_atom_site_label
_atom_site_type_symbol
_atom_site_fract_x
_atom_site_fract_y
_atom_site_fract_z
Zn1	Zn	1.354406	0.097961	0.721256
Zn2	Zn	1.326405	-0.057299	0.583394
Zn3	Zn	1.188683	0.035196	0.555519
Zn4	Zn	1.216495	-0.057226	0.693277
O5	O	1.271497	0.004658	0.638361
O6	O	1.466046	0.103603	0.726343
O7	O	1.284778	-0.071327	0.464349
O8	O	1.210745	0.147178	0.577548
O9	O	1.445474	-0.010466	0.625057
O10	O	1.332501	0.193291	0.699314
O11	O	1.183594	-0.003371	0.443869
O12	O	1.077018	-0.003301	0.550418
O13	O	1.258147	-0.010343	0.812336
O14	O	1.097452	-0.071204	0.651628
O15	O	1.359470	0.103673	0.832892
O16	O	1.311747	-0.160945	0.597927
O17	O	1.230996	-0.160892	0.678658
C18	C	1.057325	-0.044056	0.594963
C19	C	0.965705	-0.064909	0.576416
C20	C	0.717979	0.163141	0.779463
C21	C	0.631885	0.143524	0.762018
C22	C	0.610455	0.024867	0.656397
C23	C	0.696549	0.044472	0.673836
C24	C	0.750305	0.113611	0.735368
C25	C	0.728875	-0.005058	0.629741
C26	C	0.814962	0.014548	0.647175
C27	C	0.868723	0.083684	0.708703
C28	C	0.836392	0.133217	0.752802
C29	C	0.675117	-0.074194	0.568205
C30	C	0.707443	-0.123724	0.524110
C31	C	0.793532	-0.104121	0.541548
C32	C	0.847293	-0.034985	0.603076
C33	C	0.825863	-0.153654	0.497449
C34	C	0.911949	-0.134048	0.514883
C35	C	0.933379	-0.015379	0.620510
C36	C	1.271377	-0.187786	0.638304
C37	C	1.271406	-0.270091	0.638322
C38	C	1.271507	-0.420771	0.638374
C39	C	1.220658	-0.452141	0.689111
C40	C	1.220954	-0.537643	0.689429
C41	C	1.271606	-0.569125	0.638425
C42	C	1.363236	-0.512851	0.679393
C43	C	1.362904	-0.427201	0.679751
C44	C	1.231474	-0.477352	0.546672
C45	C	1.229708	-0.563318	0.546778
C46	C	1.271666	-0.652968	0.638453
C47	C	1.271453	-0.336926	0.638348
C48	C	1.486506	0.053562	0.681930
C49	C	1.578130	0.074401	0.700497
C50	C	1.315034	0.053674	0.853358
C51	C	1.333587	0.074562	0.944977
C52	C	1.271644	0.197863	0.638442
C53	C	1.271707	0.280196	0.638477
C54	C	1.228177	-0.044103	0.424211
C55	C	1.209784	-0.064746	0.332625
C56	C	1.130870	-0.153549	1.192795
C57	C	1.148320	-0.133909	1.278889
C58	C	1.253819	-0.015194	1.300281
C59	C	1.236374	-0.034823	1.214187
C60	C	1.174899	-0.104002	1.160451
C61	C	1.280404	0.014724	1.181843
C62	C	1.262963	-0.004905	1.095757
C63	C	1.201493	-0.074082	1.042016
C64	C	1.157459	-0.123632	1.074365
C65	C	1.341882	0.083900	1.235581
C66	C	1.385912	0.133448	1.203237
C67	C	1.368468	0.113821	1.117149
C68	C	1.306998	0.044644	1.063408
C69	C	1.412502	0.163371	1.084800
C70	C	1.395062	0.143741	0.998714
C71	C	1.289557	0.025015	0.977322
H72	H	0.880164	0.189514	0.802911
O73	O	1.131136	-0.448793	0.652651
H74	H	1.121924	-0.424730	0.597980
H75	H	1.248315	-0.412612	0.756300
O76	O	1.223245	-0.049595	0.919350
H77	H	1.240682	-0.100753	0.938703
O78	O	0.946826	-0.187468	0.467332
H79	H	0.894985	-0.238842	0.421623
O80	O	0.961572	0.104839	0.727498
H81	H	0.993518	0.161240	0.777685
H82	H	1.430914	0.184088	0.972379
O83	O	1.257965	-0.540762	0.778978
H84	H	1.275730	-0.481134	0.822225
O85	O	1.478810	0.237982	1.142754
H86	H	1.461365	0.289130	1.123383
H87	H	1.356082	0.099879	1.305678
H88	H	1.262638	-0.586283	0.505560
H89	H	1.395300	-0.515502	0.746326
O90	O	1.100814	-0.187350	1.313769
H91	H	1.123269	-0.162082	1.382658
H92	H	1.402951	-0.532310	0.644357
O93	O	1.143212	-0.474055	0.501708
H94	H	1.104105	-0.492073	0.536425
H95	H	1.394753	-0.388350	0.747302
O96	O	1.131694	-0.589406	0.652808
H97	H	1.087927	-0.553453	0.634715
O98	O	1.140315	-0.615011	0.505591
H99	H	1.133108	-0.659430	0.448627
O100	O	1.280234	-0.450798	0.496305
H101	H	1.332719	-0.397572	0.536337
H102	H	1.435967	0.189772	1.247001
H103	H	1.303874	0.041130	1.344045
O104	O	0.991368	0.059194	0.686877
H105	H	0.987945	0.057389	0.748200
H106	H	0.605570	0.183866	0.797926
O107	O	0.767874	-0.228216	0.431078
H108	H	0.804814	-0.259362	0.403339
O109	O	1.416079	-0.398273	0.634192
H110	H	1.441923	-0.445462	0.612008
H111	H	1.187298	-0.090065	0.971920
O112	O	1.091150	-0.198244	1.016394
H113	H	1.063461	-0.229404	1.053345
O114	O	1.064561	-0.228162	1.134824
H115	H	1.036871	-0.259322	1.171776
O116	O	0.552474	-0.049700	0.590028
H117	H	0.520703	-0.087972	0.618901
O118	O	0.775971	0.237712	0.845831
H119	H	0.739032	0.268865	0.873565
H120	H	0.663663	-0.180015	0.474008
O121	O	0.582264	-0.095348	0.549392
H122	H	0.572147	-0.101416	0.606931
