data_functionalizedCrystal
_audit_creation_method	'MofGen! by Chris Wilmer'
_symmetry_space_group_name_H-M	'P1'
_symmetry_Int_Tables_number	1
_symmetry_cell_setting	triclinic
loop_
_symmetry_equiv_pos_as_xyz
  x,y,z
_cell_length_a	21.295420
_cell_length_b	14.908579
_cell_length_c	14.908308
_cell_angle_alpha	96.363296
_cell_angle_beta	93.277134
_cell_angle_gamma	93.316180
loop_
_atom_site_label
_atom_site_type_symbol
_atom_site_fract_x
_atom_site_fract_y
_atom_site_fract_z
Zn1	Zn	-0.925192	0.390017	0.532628
Zn2	Zn	-0.591859	0.723350	0.865961
Zn3	Zn	-0.258526	1.056684	1.199295
Zn4	Zn	-0.925118	0.532663	0.390005
Zn5	Zn	-0.591785	0.865996	0.723338
Zn6	Zn	-0.258452	1.199329	1.056672
Zn7	Zn	-0.826373	0.381304	0.381281
Zn8	Zn	-0.493039	0.714638	0.714614
Zn9	Zn	-0.159706	1.047971	1.047948
Zn10	Zn	-0.813455	0.541319	0.541309
Zn11	Zn	-0.480122	0.874652	0.874642
Zn12	Zn	-0.146789	1.207985	1.207976
O13	O	-0.872535	0.461326	0.461306
O14	O	-0.539201	0.794659	0.794639
O15	O	-0.205868	1.127992	1.127972
O16	O	-1.013270	0.408963	0.513727
O17	O	-0.679937	0.742297	0.847060
O18	O	-0.346604	1.075630	1.180393
O19	O	-0.917394	0.505316	0.262187
O20	O	-0.584061	0.838649	0.595520
O21	O	-0.250728	1.171983	0.928854
O22	O	-0.844918	0.255796	0.394073
O23	O	-0.511585	0.589129	0.727407
O24	O	-0.178252	0.922463	1.060740
O25	O	-1.013216	0.513764	0.408942
O26	O	-0.679882	0.847098	0.742275
O27	O	-0.346549	1.180431	1.075609
O28	O	-0.917521	0.262197	0.505267
O29	O	-0.584187	0.595530	0.838601
O30	O	-0.250854	0.928864	1.171934
O31	O	-0.844846	0.394114	0.255777
O32	O	-0.511513	0.727447	0.589111
O33	O	-0.178180	1.060780	0.922444
O34	O	-0.736572	0.402507	0.402491
O35	O	-0.403238	0.735840	0.735824
O36	O	-0.069905	1.069173	1.069158
O37	O	-0.822903	0.528517	0.666818
O38	O	-0.489569	0.861850	1.000152
O39	O	-0.156236	1.195184	1.333485
O40	O	-0.727081	0.520069	0.520063
O41	O	-0.393748	0.853402	0.853396
O42	O	-0.060415	1.186735	1.186730
O43	O	-0.904995	0.417356	0.660440
O44	O	-0.571662	0.750690	0.993774
O45	O	-0.238329	1.084023	1.327107
O46	O	-0.904869	0.660475	0.417360
O47	O	-0.571536	0.993808	0.750693
O48	O	-0.238202	1.327142	1.084027
O49	O	-0.822831	0.666835	0.528522
O50	O	-0.489498	1.000168	0.861856
O51	O	-0.156164	1.333501	1.195189
C52	C	-0.708986	0.461282	0.461273
C53	C	-0.375653	0.794616	0.794606
C54	C	-0.042320	1.127949	1.127940
C55	C	-0.639018	0.461287	0.461282
C56	C	-0.305684	0.794620	0.794615
C57	C	0.027649	1.127953	1.127948
C58	C	-0.862456	0.696499	0.474850
C59	C	-0.529123	1.029832	0.808183
C60	C	-0.195790	1.363165	1.141516
C61	C	-0.858201	0.797108	0.480674
C62	C	-0.524868	1.130442	0.814007
C63	C	-0.191535	1.463775	1.147341
C64	C	-0.862516	0.474874	0.697389
C65	C	-0.529183	0.808207	1.030722
C66	C	-0.195850	1.141541	1.364056
C67	C	-0.858247	0.480648	0.797994
C68	C	-0.524914	0.813981	1.131327
C69	C	-0.191581	1.147314	1.464661
C70	C	-0.139577	0.406865	0.515959
C71	C	0.193757	0.740199	0.849293
C72	C	0.527090	1.073532	1.182626
C73	C	-0.205319	0.406861	0.515961
C74	C	0.128014	0.740195	0.849294
C75	C	0.461347	1.073528	1.182628
C76	C	-0.238175	0.461326	0.461308
C77	C	0.095158	0.794659	0.794642
C78	C	0.428491	1.127992	1.127975
C79	C	-0.205282	0.515815	0.406667
C80	C	0.128051	0.849148	0.740001
C81	C	0.461384	1.182482	1.073334
C82	C	-0.139540	0.515824	0.406674
C83	C	0.193793	0.849157	0.740007
C84	C	0.527126	1.182491	1.073341
N85	N	-0.344457	0.463585	0.382450
N86	N	-0.011123	0.796919	0.715783
N87	N	0.322210	1.130252	1.049117
N88	N	-0.406909	0.463571	0.382446
N89	N	-0.073575	0.796905	0.715779
N90	N	0.259758	1.130238	1.049113
C91	C	-0.436252	0.461303	0.461286
C92	C	-0.102919	0.794637	0.794619
C93	C	0.230415	1.127970	1.127953
N94	N	-0.400785	0.459032	0.540131
N95	N	-0.067451	0.792365	0.873465
N96	N	0.265882	1.125698	1.206798
N97	N	-0.338327	0.459041	0.540134
N98	N	-0.004993	0.792374	0.873467
N99	N	0.328340	1.125707	1.206801
C100	C	-0.309462	0.461322	0.461295
C101	C	0.023872	0.794656	0.794629
C102	C	0.357205	1.127989	1.127962
C103	C	-0.540423	0.406818	0.515930
C104	C	-0.207089	0.740151	0.849264
C105	C	0.126244	1.073485	1.182597
C106	C	-0.606166	0.406821	0.515934
C107	C	-0.272833	0.740154	0.849267
C108	C	0.060501	1.073487	1.182600
C109	C	-0.606128	0.515769	0.406632
C110	C	-0.272795	0.849102	0.739965
C111	C	0.060538	1.182436	1.073298
C112	C	-0.540386	0.515772	0.406637
C113	C	-0.207052	0.849105	0.739970
C114	C	0.126281	1.182438	1.073303
C115	C	-0.507537	0.461291	0.461284
C116	C	-0.174204	0.794625	0.794618
C117	C	0.159130	1.127958	1.127951
C118	C	-0.036723	0.461359	0.461331
C119	C	0.296611	0.794692	0.794665
C120	C	0.629944	1.128025	1.127998
C121	C	-0.106692	0.461344	0.461322
C122	C	0.226642	0.794677	0.794655
C123	C	0.559975	1.128010	1.127988
C124	C	-0.935710	0.979487	0.375958
C125	C	-0.602377	1.312820	0.709292
C126	C	-0.269044	1.646154	1.042625
C127	C	-0.931715	1.074019	0.381428
C128	C	-0.598381	1.407352	0.714761
C129	C	-0.265048	1.740685	1.048095
C130	C	-0.846217	1.080705	0.497087
C131	C	-0.512884	1.414038	0.830420
C132	C	-0.179550	1.747372	1.163753
C133	C	-0.850213	0.986173	0.491617
C134	C	-0.516880	1.319507	0.824951
C135	C	-0.183546	1.652840	1.158284
C136	C	-0.894960	0.935568	0.431050
C137	C	-0.561627	1.268901	0.764383
C138	C	-0.228294	1.602234	1.097717
C139	C	-0.898953	0.841034	0.425576
C140	C	-0.565620	1.174367	0.758910
C141	C	-0.232286	1.507701	1.092243
C142	C	-0.813459	0.847722	0.541239
C143	C	-0.480125	1.181056	0.874572
C144	C	-0.146792	1.514389	1.207906
C145	C	-0.809463	0.942254	0.546709
C146	C	-0.476130	1.275587	0.880042
C147	C	-0.142796	1.608921	1.213375
C148	C	-0.882664	1.225236	0.447740
C149	C	-0.549331	1.558570	0.781074
C150	C	-0.215997	1.891903	1.114407
C151	C	-0.886969	1.124631	0.441989
C152	C	-0.553635	1.457964	0.775323
C153	C	-0.220302	1.791297	1.108656
C154	C	-0.882553	0.447765	0.226137
C155	C	-0.549220	0.781098	0.559470
C156	C	-0.215886	1.114431	0.892804
C157	C	-0.886955	0.441736	0.125518
C158	C	-0.553622	0.775070	0.458851
C159	C	-0.220288	1.108403	0.792185
C160	C	-0.935707	0.375724	0.980400
C161	C	-0.602374	0.709057	1.313733
C162	C	-0.269040	1.042391	1.647067
C163	C	-0.931698	0.381146	1.074927
C164	C	-0.598365	0.714479	1.408260
C165	C	-0.265031	1.047812	1.741593
C166	C	-0.846217	0.496907	1.081576
C167	C	-0.512884	0.830241	1.414909
C168	C	-0.179550	1.163574	1.748243
C169	C	-0.850226	0.491486	0.987049
C170	C	-0.516893	0.824819	1.320382
C171	C	-0.183560	1.158152	1.653716
C172	C	-0.894973	0.430893	0.936464
C173	C	-0.561640	0.764226	1.269798
C174	C	-0.228307	1.097560	1.603131
C175	C	-0.898985	0.425477	0.841936
C176	C	-0.565652	0.758810	1.175269
C177	C	-0.232319	1.092143	1.508603
C178	C	-0.813502	0.541233	0.848587
C179	C	-0.480169	0.874566	1.181920
C180	C	-0.146835	1.207900	1.515253
C181	C	-0.809493	0.546655	0.943113
C182	C	-0.476159	0.879988	1.276447
C183	C	-0.142826	1.213321	1.609780
H184	H	-0.112835	0.362507	0.560462
H185	H	0.220498	0.695840	0.893795
H186	H	0.553832	1.029174	1.227128
Cl187	Cl	-0.246669	0.338366	0.584651
Cl188	Cl	0.086664	0.671700	0.917984
Cl189	Cl	0.419997	1.005033	1.251318
Cl190	Cl	-0.789976	1.144340	0.573233
Cl191	Cl	-0.456642	1.477673	0.906567
Cl192	Cl	-0.123309	1.811006	1.239900
H193	H	-0.780335	0.586158	0.812805
H194	H	-0.447002	0.919491	1.146138
H195	H	-0.113668	1.252825	1.479471
Cl196	Cl	-0.955239	0.349306	0.778345
Cl197	Cl	-0.621906	0.682640	1.111678
Cl198	Cl	-0.288573	1.015973	1.445011
H199	H	-0.773032	0.983470	0.596023
H200	H	-0.439699	1.316804	0.929356
H201	H	-0.106366	1.650137	1.262690
Cl202	Cl	-0.499124	0.338333	0.584632
Cl203	Cl	-0.165790	0.671667	0.917965
Cl204	Cl	0.167543	1.005000	1.251299
Cl205	Cl	-0.647426	0.584247	0.337932
Cl206	Cl	-0.314093	0.917581	0.671266
Cl207	Cl	0.019240	1.250914	1.004599
Cl208	Cl	-0.991965	0.299563	0.916805
Cl209	Cl	-0.658632	0.632896	1.250138
Cl210	Cl	-0.325298	0.966230	1.583472
H211	H	-0.513611	0.560130	0.362140
H212	H	-0.180277	0.893463	0.695474
H213	H	0.153056	1.226797	1.028807
Cl214	Cl	-0.955204	0.777416	0.349433
Cl215	Cl	-0.621871	1.110749	0.682766
Cl216	Cl	-0.288537	1.444083	1.016099
H217	H	-0.780276	0.811953	0.586096
H218	H	-0.446942	1.145286	0.919429
H219	H	-0.113609	1.478619	1.252763
Cl220	Cl	-0.098198	0.584312	0.337976
Cl221	Cl	0.235136	0.917646	0.671309
Cl222	Cl	0.568469	1.250979	1.004643
H223	H	-0.964866	0.336219	1.110695
H224	H	-0.631533	0.669552	1.444028
H225	H	-0.298199	1.002886	1.777362
H226	H	-0.972142	0.938282	0.326636
H227	H	-0.638808	1.271616	0.659969
H228	H	-0.305475	1.604949	0.993303
Cl229	Cl	-0.647507	0.338335	0.584636
Cl230	Cl	-0.314174	0.671668	0.917969
Cl231	Cl	0.019160	1.005001	1.251302
H232	H	-0.809786	0.546238	1.122778
H233	H	-0.476453	0.879572	1.456112
H234	H	-0.143119	1.212905	1.789445
H235	H	-0.964899	1.109774	0.336568
H236	H	-0.631565	1.443107	0.669902
H237	H	-0.298232	1.776441	1.003235
H238	H	-0.773060	0.595985	0.984312
H239	H	-0.439726	0.929319	1.317646
H240	H	-0.106393	1.262652	1.650979
Cl241	Cl	-0.246586	0.584288	0.337965
Cl242	Cl	0.086747	0.917622	0.671298
Cl243	Cl	0.420081	1.250955	1.004631
