data_functionalizedCrystal
_audit_creation_method	'MofGen! by Chris Wilmer'
_symmetry_space_group_name_H-M	'P1'
_symmetry_Int_Tables_number	1
_symmetry_cell_setting	triclinic
loop_
_symmetry_equiv_pos_as_xyz
  x,y,z
_cell_length_a	12.759401
_cell_length_b	25.639240
_cell_length_c	12.759393
_cell_angle_alpha	89.956269
_cell_angle_beta	89.980718
_cell_angle_gamma	90.034283
loop_
_atom_site_label
_atom_site_type_symbol
_atom_site_fract_x
_atom_site_fract_y
_atom_site_fract_z
Zn1	Zn	1.606117	-0.208101	-0.593928
Zn2	Zn	1.605958	-0.295547	-0.418209
Zn3	Zn	1.430421	-0.208130	-0.418263
Zn4	Zn	1.430353	-0.295510	-0.593846
O5	O	1.518212	-0.251822	-0.506061
O6	O	1.753117	-0.219705	-0.570630
O7	O	1.582635	-0.283979	-0.271195
O8	O	1.453823	-0.134961	-0.441622
O9	O	1.753000	-0.283951	-0.441530
O10	O	1.582906	-0.134940	-0.570682
O11	O	1.453669	-0.219754	-0.271235
O12	O	1.283391	-0.219717	-0.441543
O13	O	1.453706	-0.283887	-0.740878
O14	O	1.283341	-0.283915	-0.570543
O15	O	1.582840	-0.219669	-0.740938
O16	O	1.582568	-0.368708	-0.441451
O17	O	1.453552	-0.368680	-0.570491
C18	C	1.245245	-0.251816	-0.506041
C19	C	1.128468	-0.251826	-0.506057
C20	C	1.518064	-0.387665	-0.505979
C21	C	1.518096	-0.445779	-0.505979
C22	C	1.073608	-0.285304	-0.573121
C23	C	0.963884	-0.285306	-0.573142
C24	C	0.963891	-0.218350	-0.439024
C25	C	1.073613	-0.218345	-0.439010
C26	C	0.813972	-0.304066	-0.696994
C27	C	0.759108	-0.337553	-0.764050
C28	C	0.794673	-0.388577	-0.779975
C29	C	0.885100	-0.406126	-0.728829
C30	C	0.939959	-0.372642	-0.661766
C31	C	0.904396	-0.321610	-0.645861
C32	C	1.223526	-0.199591	-0.315156
C33	C	1.278387	-0.166109	-0.248087
C34	C	1.242824	-0.115083	-0.232151
C35	C	1.152393	-0.097537	-0.283278
C36	C	1.097532	-0.131019	-0.350347
C37	C	1.133103	-0.182044	-0.366285
C38	C	1.585459	-0.806092	-0.573384
C39	C	1.585490	-0.860697	-0.573406
O40	O	1.642588	-0.888891	-0.630631
N41	N	1.518358	-0.888061	-0.506163
C42	C	1.451183	-0.860819	-0.438902
O43	O	1.394084	-0.889108	-0.381710
C44	C	1.451147	-0.806215	-0.438887
C45	C	1.518292	-0.778854	-0.506126
C46	C	1.652597	-0.778731	-0.640619
C47	C	1.652567	-0.724130	-0.640596
C48	C	1.585400	-0.696891	-0.573338
C49	C	1.518262	-0.724253	-0.506103
C50	C	1.383968	-0.778974	-0.371632
C51	C	1.383938	-0.724367	-0.371623
C52	C	1.451082	-0.697005	-0.438863
C53	C	1.451064	-0.642414	-0.438822
N54	N	1.518196	-0.615049	-0.506065
C55	C	1.585364	-0.642288	-0.573323
C56	C	1.451261	-0.975489	-0.438941
C57	C	1.451301	-1.030091	-0.438950
C58	C	1.585608	-1.029966	-0.573455
C59	C	1.585572	-0.975362	-0.573440
C60	C	1.518394	-0.948125	-0.506183
C61	C	1.585297	-0.527623	-0.573269
C62	C	1.585264	-0.473018	-0.573237
C63	C	1.450955	-0.473148	-0.438736
C64	C	1.450991	-0.527749	-0.438764
C65	C	1.518165	-0.554985	-0.506039
O66	O	1.393993	-0.614184	-0.381629
O67	O	1.642444	-0.613992	-0.630516
C68	C	1.792246	-0.251829	-0.506083
C69	C	1.909022	-0.251832	-0.506092
C70	C	1.518283	-0.251771	-0.780095
C71	C	1.518313	-0.251749	-0.896872
C72	C	1.518390	-0.115449	-0.506167
C73	C	1.518466	-0.057335	-0.506212
C74	C	1.451215	-0.218282	-1.061485
C75	C	1.451186	-0.218300	-0.951760
C76	C	1.585482	-0.285178	-0.951713
C77	C	1.585515	-0.285158	-1.061435
C78	C	1.413684	-0.156665	-0.801857
C79	C	1.346506	-0.123241	-0.747020
C80	C	1.244014	-0.115204	-0.782634
C81	C	1.208678	-0.140598	-0.873083
C82	C	1.275849	-0.174026	-0.927914
C83	C	1.378357	-0.182053	-0.892302
C84	C	1.623006	-0.346793	-1.211340
C85	C	1.690174	-0.380224	-1.266174
C86	C	1.792668	-0.388267	-1.230562
C87	C	1.828000	-0.362882	-1.140109
C88	C	1.760833	-0.329451	-1.085276
C89	C	1.658340	-0.321408	-1.120895
C90	C	1.518202	-0.251836	-0.233094
C91	C	1.518376	-0.251710	-0.116318
H92	H	1.118268	-0.312565	-0.627718
C93	C	1.659193	-0.557578	-0.647266
C94	C	1.741729	-0.595099	-0.601831
C95	C	1.815629	-0.625054	-0.675821
C96	C	1.806994	-0.617487	-0.795246
C97	C	1.724455	-0.579963	-0.840687
C98	C	1.650554	-0.550009	-0.766696
H99	H	1.748125	-0.600703	-0.513421
H100	H	1.876731	-0.652832	-0.642183
H101	H	1.861700	-0.639661	-0.850018
H102	H	1.718059	-0.574360	-0.929097
H103	H	1.589453	-0.522231	-0.800335
C104	C	1.510259	-0.337942	-1.250521
C105	C	1.436381	-0.301166	-1.190216
C106	C	1.323636	-0.292317	-1.229399
C107	C	1.284768	-0.320243	-1.328887
C108	C	1.358647	-0.357022	-1.389198
C109	C	1.471393	-0.365871	-1.350015
H110	H	1.465152	-0.280491	-1.116564
H111	H	1.268946	-0.265091	-1.184752
H112	H	1.201307	-0.313692	-1.357892
H113	H	1.329876	-0.377696	-1.462850
H114	H	1.526082	-0.393097	-1.394662
H115	H	1.847353	-0.415492	-1.275215
H116	H	1.661397	-0.400893	-1.339826
H117	H	1.287497	-0.087825	-0.177528
H118	H	1.639945	-0.450741	-0.627991
H119	H	1.189317	-0.087989	-0.737978
H120	H	0.919214	-0.191092	-0.384436
H121	H	1.396270	-0.450962	-0.383972
H122	H	0.785014	-0.262516	-0.684045
C123	C	0.998059	-0.111719	-0.406597
C124	C	0.903191	-0.092955	-0.342249
C125	C	0.803720	-0.073657	-0.398498
C126	C	0.799116	-0.073123	-0.519095
C127	C	0.893987	-0.091887	-0.583449
C128	C	0.993459	-0.111186	-0.527200
H129	H	0.906596	-0.093350	-0.252970
H130	H	0.733490	-0.059766	-0.350858
H131	H	0.725481	-0.058837	-0.560734
H132	H	0.890583	-0.091492	-0.672728
H133	H	1.063689	-0.125076	-0.574840
H134	H	1.396325	-0.550028	-0.384003
C135	C	1.095927	-0.131760	-0.912253
C136	C	1.022041	-0.094989	-0.851943
C137	C	0.909290	-0.086149	-0.891118
C138	C	0.870425	-0.114079	-0.990603
C139	C	0.944312	-0.150852	-1.050918
C140	C	1.057063	-0.159692	-1.011744
H141	H	1.050810	-0.074312	-0.778293
H142	H	0.854594	-0.058928	-0.846468
H143	H	0.786960	-0.107535	-1.019602
H144	H	0.915543	-0.171529	-1.124568
H145	H	1.111759	-0.186914	-1.056394
C146	C	1.039426	-0.391937	-0.605510
C147	C	1.078550	-0.448066	-0.623018
C148	C	1.178023	-0.467362	-0.566770
C149	C	1.238373	-0.430529	-0.493013
C150	C	1.199249	-0.374397	-0.475501
C151	C	1.099776	-0.355101	-0.531750
H152	H	1.033875	-0.475335	-0.677621
H153	H	1.206984	-0.508915	-0.579733
H154	H	1.312009	-0.444813	-0.451374
H155	H	1.243924	-0.347128	-0.420899
H156	H	1.070815	-0.313548	-0.518787
H157	H	0.914043	-0.447677	-0.741792
H158	H	1.707239	-0.701855	-0.695351
H159	H	1.123425	-0.055991	-0.270286
C160	C	1.526434	-0.165501	-0.762684
C161	C	1.600330	-0.202265	-0.822998
C162	C	1.713080	-0.211102	-0.783820
C163	C	1.751936	-0.183176	-0.684327
C164	C	1.678039	-0.146410	-0.624007
C165	C	1.565288	-0.137572	-0.663186
H166	H	1.571568	-0.222940	-0.896654
H167	H	1.767783	-0.238319	-0.828473
H168	H	1.835401	-0.189718	-0.655325
H169	H	1.706801	-0.125735	-0.550352
H170	H	1.510585	-0.110355	-0.618532
C171	C	0.734326	-0.425412	-0.853739
C172	C	0.619068	-0.439090	-0.830657
C173	C	0.558718	-0.475921	-0.904426
C174	C	0.613626	-0.499075	-1.001277
C175	C	0.728891	-0.485397	-1.024364
C176	C	0.789240	-0.448566	-0.950595
H177	H	0.578415	-0.421951	-0.758958
H178	H	0.473391	-0.486046	-0.887335
H179	H	0.568952	-0.526339	-1.055885
H180	H	0.769543	-0.502537	-1.096064
H181	H	0.874567	-0.438441	-0.967686
C182	C	1.940747	-0.371726	-1.100928
C183	C	2.014631	-0.408495	-1.161243
C184	C	2.127378	-0.417342	-1.122063
C185	C	2.166241	-0.389420	-1.022568
C186	C	2.092356	-0.352649	-0.962248
C187	C	1.979609	-0.343801	-1.001428
H188	H	1.985863	-0.429167	-1.234900
H189	H	2.182073	-0.444563	-1.166717
H190	H	2.249704	-0.395970	-0.993565
H191	H	2.121124	-0.331977	-0.888591
H192	H	1.924915	-0.316580	-0.956774
C193	C	1.726495	-0.808686	-0.714607
C194	C	1.845927	-0.801116	-0.706121
C195	C	1.919838	-0.831067	-0.780108
C196	C	1.874318	-0.868587	-0.862579
C197	C	1.754880	-0.876159	-0.871068
C198	C	1.680969	-0.846209	-0.797082
H199	H	1.879630	-0.773339	-0.645068
H200	H	2.008255	-0.825461	-0.773823
H201	H	1.929031	-0.890759	-0.917348
H202	H	1.721177	-0.903936	-0.932121
H203	H	1.592552	-0.851814	-0.803366
H204	H	1.640143	-0.312411	-0.907014
C205	C	1.377372	-0.945530	-0.364939
C206	C	1.386028	-0.953095	-0.245515
C207	C	1.312138	-0.923140	-0.171515
C208	C	1.229593	-0.885620	-0.216938
C209	C	1.220933	-0.878053	-0.336368
C210	C	1.294822	-0.908009	-0.410368
H211	H	1.447136	-0.980871	-0.211884
H212	H	1.318549	-0.928741	-0.083105
H213	H	1.174895	-0.863445	-0.162159
H214	H	1.159824	-0.850278	-0.369999
H215	H	1.288412	-0.902408	-0.498778
C216	C	1.310041	-0.694405	-0.297635
C217	C	1.318682	-0.701968	-0.178210
C218	C	1.244789	-0.672007	-0.104221
C219	C	1.162255	-0.634485	-0.149658
C220	C	1.153612	-0.626921	-0.269089
C221	C	1.227504	-0.656881	-0.343078
H222	H	1.379781	-0.729746	-0.144569
H223	H	1.251188	-0.677607	-0.015810
H224	H	1.107556	-0.612306	-0.094887
H225	H	1.092512	-0.599143	-0.302730
H226	H	1.221105	-0.651281	-0.431489
H227	H	0.685482	-0.323260	-0.805693
H228	H	1.352020	-0.180400	-0.206456
H229	H	1.640246	-0.953088	-0.628192
H230	H	1.252497	-0.241138	-0.328135
H231	H	1.329292	-0.801242	-0.316878
H232	H	1.396549	-0.191045	-1.106167
H233	H	1.247080	-0.194701	-1.001556
H234	H	1.375287	-0.102565	-0.673375
H235	H	1.640298	-1.052153	-0.628222
H236	H	1.396637	-1.052365	-0.384185
H237	H	1.789609	-0.308781	-1.011624
