data_functionalizedCrystal
_audit_creation_method	'MofGen! by Chris Wilmer'
_symmetry_space_group_name_H-M	'P1'
_symmetry_Int_Tables_number	1
_symmetry_cell_setting	triclinic
loop_
_symmetry_equiv_pos_as_xyz
  x,y,z
_cell_length_a	19.188924
_cell_length_b	10.654550
_cell_length_c	9.130313
_cell_angle_alpha	90.000276
_cell_angle_beta	89.993420
_cell_angle_gamma	96.186552
loop_
_atom_site_label
_atom_site_type_symbol
_atom_site_fract_x
_atom_site_fract_y
_atom_site_fract_z
O1	O	0.098062	-1.665760	-0.121698
O2	O	0.598062	-1.165760	0.378302
O3	O	0.107405	-1.300083	-0.121725
O4	O	0.607405	-0.800083	0.378275
O5	O	0.001147	-1.493479	-0.121693
O6	O	0.501147	-0.993479	0.378307
O7	O	0.204320	-1.472365	-0.121729
O8	O	0.704320	-0.972365	0.378271
O9	O	0.001143	-1.493466	0.121906
O10	O	0.501143	-0.993466	0.621906
O11	O	0.107402	-1.300070	0.121874
O12	O	0.607402	-0.800070	0.621874
O13	O	0.098059	-1.665747	0.121901
O14	O	0.598059	-1.165747	0.621901
Cu15	Cu	0.102730	-1.482907	0.144130
Cu16	Cu	0.602730	-0.982907	0.644130
Cu17	Cu	0.102734	-1.482923	-0.143954
Cu18	Cu	0.602734	-0.982923	0.356046
O19	O	0.204317	-1.472351	0.121869
O20	O	0.704317	-0.972351	0.621869
C21	C	0.106717	-1.253293	0.000071
C22	C	0.606717	-0.753293	0.500071
C23	C	0.104665	-1.113894	0.000061
C24	C	0.604665	-0.613894	0.500061
N25	N	0.102727	-1.482906	0.346753
N26	N	0.602727	-0.982906	0.846753
C27	C	-0.024870	-1.492790	0.000107
C28	C	0.475130	-0.992790	0.500107
C29	C	-0.102389	-1.490742	0.000111
C30	C	0.397611	-0.990742	0.500111
C31	C	-0.138792	-1.489793	-0.132675
C32	C	0.361208	-0.989793	0.367325
C33	C	-0.211628	-1.487851	-0.132686
C34	C	0.288372	-0.987851	0.367314
C35	C	-0.248058	-1.486882	0.000096
C36	C	0.251942	-0.986882	0.500096
C37	C	-0.211646	-1.487824	0.132900
C38	C	0.288354	-0.987824	0.632900
C39	C	-0.138811	-1.489754	0.132907
C40	C	0.361189	-0.989754	0.632907
N41	N	-0.367275	-1.555310	0.098928
N42	N	0.132725	-1.055310	0.598928
N43	N	-0.436466	-1.553480	0.098912
N44	N	0.063534	-1.053480	0.598912
C45	C	-0.467506	-1.481066	0.000082
C46	C	0.032494	-0.981066	0.500082
N47	N	-0.426743	-1.410567	-0.098754
N48	N	0.073257	-0.910567	0.401246
N49	N	-0.357546	-1.412403	-0.098742
N50	N	0.142454	-0.912403	0.401258
C51	C	-0.327036	-1.484789	0.000103
C52	C	0.172964	-0.984789	0.500103
C53	C	-0.582885	-1.478009	-0.132726
C54	C	-0.082885	-0.978009	0.367274
C55	C	-0.655722	-1.476059	-0.132732
C56	C	-0.155722	-0.976059	0.367268
C57	C	-0.655739	-1.476045	0.132858
C58	C	-0.155739	-0.976045	0.632858
C59	C	-0.582904	-1.477983	0.132860
C60	C	-0.082904	-0.977983	0.632860
C61	C	-0.546481	-1.478970	0.000064
C62	C	-0.046481	-0.978970	0.500064
C63	C	0.230334	-1.473040	0.000065
C64	C	0.730334	-0.973040	0.500065
C65	C	0.307853	-1.475089	0.000052
C66	C	0.807853	-0.975089	0.500052
C67	C	0.098747	-1.712537	0.000102
C68	C	0.598747	-1.212537	0.500102
C69	C	0.100799	-1.851937	0.000102
C70	C	0.600799	-1.351937	0.500102
C71	C	0.167228	-1.033082	0.000054
C72	C	0.667228	-0.533082	0.500054
C73	C	0.165296	-0.902102	0.000080
C74	C	0.665296	-0.402102	0.500080
C75	C	0.038231	-0.932759	0.000114
C76	C	0.538231	-0.432759	0.500114
C77	C	0.040164	-1.063737	0.000098
C78	C	0.540164	-0.563737	0.500098
N79	N	0.102731	-1.482935	-0.346577
N80	N	0.602731	-0.982935	0.153423
C81	C	0.055696	-1.568570	0.423419
C82	C	0.555696	-1.068570	0.923419
C83	C	0.055696	-1.568582	0.576755
C84	C	0.555696	-1.068582	1.076755
C85	C	0.149765	-1.397262	0.576747
C86	C	0.649765	-0.897262	1.076747
C87	C	0.149761	-1.397245	0.423413
C88	C	0.649761	-0.897245	0.923413
H89	H	-0.109141	-1.490594	-0.240808
H90	H	0.390859	-0.990594	0.259192
H91	H	-0.109171	-1.490521	0.241041
H92	H	0.390829	-0.990521	0.741041
C93	C	-0.542817	-1.479077	-0.278803
C94	C	-0.042817	-0.979077	0.221197
N95	N	-0.512640	-1.479877	-0.388829
N96	N	-0.012640	-0.979877	0.111171
C97	C	-0.028664	-1.152636	0.000106
C98	C	0.471336	-0.652636	0.500106
N99	N	-0.080503	-1.219595	0.000116
N100	N	0.419497	-0.719595	0.500116
C101	C	0.201534	-1.303060	0.339075
C102	C	0.701534	-0.803060	0.839075
N103	N	0.240538	-1.232142	0.275552
N104	N	0.740538	-0.732142	0.775552
H105	H	0.017397	-1.638318	0.361005
H106	H	0.517397	-1.138318	0.861005
C107	C	0.003952	-1.662809	0.661081
C108	C	0.503952	-1.162809	1.161081
N109	N	-0.035026	-1.733781	0.724594
N110	N	0.464974	-1.233781	1.224594
H111	H	0.219749	-1.073915	0.000035
H112	H	0.719749	-0.573915	0.500035
C113	C	-0.032716	-0.877573	0.000141
C114	C	0.467284	-0.377573	0.500141
N115	N	-0.086155	-0.836009	0.000156
N116	N	0.413845	-0.336009	0.500156
H117	H	-0.241312	-1.487032	0.241012
H118	H	0.258688	-0.987032	0.741012
H119	H	0.188059	-1.327520	0.639179
H120	H	0.688059	-0.827520	1.139179
H121	H	-0.553264	-1.478766	0.240989
H122	H	-0.053264	-0.978766	0.740989
C123	C	0.234120	-0.813213	0.000079
C124	C	0.734120	-0.313213	0.500079
N125	N	0.285962	-0.746262	0.000083
N126	N	0.785962	-0.246262	0.500083
H127	H	-0.241272	-1.487070	-0.240820
H128	H	0.258728	-0.987070	0.259180
H129	H	-0.685400	-1.475247	0.240972
H130	H	-0.185400	-0.975247	0.740972
C131	C	-0.695770	-1.475078	-0.278815
C132	C	-0.195770	-0.975078	0.221185
N133	N	-0.725936	-1.474366	-0.388848
N134	N	-0.225936	-0.974366	0.111152
