data_functionalizedCrystal
_audit_creation_method	'MofGen! by Chris Wilmer'
_symmetry_space_group_name_H-M	'P1'
_symmetry_Int_Tables_number	1
_symmetry_cell_setting	triclinic
loop_
_symmetry_equiv_pos_as_xyz
  x,y,z
_cell_length_a	19.902436
_cell_length_b	14.560432
_cell_length_c	19.902436
_cell_angle_alpha	120.005877
_cell_angle_beta	89.999405
_cell_angle_gamma	59.996976
loop_
_atom_site_label
_atom_site_type_symbol
_atom_site_fract_x
_atom_site_fract_y
_atom_site_fract_z
Zr1	Zr	0.647317	1.005199	0.088128
O2	O	0.540017	1.196843	0.195431
O3	O	0.680209	0.813583	0.055234
O4	O	0.680200	1.005218	0.195420
O5	O	0.540035	1.005183	-0.055336
O6	O	0.790779	1.005200	0.195411
O7	O	0.540027	1.005208	0.055245
O8	O	0.790796	0.662401	-0.055356
O9	O	0.540018	1.347982	0.195431
O10	O	0.776762	0.892373	0.041198
O11	O	0.694244	0.892368	-0.041321
O12	O	0.694233	1.117993	0.123730
O13	O	0.611715	1.117987	0.041211
Zr14	Zr	0.823690	1.005130	-0.088251
Zr15	Zr	0.823677	1.005170	0.088114
Zr16	Zr	0.647329	1.005158	-0.088237
Zr17	Zr	0.647317	1.246248	0.088128
Zr18	Zr	0.823689	0.764080	-0.088251
O19	O	0.790797	1.196745	-0.055357
O20	O	0.790779	1.196802	0.195411
O21	O	0.540035	1.196785	-0.055337
O22	O	0.930989	0.813486	-0.195554
O23	O	0.930971	0.813543	0.055214
O24	O	0.680228	0.813526	-0.195534
O25	O	0.930972	1.005145	0.055213
O26	O	0.790807	1.005110	-0.195543
O27	O	0.680228	1.005128	-0.195534
O28	O	0.930980	1.005120	-0.055368
O29	O	0.680201	1.347959	0.195420
O30	O	0.790806	0.662369	-0.195543
O31	O	0.930989	0.662347	-0.195554
O32	O	0.930979	0.662379	-0.055368
O33	O	0.540028	1.347950	0.055244
O34	O	0.680211	1.347927	0.055233
O35	O	0.776774	0.892336	-0.123853
O36	O	0.859292	0.892341	-0.041334
O37	O	0.776763	1.117960	0.041198
O38	O	0.694245	1.117955	-0.041321
C39	C	0.735503	0.703648	-0.000061
C40	C	0.735502	0.601316	-0.000061
C41	C	0.821646	0.409031	0.086097
C42	C	0.864720	0.457111	0.129173
C43	C	0.864724	0.553257	0.129172
C44	C	0.821647	0.601329	0.086092
C45	C	0.778573	0.553249	0.043016
C46	C	0.778575	0.457098	0.043020
C47	C	0.692428	0.553237	-0.043137
C48	C	0.692427	0.457084	-0.043142
C49	C	0.649351	0.601308	-0.086217
C50	C	0.606280	0.553222	-0.129299
C51	C	0.606278	0.457069	-0.129297
C52	C	0.649353	0.409004	-0.086218
C53	C	0.514903	1.005200	-0.000044
C54	C	0.440034	1.005212	-0.000038
C55	C	0.168032	1.005148	-0.000069
C56	C	0.144461	1.147473	0.051744
C57	C	0.222299	1.147562	0.052032
C58	C	0.302975	1.005180	-0.000054
C59	C	0.300561	0.934514	0.037910
C60	C	0.222333	0.935424	0.038293
C61	C	0.223330	0.932471	-0.089870
C62	C	0.300251	0.935146	-0.089732
C63	C	0.379242	1.005191	-0.000045
C64	C	0.091767	1.005133	-0.000075
C65	C	0.956103	1.005129	-0.000079
C66	C	1.030973	1.005117	-0.000086
C67	C	0.735487	1.005215	0.220544
C68	C	0.735482	1.005232	0.295415
C69	C	0.735504	1.306680	-0.000062
C70	C	0.735504	1.409012	-0.000062
C71	C	0.735487	1.005186	0.567424
C72	C	0.683178	1.147509	0.590996
C73	C	0.683403	1.147593	0.513156
C74	C	0.735484	1.005210	0.432478
C75	C	0.825155	0.934520	0.434882
C76	C	0.824870	0.935435	0.513111
C77	C	0.698849	0.932533	0.512134
C78	C	0.697033	0.935202	0.435211
C79	C	0.735487	1.005215	0.356209
C80	C	0.735490	1.005177	0.643691
C81	C	0.735510	1.005131	0.779339
C82	C	0.735489	1.005164	0.704486
C83	C	0.956103	0.703612	-0.000079
C84	C	1.030972	0.601269	-0.000085
C85	C	0.735518	0.703597	-0.220667
C86	C	0.735524	0.601248	-0.295538
C87	C	0.956118	0.703562	-0.220684
C88	C	1.030993	0.601201	-0.295562
C89	C	0.514888	1.306766	0.220561
C90	C	0.440014	1.409127	0.295439
C91	C	0.514904	1.306716	-0.000044
C92	C	0.440035	1.409060	-0.000038
C93	C	0.735488	1.306731	0.220543
C94	C	0.735483	1.409080	0.295415
C95	C	1.023052	0.553224	0.043001
C96	C	1.093393	0.457074	0.043012
C97	C	1.171653	0.408964	-0.000068
C98	C	1.179572	0.457019	-0.043155
C99	C	1.109231	0.553173	-0.043161
C100	C	0.778606	0.553168	-0.373787
C101	C	0.778607	0.457013	-0.444143
C102	C	0.735531	0.408935	-0.436249
C103	C	0.692444	0.457026	-0.357991
C104	C	0.692438	0.553185	-0.287637
C105	C	1.109236	0.553134	-0.287651
C106	C	1.179595	0.456968	-0.357999
C107	C	1.171710	0.408865	-0.436258
C108	C	1.093459	0.456941	-0.444167
C109	C	1.023102	0.553112	-0.373820
C110	C	0.361771	1.457206	0.287528
C111	C	0.291411	1.553401	0.357876
C112	C	0.299296	1.601510	0.436135
C113	C	0.377547	1.553428	0.444044
C114	C	0.447905	1.457240	0.373697
C115	C	0.447955	1.457115	-0.043117
C116	C	0.377614	1.553291	-0.043108
C117	C	0.299354	1.601404	-0.000026
C118	C	0.291435	1.553345	0.043058
C119	C	0.361775	1.457177	0.043054
C120	C	0.778568	1.457127	0.287494
C121	C	0.778579	1.553282	0.357837
C122	C	0.735500	1.601395	0.436100
C123	C	0.692415	1.553337	0.444019
C124	C	0.692409	1.457178	0.373677
H125	H	0.821653	0.330736	0.086096
H126	H	0.813647	1.417969	0.223775
Cl127	Cl	1.260074	0.288080	-0.000055
Cl128	Cl	0.924742	0.613519	-0.383779
Cl129	Cl	0.832742	1.613685	0.347862
Cl130	Cl	0.918867	0.396679	0.183331
Cl131	Cl	0.638254	1.613847	0.542413
H132	H	1.243304	0.417834	-0.351545
H133	H	1.243301	0.417834	-0.078229
H134	H	0.735512	1.679694	0.493370
H135	H	0.242085	1.679710	-0.000029
H136	H	0.657321	1.418068	0.380137
Cl137	Cl	0.351836	1.396746	0.189154
Cl138	Cl	0.167268	1.002758	-0.138836
Cl139	Cl	0.821640	0.722217	0.086104
Cl140	Cl	0.918871	0.613708	0.183330
Cl141	Cl	1.119170	0.613596	-0.189277
Cl142	Cl	0.193049	1.613823	0.347914
Cl143	Cl	0.546331	1.396656	-0.097280
H144	H	0.243249	0.827627	-0.128658
H145	H	0.649353	0.679601	-0.086210
Cl146	Cl	1.119203	0.613552	-0.097338
Cl147	Cl	0.735549	0.288045	-0.524704
Cl148	Cl	1.083561	0.396452	-0.542556
H149	H	0.617372	1.203068	0.514341
H150	H	1.229007	0.330556	-0.493533
H151	H	0.571205	0.592376	-0.164366
Cl152	Cl	0.832782	0.396572	-0.542513
H153	H	0.571197	0.417934	-0.164371
H154	H	0.736768	0.827687	0.492207
H155	H	0.616975	1.203379	0.630166
Cl156	Cl	0.193044	1.613838	0.097211
H157	H	0.105297	1.203325	0.026410
H158	H	0.242000	1.679832	0.493410
H159	H	0.649358	0.330713	-0.086214
Cl160	Cl	0.638277	0.613610	-0.189270
Cl161	Cl	0.220493	1.233163	0.012719
Cl162	Cl	0.387446	1.613916	0.542433
H163	H	0.511612	1.418096	0.380148
H164	H	0.104545	1.203070	0.117587
Cl165	Cl	0.638297	0.396567	-0.348081
Cl166	Cl	0.165899	1.013002	0.140317
Cl167	Cl	0.219550	1.233734	0.154304
H168	H	0.813683	0.592302	-0.380230
H169	H	0.355315	1.418053	0.078131
H170	H	0.241683	0.831002	0.002994
Cl171	Cl	0.388278	0.772881	-0.017550
H172	H	0.865961	0.831014	0.493760
H173	H	0.630970	0.986745	0.435594
H174	H	0.299876	0.986671	-0.118092
Cl175	Cl	0.302945	1.010317	0.138964
H176	H	0.357713	0.831269	-0.131586
H177	H	0.708355	1.203088	0.630903
Cl178	Cl	0.722640	1.233742	0.515897
Cl179	Cl	0.387588	1.613682	-0.097279
H180	H	0.854200	0.985660	0.549654
Cl181	Cl	0.887945	0.772886	0.347160
H182	H	0.854695	0.983595	0.433324
H183	H	0.633817	0.978087	0.548452
Cl184	Cl	0.924676	0.613689	0.097170
H185	H	0.731174	0.831325	0.377748
H186	H	1.086929	0.417960	0.078098
