data_functionalizedCrystal
_audit_creation_method	'MofGen! by Chris Wilmer'
_symmetry_space_group_name_H-M	'P1'
_symmetry_Int_Tables_number	1
_symmetry_cell_setting	triclinic
loop_
_symmetry_equiv_pos_as_xyz
  x,y,z
_cell_length_a	19.288864
_cell_length_b	15.995350
_cell_length_c	17.766277
_cell_angle_alpha	89.995869
_cell_angle_beta	89.976791
_cell_angle_gamma	83.314311
loop_
_atom_site_label
_atom_site_type_symbol
_atom_site_fract_x
_atom_site_fract_y
_atom_site_fract_z
O1	O	0.921624	0.104452	-0.062832
O2	O	0.719400	0.118542	-0.062780
O3	O	0.826040	-0.010412	-0.062807
O4	O	0.814984	0.233405	-0.062805
O5	O	0.826021	-0.010418	0.062382
O6	O	0.719381	0.118535	0.062408
O7	O	0.921605	0.104445	0.062357
Cu8	Cu	0.820492	0.111490	0.073813
Cu9	Cu	0.820514	0.111497	-0.074237
O10	O	0.814965	0.233399	0.062383
C11	C	0.693513	0.118085	-0.000179
C12	C	0.616406	0.116724	-0.000159
C13	C	0.571906	0.192388	-0.000171
C14	C	0.499456	0.191110	-0.000179
C15	C	0.471508	0.114163	-0.000191
C16	C	0.516018	0.038489	-0.000176
C17	C	0.588467	0.039769	-0.000160
C18	C	0.363096	0.053676	-0.044076
C19	C	0.290648	0.052398	-0.044097
C20	C	0.248053	0.110209	-0.000237
C21	C	0.277912	0.169312	0.043634
C22	C	0.350361	0.170593	0.043650
C23	C	0.392951	0.112765	-0.000208
C24	C	0.124993	0.184492	-0.000256
C25	C	0.052542	0.183210	-0.000260
C26	C	0.069106	0.030587	-0.000264
C27	C	0.141556	0.031871	-0.000253
C28	C	0.169495	0.108826	-0.000252
C29	C	0.825574	-0.041608	-0.000214
C30	C	0.824203	-0.134553	-0.000218
C31	C	0.819282	-0.472282	-0.000214
C32	C	0.743335	-0.424562	-0.000475
C33	C	0.744706	-0.327877	-0.000193
C34	C	0.821723	-0.304731	-0.000216
C35	C	0.859172	-0.345953	0.071262
C36	C	0.857264	-0.442582	0.071322
C37	C	0.858855	-0.442939	-0.071041
C38	C	0.858837	-0.345993	-0.071986
C39	C	0.823107	-0.210039	-0.000215
C40	C	0.817901	-0.566975	-0.000210
C41	C	0.947492	0.104902	-0.000246
C42	C	1.024600	0.106263	-0.000271
C43	C	0.815432	0.264595	-0.000211
C44	C	0.816802	0.357540	-0.000212
N45	N	0.820481	0.111484	0.177944
N46	N	0.820530	0.111497	-0.178367
C47	C	0.867717	0.054411	0.217319
C48	C	0.867721	0.054407	0.296120
C49	C	0.820496	0.111490	0.335544
C50	C	0.773251	0.168567	0.296160
C51	C	0.773244	0.168564	0.217359
C52	C	0.811395	0.187781	0.460384
C53	C	0.811407	0.187785	0.539183
C54	C	0.820514	0.111500	0.578590
C55	C	0.829624	0.035208	0.539190
C56	C	0.829617	0.035204	0.460389
C57	C	0.820498	0.111500	0.420990
C58	C	0.867757	0.054419	0.703411
C59	C	0.867756	0.054414	0.782215
C60	C	0.773290	0.168581	0.782252
C61	C	0.773288	0.168579	0.703451
C62	C	0.820525	0.111499	0.664035
H63	H	0.624700	-0.021848	-0.000151
H64	H	0.734827	0.215056	0.671389
H65	H	0.594649	0.255051	-0.000172
C66	C	0.038373	-0.054053	-0.000282
H67	H	-0.011149	-0.043981	-0.000298
H68	H	0.053624	-0.085205	0.043374
H69	H	0.053673	-0.085189	-0.043944
C70	C	0.155730	0.269137	-0.000248
H71	H	0.118847	0.314018	-0.000245
H72	H	0.183669	0.272812	-0.043900
H73	H	0.183625	0.272805	0.043418
C74	C	0.801388	0.271700	0.582520
H75	H	0.802705	0.260778	0.635094
H76	H	0.757579	0.301687	0.569629
H77	H	0.837711	0.304401	0.569580
H78	H	0.463217	0.252727	-0.000186
H79	H	0.712988	-0.442976	-0.051732
H80	H	0.713107	-0.444044	0.050512
C81	C	0.825321	-0.470548	-0.144230
H82	H	0.786867	-0.500231	-0.132274
H83	H	0.858836	-0.506147	-0.172154
H84	H	0.809552	-0.422288	-0.173408
C85	C	0.721342	0.231374	0.825605
H86	H	0.693207	0.265364	0.790865
H87	H	0.746327	0.266153	0.856330
H88	H	0.692431	0.201337	0.856362
H89	H	0.016310	0.244828	-0.000265
H90	H	0.177789	-0.029743	-0.000247
C91	C	0.801382	0.271700	0.417043
H92	H	0.795969	0.317136	0.451793
H93	H	0.760938	0.273524	0.386322
H94	H	0.841072	0.276217	0.386284
H95	H	0.831457	-0.318638	-0.124863
H96	H	0.715054	-0.299903	0.051147
C97	C	0.704929	-0.289321	-0.069402
H98	H	0.687782	-0.332743	-0.097942
H99	H	0.735538	-0.261144	-0.099659
H100	H	0.666910	-0.250300	-0.053297
C101	C	0.257809	-0.012613	-0.092348
H102	H	0.293553	-0.046871	-0.118455
H103	H	0.226425	0.015828	-0.127625
H104	H	0.233199	-0.046920	-0.060725
H105	H	0.829941	-0.460783	0.124769
C106	C	0.721288	0.231353	0.174045
H107	H	0.693164	0.265353	0.208807
H108	H	0.692376	0.201322	0.143319
H109	H	0.746276	0.266134	0.143292
C110	C	0.409944	-0.009914	-0.092332
H111	H	0.381785	-0.045284	-0.118471
H112	H	0.441862	-0.043228	-0.060714
H113	H	0.435079	0.019549	-0.127593
H114	H	0.493259	-0.024162	-0.000196
C115	C	0.839626	-0.048709	0.417049
H116	H	0.845146	-0.094143	0.451797
H117	H	0.880007	-0.050478	0.386201
H118	H	0.799886	-0.053279	0.386416
H119	H	0.734799	0.215044	0.328262
C120	C	0.934496	-0.486135	-0.071721
H121	H	0.941952	-0.521884	-0.029076
H122	H	0.965876	-0.444592	-0.070162
H123	H	0.942317	-0.518598	-0.116340
C124	C	0.383206	0.235592	0.091910
H125	H	0.347466	0.269838	0.118035
H126	H	0.407819	0.269901	0.060299
H127	H	0.414588	0.207131	0.127184
H128	H	0.243232	0.216387	0.079349
C129	C	0.919668	-0.008384	0.173965
H130	H	0.947796	-0.042380	0.208707
H131	H	0.948576	0.021643	0.143203
H132	H	0.894676	-0.043168	0.143247
H133	H	0.913023	-0.475041	0.074549
C134	C	0.935608	-0.327157	0.074839
H135	H	0.945382	-0.293919	0.032673
H136	H	0.965725	-0.378557	0.074168
H137	H	0.942867	-0.297380	0.119881
H138	H	0.833147	-0.317477	0.124469
H139	H	0.915002	-0.330843	-0.076319
C140	C	0.919683	-0.008370	0.339446
H141	H	0.912918	-0.000195	0.392021
H142	H	0.966034	0.000585	0.326505
H143	H	0.912143	-0.064236	0.326545
H144	H	0.837040	-0.026911	0.571273
H145	H	0.906219	0.007934	0.814274
C146	C	0.919707	-0.008374	0.660051
H147	H	0.947833	-0.042376	0.694791
H148	H	0.948617	0.021654	0.629293
H149	H	0.894715	-0.043154	0.629328
