data_functionalizedCrystal
_audit_creation_method	'MofGen! by Chris Wilmer'
_symmetry_space_group_name_H-M	'P1'
_symmetry_Int_Tables_number	1
_symmetry_cell_setting	triclinic
loop_
_symmetry_equiv_pos_as_xyz
  x,y,z
_cell_length_a	15.944499
_cell_length_b	14.421503
_cell_length_c	19.288865
_cell_angle_alpha	90.000948
_cell_angle_beta	83.306928
_cell_angle_gamma	90.010221
loop_
_atom_site_label
_atom_site_type_symbol
_atom_site_fract_x
_atom_site_fract_y
_atom_site_fract_z
O1	O	1.114212	0.077178	0.089402
O2	O	1.614212	0.577178	0.589402
O3	O	0.869614	0.077169	0.100484
O4	O	1.369614	0.577169	0.600484
O5	O	0.998981	0.077156	-0.006170
O6	O	1.498981	0.577156	0.493830
O7	O	0.984845	0.077192	0.196055
O8	O	1.484845	0.577192	0.696055
O9	O	0.998959	-0.077068	-0.006154
O10	O	1.498959	0.422932	0.493846
O11	O	0.869592	-0.077054	0.100500
O12	O	1.369592	0.422946	0.600500
O13	O	1.114191	-0.077045	0.089417
O14	O	1.614191	0.422955	0.589417
Cu15	Cu	0.991889	-0.091132	0.094960
Cu16	Cu	1.491889	0.408868	0.594960
Cu17	Cu	0.991915	0.091255	0.094941
Cu18	Cu	1.491915	0.591255	0.594941
O19	O	0.984824	-0.077032	0.196071
O20	O	1.484824	0.422968	0.696071
C21	C	0.838310	0.000056	0.100038
C22	C	1.338310	0.500056	0.600038
C23	C	0.745067	0.000052	0.098678
C24	C	1.245067	0.500052	0.598678
N25	N	0.991878	-0.219413	0.094973
N26	N	1.491878	0.280587	0.594973
C27	C	0.453292	0.000077	0.160641
C28	C	0.953292	0.500077	0.660641
C29	C	0.514456	0.076113	0.128423
C30	C	1.014456	0.576113	0.628423
C31	C	0.409449	0.000072	0.093736
C32	C	0.909449	0.500072	0.593736
C33	C	0.514421	-0.075939	0.128421
C34	C	1.014421	0.424061	0.628421
C35	C	0.574349	0.000061	0.096167
C36	C	1.074349	0.500061	0.596167
C37	C	0.469385	0.076171	0.061499
C38	C	0.969385	0.576171	0.561499
C39	C	0.469344	-0.075949	0.061506
C40	C	0.969344	0.424051	0.561506
C41	C	0.530490	0.000105	0.029240
C42	C	1.030490	0.500105	0.529240
C43	C	0.314455	0.000080	0.092337
C44	C	0.814455	0.500080	0.592337
C45	C	0.669342	0.000060	0.097561
C46	C	1.169342	0.500060	0.597561
C47	C	0.932048	-0.469060	0.144267
C48	C	1.432048	0.030940	0.644267
C49	C	1.007898	-0.530857	0.157741
C50	C	1.507898	-0.030857	0.657741
C51	C	0.991898	-0.408574	0.094956
C52	C	1.491898	0.091426	0.594956
C53	C	0.916068	-0.530871	0.081499
C54	C	1.416068	-0.030871	0.581499
C55	C	0.991911	-0.591296	0.094942
C56	C	1.491911	-0.091296	0.594942
C57	C	1.067786	-0.469010	0.108461
C58	C	1.567786	0.030990	0.608461
C59	C	0.975906	-0.469019	0.032192
C60	C	1.475906	0.030981	0.532192
C61	C	1.051811	-0.530788	0.045638
C62	C	1.551811	-0.030788	0.545638
C63	C	0.991890	-0.303313	0.094966
C64	C	1.491890	0.196687	0.594966
C65	C	0.991929	-0.696555	0.094931
C66	C	1.491929	-0.196555	0.594931
C67	C	1.145494	0.000070	0.089863
C68	C	1.645494	0.500070	0.589863
C69	C	1.238737	0.000080	0.091223
C70	C	1.738737	0.500080	0.591223
C71	C	0.998515	0.000041	-0.032040
C72	C	1.498515	0.500041	0.467960
C73	C	0.997150	0.000033	-0.109147
C74	C	1.497150	0.500033	0.390853
N75	N	0.991933	0.219537	0.094923
N76	N	1.491933	0.719537	0.594923
C77	C	1.073056	0.000031	-0.153655
C78	C	1.573056	0.500031	0.346345
C79	C	1.071774	0.000046	-0.226105
C80	C	1.571774	0.500046	0.273895
C81	C	0.994580	0.000043	-0.254044
C82	C	1.494580	0.500043	0.245956
C83	C	0.918663	0.000050	-0.209526
C84	C	1.418663	0.500050	0.290474
C85	C	0.919948	0.000045	-0.137078
C86	C	1.419948	0.500045	0.362922
C87	C	0.933889	-0.053980	-0.362476
C88	C	1.433889	0.446020	0.137524
C89	C	0.932608	-0.053980	-0.434924
C90	C	1.432608	0.446020	0.065076
C91	C	0.990614	0.000064	-0.477500
C92	C	1.490614	0.500064	0.022500
C93	C	1.049916	0.054097	-0.447620
C94	C	1.549916	0.554097	0.052380
C95	C	1.051201	0.054092	-0.375171
C96	C	1.551201	0.554092	0.124829
C97	C	0.993178	0.000050	-0.332602
C98	C	1.493178	0.500050	0.167398
C99	C	1.065135	0.000079	-0.600567
C100	C	1.565135	0.500079	-0.100567
C101	C	1.063849	0.000100	-0.673018
C102	C	1.563849	0.500100	-0.173018
C103	C	0.910737	0.000095	-0.656438
C104	C	1.410737	0.500095	-0.156438
C105	C	0.912025	0.000084	-0.583988
C106	C	1.412025	0.500084	-0.083988
C107	C	0.989226	0.000072	-0.556057
C108	C	1.489226	0.500072	-0.056057
C109	C	0.985289	0.000085	0.221941
C110	C	1.485289	0.500085	0.721941
C111	C	0.986655	0.000099	0.299048
C112	C	1.486655	0.500099	0.799048
H113	H	0.419748	0.000160	0.216165
H114	H	0.919748	0.500160	0.716165
O115	O	0.871323	-0.112282	-0.316562
O116	O	1.371323	0.387718	0.183438
H117	H	0.882173	-0.103204	-0.261165
H118	H	1.382173	0.396796	0.238835
O119	O	1.156324	0.000043	-0.123534
O120	O	1.656324	0.500043	0.376466
H121	H	1.192785	-0.062807	-0.141421
H122	H	1.692785	0.437193	0.358579
H123	H	0.563881	0.000136	-0.026334
H124	H	1.063881	0.500136	0.473666
H125	H	1.021436	-0.558019	0.210812
H126	H	1.521436	-0.058019	0.710812
O127	O	1.152760	-0.433182	0.123618
O128	O	1.652760	0.066818	0.623618
H129	H	1.152076	-0.356221	0.123533
H130	H	1.652076	0.143779	0.623533
H131	H	0.847884	0.000098	-0.679185
H132	H	1.347884	0.500098	-0.179185
O133	O	0.540942	0.161275	0.165897
O134	O	1.040942	0.661275	0.665897
H135	H	0.585111	0.203059	0.129694
H136	H	1.085111	0.703059	0.629694
H137	H	1.102485	-0.557721	0.003929
H138	H	1.602485	-0.057721	0.503929
O139	O	0.443089	0.161422	0.024042
O140	O	0.943089	0.661422	0.524042
H141	H	0.373584	0.160776	0.023334
H142	H	0.873584	0.660776	0.523334
O143	O	0.868654	-0.112261	-0.467151
O144	O	1.368654	0.387739	0.032849
H145	H	0.803992	-0.090011	-0.446224
H146	H	1.303992	0.409989	0.053776
O147	O	0.442816	-0.161109	0.024060
O148	O	0.942816	0.338891	0.524060
H149	H	0.460634	-0.224137	0.051946
H150	H	0.960634	0.275863	0.551946
H151	H	0.534378	-0.140219	0.156736
H152	H	1.034378	0.359781	0.656736
O153	O	0.865073	-0.433144	0.199542
O154	O	1.365073	0.066856	0.699542
H155	H	0.878563	-0.457911	0.251586
H156	H	1.378563	0.042089	0.751586
O157	O	1.145726	0.000089	-0.721025
O158	O	1.645726	0.500089	-0.221025
H159	H	1.182703	0.062937	-0.711087
H160	H	1.682703	0.562937	-0.211087
O161	O	0.957948	-0.432998	-0.038084
O162	O	1.457948	0.067002	0.461916
H163	H	0.894929	-0.457728	-0.049130
H164	H	1.394929	0.042272	0.450870
H165	H	0.851934	-0.558046	0.070124
H166	H	1.351934	-0.058046	0.570124
H167	H	0.850213	0.000080	-0.547748
H168	H	1.350213	0.500080	-0.047748
O169	O	1.153646	0.000031	-0.274124
O170	O	1.653646	0.500031	0.225876
H171	H	1.207544	0.000014	-0.242530
H172	H	1.707544	0.500014	0.257470
O173	O	1.115144	0.112379	-0.342939
O174	O	1.615144	0.612379	0.157061
H175	H	1.155261	0.149971	-0.384709
H176	H	1.655261	0.649971	0.115291
O177	O	1.148400	0.000085	-0.570439
O178	O	1.648400	0.500085	-0.070439
H179	H	1.152648	-0.062782	-0.537837
H180	H	1.652648	0.437218	-0.037837
H181	H	1.097150	0.098105	-0.482284
H182	H	1.597150	0.598105	0.017716
O183	O	0.835401	0.000037	-0.239654
O184	O	1.335401	0.500037	0.260346
H185	H	0.847260	0.000028	-0.297510
H186	H	1.347260	0.500028	0.202490
O187	O	0.838075	0.000031	-0.089065
O188	O	1.338075	0.500031	0.410935
H189	H	0.784179	0.000025	-0.120661
H190	H	1.284179	0.500025	0.379339
