data_functionalizedCrystal
_audit_creation_method	'MofGen! by Chris Wilmer'
_symmetry_space_group_name_H-M	'P1'
_symmetry_Int_Tables_number	1
_symmetry_cell_setting	triclinic
loop_
_symmetry_equiv_pos_as_xyz
  x,y,z
_cell_length_a	12.759400
_cell_length_b	19.805407
_cell_length_c	19.805399
_cell_angle_alpha	89.980427
_cell_angle_beta	90.023237
_cell_angle_gamma	89.985315
loop_
_atom_site_label
_atom_site_type_symbol
_atom_site_fract_x
_atom_site_fract_y
_atom_site_fract_z
Zn1	Zn	-0.418291	-1.034791	0.382740
Zn2	Zn	0.081709	-0.534791	0.882740
Zn3	Zn	-0.593984	-1.034729	0.269560
Zn4	Zn	-0.093984	-0.534729	0.769560
Zn5	Zn	-0.418320	-0.921605	0.269565
Zn6	Zn	0.081680	-0.421605	0.769565
Zn7	Zn	-0.593928	-0.921592	0.382707
Zn8	Zn	-0.093928	-0.421592	0.882707
O9	O	-0.506131	-0.978179	0.326143
O10	O	-0.006131	-0.478179	0.826143
O11	O	-0.441608	-1.129499	0.367739
O12	O	0.058392	-0.629499	0.867739
O13	O	-0.570717	-1.019702	0.174844
O14	O	-0.070717	-0.519702	0.674844
O15	O	-0.271295	-0.936651	0.284593
O16	O	0.228705	-0.436651	0.784593
O17	O	-0.570689	-1.129454	0.284586
O18	O	-0.070689	-0.629454	0.784586
O19	O	-0.271273	-1.019808	0.367743
O20	O	0.228727	-0.519808	0.867743
O21	O	-0.441657	-0.936591	0.174848
O22	O	0.058343	-0.436591	0.674848
O23	O	-0.441603	-0.826887	0.284561
O24	O	0.058397	-0.326887	0.784561
O25	O	-0.570594	-0.936629	0.477428
O26	O	-0.070594	-0.436629	0.977428
O27	O	-0.570622	-0.826877	0.367687
O28	O	-0.070622	-0.326877	0.867687
O29	O	-0.441554	-1.019795	0.477452
O30	O	0.058446	-0.519795	0.977452
O31	O	-0.740998	-1.019689	0.284554
O32	O	-0.240998	-0.519689	0.784554
O33	O	-0.740957	-0.936568	0.367682
O34	O	-0.240957	-0.436568	0.867682
C35	C	-0.506110	-0.802323	0.326121
C36	C	-0.006110	-0.302323	0.826121
C37	C	-0.506127	-0.727091	0.326128
C38	C	-0.006127	-0.227091	0.826128
C39	C	-0.779098	-0.978139	0.326129
C40	C	-0.279098	-0.478139	0.826129
C41	C	-0.895875	-0.978184	0.326146
C42	C	-0.395875	-0.478184	0.826146
C43	C	-0.506064	-0.978217	0.502686
C44	C	-0.006064	-0.478217	1.002686
C45	C	-0.506036	-0.978233	0.577918
C46	C	-0.006036	-0.478233	1.077918
C47	C	-0.950723	-1.021513	0.282908
C48	C	-0.450723	-0.521513	0.782908
C49	C	-1.060447	-1.021555	0.282929
C50	C	-0.560447	-0.521555	0.782929
C51	C	-1.060464	-0.934932	0.369426
C52	C	-0.560464	-0.434932	0.869426
C53	C	-0.950742	-0.934894	0.369408
C54	C	-0.450742	-0.434894	0.869408
C55	C	-0.895855	-1.064802	0.239646
C56	C	-0.395855	-0.564802	0.739646
C57	C	-0.950704	-1.108135	0.196404
C58	C	-0.450704	-0.608135	0.696404
C59	C	-1.060428	-1.108176	0.196425
C60	C	-0.560428	-0.608176	0.696425
C61	C	-1.115303	-1.064886	0.239687
C62	C	-0.615303	-0.564886	0.739687
C63	C	-0.232097	-0.978238	0.326172
C64	C	0.267903	-0.478238	0.826172
C65	C	-0.115321	-0.978263	0.326184
C66	C	0.384679	-0.478263	0.826184
C67	C	-0.506152	-1.154722	0.326165
C68	C	-0.006152	-0.654722	0.826165
C69	C	-0.506160	-1.229954	0.326175
C70	C	-0.006160	-0.729954	0.826175
C71	C	-0.573408	-0.691760	0.369341
C72	C	-0.073408	-0.191760	0.869341
C73	C	-0.573410	-0.621071	0.369351
C74	C	-0.073410	-0.121071	0.869351
C75	C	-0.506135	-0.585716	0.326143
C76	C	-0.006135	-0.085716	0.826143
C77	C	-0.438847	-0.621052	0.282928
C78	C	0.061153	-0.121052	0.782928
C79	C	-0.438840	-0.691739	0.282922
C80	C	0.061160	-0.191739	0.782922
C81	C	-0.438870	-0.335979	0.282950
C82	C	0.061130	0.164021	0.782950
C83	C	-0.438884	-0.265287	0.282958
C84	C	0.061116	0.234713	0.782958
C85	C	-0.573440	-0.265311	0.369379
C86	C	-0.073440	0.234689	0.869379
C87	C	-0.573433	-0.335998	0.369373
C88	C	-0.073433	0.164002	0.869373
C89	C	-0.506141	-0.371328	0.326161
C90	C	-0.006141	0.128672	0.826161
C91	C	-0.506139	-0.447977	0.326152
C92	C	-0.006139	0.052023	0.826152
C93	C	-0.506142	-0.509069	0.326148
C94	C	-0.006142	-0.009069	0.826148
C95	C	-0.506121	-0.978180	0.150287
C96	C	-0.006121	-0.478180	0.650287
C97	C	-0.505853	-0.978295	0.075055
C98	C	-0.005853	-0.478295	0.575055
C99	C	-0.438842	-1.021539	0.613276
C100	C	0.061158	-0.521539	1.113276
C101	C	-0.438811	-1.021546	0.683964
C102	C	0.061189	-0.521546	1.183964
C103	C	-0.505981	-0.978250	0.719294
C104	C	-0.005981	-0.478250	1.219294
C105	C	-0.573179	-0.934940	0.683931
C106	C	-0.073179	-0.434940	1.183931
C107	C	-0.573203	-0.934930	0.613244
C108	C	-0.073203	-0.434930	1.113244
C109	C	-0.573081	-0.934978	0.969004
C110	C	-0.073081	-0.434978	1.469004
C111	C	-0.573054	-0.934992	1.039696
C112	C	-0.073054	-0.434992	1.539696
C113	C	-0.438689	-1.021594	1.039725
C114	C	0.061311	-0.521594	1.539725
C115	C	-0.438713	-1.021584	0.969038
C116	C	0.061287	-0.521584	1.469038
C117	C	-0.505906	-0.978272	0.933681
C118	C	-0.005906	-0.478272	1.433681
C119	C	-0.505937	-0.978264	0.857033
C120	C	-0.005937	-0.478264	1.357033
C121	C	-0.505957	-0.978261	0.795941
C122	C	-0.005957	-0.478261	1.295941
H123	H	-0.806512	-1.064772	0.239622
H124	H	-0.306512	-0.564772	0.739622
N125	N	-1.233649	-1.064926	0.239704
N126	N	-0.733649	-0.564926	0.739704
H127	H	-1.260086	-1.030924	0.273667
H128	H	-0.760086	-0.530924	0.773667
H129	H	-1.259929	-1.111381	0.252172
H130	H	-0.759929	-0.611381	0.752172
H131	H	-0.384048	-0.720505	0.247737
H132	H	0.115952	-0.220505	0.747737
N133	N	-0.366348	-1.068254	0.722110
N134	N	0.133652	-0.568254	1.222110
H135	H	-0.317648	-1.040759	0.751436
H136	H	0.182352	-0.540759	1.251436
H137	H	-0.323868	-1.095678	0.688968
H138	H	0.176132	-0.595678	1.188968
H139	H	-0.627809	-0.899720	0.940225
H140	H	-0.127809	-0.399720	1.440225
N141	N	-0.366272	-1.068285	0.930932
N142	N	0.133728	-0.568285	1.430932
H143	H	-0.323697	-1.095721	0.964058
H144	H	0.176303	-0.595721	1.464058
H145	H	-0.317660	-1.040739	0.901604
H146	H	0.182340	-0.540739	1.401604
N147	N	-0.366400	-1.068242	0.575173
N148	N	0.133600	-0.568242	1.075173
H149	H	-0.323827	-1.095676	0.608301
H150	H	0.176173	-0.595676	1.108301
H151	H	-0.317786	-1.040698	0.545844
H152	H	0.182214	-0.540698	1.045844
H153	H	-1.105083	-1.143464	0.161221
H154	H	-0.605083	-0.643464	0.661221
N155	N	-0.645618	-0.888244	0.722044
N156	N	-0.145618	-0.388244	1.222044
H157	H	-0.720693	-0.898734	0.709739
H158	H	-0.220693	-0.398734	1.209739
H159	H	-0.629208	-0.839903	0.709725
H160	H	-0.129208	-0.339903	1.209725
H161	H	-1.105153	-0.899686	0.404648
H162	H	-0.605153	-0.399686	0.904648
N163	N	-0.891575	-0.888165	0.416044
N164	N	-0.391575	-0.388165	0.916044
H165	H	-0.942981	-0.860744	0.443451
H166	H	-0.442981	-0.360744	0.943451
H167	H	-0.846114	-0.856843	0.388458
H168	H	-0.346114	-0.356843	0.888458
H169	H	-0.383973	-1.056859	1.068521
H170	H	0.116027	-0.556859	1.568521
N171	N	-0.645977	-0.729891	0.415940
N172	N	-0.145977	-0.229891	0.915940
H173	H	-0.688598	-0.696779	0.443317
H174	H	-0.188598	-0.196779	0.943317
H175	H	-0.603274	-0.759239	0.447308
H176	H	-0.103274	-0.259239	0.947308
N177	N	-0.645504	-0.888293	1.077804
N178	N	-0.145504	-0.388293	1.577804
H179	H	-0.688073	-0.860851	1.044680
H180	H	-0.188073	-0.360851	1.544680
H181	H	-0.602719	-0.856988	1.107134
H182	H	-0.102719	-0.356988	1.607134
H183	H	-0.628198	-0.592308	0.404539
H184	H	-0.128198	-0.092308	0.904539
N185	N	-0.646000	-0.374132	0.415971
N186	N	-0.146000	0.125868	0.915971
H187	H	-0.688623	-0.341022	0.443349
H188	H	-0.188623	0.158978	0.943349
H189	H	-0.603295	-0.403480	0.447338
H190	H	-0.103295	0.096520	0.947338
N191	N	-0.645667	-0.888215	0.575104
N192	N	-0.145667	-0.388215	1.075104
H193	H	-0.688215	-0.860788	0.608210
H194	H	-0.188215	-0.360788	1.108210
H195	H	-0.694303	-0.915746	0.545771
H196	H	-0.194303	-0.415746	1.045771
N197	N	-0.646021	-0.227205	0.415989
N198	N	-0.146021	0.272795	0.915989
H199	H	-0.635819	-0.177060	0.409441
H200	H	-0.135819	0.322940	0.909441
H201	H	-0.629772	-0.239585	0.464347
H202	H	-0.129772	0.260415	0.964347
H203	H	-0.384094	-0.236502	0.247773
H204	H	0.115906	0.263498	0.747773
N205	N	-0.366278	-0.374080	0.236356
N206	N	0.133722	0.125920	0.736356
H207	H	-0.323660	-0.340954	0.208988
H208	H	0.176340	0.159046	0.708988
H209	H	-0.408956	-0.403398	0.204978
H210	H	0.091044	0.096602	0.704978
N211	N	-0.366305	-0.582918	0.236315
N212	N	0.133695	-0.082918	0.736315
H213	H	-0.317677	-0.553598	0.263868
H214	H	0.182323	-0.053598	0.763868
H215	H	-0.409040	-0.553618	0.204919
H216	H	0.090960	-0.053618	0.704919
N217	N	-0.891525	-1.154831	0.149752
N218	N	-0.391525	-0.654831	0.649752
H219	H	-0.813693	-1.148231	0.156299
H220	H	-0.313693	-0.648231	0.656299
H221	H	-0.910769	-1.144334	0.101406
H222	H	-0.410769	-0.644334	0.601406
