data_functionalizedCrystal
_audit_creation_method	'MofGen! by Chris Wilmer'
_symmetry_space_group_name_H-M	'P1'
_symmetry_Int_Tables_number	1
_symmetry_cell_setting	triclinic
loop_
_symmetry_equiv_pos_as_xyz
  x,y,z
_cell_length_a	31.640172
_cell_length_b	14.446369
_cell_length_c	14.446369
_cell_angle_alpha	59.995450
_cell_angle_beta	90.003488
_cell_angle_gamma	59.999358
loop_
_atom_site_label
_atom_site_type_symbol
_atom_site_fract_x
_atom_site_fract_y
_atom_site_fract_z
Zr1	Zr	0.407185	1.013136	-0.121408
O2	O	0.339695	1.206282	-0.269246
O3	O	0.427874	0.820009	-0.076081
O4	O	0.427873	1.013138	-0.269211
O5	O	0.339697	1.013144	0.076221
O6	O	0.497430	1.013119	-0.269191
O7	O	0.339696	1.013152	-0.076116
O8	O	0.497432	0.667645	0.076283
O9	O	0.339696	1.358618	-0.269253
O10	O	0.488608	0.899423	-0.056742
O11	O	0.436699	0.899432	0.056930
O12	O	0.436698	1.126817	-0.170455
O13	O	0.384789	1.126825	-0.056783
Zr14	Zr	0.518123	1.013092	0.121585
Zr15	Zr	0.518121	1.013105	-0.121375
Zr16	Zr	0.407187	1.013123	0.121552
Zr17	Zr	0.407186	1.256094	-0.121419
Zr18	Zr	0.518122	0.770134	0.121596
O19	O	0.497434	1.206219	0.076258
O20	O	0.497431	1.206238	-0.269200
O21	O	0.339698	1.206263	0.076212
O22	O	0.585613	0.819946	0.269423
O23	O	0.585610	0.819965	-0.076035
O24	O	0.427877	0.819990	0.269377
O25	O	0.585611	1.013084	-0.076044
O26	O	0.497435	1.013090	0.269388
O27	O	0.427878	1.013109	0.269368
O28	O	0.585612	1.013076	0.076293
O29	O	0.427875	1.358593	-0.269227
O30	O	0.497433	0.667635	0.269404
O31	O	0.585612	0.667610	0.269430
O32	O	0.585610	0.667621	0.076309
O33	O	0.339697	1.358607	-0.076132
O34	O	0.427876	1.358583	-0.076106
O35	O	0.488610	0.899411	0.170633
O36	O	0.540518	0.899403	0.056960
O37	O	0.488609	1.126796	-0.056753
O38	O	0.436700	1.126805	0.056919
C39	C	0.462653	0.709211	0.000102
C40	C	0.462652	0.606069	0.000107
C41	C	0.430070	0.459064	0.072129
C42	C	0.429893	0.566684	0.071838
C43	C	0.438768	0.655078	-0.123441
C44	C	0.438523	0.547845	-0.123068
C45	C	0.519141	0.372592	0.050571
C46	C	0.519058	0.478743	0.053092
C47	C	0.323891	1.013152	0.000048
C48	C	0.276796	1.013165	0.000034
C49	C	0.011886	0.894405	0.059468
C50	C	-0.165099	0.894382	0.059491
O51	O	-0.164941	0.793434	0.110013
N52	N	-0.214325	1.013078	0.000132
C53	C	-0.219304	1.131788	-0.059230
O54	O	-0.265235	1.232746	-0.109708
C55	C	-0.042320	1.131810	-0.059245
C56	C	0.006906	1.013106	0.000108
C57	C	0.061109	0.775710	0.118818
C58	C	0.105352	0.775717	0.118806
C59	C	0.100372	0.894418	0.059446
C60	C	0.051149	1.013113	0.000097
C61	C	-0.047299	1.250519	-0.118600
C62	C	-0.003048	1.250513	-0.118596
C63	C	0.046178	1.131809	-0.059243
C64	C	0.090413	1.131821	-0.059275
N65	N	0.139639	1.013124	0.000084
C66	C	0.144618	0.894423	0.059444
C67	C	-0.312222	1.131769	-0.059220
C68	C	-0.356468	1.131764	-0.059218
C69	C	-0.302260	0.894357	0.059505
C70	C	-0.258013	0.894363	0.059496
C71	C	-0.262996	1.013073	0.000139
C72	C	0.237531	0.894447	0.059415
C73	C	0.281776	0.894464	0.059395
C74	C	0.227564	1.131870	-0.059323
C75	C	0.183323	1.131854	-0.059308
C76	C	0.188310	1.013131	0.000070
O77	O	0.090293	1.232716	-0.109760
O78	O	0.190553	0.793481	0.109935
C79	C	-0.032358	0.894398	0.059480
C80	C	-0.081581	1.013092	0.000130
C81	C	-0.086561	1.131793	-0.059230
C82	C	-0.125827	1.013087	0.000132
C83	C	-0.120847	0.894386	0.059493
C84	C	-0.071621	0.775690	0.118851
C85	C	-0.027378	0.775697	0.118840
C86	C	-0.135787	1.250489	-0.118589
C87	C	-0.180028	1.250473	-0.118574
C88	C	-0.175048	1.131772	-0.059213
C89	C	0.601417	1.013076	0.000129
C90	C	0.648512	1.013063	0.000143
C91	C	0.462651	1.013131	-0.303818
C92	C	0.462650	1.013136	-0.406960
C93	C	0.462655	1.317017	0.000075
C94	C	0.462656	1.420159	0.000070
C95	C	0.429753	1.156538	-0.625346
C96	C	0.429892	1.156635	-0.518114
C97	C	0.519056	0.941889	-0.410264
C98	C	0.518879	0.942799	-0.518033
C99	C	0.439610	0.939868	-0.516693
C100	C	0.438465	0.942571	-0.410724
C101	C	0.462656	1.013097	0.303995
C102	C	0.462657	1.013092	0.407138
C103	C	0.601416	0.709172	0.000143
C104	C	0.648510	0.606017	0.000161
C105	C	0.462655	0.709194	0.304009
C106	C	0.462656	0.606046	0.407156
C107	C	0.601418	0.709156	0.304049
C108	C	0.648514	0.605995	0.407210
C109	C	0.323889	1.317072	-0.303872
C110	C	0.276794	1.420233	-0.407033
C111	C	0.323892	1.317056	0.000034
C112	C	0.276797	1.420211	0.000016
C113	C	0.462653	1.317034	-0.303831
C114	C	0.462652	1.420182	-0.406979
C115	C	0.643530	0.557585	-0.059192
C116	C	0.687776	0.460674	-0.059197
C117	C	0.737002	0.412189	0.000158
C118	C	0.741982	0.460631	0.059513
C119	C	0.697736	0.557547	0.059511
C120	C	0.697731	0.557545	0.396320
C121	C	0.741986	0.460629	0.493242
C122	C	0.737024	0.412156	0.601053
C123	C	0.687801	0.460615	0.611941
C124	C	0.643547	0.557537	0.515020
C125	C	0.227577	1.468694	-0.396143
C126	C	0.183321	1.565641	-0.493065
C127	C	0.188284	1.614119	-0.600876
C128	C	0.237506	1.565653	-0.611764
C129	C	0.281761	1.468715	-0.514843
C130	C	0.281778	1.468653	0.059359
C131	C	0.237532	1.565591	0.059337
C132	C	0.188305	1.614079	-0.000021
C133	C	0.183326	1.565633	-0.059372
C134	C	0.227571	1.468703	-0.059356
C135	C	0.429758	0.459733	0.482140
C136	C	0.429897	0.566665	0.374800
C137	C	0.519061	0.479170	0.481736
C138	C	0.518884	0.371783	0.588606
C139	C	0.439616	0.546777	0.590161
C140	C	0.438471	0.655259	0.481478
H141	H	0.446007	0.370187	0.163331
H142	H	0.603451	0.597061	-0.107540
H143	H	0.152245	1.693052	-0.679786
Br144	Br	0.244233	1.631455	-0.758088
Br145	Br	0.559797	0.329299	-0.036491
H146	H	0.603474	0.596972	0.523903
Br147	Br	0.479366	0.505439	0.720551
H148	H	0.683711	0.421244	-0.107531
Br149	Br	0.220802	1.402966	-0.139895
H150	H	0.773026	0.333272	0.000151
H151	H	0.782068	0.421140	0.107837
Br152	Br	0.704505	0.623258	0.140077
H153	H	0.223526	1.429229	-0.308367
Br154	Br	0.348581	0.733355	0.139946
Br155	Br	0.116514	1.631449	-0.139921
Br156	Br	0.808781	0.394880	0.478439
H157	H	0.321834	1.429258	-0.523724
Br158	Br	0.371436	0.612751	0.597005
H159	H	0.388362	0.656030	0.320513
H160	H	-0.139850	1.347152	-0.166930
Br161	Br	0.704480	0.623315	0.250018
H162	H	0.143247	1.605085	-0.484178
H163	H	0.459940	0.837880	-0.331555
Br164	Br	0.479286	0.763833	-0.471159
Br165	Br	0.476404	0.703130	-0.216824
Br166	Br	0.128262	1.745629	-0.000030
H167	H	0.683768	0.421135	0.699733
H168	H	0.544727	0.837554	-0.491367
H169	H	0.321856	1.429181	0.107703
Br170	Br	0.456672	0.505410	0.223461
Br171	Br	0.244302	1.631316	0.139893
Br172	Br	0.797089	0.280618	0.732579
Br173	Br	0.244306	0.733322	0.139998
H174	H	0.388117	0.496984	0.479791
H175	H	0.445595	0.370062	0.481113
Br176	Br	0.549634	0.220509	0.588169
Br177	Br	0.561971	0.321818	0.719602
H178	H	0.445883	0.529198	0.321018
Br179	Br	0.550030	0.414894	0.395734
Br180	Br	0.361045	0.518589	0.014327
Br181	Br	0.370151	0.808953	-0.191290
Br182	Br	0.172154	0.614610	0.199369
H183	H	0.544635	0.836379	-0.331984
H184	H	0.544640	0.501408	0.508975
Br185	Br	0.369202	0.806080	0.395765
H186	H	-0.067573	0.679039	0.167178
Br187	Br	0.360448	0.714728	0.013472
Br188	Br	0.552390	0.216371	0.199901
Br189	Br	0.369245	0.615694	-0.190448
Br190	Br	0.548801	0.412713	0.204800
H191	H	0.460724	0.525874	-0.179674
H192	H	0.545382	0.500240	0.006069
H193	H	0.065173	0.679044	0.167162
H194	H	0.459946	0.687378	0.507006
H195	H	-0.298211	0.797706	0.107832
Br196	Br	-0.423270	1.292868	-0.139792
Br197	Br	-0.191211	0.733260	0.140049
H198	H	-0.087374	1.347180	-0.166930
Br199	Br	-0.318994	1.292891	-0.139785
H200	H	-0.007111	1.347183	-0.166918
H201	H	0.537329	0.993418	-0.568376
H202	H	0.143240	1.228512	-0.107653
H203	H	0.012701	0.679035	0.167174
Br204	Br	0.220815	1.292957	-0.139861
H205	H	-0.220109	1.347143	-0.166917
H206	H	0.388357	1.212547	-0.519752
H207	H	0.388111	1.212842	-0.679312
H208	H	0.445878	1.212874	-0.520565
Br209	Br	0.550026	1.024337	-0.406701
Br210	Br	0.456144	1.249913	-0.716990
H211	H	0.398705	0.985776	-0.566730
Br212	Br	0.369204	1.029148	-0.411608
