data_functionalizedCrystal
_audit_creation_method	'MofGen! by Chris Wilmer'
_symmetry_space_group_name_H-M	'P1'
_symmetry_Int_Tables_number	1
_symmetry_cell_setting	triclinic
loop_
_symmetry_equiv_pos_as_xyz
  x,y,z
_cell_length_a	15.500227
_cell_length_b	19.288864
_cell_length_c	19.288865
_cell_angle_alpha	83.136245
_cell_angle_beta	92.813035
_cell_angle_gamma	87.151552
loop_
_atom_site_label
_atom_site_type_symbol
_atom_site_fract_x
_atom_site_fract_y
_atom_site_fract_z
O1	O	0.072232	-0.924602	-0.083400
O2	O	0.072174	-0.722339	-0.095091
O3	O	0.072188	-0.829314	0.011884
O4	O	0.072219	-0.817627	-0.190375
O5	O	-0.071702	-0.822823	0.005418
O6	O	-0.071715	-0.715848	-0.101558
O7	O	-0.071658	-0.918111	-0.089866
Cu8	Cu	-0.084825	-0.816387	-0.096302
Cu9	Cu	0.085341	-0.824063	-0.088655
O10	O	-0.071671	-0.811136	-0.196841
C11	C	0.000222	-0.693217	-0.097949
C12	C	0.000199	-0.616112	-0.096821
C13	C	0.000240	-0.825692	0.034527
C14	C	0.000232	-0.824563	0.111630
N15	N	-0.204510	-0.810992	-0.101680
C16	C	-0.249781	-0.856337	-0.056368
C17	C	-0.340355	-0.852264	-0.060441
C18	C	-0.385655	-0.802848	-0.109832
C19	C	-0.340378	-0.757499	-0.155146
C20	C	-0.249806	-0.761569	-0.151069
C21	C	-0.659124	-0.788184	-0.124509
C22	C	-0.749702	-0.784119	-0.128584
C23	C	-0.749672	-0.878883	-0.033878
C24	C	-0.659099	-0.882952	-0.029808
C25	C	-0.613830	-0.837600	-0.075120
C26	C	-0.478236	-0.798685	-0.113998
C27	C	-0.521251	-0.841761	-0.070950
N28	N	0.205027	-0.829463	-0.083272
C29	C	0.000297	-0.947234	-0.087009
C30	C	0.000325	-1.024338	-0.088137
C31	C	0.000222	-0.571417	-0.159588
C32	C	0.000232	-0.498970	-0.158526
C33	C	0.000235	-0.471223	-0.094694
C34	C	0.000207	-0.515928	-0.031919
C35	C	0.000189	-0.588372	-0.032983
C36	C	0.050667	-0.365236	-0.042249
C37	C	0.050691	-0.292792	-0.041188
C38	C	0.000287	-0.247779	-0.091412
C39	C	-0.050129	-0.275218	-0.142709
C40	C	-0.050147	-0.347662	-0.143772
C41	C	0.000254	-0.392670	-0.093534
C42	C	0.000319	-0.124529	-0.153033
C43	C	0.000323	-0.052081	-0.151969
C44	C	0.000307	-0.069040	-0.025360
C45	C	0.000295	-0.141486	-0.026426
C46	C	0.000305	-0.169226	-0.090264
C47	C	0.000278	-0.814758	-0.219485
C48	C	0.000292	-0.815887	-0.296588
C49	C	0.000246	-0.887332	0.156327
C50	C	0.000259	-0.886272	0.228775
C51	C	0.000242	-0.822439	0.256522
C52	C	0.000233	-0.759662	0.211815
C53	C	0.000228	-0.760724	0.139370
C54	C	-0.050174	-0.769985	0.362544
C55	C	-0.050175	-0.768925	0.434988
C56	C	0.000260	-0.819160	0.479968
C57	C	0.050684	-0.870466	0.452496
C58	C	0.050680	-0.871528	0.380050
C59	C	0.000247	-0.821280	0.335076
C60	C	0.000290	-0.880783	0.603222
C61	C	0.000308	-0.879721	0.675671
C62	C	0.000273	-0.753109	0.658709
C63	C	0.000263	-0.754174	0.586262
C64	C	0.000267	-0.818013	0.558523
H65	H	-0.212903	-0.896579	-0.016152
Cl66	Cl	0.000271	-0.197678	0.052486
Cl67	Cl	-0.602220	-0.731175	-0.181474
Cl68	Cl	0.000348	0.004110	-0.230884
H69	H	0.000315	-0.147115	-0.205014
Cl70	Cl	-0.806586	-0.935891	0.023085
H71	H	-0.091173	-0.238569	-0.183606
Cl72	Cl	0.000161	-0.644564	0.045931
Cl73	Cl	0.000206	-0.481046	0.048327
H74	H	-0.622217	-0.923190	0.010409
Cl75	Cl	-0.464301	-0.903879	-0.008859
H76	H	-0.377267	-0.717260	-0.195358
H77	H	-0.091200	-0.369999	-0.185538
Cl78	Cl	0.114094	-0.933623	0.509035
Cl79	Cl	0.114079	-0.258306	0.023292
H80	H	-0.377214	-0.889186	-0.023544
H81	H	-0.212948	-0.724644	-0.187966
Cl82	Cl	0.114038	-0.421817	0.020897
Cl83	Cl	0.000276	-0.967587	0.121460
H84	H	0.000297	-0.932765	0.580636
Cl85	Cl	-0.535189	-0.736565	-0.176089
H86	H	0.000274	-0.937387	0.265174
H87	H	0.091738	-0.913302	0.357686
Cl88	Cl	0.000231	-0.606286	-0.239841
H89	H	0.000324	-0.930837	0.712063
Cl90	Cl	0.000256	-0.672861	0.693584
H91	H	0.000247	-0.703060	0.549868
Cl92	Cl	-0.113568	-0.704429	0.469517
Cl93	Cl	-0.113587	-0.706827	0.306004
Cl94	Cl	0.000302	-0.034164	0.054887
Cl95	Cl	0.000259	-0.442771	-0.237439
H96	H	0.000220	-0.707689	0.234411
H97	H	-0.786582	-0.743877	-0.168807
H98	H	0.000217	-0.709609	0.102976
