data_functionalizedCrystal
_audit_creation_method	'MofGen! by Chris Wilmer'
_symmetry_space_group_name_H-M	'P1'
_symmetry_Int_Tables_number	1
_symmetry_cell_setting	triclinic
loop_
_symmetry_equiv_pos_as_xyz
  x,y,z
_cell_length_a	12.594517
_cell_length_b	19.120786
_cell_length_c	12.594509
_cell_angle_alpha	92.474225
_cell_angle_beta	90.014305
_cell_angle_gamma	92.465364
loop_
_atom_site_label
_atom_site_type_symbol
_atom_site_fract_x
_atom_site_fract_y
_atom_site_fract_z
Zn1	Zn	1.609121	-0.279611	0.583539
Zn2	Zn	2.109121	0.220389	1.083539
Zn3	Zn	1.601388	-0.397081	0.397947
Zn4	Zn	2.101388	0.102919	0.897947
Zn5	Zn	1.431123	-0.279641	0.405588
Zn6	Zn	1.931123	0.220359	0.905588
Zn7	Zn	1.423486	-0.397033	0.575902
Zn8	Zn	1.923486	0.102967	1.075902
O9	O	1.516279	-0.338342	0.490744
O10	O	2.016279	0.161658	0.990744
O11	O	1.757040	-0.295201	0.558919
O12	O	2.257040	0.204799	1.058919
O13	O	1.578761	-0.381536	0.250013
O14	O	2.078761	0.118464	0.750013
O15	O	1.461166	-0.181346	0.435587
O16	O	1.961166	0.318654	0.935587
O17	O	1.751359	-0.381506	0.422565
O18	O	2.251359	0.118494	0.922565
O19	O	1.591941	-0.181324	0.566327
O20	O	2.091941	0.318676	1.066327
O21	O	1.453668	-0.295253	0.255626
O22	O	1.953668	0.204747	0.755626
O23	O	1.281164	-0.295206	0.428182
O24	O	1.781164	0.204794	0.928182
O25	O	1.448151	-0.381424	0.725863
O26	O	1.948151	0.118576	1.225863
O27	O	1.275554	-0.381453	0.553311
O28	O	1.775554	0.118547	1.053311
O29	O	1.584536	-0.295154	0.731474
O30	O	2.084536	0.204846	1.231474
O31	O	1.571357	-0.495365	0.415160
O32	O	2.071357	0.004635	0.915160
O33	O	1.440653	-0.495330	0.545903
O34	O	1.940653	0.004670	1.045903
C35	C	1.239739	-0.338328	0.490748
C36	C	1.739739	0.161672	0.990748
C37	C	1.121433	-0.338339	0.490773
C38	C	1.621433	0.161661	0.990773
C39	C	0.978390	-0.385334	0.558694
C40	C	1.478390	0.114666	1.058694
C41	C	1.048051	-0.402431	0.460444
C42	C	1.548051	0.097569	0.960444
C43	C	1.053342	-0.321274	0.589010
C44	C	1.553342	0.178726	1.089010
C45	C	0.980305	-0.355492	0.392437
C46	C	1.480305	0.144508	0.892437
C47	C	0.985591	-0.274305	0.521070
C48	C	1.485591	0.225695	1.021070
C49	C	1.055222	-0.291377	0.422755
C50	C	1.555222	0.208623	0.922755
C51	C	1.504366	-0.520833	0.478897
C52	C	2.004366	-0.020833	0.978897
C53	C	1.499367	-0.598904	0.473864
C54	C	1.999367	-0.098904	0.973864
C55	C	1.565055	-0.635510	0.539624
C56	C	2.065055	-0.135510	1.039624
C57	C	1.560354	-0.708866	0.534897
C58	C	2.060354	-0.208866	1.034897
C59	C	1.489969	-0.745614	0.464404
C60	C	1.989969	-0.245614	0.964404
C61	C	1.424274	-0.709003	0.398641
C62	C	1.924274	-0.209003	0.898641
C63	C	1.428971	-0.635649	0.403374
C64	C	1.928971	-0.135649	0.903374
C65	C	1.472379	-0.967101	0.446710
C66	C	1.972379	-0.467101	0.946710
C67	C	1.467689	-1.040460	0.441979
C68	C	1.967689	-0.540460	0.941979
C69	C	1.603768	-1.040318	0.578238
C70	C	2.103768	-0.540318	1.078238
C71	C	1.608463	-0.966962	0.582960
C72	C	2.108463	-0.466962	1.082960
C73	C	1.542764	-0.930357	0.517201
C74	C	2.042764	-0.430357	1.017201
C75	C	1.485164	-0.820596	0.459568
C76	C	1.985164	-0.320596	0.959568
C77	C	1.547565	-0.855377	0.522043
C78	C	2.047565	-0.355377	1.022043
C79	C	1.793899	-0.338356	0.490741
C80	C	2.293899	0.161644	0.990741
C81	C	1.912204	-0.338362	0.490740
C82	C	2.412204	0.161638	0.990740
C83	C	1.516355	-0.338280	0.768369
C84	C	2.016355	0.161720	1.268369
C85	C	1.516387	-0.338254	0.886676
C86	C	2.016387	0.161746	1.386676
C87	C	1.528268	-0.155137	0.502661
C88	C	2.028268	0.344863	1.002661
C89	C	1.533377	-0.077066	0.507740
C90	C	2.033377	0.422934	1.007740
C91	C	1.516269	-0.338352	0.214203
C92	C	2.016269	0.161648	0.714203
C93	C	1.516456	-0.338180	0.095909
C94	C	2.016456	0.161820	0.595909
C95	C	1.442231	-0.385149	0.952880
C96	C	1.942231	0.114851	1.452880
C97	C	1.538238	-0.402311	1.022546
C98	C	2.038238	0.097689	1.522546
C99	C	1.420458	-0.321050	1.027812
C100	C	1.920458	0.178950	1.527812
C101	C	1.612442	-0.355449	0.954782
C102	C	2.112442	0.144551	1.454782
C103	C	1.494599	-0.274158	0.960044
C104	C	1.994599	0.225842	1.460044
C105	C	1.590674	-0.291296	1.029680
C106	C	2.090674	0.208704	1.529680
H107	H	1.085386	-0.306830	0.672102
H108	H	1.585386	0.193170	1.172102
H109	H	1.375479	-0.605845	0.349827
H110	H	1.875479	-0.105845	0.849827
C111	C	0.937190	-0.375095	0.280147
C112	C	1.437190	0.124905	0.780147
N113	N	0.904712	-0.389863	0.195573
N114	N	1.404712	0.110137	0.695573
H115	H	1.418886	-0.937303	0.393164
H116	H	1.918886	-0.437303	0.893164
H117	H	1.556704	-0.456484	1.050137
H118	H	2.056704	0.043516	1.550137
C119	C	1.722103	-0.375156	0.911671
C120	C	2.222103	0.124844	1.411671
N121	N	1.804695	-0.390003	0.879197
N122	N	2.304695	0.109997	1.379197
C123	C	1.100403	-0.237701	0.345049
C124	C	1.600403	0.262299	0.845049
N125	N	1.134436	-0.197274	0.286517
N126	N	1.634436	0.302726	0.786517
C127	C	1.642486	-0.595093	0.617171
C128	C	2.142486	-0.095093	1.117171
N129	N	1.700807	-0.564653	0.675585
N130	N	2.200807	-0.064653	1.175585
C131	C	0.932935	-0.439051	0.636200
C132	C	1.432935	0.060949	1.136200
N133	N	0.898695	-0.479512	0.694571
N134	N	1.398695	0.020488	1.194571
H135	H	1.604868	-0.825454	0.579443
H136	H	2.104868	-0.325454	1.079443
H137	H	1.613852	-0.738667	0.588438
H138	H	2.113852	-0.238667	1.088438
H139	H	1.379563	-0.424869	0.919255
H140	H	1.879563	0.075131	1.419255
H141	H	1.653484	-0.251606	1.063107
H142	H	2.153484	0.248394	1.563107
C143	C	1.469610	-0.200995	0.922728
C144	C	1.969610	0.299005	1.422728
N145	N	1.450775	-0.145889	0.894618
N146	N	1.950775	0.354111	1.394618
H147	H	1.665776	-0.937043	0.640361
H148	H	2.165776	-0.437043	1.140361
H149	H	1.427859	-0.850525	0.402169
H150	H	1.927859	-0.350525	0.902169
H151	H	1.339304	-0.306529	1.059853
H152	H	1.839304	0.193471	1.559853
H153	H	0.957993	-0.220159	0.546743
H154	H	1.457993	0.279841	1.046743
C155	C	1.085299	-0.475601	0.425794
C156	C	1.585299	0.024399	0.925794
N157	N	1.113348	-0.530714	0.399700
N158	N	1.613348	-0.030714	0.899700
C159	C	1.676025	-1.080589	0.650575
C160	C	2.176025	-0.580589	1.150575
N161	N	1.730448	-1.110921	0.705066
N162	N	2.230448	-0.610921	1.205066
C163	C	1.390253	-1.080883	0.364432
C164	C	1.890253	-0.580883	0.864432
N165	N	1.331931	-1.111328	0.306026
N166	N	1.831931	-0.611328	0.806026
C167	C	1.346914	-0.749430	0.321033
C168	C	1.846914	-0.249430	0.821033
N169	N	1.288672	-0.779878	0.262550
N170	N	1.788672	-0.279878	0.762550
