data_functionalizedCrystal
_audit_creation_method	'MofGen! by Chris Wilmer'
_symmetry_space_group_name_H-M	'P1'
_symmetry_Int_Tables_number	1
_symmetry_cell_setting	triclinic
loop_
_symmetry_equiv_pos_as_xyz
  x,y,z
_cell_length_a	15.995350
_cell_length_b	27.732048
_cell_length_c	15.072220
_cell_angle_alpha	90.007580
_cell_angle_beta	89.998728
_cell_angle_gamma	83.067515
loop_
_atom_site_label
_atom_site_type_symbol
_atom_site_fract_x
_atom_site_fract_y
_atom_site_fract_z
O1	O	1.110177	0.062303	0.073717
O2	O	1.443510	0.395637	0.407051
O3	O	1.776844	0.728970	0.740384
O4	O	0.866302	0.069997	0.073737
O5	O	1.199636	0.403330	0.407070
O6	O	1.532969	0.736664	0.740403
O7	O	0.995814	-0.004214	0.073709
O8	O	1.329147	0.329119	0.407043
O9	O	1.662481	0.662453	0.740376
O10	O	0.980665	0.136514	0.073744
O11	O	1.313999	0.469848	0.407078
O12	O	1.647332	0.803181	0.740411
O13	O	0.995807	-0.004214	-0.073856
O14	O	1.329141	0.329120	0.259478
O15	O	1.662474	0.662453	0.592811
O16	O	0.866296	0.069997	-0.073828
O17	O	1.199629	0.403331	0.259505
O18	O	1.532962	0.736664	0.592838
O19	O	1.110171	0.062304	-0.073848
O20	O	1.443504	0.395637	0.259485
O21	O	1.776837	0.728970	0.592819
Zn22	Zn	0.988232	0.066151	-0.097267
Zn23	Zn	1.321565	0.399484	0.236066
Zn24	Zn	1.654899	0.732817	0.569399
Zn25	Zn	0.988241	0.066150	0.097156
Zn26	Zn	1.321574	0.399483	0.430489
Zn27	Zn	1.654907	0.732817	0.763823
O28	O	0.980659	0.136515	-0.073821
O29	O	1.313992	0.469848	0.259513
O30	O	1.647326	0.803181	0.592846
C31	C	0.835108	0.069679	-0.000044
C32	C	1.168442	0.403012	0.333290
C33	C	1.501775	0.736346	0.666623
C34	C	0.742170	0.068726	-0.000037
C35	C	1.075504	0.402059	0.333296
C36	C	1.408837	0.735392	0.666630
C37	C	0.404467	0.065301	-0.000056
C38	C	0.737800	0.398634	0.333277
C39	C	1.071134	0.731968	0.666610
C40	C	0.452585	0.012449	-0.000399
C41	C	0.785918	0.345783	0.332935
C42	C	1.119252	0.679116	0.666268
C43	C	0.549263	0.013403	-0.000060
C44	C	0.882596	0.346736	0.333274
C45	C	1.215930	0.680070	0.666607
C46	C	0.572006	0.067000	-0.000047
C47	C	0.905339	0.400333	0.333286
C48	C	1.238672	0.733666	0.666620
C49	C	0.530585	0.093068	0.084223
C50	C	0.863918	0.426401	0.417556
C51	C	1.197252	0.759734	0.750889
C52	C	0.433966	0.091740	0.084287
C53	C	0.767300	0.425073	0.417620
C54	C	1.100633	0.758407	0.750953
C55	C	0.433606	0.092832	-0.083522
C56	C	0.766939	0.426166	0.249811
C57	C	1.100273	0.759499	0.583145
C58	C	0.530552	0.092820	-0.084630
C59	C	0.863885	0.426153	0.248704
C60	C	1.197218	0.759486	0.582037
C61	C	0.666691	0.067962	-0.000039
C62	C	1.000024	0.401296	0.333294
C63	C	1.333357	0.734629	0.666628
C64	C	0.309782	0.064340	-0.000058
C65	C	0.643115	0.397673	0.333275
C66	C	0.976448	0.731006	0.666608
C67	C	0.995493	-0.022222	-0.000076
C68	C	1.328826	0.311111	0.333258
C69	C	1.662159	0.644445	0.666591
C70	C	0.994535	-0.075881	-0.000083
C71	C	1.327869	0.257452	0.333251
C72	C	1.661202	0.590786	0.666584
C73	C	1.065040	-0.414392	-0.000043
C74	C	1.398373	-0.081059	0.333291
C75	C	1.731707	0.252275	0.666624
C76	C	1.061487	-0.616067	-0.000030
C77	C	1.394821	-0.282734	0.333303
C78	C	1.728154	0.050600	0.666637
O79	O	1.125959	-0.647045	0.000004
O80	O	1.459292	-0.313711	0.333337
O81	O	1.792626	0.019622	0.666670
N82	N	0.984692	-0.635522	-0.000025
N83	N	1.318026	-0.302189	0.333308
N84	N	1.651359	0.031145	0.666642
C85	C	0.908780	-0.604555	-0.000017
C86	C	1.242113	-0.271221	0.333316
C87	C	1.575447	0.062112	0.666650
O88	O	0.843380	-0.625730	-0.000003
O89	O	1.176713	-0.292396	0.333330
O90	O	1.510046	0.040937	0.666664
C91	C	0.912334	-0.402881	-0.000023
C92	C	1.245667	-0.069547	0.333310
C93	C	1.579000	0.263786	0.666643
C94	C	0.989134	-0.383429	-0.000037
C95	C	1.322467	-0.050095	0.333296
C96	C	1.655800	0.283238	0.666629
C97	C	1.141834	-0.394940	-0.000056
C98	C	1.475167	-0.061606	0.333277
C99	C	1.808500	0.271727	0.666611
C100	C	1.142721	-0.344524	-0.000064
C101	C	1.476054	-0.011191	0.333269
C102	C	1.809388	0.322143	0.666603
C103	C	1.066815	-0.313561	-0.000059
C104	C	1.400148	0.019773	0.333275
C105	C	1.733481	0.353106	0.666608
C106	C	0.990021	-0.333013	-0.000045
C107	C	1.323354	0.000320	0.333288
C108	C	1.656688	0.333654	0.666621
C109	C	0.836422	-0.371914	-0.000009
C110	C	1.169755	-0.038581	0.333324
C111	C	1.503089	0.294752	0.666658
C112	C	0.837317	-0.321493	-0.000008
C113	C	1.170651	0.011840	0.333325
C114	C	1.503984	0.345173	0.666658
C115	C	0.914117	-0.302041	-0.000023
C116	C	1.247451	0.031292	0.333311
C117	C	1.580784	0.364625	0.666644
C118	C	0.915002	-0.251634	-0.000048
C119	C	1.248335	0.081699	0.333285
C120	C	1.581668	0.415033	0.666618
N121	N	0.991797	-0.232179	-0.000053
N122	N	1.325130	0.101154	0.333280
N123	N	1.658464	0.434488	0.666613
C124	C	1.067703	-0.263142	-0.000059
C125	C	1.401037	0.070191	0.333275
C126	C	1.734370	0.403524	0.666608
C127	C	0.906920	-0.710437	-0.000015
C128	C	1.240253	-0.377103	0.333318
C129	C	1.573586	-0.043770	0.666651
C130	C	0.906031	-0.760855	-0.000015
C131	C	1.239365	-0.427522	0.333318
C132	C	1.572698	-0.094188	0.666651
C133	C	1.058739	-0.772364	-0.000027
C134	C	1.392072	-0.439031	0.333306
C135	C	1.725406	-0.105697	0.666640
C136	C	1.059627	-0.721945	-0.000033
C137	C	1.392960	-0.388611	0.333300
C138	C	1.726293	-0.055278	0.666633
C139	C	0.983715	-0.690982	-0.000021
C140	C	1.317048	-0.357649	0.333313
C141	C	1.650382	-0.024315	0.666646
C142	C	1.069561	-0.157265	-0.000076
C143	C	1.402894	0.176068	0.333257
C144	C	1.736228	0.509402	0.666590
C145	C	1.070442	-0.106844	-0.000088
C146	C	1.403775	0.226489	0.333245
C147	C	1.737108	0.559822	0.666579
C148	C	0.917734	-0.095340	-0.000072
C149	C	1.251068	0.237993	0.333262
C150	C	1.584401	0.571327	0.666595
C151	C	0.916853	-0.145756	-0.000065
C152	C	1.250187	0.187577	0.333269
C153	C	1.583520	0.520910	0.666602
C154	C	0.992773	-0.176718	-0.000064
C155	C	1.326107	0.156615	0.333269
C156	C	1.659440	0.489949	0.666603
O157	O	0.850565	-0.220628	-0.000072
O158	O	1.183898	0.112706	0.333261
O159	O	1.517231	0.446039	0.666595
O160	O	1.133094	-0.241958	-0.000053
O161	O	1.466428	0.091376	0.333280
O162	O	1.799761	0.424709	0.666614
C163	C	1.064153	-0.464808	-0.000035
C164	C	1.397486	-0.131475	0.333299
C165	C	1.730819	0.201859	0.666632
C166	C	0.987359	-0.484260	-0.000022
C167	C	1.320692	-0.150927	0.333312
C168	C	1.654026	0.182406	0.666645
C169	C	0.911452	-0.453297	-0.000016
C170	C	1.244786	-0.119964	0.333317
C171	C	1.578119	0.213370	0.666650
C172	C	0.986470	-0.534679	-0.000022
C173	C	1.319804	-0.201345	0.333312
C174	C	1.653137	0.131988	0.666645
C175	C	1.062377	-0.565642	-0.000027
C176	C	1.395710	-0.232309	0.333307
C177	C	1.729043	0.101025	0.666640
C178	C	1.139172	-0.546187	-0.000032
C179	C	1.472505	-0.212854	0.333301
C180	C	1.805838	0.120480	0.666635
C181	C	1.140059	-0.495771	-0.000040
C182	C	1.473392	-0.162438	0.333293
C183	C	1.806726	0.170895	0.666627
C184	C	0.834657	-0.472752	-0.000011
C185	C	1.167991	-0.139419	0.333322
C186	C	1.501324	0.193915	0.666656
C187	C	0.833776	-0.523168	-0.000004
C188	C	1.167110	-0.189835	0.333329
C189	C	1.500443	0.143498	0.666663
C190	C	0.909683	-0.554132	-0.000009
C191	C	1.243016	-0.220798	0.333324
C192	C	1.576349	0.112535	0.666657
C193	C	1.141364	0.062621	-0.000066
C194	C	1.474698	0.395955	0.333268
C195	C	1.808031	0.729288	0.666601
C196	C	1.234303	0.063575	-0.000066
C197	C	1.567636	0.396908	0.333267
C198	C	1.900969	0.730242	0.666600
C199	C	0.980980	0.154523	-0.000034
C200	C	1.314313	0.487856	0.333300
C201	C	1.647647	0.821189	0.666633
C202	C	0.981938	0.208182	-0.000021
C203	C	1.315271	0.541515	0.333313
C204	C	1.648604	0.874848	0.666646
N205	N	0.988232	0.066151	-0.229956
N206	N	1.321566	0.399484	0.103377
N207	N	1.654899	0.732817	0.436711
N208	N	0.988247	0.066146	0.229845
N209	N	1.321580	0.399480	0.563178
N210	N	1.654914	0.732813	0.896512
C211	C	0.988237	0.066149	0.589046
C212	C	1.321571	0.399483	0.922380
C213	C	1.654904	0.732816	1.255713
C214	C	1.057461	0.026400	0.551397
C215	C	1.390794	0.359733	0.884731
C216	C	1.724127	0.693066	1.218064
C217	C	1.057707	0.026501	0.448572
C218	C	1.391040	0.359834	0.781905
C219	C	1.724373	0.693168	1.115238
C220	C	0.988242	0.066147	0.410842
C221	C	1.321576	0.399481	0.744176
C222	C	1.654909	0.732814	1.077509
C223	C	1.006444	0.116621	0.448181
C224	C	1.339778	0.449954	0.781514
C225	C	1.673111	0.783287	1.114848
C226	C	1.006938	0.116389	0.551039
C227	C	1.340271	0.449722	0.884372
C228	C	1.673605	0.783055	1.217705
C229	C	0.900600	0.055879	0.551142
C230	C	1.233933	0.389212	0.884475
C231	C	1.567267	0.722545	1.217809
C232	C	0.901203	0.054731	0.448278
C233	C	1.234536	0.388065	0.781611
C234	C	1.567870	0.721398	1.114944
C235	C	0.988243	0.066149	0.310129
C236	C	1.321577	0.399483	0.643462
C237	C	1.654910	0.732816	0.976796
C238	C	0.988238	0.066151	0.689760
C239	C	1.321571	0.399484	1.023093
C240	C	1.654905	0.732817	1.356426
H241	H	0.545411	0.131904	-0.089710
H242	H	0.878744	0.465237	0.243623
H243	H	1.212077	0.798571	0.576956
F244	F	1.088987	0.128712	0.414506
F245	F	1.422321	0.462045	0.747839
F246	F	1.755654	0.795378	1.081173
H247	H	0.577954	-0.007088	-0.060468
H248	H	0.911288	0.326246	0.272865
H249	H	1.244621	0.659579	0.606198
H250	H	0.854317	-0.161595	-0.000078
H251	H	1.187650	0.171739	0.333256
H252	H	1.520983	0.505072	0.666589
H253	H	1.200977	-0.571406	-0.000040
H254	H	1.534311	-0.238073	0.333293
H255	H	1.867644	0.095260	0.666626
H256	H	0.849096	0.084865	0.575491
H257	H	1.182430	0.418198	0.908825
H258	H	1.515763	0.751532	1.242158
H259	H	1.070824	0.125421	0.575025
H260	H	1.404158	0.458754	0.908358
H261	H	1.737491	0.792088	1.241692
F262	F	0.756519	-0.288543	0.000007
F263	F	1.089852	0.044791	0.333340
F264	F	1.423186	0.378124	0.666674
F265	F	1.224463	-0.323828	-0.000060
F266	F	1.557796	0.009505	0.333273
F267	F	1.891130	0.342838	0.666606
H268	H	1.203650	-0.420146	-0.000057
H269	H	1.536983	-0.086812	0.333276
H270	H	1.870316	0.246521	0.666609
F271	F	1.221801	-0.475076	-0.000050
F272	F	1.555134	-0.141742	0.333283
F273	F	1.888468	0.191591	0.666617
H274	H	0.773883	-0.387743	0.000008
H275	H	1.107217	-0.054410	0.333341
H276	H	1.440550	0.278924	0.666675
F277	F	0.826118	-0.677489	-0.000002
F278	F	1.159452	-0.344156	0.333332
F279	F	1.492785	-0.010822	0.666665
F280	F	0.428725	-0.015164	-0.079391
F281	F	0.762059	0.318169	0.253943
F282	F	1.095392	0.651503	0.587276
F283	F	0.752029	-0.543864	0.000006
F284	F	1.085363	-0.210531	0.333339
F285	F	1.418696	0.122803	0.666672
H286	H	1.120545	-0.797583	-0.000032
H287	H	1.453878	-0.464250	0.333302
H288	H	1.787212	-0.130916	0.666635
H289	H	1.122759	0.033075	0.423960
H290	H	1.456092	0.366408	0.757294
H291	H	1.789426	0.699741	1.090627
H292	H	0.772844	-0.447546	-0.000005
H293	H	1.106177	-0.114213	0.333329
H294	H	1.439510	0.219121	0.666662
H295	H	0.401216	0.130543	0.088120
H296	H	0.734549	0.463876	0.421453
H297	H	1.067883	0.797209	0.754786
F298	F	1.043708	-0.022799	0.583718
F299	F	1.377041	0.310534	0.917052
F300	F	1.710374	0.643868	1.250385
H301	H	0.401340	0.131799	-0.084083
H302	H	0.734674	0.465133	0.249250
H303	H	1.068007	0.798466	0.582584
F304	F	0.586005	-0.013452	0.079149
F305	F	0.919338	0.319881	0.412482
F306	F	1.252672	0.653215	0.745815
F307	F	0.883111	0.006204	0.416363
F308	F	1.216444	0.339537	0.749696
F309	F	1.549777	0.672871	1.083030
H310	H	0.544201	0.132444	0.087365
H311	H	0.877534	0.465777	0.420698
H312	H	1.210867	0.799110	0.754032
H313	H	1.046998	-0.011014	0.423325
H314	H	1.380332	0.322319	0.756659
H315	H	1.713665	0.655653	1.089992
F316	F	0.943949	0.156458	0.583595
F317	F	1.277283	0.489791	0.916928
F318	F	1.610616	0.823124	1.250262
F319	F	0.830802	0.090110	0.414719
F320	F	1.164136	0.423443	0.748052
F321	F	1.497469	0.756777	1.081386
H322	H	1.122146	0.032876	0.577252
H323	H	1.455479	0.366209	0.910586
H324	H	1.788812	0.699543	1.243919
F325	F	1.152186	-0.086146	-0.000103
F326	F	1.485519	0.247188	0.333231
F327	F	1.818853	0.580521	0.666564
F328	F	0.567979	0.069402	0.166187
F329	F	0.901313	0.402736	0.499520
F330	F	1.234646	0.736069	0.832853
H331	H	0.843493	-0.776688	-0.000019
H332	H	1.176826	-0.443355	0.333314
H333	H	1.510160	-0.110021	0.666648
F334	F	0.407058	0.070247	-0.167011
F335	F	0.740391	0.403581	0.166322
F336	F	1.073724	0.736914	0.499656
H337	H	1.122164	-0.706111	-0.000044
H338	H	1.455497	-0.372777	0.333289
H339	H	1.788831	-0.039444	0.666622
H340	H	0.855933	-0.070121	-0.000071
H341	H	1.189267	0.263213	0.333263
H342	H	1.522600	0.596546	0.666596
H343	H	0.957329	0.146917	0.423744
H344	H	1.290662	0.480250	0.757077
H345	H	1.623996	0.813583	1.090410
F346	F	0.877455	0.008792	0.585041
F347	F	1.210789	0.342125	0.918374
F348	F	1.544122	0.675458	1.251708
F349	F	1.150364	-0.190210	-0.000075
F350	F	1.483697	0.143123	0.333258
F351	F	1.817031	0.476456	0.666591
H352	H	0.433266	-0.008580	0.059692
H353	H	0.766599	0.324754	0.393025
H354	H	1.099933	0.658087	0.726358
H355	H	0.415907	0.072730	0.147272
H356	H	0.749240	0.406063	0.480605
H357	H	1.082573	0.739396	0.813938
H358	H	0.558112	0.073790	-0.146972
H359	H	0.891445	0.407124	0.186361
H360	H	1.224778	0.740457	0.519695
