data_functionalizedCrystal
_audit_creation_method	'MofGen! by Chris Wilmer'
_symmetry_space_group_name_H-M	'P1'
_symmetry_Int_Tables_number	1
_symmetry_cell_setting	triclinic
loop_
_symmetry_equiv_pos_as_xyz
  x,y,z
_cell_length_a	27.440280
_cell_length_b	19.377369
_cell_length_c	19.377308
_cell_angle_alpha	117.941574
_cell_angle_beta	89.999473
_cell_angle_gamma	48.634130
loop_
_atom_site_label
_atom_site_type_symbol
_atom_site_fract_x
_atom_site_fract_y
_atom_site_fract_z
Zr1	Zr	0.381815	0.759387	-0.055869
O2	O	0.268767	0.943829	0.042074
O3	O	0.425679	0.607574	-0.064538
O4	O	0.383726	0.806417	0.072854
O5	O	0.333338	0.696511	-0.227988
O6	O	0.463933	0.806398	0.072840
O7	O	0.310719	0.744987	-0.095317
O8	O	0.538979	0.450705	-0.172928
O9	O	0.258291	1.052204	0.017780
O10	O	0.493118	0.657919	-0.094047
O11	O	0.450140	0.621756	-0.193047
O12	O	0.400746	0.855867	-0.031286
O13	O	0.357768	0.819704	-0.130286
Zr14	Zr	0.545809	0.682044	-0.267485
Zr15	Zr	0.509736	0.759358	-0.055891
Zr16	Zr	0.417888	0.682074	-0.267463
Zr17	Zr	0.365108	0.932233	-0.094614
Zr18	Zr	0.562515	0.509199	-0.228739
O19	O	0.501945	0.833858	-0.258816
O20	O	0.450653	0.943787	0.042043
O21	O	0.320058	0.833900	-0.258785
O22	O	0.658857	0.497602	-0.365428
O23	O	0.607566	0.607532	-0.064569
O24	O	0.476970	0.497645	-0.365397
O25	O	0.594286	0.744921	-0.095366
O26	O	0.543898	0.635015	-0.396208
O27	O	0.463691	0.635034	-0.396194
O28	O	0.616904	0.696445	-0.228036
O29	O	0.359971	1.052180	0.017763
O30	O	0.567652	0.389252	-0.341117
O31	O	0.669332	0.389228	-0.341134
O32	O	0.640659	0.450681	-0.172945
O33	O	0.286965	0.990751	-0.150408
O34	O	0.388645	0.990727	-0.150426
O35	O	0.526877	0.585565	-0.292068
O36	O	0.569855	0.621728	-0.193068
O37	O	0.477483	0.819676	-0.130307
O38	O	0.434505	0.783513	-0.229307
C39	C	0.484709	0.504513	-0.113212
C40	C	0.491802	0.431136	-0.096764
C41	C	0.403259	0.095012	-0.301332
C42	C	0.410017	0.025946	-0.285947
C43	C	0.454883	0.063707	-0.182598
C44	C	0.448132	0.132773	-0.197978
C45	C	0.422319	0.148420	-0.257345
C46	C	0.467191	0.186181	-0.153991
C47	C	0.460437	0.255246	-0.169367
C48	C	0.434623	0.270902	-0.228729
C49	C	0.415565	0.217485	-0.272721
C50	C	0.492999	0.170539	-0.094620
C51	C	0.512059	0.223947	-0.050633
C52	C	0.505310	0.293006	-0.066013
C53	C	0.479496	0.308663	-0.125375
C54	C	0.524369	0.346424	-0.022021
C55	C	0.517615	0.415488	-0.037397
C56	C	0.472742	0.377728	-0.140751
C57	C	0.303803	0.720753	-0.161649
C58	C	0.249497	0.720766	-0.161640
C59	C	-0.038967	0.617364	-0.194461
C60	C	-0.089983	0.617355	-0.194469
O61	O	-0.075359	0.529469	-0.222360
N62	N	-0.163717	0.720682	-0.161707
C63	C	-0.186434	0.824020	-0.128944
O64	O	-0.253835	0.911907	-0.101079
C65	C	-0.135417	0.824025	-0.128943
C66	C	-0.061683	0.720695	-0.161698
C67	C	0.034763	0.514041	-0.227215
C68	C	0.085775	0.514051	-0.227206
C69	C	0.063058	0.617382	-0.194443
C70	C	-0.010671	0.720704	-0.161689
C71	C	-0.158133	0.927361	-0.096186
C72	C	-0.107108	0.927357	-0.096188
C73	C	-0.033375	0.824026	-0.128943
C74	C	0.017625	0.824045	-0.128917
N75	N	0.091359	0.720719	-0.161678
C76	C	0.114075	0.617387	-0.194441
C77	C	-0.293569	0.824001	-0.128951
C78	C	-0.344587	0.824000	-0.128946
C79	C	-0.248132	0.617334	-0.194473
C80	C	-0.197115	0.617339	-0.194471
C81	C	-0.219835	0.720675	-0.161713
C82	C	0.221202	0.617415	-0.194419
C83	C	0.272214	0.617435	-0.194403
C84	C	0.175756	0.824098	-0.128881
C85	C	0.124747	0.824081	-0.128892
C86	C	0.147476	0.720729	-0.161667
O87	O	0.003054	0.911886	-0.101043
O88	O	0.181478	0.529512	-0.222312
C89	C	0.623821	0.720679	-0.161704
C90	C	0.678127	0.720666	-0.161714
C91	C	0.418690	0.817423	0.102995
C92	C	0.403376	0.850244	0.192822
C93	C	0.442914	0.936919	-0.210142
C94	C	0.435822	1.010296	-0.226590
C95	C	0.594075	0.441566	0.324453
C96	C	0.579669	0.472434	0.408868
C97	C	0.483240	0.679077	0.474376
C98	C	0.497640	0.648227	0.389965
C99	C	0.553057	0.529469	0.315009
C100	C	0.456622	0.736130	0.380521
C101	C	0.471018	0.705281	0.296117
C102	C	0.526432	0.586529	0.221158
C103	C	0.567453	0.498621	0.230605
C104	C	0.401201	0.854887	0.455478
C105	C	0.360184	0.942790	0.446034
C106	C	0.374583	0.911942	0.361629
C107	C	0.429997	0.793190	0.286670
C108	C	0.333562	0.999850	0.352181
C109	C	0.347958	0.969002	0.267778
C110	C	0.444393	0.762341	0.202266
C111	C	0.508937	0.624004	0.573650
C112	C	0.524262	0.591166	0.483818
C113	C	0.644718	0.504475	-0.113240
C114	C	0.706116	0.431085	-0.096801
C115	C	0.529831	0.407806	-0.377884
C116	C	0.552238	0.301607	-0.451262
C117	C	0.689841	0.407769	-0.377911
C118	C	0.766553	0.301557	-0.451299
C119	C	0.237783	1.033663	0.054557
C120	C	0.161071	1.139875	0.127945
C121	C	0.282905	0.936956	-0.210114
C122	C	0.221507	1.010347	-0.226553
C123	C	0.397792	1.033626	0.054530
C124	C	0.375386	1.139825	0.127909
C125	C	0.694892	0.415515	-0.037384
C126	C	0.752573	0.346574	-0.021920
C127	C	0.821479	0.293198	-0.065879
C128	C	0.832702	0.308774	-0.125298
C129	C	0.775020	0.377721	-0.140756
C130	C	0.602818	0.232841	-0.537418
C131	C	0.623869	0.133063	-0.606376
C132	C	0.594344	0.102048	-0.589174
C133	C	0.543758	0.170825	-0.503010
C134	C	0.522703	0.270606	-0.434055
C135	C	0.825017	0.270556	-0.434086
C136	C	0.897099	0.170771	-0.503036
C137	C	0.910715	0.101985	-0.589197
C138	C	0.852244	0.132994	-0.606410
C139	C	0.780163	0.232782	-0.537462
C140	C	0.102606	1.170885	0.110730
C141	C	0.030522	1.270690	0.179675
C142	C	0.016905	1.339480	0.265836
C143	C	0.075377	1.308467	0.283050
C144	C	0.147459	1.208667	0.214104
C145	C	0.232729	1.025927	-0.285963
C146	C	0.175043	1.094896	-0.301407
C147	C	0.106136	1.148276	-0.257447
C148	C	0.094914	1.132695	-0.198030
C149	C	0.152599	1.063734	-0.182582
C150	C	0.404925	1.170806	0.110680
C151	C	0.383885	1.270579	0.179621
C152	C	0.333303	1.339374	0.265789
C153	C	0.303764	1.308385	0.283017
C154	C	0.324808	1.208609	0.214078
H155	H	0.394492	-0.017536	-0.321768
Br156	Br	0.692522	0.039741	-0.723303
H157	H	0.944700	0.145537	-0.489005
Br158	Br	0.545966	0.544658	0.106607
H159	H	0.481520	0.326587	-0.363904
H160	H	0.314555	1.040581	0.260090
H161	H	0.184194	1.107567	-0.349792
Br162	Br	0.926223	0.236323	-0.184952
Br163	Br	0.806557	0.363894	-0.317161
H164	H	0.611494	0.020797	-0.645329
Br165	Br	0.437718	0.398958	-0.221330
H166	H	-0.312079	0.908156	-0.102271
H167	H	0.863342	0.076974	-0.676572
H168	H	0.143453	1.051051	-0.134207
Br169	Br	0.503694	0.128717	-0.479679
H170	H	0.262578	1.364413	0.353183
Br171	Br	0.368236	0.116243	-0.381911
Br172	Br	0.056885	1.401835	0.399988
Br173	Br	0.669310	0.280394	0.222720
H174	H	0.429121	0.327145	-0.241243
H175	H	0.732564	0.258009	-0.551489
Br176	Br	0.899754	0.199629	-0.044889
H177	H	0.784170	0.390385	-0.189143
H178	H	0.288437	1.096542	0.413221
H179	H	-0.137079	0.533195	-0.221152
Br180	Br	0.473574	1.077461	-0.006255
Br181	Br	0.380541	0.238715	-0.353300
H182	H	0.407943	1.295795	0.165576
H183	H	0.626865	0.258078	-0.551441
H184	H	0.638788	0.458980	-0.001575
Br185	Br	0.635340	0.353123	0.421680
Br186	Br	0.737326	0.325448	0.058720
H187	H	0.612583	0.401916	0.169570
H188	H	0.969411	0.020735	-0.645331
H189	H	0.113680	1.114881	0.040580
Br190	Br	0.284705	1.166586	0.237473
H191	H	-0.017078	1.295923	0.165643
H192	H	0.475897	0.050962	-0.134259
Br193	Br	0.001394	1.205144	-0.138379
Br194	Br	-0.080926	1.474921	0.359396
H195	H	0.195060	1.183424	0.228133
Br196	Br	0.408027	0.840242	0.576106
Br197	Br	0.547085	0.202711	0.029938
H198	H	0.288833	0.982466	-0.321769
H199	H	0.316174	1.420615	0.321916
Br200	Br	0.502157	0.076816	-0.073748
Br201	Br	0.559385	0.325198	0.058558
Br202	Br	0.284971	1.103955	0.547764
Br203	Br	0.027857	1.241863	-0.278423
Br204	Br	0.543477	0.487981	0.022303
H205	H	0.239718	0.533256	-0.221107
Br206	Br	0.372281	0.477193	-0.238855
H207	H	0.389481	0.879999	0.524203
H208	H	0.053273	0.429891	-0.253899
Br209	Br	0.185838	0.373806	-0.271669
H210	H	-0.229643	0.533196	-0.221147
Br211	Br	-0.258189	1.067601	-0.051737
Br212	Br	-0.137948	1.067605	-0.051732
Br213	Br	-0.444652	0.964246	-0.084473
H214	H	0.064706	0.908226	-0.102207
H215	H	0.157270	0.908230	-0.102203
H216	H	0.489523	0.665637	0.141231
