data_functionalizedCrystal
_audit_creation_method	'MofGen! by Chris Wilmer'
_symmetry_space_group_name_H-M	'P1'
_symmetry_Int_Tables_number	1
_symmetry_cell_setting	triclinic
loop_
_symmetry_equiv_pos_as_xyz
  x,y,z
_cell_length_a	10.654550
_cell_length_b	9.730223
_cell_length_c	10.654550
_cell_angle_alpha	89.995747
_cell_angle_beta	95.515069
_cell_angle_gamma	90.000043
loop_
_atom_site_label
_atom_site_type_symbol
_atom_site_fract_x
_atom_site_fract_y
_atom_site_fract_z
O1	O	1.667839	0.114187	-0.176399
O2	O	2.167839	0.614187	0.323601
O3	O	1.302361	0.114212	-0.193205
O4	O	1.802361	0.614212	0.306795
O5	O	1.493503	0.114190	-0.002062
O6	O	1.993503	0.614190	0.497938
O7	O	1.476697	0.114209	-0.367541
O8	O	1.976697	0.614209	0.132459
O9	O	1.493490	-0.114390	-0.002057
O10	O	1.993490	0.385610	0.497943
O11	O	1.302348	-0.114368	-0.193199
O12	O	1.802348	0.385632	0.306801
O13	O	1.667827	-0.114393	-0.176393
O14	O	2.167827	0.385607	0.323607
Zn15	Zn	1.485085	-0.150672	-0.184796
Zn16	Zn	1.985085	0.349328	0.315204
Zn17	Zn	1.485102	0.150492	-0.184802
Zn18	Zn	1.985102	0.650492	0.315198
O19	O	1.476684	-0.114371	-0.367536
O20	O	1.976684	0.385629	0.132464
C21	C	1.255556	-0.000075	-0.191968
C22	C	1.755556	0.499925	0.308032
C23	C	1.116113	-0.000065	-0.188276
C24	C	1.616113	0.499935	0.311724
N25	N	1.485083	-0.356209	-0.184790
N26	N	1.985083	0.143791	0.315210
C27	C	1.036628	-0.000064	-0.300818
C28	C	1.536628	0.499936	0.199182
C29	C	0.905607	-0.000088	-0.297341
C30	C	1.405607	0.499912	0.202659
C31	C	0.933570	-0.000109	-0.068772
C32	C	1.433570	0.499891	0.431228
C33	C	1.064588	-0.000095	-0.072250
C34	C	1.564588	0.499905	0.427750
C35	C	1.569750	-0.428144	-0.100188
C36	C	2.069750	0.071856	0.399812
C37	C	1.569763	-0.572027	-0.100189
C38	C	2.069763	-0.072027	0.399811
C39	C	1.400438	-0.572026	-0.269404
C40	C	1.900438	-0.072026	0.230596
C41	C	1.400420	-0.428146	-0.269396
C42	C	1.900420	0.071854	0.230604
C43	C	1.714631	-0.000103	-0.177630
C44	C	2.214631	0.499897	0.322370
C45	C	1.854074	-0.000104	-0.181322
C46	C	2.354074	0.499896	0.318678
C47	C	1.492263	-0.000099	0.044738
C48	C	1.992263	0.499901	0.544738
C49	C	1.488571	-0.000096	0.184181
C50	C	1.988571	0.499904	0.684181
N51	N	1.485114	0.356028	-0.184798
N52	N	1.985114	0.856028	0.315202
C53	C	1.477925	-0.000079	-0.414336
C54	C	1.977925	0.499921	0.085664
C55	C	1.481617	-0.000072	-0.553779
C56	C	1.981617	0.499928	-0.053779
C57	C	1.601112	-0.000104	0.263667
C58	C	2.101112	0.499896	0.763667
C59	C	1.597636	-0.000087	0.394688
C60	C	2.097636	0.499913	0.894688
C61	C	1.369066	-0.000061	0.366725
C62	C	1.869066	0.499939	0.866725
C63	C	1.372544	-0.000068	0.235706
C64	C	1.872544	0.499932	0.735706
H65	H	1.078574	-0.000049	-0.395294
H66	H	1.578574	0.499951	0.104706
H67	H	1.129309	-0.000100	0.019401
H68	H	1.629309	0.499900	0.519401
H69	H	1.331468	-0.369572	-0.338290
H70	H	1.831468	0.130428	0.161710
H71	H	1.331508	-0.630612	-0.338290
H72	H	1.831508	-0.130612	0.161710
Br73	Br	1.684648	-0.330520	0.014637
Br74	Br	2.184648	0.169480	0.514637
H75	H	1.638705	-0.630593	-0.031297
H76	H	2.138705	-0.130593	0.468703
Br77	Br	0.797737	-0.000092	-0.450083
Br78	Br	1.297737	0.499908	0.049917
Br79	Br	1.758576	-0.000143	0.193744
Br80	Br	2.258576	0.499857	0.693744
Br81	Br	0.863635	-0.000145	0.088685
Br82	Br	1.363635	0.499855	0.588685
H83	H	1.689279	-0.000090	0.459401
H84	H	2.189279	0.499910	0.959401
H85	H	1.274601	-0.000041	0.408693
H86	H	1.774601	0.499959	0.908693
H87	H	1.280893	-0.000058	0.170985
H88	H	1.780893	0.499942	0.670985
