data_functionalizedCrystal
_audit_creation_method	'MofGen! by Chris Wilmer'
_symmetry_space_group_name_H-M	'P1'
_symmetry_Int_Tables_number	1
_symmetry_cell_setting	triclinic
loop_
_symmetry_equiv_pos_as_xyz
  x,y,z
_cell_length_a	10.540510
_cell_length_b	10.540539
_cell_length_c	9.616153
_cell_angle_alpha	89.999906
_cell_angle_beta	89.992871
_cell_angle_gamma	84.519401
loop_
_atom_site_label
_atom_site_type_symbol
_atom_site_fract_x
_atom_site_fract_y
_atom_site_fract_z
O1	O	1.685914	0.178715	-0.115647
O2	O	1.316496	0.195611	-0.115647
O3	O	1.509633	0.002456	-0.115646
O4	O	1.492777	0.371870	-0.115649
O5	O	1.509607	0.002460	0.115646
O6	O	1.316470	0.195615	0.115644
O7	O	1.685887	0.178719	0.115644
Zn8	Zn	1.501174	0.187168	0.152367
Zn9	Zn	1.501209	0.187162	-0.152370
O10	O	1.492750	0.371874	0.115642
C11	C	1.508356	-0.044845	-0.000002
C12	C	1.504574	-0.185793	-0.000010
C13	C	1.269179	0.194354	-0.000002
C14	C	1.128229	0.190587	-0.000002
C15	C	1.359655	-0.369204	-0.000529
C16	C	1.363489	-0.222587	-0.000008
C17	C	1.572455	-0.247456	0.132069
C18	C	1.567640	-0.394000	0.132180
C19	C	1.570540	-0.394523	-0.130841
C20	C	1.571840	-0.247541	-0.132588
C21	C	0.910774	0.324771	-0.000535
C22	C	1.057370	0.328789	-0.000005
C23	C	1.083454	0.119843	0.132074
C24	C	0.936693	0.116804	0.132176
C25	C	0.936918	0.113921	-0.130845
C26	C	1.083259	0.120476	-0.132583
C27	C	1.733204	0.179976	-0.000004
C28	C	1.874154	0.183743	-0.000013
C29	C	1.494028	0.419175	-0.000004
C30	C	1.497810	0.560123	-0.000006
N31	N	1.501160	0.187171	0.360341
N32	N	1.501234	0.187149	-0.360344
C33	C	1.397529	0.290149	0.580710
C34	C	1.397757	0.290535	0.419543
C35	C	1.633885	0.217290	0.418790
C36	C	1.633320	0.218019	0.580008
C37	C	1.473387	0.053735	0.580254
C38	C	1.470341	0.054600	0.419027
H39	H	1.310075	-0.179979	-0.094688
F40	F	1.268838	0.266914	0.367890
H41	H	1.517450	-0.422192	0.230912
H42	H	1.378649	0.025066	0.620991
F43	F	1.707880	-0.218254	0.138493
F44	F	1.510794	-0.191770	0.260542
F45	F	1.700260	-0.456716	0.140027
F46	F	1.665153	0.345242	0.629142
H47	H	1.524889	-0.426072	-0.230949
H48	H	1.540868	-0.025728	0.378733
F49	F	1.507429	-0.193537	-0.260319
F50	F	0.907968	-0.021705	-0.132009
F51	F	1.145383	-0.013146	0.138494
F52	F	1.120724	0.187722	-0.260300
H53	H	1.298602	0.272307	0.619521
H54	H	1.085762	0.384473	0.094830
F55	F	1.420632	0.418799	0.633619
F56	F	0.881343	0.170905	-0.261694
H57	H	1.674702	-0.223331	-0.140563
H58	H	1.303934	-0.397800	-0.095245
F59	F	1.703736	-0.456265	-0.132006
F60	F	1.147387	-0.011410	-0.143005
F61	F	1.421111	0.419923	0.369108
F62	F	0.884109	0.180004	0.261218
F63	F	1.095744	0.401134	-0.123756
H64	H	1.712964	0.146021	0.618997
H65	H	1.712941	0.144318	0.380439
H66	H	1.658783	0.313525	0.378399
F67	F	1.286901	-0.409106	0.122240
H68	H	1.372701	0.031770	0.380827
H69	H	1.309679	-0.180823	0.094829
F70	F	1.572217	-0.046470	0.630075
H71	H	0.867256	0.378304	0.093647
F72	F	0.906631	-0.018298	0.140082
F73	F	1.123765	0.184062	0.260550
F74	F	0.855953	0.395149	-0.124341
