data_functionalizedCrystal
_audit_creation_method	'MofGen! by Chris Wilmer'
_symmetry_space_group_name_H-M	'P1'
_symmetry_Int_Tables_number	1
_symmetry_cell_setting	triclinic
loop_
_symmetry_equiv_pos_as_xyz
  x,y,z
_cell_length_a	25.639239
_cell_length_b	17.077404
_cell_length_c	17.077396
_cell_angle_alpha	90.019699
_cell_angle_beta	89.968926
_cell_angle_gamma	89.964245
loop_
_atom_site_label
_atom_site_type_symbol
_atom_site_fract_x
_atom_site_fract_y
_atom_site_fract_z
Zn1	Zn	-0.208192	-1.199968	-0.443833
Zn2	Zn	-0.295629	-1.199839	-0.312561
Zn3	Zn	-0.208205	-1.068700	-0.312580
Zn4	Zn	-0.295593	-1.068632	-0.443784
O5	O	-0.251905	-1.134285	-0.378189
O6	O	-0.219800	-1.309798	-0.426431
O7	O	-0.284053	-1.182418	-0.202716
O8	O	-0.135038	-1.086196	-0.330020
O9	O	-0.284040	-1.309703	-0.329986
O10	O	-0.135028	-1.182638	-0.426450
O11	O	-0.219823	-1.086071	-0.202731
O12	O	-0.219788	-0.958844	-0.329972
O13	O	-0.283979	-1.086080	-0.553637
O14	O	-0.283992	-0.958794	-0.426367
O15	O	-0.219765	-1.182572	-0.553673
O16	O	-0.368790	-1.182352	-0.329939
O17	O	-0.368763	-1.085954	-0.426348
C18	C	-0.251888	-0.930337	-0.378167
C19	C	-0.251893	-0.843087	-0.378176
C20	C	-0.218503	-0.802147	-0.428471
C21	C	-0.218505	-0.720167	-0.428472
C22	C	-0.251901	-0.679128	-0.378183
C23	C	-0.285294	-0.720074	-0.327883
C24	C	-0.285288	-0.802053	-0.327878
C25	C	-0.285304	-0.549204	-0.327898
C26	C	-0.285310	-0.467219	-0.327904
C27	C	-0.218521	-0.467318	-0.428493
C28	C	-0.218515	-0.549297	-0.428488
C29	C	-0.251908	-0.590237	-0.378189
C30	C	-0.387748	-1.134153	-0.378153
C31	C	-0.445862	-1.134168	-0.378164
C32	C	-0.806226	-1.184610	-0.328075
C33	C	-0.860830	-1.184641	-0.328085
O34	O	-0.889068	-1.227391	-0.285458
N35	N	-0.888144	-1.134423	-0.378241
C36	C	-0.860851	-1.084177	-0.428396
O37	O	-0.889097	-1.041467	-0.471059
C38	C	-0.806247	-1.084151	-0.428389
C39	C	-0.778936	-1.134367	-0.378224
C40	C	-0.778915	-1.234822	-0.277914
C41	C	-0.724314	-1.234790	-0.277903
C42	C	-0.697025	-1.184547	-0.328052
C43	C	-0.724336	-1.134335	-0.378212
C44	C	-0.778955	-1.033910	-0.478547
C45	C	-0.724348	-1.033889	-0.478536
C46	C	-0.697037	-1.084104	-0.428371
C47	C	-0.642446	-1.084060	-0.428350
N48	N	-0.615132	-1.134277	-0.378194
C49	C	-0.642421	-1.184521	-0.328045
C50	C	-0.975521	-1.084236	-0.428408
C51	C	-1.030124	-1.084258	-0.428412
C52	C	-1.030099	-1.184722	-0.328102
C53	C	-0.975496	-1.184696	-0.328095
C54	C	-0.948207	-1.134454	-0.378252
C55	C	-0.527756	-1.184450	-0.328024
C56	C	-0.473151	-1.184412	-0.328015
C57	C	-0.473180	-1.083951	-0.428328
C58	C	-0.527781	-1.083986	-0.428334
C59	C	-0.555067	-1.134242	-0.378180
O60	O	-0.614174	-1.041333	-0.470958
O61	O	-0.614168	-1.227232	-0.285396
C62	C	-0.115532	-1.134439	-0.378243
C63	C	-0.057418	-1.134504	-0.378265
C64	C	-0.251866	-1.134332	-0.582934
C65	C	-0.251850	-1.134353	-0.670184
C66	C	-0.251920	-0.339029	-0.378206
C67	C	-0.251919	-0.426279	-0.378199
C68	C	-0.218411	-1.184598	-0.711194
C69	C	-0.218394	-1.184608	-0.793174
C70	C	-0.251818	-1.134375	-0.834143
C71	C	-0.285259	-1.084124	-0.793127
C72	C	-0.285273	-1.084111	-0.711148
C73	C	-0.285227	-1.084156	-0.963997
C74	C	-0.285214	-1.084169	-1.045982
C75	C	-0.218348	-1.184652	-1.046023
C76	C	-0.218362	-1.184639	-0.964044
C77	C	-0.251803	-1.134389	-0.923034
C78	C	-0.251906	-1.134283	-0.174241
C79	C	-0.251775	-1.134415	-0.086992
H80	H	-0.312478	-0.835385	-0.286922
H81	H	-0.191316	-0.686837	-0.469429
N82	N	-0.321313	-1.029950	-0.837313
H83	H	-0.342498	-0.998117	-0.798892
H84	H	-0.300023	-0.993653	-0.871332
N85	N	-0.321334	-1.029911	-0.666912
H86	H	-0.342506	-0.998090	-0.705303
H87	H	-0.345540	-1.061824	-0.632889
H88	H	-0.191309	-0.835555	-0.469424
N89	N	-0.182500	-0.593563	-0.482733
H90	H	-0.161346	-0.555190	-0.514598
H91	H	-0.158276	-0.627584	-0.450844
H92	H	-0.801128	-1.275740	-0.237077
H93	H	-1.052356	-1.043360	-0.469254
H94	H	-0.191330	-0.433980	-0.469447
N95	N	-0.557238	-1.029820	-0.482435
H96	H	-0.579854	-1.061713	-0.518849
H97	H	-0.579904	-0.993485	-0.450452
H98	H	-0.953306	-1.043317	-0.469250
H99	H	-0.953262	-1.225586	-0.287247
H100	H	-0.702133	-0.992977	-0.519382
N101	N	-0.443694	-1.238576	-0.273909
H102	H	-0.469271	-1.270412	-0.242146
H103	H	-0.421001	-1.274871	-0.305893
H104	H	-0.549967	-1.225375	-0.287186
H105	H	-0.191166	-1.225524	-0.826561
H106	H	-0.312483	-0.686653	-0.286932
H107	H	-0.312505	-0.433807	-0.286954
H108	H	-0.702080	-1.275682	-0.237057
N109	N	-0.321321	-0.593364	-0.273651
H110	H	-0.300040	-0.627378	-0.237329
H111	H	-0.342473	-0.554880	-0.241847
N112	N	-1.059538	-1.238915	-0.274010
H113	H	-1.098272	-1.231309	-0.281632
H114	H	-1.049954	-1.294966	-0.286278
N115	N	-0.808403	-0.979745	-0.532650
H116	H	-0.782822	-0.947919	-0.564415
H117	H	-0.831022	-1.011685	-0.569013
H118	H	-0.191195	-1.225506	-0.677843
H119	H	-0.450953	-1.043040	-0.469156
N120	N	-0.321252	-1.029990	-1.090190
H121	H	-0.358617	-1.042119	-1.075923
H122	H	-0.313079	-0.973931	-1.075910
N123	N	-0.182317	-1.238823	-0.919853
H124	H	-0.161129	-1.270657	-0.958271
H125	H	-0.158125	-1.206892	-0.885843
N126	N	-0.182273	-1.238852	-1.090239
H127	H	-0.203515	-1.275211	-1.124254
H128	H	-0.158037	-1.206932	-1.124207
N129	N	-0.321292	-1.029955	-0.919762
H130	H	-0.342466	-0.998136	-0.958154
H131	H	-0.345497	-1.061876	-0.885744
