data_functionalizedCrystal
_audit_creation_method	'MofGen! by Chris Wilmer'
_symmetry_space_group_name_H-M	'P1'
_symmetry_Int_Tables_number	1
_symmetry_cell_setting	triclinic
loop_
_symmetry_equiv_pos_as_xyz
  x,y,z
_cell_length_a	15.995292
_cell_length_b	15.995292
_cell_length_c	10.868271
_cell_angle_alpha	89.998057
_cell_angle_beta	89.994509
_cell_angle_gamma	83.468616
loop_
_atom_site_label
_atom_site_type_symbol
_atom_site_fract_x
_atom_site_fract_y
_atom_site_fract_z
O1	O	1.110993	0.107698	-0.102347
O2	O	0.867208	0.121077	-0.102341
O3	O	0.995790	-0.007505	-0.102346
O4	O	0.982411	0.236280	-0.102342
O5	O	0.995780	-0.007510	0.102299
O6	O	0.867198	0.121072	0.102304
O7	O	1.110983	0.107693	0.102298
Zn8	Zn	0.989089	0.114382	0.134793
Zn9	Zn	0.989102	0.114388	-0.134836
O10	O	0.982401	0.236275	0.102303
C11	C	0.836008	0.120530	-0.000018
C12	C	0.743055	0.118898	-0.000016
C13	C	0.405318	0.112896	-0.000030
C14	C	0.428611	0.205703	-0.000485
C15	C	0.525286	0.207467	-0.000019
C16	C	0.572873	0.115874	-0.000024
C17	C	0.543775	0.069472	0.116834
C18	C	0.446985	0.068355	0.116926
C19	C	0.447142	0.066465	-0.115793
C20	C	0.543634	0.069905	-0.117332
C21	C	0.667569	0.117552	-0.000016
C22	C	0.310622	0.111215	-0.000029
C23	C	0.995240	-0.038703	-0.000027
C24	C	0.993608	-0.131655	-0.000036
C25	C	0.987607	-0.469393	-0.000024
C26	C	1.080413	-0.446100	0.000431
C27	C	1.082177	-0.349424	-0.000035
C28	C	0.990584	-0.301837	-0.000029
C29	C	0.944191	-0.330926	-0.116886
C30	C	0.943074	-0.427716	-0.116980
C31	C	0.941167	-0.427578	0.115739
C32	C	0.944606	-0.331087	0.117279
C33	C	0.992263	-0.207141	-0.000036
C34	C	0.985926	-0.564088	-0.000026
C35	C	1.142183	0.108240	-0.000028
C36	C	1.235136	0.109873	-0.000038
C37	C	0.982951	0.267473	-0.000019
C38	C	0.984583	0.360426	-0.000018
N39	N	0.989085	0.114377	0.318807
N40	N	0.989112	0.114387	-0.318850
C41	C	0.989098	0.114387	0.569813
C42	C	0.989088	0.114384	0.430135
H43	H	0.399580	0.241274	0.082849
H44	H	1.118734	-0.331025	-0.083951
Cl45	Cl	1.135347	-0.490906	-0.128231
H46	H	0.400612	0.241477	-0.084289
H47	H	0.420156	0.100487	0.204283
Cl48	Cl	1.135642	-0.489339	0.129818
Cl49	Cl	0.838020	-0.450163	-0.125172
H50	H	0.975213	-0.454537	-0.204337
H51	H	0.876791	-0.299044	-0.121227
Cl52	Cl	0.993945	-0.299968	-0.251163
H53	H	0.562201	0.103690	-0.203783
H54	H	0.544309	0.243802	-0.083790
Cl55	Cl	0.594551	-0.033317	-0.128233
Cl56	Cl	0.425565	-0.039004	-0.117016
H57	H	0.970389	-0.455675	0.204317
H58	H	0.575657	0.002072	0.121175
Cl59	Cl	0.574723	0.119215	0.251110
H60	H	0.872854	-0.441555	0.116531
Cl61	Cl	1.138254	-0.320059	0.129312
H62	H	0.543677	0.244022	0.083893
H63	H	0.418813	0.095476	-0.204365
Cl64	Cl	0.996753	-0.302429	0.250756
Cl65	Cl	0.424537	-0.036698	0.125189
H66	H	0.877752	-0.298103	0.124341
