data_functionalizedCrystal
_audit_creation_method	'MofGen! by Chris Wilmer'
_symmetry_space_group_name_H-M	'P1'
_symmetry_Int_Tables_number	1
_symmetry_cell_setting	triclinic
loop_
_symmetry_equiv_pos_as_xyz
  x,y,z
_cell_length_a	16.625546
_cell_length_b	13.033652
_cell_length_c	13.032268
_cell_angle_alpha	76.703346
_cell_angle_beta	97.144614
_cell_angle_gamma	82.784335
loop_
_atom_site_label
_atom_site_type_symbol
_atom_site_fract_x
_atom_site_fract_y
_atom_site_fract_z
Zn1	Zn	-0.207827	-1.547417	-0.394618
Zn2	Zn	0.292173	-1.047417	0.105382
Zn3	Zn	-0.323074	-1.569859	-0.217025
Zn4	Zn	0.176926	-1.069859	0.282975
Zn5	Zn	-0.207880	-1.392371	-0.239555
Zn6	Zn	0.292120	-0.892371	0.260445
Zn7	Zn	-0.362251	-1.369773	-0.417082
Zn8	Zn	0.137749	-0.869773	0.082918
O9	O	-0.275258	-1.469855	-0.317070
O10	O	0.224742	-0.969855	0.182930
O11	O	-0.206697	-1.699019	-0.352230
O12	O	0.293303	-1.199019	0.147770
O13	O	-0.291421	-1.565164	-0.071395
O14	O	0.208579	-1.065164	0.428605
O15	O	-0.095037	-1.413003	-0.260152
O16	O	0.404963	-0.913003	0.239848
O17	O	-0.291369	-1.715507	-0.221753
O18	O	0.208631	-1.215507	0.278247
O19	O	-0.094998	-1.526915	-0.374076
O20	O	0.405002	-1.026915	0.125924
O21	O	-0.206788	-1.434764	-0.087947
O22	O	0.293212	-0.934764	0.412053
O23	O	-0.244775	-1.240749	-0.281934
O24	O	0.255225	-0.740749	0.218066
O25	O	-0.358139	-1.374489	-0.562721
O26	O	0.141861	-0.874489	-0.062721
O27	O	-0.358191	-1.224147	-0.412363
O28	O	0.141809	-0.724147	0.087637
O29	O	-0.244684	-1.505004	-0.546217
O30	O	0.255316	-1.005004	-0.046217
O31	O	-0.441107	-1.543252	-0.243535
O32	O	0.058893	-1.043252	0.256465
O33	O	-0.469890	-1.396250	-0.390517
O34	O	0.030110	-0.896250	0.109483
C35	C	-0.305741	-1.193911	-0.352032
C36	C	0.194259	-0.693911	0.147968
C37	C	-0.318803	-1.075858	-0.367013
C38	C	0.181197	-0.575858	0.132987
C39	C	-0.268450	-1.031399	-0.309263
C40	C	0.231550	-0.531399	0.190737
C41	C	-0.281950	-0.909385	-0.324746
C42	C	0.218050	-0.409385	0.175254
C43	C	-0.484755	-1.469760	-0.317038
C44	C	0.015245	-0.969760	0.182962
C45	C	-0.574372	-1.469812	-0.317048
C46	C	-0.074372	-0.969812	0.182952
C47	C	-0.902539	-1.469984	-0.317135
C48	C	-0.402539	-0.969984	0.182865
C49	C	-0.811234	-1.469932	-0.317114
C50	C	-0.311234	-0.969932	0.182886
C51	C	-0.738459	-1.469897	-0.317091
C52	C	-0.238459	-0.969897	0.182909
C53	C	-0.647147	-1.469847	-0.317071
C54	C	-0.147147	-0.969847	0.182929
C55	C	-0.064942	-1.469976	-0.317122
C56	C	0.435058	-0.969976	0.182878
C57	C	0.024682	-1.470028	-0.317143
C58	C	0.524682	-0.970028	0.182857
C59	C	-0.305776	-1.434723	-0.594082
C60	C	0.194224	-0.934723	-0.094082
C61	C	-0.318781	-1.419751	-0.712128
C62	C	0.181219	-0.919751	-0.212128
C63	C	-0.244650	-0.746878	-0.281966
C64	C	0.255350	-0.246878	0.218034
C65	C	-0.231589	-0.864931	-0.266988
C66	C	0.268411	-0.364931	0.233012
C67	C	-0.268444	-1.477652	-0.756591
C68	C	0.231556	-0.977652	-0.256591
C69	C	-0.281883	-1.462180	-0.878597
C70	C	0.218117	-0.962180	-0.378597
C71	C	-0.244794	-1.504912	-0.041128
C72	C	0.255206	-1.004912	0.458872
C73	C	-0.231539	-1.520089	0.076944
C74	C	0.268461	-1.020089	0.576944
H75	H	-0.178483	-0.917194	-0.206075
H76	H	0.321517	-0.417194	0.293925
H77	H	-0.178486	-1.581114	-0.870803
H78	H	0.321514	-1.081114	-0.370803
H79	H	-0.215349	-1.083668	-0.248354
H80	H	0.284651	-0.583668	0.251646
H81	H	-0.335059	-0.857121	-0.385652
H82	H	0.164941	-0.357121	0.114348
O83	O	-0.382060	-1.013448	-0.439795
O84	O	0.117940	-0.513448	0.060205
C85	C	-0.350848	-0.940585	-0.516561
C86	C	0.149152	-0.440585	-0.016561
H87	H	-0.284408	-0.973251	-0.519047
H88	H	0.215592	-0.473251	-0.019047
H89	H	-0.389252	-0.928864	-0.598397
H90	H	0.110748	-0.428864	-0.098397
H91	H	-0.353647	-0.860722	-0.494315
H92	H	0.146353	-0.360722	0.005685
H93	H	-0.215396	-1.538674	-0.704333
H94	H	0.284604	-1.038674	-0.204333
O95	O	-0.345267	-1.389437	-0.940803
O96	O	0.154733	-0.889437	-0.440803
C97	C	-0.420111	-1.416024	-0.910836
C98	C	0.079889	-0.916024	-0.410836
H99	H	-0.408459	-1.466997	-0.825106
H100	H	0.091541	-0.966997	-0.325106
H101	H	-0.464333	-1.339817	-0.916855
H102	H	0.035667	-0.839817	-0.416855
H103	H	-0.448063	-1.462754	-0.966312
H104	H	0.051937	-0.962754	-0.466312
H105	H	-0.371821	-1.358718	-0.764388
H106	H	0.128179	-0.858718	-0.264388
