data_functionalizedCrystal
_audit_creation_method	'MofGen! by Chris Wilmer'
_symmetry_space_group_name_H-M	'P1'
_symmetry_Int_Tables_number	1
_symmetry_cell_setting	triclinic
loop_
_symmetry_equiv_pos_as_xyz
  x,y,z
_cell_length_a	21.395362
_cell_length_b	14.908178
_cell_length_c	21.395355
_cell_angle_alpha	93.314561
_cell_angle_beta	90.043940
_cell_angle_gamma	93.328618
loop_
_atom_site_label
_atom_site_type_symbol
_atom_site_fract_x
_atom_site_fract_y
_atom_site_fract_z
Zn1	Zn	0.943530	-0.358911	0.340196
Zn2	Zn	1.193530	-0.108911	0.590196
Zn3	Zn	1.443530	0.141089	0.840196
Zn4	Zn	1.693530	0.391089	1.090196
Zn5	Zn	0.937410	-0.509764	0.229370
Zn6	Zn	1.187410	-0.259764	0.479370
Zn7	Zn	1.437410	-0.009764	0.729370
Zn8	Zn	1.687410	0.240236	0.979370
Zn9	Zn	0.838744	-0.358953	0.235395
Zn10	Zn	1.088744	-0.108953	0.485395
Zn11	Zn	1.338744	0.141047	0.735395
Zn12	Zn	1.588744	0.391047	0.985395
Zn13	Zn	0.832691	-0.509782	0.334074
Zn14	Zn	1.082691	-0.259782	0.584074
Zn15	Zn	1.332691	-0.009782	0.834074
Zn16	Zn	1.582691	0.240218	1.084074
O17	O	0.888094	-0.434352	0.284759
O18	O	1.138094	-0.184352	0.534759
O19	O	1.388094	0.065648	0.784759
O20	O	1.638094	0.315648	1.034759
O21	O	1.030397	-0.378896	0.325535
O22	O	1.280397	-0.128896	0.575535
O23	O	1.530397	0.121104	0.825535
O24	O	1.780397	0.371104	1.075535
O25	O	0.924294	-0.489768	0.142491
O26	O	1.174294	-0.239768	0.392491
O27	O	1.424294	0.010232	0.642491
O28	O	1.674294	0.260232	0.892491
O29	O	0.857738	-0.232692	0.254381
O30	O	1.107738	0.017308	0.504381
O31	O	1.357738	0.267308	0.754381
O32	O	1.607738	0.517308	1.004381
O33	O	1.025901	-0.489727	0.244112
O34	O	1.275901	-0.239727	0.494112
O35	O	1.525901	0.010273	0.744112
O36	O	1.775901	0.260273	0.994112
O37	O	0.934725	-0.232661	0.331377
O38	O	1.184725	0.017339	0.581377
O39	O	1.434725	0.267339	0.831377
O40	O	1.684725	0.517339	1.081377
O41	O	0.851804	-0.378968	0.146918
O42	O	1.101804	-0.128968	0.396918
O43	O	1.351804	0.121032	0.646918
O44	O	1.601804	0.371032	0.896918
O45	O	0.750262	-0.378986	0.248445
O46	O	1.000262	-0.128986	0.498445
O47	O	1.250262	0.121014	0.748445
O48	O	1.500262	0.371014	0.998445
O49	O	0.847422	-0.489759	0.422564
O50	O	1.097422	-0.239759	0.672564
O51	O	1.347422	0.010241	0.922564
O52	O	1.597422	0.260241	1.172564
O53	O	0.745815	-0.489800	0.320944
O54	O	0.995815	-0.239800	0.570944
O55	O	1.245815	0.010200	0.820944
O56	O	1.495815	0.260200	1.070944
O57	O	0.928856	-0.378914	0.427062
O58	O	1.178856	-0.128914	0.677062
O59	O	1.428856	0.121086	0.927062
O60	O	1.678856	0.371086	1.177062
O61	O	0.918425	-0.636021	0.238176
O62	O	1.168425	-0.386021	0.488176
O63	O	1.418425	-0.136021	0.738176
O64	O	1.668425	0.113979	0.988176
O65	O	0.841488	-0.636035	0.315101
O66	O	1.091488	-0.386035	0.565101
O67	O	1.341488	-0.136035	0.815101
O68	O	1.591488	0.113965	1.065101
C69	C	0.725304	-0.434400	0.284684
C70	C	0.975304	-0.184400	0.534684
C71	C	1.225304	0.065600	0.784684
C72	C	1.475304	0.315600	1.034684
C73	C	0.655661	-0.434442	0.284666
C74	C	0.905661	-0.184442	0.534666
C75	C	1.155661	0.065558	0.784666
C76	C	1.405661	0.315558	1.034666
C77	C	0.878652	-0.668765	0.275334
C78	C	1.128652	-0.418765	0.525334
C79	C	1.378652	-0.168765	0.775334
C80	C	1.628652	0.081235	1.025334
C81	C	0.874671	-0.769047	0.271323
C82	C	1.124671	-0.519047	0.521323
C83	C	1.374671	-0.269047	0.771323
C84	C	1.624671	-0.019047	1.021323
C85	C	0.620646	-0.492219	0.322353
C86	C	0.870646	-0.242219	0.572353
C87	C	1.120646	0.007781	0.822353
C88	C	1.370646	0.257781	1.072353
C89	C	0.555212	-0.492197	0.322382
C90	C	0.805212	-0.242197	0.572382
C91	C	1.055212	0.007803	0.822382
C92	C	1.305212	0.257803	1.072382
C93	C	0.524794	-0.434407	0.284712
C94	C	0.774794	-0.184407	0.534712
C95	C	1.024794	0.065593	0.784712
C96	C	1.274794	0.315593	1.034712
C97	C	0.559818	-0.376619	0.247023
C98	C	0.809818	-0.126619	0.497023
C99	C	1.059818	0.123381	0.747023
C100	C	1.309818	0.373381	0.997023
C101	C	0.625251	-0.376636	0.247000
C102	C	0.875251	-0.126636	0.497000
C103	C	1.125251	0.123364	0.747000
C104	C	1.375251	0.373364	0.997000
C105	C	0.421360	-0.427139	0.228598
C106	C	0.671360	-0.177139	0.478598
C107	C	0.921360	0.072861	0.728598
C108	C	1.171360	0.322861	0.978598
C109	C	0.355927	-0.427128	0.228620
C110	C	0.605927	-0.177128	0.478620
C111	C	0.855927	0.072872	0.728620
C112	C	1.105927	0.322872	0.978620
C113	C	0.322976	-0.434348	0.284784
C114	C	0.572976	-0.184348	0.534784
C115	C	0.822976	0.065652	0.784784
C116	C	1.072976	0.315652	1.034784
C117	C	0.355465	-0.441599	0.340927
C118	C	0.605465	-0.191599	0.590927
C119	C	0.855465	0.058401	0.840927
C120	C	1.105465	0.308401	1.090927
C121	C	0.420898	-0.441616	0.340904
C122	C	0.670898	-0.191616	0.590904
C123	C	0.920898	0.058384	0.840904
C124	C	1.170898	0.308384	1.090904
C125	C	0.453843	-0.434382	0.284733
C126	C	0.703843	-0.184382	0.534733
C127	C	0.953843	0.065618	0.784733
C128	C	1.203843	0.315618	1.034733
C129	C	0.217009	-0.492105	0.322505
C130	C	0.467009	-0.242105	0.572505
C131	C	0.717009	0.007895	0.822505
C132	C	0.967009	0.257895	1.072505
C133	C	0.151574	-0.492076	0.322535
C134	C	0.401574	-0.242076	0.572535
C135	C	0.651574	0.007924	0.822535
C136	C	0.901574	0.257924	1.072535
C137	C	0.156181	-0.376503	0.247170
C138	C	0.406181	-0.126503	0.497170
C139	C	0.656181	0.123497	0.747170
C140	C	0.906181	0.373497	0.997170
C141	C	0.221616	-0.376527	0.247146
C142	C	0.471616	-0.126527	0.497146
C143	C	0.721616	0.123473	0.747146
C144	C	0.971616	0.373473	0.997146
C145	C	0.252025	-0.434332	0.284812
C146	C	0.502025	-0.184332	0.534812
C147	C	0.752025	0.065668	0.784812
C148	C	1.002025	0.315668	1.034812
C149	C	0.947294	-0.957307	0.344048
C150	C	1.197294	-0.707307	0.594048
C151	C	1.447294	-0.457307	0.844048
C152	C	1.697294	-0.207307	1.094048
C153	C	0.943555	-1.051531	0.340282
C154	C	1.193555	-0.801531	0.590282
C155	C	1.443555	-0.551531	0.840282
C156	C	1.693555	-0.301531	1.090282
C157	C	0.863451	-1.051722	0.260027
C158	C	1.113451	-0.801722	0.510027
C159	C	1.363451	-0.551722	0.760027
C160	C	1.613451	-0.301722	1.010027
C161	C	0.867190	-0.957498	0.263793
C162	C	1.117190	-0.707498	0.513793
C163	C	1.367190	-0.457498	0.763793
C164	C	1.617190	-0.207498	1.013793
C165	C	0.909113	-0.910293	0.305805
C166	C	1.159113	-0.660293	0.555805
C167	C	1.409113	-0.410293	0.805805
C168	C	1.659113	-0.160293	1.055805
C169	C	0.912855	-0.816067	0.309568
C170	C	1.162855	-0.566067	0.559568
C171	C	1.412855	-0.316067	0.809568
C172	C	1.662855	-0.066067	1.059568
C173	C	0.832749	-0.816260	0.229317
C174	C	1.082749	-0.566260	0.479317
C175	C	1.332749	-0.316260	0.729317
C176	C	1.582749	-0.066260	0.979317
C177	C	0.829010	-0.910484	0.225550
C178	C	1.079010	-0.660484	0.475550
C179	C	1.329010	-0.410484	0.725550
C180	C	1.579010	-0.160484	0.975550
C181	C	1.051519	-0.434305	0.284834
C182	C	1.301519	-0.184305	0.534834
C183	C	1.551519	0.065695	0.784834
C184	C	1.801519	0.315695	1.034834
C185	C	1.121161	-0.434285	0.284866
C186	C	1.371161	-0.184285	0.534866
C187	C	1.621161	0.065715	0.784866
C188	C	1.871161	0.315715	1.034866
C189	C	0.888147	-0.434334	0.448183
C190	C	1.138147	-0.184334	0.698183
C191	C	1.388147	0.065666	0.948183
C192	C	1.638147	0.315666	1.198183
C193	C	0.888169	-0.434326	0.517824
C194	C	1.138169	-0.184326	0.767824
C195	C	1.388169	0.065674	1.017824
C196	C	1.638169	0.315674	1.267824
C197	C	0.897589	-0.199025	0.294234
C198	C	1.147589	0.050975	0.544234
C199	C	1.397589	0.300975	0.794234
C200	C	1.647589	0.550975	1.044234
C201	C	0.901635	-0.098742	0.298272
C202	C	1.151635	0.151258	0.548272
C203	C	1.401635	0.401258	0.798272
C204	C	1.651635	0.651258	1.048272
C205	C	0.888080	-0.434305	0.121973
C206	C	1.138080	-0.184305	0.371973
C207	C	1.388080	0.065695	0.621973
C208	C	1.638080	0.315695	0.871973
C209	C	0.888189	-0.434059	0.052342
C210	C	1.138189	-0.184059	0.302342
C211	C	1.388189	0.065941	0.552342
C212	C	1.638189	0.315941	0.802342
C213	C	0.930570	-0.376607	0.552881
C214	C	1.180570	-0.126607	0.802881
C215	C	1.430570	0.123393	1.052881
C216	C	1.680570	0.373393	1.302881
C217	C	0.930570	-0.376568	0.618318
C218	C	1.180570	-0.126568	0.868318
C219	C	1.430570	0.123432	1.118318
C220	C	1.680570	0.373432	1.368318
C221	C	0.888176	-0.434265	0.648695
C222	C	1.138176	-0.184265	0.898695
C223	C	1.388176	0.065735	1.148695
C224	C	1.638176	0.315735	1.398695
C225	C	0.845768	-0.491988	0.613631
C226	C	1.095768	-0.241988	0.863631
C227	C	1.345768	0.008012	1.113631
C228	C	1.595768	0.258012	1.363631
C229	C	0.845764	-0.492019	0.548196
C230	C	1.095764	-0.242019	0.798196
C231	C	1.345764	0.007981	1.048196
C232	C	1.595764	0.257981	1.298196
C233	C	0.879957	-0.515504	0.749102
C234	C	1.129957	-0.265504	0.999102
C235	C	1.379957	-0.015504	1.249102
C236	C	1.629957	0.234496	1.499102
C237	C	0.879965	-0.515475	0.814536
C238	C	1.129965	-0.265475	1.064536
C239	C	1.379965	-0.015475	1.314536
C240	C	1.629965	0.234525	1.564536
C241	C	0.888184	-0.434169	0.850520
C242	C	1.138184	-0.184169	1.100520
C243	C	1.388184	0.065831	1.350520
C244	C	1.638184	0.315831	1.600520
C245	C	0.896408	-0.352891	0.821062
C246	C	1.146408	-0.102891	1.071062
C247	C	1.396408	0.147109	1.321062
C248	C	1.646408	0.397109	1.571062
C249	C	0.896405	-0.352921	0.755626
C250	C	1.146405	-0.102921	1.005626
C251	C	1.396405	0.147079	1.255626
C252	C	1.646405	0.397079	1.505626
C253	C	0.888175	-0.434237	0.719649
C254	C	1.138175	-0.184237	0.969649
C255	C	1.388175	0.065763	1.219649
C256	C	1.638175	0.315763	1.469649
C257	C	0.930588	-0.376403	0.956531
C258	C	1.180588	-0.126403	1.206531
C259	C	1.430588	0.123597	1.456531
C260	C	1.680588	0.373597	1.706531
C261	C	0.930584	-0.376363	1.021969
C262	C	1.180584	-0.126363	1.271969
C263	C	1.430584	0.123637	1.521969
C264	C	1.680584	0.373637	1.771969
C265	C	0.845785	-0.491791	1.017281
C266	C	1.095785	-0.241791	1.267281
C267	C	1.345785	0.008209	1.517281
C268	C	1.595785	0.258209	1.767281
C269	C	0.845785	-0.491823	0.951844
C270	C	1.095785	-0.241823	1.201844
C271	C	1.345785	0.008177	1.451844
C272	C	1.595785	0.258177	1.701844
C273	C	0.888190	-0.434130	0.921473
C274	C	1.138190	-0.184130	1.171473
C275	C	1.388190	0.065870	1.421473
C276	C	1.638190	0.315870	1.671473
H277	H	0.645402	-0.539288	0.353025
H278	H	0.895402	-0.289288	0.603025
H279	H	1.145402	-0.039288	0.853025
H280	H	1.395402	0.210712	1.103025
F281	F	0.800647	-0.553390	0.645962
F282	F	1.050647	-0.303390	0.895962
F283	F	1.300647	-0.053390	1.145962
F284	F	1.550647	0.196610	1.395962
H285	H	0.829316	-1.090172	0.225826
H286	H	1.079316	-0.840172	0.475826
H287	H	1.329316	-0.590172	0.725826
H288	H	1.579316	-0.340172	0.975826
F289	F	0.975716	-0.314999	0.924205
F290	F	1.225716	-0.064999	1.174205
F291	F	1.475716	0.185001	1.424205
F292	F	1.725716	0.435001	1.674205
H293	H	0.794875	-0.948931	0.191347
H294	H	1.044875	-0.698931	0.441347
H295	H	1.294875	-0.448931	0.691347
H296	H	1.544875	-0.198931	0.941347
H297	H	0.903102	-0.286684	0.850359
H298	H	1.153102	-0.036684	1.100359
H299	H	1.403102	0.213316	1.350359
H300	H	1.653102	0.463316	1.600359
H301	H	0.250125	-0.329483	0.216454
H302	H	0.500125	-0.079483	0.466454
H303	H	0.750125	0.170517	0.716454
H304	H	1.000125	0.420517	0.966454
F305	F	0.455472	-0.449329	0.400653
F306	F	0.705472	-0.199329	0.650653
F307	F	0.955472	0.050671	0.900653
F308	F	1.205472	0.300671	1.150653
H309	H	0.974642	-1.089806	0.371427
H310	H	1.224642	-0.839806	0.621427
H311	H	1.474642	-0.589806	0.871427
H312	H	1.724642	-0.339806	1.121427
H313	H	0.123065	-0.539124	0.353229
H314	H	0.373065	-0.289124	0.603229
H315	H	0.623065	-0.039124	0.853229
H316	H	0.873065	0.210876	1.103229
F317	F	0.527445	-0.315111	0.206935
F318	F	0.777445	-0.065111	0.456935
F319	F	1.027445	0.184889	0.706935
F320	F	1.277445	0.434889	0.956935
F321	F	0.792116	-0.766218	0.188609
F322	F	1.042116	-0.516218	0.438609
F323	F	1.292116	-0.266218	0.688609
F324	F	1.542116	-0.016218	0.938609
F325	F	0.456423	-0.419456	0.168817
F326	F	0.706423	-0.169456	0.418817
F327	F	0.956423	0.080544	0.668817
F328	F	1.206423	0.330544	0.918817
F329	F	0.957475	-0.765830	0.354278
F330	F	1.207475	-0.515830	0.604278
F331	F	1.457475	-0.265830	0.854278
F332	F	1.707475	-0.015830	1.104278
H333	H	0.328637	-0.447477	0.386661
H334	H	0.578637	-0.197477	0.636661
H335	H	0.828637	0.052523	0.886661
H336	H	1.078637	0.302523	1.136661
F337	F	0.975722	-0.314937	1.059278
F338	F	1.225722	-0.064937	1.309278
F339	F	1.475722	0.185063	1.559278
F340	F	1.725722	0.435063	1.809278
F341	F	0.871223	-0.602048	0.710811
F342	F	1.121223	-0.352048	0.960811
F343	F	1.371223	-0.102048	1.210811
F344	F	1.621223	0.147952	1.460811
H345	H	0.965098	-0.329628	0.528157
H346	H	1.215098	-0.079628	0.778157
H347	H	1.465098	0.170372	1.028157
H348	H	1.715098	0.420372	1.278157
H349	H	0.981434	-0.918872	0.378251
H350	H	1.231434	-0.668872	0.628251
H351	H	1.481434	-0.418872	0.878251
H352	H	1.731434	-0.168872	1.128251
H353	H	0.965097	-0.329561	0.646866
H354	H	1.215097	-0.079561	0.896866
H355	H	1.465097	0.170439	1.146866
H356	H	1.715097	0.420439	1.396866
F357	F	0.321357	-0.419412	0.168869
F358	F	0.571357	-0.169412	0.418869
F359	F	0.821357	0.080588	0.668869
F360	F	1.071357	0.330588	0.918869
F361	F	0.905154	-0.266421	0.724277
F362	F	1.155154	-0.016421	0.974277
F363	F	1.405154	0.233579	1.224277
F364	F	1.655154	0.483579	1.474277
H365	H	0.811261	-0.538759	1.042014
H366	H	1.061261	-0.288759	1.292014
H367	H	1.311261	-0.038759	1.542014
H368	H	1.561261	0.211241	1.792014
F369	F	0.800658	-0.553260	0.914533
F370	F	1.050658	-0.303260	1.164533
F371	F	1.300658	-0.053260	1.414533
F372	F	1.550658	0.196740	1.664533
H373	H	0.873272	-0.581657	0.838516
H374	H	1.123272	-0.331657	1.088516
H375	H	1.373272	-0.081657	1.338516
H376	H	1.623272	0.168343	1.588516
F377	F	0.662518	-0.315139	0.206887
F378	F	0.912518	-0.065139	0.456887
F379	F	1.162518	0.184861	0.706887
F380	F	1.412518	0.434861	0.956887
H381	H	0.131416	-0.329445	0.216502
H382	H	0.381416	-0.079445	0.466502
H383	H	0.631416	0.170555	0.716502
H384	H	0.881416	0.420555	0.966502
F385	F	0.800634	-0.553454	0.510885
F386	F	1.050634	-0.303454	0.760885
F387	F	1.300634	-0.053454	1.010885
F388	F	1.550634	0.196546	1.260885
H389	H	0.526697	-0.539246	0.353074
H390	H	0.776697	-0.289246	0.603074
H391	H	1.026697	-0.039246	0.853074
H392	H	1.276697	0.210754	1.103074
H393	H	0.241770	-0.539169	0.353179
H394	H	0.491770	-0.289169	0.603179
H395	H	0.741770	-0.039169	0.853179
H396	H	0.991770	0.210831	1.103179
