data_functionalizedCrystal
_audit_creation_method	'MofGen! by Chris Wilmer'
_symmetry_space_group_name_H-M	'P1'
_symmetry_Int_Tables_number	1
_symmetry_cell_setting	triclinic
loop_
_symmetry_equiv_pos_as_xyz
  x,y,z
_cell_length_a	15.944545
_cell_length_b	14.421503
_cell_length_c	17.699083
_cell_angle_alpha	90.000692
_cell_angle_beta	96.610406
_cell_angle_gamma	89.990135
loop_
_atom_site_label
_atom_site_type_symbol
_atom_site_fract_x
_atom_site_fract_y
_atom_site_fract_z
O1	O	1.114309	0.077054	-0.097586
O2	O	1.614309	0.577054	0.402414
O3	O	0.869733	0.077069	-0.109626
O4	O	1.369733	0.577069	0.390374
O5	O	0.998931	0.077053	0.006572
O6	O	1.498931	0.577053	0.506572
O7	O	0.985111	0.077070	-0.213783
O8	O	1.485111	0.577070	0.286217
O9	O	0.998946	-0.077171	0.006564
O10	O	1.498946	0.422829	0.506564
O11	O	0.869749	-0.077155	-0.109633
O12	O	1.369749	0.422845	0.390367
O13	O	1.114324	-0.077170	-0.097593
O14	O	1.614324	0.422830	0.402407
Cu15	Cu	0.992038	-0.091244	-0.103614
Cu16	Cu	1.492038	0.408756	0.396386
Cu17	Cu	0.992020	0.091143	-0.103605
Cu18	Cu	1.492020	0.591143	0.396395
O19	O	0.985127	-0.077154	-0.213791
O20	O	1.485127	0.422846	0.286209
C21	C	0.838448	-0.000041	-0.109130
C22	C	1.338448	0.499959	0.390870
C23	C	0.745205	-0.000035	-0.107635
C24	C	1.245205	0.499965	0.392365
N25	N	0.992057	-0.219525	-0.103620
N26	N	1.492057	0.280475	0.396380
C27	C	0.474733	-0.000051	-0.031140
C28	C	0.974733	0.499949	0.468860
C29	C	0.525245	-0.076091	-0.068023
C30	C	1.025245	0.423909	0.431977
C31	C	0.409572	-0.000052	-0.102300
C32	C	0.909572	0.499948	0.397700
C33	C	0.525210	0.075961	-0.068035
C34	C	1.025210	0.575961	0.431965
C35	C	0.574480	-0.000042	-0.104917
C36	C	1.074480	0.499958	0.395083
C37	C	0.458856	-0.076154	-0.139164
C38	C	0.958856	0.423846	0.360836
C39	C	0.458817	0.075966	-0.139165
C40	C	0.958817	0.575966	0.360835
C41	C	0.509296	-0.000092	-0.176101
C42	C	1.009296	0.499908	0.323899
C43	C	0.314573	-0.000058	-0.100790
C44	C	0.814573	0.499942	0.399210
C45	C	0.669476	-0.000043	-0.106432
C46	C	1.169476	0.499957	0.393568
C47	C	1.051811	-0.469162	-0.049878
C48	C	1.551811	0.030838	0.450122
C49	C	0.975942	-0.530955	-0.035177
C50	C	1.475942	-0.030955	0.464823
C51	C	0.992038	-0.408687	-0.103611
C52	C	1.492038	0.091313	0.396389
C53	C	1.067889	-0.530987	-0.118268
C54	C	1.567889	-0.030987	0.381732
C55	C	0.992027	-0.591408	-0.103600
C56	C	1.492027	-0.091408	0.396400
C57	C	0.916131	-0.469119	-0.088876
C58	C	1.416131	0.030881	0.411124
C59	C	1.008129	-0.469146	-0.171996
C60	C	1.508129	0.030854	0.328004
C61	C	0.932205	-0.530912	-0.157324
C62	C	1.432205	-0.030912	0.342676
C63	C	0.992046	-0.303426	-0.103615
C64	C	1.492046	0.196574	0.396385
C65	C	0.992011	-0.696667	-0.103596
C66	C	1.492011	-0.196667	0.396404
C67	C	1.145610	-0.000058	-0.098089
C68	C	1.645610	0.499942	0.401911
C69	C	1.238853	-0.000058	-0.099585
C70	C	1.738853	0.499942	0.400415
C71	C	0.998443	-0.000059	0.034766
C72	C	1.498443	0.499941	0.534766
C73	C	0.996958	-0.000060	0.118786
C74	C	1.496958	0.499940	0.618786
N75	N	0.992007	0.219424	-0.103593
N76	N	1.492007	0.719424	0.396407
C77	C	0.985614	-0.000040	-0.241985
C78	C	1.485614	0.499960	0.258015
C79	C	0.987100	-0.000033	-0.326005
C80	C	1.487100	0.499967	0.173995
C81	C	1.072794	-0.000066	0.167279
C82	C	1.572794	0.499934	0.667279
C83	C	1.071393	-0.000057	0.246225
C84	C	1.571393	0.499943	0.746225
C85	C	0.994155	-0.000050	0.276676
C86	C	1.494155	0.499950	0.776676
C87	C	0.918313	-0.000041	0.228177
C88	C	1.418313	0.499959	0.728177
C89	C	0.919715	-0.000042	0.149233
C90	C	1.419715	0.499958	0.649233
C91	C	0.912658	-0.000033	0.546550
C92	C	1.412658	0.499967	1.046550
C93	C	0.911262	-0.000034	0.625500
C94	C	1.411262	0.499966	1.125500
C95	C	1.064337	-0.000048	0.643542
C96	C	1.564337	0.499952	1.143542
C97	C	1.065739	-0.000049	0.564598
C98	C	1.565739	0.499951	1.064598
C99	C	0.989897	-0.000036	0.516105
C100	C	1.489897	0.499964	1.016105
C101	C	0.991417	-0.000043	0.430504
C102	C	1.491417	0.499957	0.930504
C103	C	0.992634	-0.000049	0.362276
C104	C	1.492634	0.499951	0.862276
H105	H	0.459208	-0.000130	0.030143
H106	H	0.959208	0.499870	0.530143
O107	O	0.529663	-0.000139	-0.257335
O108	O	1.029663	0.499861	0.242665
H109	H	0.502841	-0.063318	-0.286690
H110	H	1.002841	0.436682	0.213310
H111	H	0.554184	0.140243	-0.037967
H112	H	1.054184	0.640243	0.462033
H113	H	0.850903	-0.000022	0.507076
H114	H	1.350903	0.499978	1.007076
O115	O	1.152864	-0.566976	-0.134702
O116	O	1.652864	-0.066976	0.365298
H117	H	1.151902	-0.643932	-0.135080
H118	H	1.651902	-0.143932	0.364920
O119	O	1.153192	-0.000062	0.298525
O120	O	1.653192	0.499938	0.798525
H121	H	1.139244	-0.000046	0.358536
H122	H	1.639244	0.499954	0.858536
H123	H	0.429801	0.140259	-0.169188
H124	H	0.929801	0.640259	0.330812
H125	H	0.857961	-0.000037	0.109750
H126	H	1.357961	0.499963	0.609750
H127	H	1.102306	-0.442048	-0.004413
H128	H	1.602306	0.057952	0.495587
H129	H	0.851966	-0.442058	-0.076408
H130	H	1.351966	0.057942	0.423592
H131	H	0.554245	-0.140381	-0.037974
H132	H	1.054245	0.359619	0.462026
H133	H	0.429990	-0.140509	-0.169197
H134	H	0.929990	0.359491	0.330803
O135	O	0.827948	-0.000020	0.658341
O136	O	1.327948	0.499980	1.158341
H137	H	0.823650	-0.062885	0.693868
H138	H	1.323650	0.437115	1.193868
O139	O	1.149044	-0.000059	0.531752
O140	O	1.649044	0.499941	1.031752
H141	H	1.153329	0.062797	0.496211
H142	H	1.653329	0.562797	0.996211
O143	O	0.957901	-0.566940	0.041427
O144	O	1.457901	-0.066940	0.541427
H145	H	1.007606	-0.542220	0.085930
H146	H	1.507606	-0.042220	0.585930
O147	O	0.865176	-0.566626	-0.217505
O148	O	1.365176	-0.066626	0.282495
H149	H	0.802310	-0.541718	-0.205148
H150	H	1.302310	-0.041718	0.294852
H151	H	1.021772	-0.441976	-0.229814
H152	H	1.521772	0.058024	0.270186
H153	H	1.135690	-0.000078	0.142493
H154	H	1.635690	0.499922	0.642493
O155	O	1.146143	-0.000055	0.695843
O156	O	1.646143	0.499945	1.195843
H157	H	1.132198	-0.000043	0.755855
H158	H	1.632198	0.499957	1.255855
H159	H	0.855424	-0.000029	0.252976
H160	H	1.355424	0.499971	0.752976
