data_functionalizedCrystal
_audit_creation_method	'MofGen! by Chris Wilmer'
_symmetry_space_group_name_H-M	'P1'
_symmetry_Int_Tables_number	1
_symmetry_cell_setting	triclinic
loop_
_symmetry_equiv_pos_as_xyz
  x,y,z
_cell_length_a	16.109301
_cell_length_b	16.109301
_cell_length_c	14.586319
_cell_angle_alpha	90.000846
_cell_angle_beta	90.000787
_cell_angle_gamma	96.538519
loop_
_atom_site_label
_atom_site_type_symbol
_atom_site_fract_x
_atom_site_fract_y
_atom_site_fract_z
O1	O	-1.103131	0.106866	-0.076173
O2	O	-0.853131	0.356866	0.173827
O3	O	-0.603131	0.606866	0.423827
O4	O	-0.353131	0.856866	0.673827
O5	O	-0.861069	0.120165	-0.076186
O6	O	-0.611069	0.370165	0.173814
O7	O	-0.361069	0.620165	0.423814
O8	O	-0.111069	0.870165	0.673814
O9	O	-0.988749	-0.007515	-0.076184
O10	O	-0.738749	0.242485	0.173816
O11	O	-0.488749	0.492485	0.423816
O12	O	-0.238749	0.742485	0.673816
O13	O	-0.975450	0.234547	-0.076175
O14	O	-0.725450	0.484547	0.173825
O15	O	-0.475450	0.734547	0.423825
O16	O	-0.225450	0.984547	0.673825
O17	O	-0.988741	-0.007517	0.076297
O18	O	-0.738741	0.242483	0.326297
O19	O	-0.488741	0.492483	0.576297
O20	O	-0.238741	0.742483	0.826297
O21	O	-0.861060	0.120164	0.076295
O22	O	-0.611060	0.370164	0.326295
O23	O	-0.361060	0.620164	0.576295
O24	O	-0.111060	0.870164	0.826295
O25	O	-1.103122	0.106864	0.076308
O26	O	-0.853122	0.356864	0.326308
O27	O	-0.603122	0.606864	0.576308
O28	O	-0.353122	0.856864	0.826308
Cu29	Cu	-0.982090	0.113514	0.090224
Cu30	Cu	-0.732090	0.363514	0.340224
Cu31	Cu	-0.482090	0.613514	0.590224
Cu32	Cu	-0.232090	0.863514	0.840224
Cu33	Cu	-0.982101	0.113516	-0.090102
Cu34	Cu	-0.732101	0.363516	0.159898
Cu35	Cu	-0.482101	0.613516	0.409898
Cu36	Cu	-0.232101	0.863516	0.659898
O37	O	-0.975441	0.234545	0.076306
O38	O	-0.725441	0.484545	0.326306
O39	O	-0.475441	0.734545	0.576306
O40	O	-0.225441	0.984545	0.826306
C41	C	-0.830090	0.119626	0.000052
C42	C	-0.580090	0.369626	0.250052
C43	C	-0.330090	0.619626	0.500052
C44	C	-0.080090	0.869626	0.750052
C45	C	-0.737794	0.118011	0.000047
C46	C	-0.487794	0.368011	0.250047
C47	C	-0.237794	0.618011	0.500047
C48	C	0.012206	0.868011	0.750047
C49	C	-0.988206	-0.038491	0.000053
C50	C	-0.738206	0.211509	0.250053
C51	C	-0.488206	0.461509	0.500053
C52	C	-0.238206	0.711509	0.750053
C53	C	-0.986591	-0.130786	0.000044
C54	C	-0.736591	0.119214	0.250044
C55	C	-0.486591	0.369214	0.500044
C56	C	-0.236591	0.619214	0.750044
C57	C	-1.134101	0.107404	0.000067
C58	C	-0.884101	0.357404	0.250067
C59	C	-0.634101	0.607404	0.500067
C60	C	-0.384101	0.857404	0.750067
C61	C	-1.226397	0.109019	0.000067
C62	C	-0.976397	0.359019	0.250067
C63	C	-0.726397	0.609019	0.500067
C64	C	-0.476397	0.859019	0.750067
C65	C	-0.975984	0.265521	0.000066
C66	C	-0.725984	0.515521	0.250066
C67	C	-0.475984	0.765521	0.500066
C68	C	-0.225984	1.015521	0.750066
C69	C	-0.977600	0.357816	0.000070
C70	C	-0.727600	0.607816	0.250070
C71	C	-0.477600	0.857816	0.500070
C72	C	-0.227600	1.107816	0.750070
C73	C	-0.515522	0.190018	0.000060
C74	C	-0.265522	0.440018	0.250060
C75	C	-0.015522	0.690018	0.500060
C76	C	0.234478	0.940018	0.750060
C77	C	-0.428801	0.188494	0.000066
C78	C	-0.178801	0.438494	0.250066
C79	C	0.071199	0.688494	0.500066
C80	C	0.321199	0.938494	0.750066
C81	C	-0.448676	0.037006	0.000057
C82	C	-0.198676	0.287006	0.250057
C83	C	0.051324	0.537006	0.500057
C84	C	0.301324	0.787006	0.750057
C85	C	-0.535394	0.038530	0.000057
C86	C	-0.285394	0.288530	0.250057
C87	C	-0.035394	0.538530	0.500057
C88	C	0.214606	0.788530	0.750057
C89	C	-0.568815	0.115039	0.000054
C90	C	-0.318815	0.365039	0.250054
C91	C	-0.068815	0.615039	0.500054
C92	C	0.181185	0.865039	0.750054
C93	C	-0.395376	0.111990	0.000059
C94	C	-0.145376	0.361990	0.250059
C95	C	0.104624	0.611990	0.500059
C96	C	0.354624	0.861990	0.750059
C97	C	-0.301350	0.110337	0.000066
C98	C	-0.051350	0.360337	0.250066
C99	C	0.198650	0.610337	0.500066
C100	C	0.448650	0.860337	0.750066
C101	C	-0.662847	0.116693	0.000050
C102	C	-0.412847	0.366693	0.250050
C103	C	-0.162847	0.616693	0.500050
C104	C	0.087153	0.866693	0.750050
N105	N	-0.982089	0.113512	0.217056
N106	N	-0.732089	0.363512	0.467056
N107	N	-0.482089	0.613512	0.717056
N108	N	-0.232089	0.863512	0.967056
C109	C	-0.905592	0.580088	0.000053
C110	C	-0.655592	0.830088	0.250053
C111	C	-0.405592	1.080088	0.500053
C112	C	-0.155592	1.330088	0.750053
C113	C	-0.907116	0.666809	0.000046
C114	C	-0.657116	0.916809	0.250046
C115	C	-0.407116	1.166809	0.500046
C116	C	-0.157116	1.416809	0.750046
C117	C	-1.058605	0.646934	0.000058
C118	C	-0.808605	0.896934	0.250058
C119	C	-0.558605	1.146934	0.500058
C120	C	-0.308605	1.396934	0.750058
C121	C	-1.057080	0.560216	0.000059
C122	C	-0.807080	0.810216	0.250059
C123	C	-0.557080	1.060216	0.500059
C124	C	-0.307080	1.310216	0.750059
C125	C	-0.980571	0.526795	0.000060
C126	C	-0.730571	0.776795	0.250060
C127	C	-0.480571	1.026795	0.500060
C128	C	-0.230571	1.276795	0.750060
C129	C	-0.983620	0.700234	0.000053
C130	C	-0.733620	0.950234	0.250053
C131	C	-0.483620	1.200234	0.500053
C132	C	-0.233620	1.450234	0.750053
C133	C	-0.985273	0.794260	0.000046
C134	C	-0.735273	1.044260	0.250046
C135	C	-0.485273	1.294260	0.500046
C136	C	-0.235273	1.544260	0.750046
C137	C	-0.978917	0.432763	0.000066
C138	C	-0.728917	0.682763	0.250066
C139	C	-0.478917	0.932763	0.500066
C140	C	-0.228917	1.182763	0.750066
N141	N	-0.982109	0.113511	-0.216934
N142	N	-0.732109	0.363511	0.033066
N143	N	-0.482109	0.613511	0.283066
N144	N	-0.232109	0.863511	0.533066
C145	C	-1.038644	0.056994	0.452063
C146	C	-0.788644	0.306994	0.702063
C147	C	-0.538644	0.556994	0.952063
C148	C	-0.288644	0.806994	1.202063
C149	C	-1.038647	0.056992	0.548044
C150	C	-0.788647	0.306992	0.798044
C151	C	-0.538647	0.556992	1.048044
C152	C	-0.288647	0.806992	1.298044
C153	C	-0.925547	0.170032	0.548052
C154	C	-0.675547	0.420032	0.798052
C155	C	-0.425547	0.670032	1.048052
C156	C	-0.175547	0.920032	1.298052
C157	C	-0.925541	0.170030	0.452072
C158	C	-0.675541	0.420030	0.702072
C159	C	-0.425541	0.670030	0.952072
C160	C	-0.175541	0.920030	1.202072
C161	C	-0.982095	0.113511	0.404081
C162	C	-0.732095	0.363511	0.654081
C163	C	-0.482095	0.613511	0.904081
C164	C	-0.232095	0.863511	1.154081
C165	C	-0.982103	0.113512	0.596041
C166	C	-0.732103	0.363512	0.846041
C167	C	-0.482103	0.613512	1.096041
C168	C	-0.232103	0.863512	1.346041
C169	C	-0.982105	0.113510	0.700108
C170	C	-0.732105	0.363510	0.950108
C171	C	-0.482105	0.613510	1.200108
C172	C	-0.232105	0.863510	1.450108
C173	C	-0.982092	0.113512	0.300007
C174	C	-0.732092	0.363512	0.550007
C175	C	-0.482092	0.613512	0.800007
C176	C	-0.232092	0.863512	1.050007
H177	H	-0.542730	0.252317	0.000065
H178	H	-0.292730	0.502317	0.250065
H179	H	-0.042730	0.752317	0.500065
H180	H	0.207270	1.002317	0.750065
H181	H	-1.084694	0.010969	0.587109
H182	H	-0.834694	0.260969	0.837109
H183	H	-0.584694	0.510969	1.087109
H184	H	-0.334694	0.760969	1.337109
Cl185	Cl	-0.812852	0.733803	0.000032
Cl186	Cl	-0.562852	0.983803	0.250032
Cl187	Cl	-0.312852	1.233803	0.500032
Cl188	Cl	-0.062852	1.483803	0.750032
Cl189	Cl	-0.809410	0.538077	0.000050
Cl190	Cl	-0.559410	0.788077	0.250050
Cl191	Cl	-0.309410	1.038077	0.500050
Cl192	Cl	-0.059410	1.288077	0.750050
H193	H	-0.385413	0.249550	0.000072
H194	H	-0.135413	0.499550	0.250072
H195	H	0.114587	0.749550	0.500072
H196	H	0.364587	0.999550	0.750072
Cl197	Cl	-1.154782	0.688955	0.000060
Cl198	Cl	-0.904782	0.938955	0.250060
Cl199	Cl	-0.654782	1.188955	0.500060
Cl200	Cl	-0.404782	1.438955	0.750060
Cl201	Cl	-0.406655	-0.059172	0.000054
Cl202	Cl	-0.156655	0.190828	0.250054
Cl203	Cl	0.093345	0.440828	0.500054
Cl204	Cl	0.343345	0.690828	0.750054
H205	H	-0.879503	0.216049	0.587136
H206	H	-0.629503	0.466049	0.837136
H207	H	-0.379503	0.716049	1.087136
H208	H	-0.129503	0.966049	1.337136
H209	H	-1.118140	0.516822	0.000061
H210	H	-0.868140	0.766822	0.250061
H211	H	-0.618140	1.016822	0.500061
H212	H	-0.368140	1.266822	0.750061
Cl213	Cl	-0.854440	0.241082	0.391745
Cl214	Cl	-0.604440	0.491082	0.641745
Cl215	Cl	-0.354440	0.741082	0.891745
Cl216	Cl	-0.104440	0.991082	1.141745
H217	H	-0.578788	-0.022530	0.000055
H218	H	-0.328788	0.227470	0.250055
H219	H	-0.078788	0.477470	0.500055
H220	H	0.171212	0.727470	0.750055
H221	H	-1.084693	0.010972	0.412990
H222	H	-0.834693	0.260972	0.662990
H223	H	-0.584693	0.510972	0.912990
H224	H	-0.334693	0.760972	1.162990
