data_functionalizedCrystal
_audit_creation_method	'MofGen! by Chris Wilmer'
_symmetry_space_group_name_H-M	'P1'
_symmetry_Int_Tables_number	1
_symmetry_cell_setting	triclinic
loop_
_symmetry_equiv_pos_as_xyz
  x,y,z
_cell_length_a	19.077236
_cell_length_b	18.101397
_cell_length_c	19.077314
_cell_angle_alpha	87.672098
_cell_angle_beta	90.071888
_cell_angle_gamma	92.313125
loop_
_atom_site_label
_atom_site_type_symbol
_atom_site_fract_x
_atom_site_fract_y
_atom_site_fract_z
Zn1	Zn	1.058317	-0.231590	-0.440537
Zn2	Zn	1.558317	0.268410	0.059463
Zn3	Zn	1.062963	-0.360203	-0.323022
Zn4	Zn	1.562963	0.139797	0.176978
Zn5	Zn	0.945530	-0.241532	-0.318315
Zn6	Zn	1.445530	0.258468	0.181685
Zn7	Zn	0.940785	-0.360553	-0.435762
Zn8	Zn	1.440785	0.139447	0.064238
O9	O	1.001899	-0.298470	-0.379409
O10	O	1.501899	0.201530	0.120591
O11	O	1.157266	-0.244343	-0.428917
O12	O	1.657266	0.255657	0.071083
O13	O	1.051316	-0.348475	-0.224065
O14	O	1.551316	0.151525	0.275935
O15	O	0.960533	-0.136577	-0.334556
O16	O	1.460533	0.363423	0.165444
O17	O	1.160680	-0.338834	-0.342579
O18	O	1.660680	0.161166	0.157421
O19	O	1.043397	-0.129273	-0.424353
O20	O	1.543397	0.370727	0.075647
O21	O	0.965038	-0.261288	-0.220607
O22	O	1.465038	0.238712	0.279393
O23	O	0.846567	-0.261628	-0.329926
O24	O	1.346567	0.238372	0.170074
O25	O	0.952445	-0.339432	-0.534728
O26	O	1.452445	0.160568	-0.034728
O27	O	0.843081	-0.349073	-0.416214
O28	O	1.343081	0.150927	0.083786
O29	O	1.038795	-0.244683	-0.538237
O30	O	1.538795	0.255317	-0.038237
O31	O	1.046714	-0.463885	-0.337949
O32	O	1.546714	0.036115	0.162051
O33	O	0.956950	-0.464143	-0.420779
O34	O	1.456950	0.035857	0.079221
C35	C	0.819327	-0.306468	-0.372042
C36	C	1.319327	0.193532	0.127958
C37	C	0.741222	-0.309907	-0.368906
C38	C	1.241222	0.190093	0.131094
C39	C	0.702748	-0.262398	-0.412454
C40	C	1.202748	0.237602	0.087546
C41	C	0.629360	-0.265626	-0.409502
C42	C	1.129360	0.234374	0.090498
C43	C	0.594446	-0.316367	-0.363006
C44	C	1.094446	0.183633	0.136994
C45	C	0.632925	-0.363878	-0.319454
C46	C	1.132925	0.136122	0.180546
C47	C	0.706312	-0.360646	-0.322403
C48	C	1.206312	0.139354	0.177597
C49	C	0.375154	-0.331298	-0.349355
C50	C	0.875154	0.168702	0.150645
C51	C	0.301761	-0.334528	-0.346411
C52	C	0.801761	0.165472	0.153589
C53	C	0.298201	-0.236275	-0.436458
C54	C	0.798201	0.263725	0.063542
C55	C	0.371590	-0.233050	-0.439406
C56	C	0.871590	0.266950	0.060594
C57	C	0.410062	-0.280558	-0.395852
C58	C	0.910062	0.219442	0.104148
N59	N	0.519432	-0.319669	-0.359989
N60	N	1.019432	0.180331	0.140011
N61	N	0.485075	-0.277252	-0.398866
N62	N	0.985075	0.222748	0.101134
C63	C	1.001840	-0.490884	-0.379373
C64	C	1.501840	0.009116	0.120627
C65	C	1.001878	-0.573196	-0.379383
C66	C	1.501878	-0.073196	0.120617
C67	C	1.001965	-0.872281	-0.379451
C68	C	1.501965	-0.372281	0.120549
C69	C	1.058297	-0.840775	-0.327185
C70	C	1.558297	-0.340775	0.172815
C71	C	1.058478	-0.755142	-0.327334
C72	C	1.558478	-0.255142	0.172666
C73	C	1.001922	-0.723901	-0.379417
C74	C	1.501922	-0.223901	0.120583
C75	C	1.019019	-0.751025	-0.454292
C76	C	1.519019	-0.251025	0.045708
C77	C	1.019450	-0.836664	-0.454013
C78	C	1.519450	-0.336664	0.045987
C79	C	0.928366	-0.844822	-0.357476
C80	C	1.428366	-0.344822	0.142524
C81	C	0.928800	-0.759224	-0.355838
C82	C	1.428800	-0.259224	0.144162
C83	C	1.001896	-0.640044	-0.379402
C84	C	1.501896	-0.140044	0.120598
C85	C	1.001993	-0.956138	-0.379471
C86	C	1.501993	-0.456138	0.120529
C87	C	1.185183	-0.290440	-0.386806
C88	C	1.685183	0.209560	0.113194
C89	C	1.263288	-0.287019	-0.389958
C90	C	1.763288	0.212981	0.110042
C91	C	0.994572	-0.290987	-0.562692
C92	C	1.494572	0.209013	-0.062692
C93	C	0.991450	-0.287799	-0.640796
C94	C	1.491450	0.212201	-0.140796
C95	C	1.001976	-0.105302	-0.379462
C96	C	1.501976	0.394698	0.120538
C97	C	1.002009	-0.022986	-0.379485
C98	C	1.502009	0.477014	0.120515
C99	C	1.034900	-0.331692	-0.679293
C100	C	1.534900	0.168308	-0.179293
C101	C	1.031967	-0.328687	-0.752680
C102	C	1.531967	0.171313	-0.252680
C103	C	0.985580	-0.281793	-0.787569
C104	C	1.485580	0.218207	-0.287569
C105	C	0.942128	-0.237894	-0.749067
C106	C	1.442128	0.262106	-0.249067
C107	C	0.945065	-0.240896	-0.675681
C108	C	1.445065	0.259104	-0.175681
C109	C	0.971981	-0.267945	-1.006855
C110	C	1.471981	0.232055	-0.506855
C111	C	0.969045	-0.264948	-1.080246
C112	C	1.469045	0.235052	-0.580246
C113	C	1.058885	-0.355740	-1.083854
C114	C	1.558885	0.144260	-0.583854
C115	C	1.061816	-0.358741	-1.010467
C116	C	1.561816	0.141259	-0.510467
C117	C	1.018367	-0.314840	-0.971971
C118	C	1.518367	0.185160	-0.471971
N119	N	0.982578	-0.278722	-0.862582
N120	N	1.482578	0.221278	-0.362582
N121	N	1.021372	-0.317907	-0.896960
N122	N	1.521372	0.182093	-0.396960
C123	C	1.009237	-0.305867	-0.196841
C124	C	1.509237	0.194133	0.303159
C125	C	1.012495	-0.308841	-0.118743
C126	C	1.512495	0.191159	0.381257
H127	H	0.266869	-0.197595	-0.471917
H128	H	0.766869	0.302405	0.028083
H129	H	1.067348	-0.364430	-0.784021
H130	H	1.567348	0.135570	-0.284021
C131	C	1.085934	-0.383276	-0.640922
C132	C	1.585934	0.116724	-0.140922
N133	N	1.124378	-0.422127	-0.612024
N134	N	1.624378	0.077873	-0.112024
H135	H	1.112580	-0.859336	-0.341805
H136	H	1.612580	-0.359336	0.158195
H137	H	0.912237	-0.869435	-0.303668
H138	H	1.412237	-0.369435	0.196332
H139	H	1.113057	-0.731673	-0.342110
H140	H	1.613057	-0.231673	0.157890
H141	H	1.073159	-0.853546	-0.472279
H142	H	1.573159	-0.353546	0.027721
H143	H	0.931273	-0.226755	-1.108650
H144	H	1.431273	0.273245	-0.608650
H145	H	0.598038	-0.226941	-0.444964
H146	H	1.098038	0.273059	0.055036
C147	C	0.891103	-0.186308	-0.787447
C148	C	1.391103	0.313692	-0.287447
N149	N	0.852668	-0.147454	-0.816355
N150	N	1.352668	0.352546	-0.316355
C151	C	0.871714	-0.872424	-0.408851
C152	C	1.371714	-0.372424	0.091149
N153	N	0.829049	-0.893217	-0.447549
N154	N	1.329049	-0.393217	0.052451
H155	H	0.406469	-0.369983	-0.313891
H156	H	0.906469	0.130017	0.186109
H157	H	0.980055	-0.857344	-0.494459
H158	H	1.480055	-0.357344	0.005541
H159	H	1.099578	-0.396940	-0.982065
H160	H	1.599578	0.103060	-0.482065
H161	H	1.094260	-0.391480	-1.115205
H162	H	1.594260	0.108520	-0.615205
H163	H	0.979115	-0.730655	-0.494410
H164	H	1.479115	-0.230655	0.005590
H165	H	0.909686	-0.205151	-0.644338
H166	H	1.409686	0.294849	-0.144338
H167	H	0.731169	-0.221081	-0.450318
H168	H	1.231169	0.278919	0.049682
C169	C	0.409989	-0.177225	-0.490549
C170	C	0.909989	0.322775	0.009451
N171	N	0.438912	-0.135176	-0.529070
N172	N	0.938912	0.364824	-0.029070
C173	C	0.924181	-0.219657	-0.964519
C174	C	1.424181	0.280343	-0.464519
N175	N	0.888174	-0.183285	-0.932630
N176	N	1.388174	0.316715	-0.432630
H177	H	0.273337	-0.375850	-0.308548
H178	H	0.773337	0.124150	0.191452
H179	H	0.604493	-0.405188	-0.281592
H180	H	1.104493	0.094812	0.218408
H181	H	0.737637	-0.399332	-0.286941
H182	H	1.237637	0.100668	0.213059
H183	H	1.048127	-0.736958	-0.271908
H184	H	1.548127	-0.236958	0.228092
C185	C	1.090744	-0.717896	-0.479302
C186	C	1.590744	-0.217896	0.020698
N187	N	1.144770	-0.692944	-0.498136
N188	N	1.644770	-0.192944	0.001864
C189	C	1.044533	-0.872422	-0.252093
C190	C	1.544533	-0.372422	0.247907
N191	N	1.034165	-0.896263	-0.195532
N192	N	1.534165	-0.396263	0.304468
H193	H	0.915855	-0.741839	-0.300721
H194	H	1.415855	-0.241839	0.199279
C195	C	0.869372	-0.730840	-0.403174
C196	C	1.369372	-0.230840	0.096826
N197	N	0.824613	-0.709462	-0.438834
N198	N	1.324613	-0.209462	0.061166
