data_functionalizedCrystal
_audit_creation_method	'MofGen! by Chris Wilmer'
_symmetry_space_group_name_H-M	'P1'
_symmetry_Int_Tables_number	1
_symmetry_cell_setting	triclinic
loop_
_symmetry_equiv_pos_as_xyz
  x,y,z
_cell_length_a	10.540539
_cell_length_b	10.540539
_cell_length_c	9.016244
_cell_angle_alpha	89.999933
_cell_angle_beta	89.994699
_cell_angle_gamma	84.525492
loop_
_atom_site_label
_atom_site_type_symbol
_atom_site_fract_x
_atom_site_fract_y
_atom_site_fract_z
O1	O	1.685893	0.178895	-0.123263
O2	O	1.316480	0.195751	-0.123280
O3	O	1.509614	0.002617	-0.123269
O4	O	1.492759	0.372030	-0.123274
O5	O	1.509586	0.002621	0.123411
O6	O	1.316452	0.195755	0.123400
O7	O	1.685865	0.178900	0.123418
Cu8	Cu	1.501156	0.187328	0.145933
Cu9	Cu	1.501189	0.187323	-0.145795
O10	O	1.492730	0.372034	0.123407
C11	C	1.269163	0.194489	0.000058
C12	C	1.128215	0.190707	0.000051
C13	C	0.944788	0.045790	0.000628
C14	C	1.091406	0.049624	0.000057
C15	C	1.066558	0.258600	-0.140811
C16	C	0.920014	0.253785	-0.140914
C17	C	0.919493	0.256660	0.139608
C18	C	1.066475	0.257960	0.141455
C19	C	1.508336	-0.044684	0.000068
C20	C	1.504554	-0.185632	0.000060
C21	C	1.359637	-0.369059	-0.000500
C22	C	1.363471	-0.222441	0.000055
C23	C	1.572434	-0.247287	0.140930
C24	C	1.567619	-0.393832	0.141049
C25	C	1.570520	-0.394355	-0.139473
C26	C	1.571820	-0.247373	-0.141336
C27	C	1.733182	0.180161	0.000077
C28	C	1.874130	0.183943	0.000074
C29	C	1.494008	0.419335	0.000066
C30	C	1.497790	0.560283	0.000064
N31	N	1.501141	0.187331	0.351119
N32	N	1.501213	0.187310	-0.350982
C33	C	1.397510	0.290298	0.586146
C34	C	1.397739	0.290684	0.414255
C35	C	1.633864	0.217464	0.413464
C36	C	1.633298	0.218193	0.585409
C37	C	1.473367	0.053892	0.585663
C38	C	1.470322	0.054757	0.413709
H39	H	1.090700	0.360819	0.149959
H40	H	1.522153	-0.206517	-0.245547
H41	H	1.372684	0.031916	0.372962
C42	C	0.881918	0.185977	-0.283154
N43	N	0.853231	0.134897	-0.390289
C44	C	1.708185	-0.458163	-0.140754
N45	N	1.811868	-0.506230	-0.141709
H46	H	1.088912	0.362208	-0.146054
H47	H	1.415639	0.389668	0.373108
C48	C	1.124099	0.194875	-0.282437
N49	N	1.167435	0.146868	-0.389107
H50	H	0.872045	0.355250	-0.147309
C51	C	1.710787	-0.214662	-0.152817
N52	N	1.815465	-0.190030	-0.161451
C53	C	1.508695	-0.189746	0.282549
N54	N	1.460678	-0.146409	0.389213
H55	H	1.657653	0.315531	0.625498
H56	H	1.548979	-0.022762	0.626319
C57	C	1.740668	0.118898	0.358208
N58	N	1.821112	0.044656	0.316586
C59	C	1.499800	-0.431927	0.283293
N60	N	1.448712	-0.460613	0.390432
H61	H	1.304121	-0.399265	0.099949
H62	H	0.887935	0.211004	0.246381
H63	H	1.303918	-0.397661	-0.101521
H64	H	0.872266	0.358564	0.140559
C65	C	1.740791	0.120829	0.641595
N66	N	1.821767	0.047510	0.683908
C67	C	1.121748	0.190916	0.282239
N68	N	1.163378	0.140408	0.388275
H69	H	1.540849	-0.025564	0.370737
H70	H	1.299123	0.272553	0.372106
C71	C	1.291303	-0.164884	-0.136360
N72	N	1.236936	-0.121537	-0.239108
H73	H	1.309661	-0.180683	0.101200
C74	C	1.421374	0.423267	0.644495
N75	N	1.439353	0.523417	0.688445
H76	H	1.669083	-0.441800	0.147444
H77	H	1.658762	0.313702	0.370386
C78	C	1.712395	-0.217064	0.148037
N79	N	1.817811	-0.194288	0.153393
C80	C	1.345353	0.015174	0.644298
N81	N	1.248926	-0.013973	0.688461
H82	H	1.134008	-0.003797	0.101034
H83	H	1.133163	-0.004177	-0.101092
H84	H	0.916191	-0.009944	0.101649
H85	H	1.298584	0.272446	0.627535
C86	C	0.903977	-0.029203	-0.135066
N87	N	0.873233	-0.085686	-0.237271
H88	H	1.524871	-0.425910	-0.246244
