data_functionalizedCrystal
_audit_creation_method	'MofGen! by Chris Wilmer'
_symmetry_space_group_name_H-M	'P1'
_symmetry_Int_Tables_number	1
_symmetry_cell_setting	triclinic
loop_
_symmetry_equiv_pos_as_xyz
  x,y,z
_cell_length_a	15.711784
_cell_length_b	10.540510
_cell_length_c	14.185569
_cell_angle_alpha	76.714084
_cell_angle_beta	107.179161
_cell_angle_gamma	102.051056
loop_
_atom_site_label
_atom_site_type_symbol
_atom_site_fract_x
_atom_site_fract_y
_atom_site_fract_z
O1	O	1.131703	0.717923	-0.083440
O2	O	0.879449	0.620990	-0.083435
O3	O	1.011345	0.487349	-0.083437
O4	O	0.999807	0.851563	-0.083438
O5	O	1.050308	0.447877	0.083397
O6	O	0.918412	0.581518	0.083399
O7	O	1.170666	0.678450	0.083394
Cu8	Cu	1.048097	0.626380	0.098630
Cu9	Cu	1.002018	0.673060	-0.098671
O10	O	1.038770	0.812091	0.083396
C11	C	0.866630	0.585419	-0.000017
C12	C	0.770384	0.538222	-0.000016
C13	C	0.644353	0.360541	-0.000015
C14	C	0.734789	0.404903	-0.000016
C15	C	0.715548	0.627233	-0.000020
C16	C	0.625107	0.582890	-0.000024
C17	C	0.589517	0.449543	-0.000020
C18	C	0.570271	0.671892	-0.000029
C19	C	0.479839	0.627552	-0.000028
C20	C	0.444243	0.494210	-0.000021
C21	C	0.499085	0.405203	-0.000018
C22	C	0.605864	0.805237	-0.000026
C23	C	0.551028	0.894239	-0.000031
C24	C	0.460593	0.849901	-0.000037
C25	C	0.424997	0.716559	-0.000030
C26	C	0.405750	0.938908	-0.000039
C27	C	0.315318	0.894568	-0.000038
C28	C	0.334565	0.672218	-0.000029
C29	C	1.029966	0.419922	-0.000022
C30	C	1.027392	0.277814	-0.000028
C31	C	1.119109	0.101600	0.000352
C32	C	1.121763	0.249523	-0.000029
C33	C	0.956834	0.233804	-0.095296
C34	C	0.954741	0.086124	-0.095370
C35	C	0.997084	0.040541	0.094351
C36	C	1.001853	0.188605	0.095605
C37	C	1.183485	0.714022	-0.000026
C38	C	1.279729	0.761220	-0.000034
C39	C	1.020149	0.879519	-0.000021
C40	C	1.022721	1.021629	-0.000022
N41	N	1.080512	0.593549	0.237400
N42	N	0.969610	0.705884	-0.237441
C43	C	0.874373	0.802285	0.605054
C44	C	0.898933	0.777427	0.710075
C45	C	1.015751	0.659164	0.710034
C46	C	0.991197	0.684006	0.605010
C47	C	0.920509	0.755568	0.552529
C48	C	1.037333	0.637289	0.552486
C49	C	1.012785	0.662136	0.447471
C50	C	0.942100	0.733698	0.394982
C51	C	0.895960	0.780414	0.447515
C52	C	1.108026	0.565736	0.604969
C53	C	1.154162	0.519019	0.552444
C54	C	1.129609	0.543857	0.447428
C55	C	1.058925	0.615420	0.394939
C56	C	1.175749	0.497141	0.394896
C57	C	1.151201	0.521987	0.289882
C58	C	1.034376	0.640266	0.289925
H59	H	0.779434	0.332417	-0.000015
C60	C	1.194375	0.290376	0.092227
N61	N	1.249071	0.321140	0.161717
H62	H	0.973825	0.296568	-0.166195
C63	C	0.605197	0.213854	-0.000021
N64	N	0.575704	0.103374	-0.000024
H65	H	0.744539	0.735804	-0.000020
H66	H	0.838392	0.838675	0.404782
C67	C	1.060168	-0.021690	0.191904
N68	N	1.107692	-0.068557	0.265376
C69	C	0.705342	0.854010	-0.000031
N70	N	0.780269	0.890745	-0.000037
C71	C	1.231915	0.440297	0.610186
N72	N	1.290478	0.380997	0.653677
H73	H	1.188771	0.483947	0.247116
H74	H	1.233311	0.438885	0.437641
H75	H	1.073309	0.600901	0.752777
H76	H	1.128014	0.545514	0.690479
C77	C	0.344764	0.445435	-0.000021
N78	N	0.269835	0.408698	-0.000023
C79	C	0.444914	1.085584	-0.000034
N80	N	0.474413	1.196062	-0.000030
H81	H	1.139797	0.090656	-0.067584
C82	C	0.254994	0.992476	-0.000053
N83	N	0.209556	1.066224	-0.000064
H84	H	0.926380	-0.013722	0.094994
C85	C	0.956579	0.718920	0.232189
N86	N	0.897975	0.778141	0.188702
H87	H	0.580019	1.002811	-0.000031
H88	H	0.934299	0.205232	0.101359
H89	H	1.171831	0.060065	0.068673
H90	H	0.470104	0.296621	-0.000026
C91	C	1.151536	0.332937	-0.092453
N92	N	1.173958	0.395765	-0.162072
H93	H	0.971124	0.077650	-0.166585
C94	C	0.858020	0.013429	-0.101229
N95	N	0.785168	-0.041317	-0.105651
C96	C	0.861860	0.256630	-0.100089
N97	N	0.790326	0.273828	-0.103698
C98	C	1.071558	0.226186	0.190821
N99	N	1.124054	0.254512	0.262536
H100	H	0.922116	0.753932	0.309473
C101	C	0.796576	0.880939	0.547318
N102	N	0.737971	0.940160	0.503831
H103	H	0.861358	0.815478	0.752835
H104	H	0.305583	0.563637	-0.000036
