data_functionalizedCrystal
_audit_creation_method	'MofGen! by Chris Wilmer'
_symmetry_space_group_name_H-M	'P1'
_symmetry_Int_Tables_number	1
_symmetry_cell_setting	triclinic
loop_
_symmetry_equiv_pos_as_xyz
  x,y,z
_cell_length_a	10.654550
_cell_length_b	11.892095
_cell_length_c	12.811415
_cell_angle_alpha	91.507040
_cell_angle_beta	84.262793
_cell_angle_gamma	93.940295
loop_
_atom_site_label
_atom_site_type_symbol
_atom_site_fract_x
_atom_site_fract_y
_atom_site_fract_z
O1	O	1.676297	0.108421	0.139754
O2	O	1.310865	0.109832	0.153700
O3	O	1.501455	0.093579	-0.004898
O4	O	1.485708	0.124675	0.298353
O5	O	1.485564	-0.093076	0.008305
O6	O	1.294974	-0.076822	0.166903
O7	O	1.660406	-0.078233	0.152957
Zn8	Zn	1.475167	-0.107163	0.162027
Zn9	Zn	1.496104	0.138762	0.144631
O10	O	1.469816	-0.061980	0.311556
C11	C	1.256118	0.016398	0.159278
C12	C	1.116664	0.016077	0.156215
N13	N	1.460887	-0.275001	0.173898
C14	C	1.492140	-0.003728	-0.037127
C15	C	1.488044	-0.015586	-0.152828
C16	C	1.037505	0.025669	0.249594
C17	C	0.906476	0.025392	0.246708
C18	C	0.933777	0.005936	0.057056
C19	C	1.064803	0.006205	0.059944
C20	C	1.089366	0.035541	0.345866
C21	C	1.010207	0.045135	0.439252
C22	C	0.879178	0.044858	0.436366
C23	C	0.827308	0.034988	0.340094
C24	C	1.715153	0.015204	0.147379
C25	C	1.854608	0.015532	0.150442
C26	C	1.609761	-0.524337	0.050084
C27	C	1.599788	-0.641828	0.058390
C28	C	1.430964	-0.627475	0.198810
C29	C	1.440937	-0.509985	0.190504
C30	C	1.530339	-0.458420	0.116140
C31	C	1.540317	-0.340926	0.107840
C32	C	1.371487	-0.326577	0.248254
C33	C	1.361515	-0.444067	0.256560
N34	N	1.510394	0.306599	0.132751
C35	C	1.497653	0.165646	-0.384629
C36	C	1.493805	0.154511	-0.493341
C37	C	1.476493	-0.048992	-0.478967
C38	C	1.480340	-0.037856	-0.370254
C39	C	1.490922	0.069466	-0.323090
C40	C	1.494779	0.080601	-0.214376
C41	C	1.477458	-0.122901	-0.200003
C42	C	1.473610	-0.134036	-0.308715
C43	C	1.479131	0.035330	0.343784
C44	C	1.483227	0.047195	0.459486
H45	H	1.196056	0.035772	0.348226
C46	C	1.514389	0.365683	-0.409753
C47	C	1.509289	0.283611	-0.332778
H48	H	1.521565	0.438509	-0.377740
H49	H	1.585608	0.356352	-0.459269
H50	H	1.439439	0.357857	-0.444440
H51	H	1.584243	0.291431	-0.298096
H52	H	1.438064	0.292946	-0.283243
H53	H	1.306821	-0.272892	0.302044
H54	H	1.682564	-0.482352	-0.010459
C55	C	1.667945	-0.696414	-0.118890
C56	C	1.687091	-0.714286	-0.014220
H57	H	1.721849	-0.741143	-0.163718
H58	H	1.582341	-0.716920	-0.129478
H59	H	1.686681	-0.619057	-0.134465
H60	H	1.668346	-0.791641	0.001358
H61	H	1.772714	-0.693786	-0.003627
H62	H	0.891535	-0.002081	-0.021326
C63	C	0.970059	0.064329	0.626425
C64	C	1.067215	0.055976	0.545072
H65	H	1.005254	0.071014	0.691754
H66	H	0.925083	0.128903	0.616750
H67	H	0.913961	-0.001279	0.625951
H68	H	1.123308	0.121588	0.545541
H69	H	1.112211	-0.008605	0.554749
H70	H	0.814728	0.052659	0.512406
C71	C	1.565410	-0.312026	-0.340863
C72	C	1.461983	-0.252004	-0.360560
H73	H	1.558229	-0.384858	-0.372863
H74	H	1.641402	-0.272795	-0.369057
H75	H	1.566728	-0.319145	-0.267307
H76	H	1.460671	-0.244878	-0.434116
H77	H	1.385971	-0.291245	-0.332371
C78	C	1.179696	-0.574062	0.287209
C79	C	1.263252	-0.500760	0.338298
H80	H	1.119040	-0.609064	0.337675
H81	H	1.137801	-0.532717	0.240260
H82	H	1.225584	-0.630130	0.249056
H83	H	1.217365	-0.444687	0.376444
H84	H	1.305150	-0.542106	0.385264
C85	C	1.391778	0.261144	-0.612997
C86	C	1.501200	0.260230	-0.560991
H87	H	1.396340	0.326417	-0.654757
H88	H	1.384939	0.195642	-0.656641
H89	H	1.319846	0.262012	-0.562859
H90	H	1.573132	0.259354	-0.611130
H91	H	1.508052	0.325750	-0.517344
C92	C	0.640374	0.135841	0.380790
C93	C	0.683278	0.034684	0.336915
H94	H	0.551460	0.135658	0.378820
H95	H	0.659924	0.143074	0.451481
H96	H	0.680628	0.197393	0.341810
H97	H	0.643031	-0.026868	0.375900
H98	H	0.663716	0.027439	0.266212
C99	C	1.352816	-0.224767	-0.489293
C100	C	1.464861	-0.166946	-0.530840
H101	H	1.345637	-0.297582	-0.521328
H102	H	1.354156	-0.231923	-0.415753
H103	H	1.282666	-0.184016	-0.502638
H104	H	1.535012	-0.207693	-0.517488
H105	H	1.463532	-0.159795	-0.604397
C106	C	1.078640	-0.013028	-0.127811
C107	C	1.151825	-0.004324	-0.042700
H108	H	1.132367	-0.019522	-0.191179
H109	H	1.021411	-0.077817	-0.120396
H110	H	1.032523	0.052366	-0.129589
H111	H	1.197934	-0.069722	-0.040918
H112	H	1.209075	0.060472	-0.050117
C113	C	1.706177	-0.366920	-0.030133
C114	C	1.638580	-0.284243	0.026096
H115	H	1.766834	-0.331926	-0.080604
H116	H	1.748073	-0.408248	0.016828
H117	H	1.649466	-0.416645	-0.064770
H118	H	1.695291	-0.234523	0.060741
H119	H	1.596683	-0.242897	-0.020871
C120	C	1.475667	-0.196198	-0.026974
C121	C	1.470055	-0.228631	-0.132356
H122	H	1.471093	-0.261472	0.014787
H123	H	1.552933	-0.153328	-0.019536
H124	H	1.406766	-0.151814	-0.004700
H125	H	1.538962	-0.273009	-0.154632
H126	H	1.392779	-0.271520	-0.139798
H127	H	1.358166	-0.669476	0.259348
H128	H	1.503399	0.167989	-0.175977
