data_functionalizedCrystal
_audit_creation_method	'MofGen! by Chris Wilmer'
_symmetry_space_group_name_H-M	'P1'
_symmetry_Int_Tables_number	1
_symmetry_cell_setting	triclinic
loop_
_symmetry_equiv_pos_as_xyz
  x,y,z
_cell_length_a	12.759395
_cell_length_b	12.759394
_cell_length_c	14.908694
_cell_angle_alpha	93.271327
_cell_angle_beta	86.684616
_cell_angle_gamma	90.014544
loop_
_atom_site_label
_atom_site_type_symbol
_atom_site_fract_x
_atom_site_fract_y
_atom_site_fract_z
Zn1	Zn	1.640512	-0.452505	-0.510084
Zn2	Zn	1.630280	-0.618074	-0.359234
Zn3	Zn	1.454686	-0.442412	-0.359244
Zn4	Zn	1.464803	-0.628142	-0.510049
O5	O	1.547570	-0.535283	-0.434653
O6	O	1.786177	-0.474478	-0.490084
O7	O	1.598471	-0.586335	-0.232993
O8	O	1.479384	-0.296731	-0.379272
O9	O	1.778659	-0.596121	-0.379256
O10	O	1.615910	-0.304146	-0.490093
O11	O	1.469463	-0.457277	-0.232999
O12	O	1.309006	-0.467040	-0.379238
O13	O	1.496627	-0.613280	-0.636296
O14	O	1.316439	-0.603494	-0.490033
O15	O	1.625720	-0.484240	-0.636322
O16	O	1.608281	-0.766429	-0.379222
O17	O	1.486706	-0.773826	-0.490024
C18	C	1.274602	-0.535265	-0.434633
C19	C	1.157826	-0.535284	-0.434646
C20	C	0.946171	-0.677605	-0.549866
C21	C	1.004925	-0.748743	-0.607454
C22	C	1.114646	-0.748729	-0.607442
C23	C	1.165614	-0.677572	-0.549834
C24	C	1.106860	-0.606435	-0.492246
C25	C	0.997137	-0.606454	-0.492266
C26	C	1.099071	-0.464147	-0.377058
C27	C	0.989351	-0.464154	-0.377073
C28	C	1.150039	-0.392990	-0.319450
C29	C	1.091285	-0.321846	-0.261865
C30	C	0.981558	-0.321862	-0.261880
C31	C	0.930596	-0.393016	-0.319485
C32	C	1.547511	-0.808250	-0.434638
C33	C	1.547584	-0.925028	-0.434662
C34	C	1.689653	-0.932597	-0.550146
C35	C	1.760722	-0.991242	-0.607895
C36	C	1.760785	-1.100965	-0.607915
C37	C	1.689771	-1.152044	-0.550181
C38	C	1.618703	-1.093399	-0.492432
C39	C	1.618649	-0.983674	-0.492417
C40	C	1.476630	-1.085831	-0.376953
C41	C	1.476569	-0.976108	-0.376928
C42	C	1.405615	-1.136911	-0.319219
C43	C	1.334550	-1.078265	-0.261464
C44	C	1.334490	-0.968535	-0.261446
C45	C	1.405501	-0.917462	-0.319178
C46	C	1.821605	-0.535302	-0.434672
C47	C	1.938382	-0.535310	-0.434681
C48	C	1.563444	-0.551009	-0.669958
C49	C	1.570208	-0.557710	-0.770231
C50	C	1.547660	-0.261252	-0.434687
C51	C	1.547698	-0.144476	-0.434702
C52	C	1.448558	-0.435918	-0.958664
C53	C	1.454910	-0.442211	-1.052879
C54	C	1.589258	-0.576594	-1.052879
C55	C	1.582906	-0.570301	-0.958664
C56	C	1.512555	-0.499959	-0.911559
C57	C	1.506209	-0.493662	-0.817342
C58	C	1.640551	-0.628050	-0.817344
C59	C	1.646903	-0.634343	-0.911559
C60	C	1.531819	-0.519543	-0.200263
C61	C	1.525259	-0.512546	-0.099990
H62	H	1.132792	-0.263921	-0.214962
O63	O	1.380169	-0.367729	-0.912800
C64	C	1.308603	-0.423903	-0.858306
H65	H	1.344679	-0.502584	-0.844192
H66	H	1.233186	-0.437862	-0.894605
C67	C	1.239260	-0.263486	-0.786147
C68	C	1.283574	-0.360119	-0.768805
H69	H	1.223817	-0.224140	-0.730940
H70	H	1.287473	-0.225639	-0.822862
H71	H	1.176418	-0.275133	-0.816398
H72	H	1.346421	-0.348472	-0.738565
H73	H	1.235371	-0.397963	-0.732082
O74	O	0.955534	-0.817808	-0.663543
C75	C	0.988424	-0.800991	-0.753485
H76	H	1.068228	-0.760732	-0.755399
H77	H	0.928747	-0.749065	-0.783952
C78	C	0.899146	-0.956594	-0.805640
C79	C	0.997167	-0.907156	-0.807991
H80	H	0.904535	-1.022080	-0.839264
H81	H	0.876983	-0.967923	-0.745045
H82	H	0.849425	-0.913311	-0.831028
H83	H	1.046882	-0.950432	-0.782593
H84	H	1.019338	-0.895837	-0.868584
O85	O	1.265674	-1.128046	-0.205418
C86	C	1.280945	-1.237466	-0.217842
H87	H	1.364004	-1.254354	-0.247449
H88	H	1.221840	-1.271834	-0.265848
C89	C	1.163252	-1.267014	-0.090207
C90	C	1.265270	-1.287755	-0.126564
H91	H	1.153578	-1.298036	-0.033905
H92	H	1.152960	-1.193295	-0.081838
H93	H	1.114009	-1.295654	-0.130221
H94	H	1.314510	-1.259104	-0.086556
H95	H	1.275569	-1.361470	-0.134925
H96	H	1.405669	-1.226253	-0.319242
O97	O	1.715126	-0.702815	-0.957279
C98	C	1.690609	-0.805986	-0.934224
H99	H	1.604929	-0.809565	-0.908316
H100	H	1.743244	-0.829790	-0.879538
C101	C	1.813698	-0.877300	-1.049732
C102	C	1.708462	-0.881698	-1.017918
H103	H	1.824715	-0.924004	-1.101356
H104	H	1.830220	-0.807792	-1.065262
H105	H	1.857549	-0.897134	-1.004152
H106	H	1.664615	-0.861851	-1.063493
H107	H	1.691934	-0.951205	-1.002397
H108	H	1.818539	-0.949644	-0.654904
O109	O	1.265492	-0.911413	-0.205432
C110	C	1.280679	-0.803613	-0.217772
H111	H	1.319723	-0.793221	-0.287412
H112	H	1.333045	-0.768882	-0.164291
C113	C	1.125835	-0.759576	-0.123890
C114	C	1.173781	-0.746812	-0.209426
H115	H	1.059897	-0.724536	-0.118738
H116	H	1.115605	-0.832202	-0.115573
H117	H	1.169484	-0.730634	-0.079332
H118	H	1.130139	-0.775765	-0.253982
H119	H	1.184002	-0.674188	-0.217750
H120	H	1.402797	-0.390061	-1.091228
H121	H	0.856831	-0.677614	-0.549890
O122	O	1.437812	-0.425478	-0.771482
C123	C	1.366251	-0.481658	-0.716989
H124	H	1.402338	-0.560333	-0.702869
H125	H	1.290839	-0.495632	-0.753290
C126	C	1.296882	-0.321247	-0.644839
C127	C	1.341209	-0.417873	-0.627491
H128	H	1.281430	-0.281900	-0.589634
H129	H	1.345091	-0.283396	-0.681554
H130	H	1.234043	-0.332906	-0.675093
H131	H	1.404052	-0.406213	-0.597249
H132	H	1.293010	-0.455720	-0.590769
H133	H	1.162484	-0.806658	-0.654333
O134	O	1.657690	-0.644782	-1.098691
C135	C	1.729218	-0.588624	-1.153235
H136	H	1.733842	-0.503983	-1.124851
H137	H	1.701525	-0.589766	-1.224628
C138	C	1.832832	-0.744032	-1.189576
C139	C	1.838518	-0.640077	-1.154711
H140	H	1.900253	-0.775771	-1.190491
H141	H	1.784641	-0.781868	-1.152832
H142	H	1.809751	-0.744969	-1.249068
H143	H	1.861587	-0.639142	-1.095217
H144	H	1.886716	-0.602241	-1.191445
H145	H	1.692665	-0.680194	-0.778981
O146	O	0.924597	-0.252800	-0.205809
C147	C	0.945299	-0.269608	-0.115860
H148	H	1.024825	-0.309860	-0.113927
H149	H	0.881473	-0.321536	-0.085402
C150	C	0.849029	-0.114007	-0.063734
C151	C	0.946708	-0.163438	-0.061359
H152	H	0.849894	-0.048519	-0.030113
H153	H	0.835078	-0.102686	-0.124334
H154	H	0.795851	-0.157292	-0.038354
H155	H	0.999882	-0.120160	-0.086749
H156	H	0.960668	-0.174750	-0.000762
O157	O	0.824019	-0.392857	-0.319577
C158	C	0.788960	-0.293758	-0.342871
H159	H	0.854866	-0.253025	-0.382258
H160	H	0.765184	-0.243864	-0.279070
C161	C	0.612808	-0.357957	-0.352922
C162	C	0.693752	-0.307932	-0.401304
H163	H	0.554076	-0.366698	-0.388962
H164	H	0.636426	-0.424721	-0.337224
H165	H	0.593007	-0.316372	-0.299756
H166	H	0.713560	-0.349523	-0.454462
H167	H	0.670135	-0.241175	-0.417012
O168	O	1.689707	-0.826022	-0.550265
C169	C	1.767641	-0.793512	-0.613584
H170	H	1.785902	-0.860232	-0.666314
H171	H	1.841858	-0.771614	-0.577858
C172	C	1.705423	-0.615506	-0.595014
C173	C	1.727845	-0.697450	-0.659783
H174	H	1.680878	-0.556247	-0.623509
H175	H	1.652919	-0.637407	-0.552352
H176	H	1.767275	-0.597271	-0.565247
H177	H	1.665991	-0.715692	-0.689540
H178	H	1.780338	-0.675549	-0.702450
H179	H	1.818645	-1.148715	-0.654949
H180	H	1.254955	-0.677576	-0.549822
H181	H	1.239380	-0.392988	-0.319441
H182	H	1.689821	-1.241388	-0.550209
H183	H	1.405463	-0.828120	-0.319166
