data_functionalizedCrystal
_audit_creation_method	'MofGen! by Chris Wilmer'
_symmetry_space_group_name_H-M	'P1'
_symmetry_Int_Tables_number	1
_symmetry_cell_setting	triclinic
loop_
_symmetry_equiv_pos_as_xyz
  x,y,z
_cell_length_a	10.654550
_cell_length_b	27.732048
_cell_length_c	9.130313
_cell_angle_alpha	89.990549
_cell_angle_beta	89.999724
_cell_angle_gamma	83.563793
loop_
_atom_site_label
_atom_site_type_symbol
_atom_site_fract_x
_atom_site_fract_y
_atom_site_fract_z
O1	O	1.664986	0.067886	-0.121708
O2	O	1.299235	0.074354	-0.121737
O3	O	1.493470	0.000794	-0.121693
O4	O	1.470751	0.141446	-0.121751
O5	O	1.493457	0.000792	0.121905
O6	O	1.299222	0.074351	0.121862
O7	O	1.664973	0.067884	0.121891
Cu8	Cu	1.482096	0.071117	0.144119
Cu9	Cu	1.482112	0.071120	-0.143965
O10	O	1.470738	0.141444	0.121848
C11	C	1.252451	0.073878	0.000060
C12	C	1.113067	0.072457	0.000050
C13	C	1.031761	0.115768	0.000036
C14	C	0.900796	0.114430	0.000063
C15	C	0.932457	0.026466	0.000110
C16	C	1.063419	0.027805	0.000094
C17	C	1.492986	-0.017217	0.000110
C18	C	1.491550	-0.070881	0.000122
C19	C	1.597290	-0.409038	0.000055
C20	C	1.591962	-0.610730	0.000034
O21	O	1.688653	-0.641384	-0.000022
N22	N	1.476789	-0.630571	0.000027
C23	C	1.362940	-0.599986	0.000015
O24	O	1.264855	-0.621490	-0.000008
C25	C	1.368269	-0.398294	0.000025
C26	C	1.483449	-0.378456	0.000047
C27	C	1.712461	-0.389199	0.000076
C28	C	1.713792	-0.338779	0.000089
C29	C	1.599951	-0.308197	0.000081
C30	C	1.484780	-0.328036	0.000061
C31	C	1.254421	-0.367709	0.000002
C32	C	1.255764	-0.317284	0.000001
C33	C	1.370944	-0.297446	0.000024
C34	C	1.372271	-0.247034	0.000066
N35	N	1.487444	-0.227193	0.000074
C36	C	1.601284	-0.257774	0.000081
C37	C	1.360150	-0.705877	0.000012
C38	C	1.358817	-0.756300	0.000012
C39	C	1.587840	-0.767041	0.000029
C40	C	1.589171	-0.716617	0.000039
C41	C	1.475323	-0.686036	0.000020
C42	C	1.604070	-0.151888	0.000110
C43	C	1.605391	-0.101463	0.000130
C44	C	1.376369	-0.090726	0.000105
C45	C	1.375047	-0.141147	0.000093
C46	C	1.488908	-0.171727	0.000091
O47	O	1.275631	-0.216352	0.000106
O48	O	1.699354	-0.236261	0.000071
C49	C	1.595959	-0.459458	0.000042
C50	C	1.480788	-0.479296	0.000021
C51	C	1.366947	-0.448715	0.000013
C52	C	1.479455	-0.529719	0.000021
C53	C	1.593296	-0.560301	0.000029
C54	C	1.708469	-0.540460	0.000036
C55	C	1.709799	-0.490040	0.000049
C56	C	1.251774	-0.468556	0.000006
C57	C	1.250453	-0.518976	-0.000006
C58	C	1.364293	-0.549558	0.000002
C59	C	1.711757	0.068360	0.000092
C60	C	1.851141	0.069781	0.000092
C61	C	1.471221	0.159455	0.000041
C62	C	1.472657	0.213118	0.000020
N63	N	1.482094	0.071115	0.346742
N64	N	1.482123	0.071118	-0.346587
C65	C	1.568130	0.038557	0.423413
C66	C	1.568142	0.038557	0.576750
C67	C	1.396079	0.103678	0.576731
C68	C	1.396062	0.103675	0.423397
H69	H	1.699189	-0.085314	0.000152
H70	H	1.326035	0.130189	0.639159
H71	H	1.638181	0.012044	0.361004
H72	H	1.638198	0.012044	0.639171
H73	H	0.892018	-0.009888	0.000154
C74	C	1.229074	-0.021722	0.125328
C75	C	1.152802	-0.019806	0.000108
H76	H	1.284249	-0.051115	0.125341
H77	H	1.277379	0.005059	0.125298
H78	H	1.177318	-0.020416	0.210270
H79	H	1.204558	-0.021108	-0.084835
H80	H	1.104494	-0.046595	0.000125
H81	H	1.325996	0.130189	0.360967
H82	H	1.072179	0.152126	0.000012
H83	H	0.834601	0.149698	0.000054
H84	H	1.807584	-0.322632	0.000101
C85	C	1.830584	-0.157427	0.000149
C86	C	1.729227	-0.185497	0.000121
H87	H	1.907848	-0.178176	0.000171
H88	H	1.826343	-0.137532	-0.084793
H89	H	1.826311	-0.137540	0.085105
H90	H	1.733496	-0.205381	-0.084841
H91	H	1.733471	-0.205399	0.085071
C92	C	1.938964	-0.394738	0.000119
C93	C	1.837610	-0.422810	0.000097
H94	H	2.016230	-0.415486	0.000150
H95	H	1.934723	-0.374847	-0.084829
H96	H	1.934685	-0.374848	0.085068
H97	H	1.841883	-0.442697	-0.084858
H98	H	1.841853	-0.442709	0.085054
H99	H	1.682961	-0.700469	0.000056
C100	C	1.719185	-0.829970	-0.125216
C101	C	1.712980	-0.800661	0.000018
H102	H	1.796441	-0.850724	-0.125233
H103	H	1.650403	-0.848996	-0.125200
H104	H	1.714940	-0.810063	-0.210149
H105	H	1.717215	-0.820568	0.084952
H106	H	1.781780	-0.781633	0.000016
C107	C	1.132576	-0.740606	-0.000017
C108	C	1.232207	-0.778102	-0.000001
H109	H	1.054411	-0.754065	-0.000041
H110	H	1.137856	-0.721170	0.084929
H111	H	1.137884	-0.721157	-0.084968
H112	H	1.226905	-0.797549	0.084956
H113	H	1.226925	-0.797547	-0.084956
C114	C	1.228749	-0.642942	-0.125229
C115	C	1.234993	-0.672267	-0.000002
H116	H	1.151477	-0.622197	-0.125235
H117	H	1.297511	-0.623905	-0.125215
H118	H	1.233004	-0.662836	-0.210167
H119	H	1.230747	-0.652373	0.084936
H120	H	1.166212	-0.691306	-0.000003
C121	C	1.120061	-0.418159	-0.125274
C122	C	1.127809	-0.389506	-0.000040
H123	H	1.041892	-0.431616	-0.125297
H124	H	1.125366	-0.398706	-0.210198
H125	H	1.187661	-0.443594	-0.125244
H126	H	1.060213	-0.364069	-0.000076
H127	H	1.122491	-0.408961	0.084906
C128	C	1.060970	-0.292599	-0.125252
C129	C	1.130613	-0.283670	-0.000017
H130	H	0.983706	-0.271850	-0.125253
H131	H	1.108244	-0.286533	-0.210175
H132	H	1.043710	-0.325470	-0.125245
H133	H	1.147881	-0.250799	-0.000029
H134	H	1.083329	-0.289733	0.084928
C135	C	1.148802	-0.125462	0.000062
C136	C	1.248441	-0.162956	0.000067
H137	H	1.070642	-0.138925	0.000024
H138	H	1.154073	-0.106031	0.085020
H139	H	1.154110	-0.106008	-0.084877
H140	H	1.243139	-0.182408	0.085012
H141	H	1.243168	-0.182395	-0.084900
H142	H	1.283683	-0.065817	0.000104
H143	H	1.803591	-0.473892	0.000067
H144	H	1.801162	-0.565368	0.000049
H145	H	1.156652	-0.535123	-0.000011
H146	H	1.159069	-0.443660	-0.000004
