data_functionalizedCrystal
_audit_creation_method	'MofGen! by Chris Wilmer'
_symmetry_space_group_name_H-M	'P1'
_symmetry_Int_Tables_number	1
_symmetry_cell_setting	triclinic
loop_
_symmetry_equiv_pos_as_xyz
  x,y,z
_cell_length_a	17.077404
_cell_length_b	10.686285
_cell_length_c	17.077396
_cell_angle_alpha	85.608118
_cell_angle_beta	89.980499
_cell_angle_gamma	85.631810
loop_
_atom_site_label
_atom_site_type_symbol
_atom_site_fract_x
_atom_site_fract_y
_atom_site_fract_z
Zn1	Zn	1.224115	-0.502339	-0.419935
Zn2	Zn	1.234129	-0.713359	-0.278625
Zn3	Zn	1.092848	-0.502383	-0.288680
Zn4	Zn	1.102918	-0.713284	-0.409853
O5	O	1.163502	-0.607841	-0.349273
O6	O	1.335290	-0.530344	-0.401201
O7	O	1.215364	-0.685422	-0.170110
O8	O	1.101856	-0.325802	-0.314519
O9	O	1.342648	-0.685379	-0.297382
O10	O	1.198297	-0.325769	-0.410951
O11	O	1.111566	-0.530419	-0.177497
O12	O	0.984337	-0.530347	-0.304743
O13	O	1.119018	-0.685252	-0.521039
O14	O	0.991734	-0.685295	-0.393768
O15	O	1.208061	-0.530271	-0.528447
O16	O	1.225128	-0.889924	-0.287606
O17	O	1.128728	-0.889869	-0.384018
C18	C	0.959553	-0.607818	-0.349253
C19	C	0.872305	-0.607839	-0.349261
C20	C	0.835193	-0.688642	-0.395530
C21	C	0.753212	-0.688645	-0.395542
C22	C	0.708346	-0.607850	-0.349281
C23	C	0.745463	-0.527038	-0.303011
C24	C	0.827441	-0.527030	-0.303003
C25	C	0.574594	-0.527063	-0.303028
C26	C	0.492610	-0.527072	-0.303035
C27	C	0.500365	-0.688678	-0.395568
C28	C	0.582344	-0.688670	-0.395560
C29	C	0.619455	-0.607859	-0.349288
C30	C	1.179129	-0.935681	-0.333644
C31	C	1.185885	-1.075932	-0.326983
C32	C	1.368248	-0.607865	-0.349294
C33	C	1.455498	-0.607875	-0.349303
C34	C	1.163545	-0.607748	-0.554022
C35	C	1.163564	-0.607709	-0.641274
C36	C	1.147836	-0.278722	-0.364981
C37	C	1.141160	-0.138470	-0.371675
C38	C	1.209930	-0.527004	-0.686123
C39	C	1.209937	-0.526962	-0.768105
C40	C	1.163582	-0.607632	-0.805237
C41	C	1.117211	-0.688341	-0.760382
C42	C	1.117200	-0.688375	-0.678402
C43	C	1.117239	-0.688265	-0.931256
C44	C	1.117251	-0.688232	-1.013242
C45	C	1.209976	-0.526851	-1.020959
C46	C	1.209965	-0.526886	-0.938979
C47	C	1.163595	-0.607596	-0.894130
C48	C	1.163500	-0.607843	-0.145325
C49	C	1.163617	-0.607527	-0.058091
H50	H	0.708925	-0.461248	-0.265348
C51	C	1.244598	-1.148547	-0.268399
C52	C	1.214939	-1.239284	-0.202476
C53	C	1.273651	-1.311898	-0.143892
C54	C	1.362021	-1.293775	-0.151232
C55	C	1.391685	-1.203034	-0.217157
C56	C	1.332973	-1.130420	-0.275741
H57	H	1.149518	-1.252703	-0.197040
H58	H	1.251691	-1.379071	-0.095090
H59	H	1.405483	-1.347529	-0.107865
H60	H	1.457106	-1.189615	-0.222593
H61	H	1.354932	-1.063247	-0.324543
H62	H	1.079435	-0.754081	-0.641887
H63	H	0.871718	-0.754439	-0.433198
H64	H	1.097701	-1.084717	-0.415034
H65	H	0.723000	-0.754444	-0.433218
H66	H	0.618873	-0.754467	-0.433225
C67	C	1.260922	-0.438263	-0.645281
C68	C	1.247687	-0.294813	-0.663399
C69	C	1.298678	-0.206066	-0.622560
C70	C	1.362904	-0.260771	-0.563603
C71	C	1.376142	-0.404229	-0.545482
C72	C	1.325151	-0.492975	-0.586321
H73	H	1.200140	-0.254311	-0.707045
H74	H	1.288878	-0.099869	-0.635974
H75	H	1.400650	-0.195075	-0.533371
H76	H	1.423688	-0.444731	-0.501836
H77	H	1.334951	-0.599172	-0.572906
C78	C	1.260942	-0.438182	-0.817435
C79	C	1.350668	-0.448500	-0.805688
C80	C	1.401674	-0.359712	-0.855016
C81	C	1.362954	-0.260604	-0.916092
C82	C	1.273223	-0.250281	-0.927842
C83	C	1.222217	-0.339070	-0.878513
H84	H	1.379335	-0.521869	-0.760474
H85	H	1.468099	-0.367354	-0.846318
H86	H	1.400711	-0.194877	-0.952607
H87	H	1.244555	-0.176913	-0.973056
H88	H	1.155792	-0.331428	-0.887212
H89	H	1.247716	-0.461204	-0.908748
H90	H	1.247732	-0.461131	-1.057480
H91	H	1.079503	-0.753918	-1.043473
H92	H	0.857656	-0.461225	-0.265331
H93	H	1.079466	-0.753968	-0.894743
C94	C	1.066231	-0.777091	-0.801231
C95	C	1.079476	-0.920539	-0.783109
C96	C	1.028503	-1.009300	-0.823957
C97	C	0.964286	-0.954612	-0.882929
C98	C	0.951038	-0.811156	-0.901054
C99	C	1.002011	-0.722395	-0.860205
H100	H	1.127016	-0.961029	-0.739452
H101	H	1.038310	-1.115496	-0.810540
H102	H	0.926553	-1.020318	-0.913167
H103	H	0.903498	-0.770666	-0.944710
H104	H	0.992204	-0.616200	-0.873623
C105	C	0.459547	-0.777571	-0.446469
C106	C	0.369374	-0.777584	-0.446484
C107	C	0.328552	-0.866481	-0.497378
C108	C	0.377903	-0.955365	-0.548256
C109	C	0.468081	-0.955356	-0.548243
C110	C	0.508903	-0.866459	-0.497349
H111	H	0.332836	-0.711784	-0.408819
H112	H	0.261796	-0.866488	-0.497387
H113	H	0.347684	-1.021172	-0.585931
H114	H	0.504618	-1.021156	-0.585908
H115	H	0.575659	-0.866452	-0.497339
C116	C	0.615422	-0.438169	-0.252134
C117	C	0.597314	-0.294738	-0.265526
C118	C	0.638144	-0.205850	-0.214632
C119	C	0.697082	-0.260392	-0.150346
C120	C	0.715192	-0.403831	-0.136951
C121	C	0.674362	-0.492719	-0.187845
H122	H	0.553683	-0.254355	-0.313117
H123	H	0.624737	-0.099667	-0.224549
H124	H	0.727307	-0.194592	-0.112672
H125	H	0.758824	-0.444213	-0.089361
H126	H	0.687769	-0.598902	-0.177929
H127	H	0.456080	-0.461267	-0.265375
