data_functionalizedCrystal
_audit_creation_method	'MofGen! by Chris Wilmer'
_symmetry_space_group_name_H-M	'P1'
_symmetry_Int_Tables_number	1
_symmetry_cell_setting	triclinic
loop_
_symmetry_equiv_pos_as_xyz
  x,y,z
_cell_length_a	10.654562
_cell_length_b	8.597304
_cell_length_c	9.130313
_cell_angle_alpha	82.298826
_cell_angle_beta	89.996930
_cell_angle_gamma	84.911941
loop_
_atom_site_label
_atom_site_type_symbol
_atom_site_fract_x
_atom_site_fract_y
_atom_site_fract_z
O1	O	1.668995	0.220551	-0.149721
O2	O	1.303630	0.241535	-0.152350
O3	O	1.493504	0.002656	-0.122213
O4	O	1.479121	0.459430	-0.179859
O5	O	1.493501	0.002662	0.121385
O6	O	1.303628	0.241541	0.091248
O7	O	1.668993	0.220557	0.093877
Cu8	Cu	1.486310	0.231050	0.114805
Cu9	Cu	1.486313	0.231042	-0.173278
O10	O	1.479119	0.459436	0.063739
C11	C	1.256823	0.239993	-0.030354
C12	C	1.117356	0.235371	-0.029764
C13	C	1.051812	0.233218	0.103282
C14	C	0.920767	0.228888	0.103804
C15	C	0.920820	0.228869	-0.161778
C16	C	1.051864	0.233188	-0.162297
C17	C	1.051780	0.233236	0.256613
C18	C	0.920735	0.228906	0.257135
C19	C	1.491958	-0.055829	0.006965
C20	C	1.487342	-0.230106	0.028951
C21	C	1.715800	0.222099	-0.028123
C22	C	1.855267	0.226721	-0.028723
C23	C	1.480664	0.517921	-0.065442
C24	C	1.485281	0.692197	-0.087437
N25	N	1.486317	0.231054	0.317427
N26	N	1.486315	0.231025	-0.375899
C27	C	1.570415	0.125315	0.407419
C28	C	1.570412	0.125296	0.560758
C29	C	1.402208	0.336770	0.534097
C30	C	1.402206	0.336780	0.380762
C31	C	1.667530	0.003227	0.422812
C32	C	1.667527	0.003208	0.576152
H33	H	0.867480	0.227092	-0.269682
H34	H	1.764181	0.030107	0.614368
F35	F	1.485014	-0.317428	0.181201
F36	F	1.121618	0.235449	-0.303899
F37	F	1.312685	0.449301	0.284988
F38	F	1.312695	0.449283	0.601516
F39	F	1.638667	-0.154464	0.388307
H40	H	1.758917	0.041461	0.370424
F41	F	1.626845	-0.145804	0.657115
F42	F	0.881248	0.079406	0.338439
H43	H	1.097464	0.124762	0.329186
H44	H	1.081962	0.347713	0.289742
F45	F	1.487591	-0.220484	-0.239680
H46	H	0.875024	0.337385	0.302310
