data_functionalizedCrystal
_audit_creation_method	'MofGen! by Chris Wilmer'
_symmetry_space_group_name_H-M	'P1'
_symmetry_Int_Tables_number	1
_symmetry_cell_setting	triclinic
loop_
_symmetry_equiv_pos_as_xyz
  x,y,z
_cell_length_a	16.109301
_cell_length_b	17.038272
_cell_length_c	15.186229
_cell_angle_alpha	89.995962
_cell_angle_beta	89.999362
_cell_angle_gamma	87.286518
loop_
_atom_site_label
_atom_site_type_symbol
_atom_site_fract_x
_atom_site_fract_y
_atom_site_fract_z
O1	O	1.110268	0.100495	-0.073174
O2	O	0.869094	0.113001	-0.073188
O3	O	0.988247	-0.007067	-0.073174
O4	O	0.991114	0.220563	-0.073187
O5	O	0.988239	-0.007069	0.073284
O6	O	0.869085	0.113000	0.073270
O7	O	1.110259	0.100493	0.073284
Zn8	Zn	0.989671	0.106746	0.096530
Zn9	Zn	0.989682	0.106748	-0.096434
O10	O	0.991105	0.220562	0.073270
C11	C	0.838079	0.112494	0.000039
C12	C	0.745676	0.110975	0.000034
C13	C	0.528212	0.178690	0.000040
C14	C	0.441390	0.177257	0.000046
C15	C	0.451147	0.034799	0.000051
C16	C	0.537968	0.036233	0.000051
C17	C	0.576498	0.108181	0.000042
C18	C	0.402855	0.105314	0.000047
C19	C	0.308719	0.103759	0.000053
C20	C	0.670640	0.109736	0.000037
C21	C	0.985636	-0.036196	0.000055
C22	C	0.977857	-0.122989	0.000054
C23	C	1.049277	-0.173104	0.000059
C24	C	1.041963	-0.254654	0.000050
C25	C	0.963228	-0.286089	0.000043
C26	C	0.891802	-0.235967	0.000035
C27	C	0.899116	-0.154418	0.000038
C28	C	0.937385	-0.531846	0.000029
C29	C	0.930076	-0.613402	0.000029
C30	C	1.080238	-0.632083	0.000043
C31	C	1.087546	-0.550532	0.000051
C32	C	1.016120	-0.500418	0.000038
C33	C	0.955749	-0.369446	0.000037
C34	C	1.023599	-0.417062	0.000038
C35	C	1.141274	0.101001	0.000055
C36	C	1.233677	0.102519	0.000054
C37	C	0.993717	0.249691	0.000039
C38	C	1.001496	0.336484	0.000034
N39	N	0.989669	0.106744	0.228223
N40	N	0.989690	0.106744	-0.228126
C41	C	1.042451	0.053596	0.453952
C42	C	1.042453	0.053594	0.546141
C43	C	0.936902	0.159895	0.546138
C44	C	0.936896	0.159893	0.453950
C45	C	0.989675	0.106744	0.407859
C46	C	0.989684	0.106745	0.592237
C47	C	0.989686	0.106743	0.692193
C48	C	0.989672	0.106744	0.307897
H49	H	0.419765	-0.023778	0.000064
O50	O	0.885560	0.211552	0.590776
C51	C	0.838989	0.258473	0.530322
H52	H	0.835782	0.226416	0.464610
H53	H	0.773439	0.270381	0.556961
H54	H	0.870087	0.316563	0.520508
H55	H	0.840958	-0.113615	0.000033
O56	O	0.394449	0.245728	0.000195
C57	C	0.343922	0.249155	0.076035
H58	H	0.372854	0.209169	0.129056
H59	H	0.338622	0.312136	0.101489
H60	H	0.279432	0.228932	0.058890
H61	H	0.577284	-0.021187	0.000055
H62	H	1.100122	-0.295455	0.000056
H63	H	1.085427	0.010315	0.583667
O64	O	1.125826	-0.142702	0.000025
C65	C	1.187294	-0.204426	0.000047
H66	H	1.160067	-0.259816	-0.027681
H67	H	1.241918	-0.187398	-0.042473
H68	H	1.209600	-0.215977	0.070310
H69	H	0.879224	-0.491053	0.000019
O70	O	1.164094	-0.520129	0.000022
C71	C	1.225565	-0.581850	0.000051
H72	H	1.198347	-0.637239	-0.027687
H73	H	1.280196	-0.564816	-0.042457
H74	H	1.247860	-0.593404	0.070317
H75	H	1.138389	-0.672894	0.000051
H76	H	0.865956	-0.638991	0.000037
H77	H	0.827693	-0.261567	0.000023
O78	O	0.879221	-0.399888	0.000151
C79	C	0.835335	-0.374306	0.076014
H80	H	0.861989	-0.317754	0.101308
H81	H	0.766901	-0.362971	0.058952
H82	H	0.841628	-0.421504	0.129124
O83	O	1.093768	0.002056	0.409119
C84	C	1.148006	0.043906	0.355739
H85	H	1.153828	0.105560	0.383511
H86	H	1.211811	0.011986	0.354656
H87	H	1.122240	0.048014	0.285888
O88	O	0.565545	0.248626	-0.000079
C89	C	0.541376	0.291603	-0.075941
H90	H	0.479727	0.270308	-0.101229
H91	H	0.533940	0.356713	-0.058880
H92	H	0.590917	0.282542	-0.129055
H93	H	1.087705	-0.391465	0.000025
O94	O	0.885745	0.211560	0.409075
C95	C	0.933680	0.259816	0.355756
H96	H	0.996533	0.228691	0.341946
H97	H	0.899851	0.272173	0.290930
H98	H	0.943418	0.317603	0.391276
