data_functionalizedCrystal
_audit_creation_method	'MofGen! by Chris Wilmer'
_symmetry_space_group_name_H-M	'P1'
_symmetry_Int_Tables_number	1
_symmetry_cell_setting	triclinic
loop_
_symmetry_equiv_pos_as_xyz
  x,y,z
_cell_length_a	18.215407
_cell_length_b	12.594516
_cell_length_c	18.215399
_cell_angle_alpha	90.023782
_cell_angle_beta	90.016899
_cell_angle_gamma	90.009275
loop_
_atom_site_label
_atom_site_type_symbol
_atom_site_fract_x
_atom_site_fract_y
_atom_site_fract_z
Zn1	Zn	1.125139	-0.423825	0.416080
Zn2	Zn	1.125075	-0.601823	0.293022
Zn3	Zn	1.002071	-0.423851	0.293033
Zn4	Zn	1.002065	-0.601754	0.416053
O5	O	1.063588	-0.512813	0.354547
O6	O	1.228115	-0.447455	0.399762
O7	O	1.108734	-0.578254	0.190039
O8	O	1.018426	-0.274902	0.309371
O9	O	1.228068	-0.578229	0.309352
O10	O	1.108843	-0.274883	0.399773
O11	O	1.018364	-0.447498	0.190047
O12	O	0.899086	-0.447432	0.309346
O13	O	1.018415	-0.578112	0.519041
O14	O	0.899082	-0.578137	0.399728
O15	O	1.108837	-0.447388	0.519060
O16	O	1.108729	-0.750759	0.309327
O17	O	1.018354	-0.750709	0.399718
C18	C	0.872381	-0.512781	0.354536
C19	C	0.790583	-0.512792	0.354548
C20	C	0.525542	-0.580983	0.401545
C21	C	0.602401	-0.580974	0.401541
C22	C	0.602375	-0.444667	0.307563
C23	C	0.525517	-0.444683	0.307563
C24	C	0.487103	-0.512839	0.354558
C25	C	0.640819	-0.512814	0.354554
C26	C	0.724153	-0.512804	0.354550
C27	C	0.403764	-0.512851	0.354562
C28	C	1.063554	-0.789354	0.354534
C29	C	1.063606	-0.907660	0.354553
C30	C	1.112818	-0.976901	0.305442
C31	C	1.130801	-1.047606	0.372613
C32	C	1.045716	-1.047754	0.287426
C33	C	1.081623	-0.976806	0.421759
C34	C	0.996507	-0.976948	0.336527
C35	C	1.014464	-1.047620	0.403743
C36	C	1.255541	-0.512847	0.354559
C37	C	1.337339	-0.512861	0.354564
C38	C	1.063632	-0.512740	0.546500
C39	C	1.063652	-0.512709	0.628299
C40	C	1.063642	-0.235192	0.354576
C41	C	1.063665	-0.116887	0.354588
C42	C	1.063585	-0.512809	0.163341
C43	C	1.063709	-0.512541	0.081542
C44	C	1.110751	-0.444577	0.816504
C45	C	1.110760	-0.444546	0.893363
C46	C	1.016604	-0.580675	0.893332
C47	C	1.016592	-0.580700	0.816474
C48	C	1.063670	-0.512653	0.778063
C49	C	1.063691	-0.512597	0.931779
C50	C	1.063700	-0.512564	1.015113
C51	C	1.063660	-0.512684	0.694724
H52	H	0.494219	-0.389190	0.269297
C53	C	0.964794	-0.655589	0.774186
N54	N	0.925780	-0.711991	0.742335
C55	C	0.964820	-0.655522	0.935592
N56	N	0.925815	-0.711897	0.967422
H57	H	1.154442	-0.945849	0.263948
H58	H	0.633661	-0.389175	0.269302
C59	C	0.483289	-0.655967	0.453233
N60	N	0.451466	-0.712452	0.492164
H61	H	0.633694	-0.636465	0.439801
C62	C	1.102194	-0.934887	0.498492
N63	N	1.117690	-0.903312	0.556285
C64	C	1.207493	-1.089547	0.393235
N65	N	1.265259	-1.121136	0.408762
H66	H	0.972872	-1.078476	0.445338
C67	C	0.919839	-0.934968	0.315871
N68	N	0.862093	-0.903344	0.300304
H69	H	1.030559	-1.078917	0.230643
H70	H	1.149083	-0.389165	0.785232
H71	H	1.149097	-0.389110	0.924659
