data_functionalizedCrystal
_audit_creation_method	'MofGen! by Chris Wilmer'
_symmetry_space_group_name_H-M	'P1'
_symmetry_Int_Tables_number	1
_symmetry_cell_setting	triclinic
loop_
_symmetry_equiv_pos_as_xyz
  x,y,z
_cell_length_a	19.288840
_cell_length_b	19.288857
_cell_length_c	17.766277
_cell_angle_alpha	89.991474
_cell_angle_beta	89.983415
_cell_angle_gamma	83.129562
loop_
_atom_site_label
_atom_site_type_symbol
_atom_site_fract_x
_atom_site_fract_y
_atom_site_fract_z
O1	O	0.921362	0.086566	-0.062723
O2	O	1.421362	0.586566	0.437277
O3	O	0.719098	0.098273	-0.062698
O4	O	1.219098	0.598273	0.437302
O5	O	0.826077	-0.008712	-0.062702
O6	O	1.326077	0.491288	0.437298
O7	O	0.814383	0.193551	-0.062719
O8	O	1.314383	0.693551	0.437281
O9	O	0.826059	-0.008717	0.062486
O10	O	1.326059	0.491283	0.562486
O11	O	0.719080	0.098268	0.062491
O12	O	1.219080	0.598268	0.562491
O13	O	0.921343	0.086561	0.062465
O14	O	1.421343	0.586561	0.562465
Cu15	Cu	0.820210	0.092414	0.073909
Cu16	Cu	1.320210	0.592414	0.573909
Cu17	Cu	0.820232	0.092420	-0.074141
Cu18	Cu	1.320232	0.592420	0.425859
O19	O	0.814364	0.193546	0.062470
O20	O	1.314364	0.693546	0.562470
C21	C	0.693212	0.097897	-0.000100
C22	C	1.193212	0.597897	0.499900
C23	C	0.616108	0.096775	-0.000090
C24	C	1.116108	0.596775	0.499910
C25	C	0.579914	0.096239	-0.068332
C26	C	1.079914	0.596239	0.431668
C27	C	0.507468	0.095177	-0.068341
C28	C	1.007468	0.595177	0.431659
C29	C	0.471219	0.094637	-0.000104
C30	C	0.971219	0.594637	0.499896
C31	C	0.507420	0.095177	0.068147
C32	C	1.007420	0.595177	0.568147
C33	C	0.579865	0.096246	0.068154
C34	C	1.079865	0.596246	0.568154
C35	C	0.361884	0.052256	0.052168
C36	C	0.861884	0.552256	0.552168
C37	C	0.289442	0.051183	0.052158
C38	C	0.789442	0.551183	0.552158
C39	C	0.247775	0.091342	-0.000124
C40	C	0.747775	0.591342	0.499876
C41	C	0.278561	0.132566	-0.052408
C42	C	0.778561	0.632566	0.447592
C43	C	0.351006	0.133635	-0.052401
C44	C	0.851006	0.633635	0.447599
C45	C	0.392665	0.093478	-0.000105
C46	C	0.892665	0.593478	0.499895
C47	C	0.133026	0.089656	-0.068381
C48	C	0.633026	0.589656	0.431619
C49	C	0.060578	0.088598	-0.068387
C50	C	0.560578	0.588598	0.431613
C51	C	0.060533	0.088591	0.068103
C52	C	0.560533	0.588591	0.568103
C53	C	0.132979	0.089656	0.068107
C54	C	0.632979	0.589656	0.568107
C55	C	0.169222	0.090185	-0.000136
C56	C	0.669222	0.590185	0.499864
C57	C	0.825693	-0.034591	-0.000107
C58	C	1.325693	0.465409	0.499893
C59	C	0.824566	-0.111695	-0.000105
C60	C	1.324566	0.388305	0.499895
C61	C	0.824050	-0.147902	-0.068345
C62	C	1.324050	0.352098	0.431655
C63	C	0.822981	-0.220348	-0.068351
C64	C	1.322981	0.279652	0.431649
C65	C	0.822442	-0.256585	-0.000112
C66	C	1.322442	0.243415	0.499888
C67	C	0.822954	-0.220369	0.068137
C68	C	1.322954	0.279631	0.568137
C69	C	0.824016	-0.147923	0.068141
C70	C	1.324016	0.352077	0.568141
C71	C	0.861436	-0.376823	0.052158
C72	C	1.361436	0.123177	0.552158
C73	C	0.860379	-0.449267	0.052152
C74	C	1.360379	0.050733	0.552152
C75	C	0.819164	-0.480031	-0.000120
C76	C	1.319164	0.019969	0.499880
C77	C	0.779016	-0.438342	-0.052398
C78	C	1.279016	0.061658	0.447602
C79	C	0.780078	-0.365897	-0.052395
C80	C	1.280078	0.134103	0.447605
C81	C	0.821291	-0.335140	-0.000108
C82	C	1.321291	0.164860	0.499892
C83	C	0.817489	-0.594793	-0.068371
C84	C	1.317489	-0.094793	0.431629
C85	C	0.816416	-0.667239	-0.068374
C86	C	1.316416	-0.167239	0.431626
C87	C	0.816396	-0.667259	0.068116
C88	C	1.316396	-0.167259	0.568116
C89	C	0.817462	-0.594813	0.068117
C90	C	1.317462	-0.094813	0.568117
C91	C	0.818012	-0.558585	-0.000129
C92	C	1.318012	-0.058585	0.499871
C93	C	0.947229	0.086937	-0.000134
C94	C	1.447229	0.586937	0.499866
C95	C	1.024334	0.088059	-0.000149
C96	C	1.524334	0.588059	0.499851
C97	C	0.814749	0.219425	-0.000127
C98	C	1.314749	0.719425	0.499873
C99	C	0.815876	0.296528	-0.000134
C100	C	1.315876	0.796528	0.499866
N101	N	0.820199	0.092409	0.178039
N102	N	1.320199	0.592409	0.678039
N103	N	0.820248	0.092420	-0.178272
N104	N	1.320248	0.592420	0.321728
C105	C	0.867585	0.045059	0.217424
C106	C	1.367585	0.545059	0.717424
C107	C	0.867589	0.045056	0.296226
C108	C	1.367589	0.545056	0.796226
C109	C	0.820214	0.092414	0.335639
C110	C	1.320214	0.592414	0.835639
C111	C	0.772819	0.139768	0.296245
C112	C	1.272819	0.639768	0.796245
C113	C	0.772812	0.139765	0.217445
C114	C	1.272812	0.639765	0.717445
C115	C	0.810913	0.155703	0.460473
C116	C	1.310913	0.655703	0.960473
C117	C	0.810925	0.155707	0.539272
C118	C	1.310925	0.655707	1.039272
C119	C	0.820232	0.092423	0.578686
C120	C	1.320232	0.592423	1.078686
C121	C	0.829542	0.029132	0.539291
C122	C	1.329542	0.529132	1.039291
C123	C	0.829535	0.029129	0.460491
C124	C	1.329535	0.529129	0.960491
C125	C	0.820216	0.092422	0.421085
C126	C	1.320216	0.592422	0.921085
C127	C	0.867625	0.045066	0.703517
C128	C	1.367625	0.545066	1.203517
C129	C	0.867624	0.045061	0.782320
C130	C	1.367624	0.545061	1.282320
C131	C	0.772858	0.139779	0.782338
C132	C	1.272858	0.639779	1.282338
C133	C	0.772855	0.139777	0.703536
C134	C	1.272855	0.639777	1.203536
C135	C	0.820243	0.092421	0.664130
C136	C	1.320243	0.592421	1.164130
H137	H	0.477901	0.094739	0.123706
H138	H	0.977901	0.594739	0.623706
F139	F	0.021958	0.088023	0.140727
F140	F	0.521958	0.588023	0.640727
F141	F	0.801057	0.223065	0.418533
F142	F	1.301057	0.723065	0.918533
H143	H	0.734245	0.178327	0.328340
H144	H	1.234245	0.678327	0.828340
F145	F	0.903111	-0.493629	0.107787
F146	F	1.403111	0.006371	0.607787
F147	F	0.383768	0.177509	-0.108041
F148	F	0.883768	0.677509	0.391959
F149	F	0.818070	-0.556232	-0.141003
F150	F	1.318070	-0.056232	0.358997
H151	H	0.734272	0.178337	0.671467
H152	H	1.234272	0.678337	1.171467
H153	H	0.894998	-0.351781	0.094730
H154	H	1.394998	0.148219	0.594730
H155	H	0.609333	0.096683	0.123727
H156	H	1.109333	0.596683	0.623727
H157	H	0.906209	0.006500	0.814388
H158	H	1.406209	0.506500	1.314388
H159	H	0.815992	-0.696718	-0.123945
H160	H	1.315992	-0.196718	0.376055
H161	H	0.244637	0.165271	-0.094978
H162	H	0.744637	0.665271	0.405022
F163	F	0.824563	-0.109387	0.140775
F164	F	1.324563	0.390613	0.640775
F165	F	0.722376	0.190163	0.175527
F166	F	1.222376	0.690163	0.675527
F167	F	0.918026	-0.005343	0.338149
F168	F	1.418026	0.494657	0.838149
H169	H	0.162449	0.090088	0.123678
H170	H	0.662449	0.590088	0.623678
F171	F	0.171601	0.090224	-0.141011
F172	F	0.671601	0.590224	0.358989
H173	H	0.395804	0.019552	0.094745
H174	H	0.895804	0.519552	0.594745
F175	F	0.468940	0.094606	-0.140977
F176	F	0.968940	0.594606	0.359023
F177	F	0.256682	0.007322	0.107813
F178	F	0.756682	0.507322	0.607813
F179	F	0.918015	-0.005343	0.175487
F180	F	1.418015	0.494657	0.675487
F181	F	0.824632	-0.109349	-0.140979
F182	F	1.324632	0.390651	0.359021
H183	H	0.822513	-0.249877	0.123698
H184	H	1.322513	0.250123	0.623698
H185	H	0.609419	0.096669	-0.123902
H186	H	1.109419	0.596669	0.376098
F187	F	0.022058	0.088033	-0.141024
F188	F	0.522058	0.588033	0.358976
H189	H	0.803349	0.207242	0.571341
H190	H	1.303349	0.707242	1.071341
F191	F	0.822431	-0.258891	-0.140984
F192	F	1.322431	0.241109	0.359016
H193	H	0.734282	0.178337	0.814428
H194	H	1.234282	0.678337	1.314428
F195	F	0.737349	-0.321531	-0.108029
F196	F	1.237349	0.178469	0.391971
H197	H	0.745455	-0.463388	-0.094963
H198	H	1.245455	0.036612	0.405037
F199	F	0.839437	-0.038227	0.418567
F200	F	1.339437	0.461773	0.918567
H201	H	0.906208	0.006503	0.671431
H202	H	1.406208	0.506503	1.171431
F203	F	0.815819	-0.705821	0.140742
F204	F	1.315819	-0.205821	0.640742
F205	F	0.818011	-0.556277	0.140749
F206	F	1.318011	-0.056277	0.640749
F207	F	0.839452	-0.038225	0.581232
F208	F	1.339452	0.461775	1.081232
