data_functionalizedCrystal
_audit_creation_method	'MofGen! by Chris Wilmer'
_symmetry_space_group_name_H-M	'P1'
_symmetry_Int_Tables_number	1
_symmetry_cell_setting	triclinic
loop_
_symmetry_equiv_pos_as_xyz
  x,y,z
_cell_length_a	10.654541
_cell_length_b	10.654555
_cell_length_c	14.586319
_cell_angle_alpha	90.009790
_cell_angle_beta	90.006836
_cell_angle_gamma	84.486741
loop_
_atom_site_label
_atom_site_type_symbol
_atom_site_fract_x
_atom_site_fract_y
_atom_site_fract_z
O1	O	1.667857	0.176397	0.076207
O2	O	1.302378	0.193206	0.076214
O3	O	1.493513	0.002063	0.076210
O4	O	1.476722	0.367540	0.076211
O5	O	1.493485	0.002030	-0.076271
O6	O	1.302351	0.193173	-0.076267
O7	O	1.667829	0.176364	-0.076274
Cu8	Cu	1.485087	0.184766	-0.090193
Cu9	Cu	1.485120	0.184804	0.090133
O10	O	1.476694	0.367507	-0.076270
C11	C	1.255566	0.191956	-0.000025
C12	C	1.116123	0.188265	-0.000022
C13	C	1.492263	-0.044751	-0.000028
C14	C	1.488566	-0.184194	-0.000023
C15	C	1.481596	-0.446260	-0.166269
C16	C	1.483312	-0.380763	-0.249387
C17	C	1.486781	-0.249745	-0.249388
C18	C	1.488529	-0.184219	-0.166260
C19	C	1.486813	-0.249716	-0.083141
C20	C	1.483348	-0.380738	-0.083150
C21	C	1.486850	-0.249690	0.083096
C22	C	1.483390	-0.380710	0.083098
C23	C	1.488598	-0.184165	0.166224
C24	C	1.486891	-0.249663	0.249344
C25	C	1.483424	-0.380690	0.249341
C26	C	1.481674	-0.446207	0.166217
C27	C	1.088161	0.416829	-0.000010
C28	C	1.008671	0.529372	-0.000001
C29	C	0.877653	0.525896	0.000000
C30	C	0.826123	0.409865	-0.000011
C31	C	0.905613	0.297323	-0.000021
C32	C	1.036633	0.300811	-0.000019
C33	C	0.933574	0.068762	-0.000039
C34	C	1.064593	0.072235	-0.000034
C35	C	0.882044	-0.047268	-0.000051
C36	C	0.961534	-0.159814	-0.000054
C37	C	1.092560	-0.156333	-0.000054
C38	C	1.144082	-0.040308	-0.000043
C39	C	1.714641	0.177614	-0.000033
C40	C	1.854084	0.181305	-0.000030
C41	C	1.477944	0.414321	-0.000030
C42	C	1.481641	0.553764	-0.000029
N43	N	1.485073	0.184738	-0.217025
C44	C	1.408279	0.107914	-0.548052
C45	C	1.408268	0.107897	-0.452071
C46	C	1.561947	0.261650	-0.452014
C47	C	1.561963	0.261659	-0.547994
C48	C	1.485121	0.184794	-0.596010
C49	C	1.485095	0.184766	-0.404050
C50	C	1.485085	0.184748	-0.299983
C51	C	1.485133	0.184810	-0.700084
N52	N	1.485143	0.184823	0.216965
H53	H	1.478786	-0.552944	-0.166277
H54	H	1.481885	-0.434128	-0.317068
N55	N	0.740733	-0.051019	-0.000041
H56	H	0.720154	-0.141597	-0.000049
H57	H	0.703761	-0.006930	-0.056562
H58	H	1.624507	0.324232	-0.412908
N59	N	1.644840	0.344595	-0.599725
H60	H	1.633191	0.332933	-0.667813
H61	H	1.735958	0.320624	-0.582938
N62	N	1.488622	-0.179091	-0.339034
H63	H	1.486985	-0.240475	-0.391695
H64	H	1.567780	-0.134231	-0.342654
H65	H	1.157274	-0.247980	-0.000065
N66	N	1.492230	-0.042902	-0.166257
H67	H	1.493037	-0.011351	-0.231525
H68	H	1.570782	-0.020912	-0.133585
N69	N	1.325377	0.024984	-0.400347
H70	H	1.337027	0.036634	-0.332258
H71	H	1.349389	-0.066127	-0.417141
N72	N	0.905959	-0.284949	-0.000081
H73	H	0.810898	-0.270072	-0.000088
H74	H	0.934960	-0.334248	0.056442
N75	N	1.477952	-0.587522	0.166213
H76	H	1.399411	-0.609589	0.198850
H77	H	1.554899	-0.628467	0.198827
N78	N	1.488646	-0.178977	0.338994
H79	H	1.491054	-0.086034	0.326381
H80	H	1.565732	-0.211309	0.375349
N81	N	1.285394	-0.036563	-0.000045
H82	H	1.311478	0.009148	0.056483
H83	H	1.311353	0.009115	-0.056604
N84	N	1.492317	-0.042850	0.166215
H85	H	1.570860	-0.020789	0.133578
H86	H	1.493109	-0.011365	0.231506
N87	N	1.481604	-0.451334	0.338992
H88	H	1.483250	-0.389940	0.391647
H89	H	1.557901	-0.515176	0.342592
N90	N	1.325419	0.025001	-0.599847
H91	H	1.234258	0.048922	-0.583155
H92	H	1.349505	-0.066119	-0.583134
N93	N	1.229472	0.420576	0.000005
H94	H	1.250055	0.511153	0.000017
H95	H	1.266427	0.376484	-0.056524
H96	H	1.050642	0.623842	0.000006
H97	H	0.812932	0.617538	0.000002
H98	H	0.719440	0.407046	-0.000022
