data_functionalizedCrystal
_audit_creation_method	'MofGen! by Chris Wilmer'
_symmetry_space_group_name_H-M	'P1'
_symmetry_Int_Tables_number	1
_symmetry_cell_setting	triclinic
loop_
_symmetry_equiv_pos_as_xyz
  x,y,z
_cell_length_a	18.426585
_cell_length_b	12.477952
_cell_length_c	12.478028
_cell_angle_alpha	60.562684
_cell_angle_beta	84.702912
_cell_angle_gamma	63.146594
loop_
_atom_site_label
_atom_site_type_symbol
_atom_site_fract_x
_atom_site_fract_y
_atom_site_fract_z
Zr1	Zr	0.769131	1.078069	-0.041224
O2	O	0.815401	1.078066	-0.213077
O3	O	0.649957	1.078076	0.011453
O4	O	0.675654	1.283558	-0.194028
O5	O	0.888863	0.710490	0.154497
O6	O	0.684850	1.445646	-0.178996
O7	O	0.789703	0.872585	-0.007596
O8	O	0.638882	1.078077	0.188571
O9	O	0.934831	1.078060	-0.213071
O10	O	0.732839	1.199036	0.045143
O11	O	0.799978	0.957102	0.154893
O12	O	0.830234	1.199031	-0.087034
O13	O	0.897373	0.957097	0.022716
Zr14	Zr	0.941945	1.078059	0.241269
Zr15	Zr	0.783797	1.336581	-0.017250
Zr16	Zr	0.927279	0.819547	0.217295
Zr17	Zr	0.959609	1.078058	-0.041215
Zr18	Zr	0.751468	1.078070	0.241260
O19	O	1.061120	1.078053	0.188593
O20	O	0.836254	1.445638	-0.178989
O21	O	1.040267	0.710481	0.154504
O22	O	0.895676	1.078062	0.413122
O23	O	0.670810	1.445647	0.045541
O24	O	0.874822	0.710491	0.379034
O25	O	0.822214	1.445638	0.045548
O26	O	1.035422	0.872571	0.394073
O27	O	1.026226	0.710482	0.379041
O28	O	0.921373	1.283544	0.207641
O29	O	0.946489	1.283542	-0.194014
O30	O	0.764588	0.872586	0.394060
O31	O	0.776246	1.078069	0.413116
O32	O	0.650539	1.283560	0.207628
O33	O	1.060537	0.872569	-0.007582
O34	O	1.072195	1.078052	0.011474
O35	O	0.880843	0.957098	0.287079
O36	O	0.813704	1.199032	0.177329
O37	O	0.911098	1.199026	0.045152
O38	O	0.978237	0.957092	0.154902
C39	C	0.617280	1.078078	0.100011
C40	C	0.536418	1.078083	0.100007
C41	C	0.837193	0.754705	0.070035
C42	C	0.830967	0.644960	0.059857
C43	C	0.877633	1.078063	-0.253322
C44	C	0.885131	1.078062	-0.373243
C45	C	0.240329	1.078041	0.100041
C46	C	0.322711	1.078047	0.100034
C47	C	0.388371	1.078061	0.100023
C48	C	0.470758	1.078068	0.100018
C49	C	1.093796	1.078051	0.100035
C50	C	1.174659	1.078046	0.100039
C51	C	0.873883	1.401424	0.130011
C52	C	0.880109	1.511169	0.140188
C53	C	0.833444	1.078066	0.453367
C54	C	0.825945	1.078066	0.573289
C55	C	0.657720	1.401436	-0.223345
C56	C	0.590582	1.511185	-0.333094
C57	C	0.635625	1.401437	0.129999
C58	C	0.560989	1.511187	0.140172
C59	C	0.815099	0.754706	0.423379
C60	C	0.801374	0.644962	0.533123
C61	C	1.075451	0.754691	0.070046
C62	C	1.150088	0.644941	0.059873
C63	C	1.053357	0.754693	0.423391
C64	C	1.120495	0.644943	0.533139
C65	C	0.895978	1.401422	-0.223334
C66	C	0.909702	1.511167	-0.333078
C67	C	0.609893	1.562733	-0.453639
C68	C	0.546819	1.665869	-0.556768
C69	C	0.464433	1.717448	-0.539351
C70	C	0.445122	1.665896	-0.418793
C71	C	0.508196	1.562769	-0.315665
C72	C	0.483722	1.562740	0.075939
C73	C	0.413588	1.665876	0.085474
C74	C	0.420722	1.717450	0.159248
C75	C	0.497998	1.665893	0.223483
C76	C	0.568131	1.562766	0.213941
C77	C	1.227356	0.593399	0.124095
C78	C	1.297493	0.490292	0.114532
C79	C	1.290360	0.438721	0.040754
C80	C	1.213084	0.490274	-0.023476
C81	C	1.142949	0.593386	-0.013920
C82	C	1.202870	0.593390	0.515682
C83	C	1.265960	0.490254	0.618790
C84	C	1.246674	0.438681	0.739354
C85	C	1.164291	0.490239	0.756809
C86	C	1.101202	0.593365	0.653702
C87	C	0.855661	0.504111	0.576382
C88	C	0.842769	0.400980	0.679486
C89	C	0.775592	0.438702	0.739335
C90	C	0.721300	0.579567	0.696067
C91	C	0.734190	0.682695	0.592959
C92	C	0.976886	1.473401	-0.392894
C93	C	0.989798	1.576503	-0.496001
C94	C	0.935523	1.717371	-0.539295
C95	C	0.868335	1.755137	-0.479468
C96	C	0.855427	1.652035	-0.376358
H97	H	0.784135	0.675544	-0.016706
C98	C	0.354496	1.722631	-0.399651
H99	H	0.319704	1.791418	-0.478343
H100	H	0.347168	1.762866	-0.349104
H101	H	0.340702	1.648602	-0.359716
H102	H	1.333035	0.448293	0.604553
H103	H	0.363609	1.801422	0.167008
C104	C	0.943383	0.469844	0.243621
H105	H	0.939404	0.551500	0.237129
H106	H	0.997411	0.416272	0.234638
H107	H	0.932355	0.416284	0.322915
C108	C	1.057956	0.650055	-0.084552
H109	H	1.063759	0.604555	-0.129845
H110	H	1.035971	0.747410	-0.140826
H111	H	1.021706	0.633128	-0.026553
C112	C	0.961341	1.078062	-0.435342
H113	H	0.956554	1.078073	-0.510506
H114	H	1.009662	0.997273	-0.380275
H115	H	0.964812	1.158865	-0.453578
H116	H	1.034130	0.635337	0.667934
C117	C	0.653122	1.506063	0.284602
H118	H	0.693876	1.437265	0.268353
H119	H	0.651819	1.465851	0.371643
H120	H	0.666109	1.580105	0.257378
C121	C	0.700511	1.506029	-0.472821
H122	H	0.702968	1.551526	-0.559388
H123	H	0.724003	1.408676	-0.440771
H124	H	0.730466	1.522942	-0.430157
C125	C	0.929556	0.462591	0.510563
H126	H	0.960029	0.363930	0.551098
H127	H	0.964121	0.499091	0.514137
H128	H	0.910100	0.499111	0.425847
C129	C	1.367512	0.325295	0.030257
H130	H	1.414548	0.301982	0.079085
H131	H	1.374939	0.359083	-0.054512
H132	H	1.360650	0.244825	0.059752
H133	H	0.562558	1.707825	-0.654922
H134	H	0.769538	1.078061	-0.380740
H135	H	1.298053	0.354708	0.823300
H136	H	1.233179	0.635369	0.184181
H137	H	0.503795	1.707901	0.283549
H138	H	0.413082	1.801422	-0.623334
H139	H	0.886985	0.286289	0.714701
C140	C	0.781515	1.693594	-0.310582
H141	H	0.751039	1.792256	-0.351150
H142	H	0.800944	1.657092	-0.225866
H143	H	0.746949	1.657097	-0.314178
H144	H	1.148599	0.448232	0.854987
H145	H	0.492460	1.520802	-0.217516
H146	H	0.477899	1.520774	0.015850
H147	H	0.824148	1.869844	-0.514733
H148	H	0.765106	0.354714	0.823290
H149	H	0.689983	0.797381	0.557751
H150	H	0.350674	1.707837	0.033164
C151	C	1.382488	0.433599	0.185187
H152	H	1.423243	0.364816	0.168922
H153	H	1.381192	0.393368	0.272231
H154	H	1.395469	0.507647	0.157972
C155	C	1.224099	0.650090	0.383072
H156	H	1.282197	0.604591	0.387459
H157	H	1.204853	0.747443	0.345264
H158	H	1.198359	0.633179	0.334689
H159	H	1.207287	0.448269	-0.083546
H160	H	0.666606	0.610261	0.744812
C161	C	1.036604	1.318458	-0.345278
H162	H	1.078468	1.310752	-0.395670
H163	H	1.007107	1.274502	-0.349535
H164	H	1.061098	1.274537	-0.261250
C165	C	1.063699	1.534939	-0.561802
H166	H	1.094162	1.436276	-0.521258
H167	H	1.098272	1.571425	-0.558225
H168	H	1.044248	1.571454	-0.646518
H169	H	0.946041	1.801309	-0.623258
