data_functionalizedCrystal
_audit_creation_method	'MofGen! by Chris Wilmer'
_symmetry_space_group_name_H-M	'P1'
_symmetry_Int_Tables_number	1
_symmetry_cell_setting	triclinic
loop_
_symmetry_equiv_pos_as_xyz
  x,y,z
_cell_length_a	16.109302
_cell_length_b	8.597304
_cell_length_c	15.186229
_cell_angle_alpha	82.296375
_cell_angle_beta	89.994701
_cell_angle_gamma	84.402578
loop_
_atom_site_label
_atom_site_type_symbol
_atom_site_fract_x
_atom_site_fract_y
_atom_site_fract_z
O1	O	1.104799	0.201736	-0.088570
O2	O	0.862945	0.226840	-0.090468
O3	O	0.988632	-0.014182	-0.072183
O4	O	0.979113	0.442757	-0.106854
O5	O	0.988623	-0.014185	0.074274
O6	O	0.862937	0.226836	0.055990
O7	O	1.104791	0.201732	0.057887
Zn8	Zn	0.983862	0.214284	0.080192
Zn9	Zn	0.983874	0.214288	-0.112772
O10	O	0.979104	0.442754	0.039603
C11	C	0.831958	0.225821	-0.017161
C12	C	0.739637	0.222771	-0.016927
C13	C	0.527233	0.215719	0.063434
C14	C	0.440489	0.212837	0.063649
C15	C	0.440509	0.212849	-0.096027
C16	C	0.527252	0.215719	-0.096241
C17	C	0.570611	0.217162	-0.016509
C18	C	0.397124	0.211410	-0.016079
C19	C	0.303073	0.208285	-0.015846
C20	C	0.664669	0.220284	-0.016741
C21	C	0.987605	-0.072654	0.005480
C22	C	0.984548	-0.246880	0.018695
C23	C	1.135778	0.202751	-0.015422
C24	C	1.228099	0.205800	-0.015661
C25	C	0.980131	0.501226	-0.038062
C26	C	0.983188	0.675451	-0.051283
N27	N	0.983861	0.214280	0.211885
N28	N	0.983882	0.214280	-0.244464
C29	C	1.039534	0.107591	0.445701
C30	C	1.039537	0.107588	0.537891
C31	C	0.928202	0.320973	0.521713
C32	C	0.928196	0.320968	0.429525
C33	C	0.983867	0.214279	0.391522
C34	C	0.983875	0.214280	0.575899
C35	C	0.983878	0.214277	0.675855
C36	C	0.983864	0.214280	0.291559
H37	H	0.562534	0.216894	0.128357
H38	H	0.562572	0.216891	-0.161344
O39	O	0.398476	0.211514	0.141378
C40	C	0.455353	0.213360	0.211704
H41	H	0.514148	0.265070	0.184377
H42	H	0.472280	0.087831	0.245777
C43	C	0.342981	0.251586	0.312976
C44	C	0.415191	0.315109	0.279413
H45	H	0.318207	0.314342	0.354745
H46	H	0.304661	0.250336	0.265598
H47	H	0.357096	0.146980	0.341364
H48	H	0.401073	0.419704	0.251017
H49	H	0.453508	0.316378	0.326789
H50	H	0.984358	-0.257756	-0.121308
O51	O	1.093473	0.003821	0.408717
C52	C	1.048128	-0.093047	0.362798
H53	H	0.983598	-0.030513	0.344230
H54	H	1.041497	-0.208992	0.407164
C55	C	1.173978	-0.203518	0.300592
C56	C	1.094724	-0.126706	0.277781
H57	H	1.202722	-0.224288	0.248152
H58	H	1.204529	-0.138261	0.331531
H59	H	1.168441	-0.300130	0.337566
H60	H	1.100262	-0.030088	0.240818
H61	H	1.064175	-0.191948	0.246833
H62	H	0.882861	0.407847	0.385408
O63	O	1.093694	0.003895	0.590389
C64	C	1.142809	-0.090294	0.537075
H65	H	1.144266	-0.025944	0.466477
H66	H	1.114870	-0.206899	0.536123
C67	C	1.230445	-0.201627	0.662201
C68	C	1.232240	-0.122585	0.575493
H69	H	1.285609	-0.221553	0.685900
H70	H	1.197353	-0.138175	0.698120
H71	H	1.207158	-0.298789	0.661396
H72	H	1.255517	-0.025416	0.576300
H73	H	1.265338	-0.186022	0.539574
H74	H	0.405195	0.211675	-0.160943
O75	O	0.983023	-0.326693	0.102198
C76	C	0.909529	-0.403531	0.112750
H77	H	0.885167	-0.421968	0.044815
H78	H	0.860347	-0.328040	0.146458
C79	C	0.958519	-0.541891	0.253951
C80	C	0.928601	-0.564548	0.170512
H81	H	0.970281	-0.641211	0.289584
H82	H	1.008032	-0.490120	0.246844
H83	H	0.917529	-0.478976	0.282029
H84	H	0.969595	-0.627444	0.142430
H85	H	0.879095	-0.616334	0.177615
O86	O	0.874212	0.424556	0.558771
C87	C	0.886140	0.401664	0.651759
H88	H	0.951761	0.343039	0.668788
H89	H	0.838445	0.322927	0.683907
C90	C	0.794357	0.634216	0.665986
C91	C	0.874957	0.562223	0.686901
H92	H	0.787456	0.733254	0.687666
H93	H	0.786318	0.649636	0.603339
H94	H	0.754621	0.568586	0.692778
H95	H	0.914691	0.627844	0.660100
H96	H	0.883003	0.546817	0.749545
