data_functionalizedCrystal
_audit_creation_method	'MofGen! by Chris Wilmer'
_symmetry_space_group_name_H-M	'P1'
_symmetry_Int_Tables_number	1
_symmetry_cell_setting	triclinic
loop_
_symmetry_equiv_pos_as_xyz
  x,y,z
_cell_length_a	11.169416
_cell_length_b	11.169417
_cell_length_c	11.169409
_cell_angle_alpha	90.021683
_cell_angle_beta	89.969126
_cell_angle_gamma	89.990722
loop_
_atom_site_label
_atom_site_type_symbol
_atom_site_fract_x
_atom_site_fract_y
_atom_site_fract_z
Zn1	Zn	-0.477744	-1.834962	-0.678614
Zn2	Zn	-0.678484	-1.834852	-0.477936
Zn3	Zn	-0.477810	-1.634248	-0.477942
Zn4	Zn	-0.678380	-1.634256	-0.678575
O5	O	-0.578105	-1.734579	-0.578267
O6	O	-0.504389	-2.002897	-0.652008
O7	O	-0.651936	-1.808192	-0.309987
O8	O	-0.309852	-1.660917	-0.504581
O9	O	-0.651872	-2.002816	-0.504571
O10	O	-0.309803	-1.808380	-0.652014
O11	O	-0.504502	-1.660809	-0.309992
O12	O	-0.504400	-1.466300	-0.504543
O13	O	-0.651694	-1.660929	-0.846530
O14	O	-0.651758	-1.466305	-0.651946
O15	O	-0.504287	-1.808388	-0.846559
O16	O	-0.846420	-1.808199	-0.504533
O17	O	-0.846344	-1.660822	-0.651941
C18	C	-0.578076	-1.422755	-0.578241
C19	C	-0.578093	-1.289355	-0.578259
C20	C	-0.889929	-1.734532	-0.578258
C21	C	-1.023329	-1.734621	-0.578294
C22	C	-0.265062	-1.734660	-0.578302
C23	C	-0.131662	-1.734694	-0.578318
C24	C	-0.577971	-1.734672	-0.891310
C25	C	-0.577915	-1.734711	-1.024710
C26	C	-0.578124	-1.047622	-0.578284
C27	C	-0.578107	-1.181022	-0.578267
C28	C	-0.578151	-1.734557	-0.266442
C29	C	-0.577870	-1.734750	-0.133043
