data_functionalizedCrystal
_audit_creation_method	'MofGen! by Chris Wilmer'
_symmetry_space_group_name_H-M	'P1'
_symmetry_Int_Tables_number	1
_symmetry_cell_setting	triclinic
loop_
_symmetry_equiv_pos_as_xyz
  x,y,z
_cell_length_a	15.995292
_cell_length_b	15.995300
_cell_length_c	13.596369
_cell_angle_alpha	89.998558
_cell_angle_beta	89.993500
_cell_angle_gamma	83.470212
loop_
_atom_site_label
_atom_site_type_symbol
_atom_site_fract_x
_atom_site_fract_y
_atom_site_fract_z
O1	O	1.110997	0.107699	-0.081808
O2	O	1.610997	0.607699	0.418192
O3	O	0.867213	0.121077	-0.081803
O4	O	1.367213	0.621077	0.418197
O5	O	0.995791	-0.007504	-0.081810
O6	O	1.495791	0.492496	0.418190
O7	O	0.982419	0.236280	-0.081800
O8	O	1.482419	0.736280	0.418200
O9	O	0.995778	-0.007511	0.081772
O10	O	1.495778	0.492489	0.581772
O11	O	0.867200	0.121071	0.081780
O12	O	1.367200	0.621071	0.581780
O13	O	1.110984	0.107692	0.081775
O14	O	1.610984	0.607692	0.581775
Zn15	Zn	0.989090	0.114380	0.107750
Zn16	Zn	1.489090	0.614380	0.607750
Zn17	Zn	0.989107	0.114389	-0.107778
Zn18	Zn	1.489107	0.614389	0.392222
O19	O	0.982406	0.236273	0.081783
O20	O	1.482406	0.736273	0.581783
C21	C	0.836011	0.120530	-0.000011
C22	C	1.336011	0.620530	0.499989
C23	C	0.743058	0.118897	-0.000009
C24	C	1.243058	0.618897	0.499991
C25	C	0.995239	-0.038703	-0.000022
C26	C	1.495239	0.461297	0.499978
C27	C	0.993604	-0.131655	-0.000032
C28	C	1.493604	0.368345	0.499968
C29	C	0.990585	-0.301837	-0.000022
C30	C	1.490585	0.198163	0.499978
C31	C	1.082135	-0.349322	-0.000026
C32	C	1.582135	0.150678	0.499974
C33	C	1.080465	-0.446010	0.000349
C34	C	1.580465	0.053990	0.500349
C35	C	0.987613	-0.469393	-0.000014
C36	C	1.487613	0.030607	0.499986
C37	C	0.942184	-0.428253	0.093216
C38	C	1.442184	0.071747	0.593216
C39	C	0.944501	-0.331620	0.093291
C40	C	1.444501	0.168380	0.593291
C41	C	0.943160	-0.331337	-0.092740
C42	C	1.443160	0.168663	0.407260
C43	C	0.943168	-0.428281	-0.093962
C44	C	1.443168	0.071719	0.406038
C45	C	0.985928	-0.564088	-0.000006
C46	C	1.485928	-0.064088	0.499994
C47	C	0.992266	-0.207142	-0.000024
C48	C	1.492266	0.292858	0.499976
C49	C	0.405321	0.112896	-0.000021
C50	C	0.905321	0.612896	0.499979
C51	C	0.428617	0.205702	-0.000382
C52	C	0.928617	0.705702	0.499618
C53	C	0.525292	0.207466	-0.000009
C54	C	1.025292	0.707466	0.499991
C55	C	0.572876	0.115874	-0.000016
C56	C	1.072876	0.615874	0.499984
C57	C	0.543776	0.069471	0.093393
C58	C	1.043776	0.569471	0.593393
C59	C	0.446985	0.068354	0.093467
C60	C	0.946985	0.568354	0.593467
C61	C	0.447145	0.066466	-0.092558
C62	C	0.947145	0.566466	0.407442
C63	C	0.543637	0.069905	-0.093788
C64	C	1.043637	0.569905	0.406212
C65	C	0.667572	0.117552	-0.000010
C66	C	1.167572	0.617552	0.499990
C67	C	0.310626	0.111215	-0.000020
C68	C	0.810626	0.611215	0.499980
C69	C	1.142186	0.108240	-0.000019
C70	C	1.642186	0.608240	0.499981
C71	C	1.235139	0.109872	-0.000027
C72	C	1.735139	0.609872	0.499973
C73	C	0.982958	0.267472	-0.000008
C74	C	1.482958	0.767472	0.499992
C75	C	0.984593	0.360424	-0.000004
C76	C	1.484593	0.860424	0.499996
N77	N	0.989085	0.114374	0.254842
N78	N	1.489085	0.614374	0.754842
N79	N	0.989119	0.114389	-0.254870
N80	N	1.489119	0.614389	0.245130
C81	C	0.989106	0.114390	0.656133
C82	C	1.489106	0.614390	1.156133
C83	C	0.989098	0.114388	0.544481
C84	C	1.489098	0.614388	1.044481
C85	C	0.989096	0.114382	0.455491
C86	C	1.489096	0.614382	0.955491
C87	C	0.989087	0.114379	0.343832
C88	C	1.489087	0.614379	0.843832
H89	H	1.116161	-0.474479	-0.066467
H90	H	1.616161	0.025521	0.433533
H91	H	0.432447	0.000307	0.097706
H92	H	0.932447	0.500307	0.597706
H93	H	0.973347	-0.456615	0.162859
H94	H	1.473347	0.043385	0.662859
Br95	Br	0.828468	-0.451724	0.098566
Br96	Br	1.328468	0.048276	0.598566
H97	H	0.977229	-0.313310	0.163245
H98	H	1.477229	0.186690	0.663245
H99	H	0.877274	-0.299333	0.097271
H100	H	1.377274	0.200667	0.597271
H101	H	0.875657	-0.299552	-0.093628
H102	H	1.375657	0.200448	0.406372
Br103	Br	0.399941	0.114826	-0.210562
Br104	Br	0.899941	0.614826	0.289438
H105	H	0.576619	0.003053	-0.099434
H106	H	1.076619	0.503053	0.400566
H107	H	0.973305	-0.310839	-0.163427
H108	H	1.473305	0.189161	0.336573
H109	H	0.400619	0.241477	-0.067370
H110	H	0.900619	0.741477	0.432630
H111	H	0.543683	0.244020	0.067067
H112	H	1.043683	0.744020	0.567067
Br113	Br	0.998457	-0.473858	-0.208926
Br114	Br	1.498457	0.026142	0.291074
H115	H	0.575656	0.002071	0.096862
H116	H	1.075656	0.502071	0.596862
H117	H	0.544317	0.243802	-0.066970
H118	H	1.044317	0.743802	0.433030
H119	H	0.562206	0.103692	-0.162891
H120	H	1.062206	0.603692	0.337109
Br121	Br	0.380229	0.264996	0.110641
Br122	Br	0.880229	0.764996	0.610641
H123	H	1.118927	-0.330849	-0.066882
H124	H	1.618927	0.169151	0.433118
H125	H	0.563823	0.101689	0.162912
H126	H	1.063823	0.601689	0.662912
Br127	Br	0.830374	-0.453922	-0.103884
Br128	Br	1.330374	0.046078	0.396116
H129	H	0.420157	0.100485	0.163296
H130	H	0.920157	0.600485	0.663296
Br131	Br	0.423851	-0.047393	-0.093615
Br132	Br	0.923851	0.452607	0.406385
H133	H	1.118398	-0.329664	0.066679
H134	H	1.618398	0.170336	0.566679
H135	H	1.115996	-0.473867	0.067569
H136	H	1.615996	0.026133	0.567569
