data_functionalizedCrystal
_audit_creation_method	'MofGen! by Chris Wilmer'
_symmetry_space_group_name_H-M	'P1'
_symmetry_Int_Tables_number	1
_symmetry_cell_setting	triclinic
loop_
_symmetry_equiv_pos_as_xyz
  x,y,z
_cell_length_a	13.635800
_cell_length_b	19.453103
_cell_length_c	16.862362
_cell_angle_alpha	89.557362
_cell_angle_beta	124.520075
_cell_angle_gamma	78.290822
loop_
_atom_site_label
_atom_site_type_symbol
_atom_site_fract_x
_atom_site_fract_y
_atom_site_fract_z
V1	V	2.145680	-0.096662	0.300440
O2	O	2.141213	0.005179	0.294261
O3	O	2.116402	-0.192177	0.298828
O4	O	2.181064	-0.094940	0.431271
O5	O	2.076104	-0.092731	0.160901
V6	V	2.380431	-0.084508	0.283697
O7	O	2.291687	-0.123321	0.337169
O8	O	2.459522	-0.057848	0.246968
O9	O	2.298105	0.011008	0.285309
O10	O	2.443596	-0.186348	0.289876
O11	O	2.508705	-0.088439	0.423235
O12	O	2.233443	-0.086229	0.152866
V13	V	2.645680	-0.096662	0.300440
O14	O	2.641213	0.005179	0.294261
O15	O	2.616402	-0.192177	0.298828
O16	O	2.681064	-0.094940	0.431271
O17	O	2.576104	-0.092731	0.160901
V18	V	2.880431	-0.084508	0.283697
O19	O	2.791687	-0.123321	0.337169
O20	O	2.959522	-0.057848	0.246968
O21	O	2.798105	0.011008	0.285309
O22	O	2.943596	-0.186348	0.289876
O23	O	3.008705	-0.088439	0.423235
O24	O	2.733443	-0.086229	0.152866
C25	C	2.035740	-0.215469	0.294203
C26	C	2.052843	-0.293553	0.293757
C27	C	2.153956	-0.333800	0.298358
C28	C	2.170033	-0.407170	0.297949
C29	C	2.084977	-0.440286	0.292918
C30	C	1.983853	-0.400030	0.288321
C31	C	1.967786	-0.326663	0.288741
N32	N	2.003589	-0.546653	0.233625
N33	N	2.018857	-0.616348	0.233225
C34	C	2.133383	-0.661335	0.291657
N35	N	2.232071	-0.633993	0.350493
N36	N	2.216801	-0.564292	0.350889
C37	C	2.102389	-0.519839	0.292464
C38	C	2.251935	-0.781138	0.295817
C39	C	2.268013	-0.854509	0.295413
C40	C	2.081824	-0.847367	0.285775
C41	C	2.065756	-0.773999	0.286189
C42	C	2.150813	-0.740888	0.291205
C43	C	2.118221	-0.091433	0.463145
C44	C	2.187760	-0.090658	0.570103
C45	C	2.434590	-0.092101	0.818235
C46	C	2.315088	-0.089146	0.765906
C47	C	2.244238	-0.089987	0.656951
C48	C	2.505449	-0.091259	0.927201
C49	C	2.210437	0.034296	0.289932
C50	C	2.182956	0.112379	0.290384
C51	C	2.535740	-0.215469	0.294203
C52	C	2.552843	-0.293553	0.293757
C53	C	2.631443	-0.089758	1.120991
C54	C	2.561918	-0.090588	1.014045
C55	C	2.127955	-0.089739	0.120987
C56	C	2.048035	-0.090510	0.014028
C57	C	2.618221	-0.091433	0.463145
C58	C	2.687760	-0.090658	0.570103
C59	C	2.710437	0.034296	0.289932
C60	C	2.682956	0.112379	0.290384
C61	C	2.653974	-0.333795	0.298371
C62	C	2.670068	-0.407165	0.297967
C63	C	2.585025	-0.440291	0.292941
C64	C	2.483887	-0.400044	0.288329
C65	C	2.467799	-0.326676	0.288741
C66	C	1.901742	-0.092042	-0.181774
C67	C	1.786088	-0.095735	-0.224766
C68	C	1.704686	-0.096587	-0.333717
C69	C	1.983155	-0.091189	-0.072813
C70	C	2.754320	0.152621	0.285772
C71	C	2.728500	0.225990	0.286181
C72	C	2.631321	0.259116	0.291209
C73	C	2.559950	0.218869	0.295818
C74	C	2.585765	0.145502	0.295402
H75	H	2.223222	-0.306847	0.302449
H76	H	2.265987	-0.085982	0.802934
H77	H	2.483686	-0.095263	0.781210
H78	H	2.385443	-0.293915	0.284978
H79	H	2.527653	0.112741	0.299166
O80	O	2.600504	-0.511559	0.292572
C81	C	2.503743	-0.532172	0.287120
H82	H	2.462512	-0.491311	0.315248
H83	H	2.540696	-0.586301	0.333503
H84	H	2.429782	-0.535574	0.208203
O85	O	1.999113	-0.879539	0.280717
C86	C	1.946064	-0.912395	0.196440
H87	H	1.954354	-0.885754	0.140756
H88	H	1.844848	-0.906919	0.164058
H89	H	1.996090	-0.971080	0.216356
O90	O	2.736736	-0.301742	0.303298
C91	C	2.829424	-0.353003	0.307260
H92	H	2.834348	-0.407684	0.336173
H93	H	2.921724	-0.339561	0.357704
H94	H	2.807151	-0.353216	0.231110
H95	H	2.252374	-0.439945	0.301696
O96	O	2.401107	-0.432133	0.283305
C97	C	2.283763	-0.402672	0.196695
H98	H	2.279613	-0.347282	0.170451
H99	H	2.210815	-0.399027	0.211125
H100	H	2.265974	-0.437884	0.138477
H101	H	2.350357	-0.887279	0.299167
O102	O	2.768169	-0.446308	0.302297
C103	C	2.726240	-0.479562	0.218571
H104	H	2.628903	-0.484346	0.186419
H105	H	2.789735	-0.534765	0.239149
H106	H	2.726178	-0.446465	0.162445
O107	O	1.967428	-0.734997	0.281659
C108	C	1.895817	-0.779959	0.277156
H109	H	1.913800	-0.829874	0.247652
H110	H	1.794230	-0.751003	0.226952
H111	H	1.921511	-0.795356	0.353219
O112	O	1.740806	-0.098848	-0.171146
C113	C	1.702987	-0.162270	-0.179208
H114	H	1.682864	-0.182214	-0.249129
H115	H	1.616329	-0.151760	-0.181036
H116	H	1.779184	-0.204119	-0.113978
H117	H	1.939618	-0.089520	-0.226790
H118	H	2.833454	0.125660	0.281679
H119	H	2.786628	0.258749	0.282429
H120	H	1.914603	-0.426998	0.284228
H121	H	1.885447	-0.293894	0.284994
H122	H	2.610314	0.318857	0.291547
O123	O	2.465639	0.251159	0.300750
C124	C	2.458160	0.324545	0.300110
H125	H	2.551202	0.334185	0.326632
H126	H	2.431569	0.344897	0.350312
H127	H	2.385661	0.353894	0.222871
H128	H	2.321192	-0.754178	0.299899
