data_functionalizedCrystal
_audit_creation_method	'MofGen! by Chris Wilmer'
_symmetry_space_group_name_H-M	'P1'
_symmetry_Int_Tables_number	1
_symmetry_cell_setting	triclinic
loop_
_symmetry_equiv_pos_as_xyz
  x,y,z
_cell_length_a	19.288864
_cell_length_b	10.654550
_cell_length_c	18.366186
_cell_angle_alpha	89.994973
_cell_angle_beta	89.977106
_cell_angle_gamma	83.810575
loop_
_atom_site_label
_atom_site_type_symbol
_atom_site_fract_x
_atom_site_fract_y
_atom_site_fract_z
O1	O	0.922379	0.156657	-0.060782
O2	O	0.720256	0.177789	-0.060732
O3	O	0.825965	-0.015616	-0.060755
O4	O	0.816670	0.350062	-0.060758
O5	O	0.825946	-0.015625	0.060344
O6	O	0.720238	0.177780	0.060368
O7	O	0.922360	0.156647	0.060318
Zn8	Zn	0.821296	0.167212	0.079570
Zn9	Zn	0.821320	0.167224	-0.079984
O10	O	0.816652	0.350052	0.060341
C11	C	0.694366	0.177105	-0.000176
C12	C	0.617249	0.175063	-0.000156
C13	C	0.573296	0.288545	-0.000169
C14	C	0.500836	0.286627	-0.000177
C15	C	0.472333	0.171222	-0.000187
C16	C	0.516296	0.057725	-0.000171
C17	C	0.588754	0.059646	-0.000155
C18	C	0.363484	0.080503	-0.042637
C19	C	0.291027	0.078587	-0.042657
C20	C	0.248849	0.165292	-0.000231
C21	C	0.279136	0.253935	0.042205
C22	C	0.351594	0.255855	0.042221
C23	C	0.393766	0.169126	-0.000203
C24	C	0.126326	0.276702	-0.000251
C25	C	0.053865	0.274779	-0.000255
C26	C	0.069327	0.045875	-0.000256
C27	C	0.141786	0.047800	-0.000245
C28	C	0.170281	0.163217	-0.000246
C29	C	0.825273	-0.062404	-0.000206
C30	C	0.823231	-0.201803	-0.000208
C31	C	0.885471	-0.282621	-0.000221
C32	C	0.883548	-0.413601	-0.000226
C33	C	0.757141	-0.382932	-0.000201
C34	C	0.759065	-0.251955	-0.000202
C35	C	0.958451	-0.300329	-0.000232
C36	C	0.956528	-0.431309	-0.000237
C37	C	0.948250	0.157332	-0.000240
C38	C	1.025367	0.159373	-0.000264
C39	C	0.817344	0.396840	-0.000209
C40	C	0.819385	0.536240	-0.000212
N41	N	0.821285	0.167203	0.188461
N42	N	0.821337	0.167224	-0.188875
C43	C	0.868108	0.081605	0.226551
C44	C	0.868113	0.081599	0.302779
C45	C	0.821300	0.167213	0.340914
C46	C	0.774468	0.252817	0.302815
C47	C	0.774461	0.252812	0.226588
C48	C	0.812752	0.281634	0.461675
C49	C	0.812764	0.281641	0.537899
C50	C	0.821320	0.167229	0.576021
C51	C	0.829879	0.052804	0.537909
C52	C	0.829871	0.052799	0.461682
C53	C	0.821303	0.167228	0.423569
C54	C	0.868151	0.081618	0.696766
C55	C	0.868151	0.081610	0.772995
C56	C	0.774509	0.252840	0.773030
C57	C	0.774507	0.252836	0.696802
C58	C	0.821331	0.167226	0.658675
H59	H	0.493084	-0.036239	-0.000189
C60	C	0.452479	0.411461	-0.000202
H61	H	0.479828	0.480472	-0.000206
H62	H	0.423862	0.415480	0.042018
H63	H	0.423923	0.415451	-0.042447
H64	H	0.981682	-0.265204	0.052050
C65	C	0.637105	-0.065188	-0.000150
H66	H	0.609755	-0.134198	-0.000161
H67	H	0.665673	-0.069203	0.042082
H68	H	0.665711	-0.069188	-0.042383
H69	H	0.805772	0.374809	0.430642
H70	H	0.018079	0.367194	-0.000261
H71	H	0.708383	-0.186156	-0.000201
H72	H	0.266373	0.006414	-0.077214
H73	H	0.984018	-0.473662	0.050435
C74	C	0.723008	0.347008	0.654901
H75	H	0.695132	0.398005	0.688528
H76	H	0.693877	0.301969	0.625182
H77	H	0.748246	0.399171	0.625150
C78	C	0.686562	-0.438097	-0.000194
H79	H	0.649770	-0.371202	-0.000192
H80	H	0.683173	-0.488566	0.042034
H81	H	0.683195	-0.488541	-0.042432
C82	C	0.604641	0.415495	-0.000166
H83	H	0.654090	0.400390	-0.000161
H84	H	0.589565	0.462208	0.042058
H85	H	0.589613	0.462198	-0.042407
C86	C	0.409872	-0.014869	-0.089315
H87	H	0.381458	-0.067918	-0.114600
H88	H	0.441549	-0.064833	-0.058730
H89	H	0.435219	0.029319	-0.123426
H90	H	0.978591	-0.477420	-0.052530
C91	C	0.997016	-0.261477	-0.068701
H92	H	1.011565	-0.334379	-0.096864
H93	H	1.036645	-0.221545	-0.054635
H94	H	0.966618	-0.204550	-0.096853
C95	C	0.839296	-0.073059	0.579829
H96	H	0.844397	-0.141201	0.546214
H97	H	0.799582	-0.079853	0.609587
H98	H	0.879733	-0.075777	0.609542
H99	H	0.376250	0.328027	0.076776
H100	H	0.906234	0.011894	0.195510
C101	C	0.839274	-0.073053	0.419759
H102	H	0.844466	-0.141195	0.453373
H103	H	0.879642	-0.075708	0.389919
H104	H	0.799500	-0.079908	0.390127
H105	H	0.906243	0.011892	0.333797
C106	C	0.803351	0.407497	0.579820
H107	H	0.804590	0.391116	0.630677
H108	H	0.759759	0.452472	0.567349
H109	H	0.839910	0.456542	0.567302
C110	C	0.919644	-0.012560	0.654820
H111	H	0.912939	-0.000295	0.603966
H112	H	0.911698	-0.096335	0.667322
H113	H	0.966067	0.000866	0.667287
C114	C	0.722978	0.346994	0.344760
H115	H	0.729694	0.334747	0.395613
H116	H	0.676558	0.333569	0.332296
H117	H	0.730926	0.430774	0.332254
C118	C	0.919660	-0.012550	0.814895
H119	H	0.947548	-0.063524	0.781267
H120	H	0.894434	-0.064717	0.844648
H121	H	0.948789	0.032510	0.844611
H122	H	0.736391	0.322543	0.804079
C123	C	0.722958	0.346983	0.184687
H124	H	0.695080	0.397977	0.218314
H125	H	0.693829	0.301943	0.154966
H126	H	0.748196	0.399147	0.154939
H127	H	0.149528	0.370681	-0.000241
C128	C	0.232753	0.349316	0.088879
H129	H	0.261168	0.402384	0.114149
H130	H	0.207402	0.305149	0.122990
H131	H	0.201079	0.399278	0.058283
C132	C	0.037982	-0.081069	-0.000271
H133	H	-0.011467	-0.065962	-0.000287
H134	H	0.053009	-0.127790	0.041958
H135	H	0.053057	-0.127767	-0.042507
H136	H	0.177574	-0.044609	-0.000239
