data_functionalizedCrystal
_audit_creation_method	'MofGen! by Chris Wilmer'
_symmetry_space_group_name_H-M	'P1'
_symmetry_Int_Tables_number	1
_symmetry_cell_setting	triclinic
loop_
_symmetry_equiv_pos_as_xyz
  x,y,z
_cell_length_a	14.853568
_cell_length_b	14.044220
_cell_length_c	12.503572
_cell_angle_alpha	86.156832
_cell_angle_beta	86.480006
_cell_angle_gamma	91.587841
loop_
_atom_site_label
_atom_site_type_symbol
_atom_site_fract_x
_atom_site_fract_y
_atom_site_fract_z
O1	O	-1.210924	0.118301	0.089241
O2	O	-0.949634	0.133042	0.089261
O3	O	-1.076357	-0.012318	0.089241
O4	O	-1.084202	0.263660	0.089261
O5	O	-1.066828	-0.001368	-0.089400
O6	O	-0.940105	0.143992	-0.089379
O7	O	-1.201396	0.129251	-0.089400
Cu8	Cu	-1.069880	0.137621	-0.105701
Cu9	Cu	-1.081149	0.124671	0.105562
O10	O	-1.074673	0.274611	-0.089379
C11	C	-0.911228	0.137849	-0.000057
C12	C	-0.810986	0.135846	-0.000049
C13	C	-0.392324	0.121408	0.097312
C14	C	-0.381957	0.133347	-0.097448
C15	C	-0.476140	0.135227	-0.097446
C16	C	-0.528420	0.130200	-0.000063
C17	C	-0.486516	0.123291	0.097318
C18	C	-0.518050	0.142145	-0.194825
C19	C	-0.612239	0.144027	-0.194826
C20	C	-0.664521	0.138992	-0.097442
C21	C	-0.622611	0.132083	-0.000057
C22	C	-0.674891	0.127055	0.097326
C23	C	-0.632984	0.120138	0.194712
C24	C	-0.538798	0.118257	0.194702
C25	C	-0.758707	0.140874	-0.097432
C26	C	-0.769083	0.128938	0.097331
C27	C	-1.068159	-0.042162	-0.000080
C28	C	-1.057917	-0.147401	-0.000080
C29	C	-1.039194	-0.340088	-0.000063
C30	C	-1.111832	-0.397625	-0.000066
C31	C	-1.101415	-0.504843	-0.000056
C32	C	-1.049610	-0.232860	-0.000073
C33	C	-0.239802	0.124441	-0.000077
C34	C	-0.340045	0.126436	-0.000071
C35	C	-1.082871	0.304454	-0.000056
C36	C	-1.093113	0.409693	-0.000049
N37	N	-1.061961	0.146729	-0.254292
C38	C	-1.050312	0.160134	-0.473405
C39	C	-1.100722	0.102154	-0.526740
C40	C	-1.094240	0.109613	-0.648663
C41	C	-1.056792	0.152676	-0.351472
N42	N	-1.089075	0.115556	0.254153
H43	H	-0.504668	0.112625	0.273988
C44	C	-0.826583	0.123403	0.204463
N45	N	-0.869892	0.119234	0.285155
C46	C	-0.690503	0.114608	0.301830
N47	N	-0.733831	0.110442	0.382508
H48	H	-0.969187	-0.371350	-0.000055
C49	C	-0.346226	0.113800	0.204431
N50	N	-0.311504	0.108071	0.285114
H51	H	-0.339385	0.137447	-0.176733
C52	C	-1.165614	0.027537	-0.464727
N53	N	-1.214494	-0.028658	-0.418014
C54	C	-0.985434	0.234756	-0.535418
N55	N	-0.936569	0.290960	-0.582138
C56	C	-0.804800	0.148482	-0.204550
N57	N	-0.839517	0.154210	-0.285236
C58	C	-1.206416	-0.355390	-0.000088
N59	N	-1.277653	-0.323574	-0.000111
H60	H	-0.475477	0.146245	-0.274109
H61	H	-0.646351	0.149656	-0.274123
