data_functionalizedCrystal
_audit_creation_method	'MofGen! by Chris Wilmer'
_symmetry_space_group_name_H-M	'P1'
_symmetry_Int_Tables_number	1
_symmetry_cell_setting	triclinic
loop_
_symmetry_equiv_pos_as_xyz
  x,y,z
_cell_length_a	10.685980
_cell_length_b	12.827892
_cell_length_c	10.686551
_cell_angle_alpha	85.594922
_cell_angle_beta	81.591741
_cell_angle_gamma	94.382205
loop_
_atom_site_label
_atom_site_type_symbol
_atom_site_fract_x
_atom_site_fract_y
_atom_site_fract_z
Zn1	Zn	1.995786	-0.234228	-0.866707
Zn2	Zn	1.979362	-0.423541	-0.654447
Zn3	Zn	1.767213	-0.263313	-0.638172
Zn4	Zn	1.783486	-0.423440	-0.850357
O5	O	1.881462	-0.336130	-0.752421
O6	O	2.171241	-0.247211	-0.852204
O7	O	1.937536	-0.414501	-0.474656
O8	O	1.797597	-0.113213	-0.668520
O9	O	2.159174	-0.386299	-0.696257
O10	O	1.965529	-0.091844	-0.836423
O11	O	1.781671	-0.296782	-0.462699
O12	O	1.591738	-0.296684	-0.652666
O13	O	1.825332	-0.386126	-1.030158
O14	O	1.603693	-0.414328	-0.808557
O15	O	1.981308	-0.247112	-1.042170
O16	O	1.953315	-0.569770	-0.680403
O17	O	1.809406	-0.569695	-0.824338
C18	C	1.551657	-0.358652	-0.727072
C19	C	1.410568	-0.368310	-0.716257
C20	C	1.881381	-0.607647	-0.752393
C21	C	1.881465	-0.723793	-0.752432
C22	C	1.952774	-0.775567	-0.681301
C23	C	1.952864	-0.895610	-0.681340
C24	C	2.212554	-0.313522	-0.777870
C25	C	2.353646	-0.303887	-0.788715
C26	C	1.906967	-0.313363	-1.083510
C27	C	1.917836	-0.303661	-1.224600
C28	C	1.881580	-0.063549	-0.752480
C29	C	1.881630	0.052609	-0.752505
C30	C	1.856129	-0.358729	-0.422626
C31	C	1.845506	-0.368119	-0.281555
H32	H	1.351357	-0.430857	-0.645939
H33	H	1.412850	-0.241338	-0.859020
O34	O	2.025339	-0.722410	-0.608463
C35	C	1.946705	-0.669908	-0.520938
H36	H	1.846183	-0.710316	-0.505308
H37	H	1.945177	-0.584829	-0.559904
C38	C	2.122123	-0.623274	-0.413000
C39	C	1.998663	-0.672909	-0.393796
H40	H	2.154174	-0.625119	-0.334574
H41	H	2.175102	-0.658641	-0.471970
H42	H	2.120833	-0.552379	-0.445476
H43	H	1.999956	-0.743805	-0.361336
H44	H	1.945685	-0.637553	-0.334817
O45	O	2.001568	-0.228832	-1.295049
C46	C	1.971387	-0.128764	-1.260657
H47	H	1.915254	-0.136478	-1.160622
H48	H	1.911823	-0.092952	-1.330237
C49	C	2.163652	-0.047940	-1.387094
C50	C	2.094717	-0.057413	-1.264225
H51	H	2.239726	-0.003924	-1.389299
H52	H	2.183984	-0.115356	-1.410269
H53	H	2.114001	-0.018100	-1.445063
H54	H	2.144362	-0.087264	-1.206260
H55	H	2.074397	0.010001	-1.241040
O56	O	1.808869	-0.894385	-0.825346
C57	C	1.846274	-0.910307	-0.954045
H58	H	1.895252	-0.986022	-0.960572
H59	H	1.914819	-0.841443	-1.001780
C60	C	1.668225	-0.825448	-1.013315
C61	C	1.728371	-0.918447	-1.021331
H62	H	1.595499	-0.830464	-1.054823
H63	H	1.643026	-0.814717	-0.926609
H64	H	1.725358	-0.768071	-1.053093
H65	H	1.671243	-0.975820	-0.981540
H66	H	1.753557	-0.929188	-1.108032
O67	O	1.761875	-0.442861	-1.210837
C68	C	1.828286	-0.510649	-1.139718
H69	H	1.922998	-0.468561	-1.127395
H70	H	1.846082	-0.583676	-1.191787
C71	C	1.632521	-0.594595	-1.023477
C72	C	1.748844	-0.542899	-1.008333
H73	H	1.583517	-0.614494	-0.942435
H74	H	1.587778	-0.548929	-1.071394
H75	H	1.647368	-0.655445	-1.066872
H76	H	1.733996	-0.482044	-0.964953
H77	H	1.793584	-0.588557	-0.960405
H78	H	2.013910	-0.940135	-0.620439
H79	H	1.820486	-0.768336	-0.813363
