data_functionalizedCrystal
_audit_creation_method	'MofGen! by Chris Wilmer'
_symmetry_space_group_name_H-M	'P1'
_symmetry_Int_Tables_number	1
_symmetry_cell_setting	triclinic
loop_
_symmetry_equiv_pos_as_xyz
  x,y,z
_cell_length_a	16.120530
_cell_length_b	18.215404
_cell_length_c	18.215399
_cell_angle_alpha	89.972485
_cell_angle_beta	92.916648
_cell_angle_gamma	92.880662
loop_
_atom_site_label
_atom_site_type_symbol
_atom_site_fract_x
_atom_site_fract_y
_atom_site_fract_z
Zn1	Zn	1.274544	0.350119	0.473096
Zn2	Zn	1.774544	0.850119	0.973096
Zn3	Zn	1.274443	0.473186	0.350026
Zn4	Zn	1.774443	0.973186	0.850026
Zn5	Zn	1.135127	0.343893	0.343810
Zn6	Zn	1.635127	0.843893	0.843810
Zn7	Zn	1.135091	0.466898	0.466821
Zn8	Zn	1.635091	0.966898	0.966821
O9	O	1.204801	0.408524	0.408438
O10	O	1.704801	0.908524	0.908438
O11	O	1.391196	0.371681	0.461997
O12	O	1.891196	0.871681	0.961997
O13	O	1.255935	0.456061	0.246216
O14	O	1.755935	0.956061	0.746216
O15	O	1.153678	0.241737	0.360985
O16	O	1.653678	0.741737	0.860985
O17	O	1.391122	0.462098	0.371578
O18	O	1.891122	0.962098	0.871578
O19	O	1.256108	0.246312	0.455970
O20	O	1.756108	0.746312	0.955970
O21	O	1.153580	0.361070	0.241649
O22	O	1.653580	0.861070	0.741649
O23	O	1.018457	0.354973	0.354901
O24	O	1.518457	0.854973	0.854901
O25	O	1.153617	0.451381	0.570639
O26	O	1.653617	0.951381	1.070639
O27	O	1.018430	0.445344	0.445276
O28	O	1.518430	0.945344	0.945276
O29	O	1.256073	0.365584	0.575249
O30	O	1.756073	0.865584	1.075249
O31	O	1.255900	0.575333	0.365494
O32	O	1.755900	1.075333	0.865494
O33	O	1.153519	0.570714	0.451303
O34	O	1.653519	1.070714	0.951303
C35	C	0.988193	0.398801	0.398734
C36	C	1.488193	0.898801	0.898734
C37	C	0.895527	0.394659	0.394600
C38	C	1.395527	0.894659	0.894600
C39	C	1.204717	0.599727	0.408409
C40	C	1.704717	1.099727	0.908409
C41	C	1.204758	0.681527	0.408425
C42	C	1.704758	1.181527	0.908425
C43	C	1.204852	0.408476	0.600393
C44	C	1.704852	0.908476	1.100393
C45	C	1.204874	0.408455	0.682193
C46	C	1.704874	0.908455	1.182193
C47	C	0.725866	0.387081	0.387058
C48	C	1.225866	0.887081	0.887058
C49	C	0.684577	0.430022	0.429872
C50	C	1.184577	0.930022	0.929872
C51	C	0.590172	0.425805	0.425676
C52	C	1.090172	0.925805	0.925676
C53	C	0.820280	0.391297	0.391253
C54	C	1.320280	0.891297	0.891253
C55	C	1.422255	0.418285	0.418181
C56	C	1.922255	0.918285	0.918181
C57	C	1.514921	0.422445	0.422333
C58	C	2.014921	0.922445	0.922333
C59	C	1.258197	0.872108	0.363846
C60	C	1.758197	1.372108	0.863846
C61	C	1.258235	0.948968	0.363870
C62	C	1.758235	1.448968	0.863870
C63	C	1.151534	0.944194	0.453142
C64	C	1.651534	1.444194	0.953142
C65	C	1.151500	0.867335	0.453121
C66	C	1.651500	1.367335	0.953121
C67	C	1.204830	0.831294	0.408469
C68	C	1.704830	1.331294	0.908469
C69	C	1.204903	0.985013	0.408513
C70	C	1.704903	1.485013	0.908513
C71	C	1.204945	1.068349	0.408539
C72	C	1.704945	1.568349	0.908539
C73	C	1.204789	0.747953	0.408444
C74	C	1.704789	1.247953	0.908444
C75	C	1.204914	1.216576	0.408498
C76	C	1.704914	1.716576	0.908498
C77	C	1.204975	1.134780	0.408558
C78	C	1.704975	1.634780	0.908558
C79	C	1.204799	0.408521	0.217232
C80	C	1.704799	0.908521	0.717232
C81	C	1.204939	0.408342	0.135440
C82	C	1.704939	0.908342	0.635440
C83	C	1.258241	0.363737	0.872790
C84	C	1.758241	0.863737	1.372790
C85	C	1.258251	0.363716	0.949649
C86	C	1.758251	0.863716	1.449649
C87	C	1.151565	0.453061	0.944837
C88	C	1.651565	0.953061	1.444837
C89	C	1.151551	0.453078	0.867980
C90	C	1.651551	0.953078	1.367980
C91	C	1.204894	0.408417	0.831958
C92	C	1.704894	0.908417	1.331958
C93	C	1.204918	0.408380	0.985675
C94	C	1.704918	0.908380	1.485675
C95	C	1.204928	0.408357	1.069009
C96	C	1.704928	0.908357	1.569009
C97	C	1.204883	0.408438	0.748618
C98	C	1.704883	0.908438	1.248618
H99	H	0.720130	0.469951	0.469678
H100	H	1.220130	0.969951	0.969678
H101	H	0.690315	0.347154	0.347255
H102	H	1.190315	0.847154	0.847255
O103	O	1.315724	0.833232	0.315698
O104	O	1.815724	1.333232	0.815698
H105	H	1.352846	0.874529	0.284680
H106	H	1.852846	1.374529	0.784680
O107	O	1.093936	0.823311	0.501256
O108	O	1.593936	1.323311	1.001256
H109	H	1.102881	0.763812	0.493746
H110	H	1.602881	1.263812	0.993746
H111	H	1.301675	0.327370	0.843463
H112	H	1.801675	0.827370	1.343463
O113	O	1.093984	0.501255	0.823941
O114	O	1.593984	1.001255	1.323941
H115	H	1.108238	0.559657	0.839305
H116	H	1.608238	1.059657	1.339305
O117	O	1.315794	0.315531	0.993692
O118	O	1.815794	0.815531	1.493692
H119	H	1.352887	0.284485	0.955729
H120	H	1.852887	0.784485	1.455729
H121	H	1.108137	0.489424	0.974176
H122	H	1.608137	0.989424	1.474176
H123	H	1.108113	0.973548	0.489494
H124	H	1.608113	1.473548	0.989494
O125	O	1.315790	0.992992	0.315737
O126	O	1.815790	1.492992	0.815737
H127	H	1.352861	0.955015	0.284682
H128	H	1.852861	1.455015	0.784682
