data_functionalizedCrystal
_audit_creation_method	'MofGen! by Chris Wilmer'
_symmetry_space_group_name_H-M	'P1'
_symmetry_Int_Tables_number	1
_symmetry_cell_setting	triclinic
loop_
_symmetry_equiv_pos_as_xyz
  x,y,z
_cell_length_a	29.839134
_cell_length_b	29.839131
_cell_length_c	29.839126
_cell_angle_alpha	89.975848
_cell_angle_beta	89.970362
_cell_angle_gamma	90.036281
loop_
_atom_site_label
_atom_site_type_symbol
_atom_site_fract_x
_atom_site_fract_y
_atom_site_fract_z
Zn1	Zn	0.686754	-0.178949	-0.254125
Zn2	Zn	0.686676	-0.254070	-0.178995
Zn3	Zn	0.611626	-0.178948	-0.178995
Zn4	Zn	0.611584	-0.254046	-0.254083
O5	O	0.649160	-0.216503	-0.216549
O6	O	0.749610	-0.188925	-0.244176
O7	O	0.676705	-0.244114	-0.116128
O8	O	0.621642	-0.116081	-0.188978
O9	O	0.749553	-0.244115	-0.188979
O10	O	0.676838	-0.116082	-0.244176
O11	O	0.621567	-0.188922	-0.116128
O12	O	0.548754	-0.188899	-0.188938
O13	O	0.621570	-0.244075	-0.316956
O14	O	0.548723	-0.244074	-0.244105
O15	O	0.676797	-0.188902	-0.316987
O16	O	0.676664	-0.316934	-0.188938
O17	O	0.621495	-0.316917	-0.244105
C18	C	0.532437	-0.216484	-0.216517
C19	C	0.482503	-0.216487	-0.216514
C20	C	0.172853	-0.245275	-0.245240
C21	C	-0.014820	-0.245288	-0.245260
O22	O	-0.039091	-0.269743	-0.269665
N23	N	-0.038282	-0.216520	-0.216583
C24	C	-0.014823	-0.187744	-0.187902
O25	O	-0.039085	-0.163273	-0.163514
C26	C	0.172849	-0.187730	-0.187884
C27	C	0.196309	-0.216503	-0.216560
C28	C	0.196312	-0.274046	-0.273913
C29	C	0.243228	-0.274044	-0.273906
C30	C	0.266684	-0.245272	-0.245226
C31	C	0.243224	-0.216501	-0.216553
C32	C	0.196308	-0.158953	-0.159205
C33	C	0.243229	-0.158951	-0.159204
C34	C	0.266688	-0.187724	-0.187880
C35	C	0.313596	-0.187727	-0.187865
N36	N	0.337058	-0.216495	-0.216542
C37	C	0.313602	-0.245268	-0.245222
C38	C	-0.113354	-0.187755	-0.187912
C39	C	-0.160271	-0.187759	-0.187916
C40	C	-0.160265	-0.245302	-0.245275
C41	C	-0.113347	-0.245300	-0.245269
C42	C	-0.089892	-0.216523	-0.216589
C43	C	0.412127	-0.245262	-0.245205
C44	C	0.459047	-0.245259	-0.245194
C45	C	0.459037	-0.187715	-0.187837
C46	C	0.412121	-0.187719	-0.187846
C47	C	0.388668	-0.216494	-0.216534
O48	O	0.337895	-0.163281	-0.163477
O49	O	0.337872	-0.269729	-0.269613
C50	C	0.125937	-0.245277	-0.245247
C51	C	0.102478	-0.216506	-0.216574
C52	C	0.125934	-0.187734	-0.187893
C53	C	0.055560	-0.216511	-0.216577
C54	C	0.032104	-0.245283	-0.245258
C55	C	0.055566	-0.274051	-0.273934
C56	C	0.102482	-0.274049	-0.273927
C57	C	0.102472	-0.158966	-0.159217
C58	C	0.055556	-0.158971	-0.159226
C59	C	0.032100	-0.187743	-0.187906
C60	C	0.649079	-0.333226	-0.216527
C61	C	0.649085	-0.383160	-0.216533
C62	C	0.677939	-0.692800	-0.187866
C63	C	0.677994	-0.880473	-0.187883
O64	O	0.702462	-0.904735	-0.163493
N65	N	0.649253	-0.903945	-0.216583
C66	C	0.620498	-0.880496	-0.245283
O67	O	0.596056	-0.904767	-0.269698
C68	C	0.620445	-0.692824	-0.245268
C69	C	0.649185	-0.669354	-0.216563
C70	C	0.706677	-0.669330	-0.159164
C71	C	0.706661	-0.622415	-0.159158
C72	C	0.677907	-0.598969	-0.187854
C73	C	0.649169	-0.622439	-0.216557
C74	C	0.591693	-0.669376	-0.273969
C75	C	0.591683	-0.622455	-0.273964
C76	C	0.620423	-0.598985	-0.245259
C77	C	0.620399	-0.552078	-0.245248
N78	N	0.649141	-0.528606	-0.216548
C79	C	0.677895	-0.552051	-0.187851
C80	C	0.620527	-0.979027	-0.245289
C81	C	0.620540	-1.025945	-0.245292
C82	C	0.678037	-1.025918	-0.187893
C83	C	0.678022	-0.979000	-0.187887
C84	C	0.649268	-0.955555	-0.216589
C85	C	0.677859	-0.453525	-0.187841
C86	C	0.677839	-0.406606	-0.187836
C87	C	0.620344	-0.406637	-0.245237
C88	C	0.620362	-0.453552	-0.245240
C89	C	0.649123	-0.476995	-0.216540
O90	O	0.595948	-0.527787	-0.269629
O91	O	0.702340	-0.527772	-0.163447
C92	C	0.677955	-0.739715	-0.187872
C93	C	0.649217	-0.763185	-0.216574
C94	C	0.620463	-0.739740	-0.245271
C95	C	0.649229	-0.810103	-0.216578
C96	C	0.677983	-0.833549	-0.187881
C97	C	0.706724	-0.810076	-0.159181
C98	C	0.706709	-0.763161	-0.159175
C99	C	0.591722	-0.763212	-0.273971
C100	C	0.591740	-0.810128	-0.273974
C101	C	0.620493	-0.833573	-0.245277
C102	C	0.766338	-0.216523	-0.216582
C103	C	0.816273	-0.216531	-0.216596
C104	C	0.649188	-0.216486	-0.333728
C105	C	0.649200	-0.216479	-0.383662
C106	C	0.649254	-0.099325	-0.216582
C107	C	0.649294	-0.049390	-0.216595
C108	C	0.620498	-0.187695	-0.693309
C109	C	0.620511	-0.187664	-0.880982
O110	O	0.596085	-0.163236	-0.905249
N111	N	0.649221	-0.216394	-0.904448
C112	C	0.677928	-0.245137	-0.880992
O113	O	0.702345	-0.269576	-0.905258
C114	C	0.677913	-0.245170	-0.693320
C115	C	0.649204	-0.216434	-0.669857
C116	C	0.591791	-0.158963	-0.669845
C117	C	0.591790	-0.158969	-0.622930
C118	C	0.620496	-0.187708	-0.599478
C119	C	0.649203	-0.216441	-0.622941
C120	C	0.706617	-0.273914	-0.669866
C121	C	0.706610	-0.273920	-0.622945
C122	C	0.677901	-0.245185	-0.599481
C123	C	0.677907	-0.245186	-0.552574
N124	N	0.649197	-0.216456	-0.529108
C125	C	0.620491	-0.187717	-0.552560
C126	C	0.677935	-0.245117	-0.979523
C127	C	0.677939	-0.245108	-1.026441
C128	C	0.620521	-0.187636	-1.026427
C129	C	0.620519	-0.187643	-0.979508
C130	C	0.649224	-0.216386	-0.956057
C131	C	0.620491	-0.187732	-0.454034
C132	C	0.620494	-0.187740	-0.407114
C133	C	0.677910	-0.245213	-0.407132
C134	C	0.677909	-0.245204	-0.454048
C135	C	0.649196	-0.216462	-0.477497
O136	O	0.702316	-0.269605	-0.528278
O137	O	0.596071	-0.163288	-0.528286
C138	C	0.620499	-0.187689	-0.740224
C139	C	0.649206	-0.216422	-0.763688
C140	C	0.677912	-0.245161	-0.740236
C141	C	0.649211	-0.216413	-0.810605
C142	C	0.620505	-0.187674	-0.834057
C143	C	0.591795	-0.158944	-0.810591
C144	C	0.591793	-0.158950	-0.763676
C145	C	0.706622	-0.273891	-0.763702
C146	C	0.706621	-0.273882	-0.810617
C147	C	0.677915	-0.245143	-0.834069
C148	C	0.649158	-0.216488	-0.099827
C149	C	0.649233	-0.216369	-0.049893
H150	H	0.262324	-0.297473	-0.297258
H151	H	0.597112	-0.959941	-0.268661
H152	H	0.568287	-0.688477	-0.297342
Br153	Br	0.164488	-0.313098	-0.312843
Br154	Br	0.581346	-0.485405	-0.284186
H155	H	0.568413	-0.135560	-0.688935
Br156	Br	0.716869	-0.284211	-0.375296
Br157	Br	0.581531	-0.148737	-0.375274
H158	H	0.597142	-0.164244	-0.960407
H159	H	0.597111	-0.164327	-0.473121
H160	H	0.568423	-0.135542	-0.829694
H161	H	0.701242	-0.387498	-0.164459
H162	H	0.730094	-0.688415	-0.135795
Br163	Br	0.745589	-0.312882	-0.842454
H164	H	0.701322	-0.268502	-1.045541
Br165	Br	0.716892	-0.485334	-0.148891
Br166	Br	0.716897	-0.284128	-0.947703
H167	H	0.121578	-0.297479	-0.297278
H168	H	0.597149	-0.164235	-1.045530
Br169	Br	0.164482	-0.119898	-0.120289
H170	H	0.596931	-0.387540	-0.268600
Br171	Br	0.745674	-0.590570	-0.120205
Br172	Br	0.552830	-0.119950	-0.731840
H173	H	-0.094249	-0.268729	-0.268619
Br174	Br	0.745578	-0.312917	-0.701697
Br175	Br	-0.192107	-0.284347	-0.284201
H176	H	0.393037	-0.268692	-0.268566
H177	H	0.036460	-0.297479	-0.297286
Br178	Br	0.745567	-0.312934	-0.591121
H179	H	0.701424	-0.959893	-0.164514
Br180	Br	0.552660	-0.590640	-0.312919
H181	H	0.729996	-0.297296	-0.744612
Br182	Br	0.745716	-0.731316	-0.120217
H183	H	0.262323	-0.135514	-0.135852
H184	H	0.730136	-0.829174	-0.135814
Br185	Br	0.716880	-0.284193	-0.485892
H186	H	0.568307	-0.744126	-0.297340
Br187	Br	0.717058	-1.057746	-0.148946
H188	H	0.597133	-1.045050	-0.268662
Br189	Br	0.023724	-0.119920	-0.120303
Br190	Br	0.490882	-0.284313	-0.284111
H191	H	-0.179368	-0.164333	-0.164561
H192	H	-0.094261	-0.164321	-0.164556
H193	H	0.393020	-0.164291	-0.164496
H194	H	0.121565	-0.135536	-0.135861
Br195	Br	0.490879	-0.148669	-0.148915
Br196	Br	0.552824	-0.119971	-0.591094
Br197	Br	0.552730	-0.841974	-0.312933
