data_functionalizedCrystal
_audit_creation_method	'MofGen! by Chris Wilmer'
_symmetry_space_group_name_H-M	'P1'
_symmetry_Int_Tables_number	1
_symmetry_cell_setting	triclinic
loop_
_symmetry_equiv_pos_as_xyz
  x,y,z
_cell_length_a	27.440280
_cell_length_b	27.440280
_cell_length_c	27.440280
_cell_angle_alpha	59.999523
_cell_angle_beta	89.999308
_cell_angle_gamma	60.002656
loop_
_atom_site_label
_atom_site_type_symbol
_atom_site_fract_x
_atom_site_fract_y
_atom_site_fract_z
Zr1	Zr	0.469574	0.533358	-0.064013
O2	O	0.391769	0.635023	-0.141829
O3	O	0.493415	0.431693	-0.040153
O4	O	0.493428	0.533347	-0.141824
O5	O	0.391757	0.533378	0.040036
O6	O	0.573630	0.533339	-0.141827
O7	O	0.391756	0.533369	-0.040158
O8	O	0.573606	0.351499	0.040045
O9	O	0.391781	0.715218	-0.141836
O10	O	0.563449	0.473504	-0.029986
O11	O	0.503596	0.473517	0.029864
O12	O	0.503612	0.593201	-0.089841
O13	O	0.443759	0.593214	-0.029992
Zr14	Zr	0.597488	0.533361	0.063881
Zr15	Zr	0.597487	0.533346	-0.064018
Zr16	Zr	0.469576	0.533373	0.063886
Zr17	Zr	0.469592	0.661261	-0.064025
Zr18	Zr	0.597470	0.405458	0.063892
O19	O	0.573648	0.635026	0.040020
O20	O	0.573645	0.635005	-0.141836
O21	O	0.391772	0.635044	0.040027
O22	O	0.675293	0.431697	0.141697
O23	O	0.675290	0.431675	-0.040159
O24	O	0.493417	0.431714	0.141704
O25	O	0.675305	0.533341	-0.040168
O26	O	0.573634	0.533372	0.141692
O27	O	0.493432	0.533380	0.141695
O28	O	0.675306	0.533351	0.040025
O29	O	0.493455	0.715209	-0.141840
O30	O	0.573608	0.351511	0.141708
O31	O	0.675281	0.351501	0.141704
O32	O	0.675280	0.351489	0.040041
O33	O	0.391782	0.715230	-0.040174
O34	O	0.493456	0.715220	-0.040177
O35	O	0.563451	0.473518	0.089709
O36	O	0.623304	0.473505	0.029860
O37	O	0.563466	0.593203	-0.029996
O38	O	0.503613	0.593215	0.029853
C39	C	0.533508	0.373373	-0.000052
C40	C	0.533500	0.319074	-0.000047
C41	C	0.577715	0.040192	0.044118
C42	C	0.577710	0.091214	0.044120
O43	O	0.615289	0.080038	0.081683
N44	N	0.533525	0.160904	-0.000059
C45	C	0.489347	0.179572	-0.044247
O46	O	0.451765	0.243534	-0.081826
C47	C	0.489355	0.128551	-0.044252
C48	C	0.533539	0.058861	-0.000066
C49	C	0.621896	-0.029495	0.088300
C50	C	0.621900	-0.080513	0.088298
C51	C	0.577724	-0.061844	0.044114
C52	C	0.533544	0.007842	-0.000068
C53	C	0.445180	0.147220	-0.088442
C54	C	0.445193	0.096191	-0.088443
C55	C	0.489376	0.026501	-0.044257
C56	C	0.489373	-0.024507	-0.044253
N57	N	0.533557	-0.094197	-0.000074
C58	C	0.577733	-0.112866	0.044110
C59	C	0.489333	0.286718	-0.044236
C60	C	0.489322	0.337739	-0.044230
C61	C	0.577685	0.249377	0.044138
C62	C	0.577694	0.198355	0.044133
C63	C	0.533518	0.217028	-0.000056
C64	C	0.577739	-0.220005	0.044103
C65	C	0.577738	-0.271024	0.044099
C66	C	0.489377	-0.182657	-0.044270
C67	C	0.489376	-0.131643	-0.044264
C68	C	0.533562	-0.150321	-0.000075
O69	O	0.451813	-0.013383	-0.081798
O70	O	0.615313	-0.176828	0.081677
C71	C	0.373532	0.533375	-0.000060
C72	C	0.319229	0.533381	-0.000058
C73	C	-0.017469	0.533339	-0.044246
C74	C	-0.068487	0.533334	-0.044247
O75	O	-0.094863	0.533304	-0.081807
N76	N	-0.094004	0.533341	-0.000068
C77	C	-0.068497	0.533345	0.044117
O78	O	-0.094886	0.533349	0.081695
C79	C	-0.017478	0.533345	0.044119
C80	C	0.008033	0.533346	-0.000066
C81	C	0.008042	0.533339	-0.088427
C82	C	0.059056	0.533345	-0.088427
C83	C	0.084558	0.533352	-0.044247
C84	C	0.059047	0.533352	-0.000066
C85	C	0.008030	0.533344	0.088307
C86	C	0.059054	0.533344	0.088305
C87	C	0.084565	0.533344	0.044120
C88	C	0.135563	0.533364	0.044115
N89	N	0.161080	0.533358	-0.000064
C90	C	0.135578	0.533352	-0.044244
C91	C	-0.175641	0.533344	0.044110
C92	C	-0.226662	0.533349	0.044105
C93	C	-0.226648	0.533337	-0.044258
C94	C	-0.175628	0.533337	-0.044256
C95	C	-0.150124	0.533338	-0.000069
C96	C	0.242710	0.533365	-0.044242
C97	C	0.293727	0.533374	-0.044239
C98	C	0.293710	0.533383	0.044126
C99	C	0.242696	0.533377	0.044122
C100	C	0.217198	0.533366	-0.000065
O101	O	0.161972	0.533392	0.081657
O102	O	0.161977	0.533338	-0.081811
C103	C	0.693531	0.533344	-0.000072
C104	C	0.747833	0.533339	-0.000074
C105	C	0.533529	0.533341	-0.160049
C106	C	0.533528	0.533335	-0.214345
C107	C	0.533554	0.693347	-0.000080
C108	C	0.533562	0.747645	-0.000085
C109	C	0.502302	0.595852	-0.582323
C110	C	0.502304	0.595856	-0.633346
O111	O	0.475758	0.648993	-0.686306
N112	N	0.533537	0.533376	-0.627619
C113	C	0.564776	0.470888	-0.570865
O114	O	0.591342	0.417744	-0.570679
C115	C	0.564777	0.470885	-0.519844
C116	C	0.533537	0.533369	-0.525576
C117	C	0.471065	0.658331	-0.588052
C118	C	0.471062	0.658327	-0.537033
C119	C	0.502297	0.595844	-0.480286
C120	C	0.533534	0.533365	-0.474557
C121	C	0.596019	0.408397	-0.463092
C122	C	0.596018	0.408400	-0.412070
C123	C	0.564777	0.470884	-0.417802
C124	C	0.564766	0.470878	-0.366790
N125	N	0.533533	0.533358	-0.372517
C126	C	0.502298	0.595841	-0.429265
C127	C	0.564771	0.470899	-0.678015
C128	C	0.564767	0.470901	-0.729035
C129	C	0.502296	0.595869	-0.791512
C130	C	0.502297	0.595866	-0.740491
C131	C	0.533538	0.533379	-0.683742
C132	C	0.502295	0.595827	-0.322119
C133	C	0.502293	0.595818	-0.271093
C134	C	0.564767	0.470850	-0.208621
C135	C	0.564766	0.470859	-0.259642
C136	C	0.533529	0.533353	-0.316393
O137	O	0.591300	0.417767	-0.313812
O138	O	0.475742	0.648975	-0.429440
C139	C	0.533533	0.533378	0.159916
C140	C	0.533534	0.533385	0.214213
C141	C	0.693507	0.373357	-0.000058
C142	C	0.747802	0.319054	-0.000055
C143	C	0.533510	0.373391	0.159930
C144	C	0.533503	0.319100	0.214232
C145	C	0.693510	0.373376	0.159924
C146	C	0.747805	0.319079	0.214224
C147	C	0.373553	0.693344	-0.160057
C148	C	0.319257	0.747641	-0.214356
C149	C	0.373555	0.693362	-0.000074
C150	C	0.319260	0.747666	-0.000077
C151	C	0.533552	0.693328	-0.160063
C152	C	0.533559	0.747620	-0.214364
C153	C	0.742055	0.293551	-0.031298
C154	C	0.793066	0.242535	-0.031307
C155	C	0.849822	0.217017	-0.000070
C156	C	0.855567	0.242525	0.031174
C157	C	0.804557	0.293544	0.031179
C158	C	0.564743	0.293604	0.270976
C159	C	0.564734	0.242598	0.322003
C160	C	0.533488	0.217086	0.316284
C161	C	0.502244	0.242586	0.259533
C162	C	0.502250	0.293594	0.208508
C163	C	0.804550	0.293574	0.208482
C164	C	0.855572	0.242563	0.259498
C165	C	0.849846	0.217055	0.316253
C166	C	0.793094	0.242565	0.321994
C167	C	0.742074	0.293578	0.270979
C168	C	0.262512	0.773152	-0.208615
C169	C	0.211491	0.824179	-0.259630
C170	C	0.217217	0.849690	-0.316386
C171	C	0.273968	0.824176	-0.322126
C172	C	0.324988	0.773154	-0.271111
C173	C	0.325007	0.773173	0.031160
C174	C	0.273996	0.824204	0.031155
C175	C	0.217240	0.849723	-0.000084
C176	C	0.211495	0.824214	-0.031325
C177	C	0.262505	0.773187	-0.031323
C178	C	0.564811	0.773117	-0.208626
C179	C	0.564830	0.824123	-0.259643
C180	C	0.533592	0.849635	-0.316397
C181	C	0.502339	0.824133	-0.322134
C182	C	0.502325	0.773124	-0.271118
H183	H	0.613719	-0.327770	0.080083
C184	C	0.468005	0.852179	-0.384570
N185	N	0.442151	0.873298	-0.431598
H186	H	0.788441	0.221789	0.368211
C187	C	-0.254722	0.533356	0.092708
N188	N	-0.275853	0.533356	0.129320
C189	C	0.467941	0.664603	-0.853945
N190	N	0.442068	0.716369	-0.900970
H191	H	0.695871	0.314338	0.275662
C192	C	0.533494	0.160968	0.372420
N193	N	0.533504	0.118697	0.414703
C194	C	0.280257	0.852239	-0.384563
N195	N	0.284991	0.873374	-0.431593
H196	H	0.257838	0.752384	-0.162406
C197	C	0.396592	0.116739	-0.137054
N198	N	0.359984	0.132216	-0.173666
H199	H	0.278686	0.844965	0.056598
H200	H	0.453408	-0.167468	-0.080241
H201	H	0.165286	0.844943	-0.254945
C202	C	0.214630	0.533382	0.092724
N203	N	0.193497	0.533379	0.129336
C204	C	0.467933	0.745093	-0.277440
N205	N	0.442026	0.723983	-0.282206
C206	C	0.533613	0.905747	-0.372511
N207	N	0.533630	0.948012	-0.414775
C208	C	0.626283	0.228850	0.092738
N209	N	0.662885	0.213393	0.129340
C210	C	0.161087	0.905810	-0.372498
N211	N	0.118808	0.948078	-0.414760
C212	C	0.087117	0.533335	-0.137029
N213	N	0.108252	0.533322	-0.173636
H214	H	0.371191	0.752383	-0.275793
H215	H	0.476859	0.646716	-0.368322
H216	H	0.453383	-0.074896	-0.080229
H217	H	0.613672	0.141613	0.080113
C218	C	0.214669	0.533356	-0.092850
N219	N	0.193546	0.533354	-0.129465
H220	H	-0.247420	0.533330	-0.080232
C221	C	0.599209	0.852169	-0.253319
N222	N	0.625102	0.873292	-0.248554
C223	C	0.161133	0.905851	-0.000076
N224	N	0.118875	0.948124	-0.000067
C225	C	0.396578	0.223872	-0.137055
N226	N	0.359969	0.281609	-0.173675
H227	H	0.165277	0.844999	-0.056759
H228	H	0.371216	0.752400	0.056603
C229	C	0.599126	0.402164	-0.722722
N230	N	0.625009	0.350388	-0.717964
C231	C	0.786733	0.214480	-0.065673
N232	N	0.781961	0.193349	-0.091555
H233	H	0.590179	0.221842	0.368206
H234	H	0.445626	0.709208	-0.541708
C235	C	-0.147567	0.533331	-0.092859
N236	N	-0.126433	0.533323	-0.129467
C237	C	0.626343	-0.240561	0.092716
N238	N	0.662949	-0.256045	0.129334
H239	H	-0.012716	0.533331	-0.124405
C240	C	0.905929	0.160890	-0.000077
N241	N	0.948187	0.118612	-0.000083
C242	C	0.917993	0.214505	0.253170
N243	N	0.965007	0.193371	0.248402
C244	C	0.256174	0.745127	-0.065681
N245	N	0.251401	0.723993	-0.091560
H246	H	0.453336	0.394481	-0.080204
C247	C	0.599130	0.402124	-0.253337
N248	N	0.625020	0.350351	-0.248584
H249	H	0.590249	0.752353	-0.162418
H250	H	0.901785	0.221741	0.056606
H251	H	0.476812	0.314346	0.162306
C252	C	0.670520	-0.157170	0.136893
N253	N	0.707148	-0.214907	0.173492
C254	C	-0.020017	0.533337	0.136918
N255	N	-0.041139	0.533328	0.173537
C256	C	0.670496	-0.050046	0.136911
N257	N	0.707101	-0.065532	0.173532
H258	H	0.314480	0.533391	0.080096
H259	H	0.476851	0.646702	-0.275766
H260	H	0.314496	0.533376	-0.080222
C261	C	0.440724	0.307269	-0.092843
N262	N	0.404111	0.322750	-0.129452
H263	H	0.476804	0.221806	0.254886
C264	C	0.905975	0.160933	0.372366
N265	N	0.948254	0.118660	0.414627
C266	C	-0.147592	0.533347	0.092721
N267	N	-0.126466	0.533345	0.129336
C268	C	0.630384	0.339657	-0.349646
N269	N	0.656266	0.287880	-0.302629
C270	C	0.810864	0.321627	0.146055
N271	N	0.815624	0.342757	0.099037
H272	H	0.079818	0.533342	0.124289
H273	H	0.445630	0.709215	-0.634256
H274	H	0.476858	0.646747	-0.745164
C275	C	0.679628	0.321615	-0.065668
N276	N	0.632609	0.342752	-0.091560
C277	C	0.599132	0.402153	-0.615591
N278	N	0.625012	0.350374	-0.568576
H279	H	0.621459	0.357516	-0.458413
H280	H	0.590195	0.419978	-0.162408
H281	H	0.809244	0.314301	0.056624
H282	H	0.590187	0.314371	0.275644
