data_functionalizedCrystal
_audit_creation_method	'MofGen! by Chris Wilmer'
_symmetry_space_group_name_H-M	'P1'
_symmetry_Int_Tables_number	1
_symmetry_cell_setting	triclinic
loop_
_symmetry_equiv_pos_as_xyz
  x,y,z
_cell_length_a	21.295418
_cell_length_b	25.639239
_cell_length_c	21.295411
_cell_angle_alpha	90.019526
_cell_angle_beta	90.043738
_cell_angle_gamma	90.054499
loop_
_atom_site_label
_atom_site_type_symbol
_atom_site_fract_x
_atom_site_fract_y
_atom_site_fract_z
Zn1	Zn	0.962320	-0.207990	0.356243
Zn2	Zn	1.295653	0.125344	0.689576
Zn3	Zn	1.628987	0.458677	1.022910
Zn4	Zn	0.962207	-0.295410	0.250972
Zn5	Zn	1.295541	0.037924	0.584305
Zn6	Zn	1.628874	0.371257	0.917639
Zn7	Zn	0.857043	-0.208014	0.250953
Zn8	Zn	1.190377	0.125319	0.584286
Zn9	Zn	1.523710	0.458652	0.917619
Zn10	Zn	0.856998	-0.295420	0.356169
Zn11	Zn	1.190331	0.037913	0.689502
Zn12	Zn	1.523664	0.371247	1.022835
O13	O	0.909642	-0.251708	0.303584
O14	O	1.242975	0.081625	0.636917
O15	O	1.576309	0.414958	0.970251
O16	O	1.050395	-0.219572	0.342318
O17	O	1.383728	0.113762	0.675651
O18	O	1.717061	0.447095	1.008984
O19	O	0.948229	-0.283822	0.162880
O20	O	1.281562	0.049511	0.496213
O21	O	1.614896	0.382844	0.829547
O22	O	0.871075	-0.134846	0.264943
O23	O	1.204408	0.198488	0.598276
O24	O	1.537741	0.531821	0.931609
O25	O	1.050312	-0.283799	0.264976
O26	O	1.383645	0.049535	0.598309
O27	O	1.716978	0.382868	0.931642
O28	O	0.948421	-0.134828	0.342299
O29	O	1.281754	0.198506	0.675632
O30	O	1.615088	0.531839	1.008965
O31	O	0.870965	-0.219613	0.162866
O32	O	1.204299	0.113720	0.496199
O33	O	1.537632	0.447053	0.829532
O34	O	0.768948	-0.219623	0.264871
O35	O	1.102281	0.113710	0.598204
O36	O	1.435614	0.447043	0.931537
O37	O	0.870997	-0.283816	0.444268
O38	O	1.204330	0.049517	0.777601
O39	O	1.537664	0.382850	1.110935
O40	O	0.768914	-0.283840	0.342172
O41	O	1.102248	0.049493	0.675506
O42	O	1.435581	0.382827	1.008839
O43	O	0.948377	-0.219582	0.444322
O44	O	1.281710	0.113752	0.777656
O45	O	1.615043	0.447085	1.110989
O46	O	0.948185	-0.368576	0.264904
O47	O	1.281518	-0.035243	0.598237
O48	O	1.614852	0.298090	0.931570
O49	O	0.870888	-0.368584	0.342191
O50	O	1.204221	-0.035251	0.675524
O51	O	1.537554	0.298083	1.008858
C52	C	0.746090	-0.251736	0.303512
C53	C	1.079424	0.081597	0.636845
C54	C	1.412757	0.414931	0.970178
C55	C	0.676122	-0.251760	0.303496
C56	C	1.009456	0.081573	0.636829
C57	C	1.342789	0.414906	0.970162
C58	C	0.909536	-0.387551	0.303555
C59	C	1.242870	-0.054218	0.636889
C60	C	1.576203	0.279116	0.970222
C61	C	0.909548	-0.445665	0.303564
C62	C	1.242882	-0.112332	0.636897
C63	C	1.576215	0.221002	0.970231
C64	C	0.643255	-0.285242	0.343686
C65	C	0.976588	0.048091	0.677020
C66	C	1.309921	0.381424	1.010353
C67	C	0.577512	-0.285229	0.343715
C68	C	0.910845	0.048104	0.677048
C69	C	1.244179	0.381437	1.010381
C70	C	0.544640	-0.251740	0.303541
C71	C	0.877973	0.081593	0.636874
C72	C	1.211306	0.414927	0.970207
C73	C	0.577515	-0.218252	0.263347
C74	C	0.910849	0.115082	0.596680
C75	C	1.244182	0.448415	0.930014
C76	C	0.643257	-0.218262	0.263325
C77	C	0.976590	0.115072	0.596658
C78	C	1.309923	0.448405	0.929991
N79	N	0.441365	-0.247648	0.248483
N80	N	0.774698	0.085686	0.581816
N81	N	1.108031	0.419019	0.915150
N82	N	0.378913	-0.247641	0.248506
N83	N	0.712246	0.085692	0.581840
N84	N	1.045580	0.419026	0.915173
C85	C	0.346565	-0.251707	0.303608
C86	C	0.679898	0.081627	0.636941
C87	C	1.013232	0.414960	0.970274
N88	N	0.379028	-0.255789	0.358686
N89	N	0.712361	0.077544	0.692019
N90	N	1.045695	0.410877	1.025353
N91	N	0.441485	-0.255799	0.358662
N92	N	0.774818	0.077535	0.691995
N93	N	1.108152	0.410868	1.025328
C94	C	0.473354	-0.251725	0.303561
C95	C	0.806688	0.081608	0.636894
C96	C	1.140021	0.414942	0.970228
C97	C	0.242412	-0.285176	0.343832
C98	C	0.575745	0.048157	0.677166
C99	C	0.909079	0.381490	1.010499
C100	C	0.176668	-0.285160	0.343862
C101	C	0.510002	0.048173	0.677195
C102	C	0.843335	0.381507	1.010528
C103	C	0.176673	-0.218185	0.263489
C104	C	0.510006	0.115148	0.596822
C105	C	0.843339	0.448482	0.930155
C106	C	0.242415	-0.218199	0.263465
C107	C	0.575749	0.115135	0.596798
C108	C	0.909082	0.448468	0.930132
C109	C	0.275281	-0.251697	0.303636
C110	C	0.608614	0.081636	0.636969
C111	C	0.941948	0.414969	0.970303
C112	C	0.949996	-0.806011	0.263409
C113	C	1.283329	-0.472678	0.596742
C114	C	1.616662	-0.139345	0.930076
C115	C	0.950020	-0.860616	0.263418
C116	C	1.283353	-0.527282	0.596751
C117	C	1.616687	-0.193949	0.930084
O118	O	0.984300	-0.888838	0.229245
O119	O	1.317633	-0.555505	0.562578
O120	O	1.650967	-0.222172	0.895912
N121	N	0.909753	-0.887947	0.303626
N122	N	1.243086	-0.554614	0.636959
N123	N	1.576419	-0.221281	0.970292
C124	C	0.869463	-0.860672	0.343833
C125	C	1.202796	-0.527339	0.677166
C126	C	1.536129	-0.194005	1.010499
O127	O	0.835215	-0.888934	0.378034
O128	O	1.168548	-0.555600	0.711368
O129	O	1.501881	-0.222267	1.044701
C130	C	0.869442	-0.806069	0.343827
C131	C	1.202775	-0.472735	0.677160
C132	C	1.536109	-0.139402	1.010494
C133	C	0.909708	-0.778740	0.303612
C134	C	1.243041	-0.445406	0.636945
C135	C	1.576374	-0.112073	0.970278
C136	C	0.990259	-0.778683	0.223198
C137	C	1.323592	-0.445349	0.556531
C138	C	1.656925	-0.112016	0.889864
C139	C	0.990233	-0.724082	0.223188
C140	C	1.323567	-0.390749	0.556522
C141	C	1.656900	-0.057415	0.889855
C142	C	0.949945	-0.696810	0.263391
C143	C	1.283278	-0.363477	0.596724
C144	C	1.616612	-0.030144	0.930058
C145	C	0.909682	-0.724139	0.303603
C146	C	1.243016	-0.390806	0.636936
C147	C	1.576349	-0.057473	0.970269
C148	C	0.829156	-0.778794	0.384037
C149	C	1.162489	-0.445461	0.717370
C150	C	1.495822	-0.112127	1.050703
C151	C	0.829139	-0.724187	0.384028
C152	C	1.162472	-0.390854	0.717361
C153	C	1.495805	-0.057520	1.050695
C154	C	0.869404	-0.696858	0.343812
C155	C	1.202738	-0.363525	0.677146
C156	C	1.536071	-0.030192	1.010479
C157	C	0.869369	-0.642267	0.343796
C158	C	1.202702	-0.308934	0.677129
C159	C	1.536035	0.024400	1.010463
N160	N	0.909636	-0.614935	0.303588
N161	N	1.242969	-0.281602	0.636921
N162	N	1.576303	0.051731	0.970254
C163	C	0.949924	-0.642207	0.263385
C164	C	1.283258	-0.308874	0.596719
C165	C	1.616591	0.024460	0.930052
C166	C	0.869510	-0.975343	0.343842
C167	C	1.202844	-0.642009	0.677176
C168	C	1.536177	-0.308676	1.010509
C169	C	0.869527	-1.029945	0.343845
C170	C	1.202861	-0.696611	0.677179
C171	C	1.536194	-0.363278	1.010512
C172	C	0.950086	-1.029885	0.263431
C173	C	1.283419	-0.696552	0.596764
C174	C	1.616752	-0.363218	0.930098
C175	C	0.950065	-0.975282	0.263425
C176	C	1.283398	-0.641948	0.596759
C177	C	1.616732	-0.308615	0.930092
C178	C	0.909778	-0.948011	0.303634
C179	C	1.243111	-0.614678	0.636968
C180	C	1.576444	-0.281344	0.970301
C181	C	0.949868	-0.527542	0.263369
C182	C	1.283201	-0.194209	0.596702
C183	C	1.616534	0.139125	0.930035
C184	C	0.949837	-0.472937	0.263361
C185	C	1.283170	-0.139603	0.596695
C186	C	1.616503	0.193730	0.930028
C187	C	0.869281	-0.473001	0.343778
C188	C	1.202614	-0.139668	0.677111
C189	C	1.535948	0.193665	1.010445
C190	C	0.869309	-0.527602	0.343783
C191	C	1.202642	-0.194269	0.677117
C192	C	1.535976	0.139065	1.010450
C193	C	0.909607	-0.554871	0.303577
C194	C	1.242941	-0.221538	0.636910
C195	C	1.576274	0.111796	0.970243
O196	O	0.835108	-0.614010	0.377953
O197	O	1.168441	-0.280676	0.711286
O198	O	1.501775	0.052657	1.044620
O199	O	0.984172	-0.613939	0.229195
O200	O	1.317506	-0.280605	0.562529
O201	O	1.650839	0.052728	0.895862
C202	C	1.073832	-0.251681	0.303657
C203	C	1.407166	0.081652	0.636990
C204	C	1.740499	0.414985	0.970324
C205	C	1.143801	-0.251670	0.303688
C206	C	1.477134	0.081664	0.637022
C207	C	1.810467	0.414997	0.970355
C208	C	0.909694	-0.251697	0.467774
C209	C	1.243028	0.081636	0.801108
C210	C	1.576361	0.414969	1.134441
C211	C	0.909717	-0.251693	0.537743
C212	C	1.243050	0.081641	0.871076
C213	C	1.576383	0.414974	1.204409
C214	C	0.909766	-0.115335	0.303627
C215	C	1.243099	0.217998	0.636960
C216	C	1.576432	0.551331	0.970293
C217	C	0.909818	-0.057221	0.303645
C218	C	1.243151	0.276112	0.636978
C219	C	1.576485	0.609445	0.970312
C220	C	0.909626	-0.251682	0.140032
C221	C	1.242960	0.081652	0.473366
C222	C	1.576293	0.414985	0.806699
C223	C	0.909726	-0.251539	0.070065
C224	C	1.243059	0.081794	0.403398
C225	C	1.576393	0.415128	0.736731
C226	C	0.950007	-0.218244	0.570639
C227	C	1.283340	0.115089	0.903972
C228	C	1.616673	0.448423	1.237305
C229	C	0.950006	-0.218221	0.636381
C230	C	1.283339	0.115112	0.969714
C231	C	1.616672	0.448445	1.303048
C232	C	0.909721	-0.251657	0.669225
C233	C	1.243055	0.081677	1.002558
C234	C	1.576388	0.415010	1.335892
C235	C	0.869424	-0.285108	0.636321
C236	C	1.202757	0.048226	0.969654
C237	C	1.536090	0.381559	1.302988
C238	C	0.869421	-0.285126	0.570580
C239	C	1.202755	0.048208	0.903913
C240	C	1.536088	0.381541	1.237246
N241	N	0.904857	-0.297396	0.772441
N242	N	1.238190	0.035937	1.105774
N243	N	1.571524	0.369271	1.439108
N244	N	0.904863	-0.297377	0.834892
N245	N	1.238196	0.035956	1.168226
N246	N	1.571530	0.369289	1.501559
C247	C	0.909725	-0.251604	0.867300
C248	C	1.243059	0.081730	1.200633
C249	C	1.576392	0.415063	1.533967
N250	N	0.914594	-0.205848	0.834897
N251	N	1.247927	0.127485	1.168230
N252	N	1.581261	0.460818	1.501563
N253	N	0.914591	-0.205867	0.772440
N254	N	1.247925	0.127466	1.105773
N255	N	1.581258	0.460799	1.439106
C256	C	0.909719	-0.251641	0.740511
C257	C	1.243053	0.081693	1.073844
C258	C	1.576386	0.415026	1.407177
C259	C	0.950017	-0.218128	0.971482
C260	C	1.283350	0.115206	1.304815
C261	C	1.616683	0.448539	1.638148
C262	C	0.950011	-0.218104	1.037225
C263	C	1.283345	0.115229	1.370559
C264	C	1.616678	0.448562	1.703892
C265	C	0.869433	-0.284995	1.037164
C266	C	1.202766	0.048338	1.370497
C267	C	1.536099	0.381672	1.703831
C268	C	0.869435	-0.285014	0.971422
C269	C	1.202768	0.048320	1.304755
C270	C	1.536101	0.381653	1.638088
C271	C	0.909730	-0.251581	0.938584
C272	C	1.243063	0.081752	1.271918
C273	C	1.576397	0.415086	1.605251
H274	H	0.550746	-0.312494	0.376445
H275	H	0.884079	0.020839	0.709778
H276	H	1.217413	0.354173	1.043112
N277	N	0.825986	-0.321060	1.072581
N278	N	1.159319	0.012274	1.405914
N279	N	1.492652	0.345607	1.739248
H280	H	0.800463	-0.342254	1.041763
H281	H	1.133796	-0.008921	1.375096
H282	H	1.467129	0.324412	1.708429
H283	H	0.796874	-0.299774	1.099836
H284	H	1.130207	0.033559	1.433169
H285	H	1.463540	0.366893	1.766502
N286	N	1.033709	-0.808094	0.179827
N287	N	1.367042	-0.474761	0.513161
N288	N	1.700375	-0.141427	0.846494
H289	H	1.062883	-0.830711	0.205439
H290	H	1.396216	-0.497377	0.538772
H291	H	1.729549	-0.164044	0.872106
H292	H	1.059166	-0.782457	0.154364
H293	H	1.392499	-0.449123	0.487697
H294	H	1.725832	-0.115790	0.821030
N295	N	0.678702	-0.321371	0.387012
N296	N	1.012036	0.011963	0.720345
N297	N	1.345369	0.345296	1.053678
H298	H	0.647901	-0.342580	0.412477
H299	H	0.981234	-0.009246	0.745811
H300	H	1.314568	0.324087	1.079144
H301	H	0.706040	-0.300130	0.416183
H302	H	1.039374	0.033203	0.749516
H303	H	1.372707	0.366537	1.082849
N304	N	0.542065	-0.182137	0.220008
N305	N	0.875398	0.151197	0.553342
N306	N	1.208732	0.484530	0.886675
H307	H	0.495430	-0.187215	0.226116
H308	H	0.828763	0.146119	0.559450
H309	H	1.162097	0.479452	0.892783
H310	H	0.553503	-0.190229	0.175033
H311	H	0.886836	0.143105	0.508366
H312	H	1.220169	0.476438	0.841700
H313	H	0.836477	-0.450788	0.376509
H314	H	1.169810	-0.117455	0.709842
H315	H	1.503143	0.215878	1.043175
N316	N	0.678711	-0.182144	0.219979
N317	N	1.012045	0.151190	0.553312
N318	N	1.345378	0.484523	0.886646
H319	H	0.647914	-0.160923	0.194535
H320	H	0.981247	0.172410	0.527868
H321	H	1.314581	0.505744	0.861202
H322	H	0.705927	-0.203392	0.190789
H323	H	1.039261	0.129941	0.524122
H324	H	1.372594	0.463275	0.857456
H325	H	0.982893	-1.052099	0.230698
H326	H	1.316226	-0.718766	0.564031
H327	H	1.649559	-0.385433	0.897365
N328	N	0.993465	-0.182185	0.535221
N329	N	1.326798	0.151148	0.868555
N330	N	1.660131	0.484482	1.201888
H331	H	1.018988	-0.160992	0.566041
H332	H	1.352321	0.172342	0.899374
H333	H	1.685655	0.505675	1.232708
H334	H	0.967863	-0.157999	0.507927
H335	H	1.301196	0.175334	0.841261
H336	H	1.634530	0.508667	1.174594
H337	H	0.269173	-0.312450	0.376545
H338	H	0.602506	0.020883	0.709879
H339	H	0.935839	0.354216	1.043212
N340	N	0.826087	-1.059418	0.387209
N341	N	1.159421	-0.726085	0.720543
N342	N	1.492754	-0.392751	1.053876
H343	H	0.800562	-1.033851	0.412673
H344	H	1.133896	-0.700518	0.746006
H345	H	1.467229	-0.367184	1.079339
H346	H	0.851702	-1.082035	0.416381
H347	H	1.185035	-0.748701	0.749714
H348	H	1.518368	-0.415368	1.083047
N349	N	0.785728	-0.808255	0.427421
N350	N	1.119061	-0.474921	0.760754
N351	N	1.452394	-0.141588	1.094087
H352	H	0.811305	-0.830869	0.456630
H353	H	1.144638	-0.497535	0.789963
H354	H	1.477972	-0.164202	1.123296
H355	H	0.756577	-0.830921	0.401773
H356	H	1.089910	-0.497588	0.735106
H357	H	1.423243	-0.164255	1.068440
N358	N	0.141215	-0.321276	0.387210
N359	N	0.474548	0.012057	0.720544
N360	N	0.807881	0.345391	1.053877
H361	H	0.172013	-0.342499	0.412650
H362	H	0.505347	-0.009166	0.745983
H363	H	0.838680	0.324167	1.079317
H364	H	0.113877	-0.345432	0.361535
H365	H	0.447211	-0.012098	0.694869
H366	H	0.780544	0.321235	1.028202
N367	N	0.277862	-0.182082	0.220114
N368	N	0.611196	0.151251	0.553447
N369	N	0.944529	0.484585	0.886781
H370	H	0.266361	-0.190143	0.175122
H371	H	0.599694	0.143190	0.508456
H372	H	0.933028	0.476524	0.841789
H373	H	0.324486	-0.187182	0.226246
H374	H	0.657820	0.146152	0.559580
H375	H	0.991153	0.479485	0.892913
H376	H	0.982853	-0.953034	0.230679
H377	H	1.316186	-0.619700	0.564012
H378	H	1.649520	-0.286367	0.897346
H379	H	0.149909	-0.190915	0.230781
H380	H	0.483242	0.142419	0.564115
H381	H	0.816575	0.475752	0.897448
H382	H	0.982626	-0.450687	0.230611
H383	H	1.315959	-0.117354	0.563944
H384	H	1.649292	0.215979	0.897278
N385	N	0.993462	-0.182143	0.671873
N386	N	1.326796	0.151190	1.005206
N387	N	1.660129	0.484523	1.338540
H388	H	1.018988	-0.160966	0.641095
H389	H	1.352321	0.172367	0.974428
H390	H	1.685654	0.505700	1.307761
H391	H	1.022572	-0.203418	0.699169
H392	H	1.355905	0.129915	1.032502
H393	H	1.689238	0.463248	1.365836
N394	N	0.993331	-0.556949	0.220005
N395	N	1.326665	-0.223616	0.553338
N396	N	1.659998	0.109718	0.886671
H397	H	1.018830	-0.531344	0.194532
H398	H	1.352163	-0.198011	0.527865
H399	H	1.685496	0.135323	0.861199
H400	H	0.967733	-0.579643	0.190843
H401	H	1.301067	-0.246310	0.524176
H402	H	1.634400	0.087024	0.857509
N403	N	1.033672	-0.694610	0.179823
N404	N	1.367005	-0.361277	0.513156
N405	N	1.700339	-0.027943	0.846489
H406	H	1.059198	-0.720179	0.154363
H407	H	1.392532	-0.386845	0.487696
H408	H	1.725865	-0.053512	0.821030
H409	H	1.062781	-0.671918	0.205487
H410	H	1.396114	-0.338585	0.538820
H411	H	1.729448	-0.005252	0.872154
H412	H	0.796333	-0.701986	0.416773
H413	H	1.129666	-0.368653	0.750106
H414	H	1.462999	-0.035319	1.083440
N415	N	0.825979	-0.321174	0.671743
N416	N	1.159313	0.012160	1.005077
N417	N	1.492646	0.345493	1.338410
H418	H	0.800455	-0.342367	0.640925
H419	H	1.133788	-0.009034	0.974258
H420	H	1.467121	0.324299	1.307592
H421	H	0.796869	-0.299889	0.699001
H422	H	1.130203	0.033444	1.032334
H423	H	1.463536	0.366777	1.365668
H424	H	0.836609	-0.312363	0.543796
H425	H	1.169943	0.020971	0.877129
H426	H	1.503276	0.354304	1.210463
N427	N	0.826050	-0.945931	0.387208
N428	N	1.159383	-0.612597	0.720542
N429	N	1.492716	-0.279264	1.053875
H430	H	0.800545	-0.971535	0.412677
H431	H	1.133879	-0.638201	0.746010
H432	H	1.467212	-0.304868	1.079343
H433	H	0.796921	-0.923317	0.361545
H434	H	1.130254	-0.589984	0.694878
H435	H	1.463587	-0.256650	1.028212
H436	H	0.982824	-0.190902	0.944744
H437	H	1.316157	0.142432	1.278077
H438	H	1.649491	0.475765	1.611411
N439	N	0.825875	-0.557082	0.387150
N440	N	1.159208	-0.223749	0.720483
N441	N	1.492541	0.109585	1.053816
H442	H	0.800347	-0.531518	0.412614
H443	H	1.133680	-0.198184	0.745948
H444	H	1.467014	0.135149	1.079281
H445	H	0.851496	-0.579695	0.416319
H446	H	1.184829	-0.246361	0.749653
H447	H	1.518162	0.086972	1.082986
H448	H	0.982819	-0.190863	1.064008
H449	H	1.316153	0.142470	1.397342
H450	H	1.649486	0.475803	1.730675
N451	N	0.825969	-0.321082	0.935936
N452	N	1.159302	0.012251	1.269269
N453	N	1.492635	0.345584	1.602602
H454	H	0.800444	-0.342257	0.966716
H455	H	1.133777	-0.008924	1.300049
H456	H	1.467110	0.324409	1.633383
H457	H	0.851557	-0.345285	0.908670
H458	H	1.184890	-0.011952	1.242004
H459	H	1.518224	0.321381	1.575337
