data_functionalizedCrystal
_audit_creation_method	'MofGen! by Chris Wilmer'
_symmetry_space_group_name_H-M	'P1'
_symmetry_Int_Tables_number	1
_symmetry_cell_setting	triclinic
loop_
_symmetry_equiv_pos_as_xyz
  x,y,z
_cell_length_a	14.971490
_cell_length_b	9.730223
_cell_length_c	14.971486
_cell_angle_alpha	90.001545
_cell_angle_beta	96.385112
_cell_angle_gamma	89.997458
loop_
_atom_site_label
_atom_site_type_symbol
_atom_site_fract_x
_atom_site_fract_y
_atom_site_fract_z
O1	O	-1.186937	0.114365	0.116575
O2	O	-0.926538	0.114351	0.130530
O3	O	-1.063717	0.114349	-0.006648
O4	O	-1.049758	0.114368	0.253752
O5	O	-1.063715	-0.114231	-0.006644
O6	O	-0.926536	-0.114228	0.130533
O7	O	-1.186936	-0.114215	0.116578
Zn8	Zn	-1.056736	-0.150514	0.123556
Zn9	Zn	-1.056738	0.150650	0.123552
O10	O	-1.049757	-0.114212	0.253756
C11	C	-0.893212	0.000060	0.129907
C12	C	-0.793915	0.000054	0.128035
C13	C	-0.366210	0.124679	0.119955
C14	C	-0.459511	0.124675	0.121711
C15	C	-0.506156	0.000072	0.122597
C16	C	-0.459497	-0.124535	0.121718
C17	C	-0.366199	-0.124530	0.119955
C18	C	-0.653959	-0.124538	0.125394
C19	C	-0.747263	-0.124543	0.127158
C20	C	-0.747270	0.124668	0.127150
C21	C	-0.653973	0.124673	0.125387
C22	C	-0.607320	0.000065	0.124510
N23	N	-1.056741	-0.356050	0.123559
C24	C	-1.117499	-0.427977	0.062837
C25	C	-1.117497	-0.571860	0.062826
C26	C	-0.995975	-0.571876	0.184267
C27	C	-0.995974	-0.427996	0.184273
C28	C	-1.187662	-0.427969	-0.007273
C29	C	-1.187660	-0.571852	-0.007284
C30	C	-0.220261	0.000077	0.117202
C31	C	-0.319558	0.000081	0.119078
C32	C	-1.063092	0.000059	-0.039971
C33	C	-1.061221	0.000060	-0.139268
N34	N	-1.056740	0.356187	0.123542
C35	C	-1.141810	0.000063	-0.196492
C36	C	-1.140047	0.000077	-0.289791
C37	C	-1.057694	0.000078	-0.325865
C38	C	-0.977099	0.000079	-0.268633
C39	C	-0.978863	0.000075	-0.175336
C40	C	-0.973428	0.000084	-0.463096
C41	C	-0.971663	0.000085	-0.556400
C42	C	-1.134612	0.000086	-0.577552
C43	C	-1.136376	0.000082	-0.484254
C44	C	-1.055780	0.000080	-0.427029
C45	C	-1.050382	0.000080	0.287079
C46	C	-1.052252	0.000088	0.386376
H47	H	-0.615975	-0.226007	0.124690
C48	C	-1.302699	0.000089	-0.226780
C49	C	-1.232337	0.000072	-0.156845
H50	H	-1.358587	0.000108	-0.202304
H51	H	-1.298626	-0.079618	-0.262729
H52	H	-1.298611	0.079804	-0.262729
H53	H	-1.236422	-0.079649	-0.120900
H54	H	-1.236413	0.079788	-0.120882
H55	H	-1.166423	-0.616474	-0.072091
C56	C	-0.880590	0.117580	-0.361286
C57	C	-0.886575	0.000079	-0.308287
H58	H	-0.824705	0.117570	-0.385769
H59	H	-0.884660	0.197276	-0.325327
H60	H	-0.928340	0.117566	-0.408717
H61	H	-0.838829	0.000098	-0.260852
H62	H	-0.882497	-0.079638	-0.344248
C63	C	-1.336478	-0.512643	0.024828
C64	C	-1.280294	-0.624577	0.012693
H65	H	-1.393661	-0.545197	0.037165
H66	H	-1.343232	-0.458407	-0.028242
H67	H	-1.310647	-0.458427	0.073803
H68	H	-1.306121	-0.678788	-0.036286
H69	H	-1.273542	-0.678836	0.065769
C70	C	-0.875850	-0.442470	0.304303
C71	C	-0.929181	-0.348932	0.251014
H72	H	-0.834617	-0.393656	0.345510
H73	H	-0.843648	-0.498586	0.267009
H74	H	-0.913119	-0.498589	0.336541
H75	H	-0.891913	-0.292819	0.218771
H76	H	-0.961385	-0.292792	0.288313
C77	C	-1.232607	0.117601	-0.406965
C78	C	-1.228637	0.000086	-0.352688
H79	H	-1.287305	0.117611	-0.445789
H80	H	-1.183319	0.117595	-0.441803
H81	H	-1.229904	0.197296	-0.370112
H82	H	-1.231333	-0.079610	-0.389541
H83	H	-1.277938	0.000079	-0.317847
H84	H	-1.172915	-0.388921	-0.075911
H85	H	-1.203435	0.000072	-0.454886
C86	C	-0.663348	0.371009	0.125546
C87	C	-0.602699	0.261637	0.124410
H88	H	-0.631692	0.455563	0.124935
H89	H	-0.692967	0.365840	0.178352
H90	H	-0.706508	0.365807	0.074112
H91	H	-0.559542	0.266833	0.175848
H92	H	-0.573065	0.266808	0.071599
H93	H	-0.497492	0.226135	0.122420
C94	C	-1.204271	0.000132	-0.729959
C95	C	-1.223206	0.000110	-0.640450
H96	H	-1.258964	0.000153	-0.768790
H97	H	-1.170515	-0.079575	-0.740907
H98	H	-1.170504	0.079848	-0.740885
H99	H	-1.256967	-0.079612	-0.629522
H100	H	-1.256976	0.079824	-0.629498
C101	C	-0.810771	0.000139	-0.526126
C102	C	-0.881140	0.000116	-0.596054
H103	H	-0.754887	0.000171	-0.550609
H104	H	-0.814830	-0.079573	-0.490182
H105	H	-0.814866	0.079850	-0.490171
H106	H	-0.877049	-0.079601	-0.632005
H107	H	-0.877079	0.079835	-0.632013
C108	C	-0.862169	-0.269095	0.052312
C109	C	-0.798545	-0.261501	0.128126
H110	H	-0.893833	-0.353644	0.052914
H111	H	-0.832539	-0.263929	-0.000487
H112	H	-0.903295	-0.194872	0.053102
H113	H	-0.757416	-0.335719	0.127332
H114	H	-0.828176	-0.266681	0.180938
H115	H	-0.785259	0.226128	0.127866
C116	C	-0.574394	-0.269120	0.046879
C117	C	-0.510770	-0.261501	0.122692
H118	H	-0.606049	-0.353675	0.047487
H119	H	-0.544764	-0.263955	-0.005920
H120	H	-0.615526	-0.194905	0.047663
H121	H	-0.469633	-0.335710	0.121903
H122	H	-0.540401	-0.266679	0.175504
H123	H	-0.328214	-0.225990	0.119250
C124	C	-0.817619	0.000064	-0.163793
C125	C	-0.890277	0.000068	-0.112431
H126	H	-0.762929	0.000057	-0.124957
H127	H	-0.820323	0.079769	-0.200620
H128	H	-0.820324	-0.079653	-0.200626
H129	H	-0.887576	0.079790	-0.075603
H130	H	-0.887572	-0.079646	-0.075589
H131	H	-0.946499	-0.630470	0.233698
H132	H	-1.252440	-0.383338	0.014018
H133	H	-0.907798	0.000086	-0.416505
H134	H	-0.328238	0.226145	0.119240
