data_functionalizedCrystal
_audit_creation_method	'MofGen! by Chris Wilmer'
_symmetry_space_group_name_H-M	'P1'
_symmetry_Int_Tables_number	1
_symmetry_cell_setting	triclinic
loop_
_symmetry_equiv_pos_as_xyz
  x,y,z
_cell_length_a	17.019311
_cell_length_b	15.500227
_cell_length_c	10.654551
_cell_angle_alpha	87.142580
_cell_angle_beta	83.940128
_cell_angle_gamma	96.714751
loop_
_atom_site_label
_atom_site_type_symbol
_atom_site_fract_x
_atom_site_fract_y
_atom_site_fract_z
O1	O	1.055166	0.150550	0.147826
O2	O	1.555166	0.650550	0.647826
O3	O	0.824745	0.133385	0.169610
O4	O	1.324745	0.633385	0.669610
O5	O	0.945253	0.142360	-0.024135
O6	O	1.445253	0.642360	0.475865
O7	O	0.934658	0.141575	0.341571
O8	O	1.434658	0.641575	0.841571
O9	O	0.937940	-0.002073	-0.012424
O10	O	1.437940	0.497927	0.487576
O11	O	0.817432	-0.011048	0.181321
O12	O	1.317432	0.488952	0.681321
O13	O	1.047853	0.006117	0.159537
O14	O	1.547853	0.506117	0.659537
Cu15	Cu	0.931975	-0.015654	0.171498
Cu16	Cu	1.431975	0.484346	0.671498
Cu17	Cu	0.940623	0.155155	0.157649
Cu18	Cu	1.440623	0.655155	0.657649
O19	O	0.927345	-0.002859	0.353283
O20	O	1.427345	0.497141	0.853283
C21	C	0.791584	0.058971	0.174869
C22	C	1.291584	0.558971	0.674869
C23	C	0.703670	0.052422	0.173076
C24	C	1.203670	0.552422	0.673076
C25	C	0.206243	0.011434	0.163297
C26	C	0.706243	0.511434	0.663297
C27	C	0.288847	0.017589	0.164982
C28	C	0.788847	0.517589	0.664982
C29	C	0.334137	0.099399	0.159430
C30	C	0.834137	0.599399	0.659430
C31	C	0.296817	0.175058	0.152207
C32	C	0.796817	0.675058	0.652207
C33	C	0.214213	0.168902	0.150532
C34	C	0.714213	0.668902	0.650532
C35	C	0.583746	0.121925	0.164177
C36	C	1.083746	0.621925	0.664177
C37	C	0.666356	0.128075	0.165849
C38	C	1.166356	0.628075	0.665849
C39	C	0.658380	-0.029394	0.178626
C40	C	1.158380	0.470606	0.678626
C41	C	0.575776	-0.035543	0.176942
C42	C	1.075776	0.464457	0.676942
C43	C	0.538463	0.040116	0.169726
C44	C	1.038463	0.540116	0.669726
C45	C	0.418573	0.105692	0.161148
C46	C	0.918573	0.605692	0.661148
C47	C	0.454028	0.033822	0.168018
C48	C	0.954028	0.533822	0.668018
N49	N	0.925898	-0.135791	0.181239
N50	N	1.425898	0.364209	0.681239
C51	C	0.976979	-0.177263	0.099172
C52	C	1.476979	0.322737	0.599172
C53	C	0.972391	-0.268178	0.106550
C54	C	1.472391	0.231822	0.606550
C55	C	0.916724	-0.317619	0.196002
C56	C	1.416724	0.182381	0.696002
C57	C	0.865637	-0.276140	0.278072
C58	C	1.365637	0.223860	0.778072
C59	C	0.870222	-0.185228	0.270687
C60	C	1.370222	0.314772	0.770687
C61	C	0.900205	-0.592316	0.222584
C62	C	1.400205	-0.092316	0.722584
C63	C	0.895625	-0.683234	0.229965
C64	C	1.395625	-0.183234	0.729965
C65	C	1.002378	-0.675266	0.058441
C66	C	1.502378	-0.175266	0.558441
C67	C	1.006962	-0.584351	0.051069
C68	C	1.506962	-0.084351	0.551069
C69	C	0.955872	-0.542881	0.133135
C70	C	1.455872	-0.042881	0.633135
C71	C	0.912034	-0.410548	0.203548
C72	C	1.412034	0.089452	0.703548
C73	C	0.960559	-0.449954	0.125582
C74	C	1.460559	0.050046	0.625582
C75	C	1.081014	0.080533	0.154278
C76	C	1.581014	0.580533	0.654278
C77	C	1.168929	0.087088	0.156071
C78	C	1.668929	0.587088	0.656071
C79	C	0.940818	0.070087	-0.065061
C80	C	1.440818	0.570087	0.434939
C81	C	0.938491	0.069918	-0.204454
C82	C	1.438491	0.569918	0.295546
N83	N	0.946707	0.275293	0.147898
N84	N	1.446707	0.775293	0.647898
C85	C	0.941384	0.148568	-0.276318
C86	C	1.441384	0.648568	0.223682
C87	C	0.939190	0.148405	-0.407291
C88	C	1.439190	0.648405	0.092709
C89	C	0.931212	-0.009065	-0.394525
C90	C	1.431212	0.490935	0.105475
C91	C	0.933400	-0.008901	-0.263553
C92	C	1.433400	0.491099	0.236447
C93	C	0.894683	0.239323	-0.583968
C94	C	1.394683	0.739323	-0.083968
C95	C	0.897590	0.317978	-0.655840
C96	C	1.397590	0.817978	-0.155840
C97	C	0.948138	0.390994	-0.628952
C98	C	1.448138	0.890994	-0.128952
C99	C	0.995798	0.385360	-0.530198
C100	C	1.495798	0.885360	-0.030198
C101	C	0.992897	0.306704	-0.458335
C102	C	1.492897	0.806704	0.041665
C103	C	0.942331	0.233689	-0.485217
C104	C	1.442331	0.733689	0.014783
C105	C	0.977915	-0.099813	-0.086876
C106	C	1.477915	0.400187	0.413124
C107	C	0.975020	-0.178470	-0.015011
C108	C	1.475020	0.321530	0.484989
C109	C	0.924476	-0.251493	-0.041897
C110	C	1.424476	0.248507	0.458103
C111	C	0.876828	-0.245866	-0.140657
C112	C	1.376828	0.254134	0.359343
C113	C	0.879723	-0.167209	-0.212521
C114	C	1.379723	0.332791	0.287479
C115	C	0.930265	-0.094186	-0.185626
C116	C	1.430265	0.405814	0.314374
C117	C	0.931780	0.069417	0.394208
C118	C	1.431780	0.569417	0.894208
C119	C	0.934108	0.069592	0.533601
C120	C	1.434108	0.569592	1.033601
H121	H	0.333698	0.241669	0.147695
H122	H	0.833698	0.741669	0.647695
H123	H	1.022312	-0.137014	0.026336
H124	H	1.522312	0.362986	0.526336
H125	H	1.052290	-0.544098	-0.021769
H126	H	1.552290	-0.044098	0.478231
Cl127	Cl	0.475516	0.208536	0.154153
Cl128	Cl	0.975516	0.708536	0.654153
H129	H	1.043972	-0.709039	-0.008375
H130	H	1.543972	-0.209039	0.491625
H131	H	0.828626	-0.151462	0.337513
H132	H	1.328626	0.348538	0.837513
Cl133	Cl	1.036607	-0.320316	0.003378
Cl134	Cl	1.536607	0.179684	0.503378
H135	H	0.922130	-0.315540	0.016619
H136	H	1.422130	0.184460	0.516619
Cl137	Cl	0.825638	-0.745383	0.342432
Cl138	Cl	1.325638	-0.245383	0.842432
H139	H	0.183833	0.230508	0.144651
H140	H	0.683833	0.730508	0.644651
Cl141	Cl	0.837674	0.325061	-0.779979
Cl142	Cl	1.337674	0.825061	-0.279979
Cl143	Cl	0.335753	-0.077523	0.174074
Cl144	Cl	0.835753	0.422477	0.674074
H145	H	1.019067	-0.040351	-0.064965
H146	H	1.519067	0.459649	0.435035
H147	H	0.858607	-0.558558	0.289408
H148	H	1.358607	-0.058558	0.789408
Cl149	Cl	0.795651	-0.338293	0.390521
Cl150	Cl	1.295651	0.161707	0.890521
H151	H	0.417149	-0.032787	0.172544
H152	H	0.917149	0.467213	0.672544
Cl153	Cl	1.059357	0.477154	-0.496417
Cl154	Cl	1.559357	0.977154	0.003583
Cl155	Cl	0.951802	0.489869	-0.719321
Cl156	Cl	1.451802	0.989869	-0.219321
Cl157	Cl	1.030535	-0.387800	0.013128
Cl158	Cl	1.530535	0.112200	0.513128
Cl159	Cl	1.052806	0.299615	-0.334195
Cl160	Cl	1.552806	0.799615	0.165805
Cl161	Cl	0.149316	-0.091418	0.170265
Cl162	Cl	0.649316	0.408582	0.670265
Cl163	Cl	0.842055	-0.472705	0.316003
Cl164	Cl	1.342055	0.027295	0.816003
Cl165	Cl	0.947779	0.247654	-0.202026
Cl166	Cl	1.447779	0.747654	0.297974
H167	H	0.538908	-0.102161	0.181435
H168	H	1.038908	0.397839	0.681435
Cl169	Cl	1.034931	-0.185547	0.109134
Cl170	Cl	1.534931	0.314453	0.609134
Cl171	Cl	0.705293	-0.124502	0.187708
Cl172	Cl	1.205293	0.375498	0.687708
Cl173	Cl	0.831118	0.147536	-0.617761
Cl174	Cl	1.331118	0.647536	-0.117761
Cl175	Cl	0.924813	-0.108146	-0.468830
Cl176	Cl	1.424813	0.391854	0.031170
Cl177	Cl	0.819823	-0.160136	-0.336682
Cl178	Cl	1.319823	0.339864	0.163318
H179	H	0.835654	-0.305320	-0.162524
H180	H	1.335654	0.194680	0.337476
H181	H	0.553376	0.183532	0.158297
H182	H	1.053376	0.683532	0.658297
Cl183	Cl	0.723291	0.230930	0.158871
Cl184	Cl	1.223291	0.730930	0.658871
