data_functionalizedCrystal
_audit_creation_method	'MofGen! by Chris Wilmer'
_symmetry_space_group_name_H-M	'P1'
_symmetry_Int_Tables_number	1
_symmetry_cell_setting	triclinic
loop_
_symmetry_equiv_pos_as_xyz
  x,y,z
_cell_length_a	22.610064
_cell_length_b	17.038275
_cell_length_c	17.038272
_cell_angle_alpha	88.888330
_cell_angle_beta	89.996529
_cell_angle_gamma	90.009308
loop_
_atom_site_label
_atom_site_type_symbol
_atom_site_fract_x
_atom_site_fract_y
_atom_site_fract_z
O1	O	-0.049100	-1.048767	0.170537
O2	O	0.450900	-0.548767	0.670537
O3	O	-0.049119	-0.820956	0.167829
O4	O	0.450881	-0.320956	0.667829
O5	O	-0.049105	-0.933508	0.055277
O6	O	0.450895	-0.433508	0.555277
O7	O	-0.049114	-0.936215	0.283089
O8	O	0.450886	-0.436215	0.783089
O9	O	0.049264	-0.933471	0.055276
O10	O	0.549264	-0.433471	0.555276
O11	O	0.049250	-0.820919	0.167828
O12	O	0.549250	-0.320919	0.667828
O13	O	0.049270	-1.048731	0.170536
O14	O	0.549270	-0.548731	0.670536
Zn15	Zn	0.064878	-0.934819	0.169181
Zn16	Zn	0.564878	-0.434819	0.669181
Zn17	Zn	-0.064728	-0.934867	0.169183
Zn18	Zn	0.435272	-0.434867	0.669183
O19	O	0.049255	-0.936179	0.283088
O20	O	0.549255	-0.436179	0.783088
C21	C	0.000063	-0.791645	0.165365
C22	C	0.500063	-0.291645	0.665365
C23	C	0.000055	-0.704361	0.158017
C24	C	0.500055	-0.204361	0.658017
N25	N	0.153330	-0.934792	0.169180
N26	N	0.653330	-0.434792	0.669180
C27	C	0.000052	-0.658752	0.225481
C28	C	0.500052	-0.158752	0.725481
C29	C	0.000060	-0.576740	0.218572
C30	C	0.500060	-0.076740	0.718572
C31	C	0.000066	-0.540339	0.144198
C32	C	0.500066	-0.040339	0.644198
C33	C	0.000071	-0.585954	0.076730
C34	C	0.500071	-0.085954	0.576730
C35	C	0.000067	-0.667965	0.083639
C36	C	0.500067	-0.167965	0.583639
C37	C	0.000080	-0.292951	0.119787
C38	C	0.500080	0.207049	0.619787
C39	C	0.000082	-0.210935	0.112882
C40	C	0.500082	0.289065	0.612882
C41	C	0.000072	-0.201726	0.254725
C42	C	0.500072	0.298274	0.754725
C43	C	0.000065	-0.283738	0.261628
C44	C	0.500065	0.216262	0.761628
C45	C	0.000073	-0.329347	0.194160
C46	C	0.500073	0.170653	0.694160
C47	C	0.000072	-0.456510	0.137134
C48	C	0.500072	0.043490	0.637134
C49	C	0.000071	-0.413174	0.201224
C50	C	0.500071	0.086826	0.701224
C51	C	0.561974	-0.985658	0.220008
C52	C	1.061974	-0.485658	0.720008
C53	C	0.623894	-0.985667	0.220008
C54	C	1.123894	-0.485667	0.720008
O55	O	0.655915	-1.028887	0.263213
O56	O	1.155915	-0.528887	0.763213
N57	N	0.654868	-0.934874	0.169183
N58	N	1.154868	-0.434874	0.669183
C59	C	0.623918	-0.884074	0.118350
C60	C	1.123918	-0.384074	0.618350
O61	O	0.655949	-0.840871	0.075120
O62	O	1.155949	-0.340871	0.575120
C63	C	0.561999	-0.884069	0.118348
C64	C	1.061999	-0.384069	0.618348
C65	C	0.531029	-0.934860	0.169181
C66	C	1.031029	-0.434860	0.669181
C67	C	0.531004	-1.036446	0.270837
C68	C	1.031004	-0.536446	0.770837
C69	C	0.469088	-1.036436	0.270838
C70	C	0.969088	-0.536436	0.770838
C71	C	0.438143	-0.985638	0.220011
C72	C	0.938143	-0.485638	0.720011
C73	C	0.469113	-0.934850	0.169182
C74	C	0.969113	-0.434850	0.669182
C75	C	0.531050	-0.833273	0.067511
C76	C	1.031050	-0.333273	0.567511
C77	C	0.469127	-0.833274	0.067513
C78	C	0.969127	-0.333274	0.567513
C79	C	0.438157	-0.884065	0.118346
C80	C	0.938157	-0.384065	0.618346
C81	C	0.376252	-0.884042	0.118357
C82	C	0.876252	-0.384042	0.618357
N83	N	0.345279	-0.934835	0.169181
N84	N	0.845279	-0.434835	0.669181
C85	C	0.376224	-0.985633	0.220008
C86	C	0.876224	-0.485633	0.720008
C87	C	0.753951	-0.884088	0.118359
C88	C	1.253951	-0.384088	0.618359
C89	C	0.815869	-0.884088	0.118365
C90	C	1.315869	-0.384088	0.618365
C91	C	0.815841	-0.985683	0.220022
C92	C	1.315841	-0.485683	0.720022
C93	C	0.753922	-0.985678	0.220019
C94	C	1.253922	-0.485678	0.720019
C95	C	0.722978	-0.934882	0.169184
C96	C	1.222978	-0.434882	0.669184
C97	C	0.246197	-0.985607	0.220008
C98	C	0.746197	-0.485607	0.720008
C99	C	0.184276	-0.985590	0.220007
C100	C	0.684276	-0.485590	0.720007
C101	C	0.184309	-0.883999	0.118348
C102	C	0.684309	-0.383999	0.618348
C103	C	0.246225	-0.884012	0.118352
C104	C	0.746225	-0.384012	0.618352
C105	C	0.277167	-0.934823	0.169184
C106	C	0.777167	-0.434823	0.669184
O107	O	0.344192	-0.840846	0.075171
O108	O	0.844192	-0.340846	0.575171
O109	O	0.344186	-1.028836	0.263225
O110	O	0.844186	-0.528836	0.763225
N111	N	0.846820	-0.934889	0.169190
N112	N	1.346820	-0.434889	0.669190
C113	C	0.000079	-0.931026	0.025984
C114	C	0.500079	-0.431026	0.525984
C115	C	0.000079	-0.923678	-0.061300
C116	C	0.500079	-0.423678	0.438700
C117	C	0.000084	-0.078042	0.172999
C118	C	0.500084	0.421958	0.672999
C119	C	0.000079	-0.165325	0.180346
C120	C	0.500079	0.334675	0.680346
C121	C	0.000085	-0.991142	-0.106909
C122	C	0.500085	-0.491142	0.393091
C123	C	0.000079	-0.984233	-0.188921
C124	C	0.500079	-0.484233	0.311079
C125	C	0.000070	-0.909860	-0.225322
C126	C	0.500070	-0.409860	0.274678
C127	C	0.000062	-0.842391	-0.179707
C128	C	0.500062	-0.342391	0.320293
C129	C	0.000064	-0.849301	-0.097696
C130	C	0.500064	-0.349301	0.402304
C131	C	0.000060	-0.885449	-0.472710
C132	C	0.500060	-0.385449	0.027290
C133	C	0.000060	-0.878545	-0.554726
C134	C	0.500060	-0.378545	-0.054726
C135	C	0.000076	-1.020387	-0.563935
C136	C	0.500076	-0.520387	-0.063935
C137	C	0.000081	-1.027290	-0.481922
C138	C	0.500081	-0.527290	0.018078
C139	C	0.000070	-0.959822	-0.436314
C140	C	0.500070	-0.459822	0.063686
C141	C	0.000066	-0.902796	-0.309151
C142	C	0.500066	-0.402796	0.190849
C143	C	0.000070	-0.966886	-0.352487
C144	C	0.500070	-0.466886	0.147513
C145	C	0.000070	-0.938660	0.312381
C146	C	0.500070	-0.438660	0.812381
C147	C	0.000066	-0.946008	0.399665
C148	C	0.500066	-0.446008	0.899665
H149	H	0.000047	-0.688383	0.286043
H150	H	0.500047	-0.188383	0.786043
Br151	Br	0.000041	-0.793884	-0.410823
Br152	Br	0.500041	-0.293884	0.089177
Br153	Br	0.000041	-0.741455	-0.229107
Br154	Br	0.500041	-0.241455	0.270893
Br155	Br	0.000062	-0.139826	0.346284
Br156	Br	0.500062	0.360174	0.846284
H157	H	0.556256	-0.791915	0.026116
H158	H	1.056256	-0.291915	0.526116
H159	H	0.000059	-0.794365	-0.060562
H160	H	0.500059	-0.294365	0.439438
H161	H	0.556193	-1.077816	0.312227
H162	H	1.056193	-0.577816	0.812227
Br163	Br	0.000076	-0.729864	-0.007922
Br164	Br	0.500076	-0.229864	0.492078
Br165	Br	0.000076	-1.067818	-0.303084
Br166	Br	0.500076	-0.567818	0.196916
Br167	Br	0.427067	-1.105356	0.339845
Br168	Br	0.927067	-0.605356	0.839845
H169	H	0.000063	-0.817978	-0.584361
H170	H	0.500063	-0.317978	-0.084361
H171	H	0.000057	-0.539608	0.273508
H172	H	0.500057	-0.039608	0.773508
Br173	Br	0.000074	-1.128229	-0.432526
Br174	Br	0.500074	-0.628229	0.067474
H175	H	0.000053	-0.313370	0.322191
H176	H	0.500053	0.186630	0.822191
Br177	Br	0.711962	-0.815134	0.049370
Br178	Br	1.211962	-0.315134	0.549370
H179	H	0.000086	-0.181300	0.052316
H180	H	0.500086	0.318700	0.552316
H181	H	0.159102	-0.842638	0.076968
H182	H	0.659102	-0.342638	0.576968
Br183	Br	0.857892	-0.815140	0.049388
Br184	Br	1.357892	-0.315140	0.549388
H185	H	0.000070	-0.442816	0.261779
H186	H	0.500070	0.057184	0.761779
Br187	Br	0.427135	-0.764339	-0.001490
Br188	Br	0.927135	-0.264339	0.498510
H189	H	0.000087	-0.330076	0.064849
H190	H	0.500087	0.169924	0.564849
H191	H	0.000084	-0.556310	0.016173
H192	H	0.500084	-0.056310	0.516173
Br193	Br	0.000079	-0.407102	0.036201
Br194	Br	0.500079	0.092898	0.536201
H195	H	0.271442	-0.842645	0.076968
H196	H	0.771442	-0.342645	0.576968
Br197	Br	0.142248	-1.054518	0.289008
Br198	Br	0.642248	-0.554518	0.789008
Br199	Br	0.288181	-1.054566	0.288995
Br200	Br	0.788181	-0.554566	0.788995
H201	H	0.000060	-0.842241	-0.338798
H202	H	0.500060	-0.342241	0.161202
Br203	Br	0.711898	-1.054614	0.289007
Br204	Br	1.211898	-0.554614	0.789007
H205	H	0.000084	-1.075316	-0.601077
H206	H	0.500084	-0.575316	-0.101077
H207	H	0.841048	-1.027045	0.261409
H208	H	1.341048	-0.527045	0.761409
H209	H	0.000096	-1.051705	-0.077277
H210	H	0.500096	-0.551705	0.422723
H211	H	0.000085	-1.039169	-0.226052
H212	H	0.500085	-0.539169	0.273948
