data_functionalizedCrystal
_audit_creation_method	'MofGen! by Chris Wilmer'
_symmetry_space_group_name_H-M	'P1'
_symmetry_Int_Tables_number	1
_symmetry_cell_setting	triclinic
loop_
_symmetry_equiv_pos_as_xyz
  x,y,z
_cell_length_a	18.101397
_cell_length_b	21.395362
_cell_length_c	21.395355
_cell_angle_alpha	90.043940
_cell_angle_beta	89.980066
_cell_angle_gamma	89.963657
loop_
_atom_site_label
_atom_site_type_symbol
_atom_site_fract_x
_atom_site_fract_y
_atom_site_fract_z
Zn1	Zn	-0.294601	-0.957904	-0.354579
Zn2	Zn	-0.418425	-0.957825	-0.249799
Zn3	Zn	-0.294636	-0.853119	-0.249781
Zn4	Zn	-0.418440	-0.853107	-0.354504
O5	O	-0.356526	-0.905489	-0.302166
O6	O	-0.311006	-1.045572	-0.340720
O7	O	-0.402012	-0.943908	-0.162119
O8	O	-0.190998	-0.867057	-0.263706
O9	O	-0.401979	-1.045514	-0.263738
O10	O	-0.190973	-0.944042	-0.340701
O11	O	-0.311065	-0.866981	-0.162105
O12	O	-0.311080	-0.765439	-0.263633
O13	O	-0.402005	-0.867036	-0.442192
O14	O	-0.402038	-0.765431	-0.340573
O15	O	-0.311021	-0.944030	-0.442247
O16	O	-0.522060	-0.943896	-0.263665
O17	O	-0.522071	-0.866960	-0.340591
C18	C	-0.356565	-0.742701	-0.302093
C19	C	-0.356599	-0.673060	-0.302077
C20	C	-0.548936	-0.905435	-0.302136
C21	C	-0.631250	-0.905470	-0.302144
C22	C	-0.356511	-0.905541	-0.465589
C23	C	-0.356504	-0.905563	-0.535231
C24	C	-0.930341	-0.905550	-0.302201
C25	C	-0.898978	-0.953821	-0.253671
C26	C	-0.813359	-0.953988	-0.253797
C27	C	-0.781959	-0.905510	-0.302172
C28	C	-0.812974	-0.923415	-0.368221
C29	C	-0.898619	-0.923789	-0.367956
C30	C	-0.898868	-0.839245	-0.285253
C31	C	-0.813218	-0.839572	-0.283779
C32	C	-0.698099	-0.905486	-0.302159
C33	C	-1.014201	-0.905575	-0.302217
C34	C	-0.163364	-0.905560	-0.302210
C35	C	-0.081050	-0.905590	-0.302229
C36	C	-0.356487	-1.068912	-0.302239
C37	C	-0.356470	-1.138553	-0.302271
C38	C	-0.404024	-0.640359	-0.342080
C39	C	-0.404006	-0.574923	-0.342107
C40	C	-0.356571	-0.542192	-0.302122
C41	C	-0.309137	-0.574901	-0.262116
C42	C	-0.309151	-0.640335	-0.262094
C43	C	-0.350605	-0.438466	-0.245717
C44	C	-0.350596	-0.373033	-0.245738
C45	C	-0.356522	-0.340371	-0.302191
C46	C	-0.362474	-0.373150	-0.358624
C47	C	-0.362488	-0.438584	-0.358602
C48	C	-0.356550	-0.471239	-0.302142
C49	C	-0.403930	-0.236717	-0.342227
C50	C	-0.403907	-0.171280	-0.342256
C51	C	-0.309042	-0.171259	-0.262259
C52	C	-0.309061	-0.236695	-0.262236
C53	C	-0.356509	-0.269420	-0.302219
C54	C	-0.309127	-0.945652	-0.567974
C55	C	-0.309095	-0.945651	-0.633409
C56	C	-0.356454	-0.905568	-0.666099
C57	C	-0.403834	-0.865471	-0.633348
C58	C	-0.403859	-0.865469	-0.567914
C59	C	-0.423137	-0.900602	-0.769761
C60	C	-0.423113	-0.900609	-0.835194
C61	C	-0.356375	-0.905572	-0.867920
C62	C	-0.289660	-0.910541	-0.835204
C63	C	-0.289685	-0.910539	-0.769770
C64	C	-0.356431	-0.905566	-0.737051
C65	C	-0.308960	-0.945662	-0.971615
C66	C	-0.308927	-0.945657	-1.037052
C67	C	-0.403672	-0.865480	-1.036990
C68	C	-0.403699	-0.865482	-0.971555
C69	C	-0.356344	-0.905576	-0.938871
C70	C	-0.356487	-0.905473	-0.139378
C71	C	-0.356285	-0.905572	-0.069737
H72	H	-0.792391	-0.942785	-0.204823
H73	H	-0.477436	-0.896566	-0.861826
Br74	Br	-0.244782	-0.684719	-0.207802
Br75	Br	-0.931802	-1.004568	-0.391879
H76	H	-0.442283	-0.832841	-0.944895
Br77	Br	-0.244857	-1.000063	-0.523620
Br78	Br	-0.777109	-1.003291	-0.392551
Br79	Br	-0.513719	-0.893885	-0.725355
H80	H	-0.919365	-0.890171	-0.405362
Br81	Br	-0.934733	-1.035237	-0.272146
Br82	Br	-0.468102	-0.811067	-0.677711
H83	H	-0.442439	-0.832820	-0.541255
Br84	Br	-0.779089	-1.035849	-0.272492
Br85	Br	-0.468371	-0.530533	-0.396402
Br86	Br	-0.934963	-0.812095	-0.206370
Br87	Br	-0.779088	-0.866603	-0.430111
Br88	Br	-0.199082	-0.917282	-0.879608
H89	H	-0.792953	-0.826071	-0.235172
H90	H	-0.270513	-0.548247	-0.229561
Br91	Br	-0.933375	-0.935380	-0.171797
Br92	Br	-0.244695	-0.281078	-0.207943
H93	H	-0.270415	-0.144610	-0.229705
H94	H	-0.270511	-0.978295	-0.660073
H95	H	-0.235363	-0.914583	-0.743136
H96	H	-0.791852	-0.801671	-0.316535
Br97	Br	-0.342521	-0.328554	-0.169151
Br98	Br	-0.468416	-0.684768	-0.396343
Br99	Br	-0.370562	-0.483068	-0.435186
Br100	Br	-0.932678	-0.779299	-0.344163
H101	H	-0.367299	-0.346558	-0.404594
H102	H	-0.442561	-0.263363	-0.374787
H103	H	-0.442524	-0.144656	-0.374835
Br104	Br	-0.342562	-0.482786	-0.169095
H105	H	-0.270396	-0.978306	-0.945003
Br106	Br	-0.244634	-1.000078	-1.081491
H107	H	-0.442225	-0.832837	-1.063605
