data_functionalizedCrystal
_audit_creation_method	'MofGen! by Chris Wilmer'
_symmetry_space_group_name_H-M	'P1'
_symmetry_Int_Tables_number	1
_symmetry_cell_setting	triclinic
loop_
_symmetry_equiv_pos_as_xyz
  x,y,z
_cell_length_a	17.699083
_cell_length_b	8.559649
_cell_length_c	16.176319
_cell_angle_alpha	89.994559
_cell_angle_beta	89.998611
_cell_angle_gamma	76.530840
loop_
_atom_site_label
_atom_site_type_symbol
_atom_site_fract_x
_atom_site_fract_y
_atom_site_fract_z
O1	O	0.992507	0.202110	-0.068628
O2	O	0.770623	0.228405	-0.068655
O3	O	0.901113	-0.017421	-0.068638
O4	O	0.862017	0.447935	-0.068645
O5	O	0.901098	-0.017436	0.068855
O6	O	0.770608	0.228389	0.068838
O7	O	0.992492	0.202094	0.068865
Cu8	Cu	0.881549	0.215240	0.081406
Cu9	Cu	0.881566	0.215259	-0.081196
O10	O	0.862002	0.447920	0.068849
C11	C	0.742473	0.227455	0.000088
C12	C	0.658616	0.224628	0.000078
C13	C	0.601734	0.368922	0.000076
C14	C	0.522943	0.366257	0.000087
C15	C	0.501037	0.219296	0.000094
C16	C	0.557926	0.074990	0.000098
C17	C	0.636715	0.077657	0.000093
C18	C	0.240179	0.064231	0.000118
C19	C	0.161383	0.061575	0.000121
C20	C	0.126407	0.352831	0.000112
C21	C	0.205196	0.355498	0.000108
C22	C	0.262078	0.211193	0.000116
C23	C	0.347512	0.214085	0.000106
C24	C	0.415605	0.216402	0.000098
C25	C	0.904069	-0.076970	0.000107
C26	C	0.912888	-0.254384	0.000104
C27	C	1.020643	0.203044	0.000120
C28	C	1.104499	0.205871	0.000125
C29	C	0.859047	0.507469	0.000101
C30	C	0.850227	0.684883	0.000099
N31	N	0.881542	0.215226	0.195771
N32	N	0.881580	0.215260	-0.195561
C33	C	0.939336	0.106419	0.239043
C34	C	0.939340	0.106417	0.325590
C35	C	0.881552	0.215232	0.368864
C36	C	0.823752	0.324044	0.325586
C37	C	0.823746	0.324037	0.239041
C38	C	0.823776	0.324074	0.674614
C39	C	0.823789	0.324076	0.761166
C40	C	0.939370	0.106455	0.761164
C41	C	0.939364	0.106447	0.674618
C42	C	0.881562	0.215253	0.631348
C43	C	0.881558	0.215252	0.537504
C44	C	0.881559	0.215242	0.462706
H45	H	0.223027	0.475168	0.000099
O46	O	0.467620	0.506323	-0.000033
C47	C	0.358397	0.672401	-0.071300
C48	C	0.420998	0.513691	-0.071256
H49	H	0.320697	0.678426	-0.128886
H50	H	0.320581	0.678475	-0.013797
H51	H	0.387610	0.777863	-0.071273
H52	H	0.391850	0.408141	-0.071312
H53	H	0.458808	0.507759	-0.128754
O54	O	0.984960	-0.354207	0.000261
C55	C	1.107274	-0.438461	0.071480
C56	C	1.025672	-0.325349	0.071415
H57	H	1.140218	-0.415146	0.128993
H58	H	1.101838	-0.568581	0.071538
H59	H	1.140197	-0.415317	0.013914
H60	H	0.992703	-0.348348	0.128971
H61	H	1.031163	-0.195266	0.071314
O62	O	0.995494	0.000522	0.803108
C63	C	1.055978	-0.277501	0.829636
C64	C	0.992400	-0.157717	0.782070
H65	H	1.053487	-0.405463	0.812657
H66	H	1.115417	-0.256970	0.812598
H67	H	1.046061	-0.258733	0.898921
H68	H	1.002244	-0.176413	0.712774
H69	H	0.932983	-0.178277	0.799176
H70	H	0.080083	0.470330	0.000110
H71	H	0.619562	0.488595	0.000070
O72	O	0.778135	-0.215399	-0.000024
C73	C	0.655859	-0.131001	-0.071301
C74	C	0.737475	-0.244061	-0.071253
H75	H	0.622968	-0.154111	-0.128892
H76	H	0.622849	-0.154170	-0.013803
H77	H	0.661363	-0.000928	-0.071265
H78	H	0.732042	-0.374175	-0.071318
H79	H	0.770455	-0.220753	-0.128746
O80	O	0.767596	0.429926	0.632717
C81	C	0.652928	0.645725	0.641861
C82	C	0.716518	0.525953	0.689416
H83	H	0.611605	0.723371	0.687681
H84	H	0.680913	0.725591	0.601353
H85	H	0.619156	0.576790	0.601332
H86	H	0.750312	0.594756	0.729990
H87	H	0.688486	0.446088	0.729872
O88	O	0.995509	0.000561	0.197138
C89	C	1.110179	-0.215239	0.206280
C90	C	1.046599	-0.095459	0.253837
H91	H	1.151511	-0.292880	0.252100
H92	H	1.082185	-0.295109	0.165795
H93	H	1.143942	-0.146310	0.165730
H94	H	1.012813	-0.164257	0.294432
H95	H	1.074640	-0.015590	0.294270
H96	H	0.986399	0.017818	0.360821
H97	H	0.143552	-0.058106	0.000127
H98	H	0.776728	0.412689	0.796398
H99	H	0.986422	0.017846	0.639387
H100	H	0.776697	0.412637	0.360825
O101	O	0.536515	-0.067630	0.000069
C102	C	0.430641	-0.200827	0.000126
C103	C	0.454778	-0.039196	0.000143
H104	H	0.364556	-0.177894	0.000204
H105	H	0.454703	-0.272138	-0.057426
H106	H	0.454803	-0.272120	0.057655
H107	H	0.430623	0.032227	-0.057347
H108	H	0.430726	0.031994	0.057733
O109	O	0.767569	0.429891	0.197132
C110	C	0.652898	0.645686	0.206263
C111	C	0.716486	0.525921	0.253825
H112	H	0.611571	0.723335	0.252078
H113	H	0.680885	0.725550	0.165755
H114	H	0.619130	0.576745	0.165733
H115	H	0.750275	0.594732	0.294400
H116	H	0.688452	0.446059	0.294280
H117	H	0.683029	-0.039842	0.000094
H118	H	0.286484	-0.053271	0.000126
