data_functionalizedCrystal
_audit_creation_method	'MofGen! by Chris Wilmer'
_symmetry_space_group_name_H-M	'P1'
_symmetry_Int_Tables_number	1
_symmetry_cell_setting	triclinic
loop_
_symmetry_equiv_pos_as_xyz
  x,y,z
_cell_length_a	8.597187
_cell_length_b	19.188924
_cell_length_c	7.088929
_cell_angle_alpha	83.795552
_cell_angle_beta	88.663715
_cell_angle_gamma	84.244280
loop_
_atom_site_label
_atom_site_type_symbol
_atom_site_fract_x
_atom_site_fract_y
_atom_site_fract_z
O1	O	2.031579	0.126156	-0.493649
O2	O	1.582106	0.130858	-0.419615
O3	O	1.819821	0.027053	-0.458747
O4	O	1.793864	0.229961	-0.454517
O5	O	1.851590	0.013148	-0.146002
O6	O	1.613875	0.116953	-0.106869
O7	O	2.063347	0.112252	-0.180903
Cu8	Cu	1.841512	0.113333	-0.115330
Cu9	Cu	1.803942	0.129777	-0.485188
O10	O	1.825633	0.216056	-0.141771
C11	C	1.540487	0.122626	-0.253770
C12	C	1.369143	0.118804	-0.225547
C13	C	1.834867	-0.005924	-0.302234
C14	C	1.832350	-0.083468	-0.301815
C15	C	1.813858	-0.112306	-0.472099
C16	C	1.811469	-0.185165	-0.471720
C17	C	1.827604	-0.229186	-0.301052
C18	C	1.846090	-0.200340	-0.130744
C19	C	1.848463	-0.127481	-0.131125
N20	N	1.924607	-0.353174	-0.188028
N21	N	1.922355	-0.422387	-0.187678
C22	C	1.820453	-0.448706	-0.299893
N23	N	1.720904	-0.403198	-0.412503
N24	N	1.723163	-0.333979	-0.412859
C25	C	1.825032	-0.308190	-0.300620
C26	C	1.799367	-0.556546	-0.469778
C27	C	1.796969	-0.629406	-0.469390
C28	C	1.831606	-0.644581	-0.128411
C29	C	1.833988	-0.571720	-0.128801
C30	C	1.817875	-0.527707	-0.299491
C31	C	2.104967	0.120484	-0.346752
C32	C	2.276309	0.124306	-0.374988
C33	C	1.810586	0.249033	-0.298288
C34	C	1.813102	0.326578	-0.298720
N35	N	1.867948	0.101766	0.144806
N36	N	1.777518	0.141338	-0.745326
H37	H	1.800733	-0.076474	-0.611087
H38	H	1.683799	0.182344	0.188456
O39	O	1.979886	0.052830	0.223482
C40	C	2.186351	-0.037577	0.168756
C41	C	2.059674	0.017827	0.079404
H42	H	2.250873	-0.065902	0.052315
H43	H	2.272765	-0.010469	0.248164
H44	H	2.129110	-0.077413	0.271976
H45	H	2.116778	0.057679	-0.023897
H46	H	1.973273	-0.009329	0.000115
O47	O	1.307837	0.109729	-0.047028
C48	C	1.358830	0.095016	0.288457
C49	C	1.428471	0.105309	0.086389
H50	H	1.456332	0.091424	0.396379
H51	H	1.269902	0.141596	0.311771
H52	H	1.298695	0.044353	0.306806
H53	H	1.488686	0.155946	0.067898
H54	H	1.517318	0.058691	0.063168
O55	O	1.793231	-0.213220	-0.637031
C56	C	1.636813	-0.280730	-0.812350
C57	C	1.657266	-0.248978	-0.625069
H58	H	1.526909	-0.309661	-0.802727
H59	H	1.625584	-0.236792	-0.934494
H60	H	1.742889	-0.319288	-0.838432
H61	H	1.551227	-0.210428	-0.598806
H62	H	1.668565	-0.292954	-0.503027
H63	H	1.327921	0.131941	-0.524522
H64	H	1.859223	-0.236186	0.008216
H65	H	1.849059	-0.548242	0.009861
H66	H	1.781903	-0.652883	-0.608060
O67	O	1.783609	-0.513883	-0.635729
C68	C	1.749088	-0.506524	-0.973900
C69	C	1.766882	-0.554915	-0.786092
H70	H	1.735593	-0.539681	-1.095523
H71	H	1.641301	-0.467194	-0.964936
H72	H	1.857321	-0.476872	-1.000288
H73	H	1.658734	-0.584614	-0.759590
H74	H	1.874735	-0.594202	-0.795147
H75	H	1.844732	-0.680421	0.010552
H76	H	1.863515	-0.104002	0.007546
