data_functionalizedCrystal
_audit_creation_method	'MofGen! by Chris Wilmer'
_symmetry_space_group_name_H-M	'P1'
_symmetry_Int_Tables_number	1
_symmetry_cell_setting	triclinic
loop_
_symmetry_equiv_pos_as_xyz
  x,y,z
_cell_length_a	8.559649
_cell_length_b	10.868271
_cell_length_c	8.597278
_cell_angle_alpha	97.701418
_cell_angle_beta	77.625032
_cell_angle_gamma	90.004229
loop_
_atom_site_label
_atom_site_type_symbol
_atom_site_fract_x
_atom_site_fract_y
_atom_site_fract_z
O1	O	2.119298	0.096683	-0.053150
O2	O	1.655358	0.105261	0.027750
O3	O	1.896456	0.076632	-0.242266
O4	O	1.878201	0.125312	0.216866
O5	O	1.896433	-0.128011	-0.242256
O6	O	1.655336	-0.099382	0.027760
O7	O	2.119275	-0.107960	-0.053140
Zn8	Zn	1.887302	-0.136163	-0.012688
Zn9	Zn	1.887332	0.133464	-0.012702
O10	O	1.878178	-0.079331	0.216877
C11	C	1.595913	0.003590	0.033886
C12	C	1.418819	0.005525	0.052135
N13	N	1.887294	-0.320176	-0.012681
C14	C	1.887307	-0.431514	-0.012682
C15	C	1.887327	-0.571193	-0.012699
C16	C	2.178721	-0.006286	-0.059276
C17	C	2.355815	-0.008214	-0.077525
C18	C	1.894483	-0.031861	-0.300496
C19	C	1.888617	-0.050251	-0.474015
N20	N	1.887352	0.317476	-0.012723
C21	C	1.880151	0.029165	0.275106
C22	C	1.886017	0.047563	0.448626
H23	H	1.888260	0.145385	-0.484845
O24	O	1.321387	0.021498	0.201144
C25	C	1.113964	0.147458	0.388617
C26	C	1.224198	0.129500	0.219802
H27	H	1.035383	0.234788	0.403768
H28	H	1.035088	0.063497	0.403838
H29	H	1.189910	0.157424	0.483271
H30	H	1.148378	0.119566	0.125045
H31	H	1.303083	0.213468	0.204718
O32	O	1.453256	-0.023857	-0.226542
C33	C	1.660735	0.062307	-0.414034
C34	C	1.550505	0.080166	-0.245218
H35	H	1.739365	0.146406	-0.429199
H36	H	1.739564	-0.024898	-0.429245
H37	H	1.584787	0.052220	-0.508686
H38	H	1.626327	0.090307	-0.150463
H39	H	1.471668	0.167349	-0.230144
O40	O	1.885695	-0.166885	-0.553468
C41	C	1.741580	-0.312098	-0.703248
C42	C	1.744713	-0.179961	-0.613341
H43	H	1.627591	-0.322721	-0.751651
H44	H	1.850233	-0.328678	-0.807455
H45	H	1.744556	-0.382756	-0.617085
H46	H	1.741684	-0.109220	-0.699378
H47	H	1.636070	-0.163487	-0.509113
