data_functionalizedCrystal
_audit_creation_method	'MofGen! by Chris Wilmer'
_symmetry_space_group_name_H-M	'P1'
_symmetry_Int_Tables_number	1
_symmetry_cell_setting	triclinic
loop_
_symmetry_equiv_pos_as_xyz
  x,y,z
_cell_length_a	25.639243
_cell_length_b	25.639240
_cell_length_c	25.639233
_cell_angle_alpha	90.025929
_cell_angle_beta	90.015962
_cell_angle_gamma	90.035481
loop_
_atom_site_label
_atom_site_type_symbol
_atom_site_fract_x
_atom_site_fract_y
_atom_site_fract_z
Zn1	Zn	0.799247	-0.208176	0.295630
Zn2	Zn	0.799179	-0.295595	0.208183
Zn3	Zn	0.711823	-0.208180	0.208203
Zn4	Zn	0.711777	-0.295587	0.295582
O5	O	0.755506	-0.251885	0.251900
O6	O	0.872403	-0.219775	0.284041
O7	O	0.787582	-0.284004	0.135020
O8	O	0.723467	-0.135014	0.219829
O9	O	0.872353	-0.284001	0.219794
O10	O	0.787697	-0.135012	0.284061
O11	O	0.723402	-0.219781	0.135035
O12	O	0.638652	-0.219772	0.219783
O13	O	0.723389	-0.283987	0.368754
O14	O	0.638618	-0.283990	0.283980
O15	O	0.787653	-0.219767	0.368789
O16	O	0.787538	-0.368759	0.219749
O17	O	0.723324	-0.368753	0.283960
C18	C	0.619664	-0.251881	0.251879
C19	C	0.561550	-0.251892	0.251882
C20	C	0.201207	-0.218495	0.285409
C21	C	0.146603	-0.218494	0.285412
O22	O	0.118383	-0.190088	0.313891
N23	N	0.119267	-0.251883	0.251914
C24	C	0.146539	-0.285271	0.218407
O25	O	0.118274	-0.313670	0.189914
C26	C	0.201142	-0.285268	0.218401
C27	C	0.228475	-0.251881	0.251905
C28	C	0.228540	-0.185109	0.318909
C29	C	0.283140	-0.185111	0.318907
C30	C	0.310408	-0.218497	0.285403
C31	C	0.283076	-0.251882	0.251903
C32	C	0.228413	-0.318653	0.184892
C33	C	0.283020	-0.318647	0.184889
C34	C	0.310353	-0.285260	0.218393
C35	C	0.364944	-0.285270	0.218396
N36	N	0.392279	-0.251881	0.251894
C37	C	0.365011	-0.218494	0.285398
C38	C	0.031869	-0.285273	0.218420
C39	C	-0.022734	-0.285279	0.218428
C40	C	-0.022667	-0.218501	0.285432
C41	C	0.031937	-0.218498	0.285427
C42	C	0.059204	-0.251884	0.251918
C43	C	0.479676	-0.218500	0.285390
C44	C	0.534282	-0.218506	0.285386
C45	C	0.534210	-0.285281	0.218380
C46	C	0.479609	-0.285278	0.218385
C47	C	0.452344	-0.251883	0.251892
O48	O	0.393198	-0.313659	0.189930
O49	O	0.393283	-0.190095	0.313881
C50	C	0.755433	-0.387727	0.251859
C51	C	0.755449	-0.445841	0.251859
C52	C	0.788967	-0.806164	0.285405
C53	C	0.788983	-0.860769	0.285416
O54	O	0.817394	-0.888972	0.313897
N55	N	0.755579	-0.888124	0.251950
C56	C	0.722154	-0.860871	0.218475
O57	O	0.693742	-0.889153	0.190011
C58	C	0.722136	-0.806268	0.218467
C59	C	0.755546	-0.778916	0.251932
C60	C	0.822374	-0.778812	0.318867
C61	C	0.822359	-0.724212	0.318856
C62	C	0.788938	-0.696963	0.285383
C63	C	0.755531	-0.724315	0.251920
C64	C	0.688708	-0.779017	0.184996
C65	C	0.688693	-0.724410	0.184991
C66	C	0.722103	-0.697058	0.218455
C67	C	0.722095	-0.642466	0.218435
N68	N	0.755499	-0.615112	0.251901
C69	C	0.788920	-0.642360	0.285375
C70	C	0.722193	-0.975542	0.218494
C71	C	0.722213	-1.030144	0.218499
C72	C	0.789041	-1.030038	0.285441
C73	C	0.789024	-0.975435	0.285433
C74	C	0.755597	-0.948187	0.251960
C75	C	0.788887	-0.527695	0.285348
C76	C	0.788870	-0.473090	0.285332
C77	C	0.722040	-0.473201	0.218392
C78	C	0.722058	-0.527801	0.218406
C79	C	0.755483	-0.555047	0.251888
O80	O	0.693697	-0.614229	0.189971
O81	O	0.817322	-0.614072	0.313839
C82	C	0.891879	-0.251888	0.251921
C83	C	0.949993	-0.251890	0.251930
C84	C	0.755523	-0.251875	0.388273
C85	C	0.755530	-0.251871	0.446387
C86	C	0.755595	-0.115511	0.251952
C87	C	0.755633	-0.057397	0.251975
C88	C	0.755520	-0.251856	0.116057
C89	C	0.755614	-0.251713	0.057943
C90	C	0.789035	-0.218333	0.806774
C91	C	0.789041	-0.218318	0.861378
O92	O	0.817486	-0.189864	0.889635
N93	N	0.755588	-0.251749	0.888669
C94	C	0.722122	-0.285192	0.861354
O95	O	0.693668	-0.313626	0.889581
C96	C	0.722114	-0.285204	0.806750
C97	C	0.755573	-0.251775	0.779462
C98	C	0.822491	-0.184906	0.779485
C99	C	0.822485	-0.184921	0.724884
C100	C	0.789023	-0.218363	0.697572
C101	C	0.755567	-0.251790	0.724861
C102	C	0.688646	-0.318644	0.779436
C103	C	0.688640	-0.318653	0.724828
C104	C	0.722099	-0.285223	0.697540
C105	C	0.722099	-0.285247	0.642949
N106	N	0.755552	-0.251817	0.615657
C107	C	0.789014	-0.218375	0.642969
C108	C	0.722143	-0.285165	0.976024
C109	C	0.722154	-0.285157	1.030627
C110	C	0.789072	-0.218282	1.030647
C111	C	0.789063	-0.218293	0.976044
C112	C	0.755596	-0.251735	0.948733
C113	C	0.789000	-0.218410	0.528304
C114	C	0.788992	-0.218429	0.473699
C115	C	0.722072	-0.285302	0.473683
C116	C	0.722081	-0.285285	0.528283
C117	C	0.755547	-0.251834	0.555593
O118	O	0.693668	-0.313686	0.614657
O119	O	0.817459	-0.189941	0.614735
H120	H	0.206344	-0.157919	0.346192
H121	H	0.694889	-0.312400	0.953791
H122	H	0.305218	-0.345834	0.157601
H123	H	0.816254	-1.052233	0.312698
H124	H	0.695013	-1.052410	0.191243
Cl125	Cl	0.864358	-0.689835	0.360932
Cl126	Cl	0.066292	-0.176523	0.327546
H127	H	0.556534	-0.191317	0.312670
H128	H	0.054066	-0.312464	0.191135
Cl129	Cl	0.317493	-0.143133	0.361026
H130	H	0.457483	-0.191305	0.312673
Cl131	Cl	-0.056957	-0.176527	0.327549
H132	H	0.694830	-0.451006	0.191137
H133	H	0.816241	-0.191207	0.451483
Cl134	Cl	0.831069	-0.176355	0.562627
Cl135	Cl	0.680097	-0.327192	1.064926
H136	H	0.816308	-0.191071	0.953829
Cl137	Cl	0.568500	-0.327250	0.176264
Cl138	Cl	0.830875	-0.438708	0.327404
Cl139	Cl	0.646582	-0.360674	0.813728
H140	H	0.694830	-0.312531	0.451436
Cl141	Cl	0.831138	-0.176239	1.064992
Cl142	Cl	0.646563	-0.360695	0.690498
H143	H	-0.044983	-0.312472	0.191152
Cl144	Cl	0.680021	-0.327313	0.562590
H145	H	0.849730	-0.157699	0.702671
Cl146	Cl	0.830909	-0.561938	0.327439
Cl147	Cl	0.864394	-0.813058	0.360956
H148	H	0.661503	-0.801277	0.157745
Cl149	Cl	0.646668	-0.690159	0.142908
H150	H	0.816228	-0.953168	0.312683
H151	H	0.206169	-0.345840	0.157609
H152	H	0.457354	-0.312470	0.191110
Cl153	Cl	0.680170	-0.941293	0.176406
H154	H	0.694857	-0.550072	0.191153
H155	H	0.849740	-0.157671	0.801717
