data_functionalizedCrystal
_audit_creation_method	'MofGen! by Chris Wilmer'
_symmetry_space_group_name_H-M	'P1'
_symmetry_Int_Tables_number	1
_symmetry_cell_setting	triclinic
loop_
_symmetry_equiv_pos_as_xyz
  x,y,z
_cell_length_a	6.817900
_cell_length_b	9.582889
_cell_length_c	14.858572
_cell_angle_alpha	92.654507
_cell_angle_beta	104.524003
_cell_angle_gamma	111.207298
loop_
_atom_site_label
_atom_site_type_symbol
_atom_site_fract_x
_atom_site_fract_y
_atom_site_fract_z
V1	V	-4.078437	-0.207997	-0.289789
V2	V	-3.745104	0.125336	0.043544
V3	V	-3.411771	0.458670	0.376878
O4	O	-4.023872	0.009026	-0.284448
O5	O	-3.690538	0.342359	0.048885
O6	O	-3.357205	0.675693	0.382219
O7	O	-4.069125	-0.411491	-0.287639
O8	O	-3.735791	-0.078158	0.045695
O9	O	-3.402458	0.255176	0.379028
O10	O	-4.034542	-0.205223	-0.416253
O11	O	-3.701209	0.128110	-0.082920
O12	O	-3.367875	0.461444	0.250414
O13	O	-4.058694	-0.198670	-0.154943
O14	O	-3.725360	0.134663	0.178390
O15	O	-3.392027	0.467996	0.511723
V16	V	-4.556417	-0.181988	-0.273681
V17	V	-4.223083	0.151345	0.059652
V18	V	-3.889750	0.484678	0.392986
O19	O	-4.351856	-0.265049	-0.325124
O20	O	-4.018523	0.068284	0.008210
O21	O	-3.685189	0.401617	0.341543
O22	O	-4.733195	-0.124936	-0.238346
O23	O	-4.399862	0.208397	0.094987
O24	O	-4.066528	0.541731	0.428320
O25	O	-4.342523	0.021506	-0.275831
O26	O	-4.009189	0.354839	0.057502
O27	O	-3.675856	0.688172	0.390835
O28	O	-4.728379	-0.399011	-0.279022
O29	O	-4.395046	-0.065678	0.054311
O30	O	-4.061712	0.267655	0.387645
O31	O	-4.693557	-0.191315	-0.408527
O32	O	-4.360224	0.142018	-0.075194
O33	O	-4.026890	0.475351	0.258140
O34	O	-4.377105	-0.184763	-0.147217
O35	O	-4.043772	0.148571	0.186116
O36	O	-3.710438	0.481904	0.519450
C37	C	-3.923489	-0.461085	-0.283024
C38	C	-3.590155	-0.127752	0.050310
C39	C	-3.256822	0.205581	0.383643
C40	C	-3.997191	-0.627447	-0.282108
C41	C	-3.663858	-0.294114	0.051225
C42	C	-3.330525	0.039220	0.384558
C43	C	-3.879374	-0.197968	-0.447083
C44	C	-3.546040	0.135366	-0.113750
C45	C	-3.212707	0.468699	0.219584
C46	C	-3.925027	-0.197046	-0.550467
C47	C	-3.591693	0.136287	-0.217133
C48	C	-3.258360	0.469621	0.116200
C49	C	-4.092119	-0.193678	-0.929038
C50	C	-3.758786	0.139656	-0.595704
C51	C	-3.425452	0.472989	-0.262371
C52	C	-4.045621	-0.194615	-0.823707
C53	C	-3.712287	0.138718	-0.490374
C54	C	-3.378954	0.472052	-0.157041
C55	C	-4.008575	-0.195363	-0.739756
C56	C	-3.675241	0.137970	-0.406422
C57	C	-3.341908	0.471304	-0.073089
C58	C	-3.962073	-0.196298	-0.634419
C59	C	-3.628739	0.137036	-0.301085
C60	C	-3.295406	0.470369	0.032248
C61	C	-4.151502	0.071092	-0.280444
C62	C	-3.818169	0.404425	0.052889
C63	C	-3.484835	0.737759	0.386223
C64	C	-4.057038	0.237452	-0.281365
C65	C	-3.723705	0.570786	0.051968
C66	C	-3.390371	0.904119	0.385301
C67	C	-4.195616	-0.192022	-0.116382
C68	C	-3.862283	0.141311	0.216951
C69	C	-3.528950	0.474644	0.550284
C70	C	-4.129200	-0.192937	-0.012998
C71	C	-3.795867	0.140397	0.320336
C72	C	-3.462534	0.473730	0.653669
