data_functionalizedCrystal
_audit_creation_method	'MofGen! by Chris Wilmer'
_symmetry_space_group_name_H-M	'P1'
_symmetry_Int_Tables_number	1
_symmetry_cell_setting	triclinic
loop_
_symmetry_equiv_pos_as_xyz
  x,y,z
_cell_length_a	12.759401
_cell_length_b	13.897448
_cell_length_c	13.897449
_cell_angle_alpha	90.010270
_cell_angle_beta	90.004194
_cell_angle_gamma	90.016778
loop_
_atom_site_label
_atom_site_type_symbol
_atom_site_fract_x
_atom_site_fract_y
_atom_site_fract_z
Zn1	Zn	1.606083	-0.384201	0.545335
Zn2	Zn	2.106083	0.115799	1.045335
Zn3	Zn	1.606012	-0.545466	0.384036
Zn4	Zn	2.106012	-0.045466	0.884036
Zn5	Zn	1.430429	-0.384184	0.384058
Zn6	Zn	1.930429	0.115816	0.884058
Zn7	Zn	1.430364	-0.545453	0.545294
Zn8	Zn	1.930364	-0.045453	1.045294
O9	O	1.518222	-0.464826	0.464681
O10	O	2.018222	0.035174	0.964681
O11	O	1.753094	-0.405606	0.523946
O12	O	2.253094	0.094394	1.023946
O13	O	1.582719	-0.524069	0.249058
O14	O	2.082719	-0.024069	0.749058
O15	O	1.453787	-0.249204	0.405478
O16	O	1.953787	0.250796	0.905478
O17	O	1.753043	-0.524086	0.405441
O18	O	2.253043	-0.024086	0.905441
O19	O	1.582838	-0.249217	0.523967
O20	O	2.082838	0.250783	1.023967
O21	O	1.453719	-0.405576	0.249074
O22	O	1.953719	0.094424	0.749074
O23	O	1.283400	-0.405564	0.405439
O24	O	1.783400	0.094436	0.905439
O25	O	1.453676	-0.524065	0.680281
O26	O	1.953676	-0.024065	1.180281
O27	O	1.283352	-0.524048	0.523898
O28	O	1.783352	-0.024048	1.023898
O29	O	1.582775	-0.405594	0.680311
O30	O	2.082775	0.094406	1.180311
O31	O	1.582656	-0.680446	0.405401
O32	O	2.082656	-0.180446	0.905401
O33	O	1.453608	-0.680437	0.523876
O34	O	1.953608	-0.180437	1.023876
C35	C	1.245255	-0.464804	0.464667
C36	C	1.745255	0.035196	0.964667
C37	C	1.128478	-0.464817	0.464683
C38	C	1.628478	0.035183	0.964683
C39	C	0.963906	-0.403258	0.526491
C40	C	1.463906	0.096742	1.026491
C41	C	1.073630	-0.403239	0.526485
C42	C	1.573630	0.096761	1.026485
C43	C	1.073596	-0.526425	0.402892
C44	C	1.573596	-0.026425	0.902892
C45	C	0.963874	-0.526448	0.402904
C46	C	1.463874	-0.026448	0.902904
C47	C	1.518145	-0.715440	0.464653
C48	C	2.018145	-0.215440	0.964653
C49	C	1.518209	-0.822654	0.464673
C50	C	2.018209	-0.322654	0.964673
C51	C	1.518319	-1.018949	0.464734
C52	C	2.018319	-0.518949	0.964734
C53	C	1.518255	-0.909717	0.464703
C54	C	2.018255	-0.409717	0.964703
C55	C	1.792255	-0.464849	0.464696
C56	C	2.292255	0.035151	0.964696
C57	C	1.909032	-0.464859	0.464702
C58	C	2.409032	0.035141	0.964702
C59	C	1.518226	-0.464830	0.716274
C60	C	2.018226	0.035170	1.216274
C61	C	1.518228	-0.464832	0.823488
C62	C	2.018228	0.035168	1.323488
C63	C	1.518328	-0.213233	0.464730
C64	C	2.018328	0.286767	0.964730
C65	C	1.518373	-0.106019	0.464751
C66	C	2.018373	0.393981	0.964751
C67	C	1.518201	-0.464836	1.019783
C68	C	2.018201	0.035164	1.519783
C69	C	1.518213	-0.464836	0.910550
C70	C	2.018213	0.035164	1.410550
C71	C	1.518208	-0.464842	1.214066
C72	C	2.018208	0.035158	1.714066
C73	C	1.518200	-0.464834	1.106853
C74	C	2.018200	0.035166	1.606853
H75	H	1.118262	-0.576566	0.352576
H76	H	1.618262	-0.076566	0.852576
C77	C	0.903502	-0.594212	0.334930
C78	C	1.403502	-0.094212	0.834930
C79	C	0.828076	-0.670021	0.376608
C80	C	1.328076	-0.170021	0.876608
C81	C	0.767703	-0.737785	0.308642
C82	C	1.267703	-0.237785	0.808642
C83	C	0.782757	-0.729738	0.198997
C84	C	1.282757	-0.229738	0.698997
C85	C	0.858187	-0.653926	0.157314
C86	C	1.358187	-0.153926	0.657314
C87	C	0.918559	-0.586162	0.225280
C88	C	1.418559	-0.086162	0.725280
H89	H	0.816929	-0.675981	0.457779
H90	H	1.316929	-0.175981	0.957779
H91	H	0.711865	-0.793906	0.339499
H92	H	1.211865	-0.293906	0.839499
H93	H	0.738066	-0.779901	0.148684
H94	H	1.238066	-0.279901	0.648684
H95	H	0.869333	-0.647966	0.076143
H96	H	1.369333	-0.147966	0.576143
H97	H	0.974397	-0.530041	0.194422
H98	H	1.474397	-0.030041	0.694422
H99	H	1.118304	-0.353079	0.576800
H100	H	1.618304	0.146921	1.076800
C101	C	0.903578	-0.335521	0.594474
C102	C	1.403578	0.164479	1.094474
C103	C	0.918684	-0.343567	0.704114
C104	C	1.418684	0.156433	1.204114
C105	C	0.858358	-0.275830	0.772101
C106	C	1.358358	0.224170	1.272101
C107	C	0.782926	-0.200046	0.730448
C108	C	1.282926	0.299954	1.230448
C109	C	0.767816	-0.191997	0.620802
C110	C	1.267816	0.308003	1.120802
C111	C	0.828142	-0.259734	0.552815
C112	C	1.328142	0.240266	1.052815
H113	H	0.974527	-0.399669	0.734953
H114	H	1.474527	0.100331	1.234953
H115	H	0.869544	-0.281789	0.853268
H116	H	1.369544	0.218211	1.353268
H117	H	0.738269	-0.149903	0.780776
H118	H	1.238269	0.350097	1.280776
H119	H	0.711974	-0.135895	0.589963
H120	H	1.211974	0.364105	1.089963
H121	H	0.816956	-0.253775	0.471648
H122	H	1.316956	0.246225	0.971648
