data_functionalizedCrystal
_audit_creation_method	'MofGen! by Chris Wilmer'
_symmetry_space_group_name_H-M	'P1'
_symmetry_Int_Tables_number	1
_symmetry_cell_setting	triclinic
loop_
_symmetry_equiv_pos_as_xyz
  x,y,z
_cell_length_a	11.792241
_cell_length_b	12.837943
_cell_length_c	11.295483
_cell_angle_alpha	94.538773
_cell_angle_beta	94.123059
_cell_angle_gamma	90.488822
loop_
_atom_site_label
_atom_site_type_symbol
_atom_site_fract_x
_atom_site_fract_y
_atom_site_fract_z
O1	O	0.288341	-1.384055	-0.099005
O2	O	0.788341	-0.884055	0.400995
O3	O	0.273757	-1.082168	-0.099012
O4	O	0.773757	-0.582168	0.400988
O5	O	0.116622	-1.240437	-0.099000
O6	O	0.616622	-0.740437	0.401000
O7	O	0.445476	-1.225787	-0.099017
O8	O	0.945476	-0.725787	0.400983
O9	O	0.130400	-1.226536	0.099050
O10	O	0.630400	-0.726536	0.599050
O11	O	0.287535	-1.068267	0.099038
O12	O	0.787535	-0.568267	0.599038
O13	O	0.302119	-1.370154	0.099045
O14	O	0.802119	-0.870154	0.599045
Cu15	Cu	0.296085	-1.217941	0.117125
Cu16	Cu	0.796085	-0.717941	0.617125
Cu17	Cu	0.279791	-1.234381	-0.117092
Cu18	Cu	0.779791	-0.734381	0.382908
O19	O	0.459254	-1.211885	0.099033
O20	O	0.959254	-0.711885	0.599033
C21	C	0.275719	-1.036570	0.000012
C22	C	0.775719	-0.536570	0.500012
C23	C	0.261025	-0.921410	0.000010
C24	C	0.761025	-0.421410	0.500010
C25	C	0.081127	-1.232566	0.000025
C26	C	0.581127	-0.732566	0.500025
C27	C	-0.045167	-1.229812	0.000023
C28	C	0.454833	-0.729812	0.500023
N29	N	0.307545	-1.206386	0.281860
N30	N	0.807545	-0.706386	0.781860
C31	C	-0.276394	-1.224748	0.000003
C32	C	0.223606	-0.724748	0.500003
C33	C	-0.147723	-1.227561	0.000014
C34	C	0.352277	-0.727561	0.500014
C35	C	0.494749	-1.219756	0.000006
C36	C	0.994749	-0.719756	0.500006
C37	C	0.621042	-1.222512	-0.000001
C38	C	1.121042	-0.722512	0.499999
C39	C	0.300157	-1.415753	0.000018
C40	C	0.800157	-0.915753	0.500018
C41	C	0.314850	-1.530913	0.000013
C42	C	0.814850	-1.030913	0.500013
C43	C	0.437671	-0.681444	0.000018
C44	C	0.937671	-0.181444	0.500018
C45	C	0.423870	-0.573241	0.000016
C46	C	0.923870	-0.073241	0.500016
C47	C	0.219624	-0.596797	0.000014
C48	C	0.719624	-0.096797	0.500014
C49	C	0.233425	-0.705001	0.000016
C50	C	0.733425	-0.205001	0.500016
C51	C	0.342452	-0.747320	0.000016
C52	C	0.842452	-0.247320	0.500016
C53	C	0.356251	-0.855526	0.000008
C54	C	0.856251	-0.355526	0.500008
C55	C	0.152006	-0.879080	0.000015
C56	C	0.652006	-0.379080	0.500015
C57	C	0.138205	-0.770877	0.000013
C58	C	0.638205	-0.270877	0.500013
N59	N	0.268322	-1.245945	-0.281827
N60	N	0.768322	-0.745945	0.218173
C61	C	0.185760	-1.329126	0.531159
C62	C	0.685760	-0.829126	1.031159
C63	C	0.194430	-1.320401	0.655822
C64	C	0.694430	-0.820401	1.155822
C65	C	0.333547	-1.180207	0.655852
C66	C	0.833547	-0.680207	1.155852
C67	C	0.324878	-1.188932	0.531189
C68	C	0.824878	-0.688932	1.031189
C69	C	0.250983	-1.263395	0.468847
C70	C	0.750983	-0.763395	0.968847
C71	C	0.242320	-1.272124	0.344181
C72	C	0.742320	-0.772124	0.844181
C73	C	0.381431	-1.131925	0.344213
C74	C	0.881431	-0.631925	0.844213
C75	C	0.390100	-1.123200	0.468876
C76	C	0.890100	-0.623200	0.968876
H77	H	0.526445	-0.715901	0.000016
H78	H	1.026445	-0.215901	0.500016
H79	H	0.182155	-1.332758	0.293424
H80	H	0.682155	-0.832758	0.793424
H81	H	0.501409	-0.519607	0.000021
H82	H	1.001409	-0.019607	0.500021
C83	C	0.166767	-1.479983	0.390971
C84	C	0.666767	-0.979983	0.890971
C85	C	0.104564	-1.411004	0.462643
C86	C	0.604564	-0.911004	0.962643
H87	H	0.116644	-1.530542	0.348685
H88	H	0.616644	-1.030542	0.848685
H89	H	0.204340	-1.442082	0.336009
H90	H	0.704340	-0.942082	0.836009
H91	H	0.221493	-1.514119	0.439618
H92	H	0.721493	-1.014119	0.939618
H93	H	0.049844	-1.376862	0.413994
H94	H	0.549844	-0.876862	0.913994
H95	H	0.066973	-1.448909	0.517611
H96	H	0.566973	-0.948909	1.017611
H97	H	0.049439	-0.736404	0.000027
H98	H	0.549439	-0.236404	0.500027
H99	H	0.141318	-1.373924	0.706553
H100	H	0.641318	-0.873924	1.206553
H101	H	0.393702	-1.119573	0.706627
H102	H	0.893702	-0.619573	1.206627
H103	H	0.450261	-1.062571	0.519649
H104	H	0.950261	-0.562571	1.019649
H105	H	0.434543	-1.078406	0.293464
H106	H	0.934543	-0.578406	0.793464
H107	H	0.445026	-0.889980	0.000010
H108	H	0.945026	-0.389980	0.500010
H109	H	0.130866	-0.562315	0.000112
H110	H	0.630866	-0.062315	0.500112
H111	H	0.074471	-0.932729	0.000005
H112	H	0.574471	-0.432729	0.500005
