data_functionalizedCrystal
_audit_creation_method	'MofGen! by Chris Wilmer'
_symmetry_space_group_name_H-M	'P1'
_symmetry_Int_Tables_number	1
_symmetry_cell_setting	triclinic
loop_
_symmetry_equiv_pos_as_xyz
  x,y,z
_cell_length_a	16.109301
_cell_length_b	10.540510
_cell_length_c	14.586319
_cell_angle_alpha	89.998684
_cell_angle_beta	89.999213
_cell_angle_gamma	83.987396
loop_
_atom_site_label
_atom_site_type_symbol
_atom_site_fract_x
_atom_site_fract_y
_atom_site_fract_z
O1	O	1.104117	0.163161	-0.076177
O2	O	0.862178	0.183466	-0.076191
O3	O	0.988680	-0.011474	-0.076184
O4	O	0.977615	0.358101	-0.076185
O5	O	0.988671	-0.011477	0.076297
O6	O	0.862169	0.183463	0.076290
O7	O	1.104108	0.163158	0.076304
Cu8	Cu	0.983138	0.173311	0.090219
Cu9	Cu	0.983148	0.173314	-0.090107
O10	O	0.977606	0.358099	0.076296
C11	C	0.831194	0.182642	0.000047
C12	C	0.738883	0.180176	0.000042
C13	C	0.517276	0.290116	0.000052
C14	C	0.430541	0.287789	0.000058
C15	C	0.449017	0.056499	0.000055
C16	C	0.535750	0.058828	0.000056
C17	C	0.569877	0.175640	0.000050
C18	C	0.396409	0.170985	0.000055
C19	C	0.302368	0.168461	0.000061
C20	C	0.663924	0.178164	0.000045
C21	C	0.987851	-0.058767	0.000055
C22	C	0.985384	-0.199682	0.000049
C23	C	1.073265	-0.418390	0.000404
C24	C	1.075896	-0.271832	0.000055
C25	C	0.939056	-0.243779	-0.087026
C26	C	0.937065	-0.390511	-0.087094
C27	C	0.935170	-0.390296	0.086305
C28	C	0.939463	-0.244016	0.087452
C29	C	1.135093	0.163982	0.000063
C30	C	1.227403	0.166448	0.000062
C31	C	0.978435	0.405392	0.000055
C32	C	0.980902	0.546307	0.000055
N33	N	0.983136	0.173307	0.217051
N34	N	0.983156	0.173307	-0.216939
C35	C	1.039171	0.087017	0.452061
C36	C	1.039173	0.087014	0.548042
C37	C	0.927116	0.259602	0.548045
C38	C	0.927110	0.259598	0.452065
C39	C	0.983142	0.173307	0.404076
C40	C	0.983150	0.173308	0.596037
C41	C	0.983153	0.173305	0.700104
C42	C	0.983139	0.173307	0.300002
H43	H	1.112145	-0.243006	0.062473
C44	C	1.056142	-0.085786	0.344180
C45	C	1.100732	-0.007901	0.399332
H46	H	1.094143	-0.144400	0.311633
H47	H	1.021255	-0.131393	0.381645
H48	H	1.022799	-0.034384	0.301847
H49	H	1.134071	-0.059303	0.441670
H50	H	1.135633	0.037709	0.361863
C51	C	0.922973	-0.508019	-0.226257
C52	C	0.979820	-0.445418	-0.174953
H53	H	0.949370	-0.541904	-0.280501
H54	H	0.904551	-0.575388	-0.190918
H55	H	0.876451	-0.449210	-0.242160
H56	H	1.026340	-0.504230	-0.159044
H57	H	0.998254	-0.378041	-0.210299
H58	H	0.867213	-0.411477	0.086888
H59	H	1.084795	0.016747	0.587109
C60	C	0.834151	-0.097649	-0.015721
C61	C	0.849105	-0.178517	-0.091415
H62	H	0.778621	-0.057353	-0.018435
H63	H	0.841470	-0.146088	0.039133
H64	H	0.872212	-0.034646	-0.016537
H65	H	0.811047	-0.241526	-0.090596
H66	H	0.841777	-0.130075	-0.146284
H67	H	0.963930	-0.432889	0.152308
H68	H	0.869368	-0.412541	-0.091043
H69	H	0.545058	0.385232	0.000054
H70	H	1.108328	-0.462395	-0.061685
C71	C	0.814146	0.287104	0.656001
C72	C	0.865536	0.354456	0.600803
H73	H	0.776134	0.345668	0.688575
H74	H	0.783928	0.234265	0.618565
H75	H	0.847527	0.235716	0.698311
H76	H	0.832155	0.405837	0.558488
H77	H	0.895756	0.407317	0.638243
H78	H	0.971237	-0.213380	-0.151823
H79	H	0.881481	0.329866	0.412993
H80	H	0.387716	0.381008	0.000062
H81	H	0.421221	-0.038605	0.000065
H82	H	0.578580	-0.034399	0.000056
H83	H	1.108524	-0.460849	0.062850
H84	H	0.973174	-0.215886	0.151869
H85	H	1.112363	-0.243946	-0.062467
H86	H	0.873382	-0.194008	0.092706
