data_functionalizedCrystal
_audit_creation_method	'MofGen! by Chris Wilmer'
_symmetry_space_group_name_H-M	'P1'
_symmetry_Int_Tables_number	1
_symmetry_cell_setting	triclinic
loop_
_symmetry_equiv_pos_as_xyz
  x,y,z
_cell_length_a	21.395362
_cell_length_b	18.215404
_cell_length_c	21.395355
_cell_angle_alpha	90.016814
_cell_angle_beta	89.956060
_cell_angle_gamma	89.960299
loop_
_atom_site_label
_atom_site_type_symbol
_atom_site_fract_x
_atom_site_fract_y
_atom_site_fract_z
Zn1	Zn	0.957889	0.292758	-0.354593
Zn2	Zn	1.457889	0.792758	0.145407
Zn3	Zn	0.957805	0.415806	-0.249819
Zn4	Zn	1.457805	0.915806	0.250181
Zn5	Zn	0.853104	0.292792	-0.249794
Zn6	Zn	1.353104	0.792792	0.250206
Zn7	Zn	0.853086	0.415821	-0.354523
Zn8	Zn	1.353086	0.915821	0.145477
O9	O	0.905471	0.354294	-0.302182
O10	O	1.405471	0.854294	0.197818
O11	O	1.045556	0.309060	-0.340734
O12	O	1.545556	0.809060	0.159266
O13	O	0.943888	0.399496	-0.162137
O14	O	1.443888	0.899496	0.337863
O15	O	0.867048	0.189803	-0.263715
O16	O	1.367048	0.689803	0.236285
O17	O	1.045494	0.399463	-0.263757
O18	O	1.545494	0.899463	0.236243
O19	O	0.944033	0.189778	-0.340710
O20	O	1.444033	0.689778	0.159290
O21	O	0.866965	0.309118	-0.162120
O22	O	1.366965	0.809118	0.337880
O23	O	0.765424	0.309133	-0.263647
O24	O	1.265424	0.809133	0.236353
O25	O	0.867016	0.399488	-0.442211
O26	O	1.367016	0.899488	0.057789
O27	O	0.765411	0.399522	-0.340591
O28	O	1.265411	0.899522	0.159409
O29	O	0.944015	0.309074	-0.442262
O30	O	1.444015	0.809074	0.057738
O31	O	0.943870	0.518792	-0.263689
O32	O	1.443870	1.018792	0.236311
O33	O	0.866934	0.518803	-0.340615
O34	O	1.366934	1.018803	0.159385
C35	C	0.742683	0.354333	-0.302110
C36	C	1.242683	0.854333	0.197890
C37	C	0.673042	0.354367	-0.302093
C38	C	1.173042	0.854367	0.197907
C39	C	0.640338	0.401495	-0.342098
C40	C	1.140338	0.901495	0.157902
C41	C	0.574903	0.401477	-0.342126
C42	C	1.074903	0.901477	0.157874
C43	C	0.542174	0.354339	-0.302138
C44	C	1.042174	0.854339	0.197862
C45	C	0.574885	0.307202	-0.262131
C46	C	1.074885	0.807202	0.237869
C47	C	0.640320	0.307216	-0.262108
C48	C	1.140320	0.807216	0.237892
C49	C	0.438449	0.348410	-0.245733
C50	C	0.938449	0.848410	0.254267
C51	C	0.373016	0.348401	-0.245754
C52	C	0.873016	0.848401	0.254246
C53	C	0.340353	0.354291	-0.302207
C54	C	0.840353	0.854291	0.197793
C55	C	0.373132	0.360205	-0.358641
C56	C	0.873132	0.860205	0.141359
C57	C	0.438566	0.360219	-0.358619
C58	C	0.938566	0.860219	0.141381
C59	C	0.471222	0.354318	-0.302158
C60	C	0.971222	0.854318	0.197842
C61	C	0.236697	0.401402	-0.342246
C62	C	0.736697	0.901402	0.157754
C63	C	0.171260	0.401379	-0.342275
C64	C	0.671260	0.901379	0.157725
C65	C	0.171244	0.307107	-0.262273
C66	C	0.671244	0.807107	0.237727
C67	C	0.236679	0.307127	-0.262250
C68	C	0.736679	0.807127	0.237750
C69	C	0.269402	0.354278	-0.302235
C70	C	0.769402	0.854278	0.197765
C71	C	0.905408	0.545500	-0.302161
C72	C	1.405408	1.045500	0.197839
C73	C	0.905438	0.627299	-0.302173
C74	C	1.405438	1.127299	0.197827
C75	C	0.945596	0.815463	-0.262199
C76	C	1.445596	1.315463	0.237801
C77	C	0.945625	0.892322	-0.262218
C78	C	1.445625	1.392322	0.237782
C79	C	0.865442	0.892373	-0.342255
C80	C	1.365442	1.392373	0.157745
C81	C	0.865417	0.815516	-0.342239
C82	C	1.365417	1.315516	0.157761
C83	C	0.905493	0.777063	-0.302208
C84	C	1.405493	1.277063	0.197792
C85	C	0.905547	0.930779	-0.302243
C86	C	1.405547	1.430779	0.197757
C87	C	0.905579	1.014112	-0.302263
C88	C	1.405579	1.514112	0.197737
C89	C	0.905462	0.693724	-0.302188
C90	C	1.405462	1.193724	0.197812
C91	C	1.068894	0.354256	-0.302256
C92	C	1.568894	0.854256	0.197744
C93	C	1.138536	0.354239	-0.302287
C94	C	1.638536	0.854239	0.197713
C95	C	0.905523	0.354279	-0.465606
C96	C	1.405523	0.854279	0.034394
C97	C	0.905545	0.354273	-0.535247
C98	C	1.405545	0.854273	-0.035247
C99	C	0.905556	1.162341	-0.302229
C100	C	1.405556	1.662341	0.197771
C101	C	0.905602	1.080542	-0.302278
C102	C	1.405602	1.580542	0.197722
C103	C	0.945637	0.307192	-0.567988
C104	C	1.445637	0.807192	-0.067988
C105	C	0.945636	0.307161	-0.633423
C106	C	1.445636	0.807161	-0.133423
C107	C	0.905550	0.354223	-0.666115
C108	C	1.405550	0.854223	-0.166115
C109	C	0.865451	0.401307	-0.633367
C110	C	1.365451	0.901307	-0.133367
C111	C	0.865449	0.401332	-0.567933
C112	C	1.365449	0.901332	-0.067933
C113	C	0.900581	0.420488	-0.769781
C114	C	1.400581	0.920488	-0.269781
C115	C	0.900588	0.420465	-0.835214
C116	C	1.400588	0.920465	-0.335214
C117	C	0.905554	0.354145	-0.867936
C118	C	1.405554	0.854145	-0.367936
C119	C	0.910527	0.287847	-0.835218
C120	C	1.410527	0.787847	-0.335218
C121	C	0.910524	0.287872	-0.769783
C122	C	1.410524	0.787872	-0.269783
C123	C	0.905548	0.354200	-0.737068
C124	C	1.405548	0.854200	-0.237068
C125	C	0.945647	0.307026	-0.971630
C126	C	1.445647	0.807026	-0.471630
C127	C	0.945641	0.306993	-1.037066
C128	C	1.445641	0.806993	-0.537066
C129	C	0.865460	0.401146	-1.037008
C130	C	1.365460	0.901146	-0.537008
C131	C	0.865462	0.401172	-0.971573
C132	C	1.365462	0.901172	-0.471573
C133	C	0.905559	0.354113	-0.938888
C134	C	1.405559	0.854113	-0.438888
C135	C	0.905455	0.354256	-0.139395
C136	C	1.405455	0.854256	0.360605
C137	C	0.905555	0.354055	-0.069754
C138	C	1.405555	0.854055	0.430246
H139	H	0.666947	0.268837	-0.229531
H140	H	1.166947	0.768837	0.270469
N141	N	0.988821	0.773987	-0.219028
N142	N	1.488821	1.273987	0.280972
H143	H	1.014232	0.809979	-0.193687
H144	H	1.514232	1.309979	0.306313
H145	H	1.017791	0.742045	-0.244565
H146	H	1.517791	1.242045	0.255435
N147	N	0.915876	0.216306	-0.870496
N148	N	1.415876	0.716306	-0.370496
H149	H	0.956436	0.191258	-0.859139
H150	H	1.456436	0.691258	-0.359139
H151	H	0.915091	0.226399	-0.916902
H152	H	1.415091	0.726399	-0.416902
H153	H	0.978282	0.923584	-0.229640
H154	H	1.478282	1.423584	0.270360
N155	N	0.822161	0.774088	-0.385391
N156	N	1.322161	1.274088	0.114609
H157	H	0.831870	0.787422	-0.430174
H158	H	1.331870	1.287422	0.069826
H159	H	0.777420	0.787540	-0.375551
H160	H	1.277420	1.287540	0.124449
H161	H	0.832813	0.923691	-0.374847
H162	H	1.332813	1.423691	0.125153
N163	N	0.988881	0.256437	-0.532734
N164	N	1.488881	0.756437	-0.032734
H165	H	1.014278	0.226606	-0.563409
H166	H	1.514278	0.726606	-0.063409
H167	H	0.963391	0.222394	-0.505566
H168	H	1.463391	0.722394	-0.005566
N169	N	0.988878	0.256379	-0.668747
N170	N	1.488878	0.756379	-0.168747
H171	H	1.014278	0.226571	-0.638112
H172	H	1.514278	0.726571	-0.138112
H173	H	1.017858	0.286325	-0.695917
H174	H	1.517858	0.786325	-0.195917
N175	N	0.915889	0.216373	-0.734493
N176	N	1.415889	0.716373	-0.234493
H177	H	0.919037	0.174353	-0.765146
H178	H	1.419037	0.674353	-0.265146
H179	H	0.877716	0.209559	-0.707314
H180	H	1.377716	0.709559	-0.207314
H181	H	0.978292	0.268704	-0.945016
H182	H	1.478292	0.768704	-0.445016
N183	N	0.988874	0.256197	-1.072383
N184	N	1.488874	0.756197	-0.572383
H185	H	1.014271	0.226390	-1.041745
H186	H	1.514271	0.726390	-0.541745
H187	H	1.017857	0.286129	-1.099561
H188	H	1.517857	0.786129	-0.599561
N189	N	0.822218	0.451901	-1.072260
N190	N	1.322218	0.951901	-0.572260
H191	H	0.828301	0.444740	-1.118681
H192	H	1.328301	0.944740	-0.618681
H193	H	0.831946	0.504464	-1.060832
H194	H	1.331946	1.004464	-0.560832
N195	N	0.822210	0.451941	-0.936255
N196	N	1.322210	0.951941	-0.436255
H197	H	0.796811	0.481746	-0.966892
H198	H	1.296811	0.981746	-0.466892
H199	H	0.847686	0.486008	-0.909118
H200	H	1.347686	0.986008	-0.409118
H201	H	0.263307	0.268754	-0.229671
H202	H	0.763307	0.768754	0.270329
N203	N	0.895227	0.491966	-0.870502
N204	N	1.395227	0.991966	-0.370502
H205	H	0.931438	0.524900	-0.859139
H206	H	1.431438	1.024900	-0.359139
H207	H	0.854643	0.516956	-0.859074
H208	H	1.354643	1.016956	-0.359074
N209	N	0.675625	0.452349	-0.385228
N210	N	1.175625	0.952349	0.114772
H211	H	0.664293	0.440995	-0.430015
H212	H	1.164293	0.940995	0.069985
H213	H	0.722030	0.445189	-0.379095
H214	H	1.222030	0.945189	0.120905
N215	N	0.895233	0.492024	-0.734490
N216	N	1.395233	0.992024	-0.234490
H217	H	0.892093	0.534018	-0.765145
H218	H	1.392093	1.034018	-0.265145
H219	H	0.933409	0.498849	-0.707374
H220	H	1.433409	0.998849	-0.207374
H221	H	0.548233	0.268820	-0.229573
H222	H	1.048233	0.768820	0.270427
H223	H	0.832811	0.439623	-0.659989
H224	H	1.332811	0.939623	-0.159989
H225	H	0.832798	0.439669	-0.541275
H226	H	1.332798	0.939669	-0.041275
N227	N	0.473671	0.342058	-0.184838
N228	N	0.973671	0.842058	0.315162
H229	H	0.500780	0.386885	-0.178887
H230	H	1.000780	0.886885	0.321113
H231	H	0.500817	0.296689	-0.185778
H232	H	1.000817	0.796689	0.314222
N233	N	0.539615	0.452310	-0.385272
N234	N	1.039615	0.952310	0.114728
H235	H	0.551056	0.440968	-0.430054
H236	H	1.051056	0.940968	0.069946
H237	H	0.550964	0.504857	-0.375400
H238	H	1.050964	1.004857	0.124600
N239	N	0.473917	0.366595	-0.419483
N240	N	0.973917	0.866595	0.080517
H241	H	0.462594	0.324086	-0.447590
H242	H	0.962594	0.824086	0.052410
H243	H	0.520313	0.365732	-0.410848
H244	H	1.020313	0.865732	0.089152
N245	N	0.337930	0.366578	-0.419544
N246	N	0.837930	0.866578	0.080456
H247	H	0.310821	0.321755	-0.425521
H248	H	0.810821	0.821755	0.074479
H249	H	0.368679	0.370354	-0.455236
H250	H	0.868679	0.870354	0.044764
N251	N	0.271997	0.452252	-0.385371
N252	N	0.771997	0.952252	0.114629
H253	H	0.241347	0.482102	-0.410723
H254	H	0.741347	0.982102	0.089277
H255	H	0.299203	0.422353	-0.414401
H256	H	0.799203	0.922353	0.085599
H257	H	0.144597	0.268723	-0.229717
H258	H	0.644597	0.768723	0.270283
N259	N	0.135984	0.452215	-0.385422
N260	N	0.635984	0.952215	0.114578
H261	H	0.166645	0.482088	-0.410745
H262	H	0.666645	0.982088	0.089255
H263	H	0.108782	0.486215	-0.359869
H264	H	0.608782	0.986215	0.140131
N265	N	0.337664	0.342029	-0.184890
N266	N	0.837664	0.842029	0.315110
H267	H	0.368283	0.338291	-0.149124
H268	H	0.868283	0.838291	0.350876
H269	H	0.310548	0.296681	-0.185872
H270	H	0.810548	0.796681	0.314128
