data_functionalizedCrystal
_audit_creation_method	'MofGen! by Chris Wilmer'
_symmetry_space_group_name_H-M	'P1'
_symmetry_Int_Tables_number	1
_symmetry_cell_setting	triclinic
loop_
_symmetry_equiv_pos_as_xyz
  x,y,z
_cell_length_a	21.395362
_cell_length_b	19.121063
_cell_length_c	21.395355
_cell_angle_alpha	92.420740
_cell_angle_beta	89.956060
_cell_angle_gamma	92.485681
loop_
_atom_site_label
_atom_site_type_symbol
_atom_site_fract_x
_atom_site_fract_y
_atom_site_fract_z
Zn1	Zn	0.947241	-0.279403	-0.365205
Zn2	Zn	0.942680	-0.396839	-0.264891
Zn3	Zn	0.842454	-0.279436	-0.260407
Zn4	Zn	0.837961	-0.396853	-0.369596
O5	O	0.892584	-0.338133	-0.315025
O6	O	1.034314	-0.294962	-0.351936
O7	O	0.929357	-0.381273	-0.176618
O8	O	0.860144	-0.181145	-0.270595
O9	O	1.030964	-0.381241	-0.278236
O10	O	0.937130	-0.181121	-0.347589
O11	O	0.855721	-0.295017	-0.173324
O12	O	0.754180	-0.295031	-0.274853
O13	O	0.852486	-0.381266	-0.456691
O14	O	0.750879	-0.381297	-0.355073
O15	O	0.932773	-0.294976	-0.453465
O16	O	0.925000	-0.495127	-0.282494
O17	O	0.848063	-0.495138	-0.359420
C18	C	0.729795	-0.338170	-0.314953
C19	C	0.660152	-0.338203	-0.314938
C20	C	0.625735	-0.383181	-0.356651
C21	C	0.560300	-0.383164	-0.356679
C22	C	0.529285	-0.338176	-0.314982
C23	C	0.563711	-0.293189	-0.273266
C24	C	0.629145	-0.293202	-0.273244
C25	C	0.425776	-0.332517	-0.258362
C26	C	0.360343	-0.332509	-0.258383
C27	C	0.327466	-0.338130	-0.315049
C28	C	0.360030	-0.343774	-0.371698
C29	C	0.425463	-0.343788	-0.371676
C30	C	0.458334	-0.338156	-0.315001
C31	C	0.222096	-0.383092	-0.356795
C32	C	0.156661	-0.383070	-0.356824
C33	C	0.160073	-0.293098	-0.273405
C34	C	0.225508	-0.293117	-0.273383
C35	C	0.256516	-0.338117	-0.315077
C36	C	0.885566	-0.520617	-0.321934
C37	C	0.882621	-0.598685	-0.324911
C38	C	0.921325	-0.635332	-0.286291
C39	C	0.918559	-0.708685	-0.289094
C40	C	0.877085	-0.745389	-0.330515
C41	C	0.838379	-0.708736	-0.369139
C42	C	0.841149	-0.635385	-0.366338
C43	C	0.866720	-0.966864	-0.340976
C44	C	0.863952	-1.040221	-0.343772
C45	C	0.944133	-1.040164	-0.263728
C46	C	0.946896	-0.966812	-0.260928
C47	C	0.908193	-0.930165	-0.299555
C48	C	0.874256	-0.820367	-0.333380
C49	C	0.911026	-0.855188	-0.296692
C50	C	1.056009	-0.338096	-0.315097
C51	C	1.125651	-0.338080	-0.315127
C52	C	0.892637	-0.338119	-0.478447
C53	C	0.892659	-0.338112	-0.548089
C54	C	0.899647	-0.154936	-0.308102
C55	C	0.902656	-0.076868	-0.305152
C56	C	0.934463	-0.293179	-0.579123
C57	C	0.934463	-0.293149	-0.644557
C58	C	0.892666	-0.338065	-0.678955
C59	C	0.850854	-0.383001	-0.647913
C60	C	0.850851	-0.383025	-0.582480
C61	C	0.885286	-0.401308	-0.785023
C62	C	0.885294	-0.401285	-0.850455
C63	C	0.892672	-0.337990	-0.880773
C64	C	0.900056	-0.274717	-0.845651
C65	C	0.900053	-0.274741	-0.780218
C66	C	0.892664	-0.338043	-0.749907
C67	C	0.934479	-0.293021	-0.982759
C68	C	0.934475	-0.292989	-1.048194
C69	C	0.850869	-0.382847	-1.051549
C70	C	0.850870	-0.382872	-0.986115
C71	C	0.892678	-0.337960	-0.951723
C72	C	0.892570	-0.338096	-0.152236
C73	C	0.892676	-0.337904	-0.082588
H74	H	0.532271	-0.419790	-0.390649
H75	H	0.840486	-0.850260	-0.367103
H76	H	0.830186	-1.070103	-0.377512
C77	C	0.263372	-0.243652	-0.227486
C78	C	0.229261	-0.194169	-0.181615
C79	C	0.267125	-0.144703	-0.135715
C80	C	0.339099	-0.144720	-0.135686
C81	C	0.373214	-0.194205	-0.181558
C82	C	0.335350	-0.243671	-0.227458
H83	H	0.175978	-0.194155	-0.181636
H84	H	0.241870	-0.108071	-0.101758
H85	H	0.367128	-0.108102	-0.101708
H86	H	0.426497	-0.194219	-0.181538
H87	H	0.360604	-0.280303	-0.261416
C88	C	0.324526	-0.326307	-0.196072
C89	C	0.360686	-0.320114	-0.133740
C90	C	0.324871	-0.313915	-0.071428
C91	C	0.252896	-0.313908	-0.071448
C92	C	0.216732	-0.320102	-0.133782
C93	C	0.252547	-0.326301	-0.196094
H94	H	0.413969	-0.320118	-0.133723
H95	H	0.351642	-0.309330	-0.025284
H96	H	0.226383	-0.309319	-0.025320
H97	H	0.163449	-0.320097	-0.133799
H98	H	0.225776	-0.330886	-0.242239
C99	C	0.118798	-0.432550	-0.402710
C100	C	0.046824	-0.432535	-0.402739
C101	C	0.008960	-0.482018	-0.448626
C102	C	0.043070	-0.531516	-0.494483
C103	C	0.115049	-0.531533	-0.494455
C104	C	0.152913	-0.482050	-0.448569
H105	H	0.021569	-0.395892	-0.368792
H106	H	-0.044323	-0.482004	-0.448646
H107	H	0.015041	-0.568146	-0.528450
H108	H	0.140303	-0.568176	-0.528403
H109	H	0.206196	-0.482064	-0.448549
C110	C	0.966948	-0.594961	-0.240727
C111	C	0.961491	-0.605095	-0.169881
C112	C	1.007116	-0.564726	-0.124318
C113	C	1.058199	-0.514222	-0.149601
C114	C	1.063659	-0.504085	-0.220452
C115	C	1.018033	-0.544454	-0.266015
H116	H	0.923674	-0.642484	-0.151161
H117	H	1.003075	-0.572230	-0.071869
H118	H	1.091974	-0.484338	-0.115873
H119	H	1.101475	-0.466696	-0.239172
H120	H	1.022075	-0.536950	-0.318463
C121	C	0.461284	-0.349986	-0.433984
C122	C	0.425131	-0.356168	-0.496320
C123	C	0.460952	-0.362363	-0.558629
C124	C	0.532926	-0.362376	-0.558602
C125	C	0.569084	-0.356194	-0.496264
C126	C	0.533263	-0.349999	-0.433955
H127	H	0.371847	-0.356159	-0.496342
H128	H	0.434185	-0.366940	-0.604776
H129	H	0.559443	-0.366962	-0.604727
H130	H	0.622367	-0.356203	-0.496242
H131	H	0.560029	-0.345423	-0.387808
H132	H	0.906064	-0.223221	-0.751624
C133	C	0.980453	-0.243724	-0.678706
C134	C	1.028466	-0.274144	-0.724883
C135	C	1.074455	-0.224721	-0.759031
C136	C	1.072432	-0.144878	-0.747002
C137	C	1.024417	-0.114454	-0.700823
C138	C	0.978427	-0.163877	-0.666676
H139	H	1.029965	-0.333253	-0.733789
H140	H	1.109999	-0.247244	-0.793216
H141	H	1.106476	-0.108293	-0.772281
H142	H	1.022917	-0.055346	-0.691917
H143	H	0.942883	-0.141355	-0.632491
H144	H	0.975644	-1.070010	-0.232282
H145	H	0.944797	-0.825302	-0.262970
H146	H	0.968506	-0.256607	-0.551125
C147	C	0.980462	-0.243615	-0.944923
C148	C	0.980466	-0.243645	-0.872949
C149	C	1.026450	-0.194240	-0.835115
C150	C	1.072430	-0.144805	-0.869256
C151	C	1.072428	-0.144774	-0.941233
C152	C	1.026444	-0.194179	-0.979067
H153	H	0.946427	-0.280241	-0.847673
H154	H	1.026451	-0.194264	-0.781832
H155	H	1.106470	-0.108233	-0.841249
H156	H	1.106467	-0.108177	-0.966510
H157	H	1.026443	-0.194155	-1.032350
H158	H	0.906066	-0.223177	-0.870335
C159	C	0.992522	-0.926445	-0.215365
C160	C	0.987061	-0.936584	-0.144519
C161	C	1.032685	-0.896220	-0.098952
C162	C	1.083771	-0.845716	-0.124230
C163	C	1.089235	-0.835574	-0.195080
C164	C	1.043610	-0.875938	-0.240647
H165	H	0.949242	-0.973972	-0.125803
H166	H	1.028641	-0.903728	-0.046504
H167	H	1.117546	-0.815836	-0.090499
H168	H	1.127054	-0.798186	-0.213796
H169	H	1.047655	-0.868431	-0.293094
H170	H	0.968516	-0.256395	-1.073461
C171	C	0.256212	-0.432581	-0.402663
C172	C	0.299020	-0.487692	-0.377505
C173	C	0.333134	-0.537180	-0.423374
C174	C	0.324440	-0.531558	-0.494400
C175	C	0.281630	-0.476446	-0.519561
C176	C	0.247516	-0.426957	-0.473693
H177	H	0.305457	-0.491855	-0.324925
H178	H	0.364825	-0.577978	-0.404747
H179	H	0.349693	-0.568192	-0.528354
H180	H	0.275192	-0.472282	-0.572142
H181	H	0.215825	-0.386159	-0.492319
H182	H	0.950076	-0.738520	-0.257645
H183	H	0.835205	-0.937033	-0.372426
H184	H	0.816830	-0.419411	-1.079555
H185	H	0.333263	-0.348350	-0.417841
C186	C	0.792759	-0.749110	-0.414703
C187	C	0.741674	-0.799612	-0.389421
C188	C	0.696052	-0.839985	-0.434986
C189	C	0.701516	-0.829856	-0.505833
C190	C	0.752603	-0.779351	-0.531119
C191	C	0.798225	-0.738979	-0.485554
H192	H	0.737627	-0.807112	-0.336972
H193	H	0.658234	-0.877372	-0.416267
H194	H	0.667744	-0.859742	-0.539562
H195	H	0.756650	-0.771851	-0.583567
H196	H	0.836044	-0.701592	-0.504273
H197	H	0.816832	-0.419466	-0.960847
H198	H	0.134822	-0.256465	-0.239458
H199	H	0.879285	-0.452806	-0.879046
H200	H	0.879111	-0.452836	-0.760343
H201	H	0.816820	-0.419569	-0.675924
C202	C	0.798573	-0.595069	-0.408819
C203	C	0.751299	-0.544714	-0.379686
C204	C	0.708723	-0.504398	-0.422170
C205	C	0.713422	-0.514438	-0.493787
C206	C	0.760698	-0.564795	-0.522924
C207	C	0.803273	-0.605110	-0.480439
H208	H	0.747819	-0.537280	-0.326668
H209	H	0.673727	-0.467121	-0.400601
H210	H	0.681905	-0.484594	-0.525236
H211	H	0.764178	-0.572228	-0.575942
H212	H	0.838270	-0.642388	-0.502008
C213	C	0.529598	-0.243702	-0.227399
C214	C	0.486783	-0.188599	-0.252558
C215	C	0.452670	-0.139108	-0.206692
C216	C	0.461371	-0.144720	-0.135666
C217	C	0.504187	-0.199825	-0.110502
C218	C	0.538301	-0.249316	-0.156369
H219	H	0.480340	-0.184443	-0.305140
H220	H	0.420974	-0.098316	-0.225320
H221	H	0.436118	-0.108084	-0.101713
H222	H	0.510630	-0.203981	-0.057921
H223	H	0.569996	-0.290108	-0.137741
C224	C	0.667008	-0.243728	-0.227352
C225	C	0.661126	-0.163889	-0.229558
C226	C	0.698990	-0.114416	-0.183664
C227	C	0.742735	-0.144783	-0.135562
C228	C	0.748618	-0.224627	-0.133354
C229	C	0.710755	-0.274100	-0.179248
H230	H	0.628742	-0.141405	-0.265168
H231	H	0.694634	-0.055311	-0.185299
H232	H	0.770764	-0.108161	-0.101588
H233	H	0.781003	-0.247110	-0.097745
H234	H	0.715110	-0.333205	-0.177613
H235	H	0.650977	-0.419823	-0.390603
H236	H	0.452538	-0.327937	-0.212214
H237	H	0.816806	-0.419614	-0.557212
