data_functionalizedCrystal
_audit_creation_method	'MofGen! by Chris Wilmer'
_symmetry_space_group_name_H-M	'P1'
_symmetry_Int_Tables_number	1
_symmetry_cell_setting	triclinic
loop_
_symmetry_equiv_pos_as_xyz
  x,y,z
_cell_length_a	14.519709
_cell_length_b	12.811445
_cell_length_c	11.295483
_cell_angle_alpha	80.460739
_cell_angle_beta	85.891168
_cell_angle_gamma	96.135712
loop_
_atom_site_label
_atom_site_type_symbol
_atom_site_fract_x
_atom_site_fract_y
_atom_site_fract_z
O1	O	-0.108551	1.410823	-0.251354
O2	O	-0.124128	1.102894	-0.218103
O3	O	0.017935	1.265024	-0.235621
O4	O	-0.250614	1.248694	-0.233836
O5	O	0.005476	1.250784	-0.036032
O6	O	-0.136587	1.088654	-0.018514
O7	O	-0.121010	1.396583	-0.051764
Cu8	Cu	-0.129936	1.241318	-0.016915
Cu9	Cu	-0.115202	1.258159	-0.252953
O10	O	-0.263073	1.234454	-0.034247
C11	C	-0.129865	1.056366	-0.114053
C12	C	-0.128388	0.938940	-0.101374
C13	C	-0.112046	0.733806	-0.295164
C14	C	-0.110658	0.623474	-0.283256
C15	C	-0.124231	0.607942	-0.065652
C16	C	-0.125619	0.718273	-0.077560
C17	C	-0.119525	0.781202	-0.192319
C18	C	-0.120906	0.891537	-0.204226
C19	C	-0.134485	0.876002	0.013377
C20	C	-0.133098	0.765670	0.025285
C21	C	-0.291200	1.242335	-0.134121
C22	C	-0.393572	1.244614	-0.134359
C23	C	-0.768428	1.253013	-0.135313
C24	C	-0.664131	1.250681	-0.135048
C25	C	-0.581004	1.248814	-0.134835
C26	C	-0.476700	1.246481	-0.134572
C27	C	0.046062	1.257143	-0.135750
C28	C	0.148435	1.254864	-0.135519
C29	C	-0.115272	1.443112	-0.155817
C30	C	-0.116749	1.560539	-0.168504
N31	N	-0.140298	1.229481	0.149100
N32	N	-0.104833	1.270005	-0.418969
C33	C	-0.030187	1.355215	0.384804
C34	C	-0.038025	1.346277	0.510434
C35	C	-0.163805	1.202663	0.525991
C36	C	-0.155968	1.211601	0.400362
C37	C	-0.089158	1.287880	0.329772
C38	C	-0.081325	1.296823	0.204140
C39	C	-0.207101	1.153205	0.219700
C40	C	-0.214938	1.144267	0.345330
H41	H	-0.129201	0.556685	0.027780
Cl42	Cl	-0.104372	0.812921	-0.439428
Cl43	Cl	-0.101259	0.563893	-0.412552
H44	H	-0.140574	0.914603	0.097120
H45	H	-0.138062	0.714418	0.118719
H46	H	-0.026928	1.358936	0.146667
H47	H	0.024206	1.417332	0.327329
Cl48	Cl	0.036115	1.430928	0.579613
H49	H	-0.115943	0.942772	-0.297670
Cl50	Cl	-0.247781	1.106764	0.614745
H51	H	-0.269332	1.082159	0.402818
H52	H	-0.255121	1.098379	0.174879
