data_functionalizedCrystal
_audit_creation_method	'MofGen! by Chris Wilmer'
_symmetry_space_group_name_H-M	'P1'
_symmetry_Int_Tables_number	1
_symmetry_cell_setting	triclinic
loop_
_symmetry_equiv_pos_as_xyz
  x,y,z
_cell_length_a	17.038278
_cell_length_b	17.038272
_cell_length_c	15.500235
_cell_angle_alpha	93.045329
_cell_angle_beta	86.963480
_cell_angle_gamma	91.111028
loop_
_atom_site_label
_atom_site_type_symbol
_atom_site_fract_x
_atom_site_fract_y
_atom_site_fract_z
O1	O	1.052150	0.167110	-0.071952
O2	O	0.824339	0.164404	-0.071953
O3	O	0.936890	0.051851	-0.071946
O4	O	0.939599	0.279662	-0.071959
O5	O	0.930088	0.058681	0.071942
O6	O	0.817537	0.171233	0.071935
O7	O	1.045348	0.173939	0.071936
Cu8	Cu	0.930821	0.173210	0.085074
Cu9	Cu	0.938865	0.165133	-0.085091
O10	O	0.932797	0.286492	0.071929
C11	C	0.791645	0.165356	-0.000009
C12	C	0.704361	0.158009	-0.000008
C13	C	0.210936	0.112871	-0.000009
C14	C	0.292947	0.119781	-0.000004
C15	C	0.329347	0.194154	-0.000013
C16	C	0.283731	0.261622	-0.000017
C17	C	0.201721	0.254712	-0.000016
C18	C	0.576735	0.218567	-0.000012
C19	C	0.658751	0.225472	-0.000015
C20	C	0.667962	0.083630	-0.000001
C21	C	0.585950	0.076726	-0.000005
C22	C	0.540340	0.144194	-0.000005
C23	C	0.413176	0.201219	-0.000010
C24	C	0.456513	0.137129	-0.000001
C25	C	0.931026	0.025973	-0.000002
C26	C	0.923678	-0.061310	-0.000002
C27	C	0.991142	-0.106920	-0.000001
C28	C	0.984233	-0.188932	-0.000009
C29	C	0.909860	-0.225333	-0.000012
C30	C	0.842392	-0.179717	-0.000016
C31	C	0.849301	-0.097706	-0.000014
C32	C	0.885450	-0.472721	-0.000024
C33	C	0.878545	-0.554737	-0.000024
C34	C	1.020388	-0.563947	-0.000019
C35	C	1.027291	-0.481934	-0.000011
C36	C	0.959822	-0.436326	-0.000020
C37	C	0.902797	-0.309162	-0.000018
C38	C	0.966887	-0.352498	-0.000020
C39	C	1.078042	0.172987	-0.000010
C40	C	1.165326	0.180334	-0.000016
C41	C	0.938661	0.312370	-0.000017
C42	C	0.946009	0.399653	-0.000023
N43	N	0.925169	0.178890	0.204758
N44	N	0.944523	0.159447	-0.204775
C45	C	0.896819	0.207125	0.749944
C46	C	0.901111	0.202846	0.659372
C47	C	0.953113	0.150891	0.614082
C48	C	1.000820	0.103207	0.659369
C49	C	0.996522	0.107484	0.749940
C50	C	0.968579	0.135483	0.340616
C51	C	0.972874	0.131212	0.250039
C52	C	0.873164	0.230850	0.250048
C53	C	0.868875	0.235125	0.340620
C54	C	0.916578	0.187438	0.385900
C55	C	0.957504	0.146517	0.521502
C56	C	0.912183	0.191809	0.478478
H57	H	0.442823	0.261774	-0.000020
H58	H	0.999846	0.104215	0.484620
Br59	Br	0.729863	-0.007929	0.000003
Br60	Br	1.071389	0.032689	0.597907
H61	H	1.087853	-0.452303	-0.000009
H62	H	0.164586	0.309648	-0.000018
H63	H	1.035367	0.068658	0.786806
H64	H	1.027442	-0.322858	-0.000037
Br65	Br	0.741456	-0.229117	-0.000034
H66	H	0.313374	0.322179	-0.000019
Br67	Br	0.793885	-0.410834	-0.000041
Br68	Br	0.808425	0.295563	0.188595
Br69	Br	1.043458	0.060699	0.188579
H70	H	0.794365	-0.060572	-0.000015
Br71	Br	0.514847	0.310131	-0.000022
H72	H	1.075316	-0.601090	-0.000014
Br73	Br	1.092081	-0.057527	0.000016
H74	H	1.039169	-0.226064	-0.000007
H75	H	0.330080	0.064845	0.000005
Br76	Br	0.536557	-0.024215	-0.000031
Br77	Br	0.161544	0.011931	-0.000004
Br78	Br	0.836366	0.267550	0.597916
H79	H	0.688385	0.286039	-0.000010
H80	H	0.817978	-0.584371	-0.000012
H81	H	1.007422	0.096656	0.377475
H82	H	0.869840	0.234108	0.515355
Br83	Br	0.407111	0.036198	0.000018
H84	H	0.854477	0.249436	0.786813
Br85	Br	0.798304	0.305638	0.402087
H86	H	0.842241	-0.338809	-0.000018
