data_functionalizedCrystal
_audit_creation_method	'MofGen! by Chris Wilmer'
_symmetry_space_group_name_H-M	'P1'
_symmetry_Int_Tables_number	1
_symmetry_cell_setting	triclinic
loop_
_symmetry_equiv_pos_as_xyz
  x,y,z
_cell_length_a	18.215407
_cell_length_b	29.839131
_cell_length_c	18.215399
_cell_angle_alpha	90.030873
_cell_angle_beta	90.019833
_cell_angle_gamma	90.041868
loop_
_atom_site_label
_atom_site_type_symbol
_atom_site_fract_x
_atom_site_fract_y
_atom_site_fract_z
Zn1	Zn	1.124987	-0.178853	0.416101
Zn2	Zn	1.374987	0.071147	0.666101
Zn3	Zn	1.624987	0.321147	0.916101
Zn4	Zn	1.874987	0.571147	1.166101
Zn5	Zn	1.124860	-0.253982	0.293028
Zn6	Zn	1.374860	-0.003982	0.543028
Zn7	Zn	1.624860	0.246018	0.793028
Zn8	Zn	1.874860	0.496018	1.043028
Zn9	Zn	1.001920	-0.178867	0.293048
Zn10	Zn	1.251920	0.071133	0.543048
Zn11	Zn	1.501920	0.321133	0.793048
Zn12	Zn	1.751920	0.571133	1.043048
Zn13	Zn	1.001850	-0.253957	0.416053
Zn14	Zn	1.251850	-0.003957	0.666053
Zn15	Zn	1.501850	0.246043	0.916053
Zn16	Zn	1.751850	0.496043	1.166053
O17	O	1.063404	-0.216415	0.354558
O18	O	1.313404	0.033585	0.604558
O19	O	1.563404	0.283585	0.854558
O20	O	1.813404	0.533585	1.104558
O21	O	1.227955	-0.188823	0.399787
O22	O	1.477955	0.061177	0.649787
O23	O	1.727955	0.311177	0.899787
O24	O	1.977955	0.561177	1.149787
O25	O	1.108528	-0.244034	0.190047
O26	O	1.358528	0.005966	0.440047
O27	O	1.608528	0.255966	0.690047
O28	O	1.858528	0.505966	0.940047
O29	O	1.018327	-0.115998	0.309400
O30	O	1.268327	0.134002	0.559400
O31	O	1.518327	0.384002	0.809400
O32	O	1.768327	0.634002	1.059400
O33	O	1.227861	-0.244020	0.309366
O34	O	1.477861	0.005980	0.559366
O35	O	1.727861	0.255980	0.809366
O36	O	1.977861	0.505980	1.059366
O37	O	1.108745	-0.115987	0.399806
O38	O	1.358745	0.134013	0.649806
O39	O	1.608745	0.384013	0.899806
O40	O	1.858745	0.634013	1.149806
O41	O	1.018204	-0.188848	0.190061
O42	O	1.268204	0.061152	0.440061
O43	O	1.518204	0.311152	0.690061
O44	O	1.768204	0.561152	0.940061
O45	O	0.898926	-0.188824	0.309354
O46	O	1.148926	0.061176	0.559354
O47	O	1.398926	0.311176	0.809354
O48	O	1.648926	0.561176	1.059354
O49	O	1.018209	-0.243978	0.519044
O50	O	1.268209	0.006022	0.769044
O51	O	1.518209	0.256022	1.019044
O52	O	1.768209	0.506022	1.269044
O53	O	0.898875	-0.243992	0.399725
O54	O	1.148875	0.006008	0.649725
O55	O	1.398875	0.256008	0.899725
O56	O	1.648875	0.506008	1.149725
O57	O	1.108677	-0.188799	0.519079
O58	O	1.358677	0.061201	0.769079
O59	O	1.608677	0.311201	1.019079
O60	O	1.858677	0.561201	1.269079
O61	O	1.108460	-0.316846	0.309320
O62	O	1.358460	-0.066846	0.559320
O63	O	1.608460	0.183154	0.809320
O64	O	1.858460	0.433154	1.059320
O65	O	1.018086	-0.316827	0.399705
O66	O	1.268086	-0.066827	0.649705
O67	O	1.518086	0.183173	0.899705
O68	O	1.768086	0.433173	1.149705
C69	C	0.872198	-0.216407	0.354537
C70	C	1.122198	0.033593	0.604537
C71	C	1.372198	0.283593	0.854537
C72	C	1.622198	0.533593	1.104537
C73	C	0.790399	-0.216414	0.354545
C74	C	1.040399	0.033586	0.604545
C75	C	1.290399	0.283586	0.854545
C76	C	1.540399	0.533586	1.104545
C77	C	1.063272	-0.333137	0.354521
C78	C	1.313272	-0.083137	0.604521
C79	C	1.563272	0.166863	0.854521
C80	C	1.813272	0.416863	1.104521
C81	C	1.063282	-0.383072	0.354530
C82	C	1.313282	-0.133072	0.604530
C83	C	1.563282	0.116928	0.854530
C84	C	1.813282	0.366928	1.104530
C85	C	0.602198	-0.245186	0.401542
C86	C	0.852198	0.004814	0.651542
C87	C	1.102198	0.254814	0.901542
C88	C	1.352198	0.504814	1.151542
C89	C	0.525339	-0.245187	0.401551
C90	C	0.775339	0.004813	0.651551
C91	C	1.025339	0.254813	0.901551
C92	C	1.275339	0.504813	1.151551
C93	C	0.525363	-0.187652	0.307589
C94	C	0.775363	0.062348	0.557589
C95	C	1.025363	0.312348	0.807589
C96	C	1.275363	0.562348	1.057589
C97	C	0.602220	-0.187648	0.307584
C98	C	0.852220	0.062352	0.557584
C99	C	1.102220	0.312352	0.807584
C100	C	1.352220	0.562352	1.057584
C101	C	0.640636	-0.216418	0.354560
C102	C	0.890636	0.033582	0.604560
C103	C	1.140636	0.283582	0.854560
C104	C	1.390636	0.533582	1.104560
C105	C	0.486920	-0.216423	0.354574
C106	C	0.736920	0.033577	0.604574
C107	C	0.986920	0.283577	0.854574
C108	C	1.236920	0.533577	1.104574
C109	C	0.403586	-0.216424	0.354583
C110	C	0.653586	0.033576	0.604583
C111	C	0.903586	0.283576	0.854583
C112	C	1.153586	0.533576	1.104583
C113	C	0.723975	-0.216416	0.354551
C114	C	0.973975	0.033584	0.604551
C115	C	1.223975	0.283584	0.854551
C116	C	1.473975	0.533584	1.104551
C117	C	1.110548	-0.692712	0.307563
C118	C	1.360548	-0.442712	0.557563
C119	C	1.610548	-0.192712	0.807563
C120	C	1.860548	0.057288	1.057563
C121	C	1.110639	-0.880385	0.307591
C122	C	1.360639	-0.630385	0.557591
C123	C	1.610639	-0.380385	0.807591
C124	C	1.860639	-0.130385	1.057591
O125	O	1.150721	-0.904647	0.267629
O126	O	1.400721	-0.654647	0.517629
O127	O	1.650721	-0.404647	0.767629
O128	O	1.900721	-0.154647	1.017629
N129	N	1.063557	-0.903857	0.354613
N130	N	1.313557	-0.653857	0.604613
N131	N	1.563557	-0.403857	0.854613
N132	N	1.813557	-0.153857	1.104613
C133	C	1.016452	-0.880407	0.401635
C134	C	1.266452	-0.630407	0.651635
C135	C	1.516452	-0.380407	0.901635
C136	C	1.766452	-0.130407	1.151635
O137	O	0.976414	-0.904678	0.441636
O138	O	1.226414	-0.654678	0.691636
O139	O	1.476414	-0.404678	0.941636
O140	O	1.726414	-0.154678	1.191636
C141	C	1.016366	-0.692735	0.401609
C142	C	1.266366	-0.442735	0.651609
C143	C	1.516366	-0.192735	0.901609
C144	C	1.766366	0.057265	1.151609
C145	C	1.063446	-0.669266	0.354579
C146	C	1.313446	-0.419266	0.604579
C147	C	1.563446	-0.169266	0.854579
C148	C	1.813446	0.080734	1.104579
C149	C	1.157625	-0.669243	0.260536
C150	C	1.407625	-0.419243	0.510536
C151	C	1.657625	-0.169243	0.760536
C152	C	1.907625	0.080757	1.010536
C153	C	1.157599	-0.622327	0.260527
C154	C	1.407599	-0.372327	0.510527
C155	C	1.657599	-0.122327	0.760527
C156	C	1.907599	0.127673	1.010527
C157	C	1.110496	-0.598881	0.307544
C158	C	1.360496	-0.348881	0.557544
C159	C	1.610496	-0.098881	0.807544
C160	C	1.860496	0.151119	1.057544
C161	C	1.063420	-0.622350	0.354570
C162	C	1.313420	-0.372350	0.604570
C163	C	1.563420	-0.122350	0.854570
C164	C	1.813420	0.127650	1.104570
C165	C	0.969265	-0.669287	0.448634
C166	C	1.219265	-0.419287	0.698634
C167	C	1.469265	-0.169287	0.948634
C168	C	1.719265	0.080713	1.198634
C169	C	0.969249	-0.622365	0.448625
C170	C	1.219249	-0.372365	0.698625
C171	C	1.469249	-0.122365	0.948625
C172	C	1.719249	0.127635	1.198625
C173	C	1.016329	-0.598896	0.401595
C174	C	1.266329	-0.348896	0.651595
C175	C	1.516329	-0.098896	0.901595
C176	C	1.766329	0.151104	1.151595
C177	C	1.016291	-0.551989	0.401577
C178	C	1.266291	-0.301989	0.651577
C179	C	1.516291	-0.051989	0.901577
C180	C	1.766291	0.198011	1.151577
N181	N	1.063373	-0.528517	0.354554
N182	N	1.313373	-0.278517	0.604554
N183	N	1.563373	-0.028517	0.854554
N184	N	1.813373	0.221483	1.104554
C185	C	1.110476	-0.551963	0.307538
C186	C	1.360476	-0.301963	0.557538
C187	C	1.610476	-0.051963	0.807538
C188	C	1.860476	0.198037	1.057538
C189	C	1.016500	-0.978938	0.401644
C190	C	1.266500	-0.728938	0.651644
C191	C	1.516500	-0.478938	0.901644
C192	C	1.766500	-0.228938	1.151644
C193	C	1.016521	-1.025856	0.401649
C194	C	1.266521	-0.775856	0.651649
C195	C	1.516521	-0.525856	0.901649
C196	C	1.766521	-0.275856	1.151649
C197	C	1.110709	-1.025830	0.307606
C198	C	1.360709	-0.775830	0.557606
C199	C	1.610709	-0.525830	0.807606
C200	C	1.860709	-0.275830	1.057606
C201	C	1.110684	-0.978911	0.307598
C202	C	1.360684	-0.728911	0.557598
C203	C	1.610684	-0.478911	0.807598
C204	C	1.860684	-0.228911	1.057598
C205	C	1.063582	-0.955466	0.354622
C206	C	1.313582	-0.705466	0.604622
C207	C	1.563582	-0.455466	0.854622
C208	C	1.813582	-0.205466	1.104622
C209	C	1.110417	-0.453437	0.307521
C210	C	1.360417	-0.203437	0.557521
C211	C	1.610417	0.046563	0.807521
C212	C	1.860417	0.296563	1.057521
C213	C	1.110385	-0.406518	0.307514
C214	C	1.360385	-0.156518	0.557514
C215	C	1.610385	0.093482	0.807514
C216	C	1.860385	0.343482	1.057514
C217	C	1.016200	-0.406547	0.401559
C218	C	1.266200	-0.156547	0.651559
C219	C	1.516200	0.093453	0.901559
C220	C	1.766200	0.343453	1.151559
C221	C	1.016229	-0.453463	0.401564
C222	C	1.266229	-0.203463	0.651564
C223	C	1.516229	0.046537	0.901564
C224	C	1.766229	0.296537	1.151564
C225	C	1.063344	-0.476907	0.354543
C226	C	1.313344	-0.226907	0.604543
C227	C	1.563344	0.023093	0.854543
C228	C	1.813344	0.273093	1.104543
O229	O	0.976236	-0.527698	0.441523
O230	O	1.226236	-0.277698	0.691523
O231	O	1.476236	-0.027698	0.941523
O232	O	1.726236	0.222302	1.191523
O233	O	1.150520	-0.527685	0.267554
O234	O	1.400520	-0.277685	0.517554
O235	O	1.650520	-0.027685	0.767554
O236	O	1.900520	0.222315	1.017554
C237	C	1.110574	-0.739627	0.307572
C238	C	1.360574	-0.489627	0.557572
C239	C	1.610574	-0.239627	0.807572
C240	C	1.860574	0.010373	1.057572
C241	C	1.063498	-0.763097	0.354598
C242	C	1.313498	-0.513097	0.604598
C243	C	1.563498	-0.263097	0.854598
C244	C	1.813498	-0.013097	1.104598
C245	C	1.016395	-0.739651	0.401615
C246	C	1.266395	-0.489651	0.651615
C247	C	1.516395	-0.239651	0.901615
C248	C	1.766395	0.010349	1.151615
C249	C	1.063518	-0.810015	0.354604
C250	C	1.313518	-0.560015	0.604604
C251	C	1.563518	-0.310015	0.854604
C252	C	1.813518	-0.060015	1.104604
C253	C	1.110621	-0.833461	0.307587
C254	C	1.360621	-0.583461	0.557587
C255	C	1.610621	-0.333461	0.807587
C256	C	1.860621	-0.083461	1.057587
C257	C	1.157703	-0.809989	0.260565
C258	C	1.407703	-0.559989	0.510565
C259	C	1.657703	-0.309989	0.760565
C260	C	1.907703	-0.059989	1.010565
C261	C	1.157677	-0.763074	0.260555
C262	C	1.407677	-0.513074	0.510555
C263	C	1.657677	-0.263074	0.760555
C264	C	1.907677	-0.013074	1.010555
C265	C	0.969313	-0.763122	0.448637
C266	C	1.219313	-0.513122	0.698637
C267	C	1.469313	-0.263122	0.948637
C268	C	1.719313	-0.013122	1.198637
C269	C	0.969342	-0.810038	0.448642
C270	C	1.219342	-0.560038	0.698642
C271	C	1.469342	-0.310038	0.948642
C272	C	1.719342	-0.060038	1.198642
C273	C	1.016445	-0.833484	0.401625
C274	C	1.266445	-0.583484	0.651625
C275	C	1.516445	-0.333484	0.901625
C276	C	1.766445	-0.083484	1.151625
C277	C	1.255357	-0.216423	0.354579
C278	C	1.505357	0.033577	0.604579
C279	C	1.755357	0.283577	0.854579
C280	C	2.005357	0.533577	1.104579
C281	C	1.337156	-0.216426	0.354589
C282	C	1.587156	0.033574	0.604589
C283	C	1.837156	0.283574	0.854589
C284	C	2.087156	0.533574	1.104589
C285	C	1.063449	-0.216384	0.546511
C286	C	1.313449	0.033616	0.796511
C287	C	1.563449	0.283616	1.046511
C288	C	1.813449	0.533616	1.296511
C289	C	1.063468	-0.216370	0.628310
C290	C	1.313468	0.033630	0.878310
C291	C	1.563468	0.283630	1.128310
C292	C	1.813468	0.533630	1.378310
C293	C	1.063558	-0.099236	0.354610
C294	C	1.313558	0.150764	0.604610
C295	C	1.563558	0.400764	0.854610
C296	C	1.813558	0.650764	1.104610
C297	C	1.063623	-0.049302	0.354633
C298	C	1.313623	0.200698	0.604633
C299	C	1.563623	0.450698	0.854633
C300	C	1.813623	0.700698	1.104633
C301	C	1.063402	-0.216413	0.163351
C302	C	1.313402	0.033587	0.413351
C303	C	1.563402	0.283587	0.663351
C304	C	1.813402	0.533587	0.913351
C305	C	1.063526	-0.216300	0.081553
C306	C	1.313526	0.033700	0.331553
C307	C	1.563526	0.283700	0.581553
C308	C	1.813526	0.533700	0.831553
C309	C	1.110592	-0.187612	0.816523
C310	C	1.360592	0.062388	1.066523
C311	C	1.610592	0.312388	1.316523
C312	C	1.860592	0.562388	1.566523
C313	C	1.110601	-0.187599	0.893382
C314	C	1.360601	0.062401	1.143382
C315	C	1.610601	0.312401	1.393382
C316	C	1.860601	0.562401	1.643382
C317	C	1.016397	-0.245059	0.893334
C318	C	1.266397	0.004941	1.143334
C319	C	1.516397	0.254941	1.393334
C320	C	1.766397	0.504941	1.643334
C321	C	1.016385	-0.245070	0.816477
C322	C	1.266385	0.004930	1.066477
C323	C	1.516385	0.254930	1.316477
C324	C	1.766385	0.504930	1.566477
C325	C	1.063487	-0.216347	0.778073
C326	C	1.313487	0.033653	1.028073
C327	C	1.563487	0.283653	1.278073
C328	C	1.813487	0.533653	1.528073
C329	C	1.063507	-0.216323	0.931789
C330	C	1.313507	0.033677	1.181789
C331	C	1.563507	0.283677	1.431789
C332	C	1.813507	0.533677	1.681789
C333	C	1.063517	-0.216309	1.015123
C334	C	1.313517	0.033691	1.265123
C335	C	1.563517	0.283691	1.515123
C336	C	1.813517	0.533691	1.765123
C337	C	1.063477	-0.216360	0.694734
C338	C	1.313477	0.033640	0.944734
C339	C	1.563477	0.283640	1.194734
C340	C	1.813477	0.533640	1.444734
H341	H	0.633474	-0.268610	0.439794
H342	H	0.883474	-0.018610	0.689794
H343	H	1.133474	0.231390	0.939794
H344	H	1.383474	0.481390	1.189794
H345	H	1.148944	-0.164223	0.785257
H346	H	1.398944	0.085777	1.035257
H347	H	1.648944	0.335777	1.285257
H348	H	1.898944	0.585777	1.535257
Cl349	Cl	0.477064	-0.151488	0.248536
Cl350	Cl	0.727064	0.098512	0.498536
Cl351	Cl	0.977064	0.348512	0.748536
Cl352	Cl	1.227064	0.598512	0.998536
H353	H	0.494047	-0.268612	0.439810
H354	H	0.744047	-0.018612	0.689810
H355	H	0.994047	0.231388	0.939810
H356	H	1.244047	0.481388	1.189810
Cl357	Cl	0.650546	-0.151477	0.248520
Cl358	Cl	0.900546	0.098523	0.498520
Cl359	Cl	1.150546	0.348523	0.748520
Cl360	Cl	1.400546	0.598523	0.998520
Cl361	Cl	1.169646	-0.482902	0.248406
Cl362	Cl	1.419646	-0.232902	0.498406
Cl363	Cl	1.669646	0.017098	0.748406
Cl364	Cl	1.919646	0.267098	0.998406
Cl365	Cl	1.169829	-0.151477	0.941716
Cl366	Cl	1.419829	0.098523	1.191716
Cl367	Cl	1.669829	0.348523	1.441716
Cl368	Cl	1.919829	0.598523	1.691716
H369	H	0.930924	-0.688387	0.486928
H370	H	1.180924	-0.438387	0.736928
H371	H	1.430924	-0.188387	0.986928
H372	H	1.680924	0.061613	1.236928
H373	H	1.148723	-0.387411	0.269213
H374	H	1.398723	-0.137411	0.519213
H375	H	1.648723	0.112589	0.769213
H376	H	1.898723	0.362589	1.019213
H377	H	1.195937	-0.603221	0.222233
H378	H	1.445937	-0.353221	0.472233
H379	H	1.695937	-0.103221	0.722233
H380	H	1.945937	0.146779	0.972233
H381	H	0.978050	-0.268446	0.924612
H382	H	1.228050	-0.018446	1.174612
H383	H	1.478050	0.231554	1.424612
H384	H	1.728050	0.481554	1.674612
H385	H	0.930894	-0.603279	0.486920
H386	H	1.180894	-0.353279	0.736920
H387	H	1.430894	-0.103279	0.986920
H388	H	1.680894	0.146721	1.236920
Cl389	Cl	0.957157	-0.281194	0.768136
Cl390	Cl	1.207157	-0.031194	1.018136
Cl391	Cl	1.457157	0.218806	1.268136
Cl392	Cl	1.707157	0.468806	1.518136
H393	H	0.978177	-1.044960	0.439939
H394	H	1.228177	-0.794960	0.689939
H395	H	1.478177	-0.544960	0.939939
H396	H	1.728177	-0.294960	1.189939
H397	H	1.195985	-0.688328	0.222250
H398	H	1.445985	-0.438328	0.472250
H399	H	1.695985	-0.188328	0.722250
H400	H	1.945985	0.061672	0.972250
Cl401	Cl	1.169873	-0.949412	0.248473
Cl402	Cl	1.419873	-0.699412	0.498473
Cl403	Cl	1.669873	-0.449412	0.748473
Cl404	Cl	1.919873	-0.199412	0.998473
H405	H	1.196053	-0.829087	0.222280
H406	H	1.446053	-0.579087	0.472280
H407	H	1.696053	-0.329087	0.722280
H408	H	1.946053	-0.079087	0.972280
Cl409	Cl	0.957028	-0.482968	0.460674
Cl410	Cl	1.207028	-0.232968	0.710674
Cl411	Cl	1.457028	0.017032	0.960674
Cl412	Cl	1.707028	0.267032	1.210674
H413	H	1.149062	-1.044928	0.269324
H414	H	1.399062	-0.794928	0.519324
H415	H	1.649062	-0.544928	0.769324
H416	H	1.899062	-0.294928	1.019324
H417	H	0.977847	-0.387450	0.439837
H418	H	1.227847	-0.137450	0.689837
H419	H	1.477847	0.112550	0.939837
H420	H	1.727847	0.362550	1.189837
Cl421	Cl	0.910092	-0.733654	0.507749
Cl422	Cl	1.160092	-0.483654	0.757749
Cl423	Cl	1.410092	-0.233654	1.007749
Cl424	Cl	1.660092	0.016346	1.257749
Cl425	Cl	1.216870	-0.733576	0.201431
Cl426	Cl	1.466870	-0.483576	0.451431
Cl427	Cl	1.716870	-0.233576	0.701431
Cl428	Cl	1.966870	0.016424	0.951431
Cl429	Cl	0.957279	-0.949470	0.460764
Cl430	Cl	1.207279	-0.699470	0.710764
Cl431	Cl	1.457279	-0.449470	0.960764
Cl432	Cl	1.707279	-0.199470	1.210764
H433	H	0.930998	-0.829142	0.486939
H434	H	1.180998	-0.579142	0.736939
H435	H	1.430998	-0.329142	0.986939
H436	H	1.680998	-0.079142	1.236939
