data_functionalizedCrystal
_audit_creation_method	'MofGen! by Chris Wilmer'
_symmetry_space_group_name_H-M	'P1'
_symmetry_Int_Tables_number	1
_symmetry_cell_setting	triclinic
loop_
_symmetry_equiv_pos_as_xyz
  x,y,z
_cell_length_a	11.026607
_cell_length_b	14.971486
_cell_length_c	14.048226
_cell_angle_alpha	89.996821
_cell_angle_beta	89.999231
_cell_angle_gamma	83.899927
loop_
_atom_site_label
_atom_site_type_symbol
_atom_site_fract_x
_atom_site_fract_y
_atom_site_fract_z
O1	O	0.158173	-1.212293	0.079046
O2	O	0.177115	-0.954928	0.079071
O3	O	-0.009040	-1.062281	0.079057
O4	O	0.344328	-1.104941	0.079060
O5	O	-0.009036	-1.062259	-0.079264
O6	O	0.177120	-0.954907	-0.079250
O7	O	0.158177	-1.212272	-0.079275
Zn8	Zn	0.167649	-1.083586	-0.104399
Zn9	Zn	0.167643	-1.083614	0.104196
O10	O	0.344332	-1.104920	-0.079261
C11	C	0.176270	-0.921457	-0.000086
C12	C	0.173732	-0.821753	-0.000076
C13	C	-0.054260	-1.054400	-0.000101
C14	C	-0.189008	-1.030939	-0.000096
C15	C	0.159022	-1.245743	-0.000116
C16	C	0.161561	-1.345447	-0.000119
C17	C	-0.262720	-1.095719	-0.000101
C18	C	-0.401989	-1.071472	-0.000095
C19	C	0.389552	-1.112800	-0.000100
C20	C	0.524300	-1.136261	-0.000100
N21	N	0.167653	-1.083573	-0.246760
C22	C	0.283093	-0.782051	-0.000077
C23	C	0.280700	-0.688368	-0.000091
C24	C	0.168945	-0.634389	-0.000098
C25	C	0.059576	-0.674098	-0.000100
C26	C	0.061969	-0.767779	-0.000093
C27	C	0.054594	-0.478837	-0.000113
C28	C	0.052200	-0.385150	-0.000119
C29	C	0.273325	-0.399426	-0.000111
C30	C	0.275718	-0.493107	-0.000104
C31	C	0.166348	-0.532809	-0.000105
C32	C	0.085234	-1.131182	-0.703606
C33	C	0.085243	-1.131175	-0.603948
C34	C	0.167642	-1.083613	-0.554130
C35	C	0.250046	-1.036062	-0.603975
C36	C	0.250043	-1.036075	-0.703631
C37	C	0.250046	-1.036038	-0.396261
C38	C	0.250048	-1.036024	-0.296598
C39	C	0.085246	-1.131138	-0.296578
C40	C	0.085242	-1.131151	-0.396234
C41	C	0.167646	-1.083598	-0.446072
N42	N	0.167630	-1.083633	0.246556
H43	H	-0.222722	-1.169129	-0.000114
H44	H	0.317152	-0.997319	-0.436835
H45	H	-0.229006	-0.957528	-0.000082
O46	O	-0.449545	-0.983854	-0.000210
C47	C	-0.464071	-0.841762	-0.082243
C48	C	-0.410109	-0.940962	-0.082221
H49	H	-0.432229	-0.807060	-0.148551
H50	H	-0.432127	-0.806972	-0.016028
H51	H	-0.567889	-0.837834	-0.082192
H52	H	-0.306289	-0.944972	-0.082305
H53	H	-0.442149	-0.975708	-0.148430
O54	O	-0.051616	-0.517446	-0.000280
C55	C	-0.177219	-0.614976	-0.082256
C56	C	-0.056909	-0.571295	-0.082205
H57	H	-0.181526	-0.658538	-0.148475
H58	H	-0.257551	-0.560342	-0.082319
H59	H	-0.181609	-0.658437	-0.015964
H60	H	-0.052400	-0.527841	-0.148486
H61	H	0.023366	-0.625974	-0.082092
H62	H	0.374096	-0.825994	-0.000070
O63	O	0.384195	-0.545643	-0.000208
C64	C	0.515254	-0.659685	-0.082215
C65	C	0.392354	-0.600252	-0.082210
H66	H	0.521902	-0.703837	-0.148517
H67	H	0.521889	-0.703953	-0.015993
H68	H	0.593001	-0.615209	-0.082165
H69	H	0.314536	-0.644659	-0.082294
H70	H	0.385825	-0.555977	-0.148427
H71	H	-0.435709	-1.209677	-0.000035
H72	H	0.369753	-0.656047	-0.000090
O73	O	-0.048953	-0.621627	0.000061
C74	C	-0.179956	-0.507537	0.082047
C75	C	-0.057016	-0.566920	0.081990
H76	H	-0.186504	-0.463278	0.148269
H77	H	-0.257760	-0.551964	0.082108
H78	H	-0.186583	-0.463361	0.015758
H79	H	-0.050270	-0.611105	0.148268
H80	H	0.020729	-0.522441	0.081879
O81	O	-0.056429	-0.332804	-0.000004
C82	C	-0.246132	-0.291883	0.082028
C83	C	-0.123167	-0.351235	0.082005
H84	H	-0.300113	-0.306750	0.148335
H85	H	-0.300260	-0.306789	0.015811
H86	H	-0.229013	-0.218116	0.081982
H87	H	-0.140175	-0.425021	0.082084
H88	H	-0.069078	-0.336253	0.148215
H89	H	0.362378	-0.367096	-0.000115
O90	O	0.005079	-1.177209	-0.444670
C91	C	-0.160598	-1.169597	-0.557228
C92	C	-0.069904	-1.117321	-0.502419
H93	H	-0.221228	-1.121203	-0.603946
H94	H	-0.219579	-1.203557	-0.504532
H95	H	-0.108062	-1.222753	-0.603833
H96	H	-0.122341	-1.064122	-0.455812
H97	H	-0.010924	-1.083424	-0.555165
O98	O	-0.044296	-0.806308	0.000081
C99	C	-0.232592	-0.822735	0.082073
C100	C	-0.112278	-0.779061	0.082010
H101	H	-0.287601	-0.800707	0.148294
H102	H	-0.211756	-0.898969	0.082138
H103	H	-0.287531	-0.800812	0.015783
H104	H	-0.057280	-0.800912	0.148288
H105	H	-0.133199	-0.702834	0.081895
H106	H	0.018151	-1.169857	-0.255994
H107	H	0.018130	-1.169908	-0.744161
H108	H	0.018151	-1.169894	-0.563371
H109	H	0.317148	-0.997295	-0.256041
O110	O	0.330140	-0.989991	-0.555479
C111	C	0.495916	-0.997613	-0.443009
C112	C	0.405263	-1.049899	-0.497852
H113	H	0.556694	-1.046029	-0.396420
H114	H	0.443470	-0.944497	-0.396300
H115	H	0.554754	-0.963604	-0.495768
H116	H	0.346403	-1.083964	-0.445162
H117	H	0.457783	-1.102965	-0.544576
O118	O	0.330122	-0.989801	-0.751899
C119	C	0.493626	-0.895497	-0.741408
C120	C	0.402978	-0.947846	-0.686627
H121	H	0.552571	-0.861578	-0.688660
H122	H	0.441175	-0.842320	-0.788046
H123	H	0.554298	-0.943899	-0.788083
H124	H	0.342283	-0.899513	-0.639900
H125	H	0.455504	-1.001034	-0.640049
