data_functionalizedCrystal
_audit_creation_method	'MofGen! by Chris Wilmer'
_symmetry_space_group_name_H-M	'P1'
_symmetry_Int_Tables_number	1
_symmetry_cell_setting	triclinic
loop_
_symmetry_equiv_pos_as_xyz
  x,y,z
_cell_length_a	23.196402
_cell_length_b	31.640172
_cell_length_c	23.196401
_cell_angle_alpha	89.980460
_cell_angle_beta	119.990204
_cell_angle_gamma	59.998806
loop_
_atom_site_label
_atom_site_type_symbol
_atom_site_fract_x
_atom_site_fract_y
_atom_site_fract_z
Zr1	Zr	0.630930	0.407179	0.075554
O2	O	0.751209	0.339673	0.167613
O3	O	0.510660	0.427872	0.047336
O4	O	0.630928	0.427849	0.167602
O5	O	0.630938	0.339715	-0.047525
O6	O	0.630917	0.497406	0.167589
O7	O	0.630941	0.339695	0.047347
O8	O	0.415779	0.497446	-0.047544
O9	O	0.846076	0.339674	0.167609
O10	O	0.560116	0.488608	0.035288
O11	O	0.560123	0.436714	-0.035504
O12	O	0.701724	0.436687	0.106093
O13	O	0.701731	0.384792	0.035301
Zr14	Zr	0.630907	0.518146	-0.075776
Zr15	Zr	0.630911	0.518114	0.075534
Zr16	Zr	0.630926	0.407210	-0.075756
Zr17	Zr	0.782232	0.407182	0.075547
Zr18	Zr	0.479604	0.518143	-0.075770
O19	O	0.751176	0.497453	-0.047559
O20	O	0.751182	0.497408	0.167584
O21	O	0.751203	0.339717	-0.047530
O22	O	0.510628	0.585652	-0.167835
O23	O	0.510633	0.585608	0.047308
O24	O	0.510655	0.427916	-0.167807
O25	O	0.630898	0.585610	0.047302
O26	O	0.630908	0.497476	-0.167824
O27	O	0.630920	0.427919	-0.167812
O28	O	0.630896	0.585630	-0.047569
O29	O	0.846061	0.427853	0.167593
O30	O	0.415775	0.497471	-0.167815
O31	O	0.415760	0.585650	-0.167831
O32	O	0.415763	0.585625	-0.047560
O33	O	0.846073	0.339699	0.047338
O34	O	0.846058	0.427878	0.047322
O35	O	0.560113	0.488638	-0.106316
O36	O	0.560106	0.540533	-0.035523
O37	O	0.701713	0.488611	0.035282
O38	O	0.701720	0.436716	-0.035510
C39	C	0.441662	0.462659	-0.000103
C40	C	0.377430	0.462657	-0.000100
C41	C	0.630942	0.323899	-0.000086
C42	C	0.630950	0.276804	-0.000077
C43	C	0.347256	0.489742	0.036855
C44	C	0.286895	0.489747	0.036849
C45	C	0.256722	0.462657	-0.000102
C46	C	0.286900	0.435571	-0.037066
C47	C	0.347254	0.435571	-0.037065
C48	C	0.194701	0.417269	0.005181
C49	C	0.134351	0.417268	0.005185
C50	C	0.070567	0.462658	-0.000109
C51	C	0.067147	0.508049	-0.005393
C52	C	0.127502	0.508049	-0.005392
C53	C	0.191278	0.462654	-0.000108
C54	C	-0.025058	0.489751	0.036842
C55	C	-0.085424	0.489757	0.036831
C56	C	-0.085412	0.435576	-0.037080
C57	C	-0.025053	0.435574	-0.037074
C58	C	0.005123	0.462661	-0.000109
C59	C	0.556993	0.011901	-0.037085
C60	C	0.556979	-0.165085	-0.037099
O61	O	0.494114	-0.164921	-0.068557
N62	N	0.630896	-0.214317	-0.000138
C63	C	0.704822	-0.219302	0.036824
O64	O	0.767693	-0.265238	0.068255
C65	C	0.704835	-0.042317	0.036834
C66	C	0.630913	0.006914	-0.000123
C67	C	0.483077	0.061130	-0.074040
C68	C	0.483081	0.105373	-0.074033
C69	C	0.557001	0.100387	-0.037071
C70	C	0.630917	0.051158	-0.000116
C71	C	0.778760	-0.047303	0.073792
C72	C	0.778757	-0.003052	0.073790
C73	C	0.704835	0.046180	0.036833
C74	C	0.704842	0.090415	0.036852
N75	N	0.630925	0.139647	-0.000108
C76	C	0.557005	0.144633	-0.037070
C77	C	0.704810	-0.312219	0.036818
C78	C	0.704807	-0.356465	0.036817
C79	C	0.556963	-0.302245	-0.037108
C80	C	0.556967	-0.257998	-0.037102
C81	C	0.630892	-0.262987	-0.000143
C82	C	0.557019	0.237545	-0.037052
C83	C	0.557030	0.281790	-0.037039
C84	C	0.704873	0.227566	0.036882
C85	C	0.704862	0.183325	0.036873
C86	C	0.630929	0.188318	-0.000099
O87	O	0.767674	0.090290	0.068288
O88	O	0.494143	0.190573	-0.068509
C89	C	0.556989	-0.032343	-0.037092
C90	C	0.630905	-0.081572	-0.000137
C91	C	0.704825	-0.086558	0.036824
C92	C	0.630901	-0.125818	-0.000139
C93	C	0.556981	-0.120832	-0.037100
C94	C	0.483064	-0.071600	-0.074061
C95	C	0.483068	-0.027357	-0.074054
C96	C	0.778742	-0.135791	0.073785
C97	C	0.778732	-0.180032	0.073776
C98	C	0.704811	-0.175046	0.036814
C99	C	0.820175	0.462666	-0.000119
C100	C	0.884406	0.462668	-0.000122
C101	C	0.630923	0.462623	0.189154
C102	C	0.630925	0.462610	0.253389
C103	C	0.630894	0.601426	-0.000136
C104	C	0.630886	0.648521	-0.000145
C105	C	0.704840	0.435509	0.320522
C106	C	0.704842	0.435520	0.380877
C107	C	0.630924	0.462625	0.374096
C108	C	0.556998	0.489732	0.306951
C109	C	0.556999	0.489724	0.246598
C110	C	0.574297	0.458773	0.441417
C111	C	0.574300	0.458777	0.501770
C112	C	0.630919	0.462652	0.560245
C113	C	0.687550	0.466512	0.558364
C114	C	0.687551	0.466505	0.498011
C115	C	0.630915	0.462637	0.439535
C116	C	0.704842	0.435562	0.692824
C117	C	0.704841	0.435577	0.753180
C118	C	0.556995	0.489785	0.679251
C119	C	0.556998	0.489774	0.618898
C120	C	0.630924	0.462659	0.625689
C121	C	0.630916	0.462694	0.810625
C122	C	0.630922	0.462683	0.746394
C123	C	0.441638	0.601422	-0.000128
C124	C	0.377398	0.648516	-0.000134
C125	C	0.441657	0.462698	-0.189368
C126	C	0.377424	0.462710	-0.253601
C127	C	0.441633	0.601461	-0.189394
C128	C	0.377392	0.648568	-0.253634
C129	C	0.820203	0.323864	0.189171
C130	C	0.884445	0.276756	0.253412
C131	C	0.820198	0.323903	-0.000094
C132	C	0.884438	0.276809	-0.000088
C133	C	0.820179	0.462627	0.189146
C134	C	0.884413	0.462615	0.253378
C135	C	0.347236	0.643527	0.036832
C136	C	0.286884	0.687773	0.036841
C137	C	0.256691	0.737006	-0.000121
C138	C	0.286860	0.741993	-0.037089
C139	C	0.347214	0.697748	-0.037093
C140	C	0.347253	0.489820	-0.320734
C141	C	0.286908	0.489829	-0.381092
C142	C	0.256729	0.462731	-0.374316
C143	C	0.286905	0.435618	-0.307176
C144	C	0.347254	0.435606	-0.246819
C145	C	0.347220	0.697784	-0.246850
C146	C	0.286866	0.742050	-0.307205
C147	C	0.256682	0.737100	-0.374344
C148	C	0.286860	0.687879	-0.381127
C149	C	0.347217	0.643614	-0.320773
C150	C	0.914624	0.227541	0.246627
C151	C	0.974996	0.183275	0.306982
C152	C	1.005184	0.188225	0.374122
C153	C	0.975002	0.237445	0.380905
C154	C	0.914635	0.281711	0.320551
C155	C	0.914607	0.281797	-0.037048
C156	C	0.974975	0.237552	-0.037040
C157	C	1.005170	0.188319	-0.000076
C158	C	0.974999	0.183332	0.036889
C159	C	0.914636	0.227577	0.036884
C160	C	0.914572	0.489718	0.246580
C161	C	0.974918	0.489716	0.306927
C162	C	1.005108	0.462609	0.374072
C163	C	0.974943	0.435505	0.380869
C164	C	0.914594	0.435510	0.320523
H165	H	0.371822	0.511799	0.066952
Br166	Br	0.174827	0.462753	-0.456238
H167	H	0.496815	0.241619	-0.067159
Br168	Br	0.139001	0.355665	0.012362
H169	H	0.262345	0.511909	-0.435755
H170	H	0.371822	0.413514	-0.067159
Br171	Br	0.873644	0.348608	-0.087218
H172	H	0.262329	0.683702	0.066944
H173	H	0.999593	0.143240	0.066984
H174	H	1.054322	0.152296	-0.000078
H175	H	0.207546	0.773028	-0.000113
H176	H	0.262329	0.413514	-0.067153
H177	H	0.262325	0.413556	-0.301670
Br178	Br	0.122860	0.569649	-0.012565
H179	H	0.838938	-0.139859	0.103885
H180	H	0.371787	0.701824	-0.192187
H181	H	0.262268	0.782084	-0.067182
Br182	Br	0.764402	0.471744	0.495458
Br183	Br	0.245921	0.808842	-0.297982
H184	H	0.371765	0.701817	-0.067199
H185	H	0.371818	0.603443	0.066940
H186	H	0.999472	0.511787	0.301378
H187	H	0.371811	0.413532	-0.192158
H188	H	-0.109996	0.511816	0.066922
Br189	Br	0.388154	0.576824	-0.329994
Br190	Br	0.281262	0.355663	0.012365
H191	H	0.207536	0.773148	-0.423483
Br192	Br	0.245887	0.681170	-0.472251
H193	H	0.999530	0.241623	-0.067144
Br194	Br	0.245925	0.526516	0.086997
Br195	Br	-0.019408	0.569654	-0.012572
Br196	Br	0.388192	0.526602	-0.329949
Br197	Br	0.873667	0.220809	0.155517
Br198	Br	1.015943	0.116483	0.297760
H199	H	0.528191	0.455630	0.503297
Br200	Br	0.382740	0.039453	-0.124212
H201	H	1.054338	0.152177	0.423261
H202	H	0.890063	0.321783	0.326083
Br203	Br	0.873697	0.220797	0.087046
H204	H	0.496774	-0.298192	-0.067199
Br205	Br	0.879064	-0.246844	0.123940
H206	H	0.999588	0.241470	0.435577
H207	H	-0.109978	0.413519	-0.067167
H208	H	0.890001	0.511792	0.191912
H209	H	1.054249	0.462609	0.423204
H210	H	-0.000490	0.511808	0.066938
H211	H	0.999533	0.413435	0.435547
H212	H	0.890045	0.413437	0.326068
H213	H	0.496831	0.321877	-0.067136
Br214	Br	0.382753	0.172183	-0.124196
Br215	Br	0.015901	0.398814	-0.087230
H216	H	0.765057	0.223515	0.066978
H217	H	0.496773	-0.217914	-0.067202
Br218	Br	0.805147	-0.319000	0.086983
Br219	Br	0.805133	-0.423276	0.086988
H220	H	0.838955	-0.087383	0.103886
Br221	Br	0.879090	-0.009827	0.123949
H222	H	0.422879	0.065199	-0.104142
Br223	Br	0.805186	0.116509	0.087046
H224	H	0.422876	-0.067547	-0.104152
H225	H	0.765035	0.413450	0.435547
Br226	Br	0.805168	0.398697	0.329741
Br227	Br	0.805167	0.398777	0.702036
H228	H	0.496809	0.511855	0.673728
Br229	Br	0.764399	0.471770	0.637718
Br230	Br	0.805164	0.398798	0.844294
H231	H	0.496808	0.511840	0.564234
H232	H	0.528191	0.455613	0.393809
H233	H	0.496806	0.511794	0.191933
Br234	Br	0.456680	0.526521	0.297745
