data_functionalizedCrystal
_audit_creation_method	'MofGen! by Chris Wilmer'
_symmetry_space_group_name_H-M	'P1'
_symmetry_Int_Tables_number	1
_symmetry_cell_setting	triclinic
loop_
_symmetry_equiv_pos_as_xyz
  x,y,z
_cell_length_a	9.065218
_cell_length_b	10.489741
_cell_length_c	7.540329
_cell_angle_alpha	89.996684
_cell_angle_beta	89.996962
_cell_angle_gamma	84.777530
loop_
_atom_site_label
_atom_site_type_symbol
_atom_site_fract_x
_atom_site_fract_y
_atom_site_fract_z
O1	O	1.959495	0.187043	-0.147486
O2	O	2.459495	0.687043	0.352514
O3	O	1.530136	0.202385	-0.147489
O4	O	2.030136	0.702385	0.352511
O5	O	1.754585	0.009151	-0.147477
O6	O	2.254585	0.509151	0.352523
O7	O	1.735045	0.380277	-0.147498
O8	O	2.235045	0.880277	0.352502
O9	O	1.754572	0.009149	0.147488
O10	O	2.254572	0.509149	0.647488
O11	O	1.530122	0.202382	0.147477
O12	O	2.030122	0.702382	0.647477
O13	O	1.959481	0.187040	0.147479
O14	O	2.459481	0.687040	0.647479
Cu15	Cu	1.744800	0.194711	0.174410
Cu16	Cu	2.244800	0.694711	0.674410
Cu17	Cu	1.744816	0.194714	-0.174420
Cu18	Cu	2.244816	0.694714	0.325580
O19	O	1.735032	0.380274	0.147467
O20	O	2.235032	0.880274	0.647467
C21	C	1.475149	0.200909	-0.000006
C22	C	1.975149	0.700909	0.499994
C23	C	1.311328	0.196501	-0.000007
C24	C	1.811328	0.696501	0.499993
C25	C	1.753102	-0.038387	0.000005
C26	C	2.253102	0.461613	0.500005
C27	C	1.748687	-0.180032	0.000002
C28	C	2.248687	0.319968	0.500002
C29	C	1.605877	-0.248688	-0.000012
C30	C	2.105877	0.251312	0.499988
C31	C	1.673332	-0.340568	0.145421
C32	C	2.173332	0.159432	0.645421
C33	C	1.673379	-0.340540	-0.145391
C34	C	2.173379	0.159460	0.354609
C35	C	1.816202	-0.270047	0.145555
C36	C	2.316202	0.229953	0.645555
C37	C	1.816229	-0.270009	-0.145388
C38	C	2.316229	0.229991	0.354612
C39	C	1.883788	-0.361862	0.000081
C40	C	2.383788	0.138138	0.500081
C41	C	2.014467	0.188516	-0.000007
C42	C	2.514467	0.688516	0.499993
C43	C	2.178289	0.192925	-0.000018
C44	C	2.678289	0.692925	0.499982
C45	C	1.736514	0.427812	-0.000018
C46	C	2.236514	0.927812	0.499982
C47	C	1.740930	0.569458	-0.000027
C48	C	2.240930	1.069458	0.499973
N49	N	1.744800	0.194708	0.419759
N50	N	2.244800	0.694708	0.919759
N51	N	1.744828	0.194707	-0.419768
N52	N	2.244828	0.694707	0.080232
H53	H	1.488459	-0.199461	0.000134
H54	H	1.988459	0.300539	0.500134
H55	H	1.612900	-0.371799	0.268374
H56	H	2.112900	0.128201	0.768374
H57	H	2.001312	-0.410861	0.000162
H58	H	2.501312	0.089139	0.500162
H59	H	1.876570	-0.238998	0.268646
H60	H	2.376570	0.261002	0.768646
H61	H	1.876610	-0.238746	-0.268347
H62	H	2.376610	0.261254	0.231653
H63	H	1.612941	-0.371721	-0.268355
H64	H	2.112941	0.128279	0.231645
