data_functionalizedCrystal
_audit_creation_method	'MofGen! by Chris Wilmer'
_symmetry_space_group_name_H-M	'P1'
_symmetry_Int_Tables_number	1
_symmetry_cell_setting	triclinic
loop_
_symmetry_equiv_pos_as_xyz
  x,y,z
_cell_length_a	16.625546
_cell_length_b	12.759401
_cell_length_c	12.759393
_cell_angle_alpha	89.981504
_cell_angle_beta	90.036194
_cell_angle_gamma	89.977371
loop_
_atom_site_label
_atom_site_type_symbol
_atom_site_fract_x
_atom_site_fract_y
_atom_site_fract_z
Zn1	Zn	-0.320951	-1.606199	0.593948
Zn2	Zn	-0.455807	-1.606069	0.418253
Zn3	Zn	-0.320993	-1.430501	0.418287
Zn4	Zn	-0.455745	-1.430465	0.593895
O5	O	-0.388374	-1.518308	0.506096
O6	O	-0.338848	-1.753203	0.570649
O7	O	-0.437968	-1.582740	0.271237
O8	O	-0.208155	-1.453876	0.441625
O9	O	-0.437927	-1.753107	0.441568
O10	O	-0.208124	-1.582961	0.570682
O11	O	-0.338920	-1.453751	0.271261
O12	O	-0.338860	-1.283475	0.441574
O13	O	-0.437821	-1.453816	0.740923
O14	O	-0.437862	-1.283449	0.570592
O15	O	-0.338788	-1.582927	0.740962
O16	O	-0.568632	-1.582706	0.441517
O17	O	-0.568586	-1.453691	0.570560
C18	C	-0.388359	-1.245341	0.506081
C19	C	-0.388372	-1.128564	0.506100
C20	C	-0.597865	-1.518209	0.506052
C21	C	-0.687486	-1.518263	0.506068
C22	C	-0.388293	-1.518382	0.780129
C23	C	-0.388258	-1.518413	0.896906
C24	C	-1.015662	-1.518446	0.506177
C25	C	-0.924353	-1.518392	0.506150
C26	C	-0.851577	-1.518353	0.506122
C27	C	-0.760262	-1.518301	0.506096
C28	C	-0.178065	-1.518437	0.506163
C29	C	-0.088444	-1.518492	0.506191
C30	C	-0.388390	-1.792342	0.506111
C31	C	-0.388396	-1.909118	0.506117
C32	C	-0.440005	-1.073717	0.573169
C33	C	-0.440015	-0.963992	0.573180
C34	C	-0.336758	-0.963974	0.439045
C35	C	-0.336744	-1.073696	0.439040
C36	C	-0.499623	-1.073726	0.650608
C37	C	-0.499633	-0.964002	0.650619
C38	C	-0.388397	-1.518296	0.233128
C39	C	-0.388204	-1.518468	0.116352
C40	C	-0.336687	-1.585650	0.951790
C41	C	-0.336657	-1.585675	1.061514
C42	C	-0.439778	-1.451223	1.061461
C43	C	-0.439803	-1.451194	0.951739
C44	C	-0.277153	-1.663279	0.951821
C45	C	-0.277124	-1.663304	1.061546
H46	H	-0.294694	-1.118349	0.384433
H47	H	-0.214709	-1.641521	0.922072
C48	C	-0.632235	-1.037885	0.585117
C49	C	-0.579658	-1.119641	0.611075
H50	H	-0.681646	-1.066234	0.560716
H51	H	-0.608854	-0.995979	0.531680
H52	H	-0.641872	-0.996006	0.645360
H53	H	-0.570016	-1.161516	0.550830
H54	H	-0.603044	-1.161564	0.664517
H55	H	-0.477343	-0.930008	0.727974
H56	H	-0.562065	-0.934196	0.628680
C57	C	-0.246854	-1.812411	0.844114
C58	C	-0.307365	-1.767584	0.905854
H59	H	-0.265511	-1.876800	0.815730
H60	H	-0.200611	-1.824942	0.886042
H61	H	-0.233411	-1.765895	0.788686
H62	H	-0.320803	-1.814096	0.961286
H63	H	-0.353622	-1.755057	0.863923
H64	H	-0.482970	-1.103537	0.732016
C65	C	-0.211151	-1.535196	1.169261
C66	C	-0.197030	-1.624016	1.107520
H67	H	-0.161705	-1.510934	1.197636
H68	H	-0.246812	-1.552724	1.224685
H69	H	-0.234500	-1.481688	1.127327
H70	H	-0.173686	-1.677528	1.149455
H71	H	-0.161355	-1.606492	1.052088
H72	H	-0.294723	-0.919287	0.384448
C73	C	-0.541712	-1.318276	0.962712
C74	C	-0.496479	-1.377268	0.891409
H75	H	-0.576703	-1.272638	0.925465
H76	H	-0.506563	-1.278140	1.005524
H77	H	-0.572558	-1.364047	1.005493
H78	H	-0.465628	-1.331498	0.848633
H79	H	-0.531632	-1.417408	0.848579
H80	H	-0.481742	-1.396493	1.106119
C81	C	-0.376421	-1.799851	1.065166
C82	C	-0.299706	-1.773136	1.101764
H83	H	-0.390362	-1.867650	1.090005
H84	H	-0.376439	-1.799842	0.990726
H85	H	-0.414492	-1.750186	1.089965
H86	H	-0.261634	-1.822797	1.076959
H87	H	-0.299683	-1.773153	1.176221
