data_functionalizedCrystal
_audit_creation_method	'MofGen! by Chris Wilmer'
_symmetry_space_group_name_H-M	'P1'
_symmetry_Int_Tables_number	1
_symmetry_cell_setting	triclinic
loop_
_symmetry_equiv_pos_as_xyz
  x,y,z
_cell_length_a	12.594516
_cell_length_b	14.908780
_cell_length_c	14.908308
_cell_angle_alpha	90.212689
_cell_angle_beta	93.271498
_cell_angle_gamma	86.694491
loop_
_atom_site_label
_atom_site_type_symbol
_atom_site_fract_x
_atom_site_fract_y
_atom_site_fract_z
Zn1	Zn	-0.372328	-1.345335	-0.587893
Zn2	Zn	-0.539514	-1.353926	-0.437546
Zn3	Zn	-0.371171	-1.203648	-0.428861
Zn4	Zn	-0.559890	-1.194953	-0.579165
O5	O	-0.460726	-1.274465	-0.508366
O6	O	-0.386463	-1.472302	-0.575237
O7	O	-0.508172	-1.341225	-0.310570
O8	O	-0.222377	-1.222487	-0.449975
O9	O	-0.509294	-1.478613	-0.464778
O10	O	-0.223227	-1.326584	-0.566815
O11	O	-0.384491	-1.230817	-0.304189
O12	O	-0.404248	-1.076668	-0.441511
O13	O	-0.544021	-1.207667	-0.706147
O14	O	-0.542899	-1.070279	-0.551939
O15	O	-0.406220	-1.318152	-0.712559
O16	O	-0.691165	-1.332794	-0.456314
O17	O	-0.706135	-1.215997	-0.560361
C18	C	-0.475660	-1.040848	-0.494836
C19	C	-0.482076	-0.940904	-0.489069
C20	C	-0.366427	-0.746515	-0.593430
C21	C	-0.372451	-0.652608	-0.588014
C22	C	-0.500144	-0.659184	-0.472819
C23	C	-0.494119	-0.753090	-0.478234
C24	C	-0.427259	-0.796752	-0.538543
C25	C	-0.421241	-0.890660	-0.543962
C26	C	-0.548927	-0.897233	-0.428763
C27	C	-0.554951	-0.803327	-0.423347
C28	C	-0.737270	-1.274407	-0.508354
C29	C	-0.855574	-1.274463	-0.508384
C30	C	-0.933005	-1.210933	-0.564932
C31	C	-0.999363	-1.193764	-0.481621
C32	C	-1.000011	-1.291714	-0.591713
C33	C	-0.920373	-1.257252	-0.425027
C34	C	-0.921016	-1.355237	-0.535177
C35	C	-0.987336	-1.338101	-0.451811
C36	C	-0.183102	-1.274547	-0.508400
C37	C	-0.064795	-1.274582	-0.508414
C38	C	-0.477522	-1.260981	-0.742890
C39	C	-0.484680	-1.255235	-0.842830
C40	C	-0.445725	-0.508996	-0.521943
C41	C	-0.439309	-0.608939	-0.527712
C42	C	-0.354614	-1.359483	-1.037306
C43	C	-0.361335	-1.354087	-1.131209
C44	C	-0.504839	-1.239042	-1.124539
C45	C	-0.498117	-1.244439	-1.030636
C46	C	-0.423003	-1.304662	-0.987024
C47	C	-0.416288	-1.310062	-0.893119
C48	C	-0.559785	-1.195014	-0.886451
C49	C	-0.566507	-1.189617	-0.980354
C50	C	-0.443915	-1.287949	-0.274758
C51	C	-0.436446	-1.293869	-0.174829
H52	H	-0.908879	-1.157122	-0.612674
H53	H	-0.293458	-1.408524	-1.001796
N54	N	-0.647498	-1.124658	-1.027410
H55	H	-0.697271	-1.158942	-1.068488
H56	H	-0.689731	-1.090754	-0.981257
N57	N	-0.335281	-1.375017	-0.846076
H58	H	-0.292975	-1.408925	-0.892183
H59	H	-0.285578	-1.340667	-0.804999
H60	H	-0.598470	-0.938147	-0.384077
N61	N	-1.044799	-1.103359	-0.451606
H62	H	-1.014659	-1.089884	-0.389091
H63	H	-1.025266	-1.055418	-0.494402
N64	N	-0.287580	-1.413224	-1.185442
H65	H	-0.303233	-1.400670	-1.251547
H66	H	-0.211283	-1.400192	-1.168226
N67	N	-0.349139	-0.937753	-0.609013
H68	H	-0.354557	-1.004866	-0.604123
H69	H	-0.371479	-0.917653	-0.672256
H70	H	-0.885671	-1.242630	-0.354544
H71	H	-0.565992	-1.190011	-1.160065
N72	N	-1.019030	-1.409343	-0.388415
H73	H	-0.989807	-1.396240	-0.325530
H74	H	-1.099271	-1.409319	-0.389236
H75	H	-0.886707	-1.423473	-0.557854
N76	N	-0.294341	-0.793611	-0.658491
H77	H	-0.299763	-0.860723	-0.653599
H78	H	-0.316700	-0.773509	-0.721730
N79	N	-1.046164	-1.310981	-0.685038
H80	H	-1.026627	-1.262905	-0.727686
H81	H	-1.016503	-1.371499	-0.705629
N82	N	-0.627051	-0.756224	-0.358302
H83	H	-0.681549	-0.715164	-0.392528
H84	H	-0.664604	-0.802353	-0.324366
N85	N	-0.633561	-1.135869	-0.832234
H86	H	-0.677769	-1.174630	-0.795385
H87	H	-0.590118	-1.096453	-0.790918
N88	N	-0.306829	-0.598431	-0.647212
H89	H	-0.327020	-0.611095	-0.712377
H90	H	-0.320809	-0.532335	-0.634559
N91	N	-0.572230	-0.612084	-0.407761
H92	H	-0.566806	-0.544973	-0.412656
H93	H	-0.648220	-0.627681	-0.422586
