data_functionalizedCrystal
_audit_creation_method	'MofGen! by Chris Wilmer'
_symmetry_space_group_name_H-M	'P1'
_symmetry_Int_Tables_number	1
_symmetry_cell_setting	triclinic
loop_
_symmetry_equiv_pos_as_xyz
  x,y,z
_cell_length_a	19.121102
_cell_length_b	29.839131
_cell_length_c	19.120904
_cell_angle_alpha	92.409150
_cell_angle_beta	90.088173
_cell_angle_gamma	87.595578
loop_
_atom_site_label
_atom_site_type_symbol
_atom_site_fract_x
_atom_site_fract_y
_atom_site_fract_z
Zn1	Zn	1.054749	-0.219753	-0.442036
Zn2	Zn	1.388082	0.113580	-0.108703
Zn3	Zn	1.721415	0.446913	0.224630
Zn4	Zn	1.059636	-0.291816	-0.324791
Zn5	Zn	1.392970	0.041518	0.008542
Zn6	Zn	1.726303	0.374851	0.341875
Zn7	Zn	0.942520	-0.213364	-0.319821
Zn8	Zn	1.275854	0.119970	0.013512
Zn9	Zn	1.609187	0.453303	0.346846
Zn10	Zn	0.937448	-0.291514	-0.436994
Zn11	Zn	1.270781	0.041820	-0.103660
Zn12	Zn	1.604115	0.375153	0.229673
O13	O	0.998588	-0.254112	-0.380911
O14	O	1.331922	0.079222	-0.047577
O15	O	1.665255	0.412555	0.285756
O16	O	1.153501	-0.232113	-0.430674
O17	O	1.486835	0.101220	-0.097341
O18	O	1.820168	0.434553	0.235993
O19	O	1.048269	-0.278861	-0.226027
O20	O	1.381602	0.054472	0.107306
O21	O	1.714936	0.387806	0.440639
O22	O	0.957485	-0.151347	-0.336063
O23	O	1.290818	0.181986	-0.002730
O24	O	1.624152	0.515320	0.330603
O25	O	1.157092	-0.285057	-0.344535
O26	O	1.490426	0.048276	-0.011201
O27	O	1.823759	0.381610	0.322132
O28	O	1.039939	-0.156042	-0.425855
O29	O	1.373272	0.177292	-0.092521
O30	O	1.706605	0.510625	0.240812
O31	O	0.962224	-0.221223	-0.222376
O32	O	1.295558	0.112111	0.110958
O33	O	1.628891	0.445444	0.444291
O34	O	0.843743	-0.220930	-0.331174
O35	O	1.177077	0.112403	0.002160
O36	O	1.510410	0.445737	0.335493
O37	O	0.948840	-0.284542	-0.535767
O38	O	1.282173	0.048791	-0.202434
O39	O	1.615506	0.382124	0.130899
O40	O	0.840017	-0.278346	-0.417260
O41	O	1.173350	0.054987	-0.083927
O42	O	1.506683	0.388320	0.249407
O43	O	1.035020	-0.231820	-0.539472
O44	O	1.368353	0.101513	-0.206139
O45	O	1.701687	0.434846	0.127195
O46	O	1.043351	-0.354640	-0.339645
O47	O	1.376684	-0.021306	-0.006312
O48	O	1.710017	0.312027	0.327022
O49	O	0.953579	-0.354418	-0.422080
O50	O	1.286913	-0.021084	-0.088746
O51	O	1.620246	0.312249	0.244587
C52	C	0.816443	-0.248912	-0.373131
C53	C	1.149776	0.084421	-0.039797
C54	C	1.483109	0.417754	0.293536
C55	C	0.738519	-0.246699	-0.369819
C56	C	1.071853	0.086634	-0.036486
C57	C	1.405186	0.419967	0.296848
C58	C	0.699992	-0.275595	-0.413013
C59	C	1.033325	0.057739	-0.079680
C60	C	1.366658	0.391072	0.253653
C61	C	0.626774	-0.273510	-0.409905
C62	C	0.960108	0.059824	-0.076572
C63	C	1.293441	0.393157	0.256762
C64	C	0.592086	-0.242531	-0.363599
C65	C	0.925419	0.090803	-0.030265
C66	C	1.258752	0.424136	0.303068
C67	C	0.630619	-0.213632	-0.320403
C68	C	0.963952	0.119701	0.012931
C69	C	1.297285	0.453034	0.346264
C70	C	0.703835	-0.215716	-0.323515
C71	C	1.037168	0.117618	0.009818
C72	C	1.370501	0.450951	0.343152
C73	C	0.371117	-0.234741	-0.351966
C74	C	0.704450	0.098593	-0.018633
C75	C	1.037783	0.431926	0.314701
C76	C	0.297896	-0.232660	-0.348855
C77	C	0.631229	0.100673	-0.015522
C78	C	0.964562	0.434006	0.317811
C79	C	0.294056	-0.292537	-0.438359
C80	C	0.627390	0.040796	-0.105026
C81	C	0.960723	0.374129	0.228307
C82	C	0.367274	-0.294620	-0.441464
C83	C	0.700607	0.038713	-0.108131
C84	C	1.033941	0.372047	0.225202
C85	C	0.405800	-0.265720	-0.398271
C86	C	0.739133	0.067614	-0.064938
C87	C	1.072467	0.400947	0.268396
C88	C	0.517246	-0.240400	-0.360419
C89	C	0.850579	0.092934	-0.027085
C90	C	1.183913	0.426267	0.306248
C91	C	0.480639	-0.267849	-0.401455
C92	C	0.813972	0.065484	-0.068122
C93	C	1.147305	0.398818	0.265212
C94	C	0.998463	-0.370830	-0.380870
C95	C	1.331797	-0.037496	-0.047537
C96	C	1.665130	0.295837	0.285796
C97	C	0.998473	-0.420765	-0.380879
C98	C	1.331806	-0.087431	-0.047546
C99	C	1.665140	0.245902	0.285787
C100	C	1.045411	-0.730519	-0.338056
C101	C	1.378744	-0.397185	-0.004723
C102	C	1.712078	-0.063852	0.328611
C103	C	1.045496	-0.918195	-0.338087
C104	C	1.378830	-0.584862	-0.004753
C105	C	1.712163	-0.251528	0.328580
O106	O	1.085306	-0.942551	-0.301646
O107	O	1.418639	-0.609217	0.031688
O108	O	1.751972	-0.275884	0.365021
N109	N	0.998731	-0.941559	-0.380970
N110	N	1.332065	-0.608226	-0.047636
N111	N	1.665398	-0.274892	0.285697
C112	C	0.951945	-0.918001	-0.423851
C113	C	1.285278	-0.584668	-0.090518
C114	C	1.618612	-0.251335	0.242815
O115	O	0.912175	-0.942181	-0.460332
O116	O	1.245509	-0.608847	-0.126998
O117	O	1.578842	-0.275514	0.206335
C118	C	0.951864	-0.730326	-0.423824
C119	C	1.285197	-0.396993	-0.090490
C120	C	1.618530	-0.063660	0.242843
C121	C	0.998627	-0.706964	-0.380933
C122	C	1.331960	-0.373631	-0.047599
C123	C	1.665293	-0.040298	0.285734
C124	C	1.092171	-0.707157	-0.295169
C125	C	1.425504	-0.373824	0.038164
C126	C	1.758838	-0.040490	0.371498
C127	C	1.092146	-0.660241	-0.295159
C128	C	1.425480	-0.326907	0.038174
C129	C	1.758813	0.006426	0.371508
C130	C	1.045362	-0.636686	-0.338036
C131	C	1.378696	-0.303353	-0.004702
C132	C	1.712029	0.029981	0.328631
C133	C	0.998602	-0.660048	-0.380923
C134	C	1.331936	-0.326715	-0.047589
C135	C	1.665269	0.006619	0.285744
C136	C	0.905081	-0.706770	-0.466708
C137	C	1.238414	-0.373436	-0.133375
C138	C	1.571748	-0.040103	0.199958
C139	C	0.905066	-0.659848	-0.466699
C140	C	1.238399	-0.326515	-0.133366
C141	C	1.571733	0.006819	0.199968
C142	C	0.951829	-0.636486	-0.423808
C143	C	1.285163	-0.303153	-0.090475
C144	C	1.618496	0.030181	0.242859
C145	C	0.951794	-0.589577	-0.423789
C146	C	1.285127	-0.256244	-0.090456
C147	C	1.618460	0.077090	0.242877
N148	N	0.998559	-0.566213	-0.380906
N149	N	1.331892	-0.232880	-0.047573
N150	N	1.665225	0.100454	0.285760
C151	C	1.045343	-0.589768	-0.338030
C152	C	1.378676	-0.256434	-0.004696
C153	C	1.712009	0.076899	0.328637
C154	C	0.951990	-1.016534	-0.423862
C155	C	1.285323	-0.683200	-0.090528
C156	C	1.618657	-0.349867	0.242805
C157	C	0.952010	-1.063452	-0.423868
C158	C	1.285343	-0.730119	-0.090535
C159	C	1.618676	-0.396785	0.242799
C160	C	1.045562	-1.063642	-0.338104
C161	C	1.378895	-0.730309	-0.004771
C162	C	1.712229	-0.396976	0.328562
C163	C	1.045539	-1.016723	-0.338095
C164	C	1.378872	-0.683390	-0.004762
C165	C	1.712205	-0.350056	0.328572
C166	C	0.998755	-0.993169	-0.380979
C167	C	1.332088	-0.659836	-0.047646
C168	C	1.665422	-0.326503	0.285688
C169	C	1.045288	-0.491240	-0.338011
C170	C	1.378621	-0.157906	-0.004678
C171	C	1.711954	0.175427	0.328656
C172	C	1.045257	-0.444319	-0.338003
C173	C	1.378590	-0.110986	-0.004669
C174	C	1.711924	0.222348	0.328664
C175	C	0.951708	-0.444133	-0.423769
C176	C	1.285041	-0.110799	-0.090435
C177	C	1.618374	0.222534	0.242898
C178	C	0.951735	-0.491049	-0.423775
C179	C	1.285069	-0.157716	-0.090441
C180	C	1.618402	0.175617	0.242892
C181	C	0.998531	-0.514602	-0.380894
C182	C	1.331864	-0.181268	-0.047561
C183	C	1.665198	0.152065	0.285773
O184	O	0.912011	-0.565193	-0.460217
O185	O	1.245344	-0.231860	-0.126884
O186	O	1.578677	0.101474	0.206450
O187	O	1.085117	-0.565581	-0.301566
O188	O	1.418450	-0.232248	0.031767
O189	O	1.751784	0.101086	0.365101
C190	C	1.045435	-0.777435	-0.338066
C191	C	1.378769	-0.444102	-0.004733
C192	C	1.712102	-0.110769	0.328601
C193	C	0.998676	-0.800797	-0.380953
C194	C	1.332009	-0.467464	-0.047620
C195	C	1.665342	-0.134130	0.285714
C196	C	0.951891	-0.777243	-0.423830
C197	C	1.285225	-0.443909	-0.090496
C198	C	1.618558	-0.110576	0.242837
C199	C	0.998695	-0.847716	-0.380959
C200	C	1.332028	-0.514382	-0.047626
C201	C	1.665362	-0.181049	0.285708
C202	C	1.045479	-0.871270	-0.338082
C203	C	1.378812	-0.537937	-0.004749
C204	C	1.712146	-0.204603	0.328584
C205	C	1.092244	-0.847906	-0.295199
C206	C	1.425577	-0.514573	0.038134
C207	C	1.758911	-0.181239	0.371467
C208	C	1.092220	-0.800990	-0.295189
C209	C	1.425553	-0.467656	0.038144
C210	C	1.758886	-0.134323	0.371477
C211	C	0.905126	-0.800607	-0.466712
C212	C	1.238460	-0.467273	-0.133379
C213	C	1.571793	-0.133940	0.199954
C214	C	0.905154	-0.847523	-0.466718
C215	C	1.238487	-0.514190	-0.133385
C216	C	1.571821	-0.180856	0.199948
C217	C	0.951938	-0.871078	-0.423842
C218	C	1.285272	-0.537744	-0.090508
C219	C	1.618605	-0.204411	0.242825
C220	C	1.181445	-0.259331	-0.388721
C221	C	1.514779	0.074002	-0.055388
C222	C	1.848112	0.407335	0.277945
C223	C	1.259368	-0.261556	-0.392050
C224	C	1.592701	0.071777	-0.058716
C225	C	1.926035	0.405111	0.274617
C226	C	0.990819	-0.258860	-0.563768
C227	C	1.324152	0.074473	-0.230435
C228	C	1.657486	0.407806	0.102898
C229	C	0.987508	-0.260884	-0.641691
C230	C	1.320841	0.072449	-0.308358
C231	C	1.654175	0.405783	0.024975
C232	C	0.998732	-0.136939	-0.380967
C233	C	1.332066	0.196395	-0.047634
C234	C	1.665399	0.529728	0.285700
C235	C	0.998794	-0.087007	-0.380991
C236	C	1.332127	0.246327	-0.047658
C237	C	1.665460	0.579660	0.285676
C238	C	1.030820	-0.234387	-0.680230
C239	C	1.364153	0.098947	-0.346896
C240	C	1.697486	0.432280	-0.013563
C241	C	1.027700	-0.236286	-0.753446
C242	C	1.361034	0.097047	-0.420113
C243	C	1.694367	0.430381	-0.086780
C244	C	0.981272	-0.264686	-0.788123
C245	C	1.314606	0.068648	-0.454790
C246	C	1.647939	0.401981	-0.121457
C247	C	0.937956	-0.291184	-0.749580
C248	C	1.271289	0.042149	-0.416246
C249	C	1.604622	0.375483	-0.082913
C250	C	0.941072	-0.289282	-0.676364
C251	C	1.274405	0.044051	-0.343031
C252	C	1.607739	0.377385	-0.009698
C253	C	0.969615	-0.271800	-1.009090
C254	C	1.302948	0.061533	-0.675757
C255	C	1.636281	0.394867	-0.342423
C256	C	0.966503	-0.273701	-1.082311
C257	C	1.299836	0.059632	-0.748977
C258	C	1.633170	0.392966	-0.415644
C259	C	1.056247	-0.218802	-1.086172
C260	C	1.389580	0.114531	-0.752839
C261	C	1.722914	0.447865	-0.419506
C262	C	1.059362	-0.216905	-1.012955
C263	C	1.392696	0.116429	-0.679622
C264	C	1.726029	0.449762	-0.346289
C265	C	1.016043	-0.243401	-0.974418
C266	C	1.349377	0.089932	-0.641085
C267	C	1.682710	0.423265	-0.307751
C268	C	0.978084	-0.266629	-0.862963
C269	C	1.311417	0.066704	-0.529629
C270	C	1.644751	0.400038	-0.196296
C271	C	1.019228	-0.241455	-0.899580
C272	C	1.352562	0.091878	-0.566247
C273	C	1.685895	0.425211	-0.232913
C274	C	1.006368	-0.249350	-0.198766
C275	C	1.339701	0.083983	0.134567
C276	C	1.673035	0.417317	0.467901
C277	C	1.009815	-0.247204	-0.120849
C278	C	1.343148	0.086130	0.212484
C279	C	1.676481	0.419463	0.545817
H280	H	0.262680	-0.316066	-0.473526
H281	H	0.596014	0.017268	-0.140192
H282	H	0.929347	0.350601	0.193141
H283	H	0.913892	-0.997359	-0.458784
H284	H	1.247225	-0.664026	-0.125451
H285	H	1.580558	-0.330693	0.207883
H286	H	0.488994	-0.215177	-0.322714
H287	H	0.822328	0.118156	0.010619
H288	H	1.155661	0.451489	0.343952
C289	C	0.259740	-0.198579	-0.297913
C290	C	0.593073	0.134754	0.035420
C291	C	0.926407	0.468087	0.368753
N292	N	0.231001	-0.172911	-0.259545
N293	N	0.564334	0.160422	0.073788
N294	N	0.897668	0.493755	0.407122
H295	H	0.508885	-0.293070	-0.439160
H296	H	0.842218	0.040263	-0.105827
H297	H	1.175552	0.373597	0.227506
C298	C	0.584398	-0.305305	-0.457409
C299	C	0.917731	0.028028	-0.124076
C300	C	1.251064	0.361361	0.209258
N301	N	0.552480	-0.329258	-0.493187
N302	N	0.885814	0.004075	-0.159854
N303	N	1.219147	0.337409	0.173480
C304	C	1.103886	-0.189652	-1.128569
C305	C	1.437219	0.143681	-0.795236
C306	C	1.770553	0.477015	-0.461902
N307	N	1.139766	-0.167692	-1.160502
N308	N	1.473099	0.165641	-0.827169
N309	N	1.806433	0.498974	-0.493835
C310	C	1.143585	-0.634548	-0.247969
C311	C	1.476918	-0.301215	0.085364
C312	C	1.810251	0.032118	0.418697
N313	N	1.182329	-0.615200	-0.212421
N314	N	1.515662	-0.281866	0.120912
N315	N	1.848996	0.051467	0.454245
H316	H	1.130272	-0.726330	-0.260254
H317	H	1.463605	-0.392997	0.073080
H318	H	1.796939	-0.059663	0.406413
H319	H	0.395512	-0.319847	-0.479171
H320	H	0.728845	0.013486	-0.145837
H321	H	1.062179	0.346820	0.187496
H322	H	0.735203	-0.192183	-0.288345
H323	H	1.068536	0.141150	0.044988
H324	H	1.401869	0.474483	0.378322
C325	C	0.900560	-1.089144	-0.471044
C326	C	1.233893	-0.755811	-0.137711
C327	C	1.567227	-0.422478	0.195623
N328	N	0.861809	-1.108495	-0.506582
N329	N	1.195142	-0.775161	-0.173249
N330	N	1.528476	-0.441828	0.160084
C331	C	1.096983	-0.991029	-0.290914
C332	C	1.430317	-0.657696	0.042419
C333	C	1.763650	-0.324363	0.375752
N334	N	1.135735	-0.971679	-0.255377
N335	N	1.469068	-0.638346	0.077956
N336	N	1.802401	-0.305013	0.411290
H337	H	0.940285	-0.289754	-0.891205
H338	H	1.273619	0.043579	-0.557872
H339	H	1.606952	0.376913	-0.224538
H340	H	0.866970	-0.640673	-0.501623
H341	H	1.200303	-0.307340	-0.168289
H342	H	1.533636	0.025994	0.165044
C343	C	1.096699	-0.418624	-0.290814
C344	C	1.430032	-0.085290	0.042519
C345	C	1.763366	0.248043	0.375853
N346	N	1.135444	-0.399271	-0.255272
N347	N	1.468777	-0.065938	0.078062
N348	N	1.802111	0.267395	0.411395
H349	H	0.928693	-0.296828	-1.110543
H350	H	1.262027	0.036505	-0.777209
H351	H	1.595360	0.369838	-0.443876
H352	H	1.083395	-0.510411	-0.303095
H353	H	1.416728	-0.177077	0.030238
H354	H	1.750061	0.156256	0.363572
H355	H	0.402476	-0.211211	-0.316789
H356	H	0.735810	0.122122	0.016544
H357	H	1.069143	0.455455	0.349877
C358	C	1.097029	-1.089561	-0.290943
C359	C	1.430362	-0.756228	0.042390
C360	C	1.763695	-0.422895	0.375723
N361	N	1.135795	-1.109086	-0.255428
N362	N	1.469129	-0.775752	0.077905
N363	N	1.802462	-0.442419	0.411238
C364	C	0.592459	-0.179554	-0.269466
C365	C	0.925792	0.153779	0.063867
C366	C	1.259125	0.487113	0.397200
N367	N	0.563717	-0.153887	-0.231099
N368	N	0.897051	0.179447	0.102235
N369	N	1.230384	0.512780	0.435568
H370	H	0.866998	-0.725783	-0.501631
H371	H	1.200332	-0.392449	-0.168298
H372	H	1.533665	-0.059116	0.165035
C373	C	0.900291	-0.516748	-0.470954
C374	C	1.233625	-0.183415	-0.137621
C375	C	1.566958	0.149919	0.195713
N376	N	0.861548	-0.536101	-0.506496
N377	N	1.194881	-0.202768	-0.173163
N378	N	1.528215	0.130565	0.160171
C379	C	0.900250	-0.418214	-0.470934
C380	C	1.233583	-0.084881	-0.137600
C381	C	1.566917	0.248453	0.195733
N382	N	0.861496	-0.398691	-0.506463
N383	N	1.194829	-0.065358	-0.173130
N384	N	1.528163	0.267976	0.160203
H385	H	0.728230	-0.300822	-0.450719
H386	H	1.061563	0.032511	-0.117386
H387	H	1.394896	0.365844	0.215948
H388	H	1.130299	-0.781972	-0.260264
H389	H	1.463632	-0.448638	0.073070
H390	H	1.796965	-0.115305	0.406403
H391	H	0.867068	-0.866540	-0.501645
H392	H	1.200401	-0.533207	-0.168311
H393	H	1.533734	-0.199874	0.165022
C394	C	1.143706	-0.873825	-0.248034
C395	C	1.477040	-0.540492	0.085299
C396	C	1.810373	-0.207158	0.418633
N397	N	1.182468	-0.893350	-0.212514
N398	N	1.515801	-0.560016	0.120820
N399	N	1.849134	-0.226683	0.454153
H400	H	0.867030	-0.781432	-0.501629
H401	H	1.200363	-0.448099	-0.168296
H402	H	1.533696	-0.114766	0.165038
C403	C	1.081894	-0.203144	-0.642092
C404	C	1.415227	0.130189	-0.308759
C405	C	1.748561	0.463523	0.024575
N406	N	1.120362	-0.179610	-0.613368
N407	N	1.453696	0.153724	-0.280035
N408	N	1.787029	0.487057	0.053298
C409	C	1.075348	-0.207137	-0.795835
C410	C	1.408681	0.126196	-0.462502
C411	C	1.742015	0.459529	-0.129169
N412	N	1.111239	-0.185181	-0.827763
N413	N	1.444572	0.148152	-0.494429
N414	N	1.777905	0.481486	-0.161096
C415	C	1.110430	-0.185658	-0.974816
C416	C	1.443763	0.147675	-0.641483
C417	C	1.777096	0.481009	-0.308149
N418	N	1.148894	-0.162122	-0.946089
N419	N	1.482227	0.171211	-0.612756
N420	N	1.815560	0.504545	-0.279423
C421	C	0.921960	-0.300946	-0.966708
C422	C	1.255293	0.032387	-0.633375
C423	C	1.588626	0.365721	-0.300042
N424	N	0.886063	-0.322899	-0.934784
N425	N	1.219396	0.010434	-0.601450
N426	N	1.552729	0.343767	-0.268117
H427	H	0.900150	-0.314306	-0.777819
H428	H	1.233484	0.019027	-0.444486
H429	H	1.566817	0.352361	-0.111153
H430	H	0.905796	-0.310854	-0.644987
H431	H	1.239129	0.022479	-0.311653
H432	H	1.572463	0.355812	0.021680
H433	H	1.057027	-0.218330	-0.871343
H434	H	1.390360	0.115003	-0.538009
H435	H	1.723694	0.448336	-0.204676
