data_functionalizedCrystal
_audit_creation_method	'MofGen! by Chris Wilmer'
_symmetry_space_group_name_H-M	'P1'
_symmetry_Int_Tables_number	1
_symmetry_cell_setting	triclinic
loop_
_symmetry_equiv_pos_as_xyz
  x,y,z
_cell_length_a	15.995350
_cell_length_b	14.971486
_cell_length_c	13.448316
_cell_angle_alpha	90.006811
_cell_angle_beta	90.003113
_cell_angle_gamma	83.553252
loop_
_atom_site_label
_atom_site_type_symbol
_atom_site_fract_x
_atom_site_fract_y
_atom_site_fract_z
O1	O	-1.111103	-0.115296	-0.082608
O2	O	-0.611103	0.384704	0.417392
O3	O	-0.867342	-0.129533	-0.082629
O4	O	-0.367342	0.370467	0.417371
O5	O	-0.995756	0.007793	-0.082611
O6	O	-0.495756	0.507793	0.417389
O7	O	-0.982690	-0.252622	-0.082626
O8	O	-0.482690	0.247378	0.417374
O9	O	-0.995740	0.007802	0.082773
O10	O	-0.495740	0.507802	0.582773
O11	O	-0.867326	-0.129524	0.082755
O12	O	-0.367326	0.370476	0.582755
O13	O	-1.111087	-0.115287	0.082776
O14	O	-0.611087	0.384713	0.582776
Cu15	Cu	-0.989205	-0.122405	0.097866
Cu16	Cu	-0.489205	0.377595	0.597866
Cu17	Cu	-0.989224	-0.122415	-0.097719
Cu18	Cu	-0.489224	0.377585	0.402281
O19	O	-0.982673	-0.252613	0.082758
O20	O	-0.482673	0.247387	0.582758
C21	C	-0.995164	0.041122	0.000081
C22	C	-0.495164	0.541122	0.500081
C23	C	-0.993413	0.140417	0.000080
C24	C	-0.493413	0.640417	0.500080
C25	C	-0.836139	-0.128940	0.000061
C26	C	-0.336139	0.371060	0.500061
C27	C	-0.743187	-0.127175	0.000053
C28	C	-0.243187	0.372825	0.500053
C29	C	-1.142291	-0.115880	0.000084
C30	C	-0.642291	0.384120	0.500084
C31	C	-1.235243	-0.117645	0.000085
C32	C	-0.735243	0.382355	0.500085
C33	C	-0.405433	-0.120838	0.000074
C34	C	0.094567	0.379162	0.500074
C35	C	-0.452769	-0.023037	0.000449
C36	C	0.047231	0.476963	0.500449
C37	C	-0.549461	-0.024802	0.000069
C38	C	-0.049461	0.475198	0.500069
C39	C	-0.572997	-0.123982	0.000064
C40	C	-0.072997	0.376018	0.500064
C41	C	-0.531967	-0.172225	-0.094377
C42	C	-0.031967	0.327775	0.405623
C43	C	-0.435329	-0.169768	-0.094449
C44	C	0.064671	0.330232	0.405551
C45	C	-0.434974	-0.171780	0.093623
C46	C	0.065026	0.328220	0.593623
C47	C	-0.531919	-0.171756	0.094865
C48	C	-0.031919	0.328244	0.594865
C49	C	-0.667696	-0.125763	0.000055
C50	C	-0.167696	0.374237	0.500055
C51	C	-0.310733	-0.119060	0.000076
C52	C	0.189267	0.380940	0.500076
C53	C	-0.983266	-0.285942	0.000064
C54	C	-0.483266	0.214058	0.500064
C55	C	-0.985017	-0.385237	0.000059
C56	C	-0.485017	0.114763	0.500059
N57	N	-0.989198	-0.122397	0.235431
N58	N	-0.489198	0.377603	0.735431
C59	C	-1.068852	0.197728	0.000087
C60	C	-0.568852	0.697728	0.500087
C61	C	-1.067202	0.291026	0.000077
C62	C	-0.567202	0.791026	0.500077
C63	C	-0.990111	0.327010	0.000067
C64	C	-0.490111	0.827010	0.500067
C65	C	-0.914666	0.269691	0.000057
C66	C	-0.414666	0.769691	0.500057
C67	C	-0.916317	0.176395	0.000060
C68	C	-0.416317	0.676395	0.500060
C69	C	-0.911229	0.464150	0.000053
C70	C	-0.411229	0.964150	0.500053
C71	C	-0.909577	0.557452	0.000052
C72	C	-0.409577	1.057452	0.500052
C73	C	-1.062114	0.578780	0.000070
C74	C	-0.562114	1.078780	0.500070
C75	C	-1.063766	0.485484	0.000073
C76	C	-0.563766	0.985484	0.500073
C77	C	-0.988320	0.428172	0.000065
C78	C	-0.488320	0.928172	0.500065
N79	N	-0.989238	-0.122415	-0.235284
N80	N	-0.489238	0.377585	0.264716
C81	C	-1.046077	-0.061614	0.287479
C82	C	-0.546077	0.438386	0.787479
C83	C	-1.046083	-0.061614	0.391582
C84	C	-0.546083	0.438386	0.891582
C85	C	-0.989212	-0.122401	0.443635
C86	C	-0.489212	0.377599	0.943635
C87	C	-0.932326	-0.183187	0.391580
C88	C	-0.432326	0.316813	0.891580
C89	C	-0.932318	-0.183183	0.287478
C90	C	-0.432318	0.316817	0.787478
C91	C	-0.932350	-0.183193	0.608560
C92	C	-0.432350	0.316807	1.108560
C93	C	-0.932359	-0.183199	0.712668
C94	C	-0.432359	0.316801	1.212668
C95	C	-1.046114	-0.061624	0.712664
C96	C	-0.546114	0.438376	1.212664
C97	C	-1.046106	-0.061620	0.608562
C98	C	-0.546106	0.438380	1.108562
C99	C	-0.989221	-0.122407	0.556514
C100	C	-0.489221	0.377593	1.056514
H101	H	-0.577845	0.013120	0.067769
H102	H	-0.077845	0.513120	0.567769
F103	F	-1.150905	0.159440	0.000107
F104	F	-0.650905	0.659440	0.500107
H105	H	-0.846803	0.586747	0.000059
H106	H	-0.346803	1.086747	0.500059
H107	H	-1.092431	-0.012129	0.755047
H108	H	-0.592431	0.487871	1.255047
F109	F	-1.106638	0.003071	0.553163
F110	F	-0.606638	0.503071	1.053163
H111	H	-0.886048	-0.232697	0.755045
H112	H	-0.386048	0.267303	1.255045
F113	F	-0.871803	-0.247888	0.553170
F114	F	-0.371803	0.252112	1.053170
H115	H	-0.403284	-0.243888	0.094259
H116	H	0.096716	0.256112	0.594259
F117	F	-0.871795	-0.247878	0.446979
F118	F	-0.371795	0.252122	0.946979
F119	F	-1.142410	0.639777	0.000074
F120	F	-0.642410	1.139777	0.500074
F121	F	-0.393270	-0.263620	-0.100056
F122	F	0.106730	0.236380	0.399944
H123	H	-0.886000	-0.232677	0.245101
H124	H	-0.386000	0.267323	0.745101
F125	F	-0.427113	0.027827	-0.087576
F126	F	0.072887	0.527827	0.412424
H127	H	-0.559193	-0.136539	0.164732
H128	H	-0.059193	0.363461	0.664732
H129	H	-1.126540	0.456189	0.000088
H130	H	-0.626540	0.956189	0.500088
H131	H	-0.854886	0.129732	0.000054
H132	H	-0.354886	0.629732	0.500054
H133	H	-0.577287	0.013369	-0.067744
H134	H	-0.077287	0.513369	0.432256
F135	F	-0.830930	0.403155	0.000042
F136	F	-0.330930	0.903155	0.500042
F137	F	-0.569017	-0.128438	-0.186242
F138	F	-0.069017	0.371562	0.313758
F139	F	-0.428496	0.028065	0.088975
F140	F	0.071504	0.528065	0.588975
H141	H	-0.547356	-0.244081	0.100565
H142	H	-0.047356	0.255919	0.600565
F143	F	-1.147496	0.352017	0.000086
F144	F	-0.647496	0.852017	0.500086
H145	H	-1.092397	-0.012119	0.433959
H146	H	-0.592397	0.487881	0.933959
F147	F	-0.832619	0.307991	0.000035
F148	F	-0.332619	0.807991	0.500035
H149	H	-1.092392	-0.012118	0.245104
H150	H	-0.592392	0.487882	0.745104
H151	H	-0.546165	-0.245090	-0.097892
H152	H	-0.046165	0.254910	0.402108
F153	F	-0.411359	-0.123793	-0.186719
F154	F	0.088641	0.376207	0.313281
H155	H	-0.414399	-0.139802	0.165207
H156	H	0.085601	0.360198	0.665207
