data_functionalizedCrystal
_audit_creation_method	'MofGen! by Chris Wilmer'
_symmetry_space_group_name_H-M	'P1'
_symmetry_Int_Tables_number	1
_symmetry_cell_setting	triclinic
loop_
_symmetry_equiv_pos_as_xyz
  x,y,z
_cell_length_a	18.426585
_cell_length_b	21.606444
_cell_length_c	18.426585
_cell_angle_alpha	60.003400
_cell_angle_beta	90.000127
_cell_angle_gamma	60.000201
loop_
_atom_site_label
_atom_site_type_symbol
_atom_site_fract_x
_atom_site_fract_y
_atom_site_fract_z
Zr1	Zr	0.699104	0.677469	-0.095227
O2	O	0.583228	0.806579	-0.211096
O3	O	0.734627	0.548354	-0.059711
O4	O	0.734628	0.677466	-0.211104
O5	O	0.583225	0.677471	0.059724
O6	O	0.854054	0.677471	-0.211108
O7	O	0.583227	0.677466	-0.059702
O8	O	0.854052	0.446511	0.059708
O9	O	0.583226	0.908430	-0.211092
O10	O	0.838902	0.601466	-0.044562
O11	O	0.749775	0.601466	0.044567
O12	O	0.749776	0.753480	-0.133680
O13	O	0.660648	0.753480	-0.044551
Zr14	Zr	0.889571	0.677483	0.095238
Zr15	Zr	0.889574	0.677476	-0.095232
Zr16	Zr	0.699101	0.677476	0.095243
Zr17	Zr	0.699102	0.839910	-0.095221
Zr18	Zr	0.889573	0.515043	0.095232
O19	O	0.854048	0.806599	0.059722
O20	O	0.854052	0.806589	-0.211103
O21	O	0.583224	0.806589	0.059729
O22	O	1.005448	0.548373	0.211107
O23	O	1.005452	0.548363	-0.059718
O24	O	0.734623	0.548363	0.211114
O25	O	1.005450	0.677482	-0.059713
O26	O	0.854047	0.677486	0.211116
O27	O	0.734622	0.677482	0.211119
O28	O	1.005448	0.677486	0.059713
O29	O	0.734625	0.908436	-0.211096
O30	O	0.854050	0.446517	0.211107
O31	O	1.005449	0.446522	0.211103
O32	O	1.005451	0.446517	0.059704
O33	O	0.583224	0.908436	-0.059693
O34	O	0.734623	0.908441	-0.059697
O35	O	0.838900	0.601473	0.133691
O36	O	0.928027	0.601473	0.044562
O37	O	0.838900	0.753486	-0.044556
O38	O	0.749773	0.753486	0.044573
C39	C	0.794340	0.474288	-0.000002
C40	C	0.794341	0.405328	-0.000005
C41	C	0.840863	0.372930	-0.046530
C42	C	0.840866	0.308130	-0.046524
C43	C	0.794342	0.275734	0.000003
C44	C	0.747818	0.308134	0.046534
C45	C	0.747821	0.372928	0.046532
C46	C	0.747808	0.046825	0.046541
C47	C	0.747807	-0.017972	0.046537
C48	C	0.840853	-0.017973	-0.046515
C49	C	0.840855	0.046821	-0.046517
C50	C	0.794336	0.079213	0.000018
C51	C	0.794335	0.149475	0.000012
C52	C	0.794337	0.205477	0.000004
C53	C	0.556088	0.677468	0.000012
C54	C	0.475228	0.677465	0.000014
C55	C	0.179114	0.677491	-0.000002
C56	C	0.261500	0.677487	0.000000
C57	C	0.327168	0.677478	0.000005
C58	C	0.409560	0.677474	0.000009
C59	C	1.032587	0.677485	-0.000000
C60	C	1.113447	0.677488	-0.000003
C61	C	0.794341	0.677468	-0.238244
C62	C	0.794342	0.677465	-0.319104
C63	C	0.794335	0.880664	0.000013
C64	C	0.794334	0.949624	0.000016
C65	C	0.794343	0.677461	-0.384770
C66	C	0.794342	0.677465	-0.467156
C67	C	0.794339	0.677474	-0.532825
C68	C	0.794337	0.677478	-0.615216
C69	C	0.794334	0.677485	0.238255
C70	C	0.794333	0.677488	0.319115
C71	C	1.032590	0.474297	-0.000008
C72	C	1.113450	0.405340	-0.000013
C73	C	0.794337	0.474297	0.238247
C74	C	0.794336	0.405340	0.319104
C75	C	1.032586	0.474305	0.238241
C76	C	1.113446	0.405351	0.319096
C77	C	0.556089	0.880647	-0.238230
C78	C	0.475230	0.949601	-0.319085
C79	C	0.556086	0.880656	0.000019
C80	C	0.475225	0.949613	0.000024
C81	C	0.794339	0.880656	-0.238236
C82	C	0.794339	0.949613	-0.319093
C83	C	1.104901	0.372953	-0.046545
C84	C	1.180871	0.308169	-0.046567
C85	C	1.265389	0.275769	-0.000052
C86	C	1.273937	0.308162	0.046482
C87	C	1.197968	0.372949	0.046498
C88	C	0.840858	0.372960	0.403606
C89	C	0.840855	0.308176	0.479587
C90	C	0.794334	0.275769	0.471065
C91	C	0.747806	0.308155	0.386555
C92	C	0.747805	0.372942	0.310576
C93	C	1.197950	0.372969	0.310543
C94	C	1.273933	0.308189	0.386507
C95	C	1.265410	0.275786	0.471025
C96	C	1.180897	0.308174	0.479577
C97	C	1.104916	0.372958	0.403613
C98	C	0.390726	0.981991	-0.310531
C99	C	0.314742	1.046792	-0.386496
C100	C	0.323265	1.079198	-0.471014
C101	C	0.407778	1.046806	-0.479566
C102	C	0.483759	0.982010	-0.403602
C103	C	0.483774	0.982006	0.046548
C104	C	0.407804	1.046808	0.046549
C105	C	0.323286	1.079210	0.000031
C106	C	0.314739	1.046815	-0.046499
C107	C	0.390708	0.982019	-0.046505
C108	C	0.840869	0.981999	-0.310543
C109	C	0.840887	1.046784	-0.386509
C110	C	0.794369	1.079184	-0.471026
C111	C	0.747837	1.046791	-0.479574
C112	C	0.747825	0.982004	-0.403609
H113	H	0.709920	-0.044349	0.084427
F114	F	0.698302	0.081287	0.096071
H115	H	0.552564	0.955639	-0.410577
F116	F	0.890368	0.081301	-0.096041
H117	H	1.036112	0.399315	0.410590
F118	F	1.346235	0.206815	-0.000076
F119	F	0.416920	1.081271	0.096078
F120	F	0.890410	1.081251	-0.377393
F121	F	1.207080	0.407405	0.096032
F122	F	0.890384	0.947528	-0.220602
H123	H	0.261435	1.131971	0.000043
H124	H	0.709963	1.073182	-0.548397
H125	H	0.383769	0.955610	-0.241720
F126	F	1.346285	0.206836	0.551866
F127	F	0.890365	0.273667	-0.096059
F128	F	0.224781	1.081307	-0.096001
H129	H	0.709929	0.281760	0.379629
H130	H	1.204906	0.399342	0.241731
H131	H	0.709924	0.399297	0.241774
F132	F	1.363895	0.273668	0.095986
F133	F	1.363869	0.273728	0.377387
H134	H	0.878742	0.399339	0.410561
F135	F	0.224806	1.081252	-0.377376
F136	F	1.171840	0.273680	0.569534
F137	F	0.698291	0.947549	-0.412722
F138	F	0.381595	0.947545	-0.096019
H139	H	0.261389	1.131958	-0.532861
H140	H	0.794385	1.131938	-0.532875
F141	F	0.416835	1.081302	-0.569523
H142	H	0.552586	0.955629	0.084435
F143	F	0.698316	0.273643	0.096063
H144	H	0.878734	-0.044356	-0.084403
F145	F	0.698308	0.407406	0.096053
F146	F	1.014957	0.407427	-0.096059
F147	F	0.890376	0.407408	-0.096056
H148	H	0.878746	0.281815	0.548391
H149	H	1.173894	0.281803	-0.084460
F150	F	0.794343	0.206816	0.551938
