data_functionalizedCrystal
_audit_creation_method	'MofGen! by Chris Wilmer'
_symmetry_space_group_name_H-M	'P1'
_symmetry_Int_Tables_number	1
_symmetry_cell_setting	triclinic
loop_
_symmetry_equiv_pos_as_xyz
  x,y,z
_cell_length_a	13.033293
_cell_length_b	16.959453
_cell_length_c	13.032268
_cell_angle_alpha	82.853932
_cell_angle_beta	90.920818
_cell_angle_gamma	97.189435
loop_
_atom_site_label
_atom_site_type_symbol
_atom_site_fract_x
_atom_site_fract_y
_atom_site_fract_z
Zn1	Zn	1.498450	-0.245915	0.781469
Zn2	Zn	1.520188	-0.359505	0.609490
Zn3	Zn	1.348311	-0.241741	0.587645
Zn4	Zn	1.326437	-0.392456	0.759528
O5	O	1.423347	-0.309905	0.684533
O6	O	1.645253	-0.248940	0.776980
O7	O	1.515639	-0.328347	0.462685
O8	O	1.368284	-0.131682	0.613396
O9	O	1.661224	-0.332394	0.650628
O10	O	1.478591	-0.134749	0.755798
O11	O	1.389362	-0.241826	0.446635
O12	O	1.201490	-0.273777	0.592121
O13	O	1.331004	-0.388554	0.906346
O14	O	1.185419	-0.384506	0.718403
O15	O	1.457381	-0.280891	0.922466
O16	O	1.494429	-0.474489	0.629353
O17	O	1.352081	-0.498698	0.739585
C18	C	1.156138	-0.332265	0.650511
C19	C	1.041822	-0.341853	0.635981
C20	C	0.982942	-0.304921	0.692116
C21	C	0.864790	-0.314829	0.677100
C22	C	1.423266	-0.515274	0.684484
C23	C	1.423321	-0.603128	0.684510
C24	C	1.480852	-0.976148	0.758816
C25	C	1.366109	-0.973051	0.610439
C26	C	1.366074	-0.890505	0.610410
C27	C	1.423427	-0.850778	0.684587
C28	C	1.480816	-0.893595	0.758792
C29	C	1.308678	-0.847683	0.536213
C30	C	1.308640	-0.765133	0.536182
C31	C	1.366000	-0.725403	0.610355
C32	C	1.423392	-0.768225	0.684563
C33	C	1.480745	-0.728498	0.758739
C34	C	1.538143	-0.771318	0.832943
C35	C	1.538176	-0.853865	0.832965
C36	C	1.365967	-0.642855	0.610333
C37	C	1.480709	-0.645945	0.758715
C38	C	1.691599	-0.287457	0.718688
C39	C	1.805912	-0.277892	0.733243
C40	C	1.389328	-0.338864	0.952763
C41	C	1.374831	-0.351204	1.067067
C42	C	1.423453	-0.103733	0.684608
C43	C	1.423498	-0.015875	0.684640
C44	C	1.457292	-0.280996	0.417354
C45	C	1.471988	-0.268416	0.303076
C46	C	1.430897	-0.303437	1.126003
C47	C	1.415915	-0.316190	1.244142
H48	H	0.827733	-0.353784	0.617917
F49	F	1.247550	-0.719569	0.457211
H50	H	1.020004	-0.265963	0.751289
H51	H	1.584906	-0.888736	0.893379
H52	H	0.842968	-0.238930	0.792419
H53	H	1.527418	-0.613603	0.819116
F54	F	0.993386	-0.392765	0.558626
F55	F	1.599172	-0.729029	0.911892
H56	H	1.527587	-1.011015	0.819229
F57	F	1.305059	-1.015336	0.531511
F58	F	1.247624	-0.889971	0.457290
F59	F	1.508115	-0.237626	1.077638
H60	H	1.319229	-0.607996	0.549922
H61	H	1.356812	-0.366527	1.281141
H62	H	1.315732	-0.401537	1.104071
F63	F	1.549243	-0.202623	1.254723
