data_functionalizedCrystal
_audit_creation_method	'MofGen! by Chris Wilmer'
_symmetry_space_group_name_H-M	'P1'
_symmetry_Int_Tables_number	1
_symmetry_cell_setting	triclinic
loop_
_symmetry_equiv_pos_as_xyz
  x,y,z
_cell_length_a	10.686154
_cell_length_b	10.685986
_cell_length_c	10.685594
_cell_angle_alpha	89.632252
_cell_angle_beta	81.596574
_cell_angle_gamma	80.972068
loop_
_atom_site_label
_atom_site_type_symbol
_atom_site_fract_x
_atom_site_fract_y
_atom_site_fract_z
Zn1	Zn	-1.859475	-0.595194	-0.313816
Zn2	Zn	-1.856847	-0.401732	-0.539914
Zn3	Zn	-1.660974	-0.401717	-0.343974
Zn4	Zn	-1.628453	-0.630155	-0.539820
O5	O	-1.751437	-0.507199	-0.434381
O6	O	-2.037784	-0.554906	-0.331226
O7	O	-1.843374	-0.225163	-0.526583
O8	O	-1.702015	-0.412744	-0.163389
O9	O	-2.035853	-0.412770	-0.497340
O10	O	-1.847854	-0.554891	-0.141232
O11	O	-1.699467	-0.225152	-0.382627
O12	O	-1.478002	-0.446644	-0.382536
O13	O	-1.646589	-0.802084	-0.497179
O14	O	-1.454110	-0.614477	-0.526423
O15	O	-1.816320	-0.776398	-0.331135
O16	O	-1.811840	-0.446670	-0.716486
O17	O	-1.644040	-0.614492	-0.716417
C18	C	-1.419732	-0.534354	-0.457743
C19	C	-1.277822	-0.546003	-0.467765
C20	C	-1.724159	-0.534401	-0.762234
C21	C	-1.712603	-0.546071	-0.902480
C22	C	-1.084439	-0.479926	-0.410924
C23	C	-1.226349	-0.468267	-0.400913
C24	C	-1.728120	-0.836303	-0.410782
C25	C	-1.718183	-0.976547	-0.400726
C26	C	-1.774745	-0.179362	-0.457792
C27	C	-1.784958	-0.039069	-0.467475
C28	C	-1.778855	-0.479916	-0.105244
C29	C	-1.790539	-0.468290	0.035015
H30	H	-1.290852	-0.392790	-0.336013
Cl31	Cl	-1.618182	-1.059555	-0.300611
H32	H	-1.866115	-0.392770	-0.911200
H33	H	-1.637041	-0.621594	-0.956258
Cl34	Cl	-1.178248	-0.662516	-0.567978
Cl35	Cl	-1.884970	-0.956064	-0.567571
