data_functionalizedCrystal
_audit_creation_method	'MofGen! by Chris Wilmer'
_symmetry_space_group_name_H-M	'P1'
_symmetry_Int_Tables_number	1
_symmetry_cell_setting	triclinic
loop_
_symmetry_equiv_pos_as_xyz
  x,y,z
_cell_length_a	17.699083
_cell_length_b	19.188930
_cell_length_c	16.176319
_cell_angle_alpha	89.988074
_cell_angle_beta	89.998611
_cell_angle_gamma	83.213899
loop_
_atom_site_label
_atom_site_type_symbol
_atom_site_fract_x
_atom_site_fract_y
_atom_site_fract_z
O1	O	1.003963	0.088294	-0.068640
O2	O	0.783569	0.099782	-0.068668
O3	O	0.900126	-0.007610	-0.068637
O4	O	0.887406	0.195687	-0.068671
O5	O	0.900110	-0.007617	0.068856
O6	O	0.783553	0.099775	0.068825
O7	O	1.003947	0.088288	0.068853
Cu8	Cu	0.893748	0.094031	0.081393
Cu9	Cu	0.893767	0.094039	-0.081208
O10	O	0.887390	0.195680	0.068822
C11	C	0.755365	0.099367	0.000075
C12	C	0.671348	0.098132	0.000065
C13	C	0.622644	0.161169	0.000055
C14	C	0.543702	0.160004	0.000065
C15	C	0.513466	0.095802	0.000081
C16	C	0.562176	0.032761	0.000093
C17	C	0.641117	0.033926	0.000088
C18	C	0.243819	0.028060	0.000115
C19	C	0.164873	0.026900	0.000117
C20	C	0.146405	0.154139	0.000092
C21	C	0.225345	0.155304	0.000087
C22	C	0.274049	0.092263	0.000104
C23	C	0.359646	0.093526	0.000094
C24	C	0.427870	0.094538	0.000085
C25	C	0.899706	-0.033625	0.000112
C26	C	0.898469	-0.111131	0.000119
C27	C	0.966861	-0.155978	0.000131
C28	C	0.965699	-0.228804	0.000118
C29	C	0.896142	-0.256778	0.000108
C30	C	0.827741	-0.211921	0.000091
C31	C	0.828905	-0.139098	0.000096
N32	N	0.842968	-0.364845	0.046893
N33	N	0.841868	-0.434025	0.046890
C34	C	0.892632	-0.476191	0.000091
N35	N	0.944550	-0.446565	-0.046694
N36	N	0.945653	-0.377379	-0.046687
C37	C	0.894873	-0.335742	0.000102
C38	C	0.959769	-0.600004	0.000088
C39	C	0.958604	-0.672830	0.000070
C40	C	0.820644	-0.655946	0.000051
C41	C	0.821811	-0.583121	0.000061
C42	C	0.891375	-0.555155	0.000084
C43	C	1.032151	0.088703	0.000108
C44	C	1.116167	0.089938	0.000113
C45	C	0.887810	0.221695	0.000071
C46	C	0.889046	0.299201	0.000059
N47	N	0.893741	0.094025	0.195758
N48	N	0.893781	0.094039	-0.195574
C49	C	0.945367	0.046491	0.239036
C50	C	0.945371	0.046490	0.325584
C51	C	0.893751	0.094027	0.368851
C52	C	0.842119	0.141563	0.325567
C53	C	0.842112	0.141560	0.239022
C54	C	0.842145	0.141576	0.674595
C55	C	0.842157	0.141577	0.761147
C56	C	0.945404	0.046506	0.761157
C57	C	0.945397	0.046503	0.674612
C58	C	0.893763	0.094036	0.631335
C59	C	0.893758	0.094036	0.537491
C60	C	0.893759	0.094031	0.462694
H61	H	0.106741	0.205470	0.000082
O62	O	0.532845	-0.029624	0.000253
C63	C	0.524521	-0.138759	0.071474
C64	C	0.557771	-0.068125	0.071411
H65	H	0.544674	-0.169913	0.128991
H66	H	0.459731	-0.128808	0.071526
H67	H	0.544585	-0.169870	0.013912
H68	H	0.537765	-0.036978	0.128964
H69	H	0.622558	-0.078125	0.071317
O70	O	1.027406	-0.572948	0.000059
C71	C	1.164118	-0.597379	0.000109
C72	C	1.087573	-0.628110	0.000127
H73	H	1.212783	-0.641962	0.000182
H74	H	1.168164	-0.563719	-0.057442
H75	H	1.168070	-0.563696	0.057639
H76	H	1.083570	-0.661824	-0.057364
H77	H	1.083560	-0.661730	0.057717
O78	O	0.753055	-0.683077	-0.000105
C79	C	0.634777	-0.690874	-0.071332
C80	C	0.711304	-0.660112	-0.071262
H81	H	0.600993	-0.672308	-0.128847
H82	H	0.645645	-0.750630	-0.071389
H83	H	0.601016	-0.672418	-0.013769
H84	H	0.745104	-0.678515	-0.128816
H85	H	0.700382	-0.600360	-0.071162
H86	H	0.800104	0.180281	0.639366
H87	H	1.014299	-0.709345	0.000076
H88	H	0.987433	0.007796	0.639386
O89	O	0.762416	-0.095600	-0.000022
C90	C	0.644892	-0.058839	-0.071293
C91	C	0.720154	-0.108152	-0.071255
H92	H	0.610709	-0.068960	-0.128888
H93	H	0.610587	-0.069016	-0.013799
H94	H	0.657690	-0.001991	-0.071244
H95	H	0.707424	-0.165017	-0.071334
H96	H	0.754436	-0.097914	-0.128744
H97	H	0.800085	0.180266	0.360800
O98	O	0.135627	-0.035531	0.000174
C99	C	0.162271	-0.161617	0.000161
C100	C	0.195494	-0.090970	0.000118
H101	H	0.210657	-0.206458	0.000098
H102	H	0.125800	-0.165387	0.057716
H103	H	0.125749	-0.165304	-0.057365
H104	H	0.232050	-0.087235	0.057604
H105	H	0.231921	-0.087230	-0.057476
H106	H	0.766119	-0.546605	0.000056
H107	H	0.680771	-0.017406	0.000096
H108	H	0.987405	0.007784	0.203814
H109	H	0.800071	0.180266	0.203785
H110	H	0.504050	0.211335	0.000056
O111	O	1.032187	-0.272309	0.000024
C112	C	1.149736	-0.309048	-0.071200
C113	C	1.074477	-0.259730	-0.071188
H114	H	1.183941	-0.298905	-0.128778
H115	H	1.184021	-0.298897	-0.013689
H116	H	1.136932	-0.365894	-0.071165
H117	H	1.087211	-0.202866	-0.071252
H118	H	1.040214	-0.269941	-0.128695
H119	H	0.987409	0.007784	0.360820
H120	H	0.987446	0.007800	0.796402
O121	O	0.291197	-0.033131	0.000011
C122	C	0.390998	-0.105687	-0.071244
C123	C	0.337397	-0.036351	-0.071216
H124	H	0.428354	-0.108319	-0.128833
H125	H	0.428473	-0.108344	-0.013744
H126	H	0.355805	-0.151758	-0.071197
H127	H	0.372530	0.009759	-0.071292
H128	H	0.299920	-0.033756	-0.128711
H129	H	0.647256	0.213450	0.000042
O130	O	0.760221	-0.239175	-0.000027
C131	C	0.678834	-0.311551	-0.071300
C132	C	0.755337	-0.280747	-0.071254
H133	H	0.674854	-0.345157	-0.128889
H134	H	0.674821	-0.345279	-0.013800
H135	H	0.630163	-0.266973	-0.071268
H136	H	0.804053	-0.325280	-0.071315
H137	H	0.759285	-0.247001	-0.128749
H138	H	0.249959	0.207584	0.000070
H139	H	1.023506	-0.133213	0.000147
H140	H	0.800119	0.180289	0.796374
