data_functionalizedCrystal
_audit_creation_method	'MofGen! by Chris Wilmer'
_symmetry_space_group_name_H-M	'P1'
_symmetry_Int_Tables_number	1
_symmetry_cell_setting	triclinic
loop_
_symmetry_equiv_pos_as_xyz
  x,y,z
_cell_length_a	15.944551
_cell_length_b	15.944551
_cell_length_c	15.021413
_cell_angle_alpha	89.996935
_cell_angle_beta	89.997174
_cell_angle_gamma	96.501262
loop_
_atom_site_label
_atom_site_type_symbol
_atom_site_fract_x
_atom_site_fract_y
_atom_site_fract_z
O1	O	1.114529	-0.108321	-0.073941
O2	O	0.869979	-0.121677	-0.073964
O3	O	0.998932	0.007276	-0.073944
O4	O	0.985576	-0.237274	-0.073961
O5	O	0.998912	0.007257	0.074121
O6	O	0.869959	-0.121695	0.074101
O7	O	1.114508	-0.108339	0.074123
Zn8	Zn	0.992230	-0.115020	0.097620
Zn9	Zn	0.992257	-0.114996	-0.097461
O10	O	0.985555	-0.237292	0.074103
C11	C	0.838675	-0.121132	0.000066
C12	C	0.745429	-0.119470	0.000057
C13	C	0.530572	-0.035565	0.000081
C14	C	0.469562	-0.074518	-0.072926
C15	C	0.574703	-0.116462	0.000068
C16	C	0.469564	-0.074556	0.073054
C17	C	0.409790	-0.113551	0.000083
C18	C	0.514921	-0.155438	-0.072998
C19	C	0.514930	-0.155464	0.073047
C20	C	0.453937	-0.194476	0.000023
C21	C	0.669705	-0.118137	0.000059
C22	C	0.314789	-0.111883	0.000085
C23	C	0.998367	0.038561	0.000089
C24	C	0.996705	0.131807	0.000089
C25	C	1.145813	-0.108885	0.000092
C26	C	1.239059	-0.110547	0.000094
N27	N	0.992218	-0.115036	0.230758
C28	C	0.986120	-0.268577	0.000069
C29	C	0.987782	-0.361823	0.000063
C30	C	0.912801	0.346663	0.000069
C31	C	0.951753	0.407672	0.073077
C32	C	0.993698	0.302533	0.000082
C33	C	0.951792	0.407673	-0.072903
C34	C	0.990787	0.467445	0.000071
C35	C	1.032672	0.362313	0.073150
C36	C	1.032700	0.362308	-0.072895
C37	C	1.071711	0.423298	0.000131
C38	C	0.995372	0.207530	0.000089
C39	C	0.989119	0.562446	0.000070
N40	N	0.992276	-0.114973	-0.230598
C41	C	0.932581	-0.174636	0.470432
C42	C	1.008481	-0.190943	0.529772
C43	C	0.992239	-0.115015	0.412365
C44	C	0.916360	-0.098727	0.529766
C45	C	0.992253	-0.114997	0.587789
C46	C	1.068178	-0.131360	0.470398
C47	C	0.976006	-0.039111	0.470387
C48	C	1.051962	-0.055386	0.529701
C49	C	0.992230	-0.115028	0.311307
C50	C	0.992271	-0.114984	0.688844
H51	H	0.534918	-0.189621	-0.134787
N52	N	1.153206	-0.149697	0.436005
H53	H	1.146082	-0.202648	0.398579
H54	H	1.191679	-0.157929	0.487922
N55	N	1.160727	0.467237	0.000188
H56	H	1.191540	0.450012	-0.054415
H57	H	1.191089	0.450743	0.055392
H58	H	0.420779	-0.261683	-0.000023
H59	H	1.066896	0.342185	-0.134615
H60	H	0.563905	0.031573	-0.000005
N61	N	0.442956	-0.029232	0.154816
H62	H	0.402904	-0.069001	0.191398
H63	H	0.413798	0.020973	0.136130
H64	H	1.022224	-0.255126	0.555856
N65	N	1.118863	0.011416	0.563965
H66	H	1.176128	-0.000992	0.542252
H67	H	1.118102	0.011355	0.631194
N68	N	0.865820	-0.241464	0.435942
H69	H	0.808606	-0.229753	0.458467
H70	H	0.878272	-0.298747	0.457550
H71	H	0.917528	0.427772	0.134794
N72	N	0.831357	-0.080472	0.564308
H73	H	0.832156	-0.080055	0.631539
H74	H	0.786380	-0.125565	0.542687
N75	N	0.823857	0.302542	0.000146
H76	H	0.793401	0.318914	0.055342
H77	H	0.825673	0.239434	-0.000453
H78	H	0.962240	0.025051	0.444283
H79	H	0.449461	-0.040295	-0.134642
H80	H	1.066851	0.342314	0.134941
N81	N	0.541559	-0.200784	0.154797
H82	H	0.525242	-0.170184	0.209919
H83	H	0.604738	-0.202057	0.153816
N84	N	0.906467	0.434300	-0.154656
H85	H	0.846451	0.406135	-0.154592
H86	H	0.936486	0.416994	-0.209749
