data_functionalizedCrystal
_audit_creation_method	'MofGen! by Chris Wilmer'
_symmetry_space_group_name_H-M	'P1'
_symmetry_Int_Tables_number	1
_symmetry_cell_setting	triclinic
loop_
_symmetry_equiv_pos_as_xyz
  x,y,z
_cell_length_a	14.519731
_cell_length_b	14.519709
_cell_length_c	7.088929
_cell_angle_alpha	96.236165
_cell_angle_beta	83.784327
_cell_angle_gamma	83.684499
loop_
_atom_site_label
_atom_site_type_symbol
_atom_site_fract_x
_atom_site_fract_y
_atom_site_fract_z
O1	O	1.214403	0.130449	0.158997
O2	O	1.547737	0.463783	0.492330
O3	O	1.881070	0.797116	0.825664
O4	O	0.945929	0.144666	0.159000
O5	O	1.279262	0.477999	0.492334
O6	O	1.612596	0.811332	0.825667
O7	O	1.087285	0.003318	0.158981
O8	O	1.420619	0.336652	0.492315
O9	O	1.753952	0.669985	0.825648
O10	O	1.073047	0.271796	0.159016
O11	O	1.406380	0.605130	0.492349
O12	O	1.739714	0.938463	0.825683
O13	O	1.106176	-0.015614	-0.158996
O14	O	1.439510	0.317719	0.174337
O15	O	1.772843	0.651053	0.507670
O16	O	0.964820	0.125733	-0.158977
O17	O	1.298153	0.459066	0.174356
O18	O	1.631486	0.792400	0.507689
O19	O	1.233294	0.111517	-0.158981
O20	O	1.566628	0.444850	0.174353
O21	O	1.899961	0.778184	0.507686
Cu22	Cu	1.100782	0.116896	-0.188013
Cu23	Cu	1.434115	0.450230	0.145321
Cu24	Cu	1.767449	0.783563	0.478654
Cu25	Cu	1.078441	0.139286	0.188033
Cu26	Cu	1.411775	0.472619	0.521366
Cu27	Cu	1.745108	0.805953	0.854699
O28	O	1.091938	0.252864	-0.158962
O29	O	1.425271	0.586197	0.174372
O30	O	1.758604	0.919531	0.507705
C31	C	0.921015	0.134533	0.000012
C32	C	1.254348	0.467866	0.333345
C33	C	1.587682	0.801200	0.666679
C34	C	0.818635	0.132537	0.000013
C35	C	1.151968	0.465871	0.333346
C36	C	1.485301	0.799204	0.666679
C37	C	0.735490	0.130916	0.000020
C38	C	1.068823	0.464249	0.333354
C39	C	1.402157	0.797582	0.666687
C40	C	0.631181	0.128889	0.000021
C41	C	0.964515	0.462223	0.333354
C42	C	1.297848	0.795556	0.666687
C43	C	0.548042	0.127281	0.000020
C44	C	0.881376	0.460614	0.333354
C45	C	1.214709	0.793947	0.666687
C46	C	0.443727	0.125255	0.000024
C47	C	0.777060	0.458588	0.333358
C48	C	1.110393	0.791921	0.666691
C49	C	1.096067	-0.040508	-0.000008
C50	C	1.429401	0.292826	0.333326
C51	C	1.762734	0.626159	0.666659
C52	C	1.094079	-0.142889	-0.000009
C53	C	1.427413	0.190444	0.333325
C54	C	1.760746	0.523778	0.666658
C55	C	1.086757	-0.517782	0.000041
C56	C	1.420090	-0.184449	0.333374
C57	C	1.753424	0.148884	0.666708
C58	C	1.088790	-0.413475	0.000027
C59	C	1.422124	-0.080142	0.333360
C60	C	1.755457	0.253191	0.666693
C61	C	1.090418	-0.330339	0.000014
C62	C	1.423751	0.002994	0.333348
C63	C	1.757085	0.336327	0.666681
C64	C	1.092452	-0.226025	0.000003
C65	C	1.425785	0.107308	0.333337
C66	C	1.759118	0.440642	0.666670
C67	C	1.258208	0.121649	0.000012
C68	C	1.591541	0.454983	0.333345
C69	C	1.924875	0.788316	0.666679
C70	C	1.360588	0.123646	0.000024
C71	C	1.693921	0.456979	0.333357
C72	C	2.027254	0.790313	0.666691
C73	C	1.083156	0.296690	0.000032
C74	C	1.416489	0.630024	0.333365
C75	C	1.749822	0.963357	0.666698
C76	C	1.085143	0.399072	0.000045
C77	C	1.418476	0.732406	0.333379
C78	C	1.751810	1.065739	0.666712
N79	N	1.116502	0.101148	-0.452503
N80	N	1.449835	0.434481	-0.119170
N81	N	1.783168	0.767815	0.214164
N82	N	1.062729	0.155027	0.452523
N83	N	1.396062	0.488360	0.785856
N84	N	1.729395	0.821694	1.119189
H85	H	1.006999	0.210861	-0.465824
H86	H	1.340333	0.544195	-0.132490
H87	H	1.673666	0.877528	0.200843
C88	C	1.191800	0.025717	-0.562822
C89	C	1.525133	0.359050	-0.229489
C90	C	1.858466	0.692383	0.103845
N91	N	1.248512	-0.031098	-0.645916
N92	N	1.581845	0.302235	-0.312582
N93	N	1.915178	0.635568	0.020751
