data_functionalizedCrystal
_audit_creation_method	'MofGen! by Chris Wilmer'
_symmetry_space_group_name_H-M	'P1'
_symmetry_Int_Tables_number	1
_symmetry_cell_setting	triclinic
loop_
_symmetry_equiv_pos_as_xyz
  x,y,z
_cell_length_a	10.654547
_cell_length_b	17.699083
_cell_length_c	16.176319
_cell_angle_alpha	90.007696
_cell_angle_beta	89.991887
_cell_angle_gamma	96.115465
loop_
_atom_site_label
_atom_site_type_symbol
_atom_site_fract_x
_atom_site_fract_y
_atom_site_fract_z
O1	O	1.665984	-0.106315	-0.068763
O2	O	2.165984	0.393685	0.431237
O3	O	1.300329	-0.116440	-0.068761
O4	O	1.800329	0.383560	0.431239
O5	O	1.493487	-0.001254	-0.068755
O6	O	1.993487	0.498746	0.431245
O7	O	1.472826	-0.221501	-0.068769
O8	O	1.972826	0.278499	0.431231
O9	O	1.493461	-0.001246	0.068738
O10	O	1.993461	0.498754	0.568738
O11	O	1.300302	-0.116433	0.068732
O12	O	1.800302	0.383567	0.568732
O13	O	1.665958	-0.106307	0.068731
O14	O	2.165958	0.393693	0.568731
Cu15	Cu	1.483127	-0.111369	0.081285
Cu16	Cu	1.983127	0.388631	0.581285
Cu17	Cu	1.483159	-0.111378	-0.081316
Cu18	Cu	1.983159	0.388622	0.418684
O19	O	1.472799	-0.221493	0.068724
O20	O	1.972799	0.278507	0.568724
C21	C	1.253530	-0.115693	-0.000014
C22	C	1.753530	0.384307	0.499986
C23	C	1.114126	-0.113467	-0.000014
C24	C	1.614126	0.386533	0.499986
C25	C	0.852209	-0.109280	-0.149924
C26	C	1.352209	0.390720	0.350076
C27	C	0.917723	-0.110330	-0.224871
C28	C	1.417723	0.389670	0.275129
C29	C	1.048704	-0.112428	-0.224869
C30	C	1.548704	0.387572	0.275131
C31	C	1.114174	-0.113471	-0.149911
C32	C	1.614174	0.386529	0.350089
C33	C	1.048660	-0.112421	-0.074964
C34	C	1.548660	0.387579	0.425036
C35	C	0.917675	-0.110326	-0.074974
C36	C	1.417675	0.389674	0.425026
C37	C	1.048612	-0.112416	0.074934
C38	C	1.548612	0.387584	0.574934
C39	C	0.917630	-0.110324	0.074934
C40	C	1.417630	0.389676	0.574934
C41	C	1.114082	-0.113460	0.149892
C42	C	1.614082	0.386540	0.649892
C43	C	1.048567	-0.112415	0.224841
C44	C	1.548567	0.387585	0.724841
C45	C	0.917578	-0.110318	0.224836
C46	C	1.417578	0.389682	0.724836
C47	C	0.852116	-0.109274	0.149881
C48	C	1.352116	0.390726	0.649881
C49	C	1.712756	-0.107055	-0.000018
C50	C	2.212756	0.392945	0.499982
C51	C	1.852160	-0.109280	-0.000024
C52	C	2.352160	0.390720	0.499976
C53	C	1.492733	0.026952	-0.000008
C54	C	1.992733	0.526952	0.499992
C55	C	1.490512	0.110984	-0.000008
C56	C	1.990512	0.610984	0.499992
C57	C	1.473553	-0.249699	-0.000025
C58	C	1.973553	0.250301	0.499975
C59	C	1.475774	-0.333731	-0.000030
C60	C	1.975774	0.166269	0.499970
N61	N	1.483115	-0.111362	0.195651
N62	N	1.983115	0.388638	0.695651
C63	C	1.603892	0.158883	-0.000007
C64	C	2.103892	0.658883	0.499993
C65	C	1.601798	0.237840	-0.000014
C66	C	2.101798	0.737840	0.499986
C67	C	1.486322	0.268896	-0.000016
C68	C	1.986322	0.768896	0.499984
C69	C	1.372934	0.220990	-0.000020
C70	C	1.872934	0.720990	0.499980
C71	C	1.375029	0.142035	-0.000018
C72	C	1.875029	0.642035	0.499982
C73	C	1.364480	0.539407	-0.000026
C74	C	1.864480	1.039407	0.499974
C75	C	1.362393	0.618368	-0.000025
C76	C	1.862393	1.118368	0.499975
C77	C	1.591248	0.635212	-0.000022
C78	C	2.091248	1.135212	0.499978
C79	C	1.593344	0.556257	-0.000021
C80	C	2.093344	1.056257	0.499979
C81	C	1.479956	0.508358	-0.000028
C82	C	1.979956	1.008358	0.499972
C83	C	1.482228	0.422744	-0.000022
C84	C	1.982228	0.922744	0.499978
C85	C	1.484049	0.354508	-0.000017
C86	C	1.984049	0.854508	0.499983
N87	N	1.483182	-0.111379	-0.195681
N88	N	1.983182	0.388621	0.304319
C89	C	1.568671	-0.060379	0.238918
C90	C	2.068671	0.439621	0.738918
C91	C	1.568677	-0.060378	0.325465
C92	C	2.068677	0.439622	0.825465
C93	C	1.483132	-0.111365	0.368743
C94	C	1.983132	0.388635	0.868743
C95	C	1.397567	-0.162351	0.325470
C96	C	1.897567	0.337649	0.825470
C97	C	1.397556	-0.162347	0.238925
C98	C	1.897556	0.337653	0.738925
C99	C	1.397610	-0.162365	0.674498
C100	C	1.897610	0.337635	1.174498
C101	C	1.397630	-0.162366	0.761050
C102	C	1.897630	0.337634	1.261050
C103	C	1.568731	-0.060396	0.761039
C104	C	2.068731	0.439604	1.261039
C105	C	1.568720	-0.060393	0.674493
C106	C	2.068720	0.439607	1.174493
C107	C	1.483151	-0.111375	0.631228
C108	C	1.983151	0.388625	1.131228
C109	C	1.483144	-0.111375	0.537383
C110	C	1.983144	0.388625	1.037383
C111	C	1.483145	-0.111370	0.462586
C112	C	1.983145	0.388630	0.962586
H113	H	1.220827	-0.115170	-0.149916
H114	H	1.720827	0.384830	0.350084
C115	C	0.708125	-0.106979	-0.149933
C116	C	1.208125	0.393021	0.350067
N117	N	0.599600	-0.105245	-0.149942
N118	N	1.099600	0.394755	0.350058
C119	C	1.303447	-0.218439	0.191331
C120	C	1.803447	0.281561	0.691331
N121	N	1.232562	-0.260690	0.155485
N122	N	1.732562	0.239310	0.655485
C123	C	1.662778	-0.004288	0.191320
C124	C	2.162778	0.495712	0.691320
N125	N	1.733658	0.037964	0.155471
N126	N	2.233658	0.537964	0.655471
C127	C	1.730927	0.124730	-0.000004
C128	C	2.230927	0.624730	0.499996
N129	N	1.826613	0.099008	-0.000006
N130	N	2.326613	0.599008	0.499994
C131	C	1.303455	-0.218430	0.373079
C132	C	1.803455	0.281570	0.873079
N133	N	1.232567	-0.260669	0.408938
N134	N	1.732567	0.239331	0.908938
H135	H	1.638383	-0.018877	0.639259
H136	H	2.138383	0.481123	1.139259
H137	H	1.694123	0.276837	-0.000012
H138	H	2.194123	0.776837	0.499988
H139	H	1.101884	-0.113260	0.285866
H140	H	1.601884	0.386740	0.785866
H141	H	1.683574	0.674221	-0.000020
H142	H	2.183574	1.174221	0.499980
H143	H	1.638403	-0.018881	0.796275
H144	H	2.138403	0.481119	1.296275
H145	H	1.268353	0.643650	-0.000025
H146	H	1.768353	1.143650	0.499975
H147	H	1.102046	-0.113282	-0.285898
H148	H	1.602046	0.386718	0.214102
C149	C	0.845522	-0.109164	0.307287
C150	C	1.345522	0.390836	0.807287
N151	N	0.791254	-0.108297	0.369390
N152	N	1.291254	0.391703	0.869390
C153	C	1.303512	-0.218454	0.808654
C154	C	1.803512	0.281546	1.308654
N155	N	1.232624	-0.260696	0.844510
N156	N	1.732624	0.239304	1.344510
C157	C	0.708033	-0.106968	0.149869
C158	C	1.208033	0.393032	0.649869
N159	N	0.599509	-0.105228	0.149856
N160	N	1.099509	0.394772	0.649856
H161	H	1.327939	-0.203878	0.639278
H162	H	1.827939	0.296122	1.139278
C163	C	1.258170	-0.115743	0.149892
C164	C	1.758170	0.384257	0.649892
N165	N	1.366700	-0.117457	0.149894
N166	N	1.866700	0.382543	0.649894
H167	H	1.687376	0.530976	-0.000015
H168	H	2.187376	1.030976	0.499985
C169	C	1.239749	0.486728	-0.000039
C170	C	1.739749	0.986728	0.499961
N171	N	1.145796	0.447048	-0.000051
N172	N	1.645796	0.947048	0.499949
C173	C	1.245909	0.255154	-0.000015
C174	C	1.745909	0.755154	0.499985
N175	N	1.150231	0.280885	-0.000005
N176	N	1.650231	0.780885	0.499995
H177	H	1.282704	0.103035	-0.000019
H178	H	1.782704	0.603035	0.499981
C179	C	1.662766	-0.004274	0.373055
C180	C	2.162766	0.495726	0.873055
N181	N	1.733626	0.037993	0.408899
N182	N	2.233626	0.537993	0.908899
H183	H	0.864404	-0.109477	-0.285900
H184	H	1.364404	0.390523	0.214100
