data_functionalizedCrystal
_audit_creation_method	'MofGen! by Chris Wilmer'
_symmetry_space_group_name_H-M	'P1'
_symmetry_Int_Tables_number	1
_symmetry_cell_setting	triclinic
loop_
_symmetry_equiv_pos_as_xyz
  x,y,z
_cell_length_a	10.723024
_cell_length_b	7.088929
_cell_length_c	8.597278
_cell_angle_alpha	103.972751
_cell_angle_beta	84.901748
_cell_angle_gamma	83.736592
loop_
_atom_site_label
_atom_site_type_symbol
_atom_site_fract_x
_atom_site_fract_y
_atom_site_fract_z
O1	O	1.642627	0.198522	0.240129
O2	O	1.279308	0.202058	0.261558
O3	O	1.471146	0.162030	0.018603
O4	O	1.450790	0.238550	0.483084
O5	O	1.496783	-0.161306	-0.013940
O6	O	1.304945	-0.121279	0.229015
O7	O	1.668264	-0.124814	0.207587
Cu8	Cu	1.488946	-0.152570	0.215330
Cu9	Cu	1.458627	0.229813	0.253815
O10	O	1.476427	-0.084787	0.450542
C11	C	1.245639	0.040134	0.243727
C12	C	1.107121	0.039368	0.239062
N13	N	1.510280	-0.421517	0.188260
C14	C	1.483206	-0.009432	-0.057142
C15	C	1.480932	-0.038614	-0.234356
C16	C	1.031084	0.061765	0.375007
C17	C	0.887918	0.060973	0.370188
C18	C	1.701933	0.037114	0.225418
C19	C	1.840450	0.037893	0.230084
N20	N	1.437303	0.498759	0.280872
C21	C	1.464366	0.086680	0.526287
C22	C	1.466639	0.115875	0.703502
H23	H	0.822582	0.080155	0.486569
O24	O	1.600449	-0.537606	0.073562
C25	C	1.678459	-0.645929	-0.209481
C26	C	1.576285	-0.514333	-0.079750
H27	H	1.658942	-0.627189	-0.333467
H28	H	1.775291	-0.602399	-0.183845
H29	H	1.676736	-0.805748	-0.207174
H30	H	1.577891	-0.354477	-0.081985
H31	H	1.479499	-0.558030	-0.105433
H32	H	0.905777	0.018731	0.113700
O33	O	1.493240	-0.223090	-0.332507
C34	C	1.408452	-0.530005	-0.397107
C35	C	1.394349	-0.321116	-0.285850
H36	H	1.328527	-0.609333	-0.359405
H37	H	1.404255	-0.521607	-0.527337
H38	H	1.503085	-0.613767	-0.386875
H39	H	1.299725	-0.237235	-0.295941
H40	H	1.398622	-0.329656	-0.155666
O41	O	1.080056	0.085395	0.517991
C42	C	1.267413	0.107518	0.653140
C43	C	1.212121	0.080788	0.491103
H44	H	1.374199	0.103761	0.631453
H45	H	1.223844	0.254534	0.737600
H46	H	1.245128	-0.016104	0.710323
H47	H	1.234388	0.204297	0.433780
H48	H	1.255691	-0.066298	0.406755
O49	O	1.058263	0.016145	0.096023
C50	C	0.915229	0.155060	-0.060375
C51	C	0.970474	0.181630	0.101686
H52	H	0.844221	0.288813	-0.055839
H53	H	0.994686	0.138437	-0.162034
H54	H	0.865817	0.018168	-0.083192
H55	H	1.019872	0.318524	0.124657
H56	H	0.890966	0.198139	0.203257
O57	O	1.346914	-0.385211	0.395275
C58	C	1.124981	-0.307475	0.492840
C59	C	1.227221	-0.439060	0.363196
H60	H	1.028183	-0.350937	0.466931
H61	H	1.144283	-0.326319	0.616870
H62	H	1.126787	-0.147640	0.490637
H63	H	1.225472	-0.598945	0.365250
H64	H	1.207882	-0.420048	0.239225
O65	O	1.453918	0.300248	-0.198058
C66	C	1.331947	0.538366	0.027475
C67	C	1.346245	0.329497	-0.083854
H68	H	1.244883	0.562095	0.119815
H69	H	1.419460	0.557782	0.092822
H70	H	1.320872	0.649910	-0.047881
H71	H	1.357283	0.217826	-0.008617
H72	H	1.258726	0.310248	-0.149209
