data_functionalizedCrystal
_audit_creation_method	'MofGen! by Chris Wilmer'
_symmetry_space_group_name_H-M	'P1'
_symmetry_Int_Tables_number	1
_symmetry_cell_setting	triclinic
loop_
_symmetry_equiv_pos_as_xyz
  x,y,z
_cell_length_a	10.654550
_cell_length_b	17.666332
_cell_length_c	19.188924
_cell_angle_alpha	90.008552
_cell_angle_beta	83.813448
_cell_angle_gamma	90.006092
loop_
_atom_site_label
_atom_site_type_symbol
_atom_site_fract_x
_atom_site_fract_y
_atom_site_fract_z
O1	O	1.665770	0.062896	0.098064
O2	O	1.300094	0.062910	0.107406
O3	O	1.493489	0.062894	0.001148
O4	O	1.472375	0.062912	0.204322
O5	O	1.493455	-0.063003	0.001142
O6	O	1.300060	-0.062987	0.107400
O7	O	1.665737	-0.063001	0.098058
Cu8	Cu	1.482895	-0.074489	0.102729
Cu9	Cu	1.482935	0.074398	0.102735
O10	O	1.472341	-0.062985	0.204316
C11	C	1.253293	-0.000037	0.106717
C12	C	1.113894	-0.000032	0.104665
N13	N	1.482876	-0.179209	0.102723
C14	C	1.033082	-0.000028	0.167228
C15	C	0.902102	-0.000041	0.165296
C16	C	0.932759	-0.000059	0.038231
C17	C	1.063737	-0.000051	0.040164
C18	C	1.568539	-0.218826	0.055695
C19	C	1.568547	-0.298073	0.055692
C20	C	1.482903	-0.337701	0.102729
C21	C	1.397224	-0.298074	0.149760
C22	C	1.397210	-0.218828	0.149757
N23	N	1.466576	-0.462113	0.164429
N24	N	1.466596	-0.537394	0.164430
C25	C	1.482936	-0.576465	0.102739
N26	N	1.499280	-0.537411	0.041045
N27	N	1.499266	-0.462124	0.041045
C28	C	1.482907	-0.423630	0.102737
C29	C	1.568612	-0.702011	0.055703
C30	C	1.568610	-0.781260	0.055699
C31	C	1.397293	-0.781260	0.149773
C32	C	1.397289	-0.702012	0.149771
C33	C	1.482954	-0.662393	0.102737
C34	C	1.712537	-0.000053	0.098747
C35	C	1.851937	-0.000053	0.100799
C36	C	1.492790	-0.000055	-0.024870
C37	C	1.490742	-0.000057	-0.102389
N38	N	1.482964	0.179118	0.102735
C39	C	1.489804	0.068569	-0.138791
C40	C	1.487862	0.068575	-0.211626
C41	C	1.486882	-0.000050	-0.248058
C42	C	1.487813	-0.068685	-0.211647
C43	C	1.489743	-0.068689	-0.138812
N44	N	1.555302	-0.051128	-0.367276
N45	N	1.553471	-0.051120	-0.436467
C46	C	1.481066	-0.000042	-0.467506
N47	N	1.410576	0.051038	-0.426741
N48	N	1.412412	0.051032	-0.357545
C49	C	1.484789	-0.000053	-0.327036
C50	C	1.478020	0.068595	-0.582884
C51	C	1.476070	0.068598	-0.655720
C52	C	1.476034	-0.068664	-0.655741
C53	C	1.477971	-0.068665	-0.582905
C54	C	1.478970	-0.000033	-0.546481
C55	C	1.473040	-0.000034	0.230334
C56	C	1.475089	-0.000027	0.307853
H57	H	1.073915	-0.000018	0.219749
O58	O	1.490852	0.135193	-0.103347
C59	C	1.600614	0.139336	-0.068524
H60	H	1.676149	0.100477	-0.095645
H61	H	1.577444	0.120820	-0.011682
C62	C	1.557000	0.269095	-0.037322
C63	C	1.649778	0.221372	-0.070636
H64	H	1.587325	0.319698	-0.038622
H65	H	1.483048	0.266303	-0.060781
H66	H	1.537700	0.253656	0.010043
H67	H	1.669064	0.236805	-0.118002
H68	H	1.723734	0.224168	-0.047185
O69	O	1.142299	-0.000186	-0.020594
C70	C	1.218999	-0.065375	-0.023269
H71	H	1.170824	-0.110947	0.012198
H72	H	1.314143	-0.050626	-0.004731
C73	C	1.298503	-0.038977	-0.142702
C74	C	1.239328	-0.094951	-0.099146
H75	H	1.311049	-0.057220	-0.189507
H76	H	1.246833	0.004944	-0.140900
H77	H	1.377783	-0.026691	-0.127245
H78	H	1.160044	-0.107229	-0.114598
H79	H	1.290986	-0.138876	-0.100952
H80	H	1.478745	-0.124548	-0.553267
O81	O	1.478918	0.135328	-0.547600
C82	C	1.477692	0.195903	-0.595353
H83	H	1.436558	0.175788	-0.644576
H84	H	1.578214	0.217003	-0.609938
C85	C	1.446647	0.285449	-0.500868
C86	C	1.396117	0.260744	-0.561321
H87	H	1.396333	0.325448	-0.479875
H88	H	1.447478	0.244639	-0.468695
H89	H	1.530415	0.303027	-0.513030
H90	H	1.312358	0.243158	-0.549157
H91	H	1.395270	0.301553	-0.593491
O92	O	0.884095	-0.000202	-0.024439
C93	C	0.925447	-0.065397	-0.062628
H94	H	0.952478	-0.110967	-0.024927
H95	H	1.011035	-0.050656	-0.101117
C96	C	0.785289	-0.038999	-0.149584
C97	C	0.818479	-0.094971	-0.103278
H98	H	0.719310	-0.057240	-0.174662
H99	H	0.757432	0.004926	-0.123858
H100	H	0.856622	-0.026719	-0.181652
H101	H	0.747152	-0.107242	-0.071206
H102	H	0.846321	-0.138899	-0.129000
H103	H	0.836309	-0.000040	0.216241
O104	O	1.474937	0.135249	-0.691096
C105	C	1.365101	0.139367	-0.725855
H106	H	1.289664	0.100429	-0.698753
H107	H	1.388209	0.120934	-0.782729
C108	C	1.408463	0.269190	-0.756895
C109	C	1.315806	0.221370	-0.723604
H110	H	1.378057	0.319773	-0.755510
H111	H	1.482464	0.266415	-0.733480
H112	H	1.427711	0.253819	-0.804287
H113	H	1.296571	0.236735	-0.676211
H114	H	1.241800	0.224150	-0.747011
O115	O	1.486812	-0.135415	-0.246923
C116	C	1.488087	-0.195990	-0.199173
H117	H	1.449717	-0.175872	-0.144552
H118	H	1.589010	-0.217098	-0.198267
C119	C	1.452109	-0.285533	-0.289108
C120	C	1.404972	-0.260825	-0.222022
H121	H	1.400845	-0.325528	-0.303203
H122	H	1.451255	-0.244723	-0.321279
H123	H	1.536210	-0.303118	-0.288344
H124	H	1.320879	-0.243233	-0.222789
H125	H	1.405810	-0.301634	-0.189852
H126	H	1.327539	-0.669754	0.188069
H127	H	1.638290	-0.186570	0.017396
O128	O	1.651880	-0.336451	0.009979
C129	C	1.727456	-0.284488	-0.031551
H130	H	1.728714	-0.227992	-0.002921
H131	H	1.686972	-0.276075	-0.083628
C132	C	1.861458	-0.384798	-0.080405
C133	C	1.863010	-0.315411	-0.045239
H134	H	1.945073	-0.403873	-0.088852
H135	H	1.810538	-0.419807	-0.052429
H136	H	1.827715	-0.377778	-0.123799
H137	H	1.896738	-0.322434	-0.001844
H138	H	1.913939	-0.280404	-0.073210
O139	O	1.313980	-0.336649	0.195356
C140	C	1.236714	-0.382494	0.157564
H141	H	1.287040	-0.394370	0.103190
H142	H	1.143927	-0.351969	0.152338
C143	C	1.147857	-0.443179	0.263576
C144	C	1.209674	-0.457771	0.196794
H145	H	1.131172	-0.489612	0.287776
H146	H	1.199909	-0.412291	0.289038
H147	H	1.070542	-0.417739	0.259211
H148	H	1.286994	-0.483201	0.201160
H149	H	1.157635	-0.488665	0.171334
O150	O	1.651878	-0.819832	0.010109
C151	C	1.729152	-0.865642	0.047907
H152	H	1.678823	-0.877509	0.102280
H153	H	1.821928	-0.835092	0.053135
C154	C	1.818039	-0.926349	-0.058099
C155	C	1.756219	-0.940929	0.008681
H156	H	1.834741	-0.972788	-0.082296
H157	H	1.765982	-0.895484	-0.083565
H158	H	1.895346	-0.900889	-0.053733
H159	H	1.678908	-0.966380	0.004315
H160	H	1.808264	-0.971800	0.034146
H161	H	1.475227	-0.124539	-0.685403
H162	H	1.327452	-0.186571	0.188054
H163	H	1.638362	-0.669752	0.017403
O164	O	1.314043	-0.819827	0.195369
C165	C	1.236770	-0.865667	0.157577
H166	H	1.287094	-0.877545	0.103202
H167	H	1.143988	-0.835136	0.152351
C168	C	1.147906	-0.926349	0.263588
C169	C	1.209719	-0.940942	0.196806
H170	H	1.131213	-0.972781	0.287788
H171	H	1.199962	-0.895464	0.289050
H172	H	1.070594	-0.900904	0.259224
H173	H	1.287035	-0.966378	0.201171
H174	H	1.157674	-0.971834	0.171346
O175	O	1.486966	0.135309	-0.246890
C176	C	1.488199	0.195883	-0.199119
H177	H	1.529355	0.175773	-0.149908
H178	H	1.387676	0.216965	-0.184516
C179	C	1.519191	0.285438	-0.293577
C180	C	1.569750	0.260740	-0.233139
H181	H	1.569491	0.325446	-0.314562
H182	H	1.518356	0.244629	-0.325762
H183	H	1.435423	0.303001	-0.281400
H184	H	1.653510	0.243169	-0.245318
H185	H	1.570601	0.301547	-0.200956
H186	H	1.490501	-0.124575	-0.109174
