data_functionalizedCrystal
_audit_creation_method	'MofGen! by Chris Wilmer'
_symmetry_space_group_name_H-M	'P1'
_symmetry_Int_Tables_number	1
_symmetry_cell_setting	triclinic
loop_
_symmetry_equiv_pos_as_xyz
  x,y,z
_cell_length_a	10.654550
_cell_length_b	19.288865
_cell_length_c	18.366186
_cell_angle_alpha	90.011479
_cell_angle_beta	89.987444
_cell_angle_gamma	96.189425
loop_
_atom_site_label
_atom_site_type_symbol
_atom_site_fract_x
_atom_site_fract_y
_atom_site_fract_z
O1	O	1.665761	-0.097556	-0.060619
O2	O	2.165761	0.402444	0.439381
O3	O	1.300084	-0.106850	-0.060608
O4	O	1.800084	0.393150	0.439392
O5	O	1.493489	-0.001142	-0.060599
O6	O	1.993489	0.498858	0.439401
O7	O	1.472356	-0.203264	-0.060628
O8	O	1.972356	0.296736	0.439372
O9	O	1.493456	-0.001136	0.060500
O10	O	1.993456	0.498864	0.560500
O11	O	1.300051	-0.106845	0.060491
O12	O	1.800051	0.393155	0.560491
O13	O	1.665728	-0.097550	0.060481
O14	O	2.165728	0.402450	0.560481
Zn15	Zn	1.482884	-0.102196	0.079713
Zn16	Zn	1.982884	0.397804	0.579713
Zn17	Zn	1.482928	-0.102204	-0.079841
Zn18	Zn	1.982928	0.397796	0.420159
O19	O	1.472323	-0.203258	0.060472
O20	O	1.972323	0.296742	0.560472
C21	C	1.253284	-0.106165	-0.000057
C22	C	1.753284	0.393835	0.499943
C23	C	1.113884	-0.104123	-0.000052
C24	C	1.613884	0.395877	0.499948
N25	N	1.482864	-0.102191	0.188604
N26	N	1.982864	0.397809	0.688604
C27	C	1.492792	0.024742	-0.000047
C28	C	1.992792	0.524742	0.499953
C29	C	1.490751	0.101859	-0.000041
C30	C	1.990751	0.601859	0.499959
C31	C	1.033066	-0.166362	-0.000071
C32	C	1.533066	0.333638	0.499929
C33	C	0.902087	-0.164440	-0.000084
C34	C	1.402087	0.335560	0.499916
C35	C	0.932756	-0.038033	-0.000060
C36	C	1.432756	0.461967	0.499940
C37	C	1.063733	-0.039956	-0.000043
C38	C	1.563733	0.460044	0.499957
C39	C	1.015359	-0.239343	-0.000088
C40	C	1.515359	0.260657	0.499912
C41	C	0.884379	-0.237420	-0.000100
C42	C	1.384379	0.262580	0.499900
C43	C	1.712528	-0.098235	-0.000072
C44	C	2.212528	0.401765	0.499928
C45	C	1.851928	-0.100277	-0.000082
C46	C	2.351928	0.399723	0.499918
C47	C	1.473020	-0.229142	-0.000082
C48	C	1.973020	0.270858	0.499918
C49	C	1.475061	-0.306259	-0.000093
C50	C	1.975061	0.193741	0.499907
C51	C	1.604232	0.145812	-0.000041
C52	C	2.104232	0.645812	0.499959
C53	C	1.602315	0.218272	-0.000052
C54	C	2.102315	0.718272	0.499948
C55	C	1.486909	0.246775	-0.000049
C56	C	1.986909	0.746775	0.499951
C57	C	1.373413	0.202812	-0.000054
C58	C	1.873413	0.702812	0.499946
C59	C	1.375334	0.130354	-0.000049
C60	C	1.875334	0.630354	0.499951
C61	C	1.396176	0.355658	0.042372
C62	C	1.896176	0.855658	0.542372
C63	C	1.394260	0.428115	0.042372
C64	C	1.894260	0.928115	0.542372
C65	C	1.480980	0.470259	-0.000065
C66	C	1.980980	0.970259	0.499935
C67	C	1.569638	0.439939	-0.042494
C68	C	2.069638	0.939939	0.457506
C69	C	1.571559	0.367481	-0.042490
C70	C	2.071559	0.867481	0.457510
C71	C	1.484814	0.325343	-0.000054
C72	C	1.984814	0.825343	0.499946
C73	C	1.592390	0.592782	-0.000079
C74	C	2.092390	1.092782	0.499921
C75	C	1.590467	0.665243	-0.000095
C76	C	2.090467	1.165243	0.499905
C77	C	1.361562	0.649781	-0.000089
C78	C	1.861562	1.149781	0.499911
C79	C	1.363488	0.577322	-0.000080
C80	C	1.863488	1.077322	0.499920
C81	C	1.478905	0.548827	-0.000072
C82	C	1.978905	1.048827	0.499928
N83	N	1.482958	-0.102203	-0.188732
N84	N	1.982958	0.397797	0.311268
C85	C	1.568532	-0.055407	0.226708
C86	C	2.068532	0.444593	0.726708
C87	C	1.568540	-0.055404	0.302936
C88	C	2.068540	0.444596	0.802936
C89	C	1.482892	-0.102197	0.341057
C90	C	1.982892	0.397803	0.841057
C91	C	1.397208	-0.148985	0.302944
C92	C	1.897208	0.351015	0.802944
C93	C	1.397194	-0.148982	0.226717
C94	C	1.897194	0.351018	0.726717
C95	C	1.466081	-0.165375	0.461809
C96	C	1.966081	0.334625	0.961809
C97	C	1.466104	-0.165379	0.538034
C98	C	1.966104	0.334621	1.038034
C99	C	1.482928	-0.102206	0.576164
C100	C	1.982928	0.397794	1.076164
C101	C	1.499755	-0.039027	0.538061
C102	C	1.999755	0.460973	1.038061
C103	C	1.499741	-0.039024	0.461835
C104	C	1.999741	0.460976	0.961835
C105	C	1.482897	-0.102205	0.423712
C106	C	1.982897	0.397795	0.923712
C107	C	1.568609	-0.055415	0.696924
C108	C	2.068609	0.444585	1.196924
C109	C	1.568608	-0.055411	0.773153
C110	C	2.068608	0.444589	1.273153
C111	C	1.397282	-0.148998	0.773159
C112	C	1.897282	0.351002	1.273159
C113	C	1.397277	-0.148996	0.696931
C114	C	1.897277	0.351004	1.196931
C115	C	1.482947	-0.102205	0.658818
C116	C	1.982947	0.397795	1.158818
H117	H	1.129532	0.010725	-0.000017
H118	H	1.629532	0.510725	0.499983
H119	H	1.267597	0.672988	-0.000090
H120	H	1.767597	1.172988	0.499910
H121	H	1.282921	0.094566	-0.000049
H122	H	1.782921	0.594566	0.499951
Cl123	Cl	1.289601	-0.207818	0.821076
Cl124	Cl	1.789601	0.292182	1.321076
Cl125	Cl	1.733144	0.720500	-0.000099
Cl126	Cl	2.233144	1.220500	0.499901
Cl127	Cl	1.228332	0.238643	-0.000056
Cl128	Cl	1.728332	0.738643	0.499944
Cl129	Cl	1.069673	-0.275223	-0.080813
Cl130	Cl	1.569673	0.224777	0.419187
Cl131	Cl	1.059689	-0.283408	0.078152
Cl132	Cl	1.559689	0.216592	0.578152
H133	H	1.686369	0.569580	-0.000075
H134	H	2.186369	1.069580	0.499925
Cl135	Cl	1.744988	0.273538	-0.000053
Cl136	Cl	2.244988	0.773538	0.499947
Cl137	Cl	0.819050	-0.279875	-0.078355
Cl138	Cl	1.319050	0.220125	0.421645
H139	H	1.327523	-0.187095	0.665904
H140	H	1.827523	0.312905	1.165904
H141	H	1.638303	-0.017305	0.333966
H142	H	2.138303	0.482695	0.833966
Cl143	Cl	1.520881	0.040398	0.413935
Cl144	Cl	2.020881	0.540398	0.913935
H145	H	0.891906	0.014210	-0.000064
H146	H	1.391906	0.514210	0.499936
Cl147	Cl	1.676300	0.003411	0.649009
Cl148	Cl	2.176300	0.503411	1.149009
H149	H	0.838221	-0.259473	0.052179
H150	H	1.338221	0.240527	0.552179
H151	H	1.327432	-0.187080	0.195692
H152	H	1.827432	0.312920	0.695692
Cl153	Cl	1.445047	-0.244803	0.413881
Cl154	Cl	1.945047	0.255197	0.913881
Cl155	Cl	1.520916	0.040396	0.585988
Cl156	Cl	2.020916	0.540396	1.085988
H157	H	1.698214	0.122617	-0.000036
H158	H	2.198214	0.622617	0.499964
H159	H	1.643745	0.342797	-0.077038
H160	H	2.143745	0.842797	0.422962
Cl161	Cl	1.289531	-0.207808	0.350865
Cl162	Cl	1.789531	0.292192	0.850865
Cl163	Cl	1.678664	0.492912	-0.095849
Cl164	Cl	2.178664	0.992912	0.404151
Cl165	Cl	1.220817	0.522064	-0.000077
Cl166	Cl	1.720817	1.022064	0.499923
H167	H	1.638365	-0.017309	0.804178
H168	H	2.138365	0.482691	1.304178
H169	H	1.452410	-0.216823	0.569052
H170	H	1.952410	0.283177	1.069052
H171	H	1.322064	0.452796	0.076916
H172	H	1.822064	0.952796	0.576916
H173	H	1.638286	-0.017306	0.195679
H174	H	2.138286	0.482694	0.695679
Cl175	Cl	1.287148	0.302684	0.095730
Cl176	Cl	1.787148	0.802684	0.595730
