data_functionalizedCrystal
_audit_creation_method	'MofGen! by Chris Wilmer'
_symmetry_space_group_name_H-M	'P1'
_symmetry_Int_Tables_number	1
_symmetry_cell_setting	triclinic
loop_
_symmetry_equiv_pos_as_xyz
  x,y,z
_cell_length_a	14.809374
_cell_length_b	23.196402
_cell_length_c	23.196401
_cell_angle_alpha	60.008822
_cell_angle_beta	90.013004
_cell_angle_gamma	52.847629
loop_
_atom_site_label
_atom_site_type_symbol
_atom_site_fract_x
_atom_site_fract_y
_atom_site_fract_z
Zr1	Zr	0.991025	0.491766	-0.006014
O2	O	0.826731	0.635115	-0.109601
O3	O	1.041386	0.364425	0.025737
O4	O	1.041340	0.484698	-0.094532
O5	O	0.826817	0.514834	0.105541
O6	O	1.210633	0.460913	-0.082640
O7	O	0.826776	0.514841	0.010667
O8	O	1.210714	0.245766	0.132498
O9	O	0.826735	0.729981	-0.109597
O10	O	1.189210	0.393123	0.048158
O11	O	1.062899	0.410868	0.110087
O12	O	1.062846	0.552474	-0.031514
O13	O	0.936535	0.570219	0.030415
Zr14	Zr	1.261091	0.453820	0.164265
Zr15	Zr	1.261027	0.453832	0.012952
Zr16	Zr	0.991089	0.491754	0.145299
Zr17	Zr	0.991032	0.643067	-0.006007
Zr18	Zr	1.261084	0.302519	0.164258
O19	O	1.210731	0.581162	0.132514
O20	O	1.210639	0.581178	-0.082634
O21	O	0.826823	0.635098	0.105547
O22	O	1.425386	0.310471	0.267852
O23	O	1.425294	0.310488	0.052704
O24	O	1.041478	0.364408	0.240885
O25	O	1.425300	0.430752	0.052710
O26	O	1.210776	0.460888	0.252782
O27	O	1.041484	0.484673	0.240891
O28	O	1.425340	0.430745	0.147584
O29	O	1.041351	0.699829	-0.094522
O30	O	1.210765	0.245757	0.252772
O31	O	1.425381	0.215605	0.267848
O32	O	1.425330	0.215614	0.147574
O33	O	0.826787	0.729972	0.010677
O34	O	1.041402	0.699820	0.025752
O35	O	1.189271	0.393112	0.189765
O36	O	1.315581	0.375367	0.127836
O37	O	1.189217	0.534719	0.048164
O38	O	1.062906	0.552463	0.110093
C39	C	1.126049	0.283538	0.079117
C40	C	1.126046	0.219307	0.079114
C41	C	1.191970	0.179875	0.046784
C42	C	1.191982	0.119512	0.046791
C43	C	1.126045	0.098599	0.079116
C44	C	1.060118	0.138035	0.111453
C45	C	1.060118	0.198389	0.111452
C46	C	1.015577	0.052089	0.066081
C47	C	1.015574	-0.008259	0.066077
C48	C	1.126047	-0.087556	0.079123
C49	C	1.236523	-0.106490	0.092159
C50	C	1.236523	-0.046135	0.092158
C51	C	1.126039	0.033155	0.079121
C52	C	1.191990	-0.192442	0.046799
C53	C	1.192006	-0.252810	0.046811
C54	C	1.060130	-0.234279	0.111468
C55	C	1.060127	-0.173920	0.111461
C56	C	1.126054	-0.153002	0.079123
C57	C	0.788327	0.520242	0.055402
C58	C	0.673704	0.536346	0.047350
C59	C	0.685287	0.464477	0.083283
C60	C	0.566819	0.481119	0.074963
C61	C	1.463789	0.425344	0.102849
C62	C	1.578412	0.409240	0.110900
C63	C	1.125977	0.472807	-0.110145
C64	C	1.125950	0.472812	-0.174381
C65	C	1.126067	0.662048	0.079134
C66	C	1.126071	0.726279	0.079137
C67	C	1.059995	0.555989	-0.246141
C68	C	1.060027	0.555985	-0.306495
C69	C	1.125997	0.472804	-0.295084
C70	C	1.191966	0.389615	-0.223311
C71	C	1.191943	0.389619	-0.162959
C72	C	1.116626	0.417492	-0.363062
C73	C	1.116640	0.417492	-0.423415
C74	C	1.126077	0.472786	-0.481226
C75	C	1.135473	0.528097	-0.478687
C76	C	1.135449	0.528102	-0.418335
C77	C	1.126030	0.472789	-0.360521
C78	C	1.060153	0.555965	-0.618431
C79	C	1.060194	0.555957	-0.678783
C80	C	1.192125	0.389586	-0.595598
C81	C	1.192092	0.389594	-0.535247
C82	C	1.126100	0.472787	-0.546669
C83	C	1.126139	0.472779	0.268396
C84	C	1.126166	0.472774	0.332632
C85	C	1.463780	0.236089	0.102840
C86	C	1.578400	0.155753	0.110889
C87	C	1.126130	0.283524	0.268387
C88	C	1.126154	0.219288	0.332620
C89	C	1.463861	0.236074	0.292110
C90	C	1.578508	0.155734	0.364395
C91	C	0.788255	0.709512	-0.133859
C92	C	0.673608	0.789852	-0.206144
C93	C	0.788336	0.709497	0.055411
C94	C	0.673716	0.789833	0.047362
C95	C	1.125987	0.662062	-0.110136
C96	C	1.125962	0.726299	-0.174369
C97	C	1.566262	0.127295	0.073071
C98	C	1.673949	0.051822	0.080618
C99	C	1.793773	0.004803	0.125988
C100	C	1.805908	0.033268	0.163807
C101	C	1.698222	0.108744	0.156255
C102	C	1.192130	0.179853	0.404383
C103	C	1.192148	0.119506	0.464742
C104	C	1.126197	0.098588	0.453339
C105	C	1.060213	0.138030	0.381569
C106	C	1.060188	0.198381	0.321210
C107	C	1.698292	0.108742	0.366016
C108	C	1.806026	0.033260	0.433930
C109	C	1.793972	0.004770	0.500223
C110	C	1.674176	0.051770	0.498601
C111	C	1.566445	0.127254	0.430687
C112	C	0.553824	0.836852	-0.207765
C113	C	0.446091	0.912352	-0.275679
C114	C	0.458144	0.940846	-0.341972
C115	C	0.577940	0.893841	-0.340350
C116	C	0.685671	0.818347	-0.272436
C117	C	0.685854	0.818297	0.085174
C118	C	0.578167	0.893787	0.077610
C119	C	0.458343	0.940808	0.032237
C120	C	0.446208	0.912341	-0.005579
C121	C	0.553894	0.836856	0.001982
C122	C	1.191926	0.747195	-0.162942
C123	C	1.191928	0.807540	-0.223289
C124	C	1.125958	0.846993	-0.295063
C125	C	1.059992	0.826091	-0.306489
C126	C	1.059998	0.765742	-0.246142
H127	H	1.326485	-0.171063	0.102791
Cl128	Cl	0.977049	0.739490	-0.260522
Cl129	Cl	0.416103	0.595149	0.017955
H130	H	1.006517	0.120989	0.372294
H131	H	0.588073	0.916952	0.108408
Cl132	Cl	0.977049	0.875707	-0.396725
Cl133	Cl	0.322977	1.035701	0.022743
H134	H	0.576083	0.610197	0.010428
H135	H	1.903559	-0.005001	0.435238
H136	H	0.348633	0.950636	-0.042520
H137	H	0.348558	0.950612	-0.276986
H138	H	1.245794	0.321864	-0.476815
H139	H	1.006432	0.230496	0.137778
Cl140	Cl	1.658664	0.016051	0.033073
H141	H	1.245647	0.715081	-0.104505
H142	H	0.543986	0.813659	-0.153793
Cl143	Cl	1.104866	0.347915	-0.290358
Cl144	Cl	1.375402	-0.069939	0.108549
Cl145	Cl	0.977246	0.247944	0.230997
Cl146	Cl	1.713478	0.144547	0.282685
Cl147	Cl	1.659045	0.015940	0.581948
Cl148	Cl	1.415639	0.186393	0.016026
H149	H	1.006264	0.623730	-0.255448
Cl150	Cl	1.274885	-0.302379	0.006161
Cl151	Cl	1.274854	0.206166	0.006133
Cl152	Cl	0.538613	0.801077	-0.045554
H153	H	0.587739	0.917051	-0.394334
Cl154	Cl	0.836002	0.350452	0.140308
H155	H	1.125963	0.896133	-0.344194
H156	H	0.370412	1.002319	-0.397267
Cl157	Cl	1.275111	0.069930	0.554959
Cl158	Cl	1.275053	0.206133	0.418738
H159	H	0.676033	0.335383	0.147830
Cl160	Cl	0.977107	0.660558	-0.396720
H161	H	1.245668	0.087401	0.020464
Cl162	Cl	1.274879	-0.166150	0.006153
Cl163	Cl	1.126243	0.022713	0.529227
Cl164	Cl	1.147264	0.597630	-0.415142
H165	H	0.783202	0.780080	-0.271125
H166	H	1.881704	-0.056696	0.555518
H167	H	1.468916	0.165508	0.429378
H168	H	0.783411	0.780018	0.122125
H169	H	1.245644	0.824552	-0.213971
H170	H	1.006439	-0.141809	0.137784
Cl171	Cl	0.876690	0.015550	0.049686
Cl172	Cl	0.876682	0.151778	0.049678
Cl173	Cl	0.977236	-0.260564	0.152104
H174	H	1.143151	0.573126	-0.525760
Cl175	Cl	0.977237	0.111737	0.152097
H176	H	1.006419	0.623705	-0.627732
H177	H	1.245840	0.321857	-0.586306
Cl178	Cl	0.977279	0.660531	-0.769001
H179	H	1.108982	0.372459	-0.425478
H180	H	1.245680	0.321888	-0.214024
H181	H	1.881448	-0.056654	0.132132
Cl182	Cl	1.274855	0.285047	-0.072740
Cl183	Cl	1.956554	-0.025855	0.220845
H184	H	1.708123	0.131905	0.187056
