data_functionalizedCrystal
_audit_creation_method	'MofGen! by Chris Wilmer'
_symmetry_space_group_name_H-M	'P1'
_symmetry_Int_Tables_number	1
_symmetry_cell_setting	triclinic
loop_
_symmetry_equiv_pos_as_xyz
  x,y,z
_cell_length_a	16.959454
_cell_length_b	12.759401
_cell_length_c	12.759393
_cell_angle_alpha	90.022497
_cell_angle_beta	89.970360
_cell_angle_gamma	89.979103
loop_
_atom_site_label
_atom_site_type_symbol
_atom_site_fract_x
_atom_site_fract_y
_atom_site_fract_z
Zn1	Zn	-0.314626	-1.606227	-0.594070
Zn2	Zn	0.185374	-1.106227	-0.094070
Zn3	Zn	-0.446825	-1.606102	-0.418393
Zn4	Zn	0.053175	-1.106102	0.081607
Zn5	Zn	-0.314666	-1.430526	-0.418400
Zn6	Zn	0.185334	-0.930526	0.081600
Zn7	Zn	-0.446768	-1.430501	-0.594025
Zn8	Zn	0.053232	-0.930501	-0.094025
O9	O	-0.380721	-1.518339	-0.506222
O10	O	0.119279	-1.018339	-0.006222
O11	O	-0.332169	-1.753232	-0.570782
O12	O	0.167831	-1.253232	-0.070782
O13	O	-0.429335	-1.582769	-0.271373
O14	O	0.070665	-1.082769	0.228627
O15	O	-0.204050	-1.453896	-0.441725
O16	O	0.295950	-0.953896	0.058275
O17	O	-0.429295	-1.753139	-0.441712
O18	O	0.070705	-1.253139	0.058288
O19	O	-0.204020	-1.582983	-0.570789
O20	O	0.295980	-1.082983	-0.070789
O21	O	-0.332238	-1.453774	-0.271378
O22	O	0.167762	-0.953774	0.228622
O23	O	-0.332183	-1.283502	-0.441682
O24	O	0.167817	-0.783502	0.058318
O25	O	-0.429199	-1.453854	-0.741052
O26	O	0.070801	-0.953854	-0.241052
O27	O	-0.429238	-1.283484	-0.570713
O28	O	0.070762	-0.783484	-0.070713
O29	O	-0.332114	-1.582959	-0.741085
O30	O	0.167886	-1.082959	-0.241085
O31	O	-0.557428	-1.582745	-0.441669
O32	O	-0.057428	-1.082745	0.058331
O33	O	-0.557387	-1.453732	-0.570705
O34	O	-0.057387	-0.953732	-0.070705
C35	C	-0.380709	-1.245372	-0.506194
C36	C	0.119291	-0.745372	-0.006194
C37	C	-0.380723	-1.128595	-0.506207
C38	C	0.119277	-0.628595	-0.006207
C39	C	-0.586088	-1.518251	-0.506204
C40	C	-0.086088	-1.018251	-0.006204
C41	C	-0.673944	-1.518309	-0.506232
C42	C	-0.173944	-1.018309	-0.006232
C43	C	-0.431336	-1.073751	-0.573286
C44	C	0.068664	-0.573751	-0.073286
C45	C	-0.431338	-0.964027	-0.573304
C46	C	0.068662	-0.464027	-0.073304
C47	C	-0.330112	-0.964000	-0.439154
C48	C	0.169888	-0.464000	0.060846
C49	C	-0.330107	-1.073722	-0.439142
C50	C	0.169893	-0.573722	0.060858
C51	C	-1.045428	-1.451259	-0.573404
C52	C	-0.545428	-0.951259	-0.073404
C53	C	-1.045412	-1.585711	-0.439147
C54	C	-0.545412	-1.085711	0.060853
C55	C	-0.962866	-1.585675	-0.439137
C56	C	-0.462866	-1.085675	0.060863
C57	C	-0.921597	-1.518428	-0.506261
C58	C	-0.421597	-1.018428	-0.006261
C59	C	-0.962874	-1.451218	-0.573394
C60	C	-0.462874	-0.951218	-0.073394
C61	C	-0.921582	-1.652875	-0.371998
C62	C	-0.421582	-1.152875	0.128002
C63	C	-0.839031	-1.652841	-0.371985
C64	C	-0.339031	-1.152841	0.128015
C65	C	-0.797761	-1.585599	-0.439114
C66	C	-0.297761	-1.085599	0.060886
C67	C	-0.839044	-1.518387	-0.506251
C68	C	-0.339044	-1.018387	-0.006251
C69	C	-0.797775	-1.451141	-0.573375
C70	C	-0.297775	-0.951141	-0.073375
C71	C	-0.839056	-1.383934	-0.640518
C72	C	-0.339056	-0.883934	-0.140518
C73	C	-0.921604	-1.383977	-0.640524
C74	C	-0.421604	-0.883977	-0.140524
C75	C	-0.715213	-1.585556	-0.439108
C76	C	-0.215213	-1.085556	0.060892
C77	C	-0.715222	-1.451100	-0.573365
C78	C	-0.215222	-0.951100	-0.073365
C79	C	-0.174553	-1.518456	-0.506263
C80	C	0.325447	-1.018456	-0.006263
C81	C	-0.086697	-1.518506	-0.506281
C82	C	0.413303	-1.018506	-0.006281
C83	C	-0.380646	-1.518418	-0.780256
C84	C	0.119354	-1.018418	-0.280256
C85	C	-0.380613	-1.518451	-0.897032
C86	C	0.119387	-1.018451	-0.397032
C87	C	-0.380732	-0.792372	-0.506244
C88	C	0.119268	-0.292372	-0.006244
C89	C	-0.380730	-0.909149	-0.506236
C90	C	0.119270	-0.409149	-0.006236
C91	C	-0.330053	-1.585681	-0.951913
C92	C	0.169947	-1.085681	-0.451913
C93	C	-0.330019	-1.585699	-1.061637
C94	C	0.169981	-1.085699	-0.561637
C95	C	-0.431112	-1.451254	-1.061590
C96	C	0.068888	-0.951254	-0.561590
C97	C	-0.431141	-1.451232	-0.951868
C98	C	0.068859	-0.951232	-0.451868
C99	C	-0.380740	-1.518321	-0.233255
C100	C	0.119260	-1.018321	0.266745
C101	C	-0.380550	-1.518491	-0.116479
C102	C	0.119450	-1.018491	0.383521
H103	H	-0.472549	-1.118425	-0.627896
H104	H	0.027451	-0.618425	-0.127896
F105	F	-0.276247	-0.905592	-0.367782
F106	F	0.223753	-0.405592	0.132218
H107	H	-1.079043	-1.396544	-0.628073
H108	H	-0.579043	-0.896544	-0.128073
F109	F	-0.276212	-1.657261	-1.120041
F110	F	0.223788	-1.157261	-0.620041
H111	H	-0.955223	-1.329259	-0.695187
H112	H	-0.455223	-0.829259	-0.195187
H113	H	-0.805425	-1.707565	-0.317315
H114	H	-0.305425	-1.207565	0.182685
H115	H	-0.472313	-1.396477	-0.907183
H116	H	0.027687	-0.896477	-0.407183
H117	H	-0.681606	-1.640270	-0.384436
H118	H	-0.181606	-1.140270	0.115564
H119	H	-0.955189	-1.707616	-0.317342
H120	H	-0.455189	-1.207616	0.182658
H121	H	-0.805446	-1.329176	-0.695166
H122	H	-0.305446	-0.829176	-0.195166
H123	H	-0.472252	-1.396528	-1.106251
H124	H	0.027748	-0.896528	-0.606251
F125	F	-0.276231	-1.132095	-0.367749
F126	F	0.223769	-0.632095	0.132251
H127	H	-0.288908	-1.640413	-0.907269
H128	H	0.211092	-1.140413	-0.407269
F129	F	-1.089334	-1.657275	-0.367713
F130	F	-0.589334	-1.157275	0.132287
F131	F	-0.485205	-0.905663	-0.644700
F132	F	0.014795	-0.405663	-0.144700
F133	F	-0.671307	-1.379530	-0.644814
F134	F	-0.171307	-0.879530	-0.144814
