data_functionalizedCrystal
_audit_creation_method	'MofGen! by Chris Wilmer'
_symmetry_space_group_name_H-M	'P1'
_symmetry_Int_Tables_number	1
_symmetry_cell_setting	triclinic
loop_
_symmetry_equiv_pos_as_xyz
  x,y,z
_cell_length_a	33.428889
_cell_length_b	33.428139
_cell_length_c	33.424847
_cell_angle_alpha	60.004234
_cell_angle_beta	60.008465
_cell_angle_gamma	59.994972
loop_
_atom_site_label
_atom_site_type_symbol
_atom_site_fract_x
_atom_site_fract_y
_atom_site_fract_z
O1	O	0.055565	-0.584504	0.488714
O2	O	0.555565	-0.084504	0.988714
O3	O	0.020982	-0.455083	0.393778
O4	O	0.520982	0.044917	0.893778
O5	O	0.102943	-0.536959	0.393689
O6	O	0.602943	-0.036959	0.893689
O7	O	-0.026396	-0.502628	0.488803
O8	O	0.473604	-0.002628	0.988803
O9	O	0.130140	-0.509767	0.420792
O10	O	0.630140	-0.009767	0.920792
O11	O	0.048179	-0.427891	0.420881
O12	O	0.548179	0.072109	0.920881
O13	O	0.082762	-0.557312	0.515817
O14	O	0.582762	-0.057312	1.015817
Cu15	Cu	0.067954	-0.490119	0.470823
Cu16	Cu	0.567954	0.009881	0.970823
Cu17	Cu	0.035790	-0.522276	0.438771
Cu18	Cu	0.535790	-0.022276	0.938771
O19	O	0.000801	-0.475436	0.515906
O20	O	0.500801	0.024564	1.015906
N21	N	0.090577	-0.467504	0.493370
N22	N	0.590577	0.032496	0.993370
N23	N	0.013171	-0.544895	0.416225
N24	N	0.513171	-0.044895	0.916225
C25	C	0.143377	-0.280390	0.546067
C26	C	0.643377	0.219610	1.046067
C27	C	0.143515	-0.414755	0.680369
C28	C	0.643515	0.085245	1.180369
C29	C	0.143392	-0.414735	0.546069
C30	C	0.643392	0.085265	1.046069
C31	C	0.277766	-0.414702	0.545966
C32	C	0.777766	0.085298	1.045966
C33	C	0.158177	-0.324719	0.560828
C34	C	0.658177	0.175281	1.060828
C35	C	0.158255	-0.399967	0.636038
C36	C	0.658255	0.100033	1.136038
C37	C	0.233434	-0.399936	0.560773
C38	C	0.733434	0.100064	1.060773
C39	C	0.158186	-0.399955	0.560829
C40	C	0.658186	0.100045	1.060829
C41	C	0.124540	-0.223964	0.527278
C42	C	0.624540	0.276036	1.027278
C43	C	0.124565	-0.433545	0.527281
C44	C	0.624565	0.066455	1.027281
C45	C	0.177014	-0.381145	0.579617
C46	C	0.677014	0.118855	1.079617
C47	C	0.359814	-0.400540	0.502735
C48	C	0.859814	0.099460	1.002735
C49	C	0.411105	-0.417624	0.485606
C50	C	0.911105	0.082376	0.985606
C51	C	0.411136	-0.500620	0.517255
C52	C	0.911136	-0.000620	1.017255
C53	C	0.359845	-0.483534	0.534385
C54	C	0.859845	0.016466	1.034385
C55	C	0.136887	-0.198305	0.476855
C56	C	0.636887	0.301695	0.976855
C57	C	0.119761	-0.147011	0.459777
C58	C	0.619761	0.352989	0.959777
C59	C	0.077945	-0.147038	0.543547
C60	C	0.577945	0.352962	1.043547
C61	C	0.095072	-0.198332	0.560625
C62	C	0.595072	0.301668	1.060625
C63	C	0.074134	-0.421169	0.539710
C64	C	0.574134	0.078831	1.039710
C65	C	0.057023	-0.438269	0.522625
C66	C	0.557023	0.061731	1.022625
C67	C	0.140770	-0.480120	0.480694
C68	C	0.640770	0.019880	0.980694
C69	C	0.157883	-0.463020	0.497773
C70	C	0.657883	0.036980	0.997773
C71	C	0.074339	-0.421208	0.762475
C72	C	0.574339	0.078792	1.262475
C73	C	0.057288	-0.438323	0.813768
C74	C	0.557288	0.061677	1.313768
C75	C	0.141075	-0.480183	0.813699
C76	C	0.641075	0.019817	1.313699
C77	C	0.158125	-0.463069	0.762404
C78	C	0.658125	0.036931	1.262404
C79	C	0.124756	-0.433580	0.736794
C80	C	0.624756	0.066420	1.236794
C81	C	0.334186	-0.433494	0.527123
C82	C	0.834186	0.066506	1.027123
C83	C	-0.173769	-0.597444	0.363037
C84	C	0.326231	-0.097444	0.863037
C85	C	-0.039302	-0.597595	0.228856
C86	C	0.460698	-0.097595	0.728856
C87	C	-0.039496	-0.597587	0.363300
C88	C	0.460504	-0.097587	0.863300
C89	C	-0.039512	-0.731889	0.363237
C90	C	0.460488	-0.231889	0.863237
C91	C	-0.129442	-0.612265	0.348329
C92	C	0.370558	-0.112265	0.848329
C93	C	-0.054138	-0.612351	0.273187
C94	C	0.445862	-0.112351	0.773187
C95	C	-0.054257	-0.687554	0.348440
C96	C	0.445743	-0.187554	0.848440
C97	C	-0.054247	-0.612346	0.348477
C98	C	0.445753	-0.112346	0.848477
C99	C	-0.230191	-0.578579	0.381758
C100	C	0.269809	-0.078579	0.881758
C101	C	-0.020722	-0.578803	0.382168
C102	C	0.479278	-0.078803	0.882168
C103	C	-0.073020	-0.631130	0.329609
C104	C	0.426980	-0.131130	0.829609
C105	C	-0.053713	-0.813916	0.406386
C106	C	0.446287	-0.313916	0.906386
C107	C	-0.036654	-0.865210	0.423504
C108	C	0.463346	-0.365210	0.923504
C109	C	0.046338	-0.865293	0.391984
C110	C	0.546338	-0.365293	0.891984
C111	C	0.029278	-0.813999	0.374865
C112	C	0.529278	-0.313999	0.874865
C113	C	-0.255900	-0.590938	0.432169
C114	C	0.244100	-0.090938	0.932169
C115	C	-0.307191	-0.573786	0.449185
C116	C	0.192809	-0.073786	0.949185
C117	C	-0.307060	-0.531922	0.365377
C118	C	0.192940	-0.031922	0.865377
C119	C	-0.255769	-0.549074	0.348360
C120	C	0.244231	-0.049074	0.848360
C121	C	-0.033081	-0.528377	0.369764
C122	C	0.466919	-0.028377	0.869764
C123	C	-0.016014	-0.511306	0.386922
C124	C	0.483986	-0.011306	0.886922
C125	C	0.025770	-0.595083	0.428877
C126	C	0.525770	-0.095083	0.928877
C127	C	0.008703	-0.612156	0.411725
C128	C	0.508703	-0.112156	0.911725
C129	C	-0.032755	-0.528393	0.146761
C130	C	0.467245	-0.028393	0.646761
C131	C	-0.015585	-0.511324	0.095468
C132	C	0.484415	-0.011324	0.595468
C133	C	0.026262	-0.595106	0.095516
C134	C	0.526262	-0.095106	0.595516
C135	C	0.009094	-0.612174	0.146811
C136	C	0.509094	-0.112174	0.646811
C137	C	-0.020417	-0.578816	0.172432
C138	C	0.479583	-0.078816	0.672432
C139	C	-0.020748	-0.788312	0.382068
C140	C	0.479252	-0.288312	0.882068
N141	N	0.436037	-0.467415	0.493101
N142	N	0.936037	0.032585	0.993101
O143	O	0.592642	-0.471896	0.376066
O144	O	1.092642	0.028104	0.876066
O145	O	0.592838	-0.567146	0.505347
O146	O	1.092838	-0.067146	1.005347
O147	O	0.592754	-0.566928	0.423360
O148	O	1.092754	-0.066928	0.923360
O149	O	0.592727	-0.472113	0.458053
O150	O	1.092727	0.027887	0.958053
O151	O	0.511269	-0.539835	0.450606
O152	O	1.011269	-0.039835	0.950606
O153	O	0.511353	-0.540052	0.532594
O154	O	1.011353	-0.040052	1.032594
O155	O	0.511157	-0.444802	0.403312
O156	O	1.011157	0.055198	0.903312
Cu157	Cu	0.503815	-0.489954	0.470441
Cu158	Cu	1.003815	0.010046	0.970441
Cu159	Cu	0.600180	-0.521995	0.438219
Cu160	Cu	1.100180	-0.021995	0.938219
O161	O	0.511242	-0.445020	0.485300
O162	O	1.011242	0.054980	0.985300
N163	N	0.667959	-0.544533	0.415554
N164	N	1.167959	-0.044533	0.915554
N165	N	0.090544	-0.122107	0.493359
N166	N	0.590544	0.377893	0.993359
O167	O	-0.026406	0.034587	0.488773
O168	O	0.473594	0.534587	0.988773
O169	O	0.102877	0.034627	0.393499
O170	O	0.602877	0.534627	0.893499
O171	O	0.020848	0.034591	0.393771
O172	O	0.520848	0.534591	0.893771
O173	O	0.055623	0.034623	0.488500
O174	O	0.555623	0.534623	0.988500
O175	O	0.048051	-0.046899	0.420925
O176	O	0.548051	0.453101	0.920925
O177	O	0.130080	-0.046864	0.420653
O178	O	0.630080	0.453136	0.920653
O179	O	0.000796	-0.046903	0.515927
O180	O	0.500796	0.453097	1.015927
Cu181	Cu	0.067922	-0.054324	0.470769
Cu182	Cu	0.567922	0.445676	0.970769
Cu183	Cu	0.035752	0.042048	0.438656
Cu184	Cu	0.535752	0.542048	0.938656
O185	O	0.082825	-0.046867	0.515655
O186	O	0.582825	0.453133	1.015655
N187	N	0.013123	0.109830	0.416068
N188	N	0.513123	0.609830	0.916068
N189	N	0.090892	-0.467554	0.838649
N190	N	0.590892	0.032446	1.338649
O191	O	0.086330	-0.584488	0.995334
O192	O	0.586330	-0.084488	1.495334
O193	O	-0.008902	-0.455160	0.995379
O194	O	0.491098	0.044840	1.495379
O195	O	-0.008679	-0.537172	0.995355
O196	O	0.491321	-0.037172	1.495355
O197	O	0.086107	-0.502475	0.995358
O198	O	0.586107	-0.002475	1.495358
O199	O	0.018452	-0.509990	0.913868
O200	O	0.518452	-0.009990	1.413868
O201	O	0.018230	-0.427978	0.913891
O202	O	0.518230	0.072022	1.413891
O203	O	0.113461	-0.557306	0.913847
O204	O	0.613461	-0.057306	1.413847
Cu205	Cu	0.068323	-0.490160	0.906429
Cu206	Cu	0.568323	0.009840	1.406429
Cu207	Cu	0.036237	-0.522306	1.002797
Cu208	Cu	0.536237	-0.022306	1.502797
O209	O	0.113239	-0.475293	0.913870
O210	O	0.613239	0.024707	1.413870
N211	N	0.013667	-0.544916	1.070577
N212	N	0.513667	-0.044916	1.570577
C213	C	0.031339	-0.425179	0.394250
C214	C	0.531339	0.074821	0.894250
C215	C	0.132837	-0.526572	0.394139
C216	C	0.632837	-0.026572	0.894139
C217	C	0.072405	-0.587216	0.515344
C218	C	0.572405	-0.087216	1.015344
C219	C	-0.029093	-0.485823	0.515455
C220	C	0.470907	0.014177	1.015455
C221	C	0.552119	-0.566716	0.535258
C222	C	1.052119	-0.066716	1.035258
C223	C	0.552016	-0.566447	0.433726
C224	C	1.052016	-0.066447	0.933726
C225	C	0.551873	-0.445232	0.373402
C226	C	1.051873	0.054768	0.873402
C227	C	0.551980	-0.445502	0.474933
C228	C	1.051980	0.054498	0.974933
C229	C	0.132731	-0.006013	0.393923
C230	C	0.632731	0.493987	0.893923
C231	C	0.031182	-0.006158	0.394293
C232	C	0.531182	0.493842	0.894293
C233	C	-0.029092	-0.006163	0.515469
C234	C	0.470908	0.493837	1.015469
C235	C	0.072491	-0.006119	0.515133
C236	C	0.572491	0.493881	1.015133
C237	C	-0.008451	-0.425276	0.954641
C238	C	0.491549	0.074724	1.454641
C239	C	-0.008170	-0.526833	0.954596
C240	C	0.491830	-0.026833	1.454596
C241	C	0.113010	-0.587190	0.954585
C242	C	0.613010	-0.087190	1.454585
C243	C	0.112735	-0.485627	0.954611
C244	C	0.612735	0.014373	1.454611
H245	H	0.016234	-0.428240	0.834672
H246	H	0.516234	0.071760	1.334672
H247	H	0.552029	-0.596233	0.426301
H248	H	1.052029	-0.096233	0.926301
H249	H	0.551974	-0.415718	0.482355
H250	H	1.051974	0.084282	0.982355
C251	C	-0.335479	-0.587374	0.504639
C252	C	0.164521	-0.087374	1.004639
C253	C	-0.370750	-0.546797	0.527872
C254	C	0.129250	-0.046797	1.027872
C255	C	-0.399038	-0.560383	0.583326
C256	C	0.100962	-0.060383	1.083326
C257	C	-0.392055	-0.614545	0.615546
C258	C	0.107945	-0.114545	1.115546
C259	C	-0.356783	-0.655125	0.592313
C260	C	0.143217	-0.155125	1.092313
C261	C	-0.328495	-0.641540	0.536859
C262	C	0.171505	-0.141540	1.036859
H263	H	-0.375920	-0.506700	0.504020
H264	H	0.124080	-0.006700	1.004020
H265	H	-0.425149	-0.530342	0.600524
H266	H	0.074851	-0.030342	1.100524
H267	H	-0.412996	-0.624601	0.656596
H268	H	0.087004	-0.124601	1.156596
H269	H	-0.351613	-0.695222	0.616165
H270	H	0.148387	-0.195222	1.116165
H271	H	-0.302384	-0.671581	0.519661
H272	H	0.197616	-0.171581	1.019661
H273	H	0.169984	-0.533889	0.364272
H274	H	0.669984	-0.033889	0.864272
C275	C	0.552192	-0.607115	0.585418
C276	C	1.052192	-0.107115	1.085418
C277	C	0.594544	-0.656383	0.588708
C278	C	1.094544	-0.156383	1.088708
C279	C	0.594617	-0.696782	0.638867
C280	C	1.094617	-0.196782	1.138867
C281	C	0.552338	-0.687914	0.685737
C282	C	1.052338	-0.187914	1.185737
C283	C	0.509983	-0.638644	0.682448
C284	C	1.009983	-0.138644	1.182448
C285	C	0.509911	-0.598245	0.632289
C286	C	1.009911	-0.098245	1.132289
H287	H	0.625844	-0.662950	0.554010
H288	H	1.125844	-0.162950	1.054010
H289	H	0.625971	-0.733255	0.641301
H290	H	1.125971	-0.233255	1.141301
H291	H	0.552392	-0.717820	0.722868
H292	H	1.052392	-0.217820	1.222868
H293	H	0.478683	-0.632078	0.717146
H294	H	0.978683	-0.132078	1.217146
H295	H	0.478557	-0.561772	0.629855
H296	H	0.978557	-0.061772	1.129855
H297	H	0.169783	-0.005775	0.363939
H298	H	0.669783	0.494225	0.863939
H299	H	-0.066242	-0.478508	0.545321
H300	H	0.433758	0.021492	1.045321
C301	C	0.021125	-0.006168	0.354084
C302	C	0.521125	0.493832	0.854084
C303	C	-0.029128	-0.006188	0.364143
C304	C	0.470872	0.493812	0.864143
C305	C	-0.039185	-0.006199	0.323935
C306	C	0.460815	0.493801	0.823935
C307	C	0.001011	-0.006190	0.273667
C308	C	0.501011	0.493810	0.773667
C309	C	0.051268	-0.006170	0.263606
C310	C	0.551268	0.493830	0.763606
C311	C	0.061325	-0.006159	0.303815
C312	C	0.561325	0.493841	0.803815
H313	H	-0.058887	-0.006195	0.401356
H314	H	0.441113	0.493805	0.901356
H315	H	-0.076389	-0.006214	0.331383
H316	H	0.423611	0.493786	0.831383
H317	H	-0.006433	-0.006198	0.243902
H318	H	0.493567	0.493802	0.743902
H319	H	0.081027	-0.006163	0.226393
H320	H	0.581027	0.493837	0.726393
H321	H	0.098529	-0.006145	0.296367
H322	H	0.598529	0.493855	0.796367
C323	C	0.037631	-0.388770	0.734304
C324	C	0.537631	0.111230	1.234304
C325	C	0.037827	-0.336697	0.699051
C326	C	0.537827	0.163303	1.199051
C327	C	0.001120	-0.304262	0.670879
C328	C	0.501120	0.195738	1.170879
C329	C	-0.035781	-0.323901	0.677961
C330	C	0.464219	0.176099	1.177961
C331	C	-0.035978	-0.375976	0.713216
C332	C	0.464022	0.124024	1.213216
C333	C	0.000728	-0.408411	0.741388
C334	C	0.500728	0.091589	1.241388
H335	H	0.065145	-0.322156	0.693807
H336	H	0.565145	0.177844	1.193807
H337	H	0.001266	-0.265712	0.644781
H338	H	0.501266	0.234288	1.144781
H339	H	-0.062954	-0.299891	0.657107
H340	H	0.437046	0.200109	1.157107
H341	H	-0.063296	-0.390517	0.718460
H342	H	0.436704	0.109483	1.218460
H343	H	0.000582	-0.446961	0.767486
H344	H	0.500582	0.053039	1.267486
C345	C	0.551793	-0.404830	0.323245
C346	C	1.051793	0.095170	0.823245
C347	C	0.551757	-0.414621	0.282877
C348	C	1.051757	0.085379	0.782877
C349	C	0.551676	-0.374219	0.232720
C350	C	1.051676	0.125781	0.732720
C351	C	0.551631	-0.324026	0.222932
C352	C	1.051631	0.175974	0.722932
C353	C	0.551667	-0.314232	0.263301
C354	C	1.051667	0.185768	0.763301
C355	C	0.551748	-0.354634	0.313458
C356	C	1.051748	0.145366	0.813458
H357	H	0.551790	-0.451779	0.290121
H358	H	1.051790	0.048221	0.790121
H359	H	0.551649	-0.381469	0.202835
H360	H	1.051649	0.118531	0.702835
H361	H	0.551571	-0.294118	0.185802
H362	H	1.051571	0.205882	0.685802
H363	H	0.551634	-0.277074	0.256057
H364	H	1.051634	0.222926	0.756057
H365	H	0.551775	-0.347384	0.343343
H366	H	1.051775	0.152616	0.843343
H367	H	-0.066220	-0.006175	0.545378
H368	H	0.433780	0.493825	1.045378
H369	H	0.079939	-0.006110	0.544893
H370	H	0.579939	0.493890	1.044893
H371	H	-0.038348	-0.388133	0.954654
H372	H	0.461652	0.111867	1.454654
H373	H	-0.037935	-0.534246	0.954563
H374	H	0.462065	-0.034246	1.454563
C375	C	0.153403	-0.637365	0.954567
C376	C	0.653403	-0.137365	1.454567
C377	C	0.144520	-0.684215	0.996871
C378	C	0.644520	-0.184215	1.496871
C379	C	0.184913	-0.734390	0.996854
C380	C	0.684913	-0.234390	1.496854
C381	C	0.234190	-0.737717	0.954532
C382	C	0.734190	-0.237717	1.454532
C383	C	0.243075	-0.690866	0.912224
C384	C	0.743075	-0.190866	1.412224
C385	C	0.202682	-0.640690	0.912242
C386	C	0.702682	-0.140690	1.412242
H387	H	0.108041	-0.681754	1.028204
H388	H	0.608041	-0.181754	1.528204
H389	H	0.178335	-0.769072	1.028173
H390	H	0.678335	-0.269072	1.528173
H391	H	0.264091	-0.774860	0.954519
H392	H	0.764091	-0.274860	1.454519
H393	H	0.279554	-0.693327	0.880892
H394	H	0.779554	-0.193327	1.380892
H395	H	0.209260	-0.606008	0.880923
H396	H	0.709260	-0.106008	1.380923
C397	C	0.177782	-0.512611	0.841871
C398	C	0.677782	-0.012611	1.341871
C399	C	0.233240	-0.526217	0.813624
C400	C	0.733240	-0.026217	1.313624
C401	C	0.269946	-0.558648	0.841796
C402	C	0.769946	-0.058648	1.341796
C403	C	0.251194	-0.577472	0.898216
C404	C	0.751194	-0.077472	1.398216
C405	C	0.195732	-0.563866	0.926466
C406	C	0.695732	-0.063866	1.426466
C407	C	0.159027	-0.531436	0.898294
C408	C	0.659027	-0.031436	1.398294
H409	H	0.247124	-0.512282	0.771856
H410	H	0.747124	-0.012282	1.271856
H411	H	0.311002	-0.568719	0.820883
H412	H	0.811002	-0.068719	1.320883
H413	H	0.278365	-0.601479	0.919071
H414	H	0.778365	-0.101479	1.419071
H415	H	0.181848	-0.577801	0.968234
H416	H	0.681848	-0.077801	1.468234
H417	H	0.117971	-0.521364	0.919207
H418	H	0.617971	-0.021364	1.419207
C419	C	0.213587	-0.476679	0.734157
C420	C	0.713587	0.023321	1.234157
C421	C	0.236825	-0.436116	0.698885
C422	C	0.736825	0.063884	1.198885
C423	C	0.292286	-0.449725	0.670639
C424	C	0.792286	0.050275	1.170639
C425	C	0.324510	-0.503895	0.677664
C426	C	0.824510	-0.003895	1.177664
C427	C	0.301273	-0.544461	0.712937
C428	C	0.801273	-0.044461	1.212937
C429	C	0.245811	-0.530853	0.741183
C430	C	0.745811	-0.030853	1.241183
H431	H	0.212971	-0.396013	0.693683
H432	H	0.712971	0.103987	1.193683
H433	H	0.309488	-0.419695	0.644527
H434	H	0.809488	0.080305	1.144527
H435	H	0.365566	-0.513969	0.656754
H436	H	0.865566	-0.013969	1.156754
H437	H	0.325127	-0.584565	0.718139
H438	H	0.825127	-0.084565	1.218139
H439	H	0.228610	-0.560883	0.767295
H440	H	0.728610	-0.060883	1.267295
C441	C	0.001550	-0.424662	0.536292
C442	C	0.501550	0.075338	1.036292
C443	C	-0.030609	-0.439614	0.590476
C444	C	0.469391	0.060386	1.090476
C445	C	-0.086081	-0.426007	0.604141
C446	C	0.413919	0.073993	1.104141
C447	C	-0.109395	-0.397448	0.563622
C448	C	0.390605	0.102552	1.063622
C449	C	-0.077237	-0.382494	0.509434
C450	C	0.422763	0.117506	1.009434
C451	C	-0.021764	-0.396101	0.495769
C452	C	0.478236	0.103899	0.995769
H453	H	-0.013351	-0.460756	0.620474
H454	H	0.486649	0.039244	1.120474
H455	H	-0.109887	-0.437076	0.644255
H456	H	0.390113	0.062924	1.144255
H457	H	-0.150459	-0.387375	0.573737
H458	H	0.349541	0.112625	1.073737
H459	H	-0.094495	-0.361352	0.479436
H460	H	0.405505	0.138648	0.979436
H461	H	0.002042	-0.385032	0.455655
H462	H	0.502042	0.114968	0.955655
C463	C	0.177423	-0.512547	0.448238
C464	C	0.677423	-0.012547	0.948238
C465	C	0.214355	-0.562018	0.467831
C466	C	0.714355	-0.062018	0.967831
C467	C	0.251006	-0.594443	0.435375
C468	C	0.751006	-0.094443	0.935375
C469	C	0.250724	-0.577398	0.383325
C470	C	0.750724	-0.077398	0.883325
C471	C	0.213790	-0.527925	0.363728
C472	C	0.713790	-0.027925	0.863728
C473	C	0.177140	-0.495499	0.396185
C474	C	0.677140	0.004501	0.896185
H475	H	0.214565	-0.574638	0.506365
H476	H	0.714565	-0.074638	1.006365
H477	H	0.278347	-0.631066	0.449882
H478	H	0.778347	-0.131066	0.949882
H479	H	0.277855	-0.601401	0.359298
H480	H	0.777855	-0.101401	0.859298
H481	H	0.213580	-0.515305	0.325195
H482	H	0.713580	-0.015305	0.825195
H483	H	0.149799	-0.458876	0.381678
H484	H	0.649799	0.041124	0.881678
C485	C	0.152967	-0.475599	0.954604
C486	C	0.652967	0.024401	1.454604
C487	C	0.143925	-0.462080	0.996922
C488	C	0.643925	0.037920	1.496922
C489	C	0.184157	-0.452053	0.996915
C490	C	0.684157	0.047947	1.496915
C491	C	0.233432	-0.455545	0.954589
C492	C	0.733432	0.044455	1.454589
C493	C	0.242476	-0.469064	0.912268
C494	C	0.742476	0.030936	1.412268
C495	C	0.202244	-0.479092	0.912275
C496	C	0.702244	0.020908	1.412275
H497	H	0.107447	-0.459495	1.028257
H498	H	0.607447	0.040505	1.528257
H499	H	0.177462	-0.442045	1.028244
H500	H	0.677462	0.057955	1.528244
H501	H	0.263214	-0.448122	0.954584
H502	H	0.763214	0.051878	1.454584
H503	H	0.278954	-0.471650	0.880933
H504	H	0.778954	0.028350	1.380933
H505	H	0.208940	-0.489100	0.880946
H506	H	0.708940	0.010900	1.380946
C507	C	0.213355	-0.476620	0.484105
C508	C	0.713355	0.023380	0.984105
C509	C	0.245597	-0.530787	0.498997
C510	C	0.745597	-0.030787	0.998997
C511	C	0.301068	-0.544383	0.485330
C512	C	0.801068	-0.044383	0.985330
C513	C	0.324297	-0.503811	0.456772
C514	C	0.824297	-0.003811	0.956772
C515	C	0.292055	-0.449640	0.441878
C516	C	0.792055	0.050360	0.941878
C517	C	0.236584	-0.436044	0.455545
C518	C	0.736584	0.063956	0.955545
H519	H	0.228402	-0.560825	0.520139
H520	H	0.728402	-0.060825	1.020139
H521	H	0.324935	-0.584484	0.496356
H522	H	0.824935	-0.084484	0.996356
H523	H	0.365359	-0.513875	0.446655
H524	H	0.865359	-0.013875	0.946655
H525	H	0.309250	-0.419603	0.420736
H526	H	0.809250	0.080397	0.920736
H527	H	0.212716	-0.395943	0.444520
H528	H	0.712716	0.104057	0.944520
C529	C	0.331657	-0.519785	0.561205
C530	C	0.831657	-0.019785	1.061205
C531	C	0.359886	-0.574826	0.569182
C532	C	0.859886	-0.074826	1.069182
C533	C	0.331698	-0.611079	0.595998
C534	C	0.831698	-0.111079	1.095998
C535	C	0.275280	-0.592291	0.614838
C536	C	0.775280	-0.092291	1.114838
C537	C	0.247047	-0.537247	0.606862
C538	C	0.747047	-0.037247	1.106862
C539	C	0.275235	-0.500995	0.580046
C540	C	0.775235	-0.000995	1.080046
H541	H	0.401653	-0.588737	0.555235
H542	H	0.901653	-0.088737	1.055235
H543	H	0.352598	-0.651826	0.601903
H544	H	0.852598	-0.151826	1.101903
H545	H	0.254413	-0.619127	0.634689
H546	H	0.754413	-0.119127	1.134689
H547	H	0.205280	-0.523337	0.620809
H548	H	0.705280	-0.023337	1.120809
H549	H	0.254335	-0.460248	0.574141
H550	H	0.754335	0.039752	1.074141
C551	C	0.439362	-0.555664	0.525241
C552	C	0.939362	-0.055664	1.025241
C553	C	0.432358	-0.592968	0.577577
C554	C	0.932358	-0.092968	1.077577
C555	C	0.460586	-0.648013	0.585562
C556	C	0.960586	-0.148013	1.085562
C557	C	0.495819	-0.665754	0.541211
C558	C	0.995819	-0.165754	1.041211
C559	C	0.502825	-0.628449	0.488871
C560	C	1.002825	-0.128449	0.988871
C561	C	0.474596	-0.573404	0.480886
C562	C	0.974596	-0.073404	0.980886
H563	H	0.406275	-0.579836	0.610412
H564	H	0.906275	-0.079836	1.110412
H565	H	0.455400	-0.675628	0.624308
H566	H	0.955400	-0.175628	1.124308
H567	H	0.516715	-0.706501	0.547122
H568	H	1.016715	-0.206501	1.047122
H569	H	0.528907	-0.641581	0.456037
H570	H	1.028907	-0.141581	0.956037
H571	H	0.479782	-0.545789	0.442140
H572	H	0.979782	-0.045789	0.942140
H573	H	0.431972	-0.390789	0.465748
H574	H	0.931972	0.109211	0.965748
C575	C	0.331587	-0.345494	0.494748
C576	C	0.831587	0.154506	0.994748
C577	C	0.359781	-0.309247	0.467923
C578	C	0.859781	0.190753	0.967923
C579	C	0.331556	-0.254201	0.459934
C580	C	0.831556	0.245799	0.959934
C581	C	0.275138	-0.235402	0.478770
C582	C	0.775138	0.264598	0.978770
C583	C	0.246941	-0.271650	0.505598
C584	C	0.746941	0.228350	1.005598
C585	C	0.275166	-0.326695	0.513586
C586	C	0.775166	0.173305	1.013586
H587	H	0.401548	-0.323162	0.453977
H588	H	0.901548	0.176838	0.953977
H589	H	0.352430	-0.227368	0.440074
H590	H	0.852430	0.272632	0.940074
H591	H	0.254245	-0.194654	0.472857
H592	H	0.754245	0.305346	0.972857
H593	H	0.205175	-0.257734	0.519543
H594	H	0.705175	0.242266	1.019543
H595	H	0.254292	-0.353528	0.533446
H596	H	0.754292	0.146472	1.033446
H597	H	0.160882	-0.219171	0.449698
H598	H	0.660882	0.280829	0.949698
C599	C	0.133342	-0.118781	0.404309
C600	C	0.633342	0.381219	0.904309
C601	C	0.165761	-0.146975	0.367628
C602	C	0.665761	0.353025	0.867628
C603	C	0.179343	-0.118748	0.312160
C604	C	0.679343	0.381252	0.812160
C605	C	0.160506	-0.062326	0.293372
C606	C	0.660506	0.437674	0.793372
C607	C	0.128086	-0.034129	0.330053
C608	C	0.628086	0.465871	0.830053
C609	C	0.114504	-0.062356	0.385522
C610	C	0.614504	0.437644	0.885522
H611	H	0.179707	-0.188745	0.381535
H612	H	0.679707	0.311255	0.881535
H613	H	0.203343	-0.139622	0.285006
H614	H	0.703343	0.360378	0.785006
H615	H	0.170560	-0.041430	0.252311
H616	H	0.670560	0.458570	0.752311
H617	H	0.114140	0.007641	0.316146
H618	H	0.614140	0.507641	0.816146
H619	H	0.090503	-0.041482	0.412675
H620	H	0.590503	0.458518	0.912675
H621	H	0.053957	-0.126168	0.570702
H622	H	0.553957	0.373832	1.070702
C623	C	0.081491	-0.226555	0.616092
C624	C	0.581491	0.273445	1.116092
C625	C	0.122068	-0.261812	0.639330
C626	C	0.622068	0.238188	1.139330
C627	C	0.108486	-0.290036	0.694799
C628	C	0.608486	0.209964	1.194799
C629	C	0.054325	-0.283003	0.727030
C630	C	0.554325	0.216997	1.227030
C631	C	0.013744	-0.247745	0.703793
C632	C	0.513744	0.252255	1.203793
C633	C	0.027327	-0.219521	0.648324
C634	C	0.527327	0.280479	1.148324
H635	H	0.162164	-0.267020	0.615470
H636	H	0.662164	0.232980	1.115470
H637	H	0.138527	-0.316136	0.712001
H638	H	0.638527	0.183864	1.212001
H639	H	0.044271	-0.303896	0.768092
H640	H	0.544271	0.196104	1.268092
H641	H	-0.026351	-0.242537	0.727653
H642	H	0.473649	0.257463	1.227653
H643	H	-0.002714	-0.193421	0.631122
H644	H	0.497286	0.306579	1.131122
C645	C	-0.029169	-0.455856	0.067235
C646	C	0.470831	0.044144	0.567235
C647	C	-0.014266	-0.423675	0.074339
C648	C	0.485734	0.076325	0.574339
C649	C	-0.027848	-0.368206	0.046106
C650	C	0.472152	0.131794	0.546106
C651	C	-0.056331	-0.344918	0.010769
C652	C	0.443669	0.155082	0.510769
C653	C	-0.071235	-0.377098	0.003663
C654	C	0.428765	0.122902	0.503663
C655	C	-0.057654	-0.432567	0.031896
C656	C	0.442346	0.067433	0.531896
H657	H	0.006820	-0.440915	0.100499
H658	H	0.506820	0.059085	0.600499
H659	H	-0.016815	-0.344384	0.051366
H660	H	0.483185	0.155616	0.551366
H661	H	-0.066385	-0.303856	-0.010131
H662	H	0.433615	0.196144	0.489869
H663	H	-0.092322	-0.359859	-0.022497
H664	H	0.407678	0.140141	0.477503
H665	H	-0.068687	-0.456389	0.026635
H666	H	0.431313	0.043611	0.526635
H667	H	0.047002	-0.397168	0.563734
H668	H	0.547002	0.102832	1.063734
H669	H	-0.056788	-0.501226	0.167618
H670	H	0.443212	-0.001226	0.667618
H671	H	0.019144	-0.653235	0.167709
H672	H	0.519144	-0.153235	0.667709
C673	C	-0.065454	-0.491689	0.337259
C674	C	0.434546	0.008311	0.837259
C675	C	-0.079055	-0.436222	0.323624
C676	C	0.420945	0.063778	0.823624
C677	C	-0.111429	-0.399533	0.291118
C678	C	0.388571	0.100467	0.791118
C679	C	-0.130204	-0.418310	0.272247
C680	C	0.369796	0.081690	0.772247
C681	C	-0.116604	-0.473779	0.285882
C682	C	0.383396	0.026221	0.785882
C683	C	-0.084229	-0.510468	0.318387
C684	C	0.415771	-0.010468	0.818387
H685	H	-0.065156	-0.422320	0.337594
H686	H	0.434844	0.077680	0.837594
H687	H	-0.121497	-0.358471	0.281025
H688	H	0.378503	0.141529	0.781025
H689	H	-0.154169	-0.391150	0.248184
H690	H	0.345831	0.108850	0.748184
H691	H	-0.130502	-0.487682	0.271912
H692	H	0.369498	0.012318	0.771912
H693	H	-0.074161	-0.551531	0.328480
H694	H	0.425839	-0.051531	0.828480
H695	H	0.050281	-0.622271	0.074658
H696	H	0.550281	-0.122271	0.574658
H697	H	0.049734	-0.622248	0.452940
H698	H	0.549734	-0.122248	0.952940
C699	C	-0.029603	-0.455838	0.373281
C700	C	0.470397	0.044162	0.873281
C701	C	-0.014593	-0.423666	0.319108
C702	C	0.485407	0.076334	0.819108
C703	C	-0.028181	-0.368199	0.305468
C704	C	0.471819	0.131801	0.805468
C705	C	-0.056779	-0.344903	0.346001
C706	C	0.443221	0.155097	0.846001
C707	C	-0.071791	-0.377074	0.400179
C708	C	0.428209	0.122926	0.900179
C709	C	-0.058203	-0.432542	0.413818
C710	C	0.441797	0.067458	0.913818
H711	H	0.006579	-0.440911	0.289099
H712	H	0.506579	0.059089	0.789099
H713	H	-0.017067	-0.344383	0.265362
H714	H	0.482933	0.155617	0.765362
H715	H	-0.066838	-0.303842	0.335904
H716	H	0.433162	0.196158	0.835904
H717	H	-0.092963	-0.359829	0.430187
H718	H	0.407037	0.140171	0.930187
H719	H	-0.069317	-0.456357	0.453924
H720	H	0.430683	0.043643	0.953924
H721	H	0.018765	-0.653217	0.421828
H722	H	0.518765	-0.153217	0.921828
H723	H	0.087072	-0.886205	0.386121
H724	H	0.587072	-0.386205	0.886121
C725	C	0.065542	-0.785837	0.348114
C726	C	0.565542	-0.285837	0.848114
C727	C	0.120568	-0.814097	0.340196
C728	C	0.620568	-0.314097	0.840196
C729	C	0.156835	-0.785936	0.313443
C730	C	0.656835	-0.285936	0.813443
C731	C	0.138075	-0.729514	0.294609
C732	C	0.638075	-0.229514	0.794609
C733	C	0.083046	-0.701251	0.302527
C734	C	0.583046	-0.201251	0.802527
C735	C	0.046780	-0.729412	0.329279
C736	C	0.546780	-0.229412	0.829279
H737	H	0.134457	-0.855867	0.354138
H738	H	0.634457	-0.355867	0.854138
H739	H	0.197571	-0.806858	0.307582
H740	H	0.697571	-0.306858	0.807582
H741	H	0.164922	-0.708667	0.274806
H742	H	0.664922	-0.208667	0.774806
H743	H	0.069157	-0.659481	0.288584
H744	H	0.569157	-0.159481	0.788584
H745	H	0.006044	-0.708490	0.335140
H746	H	0.506044	-0.208490	0.835140
H747	H	-0.063498	-0.886058	0.443304
H748	H	0.436502	-0.386058	0.943304
C749	C	0.082383	-0.637441	0.555629
C750	C	0.582383	-0.137441	1.055629
C751	C	0.050630	-0.669086	0.576747
C752	C	0.550630	-0.169086	1.076747
C753	C	0.060608	-0.719310	0.617031
C754	C	0.560608	-0.219310	1.117031
C755	C	0.102340	-0.737889	0.636197
C756	C	0.602340	-0.237889	1.136197
C757	C	0.134096	-0.706243	0.615079
C758	C	0.634096	-0.206243	1.115079
C759	C	0.124118	-0.656019	0.574795
C760	C	0.624118	-0.156019	1.074795
H761	H	0.019735	-0.655333	0.562559
H762	H	0.519735	-0.155333	1.062559
H763	H	0.037100	-0.742736	0.632664
H764	H	0.537100	-0.242736	1.132664
H765	H	0.109726	-0.775068	0.666018
H766	H	0.609726	-0.275068	1.166018
H767	H	0.164991	-0.719996	0.629267
H768	H	0.664991	-0.219996	1.129267
H769	H	0.147626	-0.632593	0.559162
H770	H	0.647626	-0.132593	1.059162
H771	H	-0.094449	-0.793002	0.412253
H772	H	0.405551	-0.293002	0.912253
H773	H	-0.327887	-0.507903	0.338181
H774	H	0.172113	-0.007903	0.838181
C775	C	-0.227765	-0.623392	0.468907
C776	C	0.272235	-0.123392	0.968907
C777	C	-0.234862	-0.603760	0.505829
C778	C	0.265138	-0.103760	1.005829
C779	C	-0.206725	-0.636215	0.542566
C780	C	0.293275	-0.136215	1.042566
C781	C	-0.171491	-0.688302	0.542381
C782	C	0.328509	-0.188302	1.042381
C783	C	-0.164392	-0.707937	0.505457
C784	C	0.335608	-0.207937	1.005457
C785	C	-0.192529	-0.675482	0.468720
C786	C	0.307471	-0.175482	0.968720
H787	H	-0.260946	-0.565199	0.505967
H788	H	0.239054	-0.065199	1.005967
H789	H	-0.211981	-0.621679	0.569899
H790	H	0.288019	-0.121679	1.069899
H791	H	-0.150662	-0.712327	0.569576
H792	H	0.349338	-0.212327	1.069576
H793	H	-0.138308	-0.746497	0.505319
H794	H	0.361692	-0.246497	1.005319
H795	H	-0.187274	-0.690017	0.441387
H796	H	0.312726	-0.190017	0.941387
C797	C	-0.227490	-0.535480	0.292907
C798	C	0.272510	-0.035480	0.792907
C799	C	-0.255628	-0.503024	0.256174
C800	C	0.244372	-0.003024	0.756174
C801	C	-0.227348	-0.489428	0.200718
C802	C	0.272652	0.010572	0.700718
C803	C	-0.170930	-0.508290	0.181996
C804	C	0.329070	-0.008290	0.681996
C805	C	-0.142789	-0.540748	0.218730
C806	C	0.357211	-0.040748	0.718730
C807	C	-0.171069	-0.554344	0.274186
C808	C	0.328931	-0.054344	0.774186
H809	H	-0.297395	-0.489059	0.270032
H810	H	0.202605	0.010941	0.770032
H811	H	-0.248180	-0.465400	0.173525
H812	H	0.251820	0.034600	0.673525
H813	H	-0.149996	-0.498226	0.140945
H814	H	0.350004	0.001774	0.640945
H815	H	-0.101022	-0.554713	0.204872
H816	H	0.398978	-0.054713	0.704872
H817	H	-0.150237	-0.578372	0.301379
H818	H	0.349763	-0.078372	0.801379
H819	H	0.023949	-0.388000	0.364433
H820	H	0.523949	0.112000	0.864433
