data_functionalizedCrystal
_audit_creation_method	'MofGen! by Chris Wilmer'
_symmetry_space_group_name_H-M	'P1'
_symmetry_Int_Tables_number	1
_symmetry_cell_setting	triclinic
loop_
_symmetry_equiv_pos_as_xyz
  x,y,z
_cell_length_a	19.288840
_cell_length_b	15.995350
_cell_length_c	18.366186
_cell_angle_alpha	89.995992
_cell_angle_beta	89.983729
_cell_angle_gamma	83.309196
loop_
_atom_site_label
_atom_site_type_symbol
_atom_site_fract_x
_atom_site_fract_y
_atom_site_fract_z
O1	O	0.921635	0.104352	-0.060668
O2	O	0.719408	0.118464	-0.060642
O3	O	0.826049	-0.010501	-0.060655
O4	O	0.814993	0.233317	-0.060655
O5	O	0.826031	-0.010508	0.060444
O6	O	0.719390	0.118457	0.060457
O7	O	0.921617	0.104345	0.060432
Zn8	Zn	0.820500	0.111400	0.079672
Zn9	Zn	0.820524	0.111409	-0.079882
O10	O	0.814975	0.233310	0.060444
C11	C	0.693521	0.118010	-0.000089
C12	C	0.616413	0.116657	-0.000079
C13	C	0.580218	0.116011	-0.066093
C14	C	0.507768	0.114731	-0.066101
C15	C	0.471517	0.114080	-0.000094
C16	C	0.507721	0.114731	0.065928
C17	C	0.580169	0.116020	0.065935
C18	C	0.362050	0.062993	0.050468
C19	C	0.289603	0.061699	0.050458
C20	C	0.248063	0.110109	-0.000113
C21	C	0.278980	0.159803	-0.050685
C22	C	0.351427	0.161091	-0.050678
C23	C	0.392960	0.112683	-0.000094
C24	C	0.133309	0.108076	-0.066140
C25	C	0.060857	0.106801	-0.066146
C26	C	0.060813	0.106793	0.065886
C27	C	0.133262	0.108076	0.065890
C28	C	0.169507	0.108714	-0.000125
C29	C	0.825583	-0.041698	-0.000107
C30	C	0.824213	-0.134643	-0.000111
C31	C	0.819292	-0.472371	-0.000107
C32	C	0.743344	-0.424642	-0.000369
C33	C	0.744715	-0.327957	-0.000097
C34	C	0.821733	-0.304820	-0.000109
C35	C	0.859183	-0.346046	0.069038
C36	C	0.857275	-0.442675	0.069096
C37	C	0.858864	-0.443032	-0.068616
C38	C	0.858847	-0.346086	-0.069530
C39	C	0.823116	-0.210128	-0.000108
C40	C	0.817911	-0.567064	-0.000104
C41	C	0.947504	0.104799	-0.000123
C42	C	1.024612	0.106152	-0.000137
C43	C	0.815441	0.264507	-0.000105
C44	C	0.816812	0.357452	-0.000106
N45	N	0.820489	0.111394	0.188563
N46	N	0.820541	0.111408	-0.188773
C47	C	0.867725	0.054316	0.226657
C48	C	0.867730	0.054313	0.302885
C49	C	0.820505	0.111401	0.341015
C50	C	0.773260	0.168483	0.302912
C51	C	0.773252	0.168480	0.226685
C52	C	0.811404	0.187693	0.461776
C53	C	0.811417	0.187697	0.538001
C54	C	0.820524	0.111412	0.576123
C55	C	0.829634	0.035118	0.538010
C56	C	0.829626	0.035114	0.461784
C57	C	0.820507	0.111411	0.423670
C58	C	0.867768	0.054325	0.696873
C59	C	0.867768	0.054320	0.773102
C60	C	0.773301	0.168498	0.773127
C61	C	0.773298	0.168496	0.696899
C62	C	0.820535	0.111410	0.658776
H63	H	0.245158	0.199226	-0.091862
N64	N	0.930165	-0.328602	0.072246
N65	N	0.954000	-0.285486	0.023489
H66	H	1.004133	-0.273164	0.025752
H67	H	0.734786	0.214960	0.195668
N68	N	0.404492	0.013552	0.102126
N69	N	0.441182	0.048533	0.146221
H70	H	0.471158	0.013619	0.182703
H71	H	0.715063	-0.299980	0.049563
H72	H	0.609639	0.116547	0.119693
N73	N	0.826529	-0.310316	0.133598
N74	N	0.775686	-0.254501	0.128863
H75	H	0.752620	-0.229267	0.174456
N76	N	0.725061	0.226826	0.812055
N77	N	0.682893	0.277792	0.778028
H78	H	0.648821	0.318988	0.805523
H79	H	0.162734	0.108597	0.119645
N80	N	0.023872	0.106129	-0.133574
N81	N	-0.040813	0.104979	-0.133573
H82	H	-0.066935	0.104502	-0.181195
N83	N	0.617234	0.116648	-0.133527
N84	N	0.615562	0.057491	-0.177720
H85	H	0.641703	0.057939	-0.225348
N86	N	0.802121	0.265633	0.576918
N87	N	0.793983	0.333740	0.542875
H88	H	0.787419	0.388785	0.570357
N89	N	0.707780	-0.292162	-0.062279
N90	N	0.680807	-0.338580	-0.106181
H91	H	0.654718	-0.313303	-0.150098
N92	N	0.929115	-0.483131	-0.069229
N93	N	0.978928	-0.439696	-0.067506
H94	H	1.028541	-0.468016	-0.067936
H95	H	0.478292	0.114206	-0.119859
H96	H	0.834041	-0.463472	-0.121027
N97	N	0.470708	0.114056	0.133361
N98	N	0.503038	0.114629	0.192299
H99	H	0.476899	0.114154	0.239926
N100	N	0.916038	-0.003929	0.187729
N101	N	0.958250	-0.054841	0.221758
H102	H	0.992394	-0.095952	0.194264
H103	H	0.906231	0.007836	0.804119
N104	N	0.725010	0.226797	0.341846
N105	N	0.660812	0.225847	0.333359
H106	H	0.626731	0.267030	0.360856
N107	N	0.705279	-0.447736	-0.062582
N108	N	0.733677	-0.499645	-0.107453
H109	H	0.706794	-0.515958	-0.151395
H110	H	0.913034	-0.475139	0.072225
H111	H	0.713116	-0.444122	0.048949
H112	H	0.264438	0.021231	0.091634
N113	N	0.824536	-0.311702	-0.133700
N114	N	0.772942	-0.257005	-0.128382
H115	H	0.748709	-0.232716	-0.173701
H116	H	0.915012	-0.330942	-0.073715
N117	N	0.822997	-0.465497	0.133952
N118	N	0.800645	-0.410087	0.178857
H119	H	0.776434	-0.426200	0.224663
N120	N	0.802120	0.265620	0.422835
N121	N	0.848520	0.284256	0.380282
H122	H	0.841966	0.339289	0.352777
H123	H	0.734836	0.214977	0.665880
N124	N	0.915976	-0.003998	0.341813
N125	N	0.915036	-0.081392	0.333319
H126	H	0.949109	-0.122573	0.360812
N127	N	0.382997	0.211852	-0.102338
N128	N	0.345908	0.255071	-0.147490
H129	H	0.368203	0.290924	-0.183975
H130	H	0.837050	-0.027002	0.569047
N131	N	0.170326	0.108727	-0.133575
N132	N	0.137996	0.108157	-0.192513
H133	H	0.164137	0.108616	-0.240141
H134	H	0.837042	-0.027007	0.430755
N135	N	0.915926	-0.004054	0.657887
N136	N	0.914875	-0.081428	0.666409
H137	H	0.948854	-0.122681	0.638859
N138	N	0.023780	0.106146	0.133306
N139	N	-0.040906	0.105006	0.133292
H140	H	-0.067065	0.104556	0.180909
