data_functionalizedCrystal
_audit_creation_method	'MofGen! by Chris Wilmer'
_symmetry_space_group_name_H-M	'P1'
_symmetry_Int_Tables_number	1
_symmetry_cell_setting	triclinic
loop_
_symmetry_equiv_pos_as_xyz
  x,y,z
_cell_length_a	16.109302
_cell_length_b	14.519709
_cell_length_c	14.586319
_cell_angle_alpha	89.995260
_cell_angle_beta	89.994552
_cell_angle_gamma	83.570963
loop_
_atom_site_label
_atom_site_type_symbol
_atom_site_fract_x
_atom_site_fract_y
_atom_site_fract_z
O1	O	1.103336	0.118543	-0.076283
O2	O	0.861299	0.133295	-0.076277
O3	O	0.988735	-0.008333	-0.076272
O4	O	0.975900	0.260171	-0.076288
O5	O	0.988726	-0.008335	0.076209
O6	O	0.861290	0.133292	0.076204
O7	O	1.103327	0.118541	0.076197
Cu8	Cu	0.982308	0.125917	0.090124
Cu9	Cu	0.982318	0.125919	-0.090203
O10	O	0.975891	0.260169	0.076193
C11	C	0.830319	0.132696	-0.000035
C12	C	0.738021	0.130904	-0.000032
C13	C	0.525668	0.126760	0.083076
C14	C	0.438945	0.125066	0.083073
C15	C	0.438965	0.125073	-0.083170
C16	C	0.525687	0.126760	-0.083166
C17	C	0.569036	0.127608	-0.000040
C18	C	0.395590	0.124228	-0.000047
C19	C	0.301562	0.122391	-0.000051
C20	C	0.663071	0.129442	-0.000036
C21	C	0.988132	-0.042693	-0.000031
C22	C	0.986340	-0.145070	-0.000031
C23	C	0.979741	-0.519952	-0.000054
C24	C	0.981574	-0.415648	-0.000048
C25	C	0.983040	-0.332514	-0.000042
C26	C	0.984873	-0.228204	-0.000037
C27	C	1.134307	0.119140	-0.000046
C28	C	1.226605	0.120932	-0.000055
C29	C	0.976494	0.294528	-0.000050
C30	C	0.978286	0.396906	-0.000056
N31	N	0.982306	0.125914	0.216955
N32	N	0.982326	0.125914	-0.217034
C33	C	1.038754	0.063222	0.451964
C34	C	1.038756	0.063220	0.547945
C35	C	0.925873	0.188609	0.547950
C36	C	0.925867	0.188606	0.451971
C37	C	0.982312	0.125914	0.403980
C38	C	0.982320	0.125914	0.595941
C39	C	0.982323	0.125913	0.700008
C40	C	0.982309	0.125914	0.299906
H41	H	0.403660	0.124384	-0.150848
H42	H	0.560998	0.127448	-0.150853
C43	C	1.100065	-0.004951	0.400024
C44	C	1.149479	-0.059871	0.462595
C45	C	1.205960	-0.122694	0.414785
H46	H	1.134801	0.028123	0.362569
H47	H	1.070120	-0.043402	0.362613
H48	H	1.179422	-0.021425	0.499990
H49	H	1.114766	-0.092965	0.500052
H50	H	1.176014	-0.161145	0.377373
H51	H	1.240689	-0.089612	0.377331
H52	H	1.239488	-0.159970	0.457231
C53	C	1.099905	-0.004950	0.600090
C54	C	1.055541	-0.061438	0.655185
C55	C	1.111844	-0.124259	0.703223
H56	H	1.134583	0.028128	0.637599
H57	H	1.133505	-0.042338	0.557788
H58	H	1.021954	-0.024054	0.697482
H59	H	1.020865	-0.094537	0.617698
H60	H	1.145445	-0.161647	0.660921
H61	H	1.146520	-0.091173	0.740727
H62	H	1.081751	-0.162599	0.740604
C63	C	0.864692	0.256638	0.600223
C64	C	0.876792	0.243242	0.694548
C65	C	0.820456	0.305905	0.742728
H66	H	0.809153	0.246667	0.584617
H67	H	0.873819	0.318209	0.584535
H68	H	0.867658	0.181686	0.710230
H69	H	0.932319	0.253221	0.710181
H70	H	0.829583	0.367477	0.727040
H71	H	0.764921	0.295930	0.727115
H72	H	0.828663	0.296831	0.806732
C73	C	0.864548	0.256779	0.400033
C74	C	0.815136	0.311705	0.462601
C75	C	0.758648	0.374518	0.414790
H76	H	0.829812	0.223697	0.362598
H77	H	0.894488	0.295228	0.362600
H78	H	0.785198	0.273262	0.500019
H79	H	0.849849	0.344807	0.500038
H80	H	0.788589	0.412966	0.377357
H81	H	0.723918	0.341428	0.377357
H82	H	0.725121	0.411798	0.457235
H83	H	0.560960	0.127450	0.150763
H84	H	0.403638	0.124376	0.150755
