data_functionalizedCrystal
_audit_creation_method	'MofGen! by Chris Wilmer'
_symmetry_space_group_name_H-M	'P1'
_symmetry_Int_Tables_number	1
_symmetry_cell_setting	triclinic
loop_
_symmetry_equiv_pos_as_xyz
  x,y,z
_cell_length_a	10.723023
_cell_length_b	10.723023
_cell_length_c	9.198806
_cell_angle_alpha	89.997827
_cell_angle_beta	89.996513
_cell_angle_gamma	84.467548
loop_
_atom_site_label
_atom_site_type_symbol
_atom_site_fract_x
_atom_site_fract_y
_atom_site_fract_z
O1	O	1.657188	0.175020	-0.120874
O2	O	2.157188	0.675020	0.379126
O3	O	1.294035	0.191774	-0.120880
O4	O	1.794035	0.691774	0.379120
O5	O	1.483989	0.001821	-0.120871
O6	O	1.983989	0.501821	0.379129
O7	O	1.467234	0.364973	-0.120883
O8	O	1.967234	0.864973	0.379117
O9	O	1.483974	0.001820	0.120914
O10	O	1.983974	0.501820	0.620914
O11	O	1.294020	0.191774	0.120905
O12	O	1.794020	0.691774	0.620905
O13	O	1.657173	0.175019	0.120911
O14	O	2.157173	0.675019	0.620911
Cu15	Cu	1.475595	0.183396	0.142985
Cu16	Cu	1.975595	0.683396	0.642985
Cu17	Cu	1.475613	0.183397	-0.142954
Cu18	Cu	1.975613	0.683397	0.357046
O19	O	1.467219	0.364973	0.120902
O20	O	1.967219	0.864973	0.620902
C21	C	1.247528	0.190555	0.000012
C22	C	1.747528	0.690555	0.500012
C23	C	1.108974	0.186908	0.000010
C24	C	1.608974	0.686908	0.500010
C25	C	1.047194	0.185281	0.125260
C26	C	1.547194	0.685281	0.625260
C27	C	0.903991	0.181512	0.125261
C28	C	1.403991	0.681512	0.625261
C29	C	1.482762	-0.044679	0.000020
C30	C	1.982762	0.455321	0.500020
C31	C	1.479115	-0.183233	0.000015
C32	C	1.979115	0.316767	0.500015
C33	C	1.477497	-0.244999	-0.125239
C34	C	1.977497	0.255001	0.374761
C35	C	1.473727	-0.388202	-0.125246
C36	C	1.973727	0.111798	0.374754
C37	C	1.703680	0.176239	0.000016
C38	C	2.203680	0.676239	0.500016
C39	C	1.842234	0.179886	0.000009
C40	C	2.342234	0.679886	0.500009
C41	C	1.468446	0.411473	0.000008
C42	C	1.968446	0.911473	0.500008
C43	C	1.472093	0.550027	0.000003
C44	C	1.972093	1.050027	0.500003
N45	N	1.475592	0.183395	0.344099
N46	N	1.975592	0.683395	0.844099
N47	N	1.475626	0.183388	-0.344068
N48	N	1.975626	0.683388	0.155932
C49	C	1.555347	0.103288	0.416300
C50	C	2.055347	0.603288	0.916300
C51	C	1.555367	0.103283	0.583712
C52	C	2.055367	0.603283	1.083712
H53	H	0.895354	0.181292	-0.107229
H54	H	1.395354	0.681292	0.392771
H55	H	1.055849	0.185506	-0.107222
H56	H	1.555849	0.685506	0.392778
H57	H	1.473491	-0.396865	0.107243
H58	H	1.973491	0.103135	0.607243
H59	H	1.623654	0.034704	0.645801
H60	H	2.123654	0.534704	1.145801
O61	O	1.477271	-0.253614	0.142058
O62	O	1.977271	0.246386	0.642058
H63	H	1.390811	-0.302552	0.148272
H64	H	1.890811	0.197448	0.648272
O65	O	1.479354	-0.174630	-0.267289
O66	O	1.979354	0.325370	0.232711
H67	H	1.482030	-0.073196	-0.244991
H68	H	1.982030	0.426804	0.255009
O69	O	1.471877	-0.458544	-0.267304
O70	O	1.971877	0.041456	0.232696
H71	H	1.469195	-0.559980	-0.245018
H72	H	1.969195	-0.059980	0.254982
O73	O	1.645748	0.012401	0.334028
O74	O	2.145748	0.512401	0.834028
H75	H	1.631533	0.026654	0.215446
H76	H	2.131533	0.526654	0.715446
H77	H	1.407345	0.251980	0.593852
H78	H	1.907345	0.751980	1.093852
H79	H	1.407319	0.251971	0.406224
H80	H	1.907319	0.751971	0.906224
H81	H	1.100320	0.186673	0.232492
H82	H	1.600320	0.686673	0.732492
H83	H	0.850861	0.180120	0.232493
H84	H	1.350861	0.680120	0.732493
