data_functionalizedCrystal
_audit_creation_method	'MofGen! by Chris Wilmer'
_symmetry_space_group_name_H-M	'P1'
_symmetry_Int_Tables_number	1
_symmetry_cell_setting	triclinic
loop_
_symmetry_equiv_pos_as_xyz
  x,y,z
_cell_length_a	21.295418
_cell_length_b	21.295417
_cell_length_c	12.759393
_cell_angle_alpha	90.037048
_cell_angle_beta	90.041937
_cell_angle_gamma	90.045515
loop_
_atom_site_label
_atom_site_type_symbol
_atom_site_fract_x
_atom_site_fract_y
_atom_site_fract_z
Zn1	Zn	0.962348	-0.250313	0.594561
Zn2	Zn	1.462348	0.249687	1.094561
Zn3	Zn	0.962255	-0.355595	0.418861
Zn4	Zn	1.462255	0.144405	0.918861
Zn5	Zn	0.857075	-0.250373	0.418832
Zn6	Zn	1.357075	0.249627	0.918832
Zn7	Zn	0.857042	-0.355577	0.594434
Zn8	Zn	1.357042	0.144423	1.094434
O9	O	0.909680	-0.302964	0.506672
O10	O	1.409680	0.197036	1.006672
O11	O	1.050425	-0.264261	0.571320
O12	O	1.550425	0.235739	1.071320
O13	O	0.948278	-0.341669	0.271836
O14	O	1.448278	0.158331	0.771836
O15	O	0.871092	-0.162275	0.442184
O16	O	1.371092	0.337725	0.942184
O17	O	1.050357	-0.341612	0.442234
O18	O	1.550357	0.158388	0.942234
O19	O	0.948436	-0.162231	0.571291
O20	O	1.448436	0.337769	1.071291
O21	O	0.871002	-0.264363	0.271815
O22	O	1.371002	0.235637	0.771815
O23	O	0.768981	-0.264346	0.442060
O24	O	1.268981	0.235654	0.942060
O25	O	0.871037	-0.341581	0.741472
O26	O	1.371037	0.158419	1.241472
O27	O	0.768957	-0.341639	0.571075
O28	O	1.268957	0.158361	1.071075
O29	O	0.948404	-0.264244	0.741565
O30	O	1.448404	0.235756	1.241565
O31	O	0.948246	-0.443682	0.442110
O32	O	1.448246	0.056318	0.942110
O33	O	0.870947	-0.443669	0.571103
O34	O	1.370947	0.056331	1.071103
C35	C	0.746128	-0.302998	0.506551
C36	C	1.246128	0.197002	1.006551
C37	C	0.676160	-0.303027	0.506524
C38	C	1.176160	0.196973	1.006524
C39	C	0.643298	-0.343327	0.573601
C40	C	1.143298	0.156673	1.073601
C41	C	0.577555	-0.343311	0.573649
C42	C	1.077555	0.156689	1.073649
C43	C	0.544678	-0.303003	0.506600
C44	C	1.044678	0.196997	1.006600
C45	C	0.577548	-0.262695	0.439518
C46	C	1.077548	0.237305	0.939518
C47	C	0.643290	-0.262707	0.439480
C48	C	1.143290	0.237293	0.939480
N49	N	0.441404	-0.298091	0.414709
N50	N	0.941404	0.201909	0.914709
N51	N	0.378952	-0.298083	0.414748
N52	N	0.878952	0.201917	0.914748
C53	C	0.346603	-0.302962	0.506711
C54	C	0.846603	0.197038	1.006711
N55	N	0.379065	-0.307862	0.598637
N56	N	0.879065	0.192138	1.098637
N57	N	0.441522	-0.307873	0.598597
N58	N	0.941522	0.192127	1.098597
C59	C	0.473392	-0.302985	0.506634
C60	C	0.973392	0.197015	1.006634
C61	C	0.242455	-0.343248	0.573845
C62	C	0.742455	0.156752	1.073845
C63	C	0.176711	-0.343228	0.573894
C64	C	0.676711	0.156772	1.073894
C65	C	0.176706	-0.262614	0.439754
C66	C	0.676706	0.237386	0.939754
C67	C	0.242448	-0.262631	0.439715
C68	C	0.742448	0.237369	0.939715
C69	C	0.275319	-0.302951	0.506759
C70	C	0.775319	0.197049	1.006759
C71	C	0.909600	-0.466516	0.506619
C72	C	1.409600	0.033484	1.006619
C73	C	0.909623	-0.536484	0.506631
C74	C	1.409623	-0.036484	1.006631
C75	C	0.949873	-0.569271	0.573906
C76	C	1.449873	-0.069271	1.073906
C77	C	0.949895	-0.635013	0.573931
C78	C	1.449895	-0.135013	1.073931
C79	C	0.909674	-0.667967	0.506664
C80	C	1.409674	-0.167967	1.006664
C81	C	0.869416	-0.635172	0.439385
C82	C	1.369416	-0.135172	0.939385
C83	C	0.869391	-0.569431	0.439369
C84	C	1.369391	-0.069431	0.939369
N85	N	0.904916	-0.771236	0.414715
N86	N	1.404916	-0.271236	0.914715
N87	N	0.904944	-0.833688	0.414734
N88	N	1.404944	-0.333688	0.914734
C89	C	0.909748	-0.866041	0.506712
C90	C	1.409748	-0.366041	1.006712
N91	N	0.914534	-0.833584	0.598673
N92	N	1.414534	-0.333584	1.098673
N93	N	0.914510	-0.771127	0.598653
N94	N	1.414510	-0.271127	1.098653
C95	C	0.909697	-0.739252	0.506675
C96	C	1.409697	-0.239252	1.006675
C97	C	0.950024	-0.970113	0.574020
C98	C	1.450024	-0.470113	1.074020
C99	C	0.950042	-1.035857	0.574048
C100	C	1.450042	-0.535857	1.074048
C101	C	0.869566	-1.036015	0.439492
C102	C	1.369566	-0.536015	0.939492
C103	C	0.869545	-0.970272	0.439474
C104	C	1.369545	-0.470272	0.939474
C105	C	0.909777	-0.937326	0.506736
C106	C	1.409777	-0.437326	1.006736
C107	C	1.073870	-0.302932	0.506794
C108	C	1.573870	0.197068	1.006794
C109	C	1.143839	-0.302918	0.506846
C110	C	1.643839	0.197082	1.006846
C111	C	0.909727	-0.302904	0.780706
C112	C	1.409727	0.197096	1.280706
C113	C	0.909747	-0.302878	0.897482
C114	C	1.409747	0.197122	1.397482
C115	C	0.909778	-0.138774	0.506748
C116	C	1.409778	0.361226	1.006748
C117	C	0.909819	-0.068806	0.506781
C118	C	1.409819	0.431194	1.006781
C119	C	0.909669	-0.302979	0.233705
C120	C	1.409669	0.197021	0.733705
C121	C	0.909771	-0.302828	0.116929
C122	C	1.409771	0.197172	0.616929
C123	C	0.950036	-0.262602	0.952395
C124	C	1.450036	0.237398	1.452395
C125	C	0.950046	-0.262575	1.062119
C126	C	1.450046	0.237425	1.562119
C127	C	0.869478	-0.343105	1.062009
C128	C	1.369478	0.156895	1.562009
C129	C	0.869465	-0.343129	0.952286
C130	C	1.369465	0.156871	1.452286
H131	H	0.670046	-0.229888	0.384858
H132	H	1.170046	0.270112	0.884858
H133	H	0.836653	-0.375926	0.907576
H134	H	1.336653	0.124074	1.407576
F135	F	0.992689	-0.534210	0.645498
F136	F	1.492689	-0.034210	1.145498
H137	H	0.836772	-0.943576	0.384688
H138	H	1.336772	-0.443576	0.884688
H139	H	0.670057	-0.376158	0.628196
H140	H	1.170057	0.123842	1.128196
H141	H	0.982834	-0.229826	0.907776
H142	H	1.482834	0.270174	1.407776
F143	F	0.992931	-0.219712	1.120556
F144	F	1.492931	0.280288	1.620556
H145	H	0.550793	-0.376128	0.628275
H146	H	1.050793	0.123872	1.128275
F147	F	0.826612	-0.385943	1.120344
F148	F	1.326612	0.114057	1.620344
H149	H	0.982782	-0.943287	0.628793
H150	H	1.482782	-0.443287	1.128793
H151	H	0.550775	-0.229874	0.384928
H152	H	1.050775	0.270126	0.884928
F153	F	0.992739	-0.669914	0.645532
F154	F	1.492739	-0.169914	1.145532
F155	F	0.277441	-0.386156	0.645203
F156	F	0.777441	0.113844	1.145203
F157	F	0.141737	-0.386120	0.645297
F158	F	0.641737	0.113880	1.145297
F159	F	0.141720	-0.219711	0.368401
F160	F	0.641720	0.280289	0.868401
H161	H	0.269205	-0.229817	0.385088
H162	H	0.769205	0.270183	0.885088
H163	H	0.836667	-0.662007	0.384618
H164	H	1.336667	-0.162007	0.884618
H165	H	0.836614	-0.542735	0.384585
H166	H	1.336614	-0.042735	0.884585
F167	F	0.992877	-1.070751	0.645665
F168	F	1.492877	-0.570751	1.145665
H169	H	0.836813	-1.062845	0.384728
H170	H	1.336813	-0.562845	0.884728
