data_functionalizedCrystal
_audit_creation_method	'MofGen! by Chris Wilmer'
_symmetry_space_group_name_H-M	'P1'
_symmetry_Int_Tables_number	1
_symmetry_cell_setting	triclinic
loop_
_symmetry_equiv_pos_as_xyz
  x,y,z
_cell_length_a	27.732048
_cell_length_b	27.732048
_cell_length_c	26.210047
_cell_angle_alpha	90.003465
_cell_angle_beta	89.999521
_cell_angle_gamma	97.357345
loop_
_atom_site_label
_atom_site_type_symbol
_atom_site_fract_x
_atom_site_fract_y
_atom_site_fract_z
O1	O	0.057510	-0.640931	-0.042369
O2	O	0.390843	-0.307598	0.290965
O3	O	0.724177	0.025736	0.624298
O4	O	0.066256	-0.500138	-0.042385
O5	O	0.399589	-0.166804	0.290948
O6	O	0.732922	0.166529	0.624282
O7	O	-0.008514	-0.574907	-0.042367
O8	O	0.324819	-0.241574	0.290967
O9	O	0.658153	0.091760	0.624300
O10	O	0.132279	-0.566162	-0.042387
O11	O	0.465613	-0.232828	0.290946
O12	O	0.798946	0.100505	0.624280
O13	O	-0.008502	-0.574893	0.042491
O14	O	0.324831	-0.241559	0.375825
O15	O	0.658164	0.091774	0.709158
O16	O	0.066267	-0.500123	0.042473
O17	O	0.399601	-0.166790	0.375806
O18	O	0.732934	0.166543	0.709140
O19	O	0.057522	-0.640917	0.042489
O20	O	0.390855	-0.307583	0.375823
O21	O	0.724188	0.025750	0.709156
Cu22	Cu	0.061896	-0.570519	0.050229
Cu23	Cu	0.395229	-0.237185	0.383563
Cu24	Cu	0.728562	0.096148	0.716896
Cu25	Cu	0.061882	-0.570536	-0.050125
Cu26	Cu	0.395215	-0.237202	0.283208
Cu27	Cu	0.728548	0.096131	0.616542
O28	O	0.132291	-0.566147	0.042471
O29	O	0.465625	-0.232814	0.375804
O30	O	0.798958	0.100519	0.709138
C31	C	0.066078	-0.482124	0.000042
C32	C	0.399411	-0.148790	0.333376
C33	C	0.732744	0.184543	0.666709
C34	C	0.065525	-0.428469	0.000036
C35	C	0.398858	-0.095135	0.333370
C36	C	0.732192	0.238198	0.666703
C37	C	-0.026515	-0.574716	0.000064
C38	C	0.306818	-0.241383	0.333397
C39	C	0.640152	0.091950	0.666731
C40	C	-0.080170	-0.574164	0.000068
C41	C	0.253163	-0.240830	0.333401
C42	C	0.586497	0.092503	0.666735
N43	N	0.061905	-0.570510	0.120813
N44	N	0.395238	-0.237177	0.454147
N45	N	0.728572	0.096156	0.787480
C46	C	-0.418985	-0.614867	0.000046
C47	C	-0.085652	-0.281534	0.333380
C48	C	0.247682	0.051799	0.666713
C49	C	-0.620645	-0.612816	0.000039
C50	C	-0.287311	-0.279483	0.333372
C51	C	0.046022	0.053850	0.666706
O52	O	-0.651900	-0.650037	0.000021
O53	O	-0.318567	-0.316704	0.333354
O54	O	0.014766	0.016630	0.666688
N55	N	-0.639768	-0.568481	0.000034
N56	N	-0.306435	-0.235148	0.333368
N57	N	0.026898	0.098186	0.666701
C58	C	-0.608474	-0.524656	0.000028
C59	C	-0.275140	-0.191322	0.333362
C60	C	0.058193	0.142011	0.666695
O61	O	-0.629367	-0.486899	0.000019
O62	O	-0.296033	-0.153565	0.333352
O63	O	0.037300	0.179768	0.666686
C64	C	-0.406815	-0.526707	0.000032
C65	C	-0.073482	-0.193374	0.333365
C66	C	0.259852	0.139960	0.666699
C67	C	-0.387694	-0.571045	0.000042
C68	C	-0.054361	-0.237712	0.333375
C69	C	0.278972	0.095622	0.666709
C70	C	-0.399864	-0.659202	0.000056
C71	C	-0.066530	-0.325868	0.333389
C72	C	0.266803	0.007465	0.666722
C73	C	-0.349452	-0.659714	0.000060
C74	C	-0.016118	-0.326381	0.333394
C75	C	0.317215	0.006953	0.666727
C76	C	-0.318161	-0.615892	0.000056
C77	C	0.015172	-0.282559	0.333389
C78	C	0.348506	0.050775	0.666722
C79	C	-0.337282	-0.571557	0.000046
C80	C	-0.003949	-0.238224	0.333380
C81	C	0.329384	0.095109	0.666713
C82	C	-0.375521	-0.482882	0.000022
C83	C	-0.042188	-0.149549	0.333356
C84	C	0.291145	0.183785	0.666689
C85	C	-0.325104	-0.483399	0.000022
C86	C	0.008229	-0.150066	0.333355
C87	C	0.341563	0.183268	0.666689
C88	C	-0.305983	-0.527737	0.000032
C89	C	0.027350	-0.194404	0.333365
C90	C	0.360683	0.138930	0.666698
C91	C	-0.255580	-0.528247	0.000046
C92	C	0.077754	-0.194914	0.333380
C93	C	0.411087	0.138419	0.666713
N94	N	-0.236456	-0.572583	0.000051
N95	N	0.096877	-0.239249	0.333384
N96	N	0.430211	0.094084	0.666718
C97	C	-0.267747	-0.616405	0.000056
C98	C	0.065587	-0.283072	0.333389
C99	C	0.398920	0.050262	0.666722
C100	C	-0.714348	-0.523582	0.000027
C101	C	-0.381014	-0.190248	0.333361
C102	C	-0.047681	0.143085	0.666694
C103	C	-0.764762	-0.523069	0.000027
C104	C	-0.431429	-0.189735	0.333361
C105	C	-0.098096	0.143598	0.666694
C106	C	-0.776930	-0.611230	0.000037
C107	C	-0.443596	-0.277896	0.333371
C108	C	-0.110263	0.055437	0.666704
C109	C	-0.726514	-0.611742	0.000041
C110	C	-0.393181	-0.278409	0.333374
C111	C	-0.059848	0.054925	0.666708
C112	C	-0.695224	-0.567917	0.000032
C113	C	-0.361891	-0.234583	0.333365
C114	C	-0.028557	0.098750	0.666699
C115	C	-0.161878	-0.617477	0.000066
C116	C	0.171456	-0.284144	0.333399
C117	C	0.504789	0.049189	0.666733
C118	C	-0.111461	-0.617986	0.000073
C119	C	0.221873	-0.284652	0.333406
C120	C	0.555206	0.048681	0.666739
C121	C	-0.099298	-0.529825	0.000060
C122	C	0.234036	-0.196492	0.333393
C123	C	0.567369	0.136842	0.666727
C124	C	-0.149710	-0.529316	0.000056
C125	C	0.183623	-0.195983	0.333389
C126	C	0.516957	0.137350	0.666723
C127	C	-0.180999	-0.573147	0.000057
C128	C	0.152334	-0.239813	0.333391
C129	C	0.485667	0.093520	0.666724
O130	O	-0.224296	-0.491047	0.000059
O131	O	0.109038	-0.157713	0.333392
O132	O	0.442371	0.175620	0.666725
O133	O	-0.246844	-0.654156	0.000054
O134	O	0.086489	-0.320823	0.333387
O135	O	0.419823	0.012510	0.666720
C136	C	-0.469397	-0.614355	0.000042
C137	C	-0.136064	-0.281022	0.333375
C138	C	0.197270	0.052312	0.666709
C139	C	-0.488518	-0.570021	0.000033
C140	C	-0.155185	-0.236687	0.333366
C141	C	0.178148	0.096646	0.666699
C142	C	-0.457228	-0.526198	0.000028
C143	C	-0.123894	-0.192865	0.333361
C144	C	0.209439	0.140468	0.666695
C145	C	-0.538933	-0.569508	0.000033
C146	C	-0.205599	-0.236174	0.333366
C147	C	0.127734	0.097159	0.666699
C148	C	-0.570223	-0.613330	0.000037
C149	C	-0.236890	-0.279996	0.333371
C150	C	0.096443	0.053337	0.666704
C151	C	-0.551100	-0.657665	0.000042
C152	C	-0.217766	-0.324332	0.333375
C153	C	0.115567	0.009002	0.666709
C154	C	-0.500688	-0.658177	0.000046
C155	C	-0.167354	-0.324844	0.333380
C156	C	0.165979	0.008489	0.666713
C157	C	-0.476351	-0.481863	0.000023
C158	C	-0.143018	-0.148530	0.333357
C159	C	0.190315	0.184803	0.666690
C160	C	-0.526764	-0.481355	0.000019
C161	C	-0.193430	-0.148021	0.333353
C162	C	0.139903	0.185312	0.666686
C163	C	-0.558054	-0.525177	0.000024
C164	C	-0.224721	-0.191843	0.333357
C165	C	0.108612	0.141490	0.666691
C166	C	0.150292	-0.566338	0.000040
C167	C	0.483626	-0.233005	0.333373
C168	C	0.816959	0.100329	0.666706
C169	C	0.203947	-0.566891	0.000032
C170	C	0.537280	-0.233557	0.333365
C171	C	0.870614	0.099776	0.666699
C172	C	0.057699	-0.658931	0.000061
C173	C	0.391033	-0.325598	0.333394
C174	C	0.724366	0.007736	0.666728
C175	C	0.058252	-0.712586	0.000064
C176	C	0.391586	-0.379252	0.333397
C177	C	0.724919	-0.045919	0.666730
C178	C	0.106229	-0.089654	0.000053
C179	C	0.439562	0.243680	0.333386
C180	C	0.772895	0.577013	0.666719
C181	C	0.104178	0.112006	0.000057
C182	C	0.437511	0.445339	0.333391
C183	C	0.770844	0.778673	0.666724
O184	O	0.141398	0.143262	0.000074
O185	O	0.474732	0.476595	0.333408
O186	O	0.808065	0.809928	0.666741
N187	N	0.059843	0.131130	0.000063
N188	N	0.393176	0.464463	0.333396
N189	N	0.726509	0.797796	0.666730
C190	C	0.016017	0.099835	0.000071
C191	C	0.349350	0.433168	0.333404
C192	C	0.682684	0.766502	0.666737
O193	O	-0.021740	0.120728	0.000081
O194	O	0.311593	0.454062	0.333414
O195	O	0.644927	0.787395	0.666747
C196	C	0.018068	-0.101824	0.000069
C197	C	0.351402	0.231510	0.333403
C198	C	0.684735	0.564843	0.666736
C199	C	0.062407	-0.120944	0.000059
C200	C	0.395740	0.212389	0.333392
C201	C	0.729073	0.545722	0.666725
C202	C	0.150563	-0.108775	0.000043
C203	C	0.483897	0.224558	0.333376
C204	C	0.817230	0.557892	0.666709
C205	C	0.151076	-0.159187	0.000039
C206	C	0.484409	0.174147	0.333372
C207	C	0.817742	0.507480	0.666705
C208	C	0.107253	-0.190477	0.000045
C209	C	0.440587	0.142856	0.333378
C210	C	0.773920	0.476189	0.666711
C211	C	0.062919	-0.171356	0.000055
C212	C	0.396252	0.161977	0.333388
C213	C	0.729585	0.495310	0.666721
C214	C	-0.025757	-0.133117	0.000081
C215	C	0.307577	0.200216	0.333414
C216	C	0.640910	0.533549	0.666747
C217	C	-0.025240	-0.183535	0.000082
C218	C	0.308094	0.149799	0.333415
C219	C	0.641427	0.483132	0.666748
C220	C	0.019098	-0.202655	0.000071
C221	C	0.352432	0.130678	0.333404
C222	C	0.685765	0.464011	0.666738
C223	C	0.019609	-0.253059	0.000057
C224	C	0.352942	0.080275	0.333390
C225	C	0.686276	0.413608	0.666724
N226	N	0.063944	-0.272183	0.000051
N227	N	0.397277	0.061151	0.333385
N228	N	0.730611	0.394484	0.666718
C229	C	0.107766	-0.240892	0.000045
C230	C	0.441100	0.092441	0.333379
C231	C	0.774433	0.425775	0.666712
C232	C	0.014943	0.205709	0.000070
C233	C	0.348276	0.539043	0.333404
C234	C	0.681610	0.872376	0.666737
C235	C	0.014430	0.256124	0.000070
C236	C	0.347763	0.589457	0.333403
C237	C	0.681097	0.922790	0.666736
C238	C	0.102591	0.268291	0.000057
C239	C	0.435924	0.601624	0.333391
C240	C	0.769258	0.934958	0.666724
C241	C	0.103104	0.217876	0.000054
C242	C	0.436437	0.551209	0.333388
C243	C	0.769770	0.884542	0.666721
C244	C	0.059278	0.186585	0.000065
C245	C	0.392612	0.519919	0.333398
C246	C	0.725945	0.853252	0.666731
C247	C	0.108839	-0.346761	0.000036
C248	C	0.442172	-0.013428	0.333370
C249	C	0.775505	0.319906	0.666703
C250	C	0.109347	-0.397178	0.000030
C251	C	0.442681	-0.063845	0.333364
C252	C	0.776014	0.269489	0.666697
C253	C	0.021186	-0.409341	0.000045
C254	C	0.354520	-0.076008	0.333379
C255	C	0.687853	0.257326	0.666712
C256	C	0.020678	-0.358929	0.000049
C257	C	0.354011	-0.025595	0.333382
C258	C	0.687344	0.307738	0.666715
C259	C	0.064508	-0.327639	0.000046
C260	C	0.397841	0.005694	0.333379
C261	C	0.731175	0.339027	0.666713
O262	O	-0.017592	-0.284343	0.000046
O263	O	0.315741	0.048991	0.333379
O264	O	0.649075	0.382324	0.666713
O265	O	0.145518	-0.261794	0.000047
O266	O	0.478851	0.071539	0.333380
O267	O	0.812184	0.404872	0.666713
C268	C	0.105716	-0.039242	0.000057
C269	C	0.439050	0.294092	0.333390
C270	C	0.772383	0.627425	0.666723
C271	C	0.061382	-0.020120	0.000067
C272	C	0.394715	0.313213	0.333400
C273	C	0.728049	0.646546	0.666733
C274	C	0.017560	-0.051411	0.000073
C275	C	0.350893	0.281922	0.333406
C276	C	0.684226	0.615256	0.666740
C277	C	0.060869	0.030294	0.000066
C278	C	0.394202	0.363627	0.333399
C279	C	0.727536	0.696961	0.666733
C280	C	0.104691	0.061585	0.000060
C281	C	0.438025	0.394918	0.333393
C282	C	0.771358	0.728251	0.666727
C283	C	0.149026	0.042461	0.000054
C284	C	0.482360	0.375794	0.333388
C285	C	0.815693	0.709128	0.666721
C286	C	0.149539	-0.007951	0.000050
C287	C	0.482872	0.325382	0.333384
C288	C	0.816205	0.658716	0.666717
C289	C	-0.026775	-0.032287	0.000078
C290	C	0.306558	0.301046	0.333412
C291	C	0.639891	0.634379	0.666745
C292	C	-0.027284	0.018125	0.000082
C293	C	0.306049	0.351459	0.333415
C294	C	0.639383	0.684792	0.666749
C295	C	0.016538	0.049416	0.000076
C296	C	0.349871	0.382749	0.333409
C297	C	0.683205	0.716083	0.666742
N298	N	0.061868	-0.570548	-0.120709
N299	N	0.395202	-0.237215	0.212624
N300	N	0.728535	0.096119	0.545958
C301	C	0.028781	-0.603640	0.473336
C302	C	0.362115	-0.270307	0.806669
C303	C	0.695448	0.063026	1.140002
C304	C	0.028774	-0.603651	0.686994
C305	C	0.362108	-0.270318	1.020327
C306	C	0.695441	0.063016	1.353661
O307	O	0.000614	-0.631801	0.714623
O308	O	0.333947	-0.298467	1.047956
O309	O	0.667280	0.034866	1.381290
N310	N	0.061871	-0.570538	0.713707
N311	N	0.395204	-0.237205	1.047041
N312	N	0.728538	0.096128	1.380374
C313	C	0.094970	-0.537419	0.687003
C314	C	0.428303	-0.204085	1.020336
C315	C	0.761636	0.129248	1.353669
O316	O	0.123117	-0.509251	0.714626
O317	O	0.456450	-0.175918	1.047960
O318	O	0.789784	0.157415	1.381293
C319	C	0.094974	-0.537406	0.473345
C320	C	0.428307	-0.204073	0.806678
C321	C	0.761640	0.129261	1.140012
C322	C	0.061878	-0.570524	0.446635
C323	C	0.395212	-0.237191	0.779968
C324	C	0.728545	0.096143	1.113301
C325	C	-0.004312	-0.636755	0.446625
C326	C	0.329021	-0.303422	0.779958
C327	C	0.662355	0.029912	1.113292
C328	C	-0.004308	-0.636754	0.393214
C329	C	0.329025	-0.303421	0.726547
C330	C	0.662358	0.029913	1.059880
C331	C	0.028789	-0.603638	0.366513
C332	C	0.362122	-0.270304	0.699846
C333	C	0.695455	0.063029	1.033179
C334	C	0.061882	-0.570523	0.393223
C335	C	0.395215	-0.237189	0.726556
C336	C	0.728549	0.096144	1.059890
C337	C	0.128070	-0.504284	0.446641
C338	C	0.461403	-0.170951	0.779975
C339	C	0.794736	0.162382	1.113308
C340	C	0.128067	-0.504283	0.393223
C341	C	0.461400	-0.170950	0.726557
C342	C	0.794734	0.162383	1.059890
C343	C	0.094971	-0.537401	0.366513
C344	C	0.428305	-0.204068	0.699846
C345	C	0.761638	0.129265	1.033180
C346	C	0.094983	-0.537405	0.313111
C347	C	0.428316	-0.204072	0.646444
C348	C	0.761649	0.129261	0.979777
N349	N	0.061886	-0.570518	0.286397
N350	N	0.395219	-0.237185	0.619731
N351	N	0.728553	0.096149	0.953064
C352	C	0.028789	-0.603634	0.313098
C353	C	0.362122	-0.270301	0.646432
C354	C	0.695456	0.063033	0.979765
C355	C	0.094966	-0.537428	0.799176
C356	C	0.428299	-0.204095	1.132509
C357	C	0.761632	0.129238	1.465843
C358	C	0.094965	-0.537432	0.852590
C359	C	0.428299	-0.204099	1.185923
C360	C	0.761632	0.129235	1.519257
C361	C	0.028769	-0.603664	0.852578
C362	C	0.362103	-0.270330	1.185911
C363	C	0.695436	0.063003	1.519245
C364	C	0.028773	-0.603662	0.799163
C365	C	0.362106	-0.270329	1.132496
C366	C	0.695439	0.063005	1.465829
C367	C	0.061869	-0.570541	0.772463
C368	C	0.395202	-0.237207	1.105796
C369	C	0.728536	0.096126	1.439129
C370	C	0.028800	-0.603629	0.200931
C371	C	0.362133	-0.270296	0.534264
C372	C	0.695467	0.063037	0.867597
C373	C	0.028808	-0.603626	0.147514
C374	C	0.362141	-0.270293	0.480848
C375	C	0.695475	0.063040	0.814181
C376	C	0.095002	-0.537393	0.147531
C377	C	0.428335	-0.204060	0.480865
C378	C	0.761669	0.129274	0.814198
C379	C	0.094996	-0.537397	0.200943
C380	C	0.428329	-0.204064	0.534276
C381	C	0.761662	0.129269	0.867609
C382	C	0.061891	-0.570517	0.227641
C383	C	0.395224	-0.237184	0.560974
C384	C	0.728557	0.096149	0.894308
O385	O	0.123125	-0.509267	0.285449
O386	O	0.456458	-0.175933	0.618782
O387	O	0.789792	0.157400	0.952116
O388	O	0.000639	-0.631790	0.285466
O389	O	0.333972	-0.298457	0.618799
O390	O	0.667306	0.034877	0.952132
C391	C	0.028777	-0.603641	0.526747
C392	C	0.362111	-0.270308	0.860080
C393	C	0.695444	0.063025	1.193414
C394	C	0.061871	-0.570527	0.553457
C395	C	0.395204	-0.237193	0.886791
C396	C	0.728537	0.096140	1.220124
C397	C	0.094968	-0.537410	0.526756
C398	C	0.428301	-0.204077	0.860090
C399	C	0.761634	0.129256	1.193423
C400	C	0.061870	-0.570530	0.606872
C401	C	0.395204	-0.237197	0.940205
C402	C	0.728537	0.096136	1.273538
C403	C	0.028773	-0.603646	0.633573
C404	C	0.362107	-0.270313	0.966906
C405	C	0.695440	0.063020	1.300239
C406	C	-0.004323	-0.636759	0.606859
C407	C	0.329010	-0.303426	0.940193
C408	C	0.662343	0.029908	1.273526
C409	C	-0.004320	-0.636758	0.553448
C410	C	0.329014	-0.303424	0.886781
C411	C	0.662347	0.029909	1.220115
C412	C	0.128064	-0.504298	0.553470
C413	C	0.461398	-0.170965	0.886803
C414	C	0.794731	0.162369	1.220136
C415	C	0.128058	-0.504302	0.606881
C416	C	0.461391	-0.170969	0.940214
C417	C	0.794725	0.162365	1.273548
C418	C	0.094961	-0.537418	0.633582
C419	C	0.428294	-0.204085	0.966915
C420	C	0.761628	0.129248	1.300249
H421	H	-0.095896	-0.654093	0.000082
H422	H	0.237438	-0.320759	0.333415
H423	H	0.570771	0.012574	0.666749
N424	N	0.163767	-0.468562	0.364424
N425	N	0.497100	-0.135229	0.697757
N426	N	0.830433	0.198104	1.031091
H427	H	0.145442	-0.447299	0.342264
H428	H	0.478776	-0.113966	0.675597
H429	H	0.812109	0.219368	1.008931
H430	H	0.184722	-0.447618	0.389484
H431	H	0.518055	-0.114285	0.722817
H432	H	0.851388	0.219049	1.056151
N433	N	0.150923	0.197252	0.000050
N434	N	0.484256	0.530585	0.333383
N435	N	0.817590	0.863918	0.666716
H436	H	0.153099	0.176603	-0.031407
H437	H	0.486432	0.509936	0.301927
H438	H	0.819765	0.843270	0.635260
H439	H	0.178577	0.224754	0.000064
H440	H	0.511910	0.558087	0.333398
H441	H	0.845244	0.891420	0.666731
H442	H	-0.073812	-0.494146	0.000058
H443	H	0.259522	-0.160813	0.333391
H444	H	0.592855	0.172520	0.666725
N445	N	-0.040006	-0.672485	0.475417
N446	N	0.293328	-0.339151	0.808750
N447	N	0.626661	-0.005818	1.142084
H448	H	-0.074278	-0.667184	0.466120
H449	H	0.259056	-0.333851	0.799454
H450	H	0.592389	-0.000517	1.132787
H451	H	-0.034619	-0.706725	0.466093
H452	H	0.298714	-0.373392	0.799426
H453	H	0.632047	-0.040059	1.132760
N454	N	0.130669	-0.501709	0.770378
N455	N	0.464002	-0.168376	1.103711
N456	N	0.797335	0.164958	1.437045
H457	H	0.112348	-0.480441	0.748220
H458	H	0.445681	-0.147108	1.081553
H459	H	0.779014	0.186225	1.414886
H460	H	0.151626	-0.480769	0.795440
H461	H	0.484959	-0.147435	1.128773
H462	H	0.818293	0.185898	1.462107
N463	N	0.197833	-0.075030	0.000065
N464	N	0.531166	0.258303	0.333398
N465	N	0.864499	0.591637	0.666732
H466	H	0.225992	-0.094801	0.000068
H467	H	0.559325	0.238532	0.333401
H468	H	0.892658	0.571866	0.666735
H469	H	0.199556	-0.053838	-0.031385
H470	H	0.532890	0.279495	0.301948
H471	H	0.866223	0.612828	0.635281
N472	N	-0.328834	-0.707537	0.000056
N473	N	0.004499	-0.374204	0.333389
N474	N	0.337832	-0.040870	0.666722
H475	H	-0.292148	-0.701219	0.000054
H476	H	0.041185	-0.367886	0.333387
H477	H	0.374518	-0.034553	0.666721
H478	H	-0.340305	-0.726695	0.031513
H479	H	-0.006972	-0.393362	0.364846
H480	H	0.326361	-0.060029	0.698179
H481	H	-0.020747	0.180236	0.000079
H482	H	0.312586	0.513570	0.333412
H483	H	0.645920	0.846903	0.666745
N484	N	0.130662	-0.501714	0.881397
N485	N	0.463996	-0.168381	1.214730
N486	N	0.797329	0.164953	1.548064
H487	H	0.164933	-0.507019	0.872099
H488	H	0.498266	-0.173685	1.205433
H489	H	0.831600	0.159648	1.538766
H490	H	0.125284	-0.467468	0.872090
H491	H	0.458617	-0.134135	1.205423
H492	H	0.791951	0.199199	1.538757
H493	H	0.155019	-0.477317	0.468381
H494	H	0.488352	-0.143983	0.801715
H495	H	0.821685	0.189350	1.135048
H496	H	-0.165279	-0.493213	0.000062
H497	H	0.168055	-0.159879	0.333396
H498	H	0.501388	0.173454	0.666729
N499	N	0.196293	0.076215	0.000045
N500	N	0.529626	0.409548	0.333378
N501	N	0.862959	0.742882	0.666711
H502	H	0.189235	0.111052	0.000048
H503	H	0.522568	0.444386	0.333381
H504	H	0.855902	0.777719	0.666715
H505	H	0.215636	0.070064	0.031500
H506	H	0.548969	0.403397	0.364833
H507	H	0.882303	0.736731	0.698166
H508	H	-0.542327	-0.445246	0.000016
H509	H	-0.208993	-0.111913	0.333349
H510	H	0.124340	0.221420	0.666682
H511	H	-0.688875	-0.487892	0.000020
H512	H	-0.355542	-0.154558	0.333354
H513	H	-0.022208	0.178775	0.666687
N514	N	-0.705896	-0.659565	0.000050
N515	N	-0.372562	-0.326231	0.333383
N516	N	-0.039229	0.007102	0.666716
H517	H	-0.685251	-0.661752	-0.031406
H518	H	-0.351917	-0.328419	0.301927
H519	H	-0.018584	0.004915	0.635260
H520	H	-0.685274	-0.661708	0.031528
H521	H	-0.351941	-0.328375	0.364862
H522	H	-0.018607	0.004959	0.698195
N523	N	0.130697	-0.501674	0.118729
N524	N	0.464031	-0.168340	0.452063
N525	N	0.797364	0.164993	0.785396
H526	H	0.151974	-0.519981	0.096564
H527	H	0.485308	-0.186647	0.429897
H528	H	0.818641	0.146686	0.763231
H529	H	0.112332	-0.480423	0.096601
H530	H	0.445666	-0.147089	0.429934
H531	H	0.778999	0.186244	0.763267
N532	N	-0.006900	-0.639356	0.229722
N533	N	0.326434	-0.306022	0.563056
N534	N	0.659767	0.027311	0.896389
H535	H	-0.028183	-0.621054	0.251885
H536	H	0.305150	-0.287721	0.585219
H537	H	0.638484	0.045613	0.918552
H538	H	-0.027826	-0.660323	0.204657
H539	H	0.305507	-0.326990	0.537991
H540	H	0.638841	0.006343	0.871324
H541	H	-0.450879	-0.446177	0.000018
H542	H	-0.117545	-0.112844	0.333352
H543	H	0.215788	0.220490	0.666685
H544	H	0.121950	-0.510434	0.222691
H545	H	0.455283	-0.177101	0.556024
H546	H	0.788616	0.156232	0.889357
N547	N	-0.006923	-0.639381	0.770356
N548	N	0.326411	-0.306048	1.103689
N549	N	0.659744	0.027285	1.437022
H550	H	-0.027887	-0.660360	0.795381
H551	H	0.305447	-0.327027	1.128714
H552	H	0.638780	0.006307	1.462047
H553	H	-0.028168	-0.621038	0.748198
H554	H	0.305165	-0.287704	1.081531
H555	H	0.638498	0.045629	1.414864
H556	H	0.145454	-0.412743	0.000021
H557	H	0.478787	-0.079410	0.333355
H558	H	0.812121	0.253924	0.666688
H559	H	-0.031269	-0.663725	0.531704
H560	H	0.302064	-0.330392	0.865038
H561	H	0.635398	0.002941	1.198371
H562	H	-0.576585	-0.693347	0.000048
H563	H	-0.243252	-0.360013	0.333381
H564	H	0.090081	-0.026680	0.666715
H565	H	0.144530	-0.321291	0.000036
H566	H	0.477863	0.012043	0.333369
H567	H	0.811196	0.345376	0.666703
H568	H	0.187180	-0.174750	0.000030
H569	H	0.520513	0.158583	0.333363
H570	H	0.853847	0.491917	0.666696
H571	H	-0.031271	-0.663725	0.628608
H572	H	0.302063	-0.330392	0.961941
H573	H	0.635396	0.002941	1.295275
N574	N	-0.006926	-0.639383	0.881384
N575	N	0.326407	-0.306050	1.214718
N576	N	0.659741	0.027283	1.548051
H577	H	-0.001595	-0.673647	0.872088
H578	H	0.331738	-0.340314	1.205421
H579	H	0.665072	-0.006981	1.538754
H580	H	-0.001879	-0.634313	0.919264
H581	H	0.331454	-0.300980	1.252597
H582	H	0.664788	0.032353	1.585931
H583	H	0.155013	-0.477334	0.628625
H584	H	0.488346	-0.144001	0.961958
H585	H	0.821679	0.189332	1.295292
N586	N	0.163761	-0.468575	0.524675
N587	N	0.497094	-0.135242	0.858008
N588	N	0.830428	0.198091	1.191341
H589	H	0.184724	-0.447601	0.549707
H590	H	0.518057	-0.114268	0.883040
H591	H	0.851390	0.219066	1.216373
H592	H	0.185008	-0.486916	0.502513
H593	H	0.518341	-0.153583	0.835846
H594	H	0.851675	0.179750	1.169179
N595	N	-0.006893	-0.639341	0.118702
N596	N	0.326440	-0.306007	0.452035
N597	N	0.659773	0.027326	0.785368
H598	H	0.011430	-0.660605	0.096538
H599	H	0.344763	-0.327271	0.429872
H600	H	0.678097	0.006062	0.763205
H601	H	-0.027855	-0.660285	0.143754
H602	H	0.305478	-0.326952	0.477088
H603	H	0.638812	0.006381	0.810421
N604	N	-0.195621	-0.664750	0.000067
N605	N	0.137713	-0.331416	0.333401
N606	N	0.471046	0.001917	0.666734
H607	H	-0.175851	-0.692910	0.000075
H608	H	0.157482	-0.359576	0.333408
H609	H	0.490816	-0.026243	0.666741
H610	H	-0.216804	-0.666453	0.031524
H611	H	0.116529	-0.333120	0.364858
H612	H	0.449863	0.000213	0.698191
N613	N	-0.433609	-0.706471	0.000061
N614	N	-0.100275	-0.373138	0.333395
N615	N	0.233058	-0.039805	0.666728
H616	H	-0.413838	-0.734630	0.000067
H617	H	-0.080504	-0.401297	0.333401
H618	H	0.252829	-0.067963	0.666734
H619	H	-0.454788	-0.708174	0.031521
H620	H	-0.121455	-0.374841	0.364854
H621	H	0.211878	-0.041508	0.698188
N622	N	-0.033390	0.276746	0.000080
N623	N	0.299943	0.610079	0.333413
N624	N	0.633276	0.943413	0.666746
H625	H	-0.035577	0.297389	-0.031376
H626	H	0.297757	0.630723	0.301957
H627	H	0.631090	0.964056	0.635291
H628	H	-0.061044	0.249244	0.000105
H629	H	0.272289	0.582578	0.333439
H630	H	0.605623	0.915911	0.666772
H631	H	-0.061861	-0.117558	0.000090
H632	H	0.271472	0.215775	0.333423
H633	H	0.604805	0.549108	0.666757
H634	H	0.138273	0.293777	0.000053
H635	H	0.471606	0.627110	0.333386
H636	H	0.804939	0.960443	0.666719
N637	N	-0.810686	-0.658494	0.000043
N638	N	-0.477353	-0.325161	0.333376
N639	N	-0.144020	0.008172	0.666709
H640	H	-0.831873	-0.660245	-0.031415
H641	H	-0.498540	-0.326912	0.301918
H642	H	-0.165207	0.006422	0.635252
H643	H	-0.790894	-0.686635	0.000063
H644	H	-0.457561	-0.353302	0.333397
H645	H	-0.124227	-0.019969	0.666730
N646	N	-0.785383	-0.475247	0.000031
N647	N	-0.452049	-0.141914	0.333364
N648	N	-0.118716	0.191419	0.666697
H649	H	-0.757906	-0.447566	0.000028
H650	H	-0.424573	-0.114233	0.333361
H651	H	-0.091239	0.219100	0.666695
H652	H	-0.806036	-0.473115	-0.031426
H653	H	-0.472702	-0.139781	0.301907
H654	H	-0.139369	0.193552	0.635240
H655	H	-0.060929	-0.209009	0.000091
H656	H	0.272405	0.124324	0.333424
H657	H	0.605738	0.457657	0.666757
N658	N	-0.396136	-0.435060	0.000018
N659	N	-0.062803	-0.101726	0.333352
N660	N	0.270530	0.231607	0.666685
H661	H	-0.368657	-0.407381	0.000014
H662	H	-0.035324	-0.074048	0.333348
H663	H	0.298009	0.259286	0.666681
H664	H	-0.416788	-0.432927	-0.031440
H665	H	-0.083455	-0.099594	0.301894
H666	H	0.249879	0.233739	0.635227
N667	N	-0.040007	-0.672470	0.364407
N668	N	0.293326	-0.339137	0.697741
N669	N	0.626660	-0.005804	1.031074
H670	H	-0.034677	-0.706734	0.373703
H671	H	0.298656	-0.373401	0.707036
H672	H	0.631989	-0.040068	1.040369
H673	H	-0.074259	-0.667116	0.373719
H674	H	0.259074	-0.333783	0.707052
H675	H	0.592407	-0.000450	1.040385
N676	N	-0.291350	-0.436132	0.000015
N677	N	0.041983	-0.102799	0.333348
N678	N	0.375316	0.230534	0.666682
H679	H	-0.297461	-0.416777	-0.031445
H680	H	0.035872	-0.083444	0.301888
H681	H	0.369206	0.249889	0.635222
H682	H	-0.297481	-0.416805	0.031490
H683	H	0.035853	-0.083471	0.364823
H684	H	0.369186	0.249862	0.698156
N685	N	-0.480068	-0.705999	0.000058
N686	N	-0.146735	-0.372666	0.333391
N687	N	0.186599	-0.039332	0.666725
H688	H	-0.507546	-0.733679	0.000060
H689	H	-0.174213	-0.400345	0.333393
H690	H	0.159120	-0.067012	0.666727
H691	H	-0.459416	-0.708142	-0.031399
H692	H	-0.126082	-0.374808	0.301935
H693	H	0.207251	-0.041475	0.635268
H694	H	-0.015426	-0.343360	0.000050
H695	H	0.317907	-0.010027	0.333383
H696	H	0.651241	0.323307	0.666717
H697	H	-0.014492	-0.434827	0.000048
H698	H	0.318841	-0.101494	0.333382
H699	H	0.652174	0.231840	0.666715
H700	H	-0.063392	0.033688	0.000086
H701	H	0.269941	0.367021	0.333420
H702	H	0.603275	0.700355	0.666753
H703	H	-0.062462	-0.057760	0.000085
H704	H	0.270872	0.275573	0.333418
H705	H	0.604205	0.608907	0.666751
N706	N	0.197361	-0.028571	0.000035
N707	N	0.530694	0.304763	0.333369
N708	N	0.864027	0.638096	0.666702
H709	H	0.225040	-0.001092	0.000032
H710	H	0.558373	0.332241	0.333365
H711	H	0.891707	0.665574	0.666698
H712	H	0.199504	-0.049221	0.031491
H713	H	0.532837	0.284112	0.364825
H714	H	0.866170	0.617445	0.698158
