data_functionalizedCrystal
_audit_creation_method	'MofGen! by Chris Wilmer'
_symmetry_space_group_name_H-M	'P1'
_symmetry_Int_Tables_number	1
_symmetry_cell_setting	triclinic
loop_
_symmetry_equiv_pos_as_xyz
  x,y,z
_cell_length_a	18.101398
_cell_length_b	25.639239
_cell_length_c	18.101389
_cell_angle_alpha	90.020449
_cell_angle_beta	90.024327
_cell_angle_gamma	90.033952
loop_
_atom_site_label
_atom_site_type_symbol
_atom_site_fract_x
_atom_site_fract_y
_atom_site_fract_z
Zn1	Zn	1.132082	-0.208272	0.418828
Zn2	Zn	1.632082	0.291728	0.918828
Zn3	Zn	1.131961	-0.295693	0.294982
Zn4	Zn	1.631961	0.204307	0.794982
Zn5	Zn	1.008241	-0.208266	0.294989
Zn6	Zn	1.508241	0.291734	0.794989
Zn7	Zn	1.008175	-0.295671	0.418771
Zn8	Zn	1.508175	0.204329	0.918771
O9	O	1.070115	-0.251975	0.356893
O10	O	1.570115	0.248025	0.856893
O11	O	1.235699	-0.219880	0.402421
O12	O	1.735699	0.280120	0.902421
O13	O	1.115527	-0.284103	0.191350
O14	O	1.615527	0.215897	0.691350
O15	O	1.024747	-0.135102	0.311444
O16	O	1.524747	0.364898	0.811444
O17	O	1.235610	-0.284108	0.311432
O18	O	1.735610	0.215892	0.811432
O19	O	1.115732	-0.135106	0.402428
O20	O	1.615732	0.364894	0.902428
O21	O	1.024630	-0.219871	0.191356
O22	O	1.524630	0.280129	0.691356
O23	O	0.904599	-0.219849	0.311388
O24	O	1.404599	0.280151	0.811388
O25	O	1.024635	-0.284070	0.522411
O26	O	1.524635	0.215930	1.022411
O27	O	0.904551	-0.284065	0.402330
O28	O	1.404551	0.215935	0.902330
O29	O	1.115668	-0.219858	0.522454
O30	O	1.615668	0.280142	1.022454
O31	O	1.115463	-0.368855	0.311376
O32	O	1.615463	0.131145	0.811376
O33	O	1.024518	-0.368839	0.402323
O34	O	1.524518	0.131161	0.902323
C35	C	0.877704	-0.251954	0.356854
C36	C	1.377704	0.248046	0.856854
C37	C	0.795390	-0.251958	0.356855
C38	C	1.295390	0.248042	0.856855
C39	C	1.069990	-0.387818	0.356859
C40	C	1.569990	0.112182	0.856859
C41	C	1.070005	-0.445932	0.356869
C42	C	1.570005	0.054068	0.856869
C43	C	0.496299	-0.251990	0.356917
C44	C	0.996299	0.248010	0.856917
C45	C	0.527630	-0.211386	0.299978
C46	C	1.027630	0.288614	0.799978
C47	C	0.613248	-0.211495	0.299735
C48	C	1.113248	0.288505	0.799735
C49	C	0.644682	-0.251974	0.356886
C50	C	1.144682	0.248026	0.856886
C51	C	0.613553	-0.307048	0.335559
C52	C	1.113553	0.192952	0.835559
C53	C	0.527908	-0.306822	0.335163
C54	C	1.027908	0.193178	0.835163
C55	C	0.527917	-0.238000	0.435317
C56	C	1.027917	0.262000	0.935317
C57	C	0.613568	-0.236773	0.434890
C58	C	1.113568	0.263227	0.934890
C59	C	0.728541	-0.251968	0.356870
C60	C	1.228541	0.248032	0.856870
C61	C	0.412440	-0.252000	0.356932
C62	C	0.912440	0.248000	0.856932
C63	C	1.117594	-0.806291	0.309617
C64	C	1.617594	-0.306291	0.809617
C65	C	1.117622	-0.860895	0.309627
C66	C	1.617622	-0.360895	0.809627
O67	O	1.157955	-0.889129	0.269415
O68	O	1.657955	-0.389129	0.769415
N69	N	1.070245	-0.888214	0.356942
N70	N	1.570245	-0.388214	0.856942
C71	C	1.022841	-0.860926	0.404255
C72	C	1.522841	-0.360926	0.904255
O73	O	0.982546	-0.889177	0.444501
O74	O	1.482546	-0.389177	0.944501
C75	C	1.022817	-0.806323	0.404248
C76	C	1.522817	-0.306323	0.904248
C77	C	1.070192	-0.779007	0.356925
C78	C	1.570192	-0.279007	0.856925
C79	C	1.164965	-0.778975	0.262299
C80	C	1.664965	-0.278975	0.762299
C81	C	1.164936	-0.724374	0.262288
C82	C	1.664936	-0.224374	0.762288
C83	C	1.117534	-0.697090	0.309596
C84	C	1.617534	-0.197090	0.809596
C85	C	1.070162	-0.724406	0.356914
C86	C	1.570162	-0.224406	0.856914
C87	C	0.975417	-0.779036	0.451564
C88	C	1.475417	-0.279036	0.951564
C89	C	0.975397	-0.724429	0.451554
C90	C	1.475397	-0.224429	0.951554
C91	C	1.022773	-0.697113	0.404231
C92	C	1.522773	-0.197113	0.904231
C93	C	1.022731	-0.642522	0.404212
C94	C	1.522731	-0.142522	0.904212
N95	N	1.070108	-0.615202	0.356897
N96	N	1.570108	-0.115202	0.856897
C97	C	1.117509	-0.642487	0.309589
C98	C	1.617509	-0.142487	0.809589
C99	C	1.022897	-0.975597	0.404266
C100	C	1.522897	-0.475597	0.904266
C101	C	1.022917	-1.030199	0.404270
C102	C	1.522917	-0.530199	0.904270
C103	C	1.117699	-1.030164	0.309643
C104	C	1.617699	-0.530164	0.809643
C105	C	1.117675	-0.975561	0.309636
C106	C	1.617675	-0.475561	0.809636
C107	C	1.070274	-0.948278	0.356952
C108	C	1.570274	-0.448278	0.856952
C109	C	1.117443	-0.527822	0.309570
C110	C	1.617443	-0.027822	0.809570
C111	C	1.117406	-0.473216	0.309561
C112	C	1.617406	0.026784	0.809561
C113	C	1.022627	-0.473256	0.404190
C114	C	1.522627	0.026744	0.904190
C115	C	1.022661	-0.527856	0.404197
C116	C	1.522661	-0.027856	0.904197
C117	C	1.070074	-0.555138	0.356884
C118	C	1.570074	-0.055138	0.856884
O119	O	0.982421	-0.614254	0.444405
O120	O	1.482421	-0.114254	0.944405
O121	O	1.157804	-0.614229	0.269357
O122	O	1.657804	-0.114229	0.769357
C123	C	1.263277	-0.251997	0.356932
C124	C	1.763277	0.248003	0.856932
C125	C	1.345591	-0.252006	0.356949
C126	C	1.845591	0.247994	0.856949
C127	C	1.070158	-0.251962	0.550055
C128	C	1.570158	0.248038	1.050055
C129	C	1.070176	-0.251957	0.632369
C130	C	1.570176	0.248043	1.132369
C131	C	1.070260	-0.115602	0.356943
C132	C	1.570260	0.384398	0.856943
C133	C	1.070322	-0.057488	0.356964
C134	C	1.570322	0.442512	0.856964
C135	C	1.070115	-0.251951	0.164482
C136	C	1.570115	0.248049	0.664482
C137	C	1.070240	-0.251809	0.082169
C138	C	1.570240	0.248191	0.582169
C139	C	1.070219	-0.251859	0.931460
C140	C	1.570219	0.248141	1.431460
C141	C	1.012746	-0.292130	0.900108
C142	C	1.512746	0.207870	1.400108
C143	C	1.012901	-0.292317	0.814490
C144	C	1.512901	0.207683	1.314490
C145	C	1.070197	-0.251907	0.783077
C146	C	1.570197	0.248093	1.283077
C147	C	1.148220	-0.266868	0.814182
C148	C	1.648220	0.233132	1.314182
C149	C	1.147899	-0.267132	0.899827
C150	C	1.647899	0.232868	1.399827
C151	C	1.050348	-0.196537	0.899887
C152	C	1.550348	0.303463	1.399887
C153	C	1.048612	-0.196856	0.814236
C154	C	1.548612	0.303144	1.314236
C155	C	1.070189	-0.251934	0.699218
C156	C	1.570189	0.248066	1.199218
C157	C	1.070232	-0.251833	1.015320
C158	C	1.570232	0.248167	1.515320
H159	H	0.634297	-0.170655	0.313104
H160	H	1.134297	0.329345	0.813104
Cl161	Cl	1.174683	-0.328642	0.781077
Cl162	Cl	1.674683	0.171358	1.281077
H163	H	1.192172	-0.239073	0.920569
H164	H	1.692172	0.260927	1.420569
H165	H	1.026019	-0.333323	0.794005
H166	H	1.526019	0.166677	1.294005
H167	H	0.994443	-0.182907	0.921474
H168	H	1.494443	0.317093	1.421474
H169	H	0.984086	-0.550098	0.442733
H170	H	1.484086	-0.050098	0.942733
Cl171	Cl	1.173907	-0.329570	0.930680
Cl172	Cl	1.673907	0.170430	1.430680
Cl173	Cl	0.915805	-0.690133	0.511041
Cl174	Cl	1.415805	-0.190133	1.011041
H175	H	1.203514	-0.702136	0.223756
H176	H	1.703514	-0.202136	0.723756
H177	H	0.507654	-0.267575	0.477742
H178	H	1.007654	0.232425	0.977742
Cl179	Cl	1.216111	-0.223006	0.782775
Cl180	Cl	1.716111	0.276994	1.282775
H181	H	0.991194	-0.185574	0.793905
H182	H	1.491194	0.314426	1.293905
Cl183	Cl	0.494627	-0.177075	0.465253
Cl184	Cl	0.994627	0.322925	0.965253
H185	H	0.936836	-0.801268	0.490096
H186	H	1.436836	-0.301268	0.990096
H187	H	1.092209	-0.166532	0.920164
H188	H	1.592209	0.333468	1.420164
Cl189	Cl	0.963044	-0.438945	0.463664
Cl190	Cl	1.463044	0.061055	0.963664
H191	H	0.955044	-0.282955	0.793458
H192	H	1.455044	0.217045	1.293458
H193	H	1.087419	-0.165258	0.792854
H194	H	1.587419	0.334742	1.292854
H195	H	0.954715	-0.282864	0.920695
H196	H	1.454715	0.217136	1.420695
Cl197	Cl	1.032753	-0.355048	0.933392
Cl198	Cl	1.532753	0.144952	1.433392
H199	H	0.507068	-0.170421	0.313200
H200	H	1.007068	0.329579	0.813200
Cl201	Cl	0.494343	-0.225492	0.210810
Cl202	Cl	0.994343	0.274508	0.710810
H203	H	0.633700	-0.220743	0.241642
H204	H	1.133700	0.279257	0.741642
Cl205	Cl	0.495902	-0.355114	0.396393
Cl206	Cl	0.995902	0.144886	0.896393
Cl207	Cl	0.497005	-0.325139	0.246674
Cl208	Cl	0.997005	0.174861	0.746674
H209	H	1.156299	-1.052389	0.271125
H210	H	1.656299	-0.552389	0.771125
H211	H	0.634966	-0.319119	0.278864
H212	H	1.134966	0.180881	0.778864
Cl213	Cl	0.644975	-0.355009	0.397588
Cl214	Cl	1.144975	0.144991	0.897588
Cl215	Cl	0.963349	-1.064533	0.463755
Cl216	Cl	1.463349	-0.564533	0.963755
Cl217	Cl	1.177048	-0.562110	0.250089
Cl218	Cl	1.677048	-0.062110	0.750089
Cl219	Cl	0.645002	-0.174206	0.459729
Cl220	Cl	1.145002	0.325794	0.959729
Cl221	Cl	0.646601	-0.279110	0.503901
Cl222	Cl	1.146601	0.220890	1.003901
Cl223	Cl	1.176968	-0.438879	0.250065
Cl224	Cl	1.676968	0.061121	0.750065
H225	H	1.203570	-0.801184	0.223775
H226	H	1.703570	-0.301184	0.723775
H227	H	1.156252	-0.953323	0.271102
H228	H	1.656252	-0.453323	0.771102
H229	H	0.984292	-0.953386	0.442794
H230	H	1.484292	-0.453386	0.942794
