data_functionalizedCrystal
_audit_creation_method	'MofGen! by Chris Wilmer'
_symmetry_space_group_name_H-M	'P1'
_symmetry_Int_Tables_number	1
_symmetry_cell_setting	triclinic
loop_
_symmetry_equiv_pos_as_xyz
  x,y,z
_cell_length_a	16.992695
_cell_length_b	14.971486
_cell_length_c	13.448316
_cell_angle_alpha	89.999879
_cell_angle_beta	89.996140
_cell_angle_gamma	87.141176
loop_
_atom_site_label
_atom_site_type_symbol
_atom_site_fract_x
_atom_site_fract_y
_atom_site_fract_z
O1	O	0.102187	1.194125	-0.082578
O2	O	0.602187	1.694125	0.417422
O3	O	0.114424	0.934585	-0.082605
O4	O	0.614424	1.434585	0.417395
O5	O	-0.005838	1.063315	-0.082584
O6	O	0.494162	1.563315	0.417416
O7	O	0.222449	1.065396	-0.082599
O8	O	0.722449	1.565396	0.417401
O9	O	-0.005839	1.063301	0.082800
O10	O	0.494161	1.563301	0.582800
O11	O	0.114423	0.934571	0.082779
O12	O	0.614423	1.434571	0.582779
O13	O	0.102186	1.194112	0.082806
O14	O	0.602186	1.694112	0.582806
Cu15	Cu	0.108304	1.064340	0.097893
Cu16	Cu	0.608304	1.564340	0.597893
Cu17	Cu	0.108305	1.064356	-0.097692
Cu18	Cu	0.608305	1.564356	0.402308
O19	O	0.222448	1.065382	0.082785
O20	O	0.722448	1.565382	0.582785
C21	C	0.113876	0.901215	0.000083
C22	C	0.613876	1.401215	0.500083
C23	C	0.112236	0.801803	0.000073
C24	C	0.612236	1.301803	0.500073
C25	C	-0.035054	1.060631	0.000108
C26	C	0.464946	1.560631	0.500108
C27	C	-0.122105	1.052644	0.000107
C28	C	0.377895	1.552644	0.500107
C29	C	0.182887	0.749541	0.000070
C30	C	0.682887	1.249541	0.500070
C31	C	0.181341	0.656133	0.000085
C32	C	0.681341	1.156133	0.500085
C33	C	0.109144	0.614988	0.000096
C34	C	0.609144	1.114988	0.500096
C35	C	0.038488	0.667257	0.000102
C36	C	0.538488	1.167257	0.500102
C37	C	0.040034	0.760663	0.000095
C38	C	0.540034	1.260663	0.500095
C39	C	0.035269	0.472568	0.000116
C40	C	0.535269	0.972568	0.500116
C41	C	0.033723	0.379155	0.000122
C42	C	0.533723	0.879155	0.500122
C43	C	0.176577	0.368038	0.000106
C44	C	0.676577	0.868038	0.500106
C45	C	0.178123	0.461445	0.000099
C46	C	0.678123	0.961445	0.500099
C47	C	0.107466	0.513707	0.000103
C48	C	0.607466	1.013707	0.500103
C49	C	-0.172274	1.129708	0.000116
C50	C	0.327726	1.629708	0.500116
C51	C	-0.254067	1.122198	0.000106
C52	C	0.245933	1.622198	0.500106
C53	C	-0.285691	1.037623	0.000093
C54	C	0.214309	1.537623	0.500093
C55	C	-0.235517	0.960553	0.000081
C56	C	0.264483	1.460553	0.500081
C57	C	-0.153724	0.968064	0.000084
C58	C	0.346276	1.468064	0.500084
C59	C	-0.529318	1.006493	0.000076
C60	C	-0.029318	1.506493	0.500076
C61	C	-0.611117	0.998988	0.000076
C62	C	-0.111117	1.498988	0.500076
C63	C	-0.629662	1.160634	0.000099
C64	C	-0.129662	1.660634	0.500099
C65	C	-0.547867	1.168138	0.000108
C66	C	-0.047867	1.668138	0.500108
C67	C	-0.497700	1.091068	0.000090
C68	C	0.002300	1.591068	0.500090
N69	N	-0.369297	1.029945	0.000086
N70	N	0.130703	1.529945	0.500086
N71	N	-0.414095	1.098747	0.000091
N72	N	0.085905	1.598747	0.500091
C73	C	0.251664	1.068066	0.000091
C74	C	0.751664	1.568066	0.500091
C75	C	0.338715	1.076053	0.000085
C76	C	0.838715	1.576053	0.500085
C77	C	0.102733	1.227482	0.000115
C78	C	0.602733	1.727482	0.500115
C79	C	0.104373	1.326894	0.000119
C80	C	0.604373	1.826894	0.500119
N81	N	0.108303	1.064335	0.235457
N82	N	0.608303	1.564335	0.735457
N83	N	0.108301	1.064368	-0.235257
N84	N	0.608301	1.564368	0.264743
C85	C	0.155943	1.121985	0.287496
C86	C	0.655943	1.621985	0.787496
C87	C	0.155939	1.121996	0.391599
C88	C	0.655939	1.621996	0.891599
C89	C	0.108300	1.064352	0.443662
C90	C	0.608300	1.564352	0.943662
C91	C	0.060655	1.006700	0.391616
C92	C	0.560655	1.506700	0.891616
C93	C	0.060654	1.006694	0.287515
C94	C	0.560654	1.506694	0.787515
C95	C	0.060660	1.006714	0.608596
C96	C	0.560660	1.506714	1.108596
C97	C	0.060661	1.006719	0.712705
C98	C	0.560661	1.506719	1.212705
C99	C	0.155945	1.122016	0.712681
C100	C	0.655945	1.622016	1.212681
C101	C	0.155944	1.122010	0.608579
C102	C	0.655944	1.622010	1.108579
C103	C	0.108300	1.064357	0.556541
C104	C	0.608300	1.564357	1.056541
H105	H	0.241679	0.783034	0.000060
H106	H	0.741679	1.283034	0.500060
Cl107	Cl	-0.692733	1.257516	0.000117
Cl108	Cl	-0.192733	1.757516	0.500117
H109	H	-0.294912	1.184952	0.000115
H110	H	0.205088	1.684952	0.500115
Cl111	Cl	0.215834	1.194471	0.457015
Cl112	Cl	0.715834	1.694471	0.957015
H113	H	-0.020297	0.633749	0.000126
H114	H	0.479703	1.133749	0.500126
Cl115	Cl	-0.090655	0.871178	0.000069
Cl116	Cl	0.409345	1.371178	0.500069
Cl117	Cl	-0.132527	1.236037	0.000141
Cl118	Cl	0.367473	1.736037	0.500141
H119	H	0.194742	1.168956	0.755056
H120	H	0.694742	1.668956	1.255056
H121	H	0.021862	0.959769	0.434014
H122	H	0.521862	1.459769	0.934014
Cl123	Cl	0.270164	0.590437	0.000074
Cl124	Cl	0.770164	1.090437	0.500074
H125	H	0.021861	0.959750	0.245146
H126	H	0.521861	1.459750	0.745146
H127	H	0.021870	0.959779	0.755091
H128	H	0.521870	1.459779	1.255091
Cl129	Cl	-0.650870	0.892657	0.000067
Cl130	Cl	-0.150870	1.392657	0.500067
Cl131	Cl	0.215853	1.194458	0.543130
Cl132	Cl	0.715853	1.694458	1.043130
H133	H	-0.025067	0.345658	0.000133
H134	H	0.474933	0.845658	0.500133
Cl135	Cl	0.000751	0.934248	0.543178
Cl136	Cl	0.500751	1.434248	1.043178
Cl137	Cl	0.268887	0.513169	0.000074
Cl138	Cl	0.768887	1.013169	0.500074
H139	H	-0.022267	0.515117	0.000121
H140	H	0.477733	1.015117	0.500121
H141	H	-0.261271	0.891690	0.000065
H142	H	0.238729	1.391690	0.500065
Cl143	Cl	-0.508118	1.274465	0.000091
Cl144	Cl	-0.008118	1.774465	0.500091
Cl145	Cl	-0.466261	0.909604	0.000052
Cl146	Cl	0.033739	1.409604	0.500052
H147	H	-0.017497	0.803213	0.000097
H148	H	0.482503	1.303213	0.500097
Cl149	Cl	0.215837	1.194455	0.222056
Cl150	Cl	0.715837	1.694455	0.722056
H151	H	0.234108	0.325482	0.000107
H152	H	0.734108	0.825482	0.500107
