data_functionalizedCrystal
_audit_creation_method	'MofGen! by Chris Wilmer'
_symmetry_space_group_name_H-M	'P1'
_symmetry_Int_Tables_number	1
_symmetry_cell_setting	triclinic
loop_
_symmetry_equiv_pos_as_xyz
  x,y,z
_cell_length_a	12.645331
_cell_length_b	16.994747
_cell_length_c	12.645323
_cell_angle_alpha	90.006372
_cell_angle_beta	90.022676
_cell_angle_gamma	90.010038
loop_
_atom_site_label
_atom_site_type_symbol
_atom_site_fract_x
_atom_site_fract_y
_atom_site_fract_z
Zn1	Zn	1.620780	-0.314043	0.599583
Zn2	Zn	1.620682	-0.445958	0.422380
Zn3	Zn	1.443495	-0.314070	0.422327
Zn4	Zn	1.443497	-0.445907	0.599595
O5	O	1.532114	-0.379995	0.510971
O6	O	1.769114	-0.331552	0.576093
O7	O	1.597136	-0.428496	0.274026
O8	O	1.467052	-0.203685	0.445813
O9	O	1.769043	-0.428470	0.445903
O10	O	1.597303	-0.203666	0.576042
O11	O	1.466957	-0.331598	0.273987
O12	O	1.295148	-0.331548	0.445825
O13	O	1.467056	-0.428382	0.747941
O14	O	1.295149	-0.428408	0.576063
O15	O	1.597305	-0.331503	0.747932
O16	O	1.597138	-0.556333	0.445915
O17	O	1.466961	-0.556295	0.576115
C18	C	1.256684	-0.379976	0.510941
C19	C	1.138854	-0.379987	0.510953
C20	C	1.532052	-0.584934	0.511019
C21	C	1.532060	-0.674257	0.511016
Zn22	Zn	1.443525	-0.945156	0.422297
Zn23	Zn	1.620827	-0.945108	0.599536
Zn24	Zn	1.443533	-0.813299	0.599577
Zn25	Zn	1.620702	-0.813214	0.422345
O26	O	1.532147	-0.879194	0.510939
O27	O	1.467094	-1.055531	0.445771
O28	O	1.597365	-0.927639	0.747889
O29	O	1.295185	-0.830846	0.576058
O30	O	1.597357	-1.055496	0.575987
O31	O	1.295179	-0.927721	0.445811
O32	O	1.467108	-0.830800	0.747919
O33	O	1.466986	-0.702907	0.576105
O34	O	1.597143	-0.830700	0.273992
O35	O	1.597151	-0.702844	0.445893
O36	O	1.466972	-0.927638	0.273956
O37	O	1.769158	-0.927556	0.576034
O38	O	1.769066	-0.830654	0.445853
C39	C	0.971253	-0.318772	0.429471
C40	C	1.093813	-0.318930	0.429113
C41	C	1.094346	-0.463080	0.480474
C42	C	0.971748	-0.462746	0.479918
C43	C	0.971701	-0.358899	0.623227
C44	C	1.094307	-0.357043	0.622603
C45	C	1.808619	-0.380014	0.511003
C46	C	1.926449	-0.380022	0.511016
C47	C	1.532192	-0.379934	0.787477
C48	C	1.532225	-0.379908	0.905307
C49	C	1.532180	-0.174254	0.510917
C50	C	1.532213	-0.084932	0.510895
C51	C	1.532097	-0.379998	0.235541
C52	C	1.532269	-0.379802	0.117712
C53	C	1.450032	-0.440567	1.072877
C54	C	1.450248	-0.440868	0.950317
C55	C	1.643928	-0.402468	0.949836
C56	C	1.643477	-0.402849	1.072435
C57	C	1.503771	-0.296348	1.072468
C58	C	1.501279	-0.296849	0.949862
C59	C	1.807577	-0.879092	0.510947
C60	C	1.925407	-0.879072	0.510981
C61	C	1.532043	-0.879165	0.234434
C62	C	1.531998	-0.879153	0.116603
C63	C	1.255642	-0.879299	0.510934
C64	C	1.137812	-0.879343	0.510932
C65	C	1.532175	-0.879268	0.786369
C66	C	1.531924	-0.879431	0.904198
C67	C	2.092957	-0.818263	0.428924
C68	C	1.970397	-0.818025	0.429121
C69	C	1.969907	-0.856576	0.622732
C70	C	2.092505	-0.856133	0.622301
C71	C	2.092617	-0.962524	0.482403
C72	C	1.970011	-0.962084	0.479892
C73	C	1.613524	-0.817954	-0.050938
C74	C	1.613912	-0.818134	0.071622
C75	C	1.562351	-0.962256	0.072094
C76	C	1.562878	-0.961900	-0.050504
C77	C	1.419713	-0.857974	-0.050607
C78	C	1.420369	-0.856139	0.072000
H79	H	1.123904	-0.257313	0.448212
H80	H	1.469062	-0.502736	0.921029
H81	H	1.123523	-0.509936	0.538005
C82	C	1.677117	-0.484025	0.908421
N83	N	1.702109	-0.545456	0.877230
H84	H	0.942729	-0.403511	0.683985
C85	C	1.726231	-0.837071	0.111240
N86	N	1.810835	-0.851339	0.141080
H87	H	0.940408	-0.332578	0.346806
C88	C	1.930712	-0.985007	0.368794
N89	N	1.901104	-1.002271	0.285116
H90	H	1.644878	-0.979853	-0.079106
H91	H	2.123770	-0.756781	0.447668
C92	C	1.928425	-0.775074	0.656071
N93	N	1.897176	-0.713687	0.681180
C94	C	1.928637	-1.026562	0.554774
N95	N	1.897473	-1.075126	0.611183
H96	H	1.505982	-1.009033	-0.080183
C97	C	1.484556	-1.025522	0.111457
N98	N	1.425960	-1.073174	0.141107
C99	C	1.135753	-0.487694	0.370838
N100	N	1.166937	-0.506228	0.288256
H101	H	1.594707	-0.756136	-0.080406
C102	C	1.338346	-0.421793	0.909639
N103	N	1.254057	-0.407428	0.879006
H104	H	2.122177	-0.898498	0.685589
H105	H	1.468663	-0.502049	1.103722
C106	C	1.576269	-0.232447	0.908447
N107	N	1.632754	-0.183941	0.877246
H108	H	0.943105	-0.480659	0.397887
C109	C	2.132871	-0.837000	0.316674
N110	N	2.162974	-0.851096	0.232131
C111	C	0.929959	-0.278466	0.660679
N112	N	0.898521	-0.217880	0.688873
H113	H	2.121617	-1.007827	0.542229
H114	H	1.123093	-0.332892	0.345958
C115	C	1.133598	-0.274430	0.653648
N116	N	1.163195	-0.212204	0.677027
H117	H	1.423734	-0.275783	1.103363
H118	H	0.942111	-0.509927	0.536723
H119	H	1.643469	-0.980537	0.102819
C120	C	1.382359	-0.777517	-0.092359
N121	N	1.354236	-0.716913	-0.123807
C122	C	1.337538	-0.918187	-0.089810
N123	N	1.275652	-0.963542	-0.119345
C124	C	1.729076	-0.345668	1.112507
N125	N	1.793555	-0.302605	1.142685
C126	C	1.389438	-0.773523	0.111311
N127	N	1.366142	-0.711297	0.140930
H128	H	1.124971	-0.398400	0.686606
H129	H	1.563667	-0.251076	1.101462
H130	H	1.366956	-0.426585	1.102344
H131	H	2.121106	-0.795131	0.646569
C132	C	1.676100	-0.485268	1.111125
N133	N	1.700668	-0.547349	1.140261
C134	C	1.728929	-0.344573	0.910446
N135	N	1.792951	-0.300966	0.880774
H136	H	1.696160	-0.831796	-0.081752
H137	H	1.419075	-0.279835	0.920755
H138	H	1.940310	-0.832096	0.346260
C139	C	1.333841	-0.911996	0.113319
N140	N	1.268674	-0.954083	0.144425
H141	H	0.941780	-0.256969	0.448366
H142	H	1.940765	-0.899498	0.685566
C143	C	1.930779	-0.734493	0.454739
N144	N	1.900939	-0.671574	0.474043
C145	C	2.134377	-0.990197	0.374228
N146	N	2.165831	-1.011031	0.292747
H147	H	1.594893	-0.756513	0.101716
