data_functionalizedCrystal
_audit_creation_method	'MofGen! by Chris Wilmer'
_symmetry_space_group_name_H-M	'P1'
_symmetry_Int_Tables_number	1
_symmetry_cell_setting	triclinic
loop_
_symmetry_equiv_pos_as_xyz
  x,y,z
_cell_length_a	12.827893
_cell_length_b	18.050590
_cell_length_c	12.827885
_cell_angle_alpha	90.034873
_cell_angle_beta	90.019462
_cell_angle_gamma	90.018713
loop_
_atom_site_label
_atom_site_type_symbol
_atom_site_fract_x
_atom_site_fract_y
_atom_site_fract_z
Zn1	Zn	1.597649	-0.295619	0.590813
Zn2	Zn	1.597532	-0.419827	0.416058
Zn3	Zn	1.422889	-0.295656	0.416087
Zn4	Zn	1.422866	-0.419772	0.590758
O5	O	1.510234	-0.357718	0.503429
O6	O	1.743869	-0.312103	0.567643
O7	O	1.574327	-0.403394	0.269826
O8	O	1.446130	-0.191726	0.439299
O9	O	1.743784	-0.403358	0.439251
O10	O	1.574525	-0.191699	0.567670
O11	O	1.446018	-0.312166	0.269847
O12	O	1.276650	-0.312112	0.439246
O13	O	1.446090	-0.403264	0.737002
O14	O	1.276633	-0.403300	0.567577
O15	O	1.574502	-0.312049	0.737042
O16	O	1.574304	-0.523744	0.439198
O17	O	1.445977	-0.523704	0.567549
C18	C	1.238724	-0.357705	0.503409
C19	C	1.122571	-0.357717	0.503426
C20	C	1.070828	-0.312641	0.567057
C21	C	0.950778	-0.312652	0.567075
C22	C	1.510154	-0.550671	0.503388
C23	C	1.510215	-0.633216	0.503405
C24	C	1.580144	-0.832662	0.433705
C25	C	1.605674	-0.881987	0.529080
C26	C	1.510274	-0.784347	0.503446
C27	C	1.484851	-0.882103	0.408114
C28	C	1.510334	-0.930332	0.503478
C29	C	1.535853	-0.832584	0.598872
C30	C	1.414985	-0.832696	0.477842
C31	C	1.440479	-0.881999	0.573282
C32	C	1.510243	-0.700248	0.503427
C33	C	1.510365	-1.014428	0.503509
C34	C	1.782804	-0.357733	0.503450
C35	C	1.898957	-0.357739	0.503459
C36	C	1.510306	-0.357647	0.776000
C37	C	1.510337	-0.357616	0.892153
C38	C	1.510343	-0.164013	0.503494
C39	C	1.510390	-0.081467	0.503521
C40	C	1.510222	-0.357737	0.231919
C41	C	1.510394	-0.357558	0.115767
C42	C	1.446815	-0.402733	0.943918
C43	C	1.446845	-0.402703	1.063968
H44	H	1.686284	-0.903640	0.550757
C45	C	1.455759	-0.911485	0.299185
C46	C	1.449537	-0.995534	0.279484
C47	C	1.420456	-1.024912	0.170552
C48	C	1.397596	-0.970241	0.081322
C49	C	1.403816	-0.886186	0.101021
C50	C	1.432898	-0.856808	0.209952
H51	H	1.466460	-1.036009	0.345539
H52	H	1.415851	-1.087135	0.155971
H53	H	1.376068	-0.991988	0.000685
H54	H	1.386893	-0.845710	0.034965
H55	H	1.437503	-0.794585	0.224533
H56	H	0.906280	-0.274064	0.621555
C57	C	1.062361	-0.409866	0.429844
C58	C	0.987267	-0.377576	0.347961
C59	C	0.927060	-0.429727	0.274376
C60	C	0.941947	-0.514168	0.282675
C61	C	1.017043	-0.546462	0.364562
C62	C	1.077250	-0.494311	0.438146
H63	H	0.976245	-0.315064	0.341814
H64	H	0.871469	-0.405820	0.213758
H65	H	0.897378	-0.552773	0.228204
H66	H	1.028066	-0.608975	0.370708
H67	H	1.132842	-0.518218	0.498764
C68	C	1.659987	-0.803387	0.354112
C69	C	1.673952	-0.719357	0.338829
C70	C	1.753796	-0.690080	0.259244
C71	C	1.819676	-0.744833	0.194942
C72	C	1.805713	-0.828868	0.210223
C73	C	1.725868	-0.858145	0.289808
H74	H	1.625182	-0.678821	0.386431
H75	H	1.764132	-0.627871	0.247933
H76	H	1.878781	-0.723160	0.136029
H77	H	1.854482	-0.869404	0.162621
H78	H	1.715532	-0.920354	0.301120
H79	H	1.557301	-0.810926	0.679575
C80	C	1.360691	-0.911089	0.653062
C81	C	1.372392	-0.891338	0.769280
C82	C	1.292610	-0.920430	0.849062
C83	C	1.201126	-0.969271	0.812625
C84	C	1.189420	-0.989024	0.696400
C85	C	1.269203	-0.959933	0.616619
H86	H	1.440118	-0.855181	0.796258
H87	H	1.301275	-0.905807	0.935099
H88	H	1.142066	-0.990807	0.871684
H89	H	1.121695	-1.025182	0.669422
H90	H	1.260537	-0.974555	0.530582
H91	H	1.334399	-0.811027	0.456136
H92	H	1.392413	-0.441386	0.899359
C93	C	1.373371	-0.454889	1.124097
C94	C	1.373506	-0.454784	1.244143
C95	C	1.300029	-0.506971	1.304275
C96	C	1.226418	-0.559264	1.244361
C97	C	1.226280	-0.559371	1.124308
C98	C	1.299757	-0.507183	1.064177
H99	H	1.428000	-0.416071	1.288501
H100	H	1.300132	-0.506892	1.393146
H101	H	1.172026	-0.597897	1.288874
H102	H	1.171786	-0.598083	1.079950
H103	H	1.299654	-0.507263	0.975306
C104	C	1.583871	-0.305370	1.055644
C105	C	1.538535	-0.247129	0.980599
C106	C	1.612012	-0.194941	0.920467
C107	C	1.730824	-0.200994	0.935381
C108	C	1.776166	-0.259237	1.010430
C109	C	1.702689	-0.311425	1.070561
H110	H	1.450578	-0.242647	0.969556
H111	H	1.578446	-0.151826	0.864911
H112	H	1.785216	-0.162362	0.890868
H113	H	1.864123	-0.263720	1.021473
H114	H	1.736255	-0.354541	1.126117
C115	C	1.131043	-0.260492	0.640635
C116	C	1.116202	-0.266640	0.759435
C117	C	1.176416	-0.214489	0.833013
C118	C	1.251472	-0.156190	0.787792
C119	C	1.266317	-0.150039	0.668986
C120	C	1.206103	-0.202190	0.595407
H121	H	1.060638	-0.309799	0.792916
H122	H	1.165426	-0.219043	0.920962
H123	H	1.296046	-0.117585	0.842259
H124	H	1.321881	-0.106880	0.635504
H125	H	1.217092	-0.197636	0.507458
H126	H	0.943448	-0.396336	0.448985
H127	H	1.564746	-0.318969	0.936712
