data_functionalizedCrystal
_audit_creation_method	'MofGen! by Chris Wilmer'
_symmetry_space_group_name_H-M	'P1'
_symmetry_Int_Tables_number	1
_symmetry_cell_setting	triclinic
loop_
_symmetry_equiv_pos_as_xyz
  x,y,z
_cell_length_a	10.654553
_cell_length_b	10.967829
_cell_length_c	9.730223
_cell_angle_alpha	77.870761
_cell_angle_beta	89.999314
_cell_angle_gamma	84.600525
loop_
_atom_site_label
_atom_site_type_symbol
_atom_site_fract_x
_atom_site_fract_y
_atom_site_fract_z
O1	O	1.667805	0.175288	-0.155817
O2	O	1.302325	0.191984	-0.159770
O3	O	1.493495	0.002060	-0.114784
O4	O	1.476635	0.365212	-0.200803
O5	O	1.493493	0.002065	0.113795
O6	O	1.302323	0.191988	0.068809
O7	O	1.667803	0.175293	0.072762
Zn8	Zn	1.485062	0.183642	0.107077
Zn9	Zn	1.485065	0.183635	-0.194085
O10	O	1.476632	0.365216	0.027776
C11	C	1.255526	0.190759	-0.045190
C12	C	1.116083	0.187089	-0.044320
C13	C	0.919543	0.181911	0.081496
C14	C	1.050563	0.185367	0.080685
C15	C	1.050575	0.185369	-0.168526
C16	C	0.919556	0.181922	-0.167716
C17	C	0.919537	0.181905	0.225377
C18	C	1.050558	0.185360	0.224566
C19	C	1.492267	-0.044437	0.010517
C20	C	1.488596	-0.182992	0.043327
C21	C	1.486961	-0.244761	-0.060457
C22	C	1.483167	-0.387965	-0.026548
C23	C	1.714602	0.176517	-0.041821
C24	C	1.854044	0.180187	-0.042700
C25	C	1.477860	0.411714	-0.097528
C26	C	1.481531	0.550269	-0.130347
N27	N	1.485070	0.183645	0.312613
N28	N	1.485068	0.183622	-0.399618
C29	C	1.569742	0.099576	0.404452
C30	C	1.569739	0.099561	0.548338
C31	C	1.400387	0.267695	0.508532
C32	C	1.400385	0.267703	0.364649
C33	C	1.667520	0.002509	0.427434
C34	C	1.667516	0.002493	0.571321
H35	H	0.889978	0.090892	0.291574
H36	H	1.331438	0.336132	0.550916
H37	H	1.482925	-0.396600	-0.244313
H38	H	1.487180	-0.236127	0.157284
C39	C	1.113118	0.068857	0.326775
C40	C	1.194332	0.084275	0.451805
C41	C	1.256893	-0.032225	0.554005
C42	C	1.238241	-0.164142	0.531175
C43	C	1.157024	-0.179566	0.406139
C44	C	1.094462	-0.063066	0.303939
H45	H	1.208142	0.181933	0.468710
H46	H	1.317016	-0.020806	0.646564
H47	H	1.284553	-0.250382	0.606830
H48	H	1.143213	-0.277224	0.389234
H49	H	1.034340	-0.074485	0.211379
H50	H	1.488364	-0.191625	-0.174414
C51	C	1.090495	0.308310	0.255770
C52	C	0.989730	0.410105	0.283342
C53	C	1.029670	0.533053	0.314537
C54	C	1.170375	0.554206	0.318159
C55	C	1.271148	0.452408	0.290586
C56	C	1.231208	0.329460	0.259391
H57	H	0.885564	0.394449	0.280661
H58	H	0.955070	0.608410	0.334948
H59	H	1.199940	0.645219	0.341252
H60	H	1.375314	0.468063	0.293267
H61	H	1.305808	0.254102	0.238980
C62	C	1.638562	-0.127061	0.405350
C63	C	1.615212	-0.231525	0.532920
C64	C	1.586253	-0.361090	0.510835
C65	C	1.580644	-0.386191	0.361179
C66	C	1.603996	-0.281724	0.233599
C67	C	1.632955	-0.152159	0.255685
H68	H	1.619362	-0.212946	0.643713
H69	H	1.568966	-0.438423	0.605279
H70	H	1.559207	-0.482103	0.344830
H71	H	1.599845	-0.300303	0.122806
H72	H	1.650242	-0.074826	0.161241
H73	H	1.764025	0.023876	0.605306
H74	H	1.481750	-0.441095	0.087416
H75	H	1.331427	0.336148	0.289876
C76	C	0.856980	0.298407	0.272402
C77	C	0.762427	0.391168	0.173525
C78	C	0.699870	0.507667	0.220547
C79	C	0.731867	0.531406	0.366445
C80	C	0.826426	0.438644	0.465331
C81	C	0.888982	0.322144	0.418309
H82	H	0.738736	0.373597	0.065514
H83	H	0.629872	0.576336	0.147344
H84	H	0.685559	0.617646	0.401253
H85	H	0.850116	0.456214	0.573342
H86	H	0.958981	0.253475	0.491512
H87	H	0.866231	0.180534	-0.268851
H88	H	1.103931	0.186783	-0.270310
H89	H	1.758699	0.032903	0.375608
H90	H	1.637017	-0.088149	0.637406
