data_functionalizedCrystal
_audit_creation_method	'MofGen! by Chris Wilmer'
_symmetry_space_group_name_H-M	'P1'
_symmetry_Int_Tables_number	1
_symmetry_cell_setting	triclinic
loop_
_symmetry_equiv_pos_as_xyz
  x,y,z
_cell_length_a	9.065218
_cell_length_b	10.540539
_cell_length_c	7.540329
_cell_angle_alpha	89.998539
_cell_angle_beta	89.996962
_cell_angle_gamma	84.770688
loop_
_atom_site_label
_atom_site_type_symbol
_atom_site_fract_x
_atom_site_fract_y
_atom_site_fract_z
O1	O	1.959469	0.186143	-0.147478
O2	O	1.530108	0.201412	-0.147479
O3	O	1.754584	0.009107	-0.147476
O4	O	1.734993	0.378448	-0.147481
O5	O	1.754570	0.009105	0.147489
O6	O	1.530094	0.201409	0.147486
O7	O	1.959455	0.186141	0.147487
Cu8	Cu	1.744773	0.193775	0.174419
Cu9	Cu	1.744789	0.193778	-0.174411
O10	O	1.734979	0.378445	0.147484
C11	C	1.475122	0.199943	0.000003
C12	C	1.311301	0.195556	0.000002
C13	C	1.753108	-0.038202	0.000003
C14	C	1.748712	-0.179167	-0.000007
C15	C	1.580278	-0.363216	-0.000669
C16	C	1.584734	-0.216582	-0.000005
C17	C	1.827618	-0.240534	0.168433
C18	C	1.822022	-0.387099	0.168575
C19	C	1.825372	-0.387602	-0.166855
C20	C	1.826883	-0.240615	-0.169082
C21	C	2.014441	0.187610	0.000001
C22	C	2.178262	0.191997	-0.000009
C23	C	1.736455	0.425755	0.000001
C24	C	1.740851	0.566719	-0.000001
N25	N	1.744773	0.193772	0.419768
N26	N	1.744801	0.193771	-0.419760
H27	H	1.522646	-0.174207	-0.120750
H28	H	1.948039	-0.217735	0.174697
H29	H	1.515508	-0.392055	-0.121460
H30	H	1.769148	-0.199969	-0.293689
H31	H	1.515761	-0.393663	0.119445
H32	H	1.522200	-0.175058	0.120940
H33	H	1.772795	-0.198138	0.293780
O34	O	1.962613	-0.444020	0.177649
C35	C	1.958884	-0.577453	0.177924
H36	H	1.851026	-0.602913	0.115206
H37	H	1.965900	-0.614074	0.320214
C38	C	2.223505	-0.608076	0.147768
C39	C	2.091037	-0.639347	0.070722
H40	H	2.305026	-0.646258	0.081649
H41	H	2.226019	-0.518181	0.147590
H42	H	2.229331	-0.638595	0.266341
H43	H	2.085205	-0.608815	-0.047839
H44	H	2.088525	-0.729240	0.070878
O45	O	1.752271	-0.421142	0.318595
C46	C	1.625200	-0.481647	0.272600
H47	H	1.638680	-0.522259	0.132819
H48	H	1.523653	-0.409486	0.277576
C49	C	1.588798	-0.540476	0.576142
C50	C	1.605361	-0.590366	0.404465
H51	H	1.576555	-0.607536	0.657485
H52	H	1.674405	-0.499709	0.607132
H53	H	1.504178	-0.480343	0.580262
H54	H	1.689990	-0.650486	0.400341
H55	H	1.519767	-0.631146	0.373477
O56	O	1.969501	-0.211127	-0.180916
C57	C	2.001856	-0.133862	-0.035941
H58	H	1.922664	-0.149445	0.077820
H59	H	1.988364	-0.029501	-0.077719
C60	C	2.259661	-0.150247	-0.114535
C61	C	2.162405	-0.169394	0.025193
H62	H	2.358697	-0.172160	-0.076828
H63	H	2.237864	-0.202298	-0.212212
H64	H	2.248400	-0.063279	-0.149337
H65	H	2.173654	-0.256363	0.059978
H66	H	2.184208	-0.117359	0.122878
O67	O	1.966644	-0.443471	-0.168542
C68	C	1.990275	-0.516131	-0.324638
H69	H	1.907698	-0.478590	-0.430449
H70	H	1.974380	-0.620098	-0.295211
C71	C	2.250529	-0.551877	-0.262006
C72	C	2.149115	-0.505762	-0.391970
H73	H	2.348510	-0.545487	-0.303537
H74	H	2.234608	-0.502929	-0.156837
H75	H	2.237264	-0.638513	-0.237495
H76	H	2.162368	-0.419124	-0.416463
H77	H	2.165041	-0.554695	-0.497145
H78	H	1.772306	-0.419350	-0.294522
