data_functionalizedCrystal
_audit_creation_method	'MofGen! by Chris Wilmer'
_symmetry_space_group_name_H-M	'P1'
_symmetry_Int_Tables_number	1
_symmetry_cell_setting	triclinic
loop_
_symmetry_equiv_pos_as_xyz
  x,y,z
_cell_length_a	29.839134
_cell_length_b	18.050589
_cell_length_c	18.050582
_cell_angle_alpha	89.981795
_cell_angle_beta	90.024639
_cell_angle_gamma	89.976917
loop_
_atom_site_label
_atom_site_type_symbol
_atom_site_fract_x
_atom_site_fract_y
_atom_site_fract_z
Zn1	Zn	0.686773	0.295808	0.420128
Zn2	Zn	0.686719	0.419992	0.295947
Zn3	Zn	0.611652	0.295809	0.295931
Zn4	Zn	0.611620	0.419950	0.420074
O5	O	0.649191	0.357890	0.358020
O6	O	0.749633	0.312299	0.403684
O7	O	0.676751	0.403536	0.192020
O8	O	0.621653	0.191884	0.312421
O9	O	0.749593	0.403536	0.312449
O10	O	0.676843	0.191884	0.403668
O11	O	0.621600	0.312300	0.192008
O12	O	0.548781	0.312259	0.312369
O13	O	0.621599	0.403465	0.524006
O14	O	0.548758	0.403465	0.403577
O15	O	0.676813	0.312258	0.524045
O16	O	0.676721	0.523911	0.312397
O17	O	0.621547	0.523880	0.403593
C18	C	0.649137	0.550842	0.358008
C19	C	0.649155	0.633388	0.358027
C20	C	0.532468	0.357858	0.357966
C21	C	0.482534	0.357863	0.357961
C22	C	0.649209	0.357857	0.551726
C23	C	0.649216	0.357843	0.634271
C24	C	0.172888	0.405451	0.405454
C25	C	-0.014785	0.405472	0.405487
O26	O	-0.039052	0.445898	0.445835
N27	N	-0.038251	0.357917	0.358076
C28	C	-0.014796	0.310350	0.310657
O29	O	-0.039062	0.269897	0.270337
C30	C	0.172876	0.310326	0.310628
C31	C	0.196340	0.357889	0.358037
C32	C	0.196352	0.453010	0.452859
C33	C	0.243267	0.453007	0.452848
C34	C	0.266719	0.405445	0.405431
C35	C	0.243255	0.357886	0.358025
C36	C	0.196330	0.262756	0.263213
C37	C	0.243251	0.262753	0.263212
C38	C	0.266715	0.310316	0.310620
C39	C	0.313622	0.310322	0.310597
N40	N	0.337088	0.357877	0.358007
C41	C	0.313637	0.405438	0.405424
C42	C	-0.113327	0.310367	0.310674
C43	C	-0.160245	0.310374	0.310680
C44	C	-0.160230	0.405495	0.405511
C45	C	-0.113312	0.405491	0.405501
C46	C	-0.089861	0.357922	0.358085
C47	C	0.412163	0.405429	0.405396
C48	C	0.459082	0.405424	0.405378
C49	C	0.459064	0.310301	0.310550
C50	C	0.412148	0.310308	0.310565
C51	C	0.388699	0.357875	0.357994
O52	O	0.337918	0.269911	0.270275
O53	O	0.337910	0.445874	0.445750
C54	C	0.125973	0.405454	0.405465
C55	C	0.102509	0.357895	0.358060
C56	C	0.125961	0.310333	0.310643
C57	C	0.055591	0.357902	0.358066
C58	C	0.032139	0.405463	0.405483
C59	C	0.055605	0.453018	0.452894
C60	C	0.102521	0.453015	0.452882
C61	C	0.102495	0.262778	0.263232
C62	C	0.055579	0.262786	0.263247
C63	C	0.032127	0.310347	0.310664
C64	C	0.766369	0.357922	0.358074
C65	C	0.816304	0.357936	0.358097
C66	C	0.649258	0.164184	0.358049
C67	C	0.649286	0.081638	0.358061
C68	C	0.619180	0.832849	0.407602
C69	C	0.608232	0.882281	0.339832
C70	C	0.649199	0.784518	0.358037
C71	C	0.660169	0.882167	0.425815
C72	C	0.649241	0.930503	0.358052
C73	C	0.638229	0.832863	0.290231
C74	C	0.690185	0.832745	0.376260
C75	C	0.679252	0.882155	0.308442
C76	C	0.649173	0.700420	0.358029
C77	C	0.649266	1.014600	0.358052
C78	C	0.649199	0.357869	0.165068
C79	C	0.649279	0.357674	0.082522
C80	C	0.619214	0.407373	0.833701
C81	C	0.660201	0.425533	0.883105
C82	C	0.649238	0.357786	0.785402
C83	C	0.608274	0.339606	0.883079
C84	C	0.649256	0.357733	0.931387
C85	C	0.690247	0.375981	0.833719
C86	C	0.638292	0.290023	0.833689
C87	C	0.679307	0.308157	0.883071
C88	C	0.649227	0.357819	0.701304
C89	C	0.649271	0.357700	1.015484
H90	H	0.478184	0.444159	0.443984
H91	H	0.669431	0.903825	0.483128
H92	H	0.573591	0.904056	0.324433
C93	C	0.737071	0.396820	0.804552
N94	N	0.772338	0.412519	0.782582
C95	C	0.672722	0.502918	0.912433
N96	N	0.682150	0.561206	0.934521
H97	H	0.121584	0.224047	0.224619
H98	H	0.628927	0.811295	0.232902
C99	C	-0.087537	0.258038	0.258505
N100	N	-0.068114	0.218627	0.219207
C101	C	0.386375	0.457760	0.457565
N102	N	0.366952	0.497181	0.496854
H103	H	0.593847	0.449362	0.812025
C104	C	0.713658	0.251475	0.912173
N105	N	0.739532	0.208784	0.934094
C106	C	0.625752	0.212660	0.804337
N107	N	0.616302	0.154390	0.782227
H108	H	0.724818	0.810972	0.391691
H109	H	0.704656	0.903669	0.266485
H110	H	0.573623	0.324251	0.904763
H111	H	0.262343	0.224011	0.224603
C112	C	0.170562	0.505344	0.505018
N113	N	0.151140	0.544772	0.544301
C114	C	0.269071	0.505327	0.505005
N115	N	0.288504	0.544736	0.544294
H116	H	-0.179345	0.271651	0.272068
H117	H	-0.094211	0.444220	0.444106
C118	C	-0.186036	0.457809	0.457675
N119	N	-0.205475	0.497205	0.496966
H120	H	0.177234	0.224027	0.224606
H121	H	0.393043	0.271580	0.271959
H122	H	0.121621	0.491746	0.491488
C123	C	0.484870	0.257977	0.258403
N124	N	0.504308	0.218559	0.219131
C125	C	0.029774	0.210457	0.211092
N126	N	0.010340	0.171038	0.171815
C127	C	0.029799	0.505335	0.505054
N128	N	0.010360	0.544734	0.544342
H129	H	0.593757	0.811198	0.449459
