data_functionalizedCrystal
_audit_creation_method	'MofGen! by Chris Wilmer'
_symmetry_space_group_name_H-M	'P1'
_symmetry_Int_Tables_number	1
_symmetry_cell_setting	triclinic
loop_
_symmetry_equiv_pos_as_xyz
  x,y,z
_cell_length_a	19.288859
_cell_length_b	16.109295
_cell_length_c	17.766277
_cell_angle_alpha	89.995364
_cell_angle_beta	89.999931
_cell_angle_gamma	96.703543
loop_
_atom_site_label
_atom_site_type_symbol
_atom_site_fract_x
_atom_site_fract_y
_atom_site_fract_z
O1	O	0.921591	-0.103695	0.062604
O2	O	1.421591	0.396305	0.562604
O3	O	0.719363	-0.117691	0.062601
O4	O	1.219363	0.382309	0.562601
O5	O	0.826034	0.010357	0.062604
O6	O	1.326034	0.510357	0.562604
O7	O	0.814919	-0.231744	0.062602
O8	O	1.314919	0.268256	0.562602
O9	O	0.826037	0.010370	-0.062585
O10	O	1.326037	0.510370	0.437415
O11	O	0.719365	-0.117679	-0.062587
O12	O	1.219365	0.382321	0.437413
O13	O	0.921593	-0.103682	-0.062585
O14	O	1.421593	0.396318	0.437415
Cu15	Cu	0.820480	-0.110679	-0.074017
Cu16	Cu	1.320480	0.389321	0.425983
Cu17	Cu	0.820477	-0.110694	0.074033
Cu18	Cu	1.320477	0.389306	0.574033
O19	O	0.814922	-0.231731	-0.062587
O20	O	1.314922	0.268269	0.437413
C21	C	0.693487	-0.117236	0.000007
C22	C	1.193487	0.382764	0.500007
C23	C	0.616380	-0.115886	0.000006
C24	C	1.116380	0.384114	0.500006
C25	C	0.052495	-0.181891	0.000007
C26	C	0.552495	0.318109	0.500007
C27	C	0.124945	-0.183166	0.000011
C28	C	0.624945	0.316834	0.500011
C29	C	0.169473	-0.108033	0.000010
C30	C	0.669473	0.391967	0.500010
C31	C	0.141547	-0.031619	0.000025
C32	C	0.641547	0.468381	0.500025
C33	C	0.069099	-0.030346	0.000028
C34	C	0.569099	0.469654	0.500028
C35	C	0.290612	-0.051995	-0.043851
C36	C	0.790612	0.448005	0.456149
C37	C	0.363058	-0.053271	-0.043860
C38	C	0.863058	0.446729	0.456140
C39	C	0.392929	-0.111956	0.000002
C40	C	0.892929	0.388044	0.500002
C41	C	0.350342	-0.169380	0.043863
C42	C	0.850342	0.330620	0.543863
C43	C	0.277893	-0.168107	0.043866
C44	C	0.777893	0.331893	0.543866
C45	C	0.248032	-0.109405	0.000007
C46	C	0.748032	0.390595	0.500007
C47	C	0.499405	-0.189748	-0.000003
C48	C	0.999405	0.310252	0.499997
C49	C	0.571856	-0.191020	0.000006
C50	C	1.071856	0.308980	0.500006
C51	C	0.588457	-0.039471	0.000012
C52	C	1.088457	0.460529	0.500012
C53	C	0.516007	-0.038201	0.000011
C54	C	1.016007	0.461799	0.500011
C55	C	0.471485	-0.113342	0.000000
C56	C	0.971485	0.386658	0.500000
C57	C	0.825586	0.041337	0.000011
C58	C	1.325586	0.541337	0.500011
C59	C	0.824238	0.133628	0.000017
C60	C	1.324238	0.633628	0.500017
C61	C	0.884400	0.356108	0.000045
C62	C	1.384400	0.856108	0.500045
C63	C	0.883128	0.442825	0.000058
C64	C	1.383128	0.942825	0.500058
C65	C	0.756568	0.422514	0.000052
C66	C	1.256568	0.922514	0.500052
C67	C	0.757841	0.335799	0.000045
C68	C	1.257841	0.835799	0.500045
C69	C	0.821759	0.302599	0.000038
C70	C	1.321759	0.802599	0.500038
C71	C	0.819214	0.476030	0.000057
C72	C	1.319214	0.976030	0.500057
C73	C	0.817835	0.570051	0.000071
C74	C	1.317835	1.070051	0.500071
C75	C	0.823138	0.208572	0.000026
C76	C	1.323138	0.708572	0.500026
C77	C	0.947470	-0.104138	0.000012
C78	C	1.447470	0.395862	0.500012
C79	C	1.024577	-0.105487	0.000017
C80	C	1.524577	0.394513	0.500017
C81	C	0.815374	0.737290	0.000025
C82	C	1.315374	1.237290	0.500025
C83	C	0.816735	0.645001	0.000078
C84	C	1.316735	1.145001	0.500078
N85	N	0.820475	-0.110699	0.178164
N86	N	1.320475	0.389301	0.678164
N87	N	0.820487	-0.110668	-0.178147
N88	N	1.320487	0.389332	0.321853
C89	C	0.867793	-0.054109	0.217552
C90	C	1.367793	0.445891	0.717552
C91	C	0.867799	-0.054108	0.296353
C92	C	1.367799	0.445892	0.796353
C93	C	0.820475	-0.110688	0.335764
C94	C	1.320475	0.389312	0.835764
C95	C	0.773153	-0.167288	0.296367
C96	C	1.273153	0.332712	0.796367
C97	C	0.773153	-0.167294	0.217567
C98	C	1.273153	0.332706	0.717567
C99	C	0.757213	-0.121636	0.460609
C100	C	1.257213	0.378364	0.960609
C101	C	0.757212	-0.121625	0.539407
C102	C	1.257212	0.378375	1.039407
C103	C	0.820475	-0.110676	0.578811
C104	C	1.320475	0.389324	1.078811
C105	C	0.883742	-0.099721	0.539405
C106	C	1.383742	0.400279	1.039405
C107	C	0.883742	-0.099726	0.460605
C108	C	1.383742	0.400274	0.960605
C109	C	0.820470	-0.110689	0.421210
C110	C	1.320470	0.389311	0.921210
C111	C	0.867804	-0.054082	0.703645
C112	C	1.367804	0.445918	1.203645
C113	C	0.867811	-0.054086	0.782448
C114	C	1.367811	0.445914	1.282448
C115	C	0.773158	-0.167263	0.782460
C116	C	1.273158	0.332737	1.282460
C117	C	0.773158	-0.167262	0.703658
C118	C	1.273158	0.332738	1.203658
C119	C	0.820480	-0.110668	0.664255
C120	C	1.320480	0.389332	1.164255
H121	H	0.594585	-0.253240	0.000004
H122	H	1.094585	0.246760	0.500004
F123	F	0.691166	0.278847	0.000043
F124	F	1.191166	0.778847	0.500043
H125	H	0.906333	-0.008024	0.328429
H126	H	1.406333	0.491976	0.828429
H127	H	0.934137	0.486389	0.000065
H128	H	1.434137	0.986389	0.500065
F129	F	0.005115	-0.261864	0.000003
F130	F	0.505115	0.238136	0.500003
F131	F	0.918171	0.006148	0.661708
F132	F	1.418171	0.506148	1.161708
F133	F	0.689881	-0.133341	0.581338
F134	F	1.189881	0.366659	1.081338
F135	F	0.952427	0.320777	0.000038
F136	F	1.452427	0.820777	0.500038
H137	H	0.935255	-0.090808	0.428525
H138	H	1.435255	0.409192	0.928525
F139	F	0.689876	-0.133294	0.418680
F140	F	1.189876	0.366706	0.918680
H141	H	0.624712	0.021704	0.000017
H142	H	1.124712	0.521704	0.500017
F143	F	0.951076	-0.088063	0.581335
F144	F	1.451076	0.411937	1.081335
F145	F	0.722797	-0.227485	0.824400
F146	F	1.222797	0.272515	1.324400
H147	H	0.734622	-0.213358	0.328459
H148	H	1.234622	0.286642	0.828459
H149	H	0.734620	-0.213377	0.185496
H150	H	1.234620	0.286623	0.685496
H151	H	0.704529	0.449556	0.000057
H152	H	1.204529	0.949556	0.500057
H153	H	0.493276	0.024015	0.000015
H154	H	0.993276	0.524015	0.500015
H155	H	0.147681	-0.245386	-0.000005
H156	H	0.647681	0.254614	0.499995
F157	F	0.918180	0.006142	0.824369
F158	F	1.418180	0.506142	1.324369
F159	F	0.258833	0.010503	-0.090503
F160	F	0.758833	0.510503	0.409497
F161	F	0.918159	0.006120	0.175618
F162	F	1.418159	0.506120	0.675618
H163	H	0.397727	-0.006518	-0.079577
H164	H	0.897727	0.493482	0.420423
F165	F	0.722792	-0.227489	0.661735
F166	F	1.222792	0.272511	1.161735
F167	F	0.382124	-0.231849	0.090541
F168	F	0.882124	0.268151	0.590541
F169	F	0.452018	-0.269719	-0.000012
F170	F	0.952018	0.230281	0.499988
F171	F	0.232572	-0.229216	0.090548
F172	F	0.732572	0.270784	0.590548
F173	F	0.188939	0.048343	0.000026
F174	F	0.688939	0.548343	0.500026
H175	H	0.046369	0.031873	0.000037
H176	H	0.546369	0.531873	0.500037
