data_functionalizedCrystal
_audit_creation_method	'MofGen! by Chris Wilmer'
_symmetry_space_group_name_H-M	'P1'
_symmetry_Int_Tables_number	1
_symmetry_cell_setting	triclinic
loop_
_symmetry_equiv_pos_as_xyz
  x,y,z
_cell_length_a	10.967874
_cell_length_b	11.026607
_cell_length_c	9.798715
_cell_angle_alpha	89.998891
_cell_angle_beta	77.867610
_cell_angle_gamma	96.380181
loop_
_atom_site_label
_atom_site_type_symbol
_atom_site_fract_x
_atom_site_fract_y
_atom_site_fract_z
O1	O	1.694011	0.170514	-0.511882
O2	O	1.334377	0.186837	-0.427306
O3	O	1.484388	0.001775	-0.462579
O4	O	1.544000	0.355577	-0.476608
O5	O	1.484374	0.001774	-0.235594
O6	O	1.334363	0.186837	-0.200320
O7	O	1.693996	0.170514	-0.284896
Zn8	Zn	1.514177	0.178675	-0.206569
Zn9	Zn	1.514196	0.178676	-0.505633
O10	O	1.543986	0.355576	-0.249623
C11	C	1.287614	0.185649	-0.302817
C12	C	1.148291	0.182096	-0.270053
C13	C	1.473383	-0.043528	-0.346502
C14	C	1.440600	-0.178515	-0.338797
C15	C	1.086184	0.180512	-0.373030
C16	C	0.942187	0.176839	-0.339169
C17	C	1.531121	-0.251567	-0.360087
C18	C	1.497240	-0.391084	-0.352124
C19	C	1.740760	0.171702	-0.409388
C20	C	1.880083	0.175255	-0.442161
C21	C	1.554990	0.400879	-0.365703
C22	C	1.587774	0.535866	-0.373417
N23	N	1.514174	0.178674	-0.002469
N24	N	1.514208	0.178667	-0.709735
C25	C	1.577085	0.100629	0.050515
C26	C	1.577104	0.100625	0.207674
H27	H	1.139618	0.181881	-0.486262
F28	F	1.721866	-0.410893	-0.404958
H29	H	1.630971	0.033811	0.253293
H30	H	1.338018	-0.219260	-0.314682
F31	F	1.443810	0.266015	0.230647
F32	F	1.665205	-0.198317	-0.391628
H33	H	1.460321	0.245484	0.068519
H34	H	1.630927	0.033809	-0.020468
H35	H	0.888758	0.175483	-0.225930
H36	H	1.394651	-0.431823	-0.328007
H37	H	0.933511	0.176626	-0.555401
H38	H	1.094858	0.180740	-0.156821
