data_functionalizedCrystal
_audit_creation_method	'MofGen! by Chris Wilmer'
_symmetry_space_group_name_H-M	'P1'
_symmetry_Int_Tables_number	1
_symmetry_cell_setting	triclinic
loop_
_symmetry_equiv_pos_as_xyz
  x,y,z
_cell_length_a	19.121102
_cell_length_b	19.120786
_cell_length_c	19.120904
_cell_angle_alpha	90.133503
_cell_angle_beta	89.911827
_cell_angle_gamma	89.915559
loop_
_atom_site_label
_atom_site_type_symbol
_atom_site_fract_x
_atom_site_fract_y
_atom_site_fract_z
Zn1	Zn	1.040890	-0.342335	0.426845
Zn2	Zn	1.041233	-0.454595	0.304618
Zn3	Zn	0.929064	-0.332381	0.305071
Zn4	Zn	0.919063	-0.454124	0.416841
O5	O	0.982562	-0.395859	0.363344
O6	O	1.138863	-0.361590	0.414628
O7	O	1.030682	-0.434414	0.206750
O8	O	0.947940	-0.235771	0.325601
O9	O	1.139115	-0.444066	0.324828
O10	O	1.030098	-0.243084	0.415067
O11	O	0.948273	-0.344624	0.207082
O12	O	0.829810	-0.344168	0.315901
O13	O	0.930895	-0.443264	0.516097
O14	O	0.822462	-0.433612	0.398018
O15	O	1.020400	-0.361133	0.523446
O16	O	1.020985	-0.552463	0.315128
O17	O	0.931227	-0.552118	0.397578
C18	C	0.800745	-0.387759	0.355923
C19	C	0.722961	-0.384312	0.352765
C20	C	0.682611	-0.429326	0.393961
C21	C	0.609525	-0.426077	0.390997
C22	C	0.576790	-0.377818	0.346832
C23	C	0.617145	-0.332800	0.305634
C24	C	0.690230	-0.336045	0.308602
C25	C	0.356312	-0.365683	0.335738
C26	C	0.283222	-0.362442	0.332771
C27	C	0.275607	-0.455719	0.418136
C28	C	0.348693	-0.458963	0.421097
C29	C	0.389042	-0.413942	0.379902
C30	C	0.502085	-0.374498	0.343800
C31	C	0.463746	-0.417260	0.382938
C32	C	0.975076	-0.577684	0.355235
C33	C	0.971937	-0.655474	0.351792
C34	C	1.013202	-0.695766	0.396790
C35	C	1.010249	-0.768858	0.393556
C36	C	0.966034	-0.801655	0.345320
C37	C	0.924764	-0.761357	0.300320
C38	C	0.927714	-0.688267	0.303558
C39	C	0.954987	-1.022152	0.333214
C40	C	0.952042	-1.095247	0.329978
C41	C	1.037525	-1.102743	0.423215
C42	C	1.040474	-1.029652	0.426446
C43	C	0.999202	-0.989360	0.381449
C44	C	0.963016	-0.876366	0.342011
C45	C	1.002216	-0.914650	0.384761
C46	C	1.165090	-0.403991	0.370793
C47	C	1.242873	-0.407456	0.373968
C48	C	0.974494	-0.403257	0.545873
C49	C	0.971055	-0.406409	0.623656
C50	C	0.990096	-0.213325	0.371500
C51	C	0.993307	-0.135540	0.374976
C52	C	0.990642	-0.388441	0.181528
C53	C	0.994224	-0.385098	0.103760
C54	C	1.016038	-0.365131	0.664026
C55	C	1.012799	-0.368090	0.737112
C56	C	0.964579	-0.412331	0.769826
C57	C	0.919592	-0.453611	0.729450
C58	C	0.922828	-0.450648	0.656366
C59	C	0.952473	-0.423414	0.990300
C60	C	0.949242	-0.426376	1.063390
C61	C	1.042448	-0.340853	1.071046
C62	C	1.045683	-0.337897	0.997961
C63	C	1.000693	-0.379174	0.957592
C64	C	0.961269	-0.415359	0.844530
C65	C	1.004001	-0.376143	0.882888
H66	H	0.576675	-0.462733	0.424543
H67	H	0.915849	-0.457036	0.957440
C68	C	0.851068	-0.435224	1.141299
C69	C	0.896227	-0.475003	1.099348
H70	H	0.818343	-0.465244	1.163500
H71	H	0.826828	-0.402387	1.113056
H72	H	0.877407	-0.411072	1.175800
H73	H	0.869888	-0.499151	1.064843
H74	H	0.920469	-0.507852	1.127593
H75	H	1.043258	-0.340119	0.856249
C76	C	0.873248	-0.496131	0.838081
C77	C	0.866588	-0.502243	0.765407
H78	H	0.840528	-0.526159	0.860277
H79	H	0.864416	-0.449145	0.851738
H80	H	0.919316	-0.508955	0.851515
H81	H	0.820521	-0.489413	0.751973
H82	H	0.875415	-0.549238	0.751745
H83	H	0.886192	-0.484254	0.623497
H84	H	0.256572	-0.323136	0.296812
H85	H	0.927019	-0.903078	0.302736
H86	H	0.375341	-0.498263	0.457059
H87	H	1.038213	-0.887945	0.424037
H88	H	1.071126	-1.135557	0.459850
C89	C	1.107836	-0.280888	0.678943
C90	C	1.069041	-0.316497	0.628071
H91	H	1.140554	-0.250859	0.656746
H92	H	1.132083	-0.313727	0.707178
H93	H	1.077180	-0.253920	0.707400
H94	H	1.099697	-0.343470	0.599618
H95	H	1.044793	-0.283654	0.599825
C96	C	0.867824	-1.080500	0.238149
C97	C	0.903431	-1.131299	0.276959
H98	H	0.837814	-1.102759	0.205422
H99	H	0.900664	-1.052248	0.213911
H100	H	0.840837	-1.052048	0.268796
H101	H	0.930423	-1.159748	0.246312
H102	H	0.870588	-1.159563	0.301198
H103	H	0.709258	-0.468626	0.429923
H104	H	0.242747	-0.492372	0.451676
H105	H	0.389156	-0.329028	0.302188
H106	H	0.590487	-0.293503	0.269677
C107	C	0.864597	-0.935475	0.323201
C108	C	0.909623	-0.977874	0.283747
H109	H	0.836588	-0.908142	0.292658
H110	H	0.891347	-0.905479	0.352383
H111	H	0.835311	-0.964052	0.351312
H112	H	0.938913	-0.949296	0.255641
H113	H	0.882871	-1.007872	0.254554
H114	H	0.922012	-0.451384	0.871174
H115	H	0.723082	-0.299386	0.275059
C116	C	1.022763	-0.277705	0.823886
C117	C	1.062243	-0.322706	0.781480
H118	H	1.053289	-0.249680	0.851271
H119	H	0.993593	-0.304475	0.853831
H120	H	0.994640	-0.248433	0.795311
H121	H	1.090362	-0.351982	0.810055
H122	H	1.091424	-0.295934	0.751532
C123	C	1.070144	-1.013393	0.547361
C124	C	1.089078	-0.993606	0.479469
H125	H	1.100151	-0.991137	0.580093
H126	H	1.074293	-1.062683	0.551868
H127	H	1.023148	-0.999765	0.556169
H128	H	1.136072	-1.007238	0.470659
H129	H	1.084935	-0.944305	0.474960
C130	C	0.541393	-0.434592	0.479947
C131	C	0.499728	-0.470305	0.431483
H132	H	0.563614	-0.467343	0.509911
H133	H	0.512952	-0.403977	0.506968
H134	H	0.575877	-0.408245	0.455827
H135	H	0.465240	-0.496649	0.455602
H136	H	0.528170	-0.500933	0.404458
C137	C	1.137482	-0.253652	1.012873
C138	C	1.098683	-0.289262	0.962004
H139	H	1.170200	-0.223625	0.990673
H140	H	1.161729	-0.286490	1.041108
H141	H	1.106827	-0.226681	1.041330
H142	H	1.129338	-0.316236	0.933550
H143	H	1.074435	-0.256419	0.933757
H144	H	1.079075	-0.307247	1.103923
C145	C	0.516947	-0.282628	0.259710
C146	C	0.466101	-0.321455	0.295250
H147	H	0.494729	-0.249879	0.229742
H148	H	0.545377	-0.313256	0.232691
H149	H	0.545212	-0.258408	0.292596
H150	H	0.437839	-0.345679	0.262363
H151	H	0.437659	-0.290823	0.322270
C152	C	1.042857	-0.679505	0.517703
C153	C	1.061800	-0.659716	0.449814
H154	H	1.072857	-0.657246	0.550440
H155	H	1.047010	-0.728795	0.522211
H156	H	0.995858	-0.665882	0.526504
H157	H	1.108797	-0.673344	0.441012
H158	H	1.057654	-0.610415	0.445305
C159	C	1.012437	-0.855245	0.484461
C160	C	1.055616	-0.813141	0.443018
H161	H	1.040449	-0.882578	0.515002
H162	H	0.985690	-0.885241	0.455278
H163	H	0.981896	-0.826468	0.511220
H164	H	1.086154	-0.841918	0.416256
H165	H	1.082375	-0.783142	0.472206
C166	C	0.840560	-0.746600	0.208489
C167	C	0.876160	-0.797405	0.247299
H168	H	0.810551	-0.768855	0.175759
H169	H	0.873403	-0.718350	0.184255
H170	H	0.813572	-0.718148	0.239136
H171	H	0.903152	-0.825854	0.216654
H172	H	0.843312	-0.825667	0.271535
C173	C	0.837336	-0.601575	0.293560
C174	C	0.882354	-0.643973	0.254096
H175	H	0.809328	-0.574235	0.263023
H176	H	0.864092	-0.571588	0.322744
H177	H	0.808049	-0.630154	0.321668
H178	H	0.911645	-0.615394	0.225991
H179	H	0.855596	-0.673964	0.224899
