data_functionalizedCrystal
_audit_creation_method	'MofGen! by Chris Wilmer'
_symmetry_space_group_name_H-M	'P1'
_symmetry_Int_Tables_number	1
_symmetry_cell_setting	triclinic
loop_
_symmetry_equiv_pos_as_xyz
  x,y,z
_cell_length_a	10.723022
_cell_length_b	9.798715
_cell_length_c	10.723024
_cell_angle_alpha	89.998022
_cell_angle_beta	95.532452
_cell_angle_gamma	90.003391
loop_
_atom_site_label
_atom_site_type_symbol
_atom_site_fract_x
_atom_site_fract_y
_atom_site_fract_z
O1	O	1.657188	0.113478	-0.175015
O2	O	2.157188	0.613478	0.324985
O3	O	1.294036	0.113483	-0.191770
O4	O	1.794036	0.613483	0.308230
O5	O	1.483989	0.113475	-0.001817
O6	O	1.983989	0.613475	0.498183
O7	O	1.467236	0.113486	-0.364969
O8	O	1.967236	0.613486	0.135031
O9	O	1.483975	-0.113507	-0.001816
O10	O	1.983975	0.386493	0.498184
O11	O	1.294022	-0.113499	-0.191770
O12	O	1.794022	0.386501	0.308230
O13	O	1.657174	-0.113504	-0.175015
O14	O	2.157174	0.386496	0.324985
Zn15	Zn	1.475596	-0.149540	-0.183392
Zn16	Zn	1.975596	0.350460	0.316608
Zn17	Zn	1.475614	0.149519	-0.183393
Zn18	Zn	1.975614	0.649519	0.316607
O19	O	1.467221	-0.113496	-0.364969
O20	O	1.967221	0.386504	0.135031
C21	C	1.247529	-0.000008	-0.190551
C22	C	1.747529	0.499992	0.309449
C23	C	1.108975	-0.000006	-0.186904
C24	C	1.608975	0.499994	0.313096
N25	N	1.475592	-0.353640	-0.183391
N26	N	1.975592	0.146360	0.316609
C27	C	0.890796	-0.000001	-0.289421
C28	C	1.390796	0.499999	0.210579
C29	C	1.033999	-0.000002	-0.293192
C30	C	1.533999	0.499998	0.206808
C31	C	1.555348	-0.421420	-0.103283
C32	C	2.055348	0.078580	0.396717
C33	C	1.555368	-0.578582	-0.103279
C34	C	2.055368	-0.078582	0.396721
C35	C	1.703681	-0.000010	-0.176234
C36	C	2.203681	0.499990	0.323766
C37	C	1.842235	-0.000003	-0.179881
C38	C	2.342235	0.499997	0.320119
C39	C	1.482763	-0.000014	0.044683
C40	C	1.982763	0.499986	0.544683
C41	C	1.479115	-0.000009	0.183238
C42	C	1.979115	0.499991	0.683238
N43	N	1.475628	0.353619	-0.183384
N44	N	1.975628	0.853619	0.316616
C45	C	1.468448	-0.000004	-0.411468
C46	C	1.968448	0.499996	0.088532
C47	C	1.472095	0.000000	-0.550023
C48	C	1.972095	0.500000	-0.050023
C49	C	1.585403	-0.000009	0.258221
C50	C	2.085403	0.499991	0.758221
C51	C	1.581635	-0.000004	0.401424
C52	C	2.081635	0.499996	0.901424
H53	H	0.826354	0.000011	-0.380409
H54	H	1.326354	0.500011	0.119591
H55	H	1.381100	-0.000010	0.385552
H56	H	1.881100	0.499990	0.885552
H57	H	1.679188	-0.000018	0.216399
H58	H	2.179188	0.499982	0.716399
C59	C	1.352409	-0.000010	0.239730
C60	C	1.852409	0.499990	0.739730
N61	N	1.256971	-0.000014	0.282278
N62	N	1.756971	0.499986	0.782278
H63	H	1.075811	-0.000008	-0.386980
H64	H	1.575811	0.499992	0.113020
H65	H	1.067171	0.000028	-0.093113
H66	H	1.567171	0.500028	0.406887
H67	H	0.906678	0.000002	-0.088892
H68	H	1.406678	0.500002	0.411108
C69	C	1.647556	-0.342634	-0.010610
C70	C	2.147556	0.157366	0.489390
N71	N	1.717004	-0.283295	0.059201
N72	N	2.217004	0.216705	0.559201
H73	H	1.407346	-0.588102	-0.251976
H74	H	1.907346	-0.088102	0.248024
C75	C	1.647617	-0.657324	-0.010622
C76	C	2.147617	-0.157324	0.489378
N77	N	1.717100	-0.716636	0.059172
N78	N	2.217100	-0.216636	0.559172
H79	H	1.407320	-0.411961	-0.251967
H80	H	1.907320	0.088039	0.248033
H81	H	1.672625	-0.000009	0.465857
H82	H	2.172625	0.499991	0.965857
