data_functionalizedCrystal
_audit_creation_method	'MofGen! by Chris Wilmer'
_symmetry_space_group_name_H-M	'P1'
_symmetry_Int_Tables_number	1
_symmetry_cell_setting	triclinic
loop_
_symmetry_equiv_pos_as_xyz
  x,y,z
_cell_length_a	19.077105
_cell_length_b	12.594516
_cell_length_c	19.077174
_cell_angle_alpha	92.277804
_cell_angle_beta	85.483752
_cell_angle_gamma	87.712633
loop_
_atom_site_label
_atom_site_type_symbol
_atom_site_fract_x
_atom_site_fract_y
_atom_site_fract_z
Zn1	Zn	1.093758	-0.517166	-0.441877
Zn2	Zn	1.593758	-0.017166	0.058123
Zn3	Zn	1.088960	-0.687708	-0.324000
Zn4	Zn	1.588960	-0.187708	0.176000
Zn5	Zn	0.971142	-0.502287	-0.319274
Zn6	Zn	1.471142	-0.002287	0.180726
Zn7	Zn	0.975854	-0.687638	-0.437118
Zn8	Zn	1.475854	-0.187638	0.062882
O9	O	1.032429	-0.598700	-0.380567
O10	O	1.532429	-0.098700	0.119433
O11	O	1.191772	-0.546045	-0.430210
O12	O	1.691772	-0.046045	0.069790
O13	O	1.069351	-0.656914	-0.224723
O14	O	1.569351	-0.156914	0.275277
O15	O	0.987443	-0.355318	-0.335551
O16	O	1.487443	0.144682	0.164449
O17	O	1.188248	-0.671341	-0.343607
O18	O	1.688248	-0.171341	0.156393
O19	O	1.077528	-0.366249	-0.425627
O20	O	1.577528	0.133751	0.074373
O21	O	0.982790	-0.520686	-0.221250
O22	O	1.482790	-0.020686	0.278750
O23	O	0.873116	-0.520618	-0.330936
O24	O	1.373116	-0.020618	0.169064
O25	O	0.995475	-0.671223	-0.536400
O26	O	1.495475	-0.171223	-0.036400
O27	O	0.876578	-0.656795	-0.417516
O28	O	1.376578	-0.156795	0.082484
O29	O	1.082098	-0.545977	-0.539896
O30	O	1.582098	-0.045977	-0.039896
O31	O	1.073921	-0.836642	-0.338992
O32	O	1.573921	-0.336642	0.161008
O33	O	0.990822	-0.836590	-0.422099
O34	O	1.490822	-0.336590	0.077901
C35	C	0.849268	-0.587085	-0.373197
C36	C	1.349268	-0.087085	0.126803
C37	C	0.770912	-0.582143	-0.370061
C38	C	1.270912	-0.082143	0.129939
C39	C	1.032382	-0.875237	-0.380559
C40	C	1.532382	-0.375237	0.119441
C41	C	1.032428	-0.993547	-0.380581
C42	C	1.532428	-0.493547	0.119419
C43	C	0.735918	-0.650820	-0.413594
C44	C	1.235918	-0.150820	0.086406
C45	C	0.662294	-0.646162	-0.410651
C46	C	1.162294	-0.146162	0.089349
C47	C	0.623666	-0.572833	-0.364170
C48	C	1.123666	-0.072833	0.135830
C49	C	0.658664	-0.504149	-0.320635
C50	C	1.158664	-0.004149	0.179365
C51	C	0.732287	-0.508802	-0.323583
C52	C	1.232287	-0.008802	0.176417
C53	C	0.403282	-0.551299	-0.350532
C54	C	0.903282	-0.051299	0.149468
C55	C	0.329655	-0.546653	-0.347586
C56	C	0.829655	-0.046653	0.152414
C57	C	0.333290	-0.688665	-0.437603
C58	C	0.833290	-0.188665	0.062397
C59	C	0.406914	-0.693316	-0.440544
C60	C	0.906914	-0.193316	0.059456
C61	C	0.441906	-0.624629	-0.397011
C62	C	0.941906	-0.124629	0.102989
N63	N	0.548410	-0.568073	-0.361159
N64	N	1.048410	-0.068073	0.138841
N65	N	0.517161	-0.629384	-0.400027
N66	N	1.017161	-0.129384	0.099973
C67	C	0.987224	-1.062809	-0.425750
C68	C	1.487224	-0.562809	0.074250
C69	C	0.967469	-1.128514	-0.360734
C70	C	1.467469	-0.628514	0.139266
C71	C	1.052247	-1.138645	-0.445610
C72	C	1.552247	-0.638645	0.054390
C73	C	1.012637	-1.057690	-0.315530
C74	C	1.512637	-0.557690	0.184470
C75	C	1.097447	-1.067820	-0.400450
C76	C	1.597447	-0.567820	0.099550
C77	C	1.077715	-1.133492	-0.335392
C78	C	1.577715	-0.633492	0.164608
C79	C	1.216304	-0.610360	-0.387967
C80	C	1.716304	-0.110360	0.112033
C81	C	1.294661	-0.615329	-0.391120
C82	C	1.794661	-0.115329	0.108880
C83	C	1.039847	-0.610252	-0.564442
C84	C	1.539847	-0.110252	-0.064442
C85	C	1.043008	-0.615174	-0.642798
C86	C	1.543008	-0.115174	-0.142798
C87	C	1.032495	-0.321084	-0.380592
C88	C	1.532495	0.178916	0.119408
C89	C	1.032523	-0.202781	-0.380603
C90	C	1.532523	0.297219	0.119397
C91	C	0.999428	-0.546562	-0.677802
C92	C	1.499428	-0.046562	-0.177802
C93	C	1.002396	-0.551196	-0.751426
C94	C	1.502396	-0.051196	-0.251426
C95	C	1.048948	-0.624438	-0.790045
C96	C	1.548948	-0.124438	-0.290045
C97	C	1.092530	-0.693058	-0.755037
C98	C	1.592530	-0.193058	-0.255037
C99	C	1.089558	-0.688428	-0.681414
C100	C	1.589558	-0.188428	-0.181414
C101	C	1.062665	-0.645895	-1.010428
C102	C	1.562665	-0.145895	-0.510428
C103	C	1.065635	-0.650517	-1.084056
C104	C	1.565635	-0.150517	-0.584056
C105	C	0.975499	-0.508656	-1.080440
C106	C	1.475499	-0.008656	-0.580440
C107	C	0.972535	-0.504028	-1.006816
C108	C	1.472535	-0.004028	-0.506816
C109	C	1.016114	-0.572652	-0.971814
C110	C	1.516114	-0.072652	-0.471814
N111	N	1.051984	-0.629174	-0.865301
N112	N	1.551984	-0.129174	-0.365301
N113	N	1.013074	-0.567920	-0.896559
N114	N	1.513074	-0.067920	-0.396559
C115	C	1.025079	-0.587119	-0.197410
C116	C	1.525079	-0.087119	0.302590
C117	C	1.022055	-0.581905	-0.119059
C118	C	1.522055	-0.081905	0.380941
H119	H	0.633806	-0.702087	-0.446100
H120	H	1.133806	-0.202087	0.053900
H121	H	1.068972	-1.174034	-0.500595
H122	H	1.568972	-0.674034	-0.000595
O123	O	0.949222	-0.467554	-0.636153
O124	O	1.449222	0.032446	-0.136153
H125	H	0.911991	-0.510801	-0.601156
H126	H	1.411991	-0.010801	-0.101156
H127	H	1.098143	-0.701784	-0.981938
H128	H	1.598143	-0.201784	-0.481938
O129	O	0.928504	-0.434632	-1.118190
O130	O	1.428504	0.065368	-0.618190
H131	H	0.938389	-0.450151	-1.175873
H132	H	1.438389	0.049849	-0.675873
H133	H	1.103547	-0.710161	-1.115498
H134	H	1.603547	-0.210161	-0.615498
H135	H	0.934625	-0.444389	-0.975377
H136	H	1.434625	0.055611	-0.475377
H137	H	1.130430	-0.752699	-0.786486
H138	H	1.630430	-0.252699	-0.286486
H139	H	1.115981	-1.164331	-0.297157
H140	H	1.615981	-0.664331	0.202843
O141	O	0.441015	-0.477218	-0.303576
O142	O	0.941015	0.022782	0.196424
H143	H	0.498700	-0.492758	-0.313437
H144	H	0.998700	0.007242	0.186563
O145	O	1.136569	-0.762421	-0.643654
O146	O	1.636569	-0.262421	-0.143654
H147	H	1.169446	-0.814120	-0.682876
H148	H	1.669446	-0.314120	-0.182876
H149	H	0.767365	-0.710536	-0.451442
H150	H	1.267365	-0.210536	0.048558
H151	H	0.438361	-0.753031	-0.478392
H152	H	0.938361	-0.253031	0.021608
O153	O	0.894690	-1.164048	-0.338476
O154	O	1.394690	-0.664048	0.161524
H155	H	0.895509	-1.252200	-0.338196
H156	H	1.395509	-0.752200	0.161804
H157	H	0.304791	-0.744585	-0.473046
H158	H	0.804791	-0.244585	0.026954
H159	H	0.966905	-0.495328	-0.779922
H160	H	1.466905	0.004672	-0.279922
O161	O	1.170265	-1.032492	-0.422742
O162	O	1.670265	-0.532492	0.077258
H163	H	1.168262	-0.985553	-0.470624
H164	H	1.668262	-0.485553	0.029376
O165	O	0.287973	-0.467572	-0.297453
O166	O	0.787973	0.032428	0.202547
H167	H	0.302588	-0.385713	-0.310201
H168	H	0.802588	0.114287	0.189799
O169	O	0.617005	-0.425081	-0.270482
O170	O	1.117005	0.074919	0.229518
H171	H	0.559930	-0.433398	-0.275734
H172	H	1.059930	0.066602	0.224266
H173	H	0.760778	-0.452873	-0.288137
H174	H	1.260778	0.047127	0.211863
O175	O	0.990399	-1.010995	-0.242669
O176	O	1.490399	-0.510995	0.257331
H177	H	0.942181	-0.959202	-0.244524
H178	H	1.442181	-0.459202	0.255476
O179	O	0.936498	-1.021667	-0.476265
O180	O	1.436498	-0.521667	0.023735
H181	H	0.882598	-1.045818	-0.459609
H182	H	1.382598	-0.545818	0.040391
