data_functionalizedCrystal
_audit_creation_method	'MofGen! by Chris Wilmer'
_symmetry_space_group_name_H-M	'P1'
_symmetry_Int_Tables_number	1
_symmetry_cell_setting	triclinic
loop_
_symmetry_equiv_pos_as_xyz
  x,y,z
_cell_length_a	19.188930
_cell_length_b	14.519709
_cell_length_c	18.266242
_cell_angle_alpha	89.992715
_cell_angle_beta	90.022918
_cell_angle_gamma	96.587538
loop_
_atom_site_label
_atom_site_type_symbol
_atom_site_fract_x
_atom_site_fract_y
_atom_site_fract_z
O1	O	0.926559	-0.115137	0.061118
O2	O	0.723303	-0.130636	0.061068
O3	O	0.830320	0.011385	0.061088
O4	O	0.819542	-0.257158	0.061098
O5	O	0.830302	0.011393	-0.060674
O6	O	0.723285	-0.130629	-0.060694
O7	O	0.926541	-0.115130	-0.060644
Zn8	Zn	0.824910	-0.122878	-0.080001
Zn9	Zn	0.824934	-0.122888	0.080425
O10	O	0.819524	-0.257151	-0.060664
C11	C	0.697281	-0.130131	0.000181
C12	C	0.619771	-0.128624	0.000161
C13	C	0.829809	0.045746	0.000206
C14	C	0.828304	0.148118	0.000206
N15	N	0.824899	-0.122871	-0.189488
C16	C	0.575144	-0.211957	0.000176
C17	C	0.502315	-0.210542	0.000184
C18	C	0.474117	-0.125788	0.000192
C19	C	0.518754	-0.042444	0.000173
C20	C	0.591581	-0.043861	0.000158
N21	N	0.365912	-0.061007	0.041660
N22	N	0.296729	-0.059666	0.041676
C23	C	0.254693	-0.121511	0.000237
N24	N	0.284453	-0.184762	-0.041210
N25	N	0.353642	-0.186106	-0.041223
C26	C	0.395149	-0.124241	0.000208
C27	C	0.131096	-0.203315	0.000259
C28	C	0.058266	-0.201896	0.000262
C29	C	0.074706	-0.033796	0.000259
C30	C	0.147535	-0.035217	0.000248
C31	C	0.175725	-0.119980	0.000252
C32	C	0.952563	-0.115635	0.000245
C33	C	1.030073	-0.117142	0.000269
C34	C	0.820035	-0.291511	0.000219
C35	C	0.821541	-0.393883	0.000225
C36	C	0.822762	0.522979	0.000223
C37	C	0.824301	0.418681	0.000218
C38	C	0.825533	0.335552	0.000214
C39	C	0.827072	0.231247	0.000210
C40	C	0.872302	-0.060015	-0.227788
C41	C	0.872306	-0.060010	-0.304433
C42	C	0.824914	-0.122878	-0.342775
C43	C	0.777503	-0.185739	-0.304466
C44	C	0.777495	-0.185736	-0.227822
N45	N	0.816129	-0.204517	-0.463106
N46	N	0.816141	-0.204517	-0.535914
C47	C	0.824934	-0.122892	-0.573698
N48	N	0.833729	-0.041263	-0.535923
N49	N	0.833721	-0.041263	-0.463108
C50	C	0.824917	-0.122889	-0.425882
C51	C	0.872344	-0.060025	-0.695105
C52	C	0.872344	-0.060020	-0.771751
C53	C	0.777544	-0.185757	-0.771782
C54	C	0.777541	-0.185755	-0.695137
C55	C	0.824945	-0.122890	-0.656803
N56	N	0.824951	-0.122887	0.189912
H57	H	0.598091	-0.280978	0.000180
H58	H	0.465973	-0.278404	0.000194
C59	C	0.923737	0.008385	-0.345939
C60	C	0.912320	0.098977	-0.327305
C61	C	0.959688	0.162006	-0.365517
H62	H	0.916998	-0.000496	-0.397085
H63	H	0.970358	-0.001423	-0.333341
H64	H	0.865710	0.108780	-0.339908
H65	H	0.919064	0.107887	-0.276165
H66	H	1.006309	0.152198	-0.352919
H67	H	0.952945	0.153116	-0.416661
H68	H	0.951952	0.223479	-0.352874
C69	C	0.726142	-0.254036	-0.186142
C70	C	0.763400	-0.310354	-0.142104
C71	C	0.716119	-0.373277	-0.103690
H72	H	0.697896	-0.291567	-0.219868
H73	H	0.697048	-0.220981	-0.156218
H74	H	0.792482	-0.343406	-0.172026
H75	H	0.791643	-0.272848	-0.108365
H76	H	0.687024	-0.340223	-0.073766
H77	H	0.687876	-0.410802	-0.137421
H78	H	0.741391	-0.411490	-0.073801
C79	C	0.009775	-0.292349	0.000130
C80	C	-0.032538	-0.296463	-0.062516
C81	C	-0.077212	-0.379779	-0.062666
H82	H	-0.019020	-0.295373	0.042546
H83	H	0.036971	-0.343058	0.000092
H84	H	-0.059732	-0.245768	-0.062472
H85	H	-0.003762	-0.293455	-0.104942
H86	H	-0.050015	-0.430488	-0.062703
H87	H	-0.106001	-0.382795	-0.020247
H88	H	-0.105921	-0.382585	-0.105173
H89	H	0.910941	-0.008834	-0.663892
C90	C	0.161615	-0.295404	0.000366
C91	C	0.138961	-0.345786	0.063002
C92	C	0.167052	-0.430626	0.063120
H93	H	0.211378	-0.284443	0.000397
H94	H	0.146262	-0.329750	-0.042072
H95	H	0.154318	-0.311447	0.105429
H96	H	0.089202	-0.356772	0.062985
H97	H	0.151699	-0.464972	0.020681
H98	H	0.216814	-0.419656	0.063148
H99	H	0.151680	-0.464824	0.105614
C100	C	0.726127	-0.253957	-0.346223
C101	C	0.736293	-0.240525	-0.421542
C102	C	0.688980	-0.303357	-0.460030
H103	H	0.679488	-0.244152	-0.333779
H104	H	0.733787	-0.315501	-0.333690
H105	H	0.728627	-0.178995	-0.434070
H106	H	0.782922	-0.250338	-0.434008
H107	H	0.696641	-0.364902	-0.447497
H108	H	0.642344	-0.293547	-0.447580
H109	H	0.695876	-0.294259	-0.511138
C110	C	0.044063	0.058199	0.000419
C111	C	0.002782	0.063931	0.063080
C112	C	-0.025453	0.148670	0.063255
H113	H	0.015923	0.062343	-0.041987
H114	H	0.081057	0.107654	0.000451
H115	H	-0.034207	0.014489	0.063041
H116	H	0.030906	0.059803	0.105496
H117	H	0.011542	0.198126	0.063288
H118	H	-0.053589	0.152807	0.020847
H119	H	-0.053459	0.152574	0.105773
C120	C	0.923893	0.008269	-0.813205
C121	C	0.965416	0.063301	-0.763225
C122	C	1.012918	0.126209	-0.801386
H123	H	0.898821	0.046671	-0.843124
H124	H	0.953032	-0.024796	-0.843069
H125	H	0.936281	0.096364	-0.733374
H126	H	0.990503	0.024925	-0.733304
H127	H	1.042058	0.093144	-0.831250
H128	H	0.987841	0.164604	-0.831304
H129	H	1.041102	0.163550	-0.767481
H130	H	0.183871	0.032642	0.000240
H131	H	0.627917	0.024001	0.000146
H132	H	0.495790	0.026564	0.000190
C133	C	0.923536	0.008581	-0.186208
C134	C	0.886100	0.064876	-0.142381
C135	C	0.933220	0.128201	-0.104118
H136	H	0.951669	0.046089	-0.220023
H137	H	0.952754	-0.024163	-0.156153
H138	H	0.856895	0.097617	-0.172433
H139	H	0.857969	0.027393	-0.108553
H140	H	0.962438	0.095458	-0.074063
H141	H	0.961352	0.165703	-0.137938
H142	H	0.907828	0.166399	-0.074372
C143	C	0.726052	-0.253867	-0.813494
C144	C	0.683271	-0.204880	-0.857536
C145	C	0.635831	-0.267591	-0.895981
H146	H	0.697753	-0.291332	-0.779787
H147	H	0.751196	-0.292165	-0.843418
H148	H	0.658129	-0.166598	-0.827615
H149	H	0.711551	-0.167419	-0.891257
H150	H	0.660975	-0.305888	-0.925905
H151	H	0.607537	-0.305052	-0.862269
H152	H	0.606803	-0.234362	-0.925873
H153	H	0.738944	-0.236942	-0.663951
