data_functionalizedCrystal
_audit_creation_method	'MofGen! by Chris Wilmer'
_symmetry_space_group_name_H-M	'P1'
_symmetry_Int_Tables_number	1
_symmetry_cell_setting	triclinic
loop_
_symmetry_equiv_pos_as_xyz
  x,y,z
_cell_length_a	16.956984
_cell_length_b	27.731996
_cell_length_c	26.210047
_cell_angle_alpha	89.989354
_cell_angle_beta	89.983218
_cell_angle_gamma	79.337403
loop_
_atom_site_label
_atom_site_type_symbol
_atom_site_fract_x
_atom_site_fract_y
_atom_site_fract_z
O1	O	1.057800	0.020036	-0.042434
O2	O	1.307800	0.270036	0.207566
O3	O	1.557800	0.520036	0.457566
O4	O	1.807800	0.770036	0.707566
O5	O	0.825428	0.037015	-0.042436
O6	O	1.075428	0.287015	0.207564
O7	O	1.325428	0.537015	0.457564
O8	O	1.575428	0.787015	0.707564
O9	O	0.948853	-0.042129	-0.042424
O10	O	1.198853	0.207871	0.207576
O11	O	1.448853	0.457871	0.457576
O12	O	1.698853	0.707871	0.707576
O13	O	0.934376	0.099181	-0.042446
O14	O	1.184376	0.349181	0.207554
O15	O	1.434376	0.599181	0.457554
O16	O	1.684376	0.849181	0.707554
O17	O	0.948814	-0.042128	0.042434
O18	O	1.198814	0.207872	0.292434
O19	O	1.448814	0.457872	0.542434
O20	O	1.698814	0.707872	0.792434
O21	O	0.825390	0.037017	0.042422
O22	O	1.075390	0.287017	0.292422
O23	O	1.325390	0.537017	0.542422
O24	O	1.575390	0.787017	0.792422
O25	O	1.057762	0.020037	0.042425
O26	O	1.307762	0.270037	0.292425
O27	O	1.557762	0.520037	0.542425
O28	O	1.807762	0.770037	0.792425
Cu29	Cu	0.941572	0.028527	0.050172
Cu30	Cu	1.191572	0.278527	0.300172
Cu31	Cu	1.441572	0.528527	0.550172
Cu32	Cu	1.691572	0.778527	0.800172
Cu33	Cu	0.941618	0.028526	-0.050183
Cu34	Cu	1.191618	0.278526	0.199817
Cu35	Cu	1.441618	0.528526	0.449817
Cu36	Cu	1.691618	0.778526	0.699817
O37	O	0.934337	0.099182	0.042412
O38	O	1.184337	0.349182	0.292412
O39	O	1.434337	0.599182	0.542412
O40	O	1.684337	0.849182	0.792412
C41	C	0.795690	0.037886	-0.000007
C42	C	1.045690	0.287886	0.249993
C43	C	1.295690	0.537886	0.499993
C44	C	1.545690	0.787886	0.749993
C45	C	0.707136	0.040471	-0.000007
C46	C	0.957136	0.290471	0.249993
C47	C	1.207136	0.540471	0.499993
C48	C	1.457136	0.790471	0.749993
C49	C	0.948536	-0.060125	0.000007
C50	C	1.198536	0.189875	0.250007
C51	C	1.448536	0.439875	0.500007
C52	C	1.698536	0.689875	0.750007
C53	C	0.947640	-0.113750	0.000012
C54	C	1.197640	0.136250	0.250012
C55	C	1.447640	0.386250	0.500012
C56	C	1.697640	0.636250	0.750012
C57	C	0.675598	-0.002750	0.000000
C58	C	0.925598	0.247250	0.250000
C59	C	1.175598	0.497250	0.500000
C60	C	1.425598	0.747250	0.750000
C61	C	0.592392	-0.000318	-0.000004
C62	C	0.842392	0.249682	0.249996
C63	C	1.092392	0.499682	0.499996
C64	C	1.342392	0.749682	0.749996
C65	C	0.540726	0.045334	-0.000012
C66	C	0.790726	0.295334	0.249988
C67	C	1.040726	0.545334	0.499988
C68	C	1.290726	0.795334	0.749988
C69	C	0.572269	0.088558	-0.000021
C70	C	0.822269	0.338558	0.249979
C71	C	1.072269	0.588558	0.499979
C72	C	1.322269	0.838558	0.749979
C73	C	0.655474	0.086126	-0.000021
C74	C	0.905474	0.336126	0.249979
C75	C	1.155474	0.586126	0.499979
C76	C	1.405474	0.836126	0.749979
C77	C	0.290801	0.057374	-0.000017
C78	C	0.540801	0.307374	0.249983
C79	C	0.790801	0.557374	0.499983
C80	C	1.040801	0.807374	0.749983
C81	C	0.207592	0.059803	-0.000016
C82	C	0.457592	0.309803	0.249984
C83	C	0.707592	0.559803	0.499984
C84	C	0.957592	0.809803	0.749984
C85	C	0.227720	-0.029074	0.000000
C86	C	0.477720	0.220926	0.250000
C87	C	0.727720	0.470926	0.500000
C88	C	0.977720	0.720926	0.750000
C89	C	0.310925	-0.031502	0.000004
C90	C	0.560925	0.218498	0.250004
C91	C	0.810925	0.468498	0.500004
C92	C	1.060925	0.718498	0.750004
C93	C	0.342462	0.011721	-0.000008
C94	C	0.592462	0.261721	0.249992
C95	C	0.842462	0.511721	0.499992
C96	C	1.092462	0.761721	0.749992
N97	N	0.455676	0.047821	-0.000014
N98	N	0.705676	0.297821	0.249986
N99	N	0.955676	0.547821	0.499986
N100	N	1.205676	0.797821	0.749986
N101	N	0.427510	0.009234	-0.000009
N102	N	0.677510	0.259234	0.249991
N103	N	0.927510	0.509234	0.499991
N104	N	1.177510	0.759234	0.749991
C105	C	0.942026	-0.446267	-0.046269
C106	C	1.192026	-0.196267	0.203731
C107	C	1.442026	0.053733	0.453731
C108	C	1.692026	0.303733	0.703731
C109	C	0.938624	-0.647805	-0.046278
C110	C	1.188624	-0.397805	0.203722
C111	C	1.438624	-0.147805	0.453722
C112	C	1.688624	0.102195	0.703722
O113	O	0.938168	-0.673860	-0.085617
O114	O	1.188168	-0.423860	0.164383
O115	O	1.438168	-0.173860	0.414383
O116	O	1.688168	0.076140	0.664383
N117	N	0.938181	-0.673006	-0.000022
N118	N	1.188181	-0.423006	0.249978
N119	N	1.438181	-0.173006	0.499978
N120	N	1.688181	0.076994	0.749978
C121	C	0.938582	-0.647820	0.046239
C122	C	1.188582	-0.397820	0.296239
C123	C	1.438582	-0.147820	0.546239
C124	C	1.688582	0.102180	0.796239
O125	O	0.938119	-0.673878	0.085582
O126	O	1.188119	-0.423878	0.335582
O127	O	1.438119	-0.173878	0.585582
O128	O	1.688119	0.076122	0.835582
C129	C	0.941978	-0.446282	0.046248
C130	C	1.191978	-0.196282	0.296248
C131	C	1.441978	0.053718	0.546248
C132	C	1.691978	0.303718	0.796248
C133	C	0.942430	-0.421084	-0.000011
C134	C	1.192430	-0.171084	0.249989
C135	C	1.442430	0.078916	0.499989
C136	C	1.692430	0.328916	0.749989
C137	C	0.942476	-0.421069	-0.092524
C138	C	1.192476	-0.171069	0.157476
C139	C	1.442476	0.078931	0.407476
C140	C	1.692476	0.328931	0.657476
C141	C	0.943331	-0.370688	-0.092521
C142	C	1.193331	-0.120688	0.157479
C143	C	1.443331	0.129312	0.407479
C144	C	1.693331	0.379312	0.657479
C145	C	0.943735	-0.345506	-0.046263
C146	C	1.193735	-0.095506	0.203737
C147	C	1.443735	0.154494	0.453737
C148	C	1.693735	0.404494	0.703737
C149	C	0.943284	-0.370704	-0.000008
C150	C	1.193284	-0.120704	0.249992
C151	C	1.443284	0.129296	0.499992
C152	C	1.693284	0.379296	0.749992
C153	C	0.942374	-0.421096	0.092508
C154	C	1.192374	-0.171096	0.342508
C155	C	1.442374	0.078904	0.592508
C156	C	1.692374	0.328904	0.842508
C157	C	0.943221	-0.370708	0.092506
C158	C	1.193221	-0.120708	0.342506
C159	C	1.443221	0.129292	0.592506
C160	C	1.693221	0.379292	0.842506
C161	C	0.943673	-0.345510	0.046248
C162	C	1.193673	-0.095510	0.296248
C163	C	1.443673	0.154490	0.546248
C164	C	1.693673	0.404490	0.796248
C165	C	0.944543	-0.295140	0.046252
C166	C	1.194543	-0.045140	0.296252
C167	C	1.444543	0.204860	0.546252
C168	C	1.694543	0.454860	0.796252
N169	N	0.944987	-0.269938	-0.000004
N170	N	1.194987	-0.019938	0.249996
N171	N	1.444987	0.230062	0.499996
N172	N	1.694987	0.480062	0.749996
C173	C	0.944583	-0.295121	-0.046261
C174	C	1.194583	-0.045121	0.203739
C175	C	1.444583	0.204879	0.453739
C176	C	1.694583	0.454879	0.703739
C177	C	0.936801	-0.753630	0.046231
C178	C	1.186801	-0.503630	0.296231
C179	C	1.436801	-0.253630	0.546231
C180	C	1.686801	-0.003630	0.796231
C181	C	0.935954	-0.804014	0.046229
C182	C	1.185954	-0.554014	0.296229
C183	C	1.435954	-0.304014	0.546229
C184	C	1.685954	-0.054014	0.796229
C185	C	0.935994	-0.803996	-0.046288
C186	C	1.185994	-0.553996	0.203712
C187	C	1.435994	-0.303996	0.453712
C188	C	1.685994	-0.053996	0.703712
C189	C	0.936847	-0.753611	-0.046285
C190	C	1.186847	-0.503611	0.203715
C191	C	1.436847	-0.253611	0.453715
C192	C	1.686847	-0.003611	0.703715
C193	C	0.937245	-0.728429	-0.000024
C194	C	1.187245	-0.478429	0.249976
C195	C	1.437245	-0.228429	0.499976
C196	C	1.687245	0.021571	0.749976
C197	C	0.946378	-0.189318	-0.046252
C198	C	1.196378	0.060682	0.203748
C199	C	1.446378	0.310682	0.453748
C200	C	1.696378	0.560682	0.703748
C201	C	0.947236	-0.138933	-0.046245
C202	C	1.197236	0.111067	0.203755
C203	C	1.447236	0.361067	0.453755
C204	C	1.697236	0.611067	0.703755
C205	C	0.947192	-0.138955	0.046271
C206	C	1.197192	0.111045	0.296271
C207	C	1.447192	0.361045	0.546271
C208	C	1.697192	0.611045	0.796271
C209	C	0.946338	-0.189336	0.046265
C210	C	1.196338	0.060664	0.296265
C211	C	1.446338	0.310664	0.546265
C212	C	1.696338	0.560664	0.796265
C213	C	0.945929	-0.214516	-0.000001
C214	C	1.195929	0.035484	0.249999
C215	C	1.445929	0.285484	0.499999
C216	C	1.695929	0.535484	0.749999
O217	O	0.944991	-0.269053	0.085571
O218	O	1.194991	-0.019053	0.335571
O219	O	1.444991	0.230947	0.585571
O220	O	1.694991	0.480947	0.835571
O221	O	0.945029	-0.269052	-0.085599
O222	O	1.195029	-0.019052	0.164401
O223	O	1.445029	0.230948	0.414401
O224	O	1.695029	0.480948	0.664401
C225	C	0.941171	-0.496648	-0.046271
C226	C	1.191171	-0.246648	0.203729
C227	C	1.441171	0.003352	0.453729
C228	C	1.691171	0.253352	0.703729
C229	C	0.940720	-0.521846	-0.000017
C230	C	1.190720	-0.271846	0.249983
C231	C	1.440720	-0.021846	0.499983
C232	C	1.690720	0.228154	0.749983
C233	C	0.941124	-0.496663	0.046241
C234	C	1.191124	-0.246663	0.296241
C235	C	1.441124	0.003337	0.546241
C236	C	1.691124	0.253337	0.796241
C237	C	0.939873	-0.572231	-0.000019
C238	C	1.189873	-0.322231	0.249981
C239	C	1.439873	-0.072231	0.499981
C240	C	1.689873	0.177769	0.749981
C241	C	0.939469	-0.597413	-0.046276
C242	C	1.189469	-0.347413	0.203724
C243	C	1.439469	-0.097413	0.453724
C244	C	1.689469	0.152587	0.703724
C245	C	0.939912	-0.572212	-0.092532
C246	C	1.189912	-0.322212	0.157468
C247	C	1.439912	-0.072212	0.407468
C248	C	1.689912	0.177788	0.657468
C249	C	0.940767	-0.521831	-0.092529
C250	C	1.190767	-0.271831	0.157471
C251	C	1.440767	-0.021831	0.407471
C252	C	1.690767	0.228169	0.657471
C253	C	0.940681	-0.521865	0.092497
C254	C	1.190681	-0.271865	0.342497
C255	C	1.440681	-0.021865	0.592497
C256	C	1.690681	0.228135	0.842497
C257	C	0.939827	-0.572246	0.092490
C258	C	1.189827	-0.322246	0.342490
C259	C	1.439827	-0.072246	0.592490
C260	C	1.689827	0.177754	0.842490
C261	C	0.939423	-0.597429	0.046233
C262	C	1.189423	-0.347429	0.296233
C263	C	1.439423	-0.097429	0.546233
C264	C	1.689423	0.152571	0.796233
C265	C	1.087500	0.019167	-0.000005
C266	C	1.337500	0.269167	0.249995
C267	C	1.587500	0.519167	0.499995
C268	C	1.837500	0.769167	0.749995
C269	C	1.176053	0.016582	-0.000008
C270	C	1.426053	0.266582	0.249992
C271	C	1.676053	0.516582	0.499992
C272	C	1.926053	0.766582	0.749992
C273	C	0.934654	0.117178	-0.000020
C274	C	1.184654	0.367178	0.249980
C275	C	1.434654	0.617178	0.499980
C276	C	1.684654	0.867178	0.749980
C277	C	0.935549	0.170803	-0.000028
C278	C	1.185549	0.420803	0.249972
C279	C	1.435549	0.670803	0.499972
C280	C	1.685549	0.920803	0.749972
N281	N	0.941546	0.028528	0.120755
N282	N	1.191546	0.278528	0.370755
N283	N	1.441546	0.528528	0.620755
N284	N	1.691546	0.778528	0.870755
N285	N	0.941650	0.028521	-0.120767
N286	N	1.191650	0.278521	0.129233
N287	N	1.441650	0.528521	0.379233
N288	N	1.691650	0.778521	0.629233
C289	C	0.989623	0.055936	0.473265
C290	C	1.239623	0.305936	0.723265
C291	C	1.489623	0.555936	0.973265
C292	C	1.739623	0.805936	1.223265
C293	C	0.989647	0.055935	0.686924
C294	C	1.239647	0.305935	0.936924
C295	C	1.489647	0.555935	1.186924
C296	C	1.739647	0.805935	1.436924
O297	O	1.030505	0.079234	0.714542
O298	O	1.280505	0.329234	0.964542
O299	O	1.530505	0.579234	1.214542
O300	O	1.780505	0.829234	1.464542
N301	N	0.941637	0.028520	0.713649
N302	N	1.191637	0.278520	0.963649
N303	N	1.441637	0.528520	1.213649
N304	N	1.691637	0.778520	1.463649
C305	C	0.893622	0.001101	0.686957
C306	C	1.143622	0.251101	0.936957
C307	C	1.393622	0.501101	1.186957
C308	C	1.643622	0.751101	1.436957
O309	O	0.852793	-0.022221	0.714591
O310	O	1.102793	0.227779	0.964591
O311	O	1.352793	0.477779	1.214591
O312	O	1.602793	0.727779	1.464591
C313	C	0.893603	0.001100	0.473299
C314	C	1.143603	0.251100	0.723299
C315	C	1.393603	0.501100	0.973299
C316	C	1.643603	0.751100	1.223299
C317	C	0.941610	0.028520	0.446577
C318	C	1.191610	0.278520	0.696577
C319	C	1.441610	0.528520	0.946577
C320	C	1.691610	0.778520	1.196577
C321	C	1.037627	0.083354	0.446542
C322	C	1.287627	0.333354	0.696542
C323	C	1.537627	0.583354	0.946542
C324	C	1.787627	0.833354	1.196542
C325	C	1.037617	0.083356	0.393131
C326	C	1.287617	0.333356	0.643131
C327	C	1.537617	0.583356	0.893131
C328	C	1.787617	0.833356	1.143131
C329	C	0.989604	0.055940	0.366442
C330	C	1.239604	0.305940	0.616442
C331	C	1.489604	0.555940	0.866442
C332	C	1.739604	0.805940	1.116442
C333	C	0.941600	0.028522	0.393165
C334	C	1.191600	0.278522	0.643165
C335	C	1.441600	0.528522	0.893165
C336	C	1.691600	0.778522	1.143165
C337	C	0.845592	-0.026322	0.446608
C338	C	1.095592	0.223678	0.696608
C339	C	1.345592	0.473678	0.946608
C340	C	1.595592	0.723678	1.196608
C341	C	0.845594	-0.026321	0.393190
C342	C	1.095594	0.223679	0.643190
C343	C	1.345594	0.473679	0.893190
C344	C	1.595594	0.723679	1.143190
C345	C	0.893600	0.001100	0.366467
C346	C	1.143600	0.251100	0.616467
C347	C	1.393600	0.501100	0.866467
C348	C	1.643600	0.751100	1.116467
C349	C	0.893577	0.001109	0.313065
C350	C	1.143577	0.251109	0.563065
C351	C	1.393577	0.501109	0.813065
C352	C	1.643577	0.751109	1.063065
N353	N	0.941587	0.028524	0.286340
N354	N	1.191587	0.278524	0.536340
N355	N	1.441587	0.528524	0.786340
N356	N	1.691587	0.778524	1.036340
C357	C	0.989600	0.055940	0.313028
C358	C	1.239600	0.305940	0.563028
C359	C	1.489600	0.555940	0.813028
C360	C	1.739600	0.805940	1.063028
C361	C	0.893634	0.001104	0.799130
C362	C	1.143634	0.251104	1.049130
C363	C	1.393634	0.501104	1.299130
C364	C	1.643634	0.751104	1.549130
C365	C	0.893637	0.001105	0.852545
C366	C	1.143637	0.251105	1.102545
C367	C	1.393637	0.501105	1.352545
C368	C	1.643637	0.751105	1.602545
C369	C	0.989663	0.055938	0.852508
C370	C	1.239663	0.305938	1.102508
C371	C	1.489663	0.555938	1.352508
C372	C	1.739663	0.805938	1.602508
C373	C	0.989655	0.055940	0.799092
C374	C	1.239655	0.305940	1.049092
C375	C	1.489655	0.555940	1.299092
C376	C	1.739655	0.805940	1.549092
C377	C	0.941643	0.028519	0.772405
C378	C	1.191643	0.278519	1.022405
C379	C	1.441643	0.528519	1.272405
C380	C	1.691643	0.778519	1.522405
C381	C	0.989576	0.055942	0.200860
C382	C	1.239576	0.305942	0.450860
C383	C	1.489576	0.555942	0.700860
C384	C	1.739576	0.805942	0.950860
C385	C	0.989559	0.055944	0.147444
C386	C	1.239559	0.305944	0.397444
C387	C	1.489559	0.555944	0.647444
C388	C	1.739559	0.805944	0.897444
C389	C	0.893536	0.001108	0.147486
C390	C	1.143536	0.251108	0.397486
C391	C	1.393536	0.501108	0.647486
C392	C	1.643536	0.751108	0.897486
C393	C	0.893549	0.001109	0.200897
C394	C	1.143549	0.251109	0.450897
C395	C	1.393549	0.501109	0.700897
C396	C	1.643549	0.751109	0.950897
C397	C	0.941575	0.028527	0.227583
C398	C	1.191575	0.278527	0.477583
C399	C	1.441575	0.528527	0.727583
C400	C	1.691575	0.778527	0.977583
O401	O	0.852747	-0.022182	0.285414
O402	O	1.102747	0.227818	0.535414
O403	O	1.352747	0.477818	0.785414
O404	O	1.602747	0.727818	1.035414
O405	O	1.030436	0.079250	0.285385
O406	O	1.280436	0.329250	0.535385
O407	O	1.530436	0.579250	0.785385
O408	O	1.780436	0.829250	1.035385
C409	C	0.989633	0.055934	0.526677
C410	C	1.239633	0.305934	0.776677
C411	C	1.489633	0.555934	1.026677
C412	C	1.739633	0.805934	1.276677
C413	C	0.941629	0.028516	0.553400
C414	C	1.191629	0.278516	0.803400
C415	C	1.441629	0.528516	1.053400
C416	C	1.691629	0.778516	1.303400
C417	C	0.893616	0.001100	0.526711
C418	C	1.143616	0.251100	0.776711
C419	C	1.393616	0.501100	1.026711
C420	C	1.643616	0.751100	1.276711
C421	C	0.941633	0.028517	0.606814
C422	C	1.191633	0.278517	0.856814
C423	C	1.441633	0.528517	1.106814
C424	C	1.691633	0.778517	1.356814
C425	C	0.989646	0.055933	0.633502
C426	C	1.239646	0.305933	0.883502
C427	C	1.489646	0.555933	1.133502
C428	C	1.739646	0.805933	1.383502
C429	C	1.037656	0.083348	0.606777
C430	C	1.287656	0.333348	0.856777
C431	C	1.537656	0.583348	1.106777
C432	C	1.787656	0.833348	1.356777
C433	C	1.037646	0.083350	0.553365
C434	C	1.287646	0.333350	0.803365
C435	C	1.537646	0.583350	1.053365
C436	C	1.787646	0.833350	1.303365
C437	C	0.845606	-0.026315	0.553436
C438	C	1.095606	0.223685	0.803436
C439	C	1.345606	0.473685	1.053436
C440	C	1.595606	0.723685	1.303436
C441	C	0.845619	-0.026314	0.606848
C442	C	1.095619	0.223686	0.856848
C443	C	1.345619	0.473686	1.106848
C444	C	1.595619	0.723686	1.356848
C445	C	0.893632	0.001102	0.633537
C446	C	1.143632	0.251102	0.883537
C447	C	1.393632	0.501102	1.133537
C448	C	1.643632	0.751102	1.383537
H449	H	0.717660	-0.039925	0.000009
H450	H	0.967660	0.210075	0.250009
H451	H	1.217660	0.460075	0.500009
H452	H	1.467660	0.710075	0.750009
Cl453	Cl	0.142640	0.117199	-0.000022
Cl454	Cl	0.392640	0.367199	0.249978
Cl455	Cl	0.642640	0.617199	0.499978
Cl456	Cl	0.892640	0.867199	0.749978
H457	H	0.854535	-0.021217	0.874298
H458	H	1.104535	0.228783	1.124298
H459	H	1.354535	0.478783	1.374298
H460	H	1.604535	0.728783	1.624298
Cl461	Cl	1.049951	0.090412	0.234400
Cl462	Cl	1.299951	0.340412	0.484400
Cl463	Cl	1.549951	0.590412	0.734400
Cl464	Cl	1.799951	0.840412	0.984400
H465	H	1.028746	0.078269	0.777338
H466	H	1.278746	0.328269	1.027338
H467	H	1.528746	0.578269	1.277338
H468	H	1.778746	0.828269	1.527338
H469	H	0.352988	-0.068677	0.000013
H470	H	0.602988	0.181323	0.250013
H471	H	0.852988	0.431323	0.500013
H472	H	1.102988	0.681323	0.750013
H473	H	0.943696	-0.350177	-0.130190
H474	H	1.193696	-0.100177	0.119810
H475	H	1.443696	0.149823	0.369810
H476	H	1.693696	0.399823	0.619810
H477	H	0.806501	-0.048651	0.468357
H478	H	1.056501	0.201349	0.718357
H479	H	1.306501	0.451349	0.968357
H480	H	1.556501	0.701349	1.218357
Cl481	Cl	1.097960	0.117838	0.359545
Cl482	Cl	1.347960	0.367838	0.609545
Cl483	Cl	1.597960	0.617838	0.859545
Cl484	Cl	1.847960	0.867838	1.109545
Cl485	Cl	0.188069	-0.083408	0.000012
Cl486	Cl	0.438069	0.166592	0.250012
Cl487	Cl	0.688069	0.416592	0.500012
Cl488	Cl	0.938069	0.666592	0.750012
Cl489	Cl	0.507317	0.145950	-0.000036
Cl490	Cl	0.757317	0.395950	0.249964
Cl491	Cl	1.007317	0.645950	0.499964
Cl492	Cl	1.257317	0.895950	0.749964
H493	H	0.941011	-0.501366	0.130166
H494	H	1.191011	-0.251366	0.380166
H495	H	1.441011	-0.001366	0.630166
H496	H	1.691011	0.248634	0.880166
H497	H	1.028755	0.078264	0.874247
H498	H	1.278755	0.328264	1.124247
H499	H	1.528755	0.578264	1.374247
H500	H	1.778755	0.828264	1.624247
Cl501	Cl	0.552748	-0.054655	-0.000009
Cl502	Cl	0.802748	0.195345	0.249991
Cl503	Cl	1.052748	0.445345	0.499991
Cl504	Cl	1.302748	0.695345	0.749991
H505	H	0.316468	0.092569	-0.000030
H506	H	0.566468	0.342569	0.249970
H507	H	0.816468	0.592569	0.499970
H508	H	1.066468	0.842569	0.749970
Cl509	Cl	0.695122	0.140462	-0.000033
Cl510	Cl	0.945122	0.390462	0.249967
Cl511	Cl	1.195122	0.640462	0.499967
Cl512	Cl	1.445122	0.890462	0.749967
Cl513	Cl	0.947806	-0.107259	-0.104404
Cl514	Cl	1.197806	0.142741	0.145596
Cl515	Cl	1.447806	0.392741	0.395596
Cl516	Cl	1.697806	0.642741	0.645596
Cl517	Cl	1.097994	0.117825	0.480084
Cl518	Cl	1.347994	0.367825	0.730084
Cl519	Cl	1.597994	0.617825	0.980084
Cl520	Cl	1.847994	0.867825	1.230084
Cl521	Cl	0.945865	-0.220965	-0.104416
Cl522	Cl	1.195865	0.029035	0.145584
Cl523	Cl	1.445865	0.279035	0.395584
Cl524	Cl	1.695865	0.529035	0.645584
H525	H	0.942144	-0.441568	-0.130194
H526	H	1.192144	-0.191568	0.119806
H527	H	1.442144	0.058432	0.369806
H528	H	1.692144	0.308432	0.619806
Cl529	Cl	1.049910	0.090421	0.113853
Cl530	Cl	1.299910	0.340421	0.363853
Cl531	Cl	1.549910	0.590421	0.613853
Cl532	Cl	1.799910	0.840421	0.863853
H533	H	0.937214	-0.733099	-0.083953
H534	H	1.187214	-0.483099	0.166047
H535	H	1.437214	-0.233099	0.416047
H536	H	1.687214	0.016901	0.666047
H537	H	0.935666	-0.824509	-0.083953
H538	H	1.185666	-0.574509	0.166047
H539	H	1.435666	-0.324509	0.416047
H540	H	1.685666	-0.074509	0.666047
Cl541	Cl	0.833179	-0.033355	0.113924
Cl542	Cl	1.083179	0.216645	0.363924
Cl543	Cl	1.333179	0.466645	0.613924
Cl544	Cl	1.583179	0.716645	0.863924
H545	H	0.935598	-0.824528	0.083898
H546	H	1.185598	-0.574528	0.333898
H547	H	1.435598	-0.324528	0.583898
H548	H	1.685598	-0.074528	0.833898
H549	H	0.937128	-0.733131	0.083905
H550	H	1.187128	-0.483131	0.333905
H551	H	1.437128	-0.233131	0.583905
H552	H	1.687128	0.016869	0.833905
Cl553	Cl	0.941801	-0.452760	0.150666
Cl554	Cl	1.191801	-0.202760	0.400666
Cl555	Cl	1.441801	0.047240	0.650666
Cl556	Cl	1.691801	0.297240	0.900666
H557	H	0.943533	-0.350205	0.130178
H558	H	1.193533	-0.100205	0.380178
H559	H	1.443533	0.149795	0.630178
H560	H	1.693533	0.399795	0.880178
H561	H	0.854535	-0.021226	0.777406
H562	H	1.104535	0.228774	1.027406
H563	H	1.354535	0.478774	1.277406
H564	H	1.604535	0.728774	1.527406
H565	H	0.945978	-0.209854	0.083933
H566	H	1.195978	0.040146	0.333933
H567	H	1.445978	0.290146	0.583933
H568	H	1.695978	0.540146	0.833933
H569	H	0.947524	-0.118443	0.083933
H570	H	1.197524	0.131557	0.333933
H571	H	1.447524	0.381557	0.583933
H572	H	1.697524	0.631557	0.833933
H573	H	0.939587	-0.592725	-0.130197
H574	H	1.189587	-0.342725	0.119803
H575	H	1.439587	-0.092725	0.369803
H576	H	1.689587	0.157275	0.619803
H577	H	0.806496	-0.048651	0.371464
H578	H	1.056496	0.201349	0.621464
H579	H	1.306496	0.451349	0.871464
H580	H	1.556496	0.701349	1.121464
H581	H	0.941134	-0.501319	-0.130198
H582	H	1.191134	-0.251319	0.119802
H583	H	1.441134	-0.001319	0.369802
H584	H	1.691134	0.248681	0.619802
Cl585	Cl	0.939263	-0.603917	0.150650
Cl586	Cl	1.189263	-0.353917	0.400650
Cl587	Cl	1.439263	-0.103917	0.650650
Cl588	Cl	1.689263	0.146083	0.900650
Cl589	Cl	0.833190	-0.033358	0.234492
Cl590	Cl	1.083190	0.216642	0.484492
Cl591	Cl	1.333190	0.466642	0.734492
Cl592	Cl	1.583190	0.716642	0.984492
Cl593	Cl	1.097996	0.117826	0.519779
Cl594	Cl	1.347996	0.367826	0.769779
Cl595	Cl	1.597996	0.617826	1.019779
Cl596	Cl	1.847996	0.867826	1.269779
H597	H	1.076746	0.105673	0.628516
H598	H	1.326746	0.355673	0.878516
H599	H	1.576746	0.605673	1.128516
H600	H	1.826746	0.855673	1.378516
H601	H	0.806518	-0.048642	0.628601
H602	H	1.056518	0.201358	0.878601
H603	H	1.306518	0.451358	1.128601
H604	H	1.556518	0.701358	1.378601
H605	H	0.806508	-0.048641	0.531712
H606	H	1.056508	0.201359	0.781712
H607	H	1.306508	0.451359	1.031712
H608	H	1.556508	0.701359	1.281712
