data_functionalizedCrystal
_audit_creation_method	'MofGen! by Chris Wilmer'
_symmetry_space_group_name_H-M	'P1'
_symmetry_Int_Tables_number	1
_symmetry_cell_setting	triclinic
loop_
_symmetry_equiv_pos_as_xyz
  x,y,z
_cell_length_a	12.759394
_cell_length_b	12.827893
_cell_length_c	12.827885
_cell_angle_alpha	89.980728
_cell_angle_beta	89.968776
_cell_angle_gamma	90.014808
loop_
_atom_site_label
_atom_site_type_symbol
_atom_site_fract_x
_atom_site_fract_y
_atom_site_fract_z
Zn1	Zn	-0.418216	1.597674	-0.590838
Zn2	Zn	0.081784	2.097674	-0.090838
Zn3	Zn	-0.593932	1.597569	-0.416094
Zn4	Zn	-0.093932	2.097569	0.083906
Zn5	Zn	-0.418268	1.422915	-0.416112
Zn6	Zn	0.081732	1.922915	0.083888
Zn7	Zn	-0.593854	1.422902	-0.590794
Zn8	Zn	-0.093854	1.922902	-0.090794
O9	O	-0.506068	1.510265	-0.503460
O10	O	-0.006068	2.010265	-0.003460
O11	O	-0.441537	1.743896	-0.567669
O12	O	0.058463	2.243896	-0.067669
O13	O	-0.570684	1.574363	-0.269860
O14	O	-0.070684	2.074363	0.230140
O15	O	-0.271240	1.446146	-0.439316
O16	O	0.228760	1.946146	0.060684
O17	O	-0.570634	1.743819	-0.439285
O18	O	-0.070634	2.243819	0.060715
O19	O	-0.271202	1.574541	-0.567686
O20	O	0.228798	2.074541	-0.067686
O21	O	-0.441624	1.446045	-0.269873
O22	O	0.058376	1.946045	0.230127
O23	O	-0.441548	1.276677	-0.439273
O24	O	0.058452	1.776677	0.060727
O25	O	-0.570501	1.446124	-0.737036
O26	O	-0.070501	1.946124	-0.237036
O27	O	-0.570551	1.276668	-0.567611
O28	O	-0.070551	1.776668	-0.067611
O29	O	-0.441461	1.574528	-0.737069
O30	O	0.058539	2.074528	-0.237069
O31	O	-0.740943	1.574350	-0.439243
O32	O	-0.240943	2.074350	0.060757
O33	O	-0.740885	1.446023	-0.567594
O34	O	-0.240885	1.946023	-0.067594
C35	C	-0.506047	1.238755	-0.503440
C36	C	-0.006047	1.738755	-0.003440
C37	C	-0.506064	1.122602	-0.503456
C38	C	-0.006064	1.622602	-0.003456
C39	C	-0.779035	1.510202	-0.503434
C40	C	-0.279035	2.010202	-0.003434
C41	C	-0.895812	1.510271	-0.503458
C42	C	-0.395812	2.010271	-0.003458
C43	C	-0.569998	1.070840	-0.566864
C44	C	-0.069998	1.570840	-0.066864
C45	C	-0.570017	0.950790	-0.566882
C46	C	-0.070017	1.450790	-0.066882
C47	C	-0.895818	1.643999	-0.369906
C48	C	-0.395818	2.143999	0.130094
C49	C	-0.950682	1.710890	-0.303143
C50	C	-0.450682	2.210890	0.196857
C51	C	-1.060404	1.710951	-0.303171
C52	C	-0.560404	2.210951	0.196829
C53	C	-1.115264	1.644116	-0.369973
C54	C	-0.615264	2.144116	0.130027
C55	C	-1.060400	1.577225	-0.436736
C56	C	-0.560400	2.077225	0.063264
C57	C	-0.950676	1.577169	-0.436698
C58	C	-0.450676	2.077169	0.063302
C59	C	-1.060393	1.443504	-0.570292
C60	C	-0.560393	1.943504	-0.070292
C61	C	-0.950672	1.443436	-0.570260
C62	C	-0.450672	1.943436	-0.070260
C63	C	-1.115253	1.376670	-0.637094
C64	C	-0.615253	1.876670	-0.137094
C65	C	-1.060389	1.309772	-0.703854
C66	C	-0.560389	1.809772	-0.203854
C67	C	-0.950661	1.309712	-0.703822
C68	C	-0.450661	1.809712	-0.203822
C69	C	-0.895808	1.376545	-0.637024
C70	C	-0.395808	1.876545	-0.137024
C71	C	-0.232034	1.510356	-0.503508
C72	C	0.267966	2.010356	-0.003508
C73	C	-0.115257	1.510395	-0.503528
C74	C	0.384743	2.010395	-0.003528
C75	C	-0.505967	1.510336	-0.776030
C76	C	-0.005967	2.010336	-0.276030
C77	C	-0.505924	1.510366	-0.892183
C78	C	-0.005924	2.010366	-0.392183
C79	C	-0.506089	1.782835	-0.503480
C80	C	-0.006089	2.282835	-0.003480
C81	C	-0.506098	1.898988	-0.503489
C82	C	-0.006098	2.398988	-0.003489
C83	C	-0.442058	1.573912	-0.943984
C84	C	0.057942	2.073912	-0.443984
C85	C	-0.442012	1.573944	-1.064034
C86	C	0.057988	2.073944	-0.564034
C87	C	-0.506092	1.510254	-0.231950
C88	C	-0.006092	2.010254	0.268050
C89	C	-0.505839	1.510426	-0.115797
C90	C	-0.005839	2.010426	0.384203
H91	H	-0.624717	1.115402	-0.621140
H92	H	-0.124717	1.615402	-0.121140
H93	H	-1.105074	1.765425	-0.248811
H94	H	-0.605074	2.265425	0.251189
H95	H	-1.105065	1.255365	-0.758243
H96	H	-0.605065	1.755365	-0.258243
H97	H	-0.387338	1.628351	-1.108582
H98	H	0.112662	2.128351	-0.608582
H99	H	-0.905997	1.255246	-0.758193
H100	H	-0.405997	1.755246	-0.258193
H101	H	-0.624756	0.906276	-0.621165
H102	H	-0.124756	1.406276	-0.121165
H103	H	-0.451337	1.078041	-0.449188
H104	H	0.048663	1.578041	0.050812
H105	H	-0.806467	1.376497	-0.636984
H106	H	-0.306467	1.876497	-0.136984
H107	H	-0.806477	1.643942	-0.369863
H108	H	-0.306477	2.143942	0.130137
H109	H	-0.906006	1.765308	-0.248755
H110	H	-0.406006	2.265308	0.251245
C111	C	-0.579744	1.436896	-0.952334
C112	C	-0.079744	1.936896	-0.452334
N113	N	-0.635347	1.381556	-0.997638
N114	N	-0.135347	1.881556	-0.497638
C115	C	-1.235961	1.644193	-0.370005
C116	C	-0.735961	2.144193	0.129995
N117	N	-1.326871	1.644248	-0.370029
N118	N	-0.826871	2.144248	0.129971
C119	C	-0.368231	1.647375	-0.883833
C120	C	0.131769	2.147375	-0.383833
N121	N	-0.312622	1.702710	-0.838529
N122	N	0.187378	2.202710	-0.338529
H123	H	-0.451362	0.943496	-0.449197
H124	H	0.048638	1.443496	0.050803
H125	H	-0.560524	1.456024	-1.071256
H126	H	-0.060524	1.956024	-0.571256
H127	H	-1.204595	1.376729	-0.637117
H128	H	-0.704595	1.876729	-0.137117
