data_functionalizedCrystal
_audit_creation_method	'MofGen! by Chris Wilmer'
_symmetry_space_group_name_H-M	'P1'
_symmetry_Int_Tables_number	1
_symmetry_cell_setting	triclinic
loop_
_symmetry_equiv_pos_as_xyz
  x,y,z
_cell_length_a	15.296363
_cell_length_b	19.077142
_cell_length_c	19.076919
_cell_angle_alpha	90.074357
_cell_angle_beta	97.826470
_cell_angle_gamma	82.978136
loop_
_atom_site_label
_atom_site_type_symbol
_atom_site_fract_x
_atom_site_fract_y
_atom_site_fract_z
Zn1	Zn	-0.430587	-1.002616	0.380034
Zn2	Zn	-0.097254	-0.669283	0.713368
Zn3	Zn	0.236080	-0.335949	1.046701
Zn4	Zn	-0.573687	-0.988760	0.242448
Zn5	Zn	-0.240353	-0.655427	0.575782
Zn6	Zn	0.092980	-0.322094	0.909115
Zn7	Zn	-0.418662	-0.891375	0.259497
Zn8	Zn	-0.085329	-0.558042	0.592831
Zn9	Zn	0.248004	-0.224709	0.926164
Zn10	Zn	-0.573148	-0.866652	0.355273
Zn11	Zn	-0.239814	-0.533319	0.688606
Zn12	Zn	0.093519	-0.199985	1.021939
O13	O	-0.499021	-0.937351	0.309313
O14	O	-0.165688	-0.604018	0.642646
O15	O	0.167646	-0.270684	0.975980
O16	O	-0.454786	-1.098436	0.365011
O17	O	-0.121452	-0.765102	0.698344
O18	O	0.211881	-0.431769	1.031678
O19	O	-0.548358	-0.980390	0.147047
O20	O	-0.215024	-0.647057	0.480381
O21	O	0.118309	-0.313724	0.813714
O22	O	-0.295704	-0.922277	0.292985
O23	O	0.037630	-0.588944	0.626318
O24	O	0.370963	-0.255610	0.959651
O25	O	-0.559921	-1.088256	0.263927
O26	O	-0.226587	-0.754923	0.597261
O27	O	0.106746	-0.421589	0.930594
O28	O	-0.304465	-1.004005	0.381543
O29	O	0.028869	-0.670672	0.714876
O30	O	0.362202	-0.337338	1.048209
O31	O	-0.434462	-0.908842	0.159573
O32	O	-0.101128	-0.575508	0.492906
O33	O	0.232205	-0.242175	0.826240
O34	O	-0.433939	-0.790438	0.268974
O35	O	-0.100605	-0.457105	0.602307
O36	O	0.232728	-0.123772	0.935641
O37	O	-0.559002	-0.880140	0.456220
O38	O	-0.225668	-0.546806	0.789553
O39	O	0.107665	-0.213473	1.122886
O40	O	-0.547439	-0.772274	0.339340
O41	O	-0.214105	-0.438941	0.672673
O42	O	0.119228	-0.105607	1.006007
O43	O	-0.454263	-0.980032	0.474412
O44	O	-0.120930	-0.646699	0.807746
O45	O	0.212404	-0.313365	1.141079
O46	O	-0.698156	-0.956417	0.239917
O47	O	-0.364822	-0.623084	0.573250
O48	O	-0.031489	-0.289750	0.906584
O49	O	-0.697760	-0.866705	0.322808
O50	O	-0.364426	-0.533371	0.656142
O51	O	-0.031093	-0.200038	0.989475
C52	C	-0.489337	-0.756035	0.303320
C53	C	-0.156004	-0.422701	0.636654
C54	C	0.177330	-0.089368	0.969987
C55	C	-0.485216	-0.678463	0.300770
C56	C	-0.151883	-0.345130	0.634104
C57	C	0.181450	-0.011796	0.967437
C58	C	-0.730251	-0.907393	0.276841
C59	C	-0.396918	-0.574059	0.610175
C60	C	-0.063585	-0.240726	0.943508
C61	C	-0.829177	-0.894639	0.262975
C62	C	-0.495844	-0.561306	0.596309
C63	C	-0.162511	-0.227973	0.929642
C64	C	-0.542456	-0.632573	0.336126
C65	C	-0.209123	-0.299240	0.669459
C66	C	0.124211	0.034093	1.002792
C67	C	-0.538573	-0.559688	0.333734
C68	C	-0.205239	-0.226355	0.667068
C69	C	0.128094	0.106979	1.000401
C70	C	-0.477453	-0.532694	0.295983
C71	C	-0.144120	-0.199360	0.629317
C72	C	0.189213	0.133973	0.962650
C73	C	-0.420207	-0.578589	0.260627
C74	C	-0.086874	-0.245256	0.593960
C75	C	0.246459	0.088077	0.927294
C76	C	-0.424087	-0.651474	0.263023
C77	C	-0.090754	-0.318140	0.596356
C78	C	0.242580	0.015193	0.929689
C79	C	-0.459500	-0.315727	0.284902
C80	C	-0.126167	0.017606	0.618236
C81	C	0.207166	0.350940	0.951569
C82	C	-0.455627	-0.242837	0.282508
C83	C	-0.122293	0.090497	0.615841
C84	C	0.211040	0.423830	0.949174
C85	C	-0.573991	-0.223941	0.355617
C86	C	-0.240658	0.109393	0.688950
C87	C	0.092675	0.442726	1.022283
C88	C	-0.577869	-0.296827	0.358005
C89	C	-0.244536	0.036506	0.691339
C90	C	0.088798	0.369840	1.024672
C91	C	-0.520620	-0.342716	0.322652
C92	C	-0.187287	-0.009383	0.655986
C93	C	0.146046	0.323950	0.989319
N94	N	-0.473484	-0.458193	0.293536
N95	N	-0.140151	-0.124860	0.626870
N96	N	0.193182	0.208474	0.960203
N97	N	-0.524585	-0.417216	0.325104
N98	N	-0.191252	-0.083883	0.658437
N99	N	0.142081	0.249451	0.991770
C100	C	-1.125984	-1.028785	0.408494
C101	C	-0.792650	-0.695452	0.741827
C102	C	-0.459317	-0.362119	1.075160
C103	C	-1.033038	-1.040773	0.421521
C104	C	-0.699705	-0.707440	0.754855
C105	C	-0.366371	-0.374106	1.088188
C106	C	-0.982068	-1.004240	0.381886
C107	C	-0.648735	-0.670907	0.715220
C108	C	-0.315402	-0.337574	1.048553
C109	C	-1.024053	-0.955719	0.329221
C110	C	-0.690720	-0.622385	0.662554
C111	C	-0.357387	-0.289052	0.995887
C112	C	-1.117008	-0.943734	0.316188
C113	C	-0.783675	-0.610401	0.649521
C114	C	-0.450341	-0.277067	0.982855
C115	C	-0.973093	-0.919189	0.289580
C116	C	-0.639759	-0.585856	0.622914
C117	C	-0.306426	-0.252522	0.956247
C118	C	-1.015078	-0.870667	0.236915
C119	C	-0.681744	-0.537334	0.570248
C120	C	-0.348411	-0.204001	0.903582
C121	C	-1.108023	-0.858685	0.223885
C122	C	-0.774690	-0.525351	0.557218
C123	C	-0.441357	-0.192018	0.890552
C124	C	-1.158993	-0.895217	0.263520
C125	C	-0.825660	-0.561884	0.596853
C126	C	-0.492326	-0.228550	0.930187
C127	C	-0.880138	-0.931174	0.302613
C128	C	-0.546805	-0.597840	0.635947
C129	C	-0.213471	-0.264507	0.969280
C130	C	-0.871162	-0.846122	0.210308
C131	C	-0.537829	-0.512789	0.543641
C132	C	-0.204496	-0.179456	0.876974
C133	C	-0.964108	-0.834135	0.197280
C134	C	-0.630774	-0.500802	0.530613
C135	C	-0.297441	-0.167468	0.863947
C136	C	-0.266889	-0.967444	0.341928
C137	C	0.066444	-0.634111	0.675261
C138	C	0.399777	-0.300778	1.008594
C139	C	-0.167969	-0.980268	0.355826
C140	C	0.165365	-0.646935	0.689159
C141	C	0.498698	-0.313602	1.022492
C142	C	-0.507902	-0.928874	0.491347
C143	C	-0.174569	-0.595540	0.824680
C144	C	0.158764	-0.262207	1.158014
C145	C	-0.511687	-0.925261	0.568919
C146	C	-0.178354	-0.591928	0.902252
C147	C	0.154980	-0.258594	1.235585
C148	C	-0.508738	-0.119376	0.315322
C149	C	-0.175405	0.213957	0.648655
C150	C	0.157928	0.547290	0.981989
C151	C	-0.512866	-0.196947	0.317863
C152	C	-0.179533	0.136386	0.651196
C153	C	0.153800	0.469720	0.984530
C154	C	-0.490112	-0.945844	0.127998
C155	C	-0.156779	-0.612510	0.461331
C156	C	0.176555	-0.279177	0.794665
C157	C	-0.486084	-0.949624	0.050466
C158	C	-0.152751	-0.616291	0.383799
C159	C	0.180583	-0.282957	0.717133
C160	C	-0.458936	-0.975570	0.614835
C161	C	-0.125602	-0.642236	0.948168
C162	C	0.207731	-0.308903	1.281501
C163	C	-0.462488	-0.972167	0.687722
C164	C	-0.129155	-0.638834	1.021055
C165	C	0.204179	-0.305501	1.354389
C166	C	-0.518797	-0.918459	0.714691
C167	C	-0.185463	-0.585125	1.048025
C168	C	0.147870	-0.251792	1.381358
C169	C	-0.571550	-0.868145	0.668770
C170	C	-0.238217	-0.534812	1.002103
C171	C	0.095117	-0.201478	1.335436
C172	C	-0.567993	-0.871545	0.595884
C173	C	-0.234659	-0.538212	0.929218
C174	C	0.098674	-0.204878	1.262551
C175	C	-0.535280	-0.902710	0.931659
C176	C	-0.201946	-0.569377	1.264992
C177	C	0.131387	-0.236044	1.598326
C178	C	-0.538835	-0.899315	1.004550
C179	C	-0.205502	-0.565982	1.337883
C180	C	0.127832	-0.232649	1.671217
C181	C	-0.429771	-1.003337	1.023497
C182	C	-0.096438	-0.670004	1.356831
C183	C	0.236895	-0.336671	1.690164
C184	C	-0.426223	-1.006735	0.950609
C185	C	-0.092889	-0.673402	1.283943
C186	C	0.240444	-0.340068	1.617276
C187	C	-0.478972	-0.956419	0.904695
C188	C	-0.145639	-0.623086	1.238028
C189	C	0.187694	-0.289753	1.571361
N190	N	-0.522431	-0.914981	0.789193
N191	N	-0.189098	-0.581647	1.122527
N192	N	0.144235	-0.248314	1.455860
N193	N	-0.475333	-0.959895	0.830195
N194	N	-0.141999	-0.626561	1.163528
N195	N	0.191334	-0.293228	1.496861
H196	H	-0.592229	-0.654546	0.366864
H197	H	-0.258896	-0.321212	0.700197
H198	H	0.074438	0.012121	1.033531
H199	H	-1.142204	-0.819181	0.180995
H200	H	-0.808871	-0.485848	0.514329
H201	H	-0.475538	-0.152515	0.847662
Cl202	Cl	-0.343365	-0.544654	0.213173
Cl203	Cl	-0.010032	-0.211320	0.546507
Cl204	Cl	0.323301	0.122013	0.879840
H205	H	-0.405846	-0.220862	0.251772
H206	H	-0.072512	0.112471	0.585105
H207	H	0.260821	0.445805	0.918439
Cl208	Cl	-0.827368	-0.992170	0.368820
Cl209	Cl	-0.494035	-0.658836	0.702153
Cl210	Cl	-0.160702	-0.325503	1.035486
Cl211	Cl	-0.363458	-1.066585	1.081222
Cl212	Cl	-0.030125	-0.733252	1.414556
Cl213	Cl	0.303208	-0.399918	1.747889
Cl214	Cl	-0.387527	-0.373408	0.240460
Cl215	Cl	-0.054194	-0.040074	0.573794
Cl216	Cl	0.279140	0.293259	0.907127
H217	H	-0.906388	-1.014004	0.392496
H218	H	-0.573055	-0.680670	0.725830
H219	H	-0.239721	-0.347337	1.059163
H220	H	-0.627641	-0.318800	0.388744
H221	H	-0.294308	0.014534	0.722078
H222	H	0.039026	0.347867	1.055411
Cl223	Cl	-1.190063	-1.074711	0.458309
Cl224	Cl	-0.856729	-0.741378	0.791642
Cl225	Cl	-0.523396	-0.408045	1.124975
H226	H	-0.419534	-1.013135	0.725104
H227	H	-0.086201	-0.679802	1.058438
H228	H	0.247132	-0.346469	1.391771
H229	H	-0.584691	-0.855577	1.026505
H230	H	-0.251357	-0.522243	1.359838
H231	H	0.081976	-0.188910	1.693172
H232	H	-0.585184	-0.522327	0.362524
H233	H	-0.251851	-0.188994	0.695857
H234	H	0.081483	0.144340	1.029190
H235	H	-0.413086	-1.019307	0.592882
H236	H	-0.079752	-0.685974	0.926216
H237	H	0.253581	-0.352640	1.259549
Cl238	Cl	-1.016900	-0.773137	0.131075
Cl239	Cl	-0.683566	-0.439803	0.464409
Cl240	Cl	-0.350233	-0.106470	0.797742
H241	H	-0.829663	-0.816376	0.178032
H242	H	-0.496330	-0.483042	0.511365
H243	H	-0.162996	-0.149709	0.844698
Cl244	Cl	-0.352123	-0.709164	0.218576
Cl245	Cl	-0.018790	-0.375831	0.551909
Cl246	Cl	0.314544	-0.042498	0.885243
H247	H	-0.380373	-1.050472	0.928657
H248	H	-0.047039	-0.717139	1.261990
H249	H	0.286294	-0.383805	1.595323
Cl250	Cl	-0.601595	-0.839456	0.873947
Cl251	Cl	-0.268261	-0.506122	1.207280
Cl252	Cl	0.065072	-0.172789	1.540614
Cl253	Cl	-0.634309	-0.808295	0.538161
Cl254	Cl	-0.300975	-0.474962	0.871494
Cl255	Cl	0.032358	-0.141628	1.204828
Cl256	Cl	-0.645958	-0.166248	0.400057
Cl257	Cl	-0.312624	0.167086	0.733390
Cl258	Cl	0.020709	0.500419	1.066723
Cl259	Cl	-0.980264	-1.101768	0.487727
Cl260	Cl	-0.646930	-0.768434	0.821060
Cl261	Cl	-0.313597	-0.435101	1.154394
Cl262	Cl	-1.275844	-0.880256	0.247046
Cl263	Cl	-0.942511	-0.546922	0.580380
Cl264	Cl	-0.609178	-0.213589	0.913713
Cl265	Cl	-0.642336	-0.800623	0.702675
Cl266	Cl	-0.309002	-0.467289	1.036008
Cl267	Cl	0.024331	-0.133956	1.369341
