data_functionalizedCrystal
_audit_creation_method	'MofGen! by Chris Wilmer'
_symmetry_space_group_name_H-M	'P1'
_symmetry_Int_Tables_number	1
_symmetry_cell_setting	triclinic
loop_
_symmetry_equiv_pos_as_xyz
  x,y,z
_cell_length_a	21.295417
_cell_length_b	11.169417
_cell_length_c	11.169417
_cell_angle_alpha	89.997314
_cell_angle_beta	90.016676
_cell_angle_gamma	89.971271
loop_
_atom_site_label
_atom_site_type_symbol
_atom_site_fract_x
_atom_site_fract_y
_atom_site_fract_z
Zn1	Zn	-0.250742	-1.834569	0.678525
Zn2	Zn	0.249258	-1.334569	1.178525
Zn3	Zn	-0.355984	-1.834455	0.477810
Zn4	Zn	0.144016	-1.334455	0.977810
Zn5	Zn	-0.250730	-1.633922	0.477853
Zn6	Zn	0.249270	-1.133922	0.977853
Zn7	Zn	-0.355974	-1.633792	0.678448
Zn8	Zn	0.144026	-1.133792	1.178448
O9	O	-0.303357	-1.734184	0.578159
O10	O	0.196643	-1.234184	1.078159
O11	O	-0.264712	-2.002504	0.651914
O12	O	0.235288	-1.502504	1.151914
O13	O	-0.342022	-1.807860	0.309866
O14	O	0.157978	-1.307860	0.809866
O15	O	-0.162642	-1.660640	0.504522
O16	O	0.337358	-1.160640	1.004522
O17	O	-0.342033	-2.002419	0.504449
O18	O	0.157967	-1.502419	1.004449
O19	O	-0.162651	-1.808055	0.651955
O20	O	0.337349	-1.308055	1.151955
O21	O	-0.264692	-1.660529	0.309898
O22	O	0.235308	-1.160529	0.809898
O23	O	-0.264681	-1.465955	0.504448
O24	O	0.235319	-0.965955	1.004448
O25	O	-0.342015	-1.660420	0.846408
O26	O	0.157985	-1.160420	1.346408
O27	O	-0.342003	-1.465860	0.651825
O28	O	0.157997	-0.965860	1.151825
O29	O	-0.264701	-1.807930	0.846464
O30	O	0.235299	-1.307930	1.346464
O31	O	-0.444072	-1.807734	0.504375
O32	O	0.055928	-1.307734	1.004375
O33	O	-0.444065	-1.660308	0.651783
O34	O	0.055935	-1.160308	1.151783
C35	C	-0.303340	-1.422360	0.578134
C36	C	0.196660	-0.922360	1.078134
C37	C	-0.303348	-1.288960	0.578151
C38	C	0.196652	-0.788960	1.078151
C39	C	-0.466909	-1.734027	0.578093
C40	C	0.033091	-1.234027	1.078093
C41	C	-0.536877	-1.734070	0.578104
C42	C	-0.036877	-1.234070	1.078104
C43	C	-0.569727	-1.810902	0.501428
C44	C	-0.069727	-1.310902	1.001428
C45	C	-0.635469	-1.810959	0.501455
C46	C	-0.135469	-1.310959	1.001455
C47	C	-0.668360	-1.734161	0.578146
C48	C	-0.168360	-1.234161	1.078146
C49	C	-0.635502	-1.657323	0.654837
C50	C	-0.135502	-1.157323	1.154837
C51	C	-0.569761	-1.657277	0.654817
C52	C	-0.069761	-1.157277	1.154817
N53	N	-0.771625	-1.629168	0.587287
N54	N	-0.271625	-1.129168	1.087287
N55	N	-0.834076	-1.629214	0.587299
N56	N	-0.334076	-1.129214	1.087299
C57	C	-0.866434	-1.734295	0.578215
C58	C	-0.366434	-1.234295	1.078215
N59	N	-0.833982	-1.839330	0.569093
N60	N	-0.333982	-1.339330	1.069093
N61	N	-0.771524	-1.839282	0.569074
N62	N	-0.271524	-1.339282	1.069074
C63	C	-0.739645	-1.734202	0.578177
C64	C	-0.239645	-1.234202	1.078177
C65	C	-0.970570	-1.811195	0.501563
C66	C	-0.470570	-1.311195	1.001563
C67	C	-1.036313	-1.811254	0.501598
C68	C	-0.536313	-1.311254	1.001598
C69	C	-1.036345	-1.657607	0.654975
C70	C	-0.536345	-1.157607	1.154975
C71	C	-0.970602	-1.657559	0.654946
C72	C	-0.470602	-1.157559	1.154946
C73	C	-0.937719	-1.734352	0.578233
C74	C	-0.437719	-1.234352	1.078233
C75	C	-0.139167	-1.734375	0.578252
C76	C	0.360833	-1.234375	1.078252
C77	C	-0.069199	-1.734456	0.578292
C78	C	0.430801	-1.234456	1.078292
C79	C	-0.303358	-1.734173	0.891201
C80	C	0.196642	-1.234173	1.391201
C81	C	-0.303359	-1.734168	1.024601
C82	C	0.196641	-1.234168	1.524601
C83	C	-0.303369	-1.047227	0.578177
C84	C	0.196631	-0.547227	1.078177
C85	C	-0.303358	-1.180627	0.578165
C86	C	0.196642	-0.680627	1.078165
C87	C	-0.303368	-1.734182	1.266334
C88	C	0.196632	-1.234182	1.766334
C89	C	-0.303360	-1.734171	1.132934
C90	C	0.196640	-1.234171	1.632934
H91	H	-0.662221	-1.873529	0.439015
H92	H	-0.162221	-1.373529	0.939015
O93	O	-0.935175	-1.574664	0.737638
O94	O	-0.435175	-1.074664	1.237638
H95	H	-0.905187	-1.628298	0.798753
H96	H	-0.405187	-1.128298	1.298753
H97	H	-0.542955	-1.873434	0.438967
H98	H	-0.042955	-1.373434	0.938967
O99	O	-0.935100	-1.894058	0.418864
O100	O	-0.435100	-1.394058	0.918864
H101	H	-0.883866	-1.881117	0.431728
H102	H	-0.383866	-1.381117	0.931728
O103	O	-0.670976	-1.574478	0.737540
O104	O	-0.170976	-1.074478	1.237540
H105	H	-0.700897	-1.628157	0.798650
H106	H	-0.200897	-1.128157	1.298650
O107	O	-0.534323	-1.574382	0.737498
O108	O	-0.034323	-1.074382	1.237498
H109	H	-0.568236	-1.520978	0.790825
H110	H	-0.068236	-1.020978	1.290825
H111	H	-1.063059	-1.873828	0.439161
H112	H	-0.563059	-1.373828	0.939161
O113	O	-1.071808	-1.574765	0.737691
O114	O	-0.571808	-1.074765	1.237691
H115	H	-1.123042	-1.587697	0.724819
H116	H	-0.623042	-1.087697	1.224819
