data_functionalizedCrystal
_audit_creation_method	'MofGen! by Chris Wilmer'
_symmetry_space_group_name_H-M	'P1'
_symmetry_Int_Tables_number	1
_symmetry_cell_setting	triclinic
loop_
_symmetry_equiv_pos_as_xyz
  x,y,z
_cell_length_a	13.897448
_cell_length_b	13.897449
_cell_length_c	19.076919
_cell_angle_alpha	92.282068
_cell_angle_beta	92.272955
_cell_angle_gamma	90.018972
loop_
_atom_site_label
_atom_site_type_symbol
_atom_site_fract_x
_atom_site_fract_y
_atom_site_fract_z
Zn1	Zn	-0.405914	1.452747	-0.397937
Zn2	Zn	-0.560740	1.459134	-0.280245
Zn3	Zn	-0.399465	1.297929	-0.280258
Zn4	Zn	-0.567170	1.291420	-0.397903
O5	O	-0.483322	1.375308	-0.339086
O6	O	-0.426460	1.588575	-0.382333
O7	O	-0.533957	1.443148	-0.181758
O8	O	-0.265340	1.318517	-0.295887
O9	O	-0.540210	1.593268	-0.295866
O10	O	-0.270078	1.432261	-0.382345
O11	O	-0.415468	1.324710	-0.181767
O12	O	-0.421704	1.162084	-0.295855
O13	O	-0.551169	1.307423	-0.496397
O14	O	-0.544916	1.157302	-0.382288
O15	O	-0.432695	1.425949	-0.496421
O16	O	-0.696574	1.436836	-0.295834
O17	O	-0.701298	1.313617	-0.382276
C18	C	-0.483309	1.124694	-0.339070
C19	C	-0.483327	1.017480	-0.339079
C20	C	-0.483331	0.821183	-0.339098
C21	C	-0.483326	0.930417	-0.339086
C22	C	-0.733936	1.375238	-0.339065
C23	C	-0.841150	1.375296	-0.339080
C24	C	-1.037448	1.375394	-0.339124
C25	C	-0.928214	1.375337	-0.339102
C26	C	-0.231731	1.375403	-0.339121
C27	C	-0.124518	1.375443	-0.339137
C28	C	-0.493369	1.365248	-0.522660
C29	C	-0.497650	1.360961	-0.600889
C30	C	-0.483337	1.626900	-0.339102
C31	C	-0.483343	1.734113	-0.339109
C32	C	-0.437981	1.420654	-0.637655
C33	C	-0.442000	1.416614	-0.711159
C34	C	-0.505693	1.352885	-0.747895
C35	C	-0.565365	1.293185	-0.711124
C36	C	-0.561341	1.297221	-0.637622
C37	C	-0.524339	1.334194	-0.967723
C38	C	-0.528362	1.330165	-1.041231
C39	C	-0.404994	1.453592	-1.041260
C40	C	-0.400980	1.457626	-0.967756
C41	C	-0.460648	1.397923	-0.930992
N42	N	-0.509805	1.348756	-0.823028
N43	N	-0.456530	1.402048	-0.855860
C44	C	-0.473245	1.385384	-0.156225
C45	C	-0.468692	1.389858	-0.077997
H46	H	-0.393413	1.465225	-0.741090
H47	H	-0.356415	1.502198	-1.071202
H48	H	-0.349116	1.509524	-0.937850
C49	C	-0.626296	1.232542	-0.597734
C50	C	-0.722712	1.252554	-0.615586
C51	C	-0.782577	1.193001	-0.578847
H52	H	-0.612970	1.167040	-0.609738
H53	H	-0.614839	1.244087	-0.548691
H54	H	-0.734164	1.241002	-0.664618
H55	H	-0.736068	1.318046	-0.603580
H56	H	-0.771120	1.204546	-0.529805
H57	H	-0.769243	1.127502	-0.590855
H58	H	-0.848002	1.206577	-0.590950
H59	H	-0.580231	1.278266	-1.071140
C60	C	-0.589280	1.269479	-0.927859
C61	C	-0.685701	1.289468	-0.945712
C62	C	-0.745551	1.229869	-0.908997
H63	H	-0.575931	1.203987	-0.939883
H64	H	-0.577833	1.280998	-0.878813
H65	H	-0.697144	1.277941	-0.994747
H66	H	-0.699080	1.354948	-0.933686
H67	H	-0.734103	1.241388	-0.859951
H68	H	-0.732193	1.164382	-0.921024
H69	H	-0.810979	1.243430	-0.921100
C70	C	-0.368727	1.489877	-0.597899
C71	C	-0.317313	1.541268	-0.645834
C72	C	-0.253495	1.605035	-0.609239
H73	H	-0.403948	1.533552	-0.569222
H74	H	-0.325076	1.454588	-0.569243
H75	H	-0.360958	1.576555	-0.674477
H76	H	-0.282073	1.497618	-0.674512
H77	H	-0.209844	1.569746	-0.580583
H78	H	-0.288724	1.648704	-0.580564
H79	H	-0.218597	1.639905	-0.641757
C80	C	-0.634399	1.223833	-0.750970
C81	C	-0.612394	1.129384	-0.733097
C82	C	-0.675963	1.065472	-0.769793
H83	H	-0.698585	1.238457	-0.738943
H84	H	-0.628247	1.229914	-0.800018
H85	H	-0.618555	1.123307	-0.684060
H86	H	-0.548219	1.114730	-0.745125
H87	H	-0.669811	1.071552	-0.818842
H88	H	-0.740145	1.080104	-0.757764
H89	H	-0.661036	1.001380	-0.757677
