data_functionalizedCrystal
_audit_creation_method	'MofGen! by Chris Wilmer'
_symmetry_space_group_name_H-M	'P1'
_symmetry_Int_Tables_number	1
_symmetry_cell_setting	triclinic
loop_
_symmetry_equiv_pos_as_xyz
  x,y,z
_cell_length_a	27.440280
_cell_length_b	14.560438
_cell_length_c	14.560438
_cell_angle_alpha	60.000905
_cell_angle_beta	90.004795
_cell_angle_gamma	59.998116
loop_
_atom_site_label
_atom_site_type_symbol
_atom_site_fract_x
_atom_site_fract_y
_atom_site_fract_z
Zr1	Zr	0.469501	1.005173	-0.120396
O2	O	0.391680	1.196793	-0.267060
O3	O	0.493357	0.813566	-0.075439
O4	O	0.493355	1.005170	-0.267039
O5	O	0.391684	1.005187	0.075682
O6	O	0.573557	1.005153	-0.267020
O7	O	0.391682	1.005190	-0.075459
O8	O	0.573562	0.662408	0.075718
O9	O	0.391680	1.347931	-0.267057
O10	O	0.563386	0.892359	-0.056248
O11	O	0.503533	0.892370	0.056533
O12	O	0.503530	1.117959	-0.169052
O13	O	0.443677	1.117970	-0.056272
Zr14	Zr	0.597418	1.005141	0.120686
Zr15	Zr	0.597415	1.005145	-0.120366
Zr16	Zr	0.469504	1.005169	0.120656
Zr17	Zr	0.469501	1.246221	-0.120392
Zr18	Zr	0.597418	0.764093	0.120681
O19	O	0.573562	1.196748	0.075728
O20	O	0.573558	1.196753	-0.267017
O21	O	0.391685	1.196788	0.075685
O22	O	0.675239	0.813520	0.267349
O23	O	0.675234	0.813526	-0.075396
O24	O	0.493362	0.813561	0.267306
O25	O	0.675235	1.005127	-0.075392
O26	O	0.573565	1.005144	0.267329
O27	O	0.493362	1.005161	0.267310
O28	O	0.675237	1.005124	0.075749
O29	O	0.493355	1.347909	-0.267033
O30	O	0.573564	0.662405	0.267323
O31	O	0.675239	0.662383	0.267347
O32	O	0.675236	0.662386	0.075742
O33	O	0.391683	1.347928	-0.075453
O34	O	0.493357	1.347906	-0.075429
O35	O	0.563389	0.892355	0.169342
O36	O	0.623242	0.892344	0.056561
O37	O	0.563386	1.117944	-0.056243
O38	O	0.503533	1.117955	0.056537
C39	C	0.533459	0.703643	0.000139
C40	C	0.533459	0.601312	0.000137
C41	C	0.564701	0.553230	-0.058733
C42	C	0.564703	0.457071	-0.058723
C43	C	0.502218	0.457088	0.059030
C44	C	0.502219	0.553239	0.059026
C45	C	0.373458	1.005192	0.000107
C46	C	0.319155	1.005204	0.000094
C47	C	0.013702	0.887375	0.059059
C48	C	-0.037317	0.887367	0.059069
O49	O	-0.037133	0.787216	0.109180
N50	N	-0.094077	1.005127	0.000185
C51	C	-0.099819	1.122902	-0.058704
O52	O	-0.152783	1.223065	-0.108787
C53	C	-0.048801	1.122907	-0.058706
C54	C	0.007959	1.005140	0.000172
C55	C	0.070459	0.769617	0.117933
C56	C	0.121474	0.769624	0.117921
C57	C	0.115731	0.887390	0.059035
C58	C	0.058974	1.005148	0.000160
C59	C	-0.054543	1.240681	-0.117588
C60	C	-0.003519	1.240676	-0.117585
C61	C	0.053241	1.122909	-0.058706
C62	C	0.104246	1.122921	-0.058738
N63	N	0.161007	1.005161	0.000145
C64	C	0.166749	0.887396	0.059032
C65	C	-0.206958	1.122880	-0.058692
C66	C	-0.257975	1.122876	-0.058696
C67	C	-0.195469	0.887341	0.059078
C68	C	-0.144451	0.887347	0.059075
C69	C	-0.150197	1.005121	0.000192
C70	C	0.273882	0.887421	0.059002
C71	C	0.324898	0.887439	0.058981
C72	C	0.262388	1.122973	-0.058788
C73	C	0.211376	1.122955	-0.058773
C74	C	0.217127	1.005169	0.000131
O75	O	0.104108	1.223021	-0.108821
O76	O	0.219715	0.787249	0.109119
C77	C	0.693461	1.005122	0.000183
C78	C	0.747764	1.005110	0.000195
C79	C	0.533455	1.005162	-0.301375
C80	C	0.533454	1.005164	-0.403708
C81	C	0.533460	1.306671	0.000150
C82	C	0.533460	1.409002	0.000152
C83	C	0.502211	1.122923	-0.510667
C84	C	0.502218	1.122917	-0.606815
C85	C	0.564712	0.887382	-0.489032
C86	C	0.564708	0.887390	-0.392886
C87	C	0.533464	1.005152	0.301664
C88	C	0.533465	1.005150	0.403997
C89	C	0.693460	0.703608	0.000177
C90	C	0.747763	0.601265	0.000188
C91	C	0.533463	0.703638	0.301659
C92	C	0.533465	0.601305	0.403990
C93	C	0.693464	0.703603	0.301696
C94	C	0.747769	0.601258	0.404040
C95	C	0.373455	1.306711	-0.301407
C96	C	0.319150	1.409056	-0.403751
C97	C	0.373459	1.306706	0.000113
C98	C	0.319156	1.409049	0.000102
C99	C	0.533456	1.306676	-0.301369
C100	C	0.533455	1.409009	-0.403700
C101	C	0.742020	0.553211	-0.058702
C102	C	0.793039	0.457062	-0.058714
C103	C	0.849799	0.408962	0.000171
C104	C	0.855541	0.457025	0.059062
C105	C	0.804523	0.553179	0.059067
C106	C	0.804518	0.553190	0.393232
C107	C	0.855548	0.457040	0.489385
C108	C	0.849826	0.408952	0.596347
C109	C	0.793070	0.457030	0.607153
C110	C	0.742042	0.553185	0.511000
C111	C	0.262401	1.457136	-0.392942
C112	C	0.211371	1.553316	-0.489096
C113	C	0.217093	1.601408	-0.596057
C114	C	0.273849	1.553324	-0.606863
C115	C	0.324877	1.457152	-0.510711
C116	C	0.324899	1.457113	0.058982
C117	C	0.273881	1.553288	0.058968
C118	C	0.217120	1.601392	0.000079
C119	C	0.211378	1.553324	-0.058808
C120	C	0.262396	1.457157	-0.058800
C121	C	0.564709	0.553219	0.510950
C122	C	0.564703	0.457076	0.607097
C123	C	0.502208	0.457109	0.489310
C124	C	0.502211	0.553257	0.393165
H125	H	0.476778	0.592386	0.106970
F126	F	0.385303	1.405938	0.121660
F127	F	0.150964	1.604530	-0.121474
H128	H	-0.211644	1.218792	-0.106647
F129	F	0.468951	1.248268	-0.522188
F130	F	0.468965	1.248252	-0.720649
F131	F	-0.084046	0.762004	0.121742
H132	H	0.901763	0.417848	0.107004
H133	H	0.257731	1.417984	-0.305858
H134	H	0.891336	0.330667	0.000158
F135	F	-0.189365	0.762004	0.121752
H136	H	0.590158	0.791495	-0.480235
H137	H	0.590154	0.791490	-0.305789
H138	H	-0.304188	1.218774	-0.106656
H139	H	0.695807	0.592374	-0.106667
F140	F	0.786990	0.405839	0.720998
F141	F	0.597971	0.604354	0.522474
F142	F	0.256274	1.406007	-0.121465
H143	H	0.175583	1.679697	0.000082
H144	H	0.695836	0.592310	0.519817
H145	H	0.809208	0.592292	0.107029
H146	H	0.590144	0.417930	0.694186
H147	H	0.590143	0.417923	-0.106659
F148	F	0.597951	0.604386	-0.121403
H149	H	0.809188	0.592328	0.306147
H150	H	-0.008205	1.336584	-0.165521
F151	F	0.468949	0.405962	0.477801
F152	F	0.468975	0.405911	0.121705
F153	F	0.280004	1.604424	0.121650
H154	H	0.165163	1.592449	-0.480275
F155	F	-0.114943	1.366027	-0.180247
F156	F	0.468951	0.604443	0.279320
H157	H	0.165158	1.218851	-0.106731
H158	H	0.891382	0.330657	0.674631
F159	F	0.279929	1.604518	-0.720709
F160	F	0.385273	1.405985	-0.522231
F161	F	0.385307	0.762089	0.121648
H162	H	0.278573	0.791508	0.106968
F163	F	0.162778	1.703763	-0.698383
F164	F	0.181879	0.644279	0.180596
F165	F	0.256287	1.248301	-0.121444
F166	F	0.076584	0.644263	0.180618
H167	H	0.901756	0.417905	0.480567
H168	H	0.788352	0.417941	-0.106671
