data_functionalizedCrystal
_audit_creation_method	'MofGen! by Chris Wilmer'
_symmetry_space_group_name_H-M	'P1'
_symmetry_Int_Tables_number	1
_symmetry_cell_setting	triclinic
loop_
_symmetry_equiv_pos_as_xyz
  x,y,z
_cell_length_a	16.959455
_cell_length_b	19.121063
_cell_length_c	16.959447
_cell_angle_alpha	87.593376
_cell_angle_beta	90.014322
_cell_angle_gamma	92.465894
loop_
_atom_site_label
_atom_site_type_symbol
_atom_site_fract_x
_atom_site_fract_y
_atom_site_fract_z
Zn1	Zn	1.194915	-0.279656	0.460312
Zn2	Zn	1.189180	-0.397117	0.333763
Zn3	Zn	1.062742	-0.279678	0.328150
Zn4	Zn	1.057053	-0.397064	0.465899
O5	O	1.125973	-0.338379	0.397031
O6	O	1.304764	-0.295250	0.443535
O7	O	1.172389	-0.381570	0.222409
O8	O	1.085056	-0.181391	0.340995
O9	O	1.300551	-0.381548	0.350560
O10	O	1.182163	-0.181375	0.438093
O11	O	1.079495	-0.295288	0.218285
O12	O	0.951377	-0.295237	0.346412
O13	O	1.075360	-0.381459	0.575767
O14	O	0.947198	-0.381480	0.447615
O15	O	1.176646	-0.295199	0.571662
O16	O	1.166873	-0.495394	0.355978
O17	O	1.069800	-0.495356	0.453058
C18	C	0.920608	-0.338356	0.397012
C19	C	0.832751	-0.338363	0.397023
C20	C	0.463428	-0.293435	0.344438
C21	C	0.459118	-0.383380	0.449672
C22	C	0.541664	-0.383370	0.449666
C23	C	0.585096	-0.338393	0.397045
C24	C	0.545982	-0.293425	0.344430
C25	C	0.580784	-0.428342	0.502276
C26	C	0.663336	-0.428334	0.502272
C27	C	0.706770	-0.383353	0.449654
C28	C	0.667650	-0.338383	0.397037
C29	C	0.711082	-0.293405	0.344416
C30	C	0.671965	-0.248431	0.291802
C31	C	0.589416	-0.248444	0.291812
C32	C	0.789319	-0.383340	0.449644
C33	C	0.793636	-0.293395	0.344407
C34	C	1.117118	-0.520859	0.405750
C35	C	1.113402	-0.598924	0.409507
C36	C	1.162236	-0.635597	0.360769
C37	C	1.158746	-0.708948	0.364307
C38	C	1.106417	-0.745625	0.416579
C39	C	1.057581	-0.708948	0.465322
C40	C	1.061076	-0.635598	0.461787
C41	C	1.093339	-0.967094	0.429780
C42	C	1.089847	-1.040449	0.433309
C43	C	1.191013	-1.040443	0.332295
C44	C	1.194500	-0.967092	0.328762
C45	C	1.145667	-0.930421	0.377508
C46	C	1.102847	-0.820602	0.420195
C47	C	1.149242	-0.855446	0.373896
C48	C	1.332140	-0.338403	0.397051
C49	C	1.419996	-0.338413	0.397059
C50	C	1.126008	-0.338321	0.603196
C51	C	1.126024	-0.338296	0.691052
C52	C	1.134884	-0.155186	0.388295
C53	C	1.138681	-0.077121	0.384572
C54	C	1.125985	-0.338386	0.191665
C55	C	1.126133	-0.338213	0.103800
C56	C	1.073386	-0.383133	1.064664
C57	C	1.178857	-0.293311	1.060384
C58	C	1.178835	-0.293326	0.977839
C59	C	1.126089	-0.338246	0.938703
C60	C	1.073365	-0.383151	0.982111
C61	C	1.231564	-0.248426	0.934425
C62	C	1.231545	-0.248440	0.851875
C63	C	1.178794	-0.293357	0.812736
C64	C	1.126067	-0.338263	0.856150
C65	C	1.073321	-0.383183	0.817013
C66	C	1.020590	-0.428087	0.860425
C67	C	1.020614	-0.428068	0.942973
C68	C	1.178770	-0.293376	0.730189
C69	C	1.073299	-0.383201	0.734460
H70	H	0.695178	-0.464954	0.545114
N71	N	1.232735	-0.247440	1.100371
N72	N	1.232751	-0.247436	1.174075
H73	H	1.270805	-0.215038	1.202319
N74	N	0.716319	-0.202488	0.238042
N75	N	0.706852	-0.207062	0.165316
H76	H	0.738178	-0.174614	0.127348
H77	H	1.014977	-0.738816	0.507886
N78	N	1.019525	-0.428990	1.109014
N79	N	1.019543	-0.428967	1.182717
H80	H	0.981503	-0.461353	1.214041
H81	H	0.545416	-0.464965	0.545111
H82	H	0.821164	-0.419959	0.492479
N83	N	0.423476	-0.247508	0.290685
N84	N	0.432448	-0.252087	0.217958
H85	H	0.404231	-0.219651	0.179993
H86	H	1.237110	-0.937231	0.286199
N87	N	1.240886	-1.077913	0.282511
N88	N	1.237761	-1.143403	0.285669
H89	H	1.272986	-1.169867	0.250508
N90	N	1.285442	-0.202557	0.974413
N91	N	1.285451	-0.202550	1.048117
H92	H	1.323505	-0.170154	1.076363
H93	H	1.221705	-0.256818	0.694846
N94	N	0.966741	-0.473928	0.987304
N95	N	0.919638	-0.514022	0.952354
H96	H	0.881584	-0.546406	0.983665
N97	N	0.837987	-0.247439	0.290657
N98	N	0.803049	-0.207289	0.243692
H99	H	0.834370	-0.174830	0.205731
N100	N	0.549446	-0.202512	0.238078
N101	N	0.475741	-0.202532	0.238092
H102	H	0.447508	-0.170095	0.200142
H103	H	1.047244	-1.070309	0.475889
N104	N	1.011203	-0.598135	0.511582
N105	N	1.016017	-0.606276	0.584915
H106	H	0.980796	-0.579818	0.620088
H107	H	0.423750	-0.420003	0.492509
N108	N	1.043453	-0.929653	0.479576
N109	N	0.996734	-0.962411	0.526241
H110	H	0.961499	-0.935967	0.561412
N111	N	1.285412	-0.202572	0.807547
N112	N	1.332504	-0.162471	0.842501
H113	H	1.370549	-0.130075	0.811194
N114	N	1.208635	-0.746391	0.314512
N115	N	1.203830	-0.738249	0.241179
H116	H	1.239070	-0.764691	0.206009
N117	N	1.215678	-0.598136	0.307361
N118	N	1.210086	-0.606383	0.234818
H119	H	1.247831	-0.579927	0.197096
N120	N	1.202690	-0.817995	0.320491
N121	N	1.246286	-0.850742	0.276971
H122	H	1.284032	-0.824288	0.239250
H123	H	1.060239	-0.850473	0.462753
H124	H	1.030340	-0.419775	0.702601
N125	N	0.966724	-0.473972	0.820432
N126	N	0.966724	-0.473982	0.746728
H127	H	0.928683	-0.506388	0.718479
