data_functionalizedCrystal
_audit_creation_method	'MofGen! by Chris Wilmer'
_symmetry_space_group_name_H-M	'P1'
_symmetry_Int_Tables_number	1
_symmetry_cell_setting	triclinic
loop_
_symmetry_equiv_pos_as_xyz
  x,y,z
_cell_length_a	6.817900
_cell_length_b	19.551900
_cell_length_c	19.551833
_cell_angle_alpha	96.340534
_cell_angle_beta	101.663477
_cell_angle_gamma	101.664829
loop_
_atom_site_label
_atom_site_type_symbol
_atom_site_fract_x
_atom_site_fract_y
_atom_site_fract_z
V1	V	-3.997271	-0.097409	-0.218189
O2	O	-3.994610	0.003927	-0.213697
O3	O	-3.940080	-0.192421	-0.217022
O4	O	-3.940074	-0.096241	-0.313200
O5	O	-3.994617	-0.092918	-0.116853
V6	V	-4.483178	-0.085249	-0.206029
O7	O	-4.253300	-0.124083	-0.244863
O8	O	-4.677347	-0.058575	-0.179355
O9	O	-4.317162	0.009763	-0.207196
O10	O	-4.603237	-0.186585	-0.210520
O11	O	-4.603230	-0.089740	-0.307365
O12	O	-4.317169	-0.086416	-0.111017
C13	C	-3.783227	-0.215572	-0.213664
C14	C	-3.817695	-0.293247	-0.213343
C15	C	-4.247731	-0.856608	-0.215195
C16	C	-4.215362	-0.783624	-0.215492
C17	C	-4.017386	-0.743450	-0.211486
C18	C	-3.851759	-0.776264	-0.207164
C19	C	-3.884130	-0.849247	-0.206860
C20	C	-3.847023	-0.631534	-0.249902
C21	C	-3.814663	-0.558554	-0.250210
C22	C	-3.917534	-0.518348	-0.212419
C23	C	-4.052808	-0.551133	-0.174330
C24	C	-4.085179	-0.624115	-0.174026
C25	C	-3.982264	-0.664313	-0.211814
C26	C	-4.048052	-0.406403	-0.217058
C27	C	-4.015672	-0.333416	-0.217350
C28	C	-3.652068	-0.326059	-0.209029
C29	C	-3.684449	-0.399044	-0.208730
C30	C	-3.882446	-0.439212	-0.212748
C31	C	-3.783218	-0.092885	-0.336348
C32	C	-3.817678	-0.092559	-0.414022
C33	C	-4.015316	-0.095913	-0.454081
C34	C	-4.047695	-0.095607	-0.527065
C35	C	-3.882432	-0.091961	-0.559989
C36	C	-3.684764	-0.088602	-0.519920
C37	C	-3.652386	-0.088901	-0.446937
C38	C	-3.816114	-0.129953	-0.679430
C39	C	-3.848501	-0.129659	-0.752412
C40	C	-3.982285	-0.091034	-0.785092
C41	C	-4.083717	-0.052715	-0.744783
C42	C	-4.051340	-0.053014	-0.671800
C43	C	-3.917519	-0.091635	-0.639126
C44	C	-4.215044	-0.094056	-0.904288
C45	C	-4.247414	-0.093745	-0.977272
C46	C	-3.884480	-0.086747	-0.970127
C47	C	-3.852113	-0.087051	-0.897143
C48	C	-4.017404	-0.090709	-0.864229
C49	C	-4.137357	0.032911	-0.210552
C50	C	-4.082127	0.110585	-0.210878
C51	C	-4.137367	-0.089775	-0.087866
C52	C	-4.082146	-0.090098	-0.010191
H53	H	-3.704527	-0.531867	-0.281227
H54	H	-4.349633	-0.097032	-0.877488
H55	H	-3.707150	-0.161401	-0.652827
H56	H	-3.763218	-0.664263	-0.280669
Cl57	Cl	-3.476248	-0.440289	-0.203302
Cl58	Cl	-3.403908	-0.084687	-0.396575
Cl59	Cl	-3.403183	-0.275562	-0.203990
Cl60	Cl	-4.496636	-0.907100	-0.220238
Cl61	Cl	-3.603644	-0.082845	-0.846783
Cl62	Cl	-4.495896	-0.097961	-1.027633
H63	H	-3.749916	-0.083772	-0.996932
H64	H	-3.550206	-0.085631	-0.546731
Cl65	Cl	-3.721001	-0.177837	-0.803080
Cl66	Cl	-4.255219	-0.665328	-0.126142
Cl67	Cl	-3.602872	-0.725761	-0.202121
H68	H	-3.749269	-0.875957	-0.203347
H69	H	-4.192660	-0.021265	-0.771389
H70	H	-4.350218	-0.756907	-0.219003
H71	H	-4.136578	-0.518398	-0.143557
Cl72	Cl	-4.296175	-0.099820	-0.577434
Cl73	Cl	-4.223873	-0.292170	-0.222761
Cl74	Cl	-4.296956	-0.456902	-0.222104
H75	H	-4.149911	-0.098889	-0.427287
H76	H	-4.133927	-0.021811	-0.638982
