data_functionalizedCrystal
_audit_creation_method	'MofGen! by Chris Wilmer'
_symmetry_space_group_name_H-M	'P1'
_symmetry_Int_Tables_number	1
_symmetry_cell_setting	triclinic
loop_
_symmetry_equiv_pos_as_xyz
  x,y,z
_cell_length_a	17.019294
_cell_length_b	15.995350
_cell_length_c	15.072220
_cell_angle_alpha	89.991149
_cell_angle_beta	86.119892
_cell_angle_gamma	83.443443
loop_
_atom_site_label
_atom_site_type_symbol
_atom_site_fract_x
_atom_site_fract_y
_atom_site_fract_z
O1	O	0.101674	1.110876	-0.081474
O2	O	0.601674	1.610876	0.418526
O3	O	0.114230	0.867085	-0.082451
O4	O	0.614230	1.367085	0.417549
O5	O	-0.006880	0.995780	-0.073185
O6	O	0.493120	1.495780	0.426815
O7	O	0.222784	0.982181	-0.090741
O8	O	0.722784	1.482181	0.409259
O9	O	-0.006873	0.995748	0.074380
O10	O	0.493127	1.495748	0.574380
O11	O	0.114237	0.867054	0.065113
O12	O	0.614237	1.367054	0.565113
O13	O	0.101681	1.110844	0.066091
O14	O	0.601681	1.610844	0.566091
Zn15	Zn	0.107960	0.988944	0.089031
Zn16	Zn	0.607960	1.488944	0.589031
Zn17	Zn	0.107951	0.988986	-0.105392
Zn18	Zn	0.607951	1.488986	0.394608
O19	O	0.222791	0.982149	0.056824
O20	O	0.722791	1.482149	0.556824
C21	C	0.113714	0.835875	-0.008632
C22	C	0.613714	1.335875	0.491368
C23	C	0.112158	0.742927	-0.008520
C24	C	0.612158	1.242927	0.491480
C25	C	0.106569	0.405186	-0.008074
C26	C	0.606569	0.905186	0.491926
C27	C	0.020317	0.452722	-0.001151
C28	C	0.520317	0.952722	0.498849
C29	C	0.021873	0.549410	-0.001609
C30	C	0.521873	1.049410	0.498391
C31	C	0.109342	0.572743	-0.008295
C32	C	0.609342	1.072743	0.491705
C33	C	0.151880	0.531624	-0.095810
C34	C	0.651880	1.031624	0.404190
C35	C	0.149714	0.434991	-0.095709
C36	C	0.649714	0.934991	0.404291
C37	C	0.151503	0.434614	0.071964
C38	C	0.651503	0.934614	0.571964
C39	C	0.151483	0.531559	0.073073
C40	C	0.651483	1.031559	0.573073
C41	C	0.110913	0.667439	-0.008423
C42	C	0.610913	1.167439	0.491577
C43	C	0.105001	0.310490	-0.007952
C44	C	0.605001	0.810490	0.492048
C45	C	-0.036266	0.995248	0.002842
C46	C	0.463734	1.495248	0.502842
C47	C	-0.123836	0.993700	0.009530
C48	C	0.376164	1.493700	0.509530
C49	C	-0.164976	0.992992	-0.067765
C50	C	0.335024	1.492992	0.432235
C51	C	-0.247256	0.991532	-0.061478
C52	C	0.252744	1.491532	0.438522
C53	C	-0.288396	0.990786	0.022105
C54	C	0.211604	1.490786	0.522105
C55	C	-0.247250	0.991491	0.099405
C56	C	0.252750	1.491491	0.599405
C57	C	-0.164971	0.992945	0.093118
C58	C	0.335029	1.492945	0.593118
C59	C	-0.536828	0.986389	0.045114
C60	C	-0.036828	1.486389	0.545114
C61	C	-0.619114	0.984937	0.051396
C62	C	-0.119114	1.484937	0.551396
C63	C	-0.619113	0.984976	-0.109488
C64	C	-0.119113	1.484976	0.390512
C65	C	-0.536833	0.986435	-0.115768
C66	C	-0.036833	1.486435	0.384232
C67	C	-0.495693	0.987136	-0.038468
C68	C	0.004307	1.487136	0.461532
C69	C	-0.372501	0.989296	0.028533
C70	C	0.127499	1.489296	0.528533
C71	C	-0.411590	0.988620	-0.044897
C72	C	0.088410	1.488620	0.455103
C73	C	0.252177	0.982681	-0.019205
C74	C	0.752177	1.482681	0.480795
C75	C	0.339747	0.984229	-0.025899
C76	C	0.839747	1.484229	0.474101
C77	C	0.102196	1.142054	-0.007731
C78	C	0.602196	1.642054	0.492269
C79	C	0.103753	1.235002	-0.007849
C80	C	0.603753	1.735002	0.492151
N81	N	0.107965	0.988921	0.221719
N82	N	0.607965	1.488921	0.721719
N83	N	0.107939	0.989015	-0.238080
N84	N	0.607939	1.489015	0.261920
C85	C	0.107948	0.988984	0.580922
C86	C	0.607948	1.488984	1.080922
C87	C	0.172534	0.919891	0.538373
C88	C	0.672534	1.419891	1.038373
C89	C	0.172770	0.920049	0.435530
C90	C	0.672770	1.420049	0.935530
C91	C	0.107957	0.988952	0.402717
C92	C	0.607957	1.488952	0.902717
C93	C	0.125934	1.076296	0.438641
C94	C	0.625934	1.576296	0.938641
C95	C	0.126393	1.075908	0.541464
C96	C	0.626393	1.575908	1.041464
C97	C	0.025193	0.971512	0.549347
C98	C	0.525193	1.471512	1.049347
C99	C	0.025745	0.969507	0.446441
C100	C	0.525745	1.469507	0.946441
C101	C	0.107960	0.988940	0.302004
C102	C	0.607960	1.488940	0.802004
C103	C	0.107946	0.989002	0.681636
C104	C	0.607946	1.489002	1.181636
H105	H	-0.014158	0.434228	0.061912
H106	H	0.485842	0.934228	0.561912
N107	N	0.110770	0.412083	-0.171736
N108	N	0.610770	0.912083	0.328264
N109	N	0.049107	0.376522	-0.161784
N110	N	0.549107	0.876522	0.338216
H111	H	0.021599	0.360348	-0.215479
H112	H	0.521599	0.860348	0.284521
H113	H	-0.131486	0.993604	-0.135826
H114	H	0.368514	1.493604	0.364174
N115	N	-0.022747	0.428189	-0.073233
N116	N	0.477253	0.928189	0.426767
N117	N	-0.033537	0.352806	-0.082759
N118	N	0.466463	0.852806	0.417241
H119	H	-0.063948	0.335474	-0.133668
H120	H	0.436052	0.835474	0.366332
N121	N	-0.289266	0.990803	-0.140442
N122	N	0.210734	1.490803	0.359558
N123	N	-0.252525	0.991471	-0.215063
N124	N	0.247475	1.491471	0.284937
H125	H	-0.282193	0.990954	-0.270836
H126	H	0.217807	1.490954	0.229164
H127	H	-0.503342	0.987044	-0.183830
H128	H	-0.003342	1.487044	0.316170
N129	N	0.114837	0.567264	-0.171670
N130	N	0.614837	1.067264	0.328330
N131	N	0.154121	0.604348	-0.229190
N132	N	0.654121	1.104348	0.270810
H133	H	0.127961	0.629517	-0.282770
H134	H	0.627961	1.129517	0.217230
H135	H	-0.652607	0.984326	0.119462
H136	H	-0.152607	1.484326	0.619462
H137	H	0.080144	1.128934	0.417676
H138	H	0.580144	1.628934	0.917676
H139	H	-0.378089	0.989222	-0.112949
H140	H	0.121911	1.489222	0.387051
N141	N	0.231499	0.550743	0.073336
N142	N	0.731499	1.050743	0.573336
N143	N	0.258893	0.595276	0.013288
N144	N	0.758893	1.095276	0.513288
H145	H	0.315408	0.608825	0.013467
H146	H	0.815408	1.108825	0.513467
N147	N	-0.494802	0.987103	0.124065
N148	N	0.005198	1.487103	0.624065
N149	N	-0.441622	0.928915	0.137948
N150	N	0.058378	1.428915	0.637948
H151	H	-0.411938	0.929418	0.193711
H152	H	0.088062	1.429418	0.693711
H153	H	-0.280753	0.990879	0.167460
H154	H	0.219247	1.490879	0.667460
H155	H	0.186745	1.091319	0.560833
H156	H	0.686745	1.591319	1.060833
N157	N	-0.020365	0.584418	-0.074291
N158	N	0.479635	1.084418	0.425709
N159	N	-0.051081	0.537432	-0.124841
N160	N	0.448919	1.037432	0.375159
H161	H	-0.080913	0.562154	-0.176177
H162	H	0.419087	1.062154	0.323823
H163	H	0.215097	0.402777	0.067673
H164	H	0.715097	0.902777	0.567673
N165	N	-0.661149	0.984262	-0.188435
N166	N	-0.161149	1.484262	0.311565
N167	N	-0.734613	0.982965	-0.182814
N168	N	-0.234613	1.482965	0.317186
H169	H	-0.764301	0.982459	-0.238573
H170	H	-0.264301	1.482459	0.261427
H171	H	-0.131474	0.993510	0.156059
H172	H	0.368526	1.493510	0.656059
N173	N	-0.414515	0.988543	0.113916
N174	N	0.085485	1.488543	0.613916
N175	N	-0.377779	0.989180	0.182929
N176	N	0.122221	1.489180	0.682929
H177	H	-0.407452	0.988644	0.243231
H178	H	0.092548	1.488644	0.743231
N179	N	0.159718	0.838481	0.404903
N180	N	0.659718	1.338481	0.904903
N181	N	0.150361	0.781042	0.459514
N182	N	0.650361	1.281042	0.959514
H183	H	0.141291	0.723386	0.437879
H184	H	0.641291	1.223386	0.937879
H185	H	0.162000	0.854754	0.563935
H186	H	0.662000	1.354754	1.063935
H187	H	0.185598	1.092077	0.408312
H188	H	0.685598	1.592077	0.908312
N189	N	0.249137	0.933684	0.564939
N190	N	0.749137	1.433684	1.064939
N191	N	0.256370	0.994179	0.615072
N192	N	0.756370	1.494179	1.115072
H193	H	0.310470	1.003924	0.633836
H194	H	0.810470	1.503924	1.133836
H195	H	0.234181	0.931196	0.406222
H196	H	0.734181	1.431196	0.906222
N197	N	0.069621	1.142336	0.577006
N198	N	0.569621	1.642336	1.077006
N199	N	0.029792	1.188838	0.525860
N200	N	0.529792	1.688838	1.025860
H201	H	-0.010300	1.235755	0.550957
H202	H	0.489700	1.735755	1.050957
H203	H	0.007906	0.909210	0.576654
H204	H	0.507906	1.409210	1.076654
H205	H	0.012102	0.905257	0.423107
H206	H	0.512102	1.405257	0.923107
H207	H	0.213038	0.402668	-0.104373
H208	H	0.713038	0.902668	0.395627
N209	N	-0.037370	1.028545	0.419008
N210	N	0.462630	1.528545	0.919008
N211	N	-0.022721	1.086173	0.366555
N212	N	0.477279	1.586173	0.866555
H213	H	-0.067294	1.127875	0.347179
H214	H	0.432706	1.627875	0.847179
H215	H	0.216141	0.545673	-0.103855
H216	H	0.716141	1.045673	0.396145
H217	H	-0.022870	1.021900	0.577343
H218	H	0.477130	1.521900	1.077343
N219	N	-0.020094	0.585121	0.077356
N220	N	0.479906	1.085121	0.577356
N221	N	-0.079380	0.638227	0.071779
N222	N	0.420620	1.138227	0.571779
H223	H	-0.109026	0.663447	0.127548
H224	H	0.390974	1.163447	0.627548
N225	N	0.116130	0.408870	0.154787
N226	N	0.616130	0.908870	0.654787
N227	N	0.057366	0.368516	0.155827
N228	N	0.557366	0.868516	0.655827
H229	H	0.032376	0.350333	0.214317
H230	H	0.532376	0.850333	0.714317
H231	H	0.120430	0.558899	0.137784
H232	H	0.620430	1.058899	0.637784
