data_functionalizedCrystal
_audit_creation_method	'MofGen! by Chris Wilmer'
_symmetry_space_group_name_H-M	'P1'
_symmetry_Int_Tables_number	1
_symmetry_cell_setting	triclinic
loop_
_symmetry_equiv_pos_as_xyz
  x,y,z
_cell_length_a	14.853569
_cell_length_b	17.038272
_cell_length_c	13.930277
_cell_angle_alpha	89.995405
_cell_angle_beta	89.994756
_cell_angle_gamma	87.373560
loop_
_atom_site_label
_atom_site_type_symbol
_atom_site_fract_x
_atom_site_fract_y
_atom_site_fract_z
O1	O	1.204050	0.102092	-0.079788
O2	O	1.704050	0.602092	0.420212
O3	O	0.942506	0.114251	-0.079799
O4	O	1.442506	0.614251	0.420201
O5	O	1.071724	-0.005646	-0.079786
O6	O	1.571724	0.494354	0.420214
O7	O	1.074833	0.221989	-0.079801
O8	O	1.574833	0.721989	0.420199
O9	O	1.071704	-0.005648	0.079876
O10	O	1.571704	0.494352	0.579876
O11	O	0.942487	0.114249	0.079862
O12	O	1.442487	0.614249	0.579862
O13	O	1.204031	0.102089	0.079874
O14	O	1.704031	0.602089	0.579874
Zn15	Zn	1.073256	0.108169	0.105218
Zn16	Zn	1.573256	0.608169	0.605218
Zn17	Zn	1.073281	0.108172	-0.105143
Zn18	Zn	1.573281	0.608172	0.394857
O19	O	1.074813	0.221986	0.079861
O20	O	1.574813	0.721986	0.579861
C21	C	0.908866	0.113699	0.000030
C22	C	1.408866	0.613699	0.500030
C23	C	0.808658	0.112047	0.000026
C24	C	1.308658	0.612047	0.500026
C25	C	0.766864	0.040051	0.000027
C26	C	1.266864	0.540051	0.500027
C27	C	0.756293	0.182492	0.000029
C28	C	1.256293	0.682492	0.500029
C29	C	0.662143	0.180943	0.000030
C30	C	1.162143	0.680943	0.500030
C31	C	0.620348	0.108946	0.000031
C32	C	1.120348	0.608946	0.500031
C33	C	0.672704	0.038499	0.000031
C34	C	1.172704	0.538499	0.500031
C35	C	0.609779	0.251388	0.000039
C36	C	1.109779	0.751388	0.500039
C37	C	0.515623	0.249842	0.000042
C38	C	1.015623	0.749842	0.500042
C39	C	0.473826	0.177844	0.000036
C40	C	0.973826	0.677844	0.500036
C41	C	0.526189	0.107394	0.000035
C42	C	1.026189	0.607394	0.500035
C43	C	0.484394	0.035398	0.000037
C44	C	0.984394	0.535398	0.500037
C45	C	0.536755	-0.035053	0.000029
C46	C	1.036755	0.464947	0.500029
C47	C	0.630908	-0.033498	0.000026
C48	C	1.130908	0.466502	0.500026
C49	C	0.379673	0.176290	0.000039
C50	C	0.879673	0.676290	0.500039
C51	C	0.390235	0.033846	0.000041
C52	C	0.890235	0.533846	0.500041
C53	C	1.068886	-0.034779	0.000045
C54	C	1.568886	0.465221	0.500045
C55	C	1.060450	-0.121583	0.000044
C56	C	1.560450	0.378417	0.500044
C57	C	1.137903	-0.171595	0.000048
C58	C	1.637903	0.328405	0.500048
C59	C	1.129972	-0.253156	0.000039
C60	C	1.629972	0.246844	0.500039
C61	C	1.044586	-0.284704	0.000032
C62	C	1.544586	0.215296	0.500032
C63	C	0.967127	-0.234685	0.000025
C64	C	1.467127	0.265315	0.500025
C65	C	0.975059	-0.153126	0.000027
C66	C	1.475059	0.346874	0.500027
C67	C	1.016560	-0.530498	0.000018
C68	C	1.516560	-0.030498	0.500018
C69	C	1.008633	-0.612064	0.000018
C70	C	1.508633	-0.112064	0.500018
C71	C	1.171479	-0.630530	0.000030
C72	C	1.671479	-0.130530	0.500030
C73	C	1.179404	-0.548968	0.000039
C74	C	1.679404	-0.048968	0.500039
C75	C	1.101945	-0.498957	0.000026
C76	C	1.601945	0.001043	0.500026
C77	C	1.036476	-0.368072	0.000025
C78	C	1.536476	0.131928	0.500025
C79	C	1.110056	-0.415590	0.000026
C80	C	1.610056	0.084410	0.500026
C81	C	1.237671	0.102642	0.000043
C82	C	1.737671	0.602642	0.500043
C83	C	1.337879	0.104293	0.000040
C84	C	1.837879	0.604293	0.500040
C85	C	1.077650	0.251120	0.000028
C86	C	1.577650	0.751120	0.500028
C87	C	1.086087	0.337924	0.000022
C88	C	1.586087	0.837924	0.500022
N89	N	1.073245	0.108166	0.248784
N90	N	1.573245	0.608166	0.748784
N91	N	1.073299	0.108169	-0.248709
N92	N	1.573299	0.608169	0.251291
C93	C	1.016060	0.161242	0.701048
C94	C	1.516060	0.661242	1.201048
C95	C	1.130527	0.055096	0.701029
C96	C	1.630527	0.555096	1.201029
C97	C	1.130516	0.055094	0.600533
C98	C	1.630516	0.555094	1.100533
C99	C	1.073277	0.108167	0.550290
C100	C	1.573277	0.608167	1.050290
C101	C	1.016049	0.161242	0.600542
C102	C	1.516049	0.661242	1.100542
C103	C	1.187750	0.002025	0.550273
C104	C	1.687750	0.502025	1.050273
C105	C	1.187742	0.002021	0.449771
C106	C	1.687742	0.502021	0.949771
C107	C	1.130498	0.055091	0.399526
C108	C	1.630498	0.555091	0.899526
C109	C	1.073266	0.108168	0.449785
C110	C	1.573266	0.608168	0.949785
C111	C	1.016027	0.161241	0.399542
C112	C	1.516027	0.661241	0.899542
C113	C	0.958791	0.214315	0.449799
C114	C	1.458791	0.714315	0.949799
C115	C	0.958804	0.214312	0.550298
C116	C	1.458804	0.714312	1.050298
C117	C	1.130484	0.055093	0.299027
C118	C	1.630484	0.555093	0.799027
C119	C	1.016017	0.161241	0.299037
C120	C	1.516017	0.661241	0.799037
H121	H	0.356213	-0.024783	0.000037
H122	H	0.856213	0.475217	0.500037
H123	H	0.939098	-0.637746	0.000028
H124	H	1.439098	-0.137746	0.500028
H125	H	0.953487	-0.489788	0.000008
H126	H	1.453487	0.010212	0.500008
H127	H	0.912190	0.257530	0.408879
H128	H	1.412190	0.757530	0.908879
H129	H	1.234357	-0.041182	0.591184
H130	H	1.734357	0.458818	1.091184
H131	H	0.912205	0.257524	0.591223
H132	H	1.412205	0.757524	1.091223
H133	H	1.177134	0.011889	0.741940
H134	H	1.677134	0.511889	1.241940
H135	H	0.790328	0.241108	0.000034
H136	H	1.290328	0.741108	0.500034
H137	H	0.897603	-0.260377	0.000013
H138	H	1.397603	0.239623	0.500013
H139	H	0.809500	-0.017308	0.000017
H140	H	1.309500	0.482692	0.500017
H141	H	1.234541	-0.671257	0.000039
H142	H	1.734541	-0.171257	0.500039
H143	H	1.234346	-0.041195	0.408858
H144	H	1.734346	0.458805	0.908858
H145	H	0.969456	0.204452	0.741969
H146	H	1.469456	0.704452	1.241969
H147	H	1.248935	-0.523289	0.000045
H148	H	1.748935	-0.023289	0.500045
H149	H	0.911988	-0.112406	0.000023
H150	H	1.411988	0.387594	0.500023
H151	H	1.207434	-0.145916	0.000060
H152	H	1.707434	0.354084	0.500060
H153	H	1.177089	0.011884	0.258113
H154	H	1.677089	0.511884	0.758113
H155	H	1.179577	-0.389901	0.000011
H156	H	1.679577	0.110099	0.500011
H157	H	0.673548	-0.090855	0.000021
H158	H	1.173548	0.409145	0.500021
H159	H	0.502713	-0.093673	0.000024
H160	H	1.002713	0.406327	0.500024
H161	H	0.643816	0.310004	0.000044
H162	H	1.143816	0.810004	0.500044
H163	H	0.966954	-0.393767	0.000022
H164	H	1.466954	0.106233	0.500022
H165	H	0.472998	0.307207	0.000046
H166	H	0.972998	0.807207	0.500046
H167	H	0.337045	0.233650	0.000054
H168	H	0.837045	0.733650	0.500054
H169	H	1.193042	-0.293873	0.000045
H170	H	1.693042	0.206127	0.500045
H171	H	0.969402	0.204457	0.258135
H172	H	1.469402	0.704457	0.758135
