data_functionalizedCrystal
_audit_creation_method	'MofGen! by Chris Wilmer'
_symmetry_space_group_name_H-M	'P1'
_symmetry_Int_Tables_number	1
_symmetry_cell_setting	triclinic
loop_
_symmetry_equiv_pos_as_xyz
  x,y,z
_cell_length_a	25.639242
_cell_length_b	25.639242
_cell_length_c	25.639233
_cell_angle_alpha	90.023596
_cell_angle_beta	89.994437
_cell_angle_gamma	89.998001
loop_
_atom_site_label
_atom_site_type_symbol
_atom_site_fract_x
_atom_site_fract_y
_atom_site_fract_z
Zn1	Zn	-0.208284	-0.799340	-0.295810
Zn2	Zn	0.291716	-0.299340	0.204190
Zn3	Zn	-0.295702	-0.799312	-0.208395
Zn4	Zn	0.204298	-0.299312	0.291605
Zn5	Zn	-0.208275	-0.711917	-0.208372
Zn6	Zn	0.291725	-0.211917	0.291628
Zn7	Zn	-0.295682	-0.711910	-0.295782
Zn8	Zn	0.204318	-0.211910	0.204218
O9	O	-0.251986	-0.755620	-0.252090
O10	O	0.248014	-0.255620	0.247910
O11	O	-0.219892	-0.872502	-0.284235
O12	O	0.280108	-0.372502	0.215765
O13	O	-0.284110	-0.787710	-0.135226
O14	O	0.215890	-0.287710	0.364774
O15	O	-0.135111	-0.723528	-0.219973
O16	O	0.364889	-0.223528	0.280027
O17	O	-0.284118	-0.872481	-0.220012
O18	O	0.215882	-0.372481	0.279988
O19	O	-0.135117	-0.787758	-0.284213
O20	O	0.364883	-0.287758	0.215787
O21	O	-0.219878	-0.723501	-0.135210
O22	O	0.280122	-0.223501	0.364790
O23	O	-0.219858	-0.638751	-0.219946
O24	O	0.280142	-0.138751	0.280054
O25	O	-0.284084	-0.723517	-0.368951
O26	O	0.215916	-0.223517	0.131049
O27	O	-0.284076	-0.638746	-0.284166
O28	O	0.215924	-0.138746	0.215834
O29	O	-0.219872	-0.787752	-0.368972
O30	O	0.280128	-0.287752	0.131028
O31	O	-0.368865	-0.787704	-0.219985
O32	O	0.131135	-0.287704	0.280015
O33	O	-0.368850	-0.723490	-0.284188
O34	O	0.131150	-0.223490	0.215812
C35	C	-0.251964	-0.619777	-0.252051
C36	C	0.248036	-0.119777	0.247949
C37	C	-0.251967	-0.561663	-0.252047
C38	C	0.248033	-0.061663	0.247953
C39	C	-0.387828	-0.755607	-0.252097
C40	C	0.112172	-0.255607	0.247903
C41	C	-0.445942	-0.755650	-0.252118
C42	C	0.054058	-0.255650	0.247882
C43	C	-0.285475	-0.201307	-0.285484
C44	C	0.214525	0.298693	0.214516
C45	C	-0.285478	-0.146702	-0.285490
C46	C	0.214522	0.353298	0.214510
O47	O	-0.313944	-0.118471	-0.313897
O48	O	0.186056	0.381529	0.186103
N49	N	-0.251995	-0.119381	-0.252108
N50	N	0.248005	0.380619	0.247892
C51	C	-0.218503	-0.146666	-0.218720
C52	C	0.281497	0.353334	0.281280
O53	O	-0.190023	-0.118413	-0.190327
O54	O	0.309977	0.381587	0.309673
C55	C	-0.218498	-0.201270	-0.218716
C56	C	0.281502	0.298730	0.281284
C57	C	-0.251987	-0.228588	-0.252097
C58	C	0.248013	0.271412	0.247903
C59	C	-0.318961	-0.228625	-0.318862
C60	C	0.181039	0.271375	0.181138
C61	C	-0.318959	-0.283226	-0.318855
C62	C	0.181041	0.216774	0.181145
C63	C	-0.285471	-0.310508	-0.285468
C64	C	0.214529	0.189492	0.214532
C65	C	-0.251985	-0.283189	-0.252090
C66	C	0.248015	0.216811	0.247910
C67	C	-0.185004	-0.228554	-0.185332
C68	C	0.314996	0.271446	0.314668
C69	C	-0.185002	-0.283161	-0.185331
C70	C	0.314998	0.216839	0.314669
C71	C	-0.218491	-0.310480	-0.218712
C72	C	0.281509	0.189520	0.281288
C73	C	-0.218495	-0.365071	-0.218696
C74	C	0.281505	0.134929	0.281304
N75	N	-0.251978	-0.392393	-0.252078
N76	N	0.248022	0.107607	0.247922
C77	C	-0.285466	-0.365111	-0.285464
C78	C	0.214534	0.134889	0.214536
C79	C	-0.218515	-0.031996	-0.218732
C80	C	0.281485	0.468004	0.281268
C81	C	-0.218523	0.022607	-0.218732
C82	C	0.281477	0.522607	0.281268
C83	C	-0.285497	0.022567	-0.285503
C84	C	0.214503	0.522567	0.214497
C85	C	-0.285492	-0.032036	-0.285500
C86	C	0.214508	0.467964	0.214500
C87	C	-0.251998	-0.059317	-0.252114
C88	C	0.248002	0.440683	0.247886
C89	C	-0.285459	-0.479776	-0.285445
C90	C	0.214541	0.020224	0.214555
C91	C	-0.285455	-0.534381	-0.285433
C92	C	0.214545	-0.034381	0.214567
C93	C	-0.218480	-0.534337	-0.218664
C94	C	0.281520	-0.034337	0.281336
C95	C	-0.218485	-0.479736	-0.218674
C96	C	0.281515	0.020264	0.281326
C97	C	-0.251976	-0.452457	-0.252069
C98	C	0.248024	0.047543	0.247931
O99	O	-0.190042	-0.393337	-0.190305
O100	O	0.309958	0.106663	0.309695
O101	O	-0.313936	-0.393371	-0.313858
O102	O	0.186064	0.106629	0.186142
C103	C	-0.115613	-0.755647	-0.252094
C104	C	0.384387	-0.255647	0.247906
C105	C	-0.057499	-0.755658	-0.252096
C106	C	0.442501	-0.255658	0.247904
C107	C	0.193686	-0.789092	-0.285561
C108	C	0.693686	-0.289092	0.214439
C109	C	0.139081	-0.789092	-0.285559
C110	C	0.639081	-0.289092	0.214441
O111	O	0.110837	-0.817518	-0.314014
O112	O	0.610837	-0.317518	0.185986
N113	N	0.111775	-0.755653	-0.252109
N114	N	0.611775	-0.255653	0.247891
C115	C	0.139076	-0.722209	-0.218663
C116	C	0.639076	-0.222209	0.281337
O117	O	0.110836	-0.693766	-0.190212
O118	O	0.610836	-0.193766	0.309788
C119	C	0.193679	-0.722207	-0.218668
C120	C	0.693679	-0.222207	0.281332
C121	C	0.220983	-0.755651	-0.252116
C122	C	0.720983	-0.255651	0.247884
C123	C	0.220989	-0.822534	-0.319006
C124	C	0.720989	-0.322534	0.180994
C125	C	0.275590	-0.822534	-0.319007
C126	C	0.775590	-0.322534	0.180993
C127	C	0.302887	-0.789094	-0.285562
C128	C	0.802887	-0.289094	0.214438
C129	C	0.275583	-0.755652	-0.252117
C130	C	0.775583	-0.255652	0.247883
C131	C	0.220979	-0.688760	-0.185224
C132	C	0.720979	-0.188760	0.314776
C133	C	0.275586	-0.688761	-0.185232
C134	C	0.775586	-0.188761	0.314768
C135	C	0.302890	-0.722205	-0.218680
C136	C	0.802890	-0.222205	0.281320
C137	C	0.357481	-0.722212	-0.218673
C138	C	0.857481	-0.222212	0.281327
N139	N	0.384787	-0.755651	-0.252122
N140	N	0.884787	-0.255651	0.247878
C141	C	0.357490	-0.789092	-0.285567
C142	C	0.857490	-0.289092	0.214433
C143	C	0.024405	-0.722215	-0.218656
C144	C	0.524405	-0.222215	0.281344
C145	C	-0.030197	-0.722219	-0.218649
C146	C	0.469803	-0.222219	0.281351
C147	C	-0.030188	-0.789102	-0.285545
C148	C	0.469812	-0.289102	0.214455
C149	C	0.024415	-0.789100	-0.285550
C150	C	0.524415	-0.289100	0.214450
C151	C	0.051712	-0.755654	-0.252106
C152	C	0.551712	-0.255654	0.247894
C153	C	0.472155	-0.789091	-0.285566
C154	C	0.972155	-0.289091	0.214434
C155	C	0.526760	-0.789090	-0.285563
C156	C	1.026760	-0.289090	0.214437
C157	C	0.526746	-0.722206	-0.218668
C158	C	1.026746	-0.222206	0.281332
C159	C	0.472146	-0.722208	-0.218669
C160	C	0.972146	-0.222208	0.281331
C161	C	0.444852	-0.755653	-0.252123
C162	C	0.944852	-0.255653	0.247877
O163	O	0.385760	-0.693799	-0.190234
O164	O	0.885760	-0.193799	0.309766
O165	O	0.385737	-0.817525	-0.314019
O166	O	0.885737	-0.317525	0.185981
C167	C	-0.251977	-0.755637	-0.388463
C168	C	0.248023	-0.255637	0.111537
C169	C	-0.251973	-0.755644	-0.446577
C170	C	0.248027	-0.255644	0.053423
C171	C	-0.252006	0.108007	-0.252123
C172	C	0.247994	0.608007	0.247877
C173	C	-0.252009	0.049893	-0.252121
C174	C	0.247991	0.549893	0.247879
C175	C	-0.218439	-0.789133	-0.806956
C176	C	0.281561	-0.289133	-0.306956
C177	C	-0.218424	-0.789140	-0.861561
C178	C	0.281576	-0.289140	-0.361561
O179	O	-0.189974	-0.817571	-0.889811
O180	O	0.310026	-0.317571	-0.389811
N181	N	-0.251850	-0.755701	-0.888860
N182	N	0.248150	-0.255701	-0.388860
C183	C	-0.285289	-0.722251	-0.861551
C184	C	0.214711	-0.222251	-0.361551
O185	O	-0.313719	-0.693809	-0.889785
O186	O	0.186281	-0.193809	-0.389785
C187	C	-0.285301	-0.722242	-0.806948
C188	C	0.214699	-0.222242	-0.306948
C189	C	-0.251876	-0.755686	-0.779652
C190	C	0.248124	-0.255686	-0.279652
C191	C	-0.185016	-0.822574	-0.779660
C192	C	0.314984	-0.322574	-0.279660
C193	C	-0.185032	-0.822568	-0.725060
C194	C	0.314968	-0.322568	-0.225060
C195	C	-0.218469	-0.789121	-0.697755
C196	C	0.281531	-0.289121	-0.197755
C197	C	-0.251891	-0.755680	-0.725051
C198	C	0.248109	-0.255680	-0.225051
C199	C	-0.318737	-0.688789	-0.779641
C200	C	0.181263	-0.188789	-0.279641
C201	C	-0.318745	-0.688783	-0.725034
C202	C	0.181255	-0.188783	-0.225034
C203	C	-0.285320	-0.722227	-0.697738
C204	C	0.214680	-0.222227	-0.197738
C205	C	-0.285344	-0.722228	-0.643146
C206	C	0.214656	-0.222228	-0.143146
N207	N	-0.251918	-0.755666	-0.615847
N208	N	0.248082	-0.255666	-0.115847
C209	C	-0.218481	-0.789113	-0.643152
C210	C	0.281519	-0.289113	-0.143152
C211	C	-0.285262	-0.722271	-0.976222
C212	C	0.214738	-0.222271	-0.476222
C213	C	-0.285254	-0.722282	-1.030824
C214	C	0.214746	-0.222282	-0.530824
C215	C	-0.218388	-0.789170	-1.030830
C216	C	0.281612	-0.289170	-0.530830
C217	C	-0.218399	-0.789162	-0.976227
C218	C	0.281601	-0.289162	-0.476227
C219	C	-0.251836	-0.755709	-0.948923
C220	C	0.248164	-0.255709	-0.448923
C221	C	-0.218516	-0.789098	-0.528487
C222	C	0.281484	-0.289098	-0.028487
C223	C	-0.218535	-0.789091	-0.473881
C224	C	0.281465	-0.289091	0.026119
C225	C	-0.285399	-0.722201	-0.473880
C226	C	0.214601	-0.222201	0.026120
C227	C	-0.285381	-0.722210	-0.528481
C228	C	0.214619	-0.222210	-0.028481
C229	C	-0.251935	-0.755660	-0.555783
C230	C	0.248065	-0.255660	-0.055783
O231	O	-0.313779	-0.693809	-0.614861
O232	O	0.186221	-0.193809	-0.114861
O233	O	-0.190051	-0.817545	-0.614911
O234	O	0.309949	-0.317545	-0.114911
C235	C	-0.251957	-0.755633	-0.116247
C236	C	0.248043	-0.255633	0.383753
C237	C	-0.251814	-0.755727	-0.058134
C238	C	0.248186	-0.255727	0.441866
H239	H	-0.312728	-0.556622	-0.312616
H240	H	0.187272	-0.056622	0.187384
N241	N	-0.319671	-0.451924	-0.319561
N242	N	0.180329	0.048076	0.180439
N243	N	-0.349564	-0.476331	-0.349359
N244	N	0.150436	0.023669	0.150641
H245	H	-0.373728	-0.456662	-0.373452
H246	H	0.126272	0.043338	0.126548
H247	H	-0.157724	-0.305371	-0.158147
H248	H	0.342276	0.194629	0.341853
H249	H	-0.191181	-0.816394	-0.954006
H250	H	0.308819	-0.316394	-0.454006
H251	H	0.046643	-0.816333	-0.312787
H252	H	0.546643	-0.316333	0.187213
H253	H	-0.312493	-0.695030	-0.953995
H254	H	0.187507	-0.195030	-0.453995
N255	N	0.193095	-0.654585	-0.151072
N256	N	0.693095	-0.154585	0.348928
N257	N	0.162631	-0.621270	-0.169465
N258	N	0.662631	-0.121270	0.330535
H259	H	0.142936	-0.597130	-0.145345
H260	H	0.642936	-0.097130	0.354655
N261	N	-0.319543	-0.688029	-0.445982
N262	N	0.180457	-0.188029	0.054018
N263	N	-0.316058	-0.639785	-0.452062
N264	N	0.183942	-0.139785	0.047938
H265	H	-0.340170	-0.615647	-0.432357
H266	H	0.159830	-0.115647	0.067643
H267	H	-0.346228	-0.305464	-0.346038
H268	H	0.153772	0.194536	0.153962
N269	N	0.554658	-0.823256	-0.319723
N270	N	1.054658	-0.323256	0.180277
N271	N	0.603410	-0.823261	-0.319716
N272	N	1.103410	-0.323261	0.180284
H273	H	0.623112	-0.847393	-0.343838
H274	H	1.123112	-0.347393	0.156162
N275	N	0.444272	-0.823249	-0.319735
N276	N	0.944272	-0.323249	0.180265
N277	N	0.413804	-0.804863	-0.353049
N278	N	0.913804	-0.304863	0.146951
H279	H	0.394110	-0.828989	-0.377179
H280	H	0.894110	-0.328989	0.122821
N281	N	0.303467	-0.856700	-0.353178
N282	N	0.803467	-0.356700	0.146822
N283	N	0.279079	-0.886552	-0.383035
N284	N	0.779079	-0.386552	0.116965
H285	H	0.298764	-0.910683	-0.407172
H286	H	0.798764	-0.410683	0.092828
H287	H	-0.312763	0.044790	-0.312690
H288	H	0.187237	0.544790	0.187310
H289	H	-0.157785	-0.849811	-0.801886
H290	H	0.342215	-0.349811	-0.301886
H291	H	-0.312603	-0.694982	-0.550707
H292	H	0.187397	-0.194982	-0.050707
H293	H	-0.157813	-0.849801	-0.702840
H294	H	0.342187	-0.349801	-0.202840
H295	H	0.198770	-0.849765	-0.346244
H296	H	0.698770	-0.349765	0.153756
N297	N	-0.058085	-0.823261	-0.319704
N298	N	0.441915	-0.323261	0.180296
N299	N	-0.106837	-0.823253	-0.319692
N300	N	0.393163	-0.323253	0.180308
H301	H	-0.126542	-0.847377	-0.343814
H302	H	0.373458	-0.347377	0.156186
N303	N	-0.353172	-0.200771	-0.352974
N304	N	0.146828	0.299229	0.147026
N305	N	-0.383063	-0.225180	-0.382772
N306	N	0.116937	0.274820	0.117228
H307	H	-0.407229	-0.205512	-0.406865
H308	H	0.092771	0.294488	0.093135
N309	N	-0.184280	-0.451836	-0.184569
N310	N	0.315720	0.048164	0.315431
N311	N	-0.154384	-0.476204	-0.154760
N312	N	0.345616	0.023796	0.345240
H313	H	-0.130222	-0.456503	-0.130676
H314	H	0.369778	0.043497	0.369324
H315	H	-0.191160	-0.816403	-1.053071
H316	H	0.308840	-0.316403	-0.553071
H317	H	-0.312477	-0.695054	-1.053044
H318	H	0.187523	-0.195054	-0.553044
H319	H	-0.312761	-0.054276	-0.312682
H320	H	0.187239	0.445724	0.187318
H321	H	-0.052423	-0.694991	-0.191406
H322	H	0.447577	-0.194991	0.308594
H323	H	-0.345954	-0.661555	-0.801856
H324	H	0.154046	-0.161555	-0.301856
N325	N	0.052287	-0.688060	-0.184481
N326	N	0.552287	-0.188060	0.315519
N327	N	0.082755	-0.706448	-0.151170
N328	N	0.582755	-0.206448	0.348830
H329	H	0.102445	-0.682325	-0.127035
H330	H	0.602445	-0.182325	0.372965
N331	N	-0.184280	-0.562219	-0.184563
N332	N	0.315720	-0.062219	0.315437
N333	N	-0.184286	-0.610971	-0.184566
N334	N	0.315714	-0.110971	0.315434
H335	H	-0.160131	-0.630665	-0.160484
H336	H	0.339869	-0.130665	0.339516
N337	N	-0.184319	0.050500	-0.184623
N338	N	0.315681	0.550500	0.315377
N339	N	-0.154426	0.026128	-0.154816
N340	N	0.345574	0.526128	0.345184
H341	H	-0.130267	0.045826	-0.130726
H342	H	0.369733	0.545826	0.369274
N343	N	-0.352894	-0.654605	-0.697144
N344	N	0.147106	-0.154605	-0.197144
N345	N	-0.349411	-0.606362	-0.703230
N346	N	0.150589	-0.106362	-0.203230
H347	H	-0.373529	-0.582223	-0.683533
H348	H	0.126471	-0.082223	-0.183533
H349	H	-0.191279	-0.816335	-0.550709
H350	H	0.308721	-0.316335	-0.050709
N351	N	0.303459	-0.654589	-0.151069
N352	N	0.803459	-0.154589	0.348931
N353	N	0.279070	-0.624732	-0.121211
N354	N	0.779070	-0.124732	0.378789
H355	H	0.298754	-0.600598	-0.097082
H356	H	0.798754	-0.100598	0.402918
H357	H	0.449914	-0.694979	-0.191429
H358	H	0.949914	-0.194979	0.308571
N359	N	-0.150790	-0.200650	-0.151246
N360	N	0.349210	0.299350	0.348754
N361	N	-0.150785	-0.151898	-0.151252
N362	N	0.349215	0.348102	0.348748
H363	H	-0.126617	-0.132190	-0.127179
H364	H	0.373383	0.367810	0.372821
N365	N	0.554646	-0.688050	-0.184513
N366	N	1.054646	-0.188050	0.315487
N367	N	0.585117	-0.654741	-0.202908
N368	N	1.085117	-0.154741	0.297092
H369	H	0.604824	-0.630617	-0.178788
H370	H	1.104824	-0.130617	0.321212
N371	N	-0.184298	-0.059852	-0.184622
N372	N	0.315702	0.440148	0.315378
N373	N	-0.154407	-0.035447	-0.154822
N374	N	0.345593	0.464553	0.345178
H375	H	-0.130240	-0.055117	-0.130732
H376	H	0.369760	0.444883	0.369268
N377	N	-0.184391	-0.823261	-0.446008
N378	N	0.315609	-0.323261	0.053992
N379	N	-0.154539	-0.853120	-0.470398
N380	N	0.345461	-0.353120	0.029602
H381	H	-0.130424	-0.877252	-0.450714
H382	H	0.369576	-0.377252	0.049286
