data_functionalizedCrystal
_audit_creation_method	'MofGen! by Chris Wilmer'
_symmetry_space_group_name_H-M	'P1'
_symmetry_Int_Tables_number	1
_symmetry_cell_setting	triclinic
loop_
_symmetry_equiv_pos_as_xyz
  x,y,z
_cell_length_a	15.538191
_cell_length_b	11.792241
_cell_length_c	14.185569
_cell_angle_alpha	76.753184
_cell_angle_beta	97.875798
_cell_angle_gamma	65.732755
loop_
_atom_site_label
_atom_site_type_symbol
_atom_site_fract_x
_atom_site_fract_y
_atom_site_fract_z
O1	O	1.226838	-0.333383	-0.083428
O2	O	0.953247	-0.202607	-0.083428
O3	O	1.096684	-0.435953	-0.083421
O4	O	1.083402	-0.100037	-0.083435
O5	O	1.139056	-0.504880	0.083416
O6	O	0.995620	-0.271534	0.083409
O7	O	1.269211	-0.402310	0.083409
Cu8	Cu	1.136284	-0.343215	0.098642
Cu9	Cu	1.086174	-0.261702	-0.098662
O10	O	1.125774	-0.168964	0.083402
C11	C	0.939408	-0.223388	-0.000010
C12	C	0.835042	-0.182633	-0.000009
C13	C	0.545184	-0.587531	-0.000008
C14	C	0.447114	-0.549205	-0.000010
C15	C	0.425769	-0.333634	-0.000019
C16	C	0.523842	-0.371943	-0.000012
C17	C	0.583541	-0.498893	-0.000008
C18	C	0.562199	-0.283305	-0.000011
C19	C	0.660261	-0.321610	-0.000010
C20	C	0.719966	-0.448553	-0.000008
C21	C	0.681604	-0.537198	-0.000006
C22	C	0.502495	-0.156353	-0.000023
C23	C	0.540852	-0.067715	-0.000023
C24	C	0.638918	-0.106023	-0.000013
C25	C	0.698623	-0.232966	-0.000012
C26	C	0.677280	-0.017378	-0.000016
C27	C	0.775343	-0.055683	-0.000014
C28	C	0.796685	-0.271271	-0.000010
C29	C	1.117036	-0.512357	-0.000003
C30	C	1.114539	-0.637324	-0.000004
C31	C	1.109944	-0.866104	-0.000021
C32	C	1.112497	-0.738792	-0.000012
C33	C	1.283050	-0.381528	-0.000012
C34	C	1.387413	-0.422281	-0.000019
C35	C	1.105422	-0.092559	-0.000019
C36	C	1.107917	0.032410	-0.000024
N37	N	1.171536	-0.400551	0.237415
N38	N	1.050930	-0.204378	-0.237434
C39	C	0.947360	-0.035974	0.605054
C40	C	0.974069	-0.079400	0.710077
C41	C	1.101108	-0.285981	0.710044
C42	C	1.074406	-0.242574	0.605019
C43	C	0.997532	-0.117569	0.552532
C44	C	1.124579	-0.324170	0.552497
C45	C	1.097882	-0.280763	0.447481
C46	C	1.021013	-0.155762	0.394987
C47	C	0.970836	-0.074163	0.447516
C48	C	1.201457	-0.449171	0.604986
C49	C	1.251630	-0.530766	0.552464
C50	C	1.224929	-0.487364	0.447447
C51	C	1.148060	-0.362362	0.394952
C52	C	1.275107	-0.568963	0.394918
C53	C	1.248410	-0.525557	0.289902
C54	C	1.121363	-0.318956	0.289937
H55	H	0.799811	-0.479734	-0.000020
N56	N	1.042839	-0.191258	0.236327
N57	N	1.047635	-0.091943	0.248054
H58	H	0.992182	-0.001758	0.210192
H59	H	0.377148	-0.230269	-0.000027
H60	H	1.289267	-0.592000	0.247138
H61	H	0.422646	-0.125168	-0.000028
N62	N	1.179638	-0.413666	0.763642
N63	N	1.263539	-0.442990	0.751880
H64	H	1.319002	-0.533171	0.789729
H65	H	0.806575	0.016492	-0.000004
N66	N	0.993718	-0.111402	0.287716
N67	N	0.925078	0.000207	0.240866
H68	H	0.905799	0.031538	0.165105
H69	H	0.933206	-0.012943	0.752835
H70	H	1.337705	-0.670739	0.437666
H71	H	0.884754	0.065813	0.562317
H72	H	1.223194	-0.484505	0.690497
N73	N	0.742615	-0.666876	0.000015
N74	N	0.817578	-0.741340	0.070344
H75	H	0.860670	-0.832920	0.070359
H76	H	1.314224	-0.632545	0.595211
N77	N	0.857687	-0.400960	0.000026
N78	N	0.871749	-0.497907	0.070364
H79	H	0.914834	-0.589497	0.070393
N80	N	0.606186	-0.717221	0.000028
N81	N	0.620248	-0.814168	0.070366
H82	H	0.663333	-0.905758	0.070395
N83	N	0.407948	-0.639770	-0.000015
N84	N	0.461264	-0.753108	-0.000014
H85	H	0.433604	-0.817068	-0.000020
N86	N	0.479851	0.061955	-0.000039
N87	N	0.392296	0.096146	-0.000048
H88	H	0.349213	0.187729	-0.000060
N89	N	0.616279	0.112286	-0.000018
N90	N	0.577027	0.128659	0.070299
H91	H	0.533943	0.220235	0.070297
N92	N	0.892299	0.053526	0.393908
N93	N	0.847500	0.126369	0.440811
H94	H	0.792036	0.216547	0.402952
