data_functionalizedCrystal
_audit_creation_method	'MofGen! by Chris Wilmer'
_symmetry_space_group_name_H-M	'P1'
_symmetry_Int_Tables_number	1
_symmetry_cell_setting	triclinic
loop_
_symmetry_equiv_pos_as_xyz
  x,y,z
_cell_length_a	23.096457
_cell_length_b	23.096457
_cell_length_c	18.760492
_cell_angle_alpha	59.999917
_cell_angle_beta	89.995669
_cell_angle_gamma	59.996769
loop_
_atom_site_label
_atom_site_type_symbol
_atom_site_fract_x
_atom_site_fract_y
_atom_site_fract_z
Zr1	Zr	0.557766	0.633738	-0.093542
O2	O	0.465317	0.754530	-0.207353
O3	O	0.586108	0.512947	-0.058655
O4	O	0.586111	0.633737	-0.207359
O5	O	0.465310	0.633740	0.058654
O6	O	0.681393	0.633735	-0.207362
O7	O	0.465314	0.633740	-0.058649
O8	O	0.681388	0.417664	0.058643
O9	O	0.465315	0.849811	-0.207351
O10	O	0.669302	0.562628	-0.043775
O11	O	0.598191	0.562630	0.043768
O12	O	0.598194	0.704844	-0.131312
O13	O	0.527083	0.704846	-0.043768
Zr14	Zr	0.709724	0.633734	0.093538
Zr15	Zr	0.709730	0.633734	-0.093546
Zr16	Zr	0.557759	0.633738	0.093542
Zr17	Zr	0.557763	0.785701	-0.093539
Zr18	Zr	0.709727	0.481772	0.093535
O19	O	0.681381	0.754525	0.058651
O20	O	0.681391	0.754525	-0.207359
O21	O	0.465308	0.754530	0.058657
O22	O	0.802173	0.512942	0.207349
O23	O	0.802182	0.512942	-0.058660
O24	O	0.586099	0.512947	0.207355
O25	O	0.802179	0.633732	-0.058658
O26	O	0.681379	0.633735	0.207355
O27	O	0.586096	0.633738	0.207358
O28	O	0.802175	0.633732	0.058645
O29	O	0.586106	0.849808	-0.207354
O30	O	0.681383	0.417664	0.207350
O31	O	0.802175	0.417661	0.207347
O32	O	0.802180	0.417661	0.058640
O33	O	0.465310	0.849811	-0.058644
O34	O	0.586101	0.849809	-0.058647
O35	O	0.669296	0.562628	0.131308
O36	O	0.740407	0.562626	0.043765
O37	O	0.669299	0.704843	-0.043772
O38	O	0.598188	0.704844	0.043772
C39	C	0.633749	0.443654	-0.000006
C40	C	0.633750	0.379142	-0.000008
C41	C	0.670865	-0.081377	-0.045684
C42	C	0.670864	-0.020757	-0.045692
C43	C	0.633745	0.009557	0.000005
C44	C	0.596611	-0.020740	0.045695
C45	C	0.596608	-0.081353	0.045695
N46	N	0.638896	0.071950	0.074371
N47	N	0.638902	0.129529	0.074370
C48	C	0.633751	0.192182	0.000007
N49	N	0.628606	0.195074	-0.074352
N50	N	0.628604	0.137487	-0.074349
C51	C	0.633744	0.075282	0.000010
C52	C	0.670877	0.288207	-0.045693
C53	C	0.670870	0.348832	-0.045704
C54	C	0.596622	0.348842	0.045692
C55	C	0.596624	0.288224	0.045694
C56	C	0.633755	0.257907	0.000003
C57	C	0.443661	0.633741	0.000003
C58	C	0.379148	0.633742	0.000005
C59	C	0.348847	0.633748	-0.064622
C60	C	0.288235	0.633741	-0.064622
C61	C	0.257917	0.633744	-0.000001
C62	C	0.288228	0.633733	0.064637
C63	C	0.348843	0.633732	0.064640
N64	N	0.139564	0.680100	0.019563
N65	N	0.081981	0.680103	0.019555
C66	C	0.075288	0.633744	-0.000006
N67	N	0.128348	0.587393	-0.019575
N68	N	0.185935	0.587395	-0.019571
C69	C	0.192191	0.633744	0.000003
C70	C	-0.020735	0.633741	-0.064637
C71	C	-0.081345	0.633728	-0.064631
C72	C	-0.081356	0.633729	0.064625
C73	C	-0.020742	0.633733	0.064623
C74	C	0.009563	0.633743	-0.000013
C75	C	0.823829	0.633732	-0.000007
C76	C	0.888342	0.633730	-0.000009
C77	C	0.633753	0.633736	-0.234016
C78	C	0.633756	0.633736	-0.313438
C79	C	0.633741	0.823818	0.000003
C80	C	0.633740	0.888330	0.000004
C81	C	0.670855	0.559498	-0.603559
C82	C	0.596617	0.707974	-0.694944
C83	C	0.596622	0.707975	-0.620323
C84	C	0.633743	0.633737	-0.537316
C85	C	0.670859	0.559497	-0.528930
C86	C	0.559500	0.782214	-0.628703
C87	C	0.559503	0.782218	-0.554080
C88	C	0.596628	0.707979	-0.471071
C89	C	0.633747	0.633736	-0.462687
C90	C	0.670868	0.559497	-0.379680
C91	C	0.707991	0.485253	-0.371295
C92	C	0.707985	0.485257	-0.445921
C93	C	0.596635	0.707975	-0.396445
C94	C	0.670872	0.559496	-0.305051
C95	C	0.633737	0.633736	0.234012
C96	C	0.633734	0.633737	0.313434
C97	C	0.823833	0.443650	-0.000011
C98	C	0.888347	0.379136	-0.000014
C99	C	0.633741	0.443654	0.234008
C100	C	0.633739	0.379142	0.313428
C101	C	0.823825	0.443650	0.234003
C102	C	0.888336	0.379136	0.313422
C103	C	0.443665	0.823823	-0.234006
C104	C	0.379154	0.888336	-0.313425
C105	C	0.443657	0.823823	0.000007
C106	C	0.379143	0.888336	0.000011
C107	C	0.633749	0.823818	-0.234011
C108	C	0.633751	0.888330	-0.313432
C109	C	0.881528	0.348840	-0.045719
C110	C	0.942140	0.288231	-0.045739
C111	C	1.009571	0.257915	-0.000050
C112	C	1.016389	0.288216	0.045656
C113	C	0.955777	0.348828	0.045671
C114	C	0.670855	0.348846	0.396428
C115	C	0.670851	0.288239	0.471059
C116	C	0.633735	0.257924	0.462689
C117	C	0.596615	0.288227	0.379681
C118	C	0.596615	0.348837	0.305051
C119	C	0.955757	0.348839	0.305021
C120	C	1.016378	0.288230	0.379636
C121	C	1.009577	0.257915	0.462652
C122	C	0.942149	0.288219	0.471051
C123	C	0.881529	0.348830	0.396436
C124	C	0.311733	0.918641	-0.305025
C125	C	0.251111	0.979268	-0.379640
C126	C	0.257913	1.009586	-0.462655
C127	C	0.325341	0.979279	-0.471055
C128	C	0.385960	0.918657	-0.396440
C129	C	0.385962	0.918638	0.045707
C130	C	0.325350	0.979264	0.045707
C131	C	0.257919	1.009583	0.000015
C132	C	0.251101	0.979278	-0.045687
C133	C	0.311712	0.918658	-0.045692
C134	C	0.670873	0.918625	-0.305034
C135	C	0.670889	0.979233	-0.379651
C136	C	0.633776	1.009549	-0.462665
C137	C	0.596652	0.979248	-0.471062
C138	C	0.596642	0.918637	-0.396445
H139	H	0.373521	0.633753	-0.117251
O140	O	0.633618	0.199146	0.535162
C141	C	0.563385	0.228752	0.535034
H142	H	0.529172	0.298543	0.492830
H143	H	0.562643	0.204946	0.604649
H144	H	0.541548	0.206708	0.507521
O145	O	0.560670	0.378242	0.224381
C146	C	0.608331	0.363397	0.178494
H147	H	0.657181	0.355865	0.206976
H148	H	0.581405	0.417224	0.106673
H149	H	0.624946	0.305100	0.184727
H150	H	0.003943	0.633745	-0.117265
H151	H	0.306150	0.893988	-0.082901
O152	O	0.185603	1.008824	-0.371514
C153	C	0.148308	1.093761	-0.411938
H154	H	0.187635	1.110357	-0.415386
H155	H	0.114801	1.111170	-0.372346
H156	H	0.112330	1.128438	-0.480767
O157	O	0.815985	0.378367	0.404448
C158	C	0.763930	0.438349	0.320798
H159	H	0.787535	0.464877	0.271317
H160	H	0.717185	0.489333	0.321639
H161	H	0.744977	0.409343	0.301795
O162	O	0.560458	0.258894	0.371519
C163	C	0.488000	0.323563	0.325472
H164	H	0.474841	0.375103	0.331672
H165	H	0.454437	0.300424	0.353844
H166	H	0.476129	0.347453	0.253669
O167	O	0.706978	0.258869	0.551621
C168	C	0.739728	0.298633	0.542995
H169	H	0.747071	0.323603	0.476399
H170	H	0.793650	0.253164	0.596507
H171	H	0.704947	0.351285	0.549106
O172	O	0.633836	1.068454	-0.535053
C173	C	0.674576	1.088672	-0.509829
H174	H	0.677356	1.071964	-0.440946
H175	H	0.648882	1.157182	-0.556964
H176	H	0.730432	1.053223	-0.511180
H177	H	0.961308	0.373512	0.237432
O178	O	0.962368	0.378373	0.089944
C179	C	0.929516	0.463314	0.031311
H180	H	0.926711	0.479930	-0.037545
H181	H	0.961667	0.480725	0.051134
H182	H	0.873608	0.497974	0.032932
O183	O	0.258863	0.633785	-0.127491
C184	C	0.298622	0.633768	-0.184523
H185	H	0.328940	0.659548	-0.181445
H186	H	0.261338	0.673312	-0.254058
H187	H	0.337736	0.568434	-0.164185
H188	H	0.936574	0.263567	-0.082958
O189	O	1.081819	0.258860	0.371310
C190	C	1.074815	0.298625	0.282037
H191	H	1.020721	0.323596	0.242260
H192	H	1.118284	0.253155	0.271627
H193	H	1.079777	0.351275	0.260036
O194	O	1.068520	0.199111	0.535062
C195	C	1.109117	0.228750	0.534922
H196	H	1.095843	0.280320	0.465234
H197	H	1.167919	0.176988	0.562355
H198	H	1.096419	0.252906	0.577062
H199	H	0.936622	0.263527	0.538652
H200	H	0.263541	0.633734	0.117254
H201	H	0.306181	0.893959	-0.237436
O202	O	0.560619	0.780012	-0.775637
C203	C	0.568556	0.764093	-0.839704
H204	H	0.618687	0.700291	-0.810629
H205	H	0.572805	0.811504	-0.897256
H206	H	0.520595	0.767612	-0.863036
H207	H	0.566409	0.893978	-0.403296
H208	H	0.701098	-0.106057	-0.082890
O209	O	0.560511	0.378423	0.089953
C210	C	0.508407	0.463356	0.031282
H211	H	0.524013	0.489059	-0.028861
H212	H	0.503909	0.494767	0.064429
H213	H	0.455166	0.474921	0.010836
O214	O	1.081857	0.258738	0.090173
C215	C	1.089634	0.223643	0.179378
H216	H	1.035070	0.251041	0.186859
H217	H	1.121538	0.236902	0.207391
H218	H	1.118584	0.154609	0.216018
H219	H	0.208547	1.058949	-0.523404
O220	O	0.378168	0.633771	0.127458
C221	C	0.338427	0.633749	0.184512
H222	H	0.282329	0.659526	0.149699
H223	H	0.336163	0.673292	0.205370
H224	H	0.364651	0.568413	0.244601
O225	O	-0.110710	0.633770	-0.127499
C226	C	-0.070951	0.633759	-0.184531
H227	H	-0.040637	0.659543	-0.181451
H228	H	-0.108233	0.673303	-0.254067
H229	H	-0.031833	0.568426	-0.164194
H230	H	0.208571	1.058944	0.000026
O231	O	0.706997	0.008557	-0.090083
C232	C	0.739753	-0.031183	-0.130429
H233	H	0.747092	-0.092617	-0.094595
H234	H	0.793677	-0.041640	-0.127955
H235	H	0.704978	0.008572	-0.201360
H236	H	0.738209	0.424812	-0.439102
O237	O	0.706878	0.889321	-0.224446
C238	C	0.679581	0.954002	-0.214869
H239	H	0.652400	1.014641	-0.282042
H240	H	0.724759	0.944853	-0.175621
H241	H	0.639512	0.954814	-0.179199
O242	O	0.560610	1.008821	-0.551770
C243	C	0.568597	1.068802	-0.615817
H244	H	0.582275	1.095290	-0.586713
H245	H	0.516936	1.119813	-0.673362
H246	H	0.613036	1.039805	-0.639165
O247	O	0.331815	1.008794	-0.551764
C248	C	0.263848	1.068809	-0.615809
H249	H	0.223678	1.058851	-0.586706
H250	H	0.264501	1.063894	-0.673358
H251	H	0.248407	1.132209	-0.639151
O252	O	-0.110897	0.633878	0.127291
C253	C	-0.181232	0.704400	0.087743
H254	H	-0.187613	0.753698	0.020725
H255	H	-0.193762	0.728077	0.130327
H256	H	-0.219196	0.688453	0.080197
H257	H	0.003928	0.633734	0.117245
H258	H	0.330915	1.003928	0.082926
O259	O	0.451399	0.889279	-0.404763
C260	C	0.444393	0.929057	-0.494036
H261	H	0.390294	0.954043	-0.533819
H262	H	0.487855	0.883592	-0.504458
H263	H	0.449366	0.981698	-0.516022
H264	H	0.440862	0.893957	0.082921
O265	O	0.560505	0.008844	0.089959
C266	C	0.508404	0.093779	0.031291
H267	H	0.524011	0.119480	-0.028852
H268	H	0.503912	0.125186	0.064441
H269	H	0.455160	0.105350	0.010844
O270	O	0.185543	1.008795	-0.089989
C271	C	0.133517	1.068807	-0.080192
H272	H	0.157154	1.058847	-0.018478
H273	H	0.086771	1.063893	-0.074941
H274	H	0.114555	1.132208	-0.139232
H275	H	0.701118	1.003897	-0.372797
H276	H	0.701109	0.263525	-0.082901
O277	O	0.706997	0.378146	-0.090103
C278	C	0.739753	0.338401	-0.130445
H279	H	0.747098	0.276963	-0.094601
H280	H	0.793674	0.327950	-0.127981
H281	H	0.704974	0.378149	-0.201372
O282	O	0.560546	-0.110732	0.090172
C283	C	0.527770	-0.070969	0.130491
H284	H	0.556875	-0.045979	0.139522
H285	H	0.529780	-0.116445	0.196878
H286	H	0.470153	-0.018332	0.087679
O287	O	0.560543	0.258864	0.090145
C288	C	0.527758	0.298638	0.130451
H289	H	0.556881	0.323597	0.139519
H290	H	0.529731	0.253179	0.196820
H291	H	0.470152	0.351298	0.087610
H292	H	0.701104	0.499041	-0.237466
H293	H	0.738211	0.424808	-0.303701
H294	H	0.701082	0.499050	-0.596736
H295	H	0.529276	0.842672	-0.560917
O296	O	0.523495	0.854375	-0.709287
C297	C	0.550798	0.899531	-0.718868
H298	H	0.577975	0.878429	-0.651696
H299	H	0.505623	0.967446	-0.758124
H300	H	0.590871	0.889233	-0.754530
H301	H	0.566404	0.768423	-0.403275
H302	H	0.826627	0.373524	-0.082935
H303	H	0.701079	0.373521	0.403260
O304	O	1.068372	0.199006	-0.000122
C305	C	1.047885	0.178786	-0.050278
H306	H	0.991931	0.195499	-0.053704
H307	H	1.086172	0.110276	-0.018646
H308	H	1.048984	0.214232	-0.119041
