data_functionalizedCrystal
_audit_creation_method	'MofGen! by Chris Wilmer'
_symmetry_space_group_name_H-M	'P1'
_symmetry_Int_Tables_number	1
_symmetry_cell_setting	triclinic
loop_
_symmetry_equiv_pos_as_xyz
  x,y,z
_cell_length_a	21.395362
_cell_length_b	15.297327
_cell_length_c	21.395356
_cell_angle_alpha	99.651288
_cell_angle_beta	89.964230
_cell_angle_gamma	99.725883
loop_
_atom_site_label
_atom_site_type_symbol
_atom_site_fract_x
_atom_site_fract_y
_atom_site_fract_z
Zn1	Zn	0.914695	-0.358847	-0.397684
Zn2	Zn	0.896486	-0.509718	-0.311027
Zn3	Zn	0.809918	-0.358908	-0.292893
Zn4	Zn	0.791753	-0.509718	-0.415732
O5	O	0.853213	-0.434298	-0.354334
O6	O	0.999960	-0.378835	-0.386225
O7	O	0.884984	-0.489738	-0.220947
O8	O	0.839039	-0.232645	-0.291652
O9	O	0.986582	-0.489680	-0.322559
O10	O	0.916019	-0.232600	-0.368641
O11	O	0.821383	-0.378938	-0.207624
O12	O	0.719827	-0.378938	-0.309151
O13	O	0.808080	-0.489679	-0.501013
O14	O	0.706481	-0.489738	-0.399401
O15	O	0.898405	-0.378835	-0.487753
O16	O	0.867370	-0.635973	-0.340058
O17	O	0.790423	-0.635973	-0.416984
C18	C	0.690419	-0.434346	-0.354267
C19	C	0.620773	-0.434388	-0.354256
C20	C	0.581118	-0.492158	-0.401198
C21	C	0.515685	-0.492136	-0.401223
C22	C	0.489909	-0.434353	-0.354296
C23	C	0.529573	-0.376572	-0.307350
C24	C	0.595005	-0.376589	-0.307330
C25	C	0.387064	-0.427095	-0.297019
C26	C	0.321633	-0.427084	-0.297039
C27	C	0.288095	-0.434294	-0.354358
C28	C	0.319995	-0.441534	-0.411662
C29	C	0.385427	-0.441552	-0.411641
C30	C	0.418960	-0.434327	-0.354313
C31	C	0.177490	-0.492043	-0.401331
C32	C	0.112057	-0.492015	-0.401357
C33	C	0.125946	-0.376456	-0.307479
C34	C	0.191378	-0.376479	-0.307459
C35	C	0.217146	-0.434278	-0.354385
C36	C	0.824966	-0.668710	-0.382461
C37	C	0.812940	-0.768992	-0.394515
C38	C	0.939427	-1.051546	-0.268396
C39	C	0.950726	-0.957326	-0.257068
C40	C	0.916281	-0.910238	-0.291429
C41	C	0.870534	-0.957380	-0.337120
C42	C	0.859230	-1.051609	-0.348446
C43	C	0.836084	-0.910301	-0.371479
C44	C	0.790337	-0.957442	-0.417170
C45	C	0.779035	-1.051662	-0.428494
C46	C	0.813481	-1.098751	-0.394133
C47	C	0.847388	-0.816071	-0.360153
C48	C	0.767191	-0.816134	-0.440202
C49	C	0.755891	-0.910354	-0.451531
C50	C	1.016642	-0.434251	-0.354402
C51	C	1.086285	-0.434230	-0.354430
C52	C	0.853247	-0.434250	-0.517752
C53	C	0.853262	-0.434230	-0.587390
C54	C	0.881586	-0.198970	-0.326111
C55	C	0.893678	-0.098688	-0.314083
C56	C	0.886472	-0.491735	-1.096102
C57	C	0.886457	-0.491763	-1.030670
C58	C	0.853339	-0.434087	-0.991012
C59	C	0.820219	-0.376394	-1.016793
C60	C	0.820229	-0.376374	-1.082224
C61	C	0.858175	-0.352835	-0.877596
C62	C	0.858170	-0.352854	-0.812166
C63	C	0.853303	-0.434151	-0.789199
C64	C	0.848455	-0.515432	-0.831671
C65	C	0.848465	-0.515411	-0.897103
C66	C	0.853323	-0.434103	-0.920061
C67	C	0.886401	-0.491876	-0.692477
C68	C	0.886382	-0.491906	-0.627044
C69	C	0.820148	-0.376529	-0.613167
C70	C	0.820163	-0.376507	-0.678600
C71	C	0.853293	-0.434179	-0.718251
C72	C	0.853222	-0.434280	-0.191544
C73	C	0.853360	-0.434046	-0.121875
H74	H	0.602094	-0.539221	-0.439409
H75	H	0.844516	-0.581593	-0.931681
O76	O	0.801292	-1.200378	-0.406356
H77	H	0.751051	-1.225309	-0.396636
O78	O	0.283829	-0.449296	-0.473486
H79	H	0.303352	-0.391989	-0.497429
O80	O	0.205292	-0.554366	-0.451947
H81	H	0.166723	-0.594524	-0.484602
O82	O	0.637778	-0.314277	-0.256694
H83	H	0.687607	-0.323995	-0.264566
H84	H	0.913432	-0.538730	-1.009680
H85	H	0.844493	-0.581632	-0.812974
O86	O	0.069266	-0.554445	-0.451921
H87	H	0.098174	-0.594686	-0.484516
H88	H	0.295664	-0.421194	-0.250380
O89	O	0.729689	-1.102514	-0.477768
H90	H	0.742583	-1.084380	-0.524777
H91	H	0.718644	-0.948750	-0.488733
H92	H	0.739141	-0.777795	-0.468181
H93	H	0.967463	-1.089894	-0.240421
O94	O	0.922183	-0.553960	-1.138873
H95	H	0.945196	-0.594092	-1.109955
H96	H	0.913376	-0.538838	-0.724763
O97	O	0.472897	-0.554481	-0.451834
H98	H	0.501807	-0.594689	-0.484452
O99	O	0.423235	-0.419319	-0.235193
H100	H	0.390061	-0.414297	-0.195353
O101	O	0.501775	-0.314266	-0.256723
H102	H	0.449612	-0.323973	-0.264615
O103	O	0.784427	-0.314316	-0.570403
H104	H	0.789985	-0.324017	-0.520573
O105	O	0.098154	-0.314137	-0.256858
H106	H	0.045992	-0.323836	-0.264754
O107	O	0.234153	-0.314194	-0.256815
H108	H	0.205237	-0.274019	-0.224181
H109	H	0.884635	-0.777697	-0.322950
H110	H	0.925483	-0.833520	-0.282202
O111	O	0.922106	-0.554119	-0.599240
H112	H	0.945152	-0.594205	-0.637805
O113	O	1.000069	-0.906480	-0.207797
H114	H	1.022128	-0.955050	-0.185811
O115	O	0.784459	-0.314273	-0.706403
H116	H	0.761431	-0.274164	-0.667835
O117	O	0.863409	-0.265192	-0.766358
H118	H	0.866785	-0.208659	-0.793319
H119	H	0.862181	-0.286623	-0.896288
H120	H	0.793265	-0.329395	-1.103207
O121	O	0.419839	-0.449342	-0.473439
H122	H	0.385532	-0.454344	-0.513303
O123	O	0.784501	-0.314179	-0.974023
H124	H	0.790063	-0.323876	-0.924193
