data_functionalizedCrystal
_audit_creation_method	'MofGen! by Chris Wilmer'
_symmetry_space_group_name_H-M	'P1'
_symmetry_Int_Tables_number	1
_symmetry_cell_setting	triclinic
loop_
_symmetry_equiv_pos_as_xyz
  x,y,z
_cell_length_a	21.295411
_cell_length_b	21.395362
_cell_length_c	21.395361
_cell_angle_alpha	90.046585
_cell_angle_beta	90.021703
_cell_angle_gamma	90.043935
loop_
_atom_site_label
_atom_site_type_symbol
_atom_site_fract_x
_atom_site_fract_y
_atom_site_fract_z
Zn1	Zn	-0.356237	-0.957859	0.249244
Zn2	Zn	0.143763	-0.457859	0.749244
Zn3	Zn	-0.250962	-0.957762	0.354005
Zn4	Zn	0.249038	-0.457762	0.854005
Zn5	Zn	-0.250946	-0.853074	0.249274
Zn6	Zn	0.249054	-0.353074	0.749274
Zn7	Zn	-0.356158	-0.853044	0.354017
Zn8	Zn	0.143842	-0.353044	0.854017
O9	O	-0.303576	-0.905435	0.301635
O10	O	0.196424	-0.405435	0.801635
O11	O	-0.342311	-1.045524	0.263123
O12	O	0.157689	-0.545524	0.763123
O13	O	-0.162870	-0.943847	0.340119
O14	O	0.337130	-0.443847	0.840119
O15	O	-0.264939	-0.867028	0.161592
O16	O	0.235061	-0.367028	0.661592
O17	O	-0.264966	-1.045453	0.340090
O18	O	0.235034	-0.545453	0.840090
O19	O	-0.342296	-0.944013	0.161570
O20	O	0.157704	-0.444013	0.661570
O21	O	-0.162859	-0.866934	0.263174
O22	O	0.337141	-0.366934	0.763174
O23	O	-0.264863	-0.765392	0.263186
O24	O	0.235137	-0.265392	0.763186
O25	O	-0.444258	-0.866976	0.340112
O26	O	0.055742	-0.366976	0.840112
O27	O	-0.342162	-0.765370	0.340140
O28	O	0.157838	-0.265370	0.840140
O29	O	-0.444316	-0.943983	0.263136
O30	O	0.055684	-0.443983	0.763136
O31	O	-0.264890	-0.943817	0.441684
O32	O	0.235110	-0.443817	0.941684
O33	O	-0.342177	-0.866881	0.441693
O34	O	0.157823	-0.366881	0.941693
C35	C	-0.303503	-0.742647	0.301668
C36	C	0.196497	-0.242647	0.801668
C37	C	-0.303486	-0.673006	0.301697
C38	C	0.196514	-0.173006	0.801697
C39	C	-0.303541	-0.905352	0.464423
C40	C	0.196459	-0.405352	0.964423
C41	C	-0.303547	-0.905374	0.534064
C42	C	0.196453	-0.405374	1.034064
C43	C	-0.467766	-0.905487	0.301622
C44	C	0.032234	-0.405487	0.801622
C45	C	-0.537734	-0.905509	0.301616
C46	C	-0.037734	-0.405509	0.801616
C47	C	-0.570632	-0.945605	0.261533
C48	C	-0.070632	-0.445605	0.761533
C49	C	-0.636374	-0.945604	0.261506
C50	C	-0.136374	-0.445604	0.761506
C51	C	-0.669217	-0.905514	0.301573
C52	C	-0.169217	-0.405514	0.801573
C53	C	-0.636311	-0.865410	0.341659
C54	C	-0.136311	-0.365410	0.841659
C55	C	-0.570570	-0.865407	0.341681
C56	C	-0.070570	-0.365407	0.841681
N57	N	-0.772430	-0.900680	0.356385
N58	N	-0.272430	-0.400680	0.856385
N59	N	-0.834882	-0.900686	0.356363
N60	N	-0.334882	-0.400686	0.856363
C61	C	-0.867292	-0.905518	0.301509
C62	C	-0.367292	-0.405518	0.801509
N63	N	-0.834891	-0.910356	0.246678
N64	N	-0.334891	-0.410356	0.746678
N65	N	-0.772433	-0.910353	0.246701
N66	N	-0.272433	-0.410353	0.746701
C67	C	-0.740502	-0.905512	0.301554
C68	C	-0.240502	-0.405512	0.801554
C69	C	-0.971475	-0.945615	0.261393
C70	C	-0.471475	-0.445615	0.761393
C71	C	-1.037219	-0.945610	0.261365
C72	C	-0.537219	-0.445610	0.761365
C73	C	-1.037154	-0.865419	0.341524
C74	C	-0.537154	-0.365419	0.841524
C75	C	-0.971412	-0.865421	0.341547
C76	C	-0.471412	-0.365421	0.841547
C77	C	-0.938576	-0.905522	0.301482
C78	C	-0.438576	-0.405522	0.801482
C79	C	-0.140024	-0.905419	0.301603
C80	C	0.359976	-0.405419	0.801603
C81	C	-0.070056	-0.905518	0.301432
C82	C	0.429944	-0.405518	0.801432
C83	C	-0.303649	-1.068858	0.301602
C84	C	0.196351	-0.568858	0.801602
C85	C	-0.303681	-1.138499	0.301588
C86	C	0.196319	-0.638499	0.801588
C87	C	-0.343676	-0.640297	0.341821
C88	C	0.156324	-0.140297	0.841821
C89	C	-0.343704	-0.574862	0.341805
C90	C	0.156296	-0.074862	0.841805
C91	C	-0.303531	-0.542138	0.301673
C92	C	0.196469	-0.042138	0.801673
C93	C	-0.263339	-0.574854	0.261542
C94	C	0.236661	-0.074854	0.761542
C95	C	-0.263317	-0.640288	0.261554
C96	C	0.236683	-0.140288	0.761554
C97	C	-0.246861	-0.438413	0.296626
C98	C	0.253139	0.061587	0.796626
C99	C	-0.246883	-0.372980	0.296618
C100	C	0.253117	0.127020	0.796618
C101	C	-0.303601	-0.340317	0.301632
C102	C	0.196399	0.159683	0.801632
C103	C	-0.360299	-0.373095	0.306667
C104	C	0.139701	0.126905	0.806667
C105	C	-0.360276	-0.438529	0.306679
C106	C	0.139724	0.061471	0.806679
C107	C	-0.303551	-0.471185	0.301655
C108	C	0.196449	0.028815	0.801655
C109	C	-0.343824	-0.236656	0.341741
C110	C	0.156176	0.263344	0.841741
C111	C	-0.343853	-0.171219	0.341721
C112	C	0.156147	0.328781	0.841721
C113	C	-0.263483	-0.171213	0.261462
C114	C	0.236517	0.328787	0.761462
C115	C	-0.263459	-0.236648	0.261478
C116	C	0.236541	0.263352	0.761478
C117	C	-0.303629	-0.269366	0.301621
C118	C	0.196371	0.230634	0.801621
C119	C	-0.303625	-0.905535	0.138212
C120	C	0.196375	-0.405535	0.638212
C121	C	-0.303646	-0.905578	0.068570
C122	C	0.196354	-0.405578	0.568570
C123	C	-0.263345	-0.945470	0.566751
C124	C	0.236655	-0.445470	1.066751
C125	C	-0.263359	-0.945499	0.632187
C126	C	0.236641	-0.445499	1.132187
C127	C	-0.303568	-0.905421	0.664932
C128	C	0.196432	-0.405421	1.164932
C129	C	-0.343778	-0.865322	0.632237
C130	C	0.156222	-0.365322	1.132237
C131	C	-0.343767	-0.865299	0.566803
C132	C	0.156233	-0.365299	1.066803
C133	C	-0.308482	-0.849006	0.768663
C134	C	0.191518	-0.349006	1.268663
C135	C	-0.308488	-0.849029	0.834096
C136	C	0.191512	-0.349029	1.334096
C137	C	-0.303605	-0.905494	0.866753
C138	C	0.196395	-0.405494	1.366753
C139	C	-0.298702	-0.961939	0.833969
C140	C	0.201298	-0.461939	1.333969
C141	C	-0.298692	-0.961915	0.768535
C142	C	0.201308	-0.461915	1.268535
C143	C	-0.303585	-0.905443	0.735885
C144	C	0.196415	-0.405443	1.235885
C145	C	-0.263416	-0.945625	0.970393
C146	C	0.236584	-0.445625	1.470393
C147	C	-0.263435	-0.945655	1.035829
C148	C	0.236565	-0.445655	1.535829
C149	C	-0.343851	-0.865473	1.035878
C150	C	0.156149	-0.365473	1.535878
C151	C	-0.343836	-0.865448	0.970443
C152	C	0.156164	-0.365448	1.470443
C153	C	-0.303615	-0.905524	0.937704
C154	C	0.196385	-0.405524	1.437704
H155	H	-0.543901	-0.978258	0.228908
H156	H	-0.043901	-0.478258	0.728908
H157	H	-0.376570	-0.832795	0.943827
H158	H	0.123430	-0.332795	1.443827
H159	H	-0.663055	-0.832766	0.374280
H160	H	-0.163055	-0.332766	0.874280
Br161	Br	-0.292043	-1.038514	0.724044
Br162	Br	0.207957	-0.538514	1.224044
Br163	Br	-0.525920	-0.810986	0.396083
Br164	Br	-0.025920	-0.310986	0.896083
Br165	Br	-0.926908	-1.000035	0.207020
Br166	Br	-0.426908	-0.500035	0.707020
Br167	Br	-0.398429	-0.811086	1.080311
Br168	Br	0.101571	-0.311086	1.580311
H169	H	-0.376535	-0.263296	0.374425
H170	H	0.123465	0.236704	0.874425
Br171	Br	-0.208824	-0.530444	0.207072
Br172	Br	0.291176	-0.030444	0.707072
Br173	Br	-0.437220	-0.483012	0.313510
Br174	Br	0.062780	0.016988	0.813510
Br175	Br	-0.398406	-0.126828	0.396174
Br176	Br	0.101594	0.373172	0.896174
Br177	Br	-0.208876	-1.000083	1.080193
Br178	Br	0.291124	-0.500083	1.580193
H179	H	-0.312474	-0.803068	0.860784
H180	H	0.187526	-0.303068	1.360784
Br181	Br	-0.315112	-0.772368	0.724350
Br182	Br	0.184888	-0.272368	1.224350
Br183	Br	-1.081867	-1.000041	0.206971
Br184	Br	-0.581867	-0.500041	0.706971
Br185	Br	-0.169880	-0.482735	0.289821
Br186	Br	0.330120	0.017265	0.789821
H187	H	-0.376386	-0.666932	0.374507
H188	H	0.123614	-0.166932	0.874507
H189	H	-1.063894	-0.832770	0.374141
H190	H	-0.563894	-0.332770	0.874141
H191	H	-0.230590	-0.666919	0.228879
H192	H	0.269410	-0.166919	0.728879
Br193	Br	-0.926761	-0.811002	0.395950
Br194	Br	-0.426761	-0.311002	0.895950
Br195	Br	-0.398354	-0.810935	0.676675
Br196	Br	0.101646	-0.310935	1.176675
Br197	Br	-0.681031	-1.000009	0.207088
Br198	Br	-0.181031	-0.500009	0.707088
H199	H	-0.294726	-1.007918	0.860557
H200	H	0.205274	-0.507918	1.360557
Br201	Br	-0.398251	-0.530462	0.396261
Br202	Br	0.101749	-0.030462	0.896261
Br203	Br	-0.208768	-0.999866	0.522323
Br204	Br	0.291232	-0.499866	1.022323
H205	H	-0.376506	-0.832647	0.540188
H206	H	0.123494	-0.332647	1.040188
H207	H	-0.230668	-0.978259	0.943736
H208	H	0.269332	-0.478259	1.443736
Br209	Br	-0.208968	-0.126808	0.206990
Br210	Br	0.291032	0.373192	0.706990
H211	H	-0.406484	-0.346502	0.310749
H212	H	0.093516	0.153498	0.810749
Br213	Br	-0.208913	-0.281041	0.207022
Br214	Br	0.291087	0.218959	0.707022
Br215	Br	-0.169937	-0.328502	0.289787
Br216	Br	0.330063	0.171498	0.789787
H217	H	-0.230621	-0.978153	0.658806
H218	H	0.269379	-0.478153	1.158806
