data_functionalizedCrystal
_audit_creation_method	'MofGen! by Chris Wilmer'
_symmetry_space_group_name_H-M	'P1'
_symmetry_Int_Tables_number	1
_symmetry_cell_setting	triclinic
loop_
_symmetry_equiv_pos_as_xyz
  x,y,z
_cell_length_a	14.519731
_cell_length_b	14.519709
_cell_length_c	9.198806
_cell_angle_alpha	89.995869
_cell_angle_beta	89.995963
_cell_angle_gamma	83.684499
loop_
_atom_site_label
_atom_site_type_symbol
_atom_site_fract_x
_atom_site_fract_y
_atom_site_fract_z
O1	O	1.223855	0.120983	-0.120899
O2	O	1.723855	0.620983	0.379101
O3	O	0.955381	0.135199	-0.120901
O4	O	1.455381	0.635199	0.379099
O5	O	1.096736	-0.006147	-0.120887
O6	O	1.596736	0.493853	0.379113
O7	O	1.082500	0.262329	-0.120913
O8	O	1.582500	0.762329	0.379087
O9	O	1.096725	-0.006147	0.120898
O10	O	1.596725	0.493853	0.620898
O11	O	0.955369	0.135198	0.120884
O12	O	1.455369	0.635198	0.620884
O13	O	1.223844	0.120982	0.120886
O14	O	1.723844	0.620982	0.620886
Cu15	Cu	1.089606	0.128090	0.142962
Cu16	Cu	1.589606	0.628090	0.642962
Cu17	Cu	1.089619	0.128091	-0.142977
Cu18	Cu	1.589619	0.628091	0.357023
O19	O	1.082488	0.262328	0.120872
O20	O	1.582488	0.762328	0.620872
C21	C	0.921016	0.134532	-0.000009
C22	C	1.421016	0.634532	0.499991
C23	C	0.818635	0.132536	-0.000010
C24	C	1.318635	0.632536	0.499990
C25	C	1.096067	-0.040507	0.000006
C26	C	1.596067	0.459493	0.500006
C27	C	1.094079	-0.142889	0.000007
C28	C	1.594079	0.357111	0.500007
C29	C	0.735491	0.130915	-0.000015
C30	C	1.235491	0.630915	0.499985
C31	C	0.631182	0.128888	-0.000016
C32	C	1.131182	0.628888	0.499984
C33	C	0.548043	0.127280	-0.000015
C34	C	1.048043	0.627280	0.499985
C35	C	0.443728	0.125253	-0.000018
C36	C	0.943728	0.625253	0.499982
C37	C	1.086759	-0.517785	-0.000031
C38	C	1.586759	-0.017785	0.499969
C39	C	1.088792	-0.413477	-0.000020
C40	C	1.588792	0.086523	0.499980
C41	C	1.090419	-0.330340	-0.000011
C42	C	1.590419	0.169660	0.499989
C43	C	1.092452	-0.226025	-0.000003
C44	C	1.592452	0.273975	0.499997
C45	C	1.258209	0.121649	-0.000009
C46	C	1.758209	0.621649	0.499991
C47	C	1.360589	0.123645	-0.000018
C48	C	1.860589	0.623645	0.499982
C49	C	1.083157	0.296688	-0.000024
C50	C	1.583157	0.796688	0.499976
C51	C	1.085146	0.399070	-0.000034
C52	C	1.585146	0.899070	0.499966
N53	N	1.089603	0.128090	0.344076
N54	N	1.589603	0.628090	0.844076
N55	N	1.089629	0.128084	-0.344091
N56	N	1.589629	0.628084	0.155909
C57	C	1.148956	0.068483	0.416279
C58	C	1.648956	0.568483	0.916279
C59	C	1.148970	0.068479	0.583691
C60	C	1.648970	0.568479	1.083691
H61	H	1.199757	0.017449	0.354158
H62	H	1.699757	0.517449	0.854158
H63	H	1.038815	0.179122	0.593827
H64	H	1.538815	0.679122	1.093827
H65	H	1.038796	0.179116	0.406199
H66	H	1.538796	0.679116	0.906199
F67	F	1.215395	0.001779	0.664846
F68	F	1.715395	0.501779	1.164846
