data_functionalizedCrystal
_audit_creation_method	'MofGen! by Chris Wilmer'
_symmetry_space_group_name_H-M	'P1'
_symmetry_Int_Tables_number	1
_symmetry_cell_setting	triclinic
loop_
_symmetry_equiv_pos_as_xyz
  x,y,z
_cell_length_a	14.519709
_cell_length_b	16.992695
_cell_length_c	16.053791
_cell_angle_alpha	92.721312
_cell_angle_beta	92.878828
_cell_angle_gamma	87.174184
loop_
_atom_site_label
_atom_site_type_symbol
_atom_site_fract_x
_atom_site_fract_y
_atom_site_fract_z
O1	O	-1.234925	-0.105743	-0.069321
O2	O	-0.967318	-0.117850	-0.069347
O3	O	-1.100048	0.002348	-0.069327
O4	O	-1.102195	-0.225941	-0.069340
O5	O	-1.092663	0.008258	0.069532
O6	O	-0.959932	-0.111940	0.069512
O7	O	-1.227539	-0.099833	0.069538
Zn8	Zn	-1.092563	-0.104948	0.091572
Zn9	Zn	-1.102294	-0.112735	-0.091381
O10	O	-1.094809	-0.220031	0.069519
C11	C	-1.093595	0.034519	0.000102
C12	C	-1.085360	0.121575	0.000101
C13	C	-0.929225	-0.114331	0.000080
C14	C	-0.826723	-0.112641	0.000070
C15	C	-1.265632	-0.103353	0.000110
C16	C	-1.368135	-0.105043	0.000114
C17	C	-0.451379	-0.106415	0.000108
C18	C	-0.555811	-0.108144	0.000097
C19	C	-0.639048	-0.109528	0.000088
C20	C	-0.743487	-0.111257	0.000079
C21	C	-1.101262	-0.252203	0.000088
C22	C	-1.109498	-0.339258	0.000083
N23	N	-1.085929	-0.099633	0.216432
C24	C	-1.164820	0.171704	0.000109
C25	C	-1.157077	0.253501	0.000101
C26	C	-1.069873	0.285168	0.000089
C27	C	-0.990408	0.235032	0.000079
C28	C	-0.998152	0.153236	0.000081
C29	C	-1.037777	0.528810	0.000075
C30	C	-1.030038	0.610612	0.000075
C31	C	-1.196708	0.629076	0.000095
C32	C	-1.204444	0.547278	0.000103
C33	C	-1.124979	0.497149	0.000088
N34	N	-1.061956	0.368777	0.000083
N35	N	-1.132897	0.413541	0.000088
C36	C	-1.143051	-0.145443	0.260126
C37	C	-1.138422	-0.141720	0.347532
C38	C	-1.076666	-0.092191	0.391245
C39	C	-1.019542	-0.046376	0.347545
C40	C	-1.024176	-0.050095	0.260140
C41	C	-1.056437	-0.075952	0.652654
C42	C	-1.051806	-0.072238	0.740066
C43	C	-1.170688	-0.167581	0.740047
C44	C	-1.175313	-0.171299	0.652640
C45	C	-1.118192	-0.125482	0.608948
N46	N	-1.071931	-0.088386	0.480588
N47	N	-1.122932	-0.129283	0.519606
N48	N	-1.108928	-0.118048	0.783759
H49	H	-1.235830	0.145929	0.000123
H50	H	-1.009926	-0.038643	0.617091
O51	O	-1.289113	0.516426	-0.000003
C52	C	-1.302416	0.466615	-0.071928
H53	H	-1.232500	0.445318	-0.095910
H54	H	-1.342275	0.413696	-0.055749
H55	H	-1.343232	0.500551	-0.122284
O56	O	-1.202992	-0.193665	0.217760
C57	C	-1.182152	-0.272307	0.239099
H58	H	-1.143263	-0.272904	0.302562
H59	H	-1.248934	-0.304419	0.242085
H60	H	-1.137409	-0.303190	0.189906
O61	O	-0.959574	0.001670	0.390132
C62	C	-0.967696	-0.004894	0.476648
H63	H	-0.997699	-0.063848	0.488567
H64	H	-0.896647	-0.001367	0.509842
H65	H	-1.015307	0.045223	0.501496
O66	O	-0.968591	-0.005571	0.217823
C67	C	-0.913105	0.038956	0.275145
H68	H	-0.906807	0.009154	0.337448
H69	H	-0.841561	0.042887	0.249893
H70	H	-0.946077	0.100834	0.284445
H71	H	-1.261404	0.669899	0.000106
O72	O	-1.234355	0.302087	0.000152
C73	C	-1.312984	0.256597	0.000149
H74	H	-1.292670	0.196704	0.026436
H75	H	-1.366880	0.288406	0.040473
H76	H	-1.342982	0.247896	-0.066464
H77	H	-0.959022	0.636392	0.000079
H78	H	-1.184939	-0.179022	0.383103
O79	O	-0.960491	0.480236	0.000108
C80	C	-0.881867	0.525728	0.000083
H81	H	-0.899386	0.587863	0.026370
H82	H	-0.823678	0.497360	0.040397
H83	H	-0.858958	0.528748	-0.066535
O84	O	-0.905766	0.265922	0.000104
C85	C	-0.915968	0.348866	0.000086
H86	H	-0.985130	0.369094	0.026382
H87	H	-0.857660	0.375772	0.040395
H88	H	-0.913364	0.368802	-0.066532
O89	O	-0.991837	-0.024186	0.782654
C90	C	-1.000006	-0.030714	0.869170
H91	H	-1.030034	-0.089654	0.881101
H92	H	-0.928971	-0.027189	0.902390
H93	H	-1.047617	0.019423	0.893979
O94	O	-1.235172	-0.219510	0.610149
C95	C	-1.185547	-0.275050	0.559580
H96	H	-1.111378	-0.282197	0.585924
H97	H	-1.219412	-0.334226	0.558591
H98	H	-1.185722	-0.253642	0.493336
O99	O	-1.226216	-0.212157	0.782360
C100	C	-1.281736	-0.256652	0.725035
H101	H	-1.247192	-0.263809	0.662733
H102	H	-1.290665	-0.317253	0.750283
H103	H	-1.352242	-0.224875	0.715736
O104	O	-0.920869	0.104651	0.000110
C105	C	-0.842241	0.150137	0.000078
H106	H	-0.859750	0.212271	0.026372
H107	H	-0.784049	0.121761	0.040383
H108	H	-0.819343	0.153160	-0.066543
