data_functionalizedCrystal
_audit_creation_method	'MofGen! by Chris Wilmer'
_symmetry_space_group_name_H-M	'P1'
_symmetry_Int_Tables_number	1
_symmetry_cell_setting	triclinic
loop_
_symmetry_equiv_pos_as_xyz
  x,y,z
_cell_length_a	22.010155
_cell_length_b	11.792241
_cell_length_c	11.792241
_cell_angle_alpha	84.193416
_cell_angle_beta	90.004139
_cell_angle_gamma	89.995687
loop_
_atom_site_label
_atom_site_type_symbol
_atom_site_fract_x
_atom_site_fract_y
_atom_site_fract_z
O1	O	0.050466	-1.506917	-0.155552
O2	O	0.550466	-1.006917	0.344448
O3	O	0.050481	-1.176576	-0.171585
O4	O	0.550481	-0.676576	0.328415
O5	O	0.050469	-1.349763	0.001602
O6	O	0.550469	-0.849763	0.501602
O7	O	0.050478	-1.333730	-0.328739
O8	O	0.550478	-0.833730	0.171261
O9	O	-0.050581	-1.349731	0.001576
O10	O	0.449419	-0.849731	0.501576
O11	O	-0.050570	-1.176544	-0.171611
O12	O	0.449430	-0.676544	0.328389
O13	O	-0.050584	-1.506885	-0.155578
O14	O	0.449416	-1.006885	0.344422
Cu15	Cu	-0.059804	-1.341712	-0.163597
Cu16	Cu	0.440196	-0.841712	0.336403
Cu17	Cu	0.059700	-1.341749	-0.163566
Cu18	Cu	0.559700	-0.841749	0.336434
O19	O	-0.050572	-1.333698	-0.328765
O20	O	0.449428	-0.833698	0.171235
C21	C	-0.000043	-1.134269	-0.170591
C22	C	0.499957	-0.634269	0.329409
C23	C	-0.000038	-1.008255	-0.167576
C24	C	0.499962	-0.508255	0.332424
C25	C	-0.000056	-1.348740	0.043880
C26	C	0.499944	-0.848740	0.543880
C27	C	-0.000055	-1.345726	0.169894
C28	C	0.499945	-0.845726	0.669894
N29	N	-0.143856	-1.341694	-0.163618
N30	N	0.356144	-0.841694	0.336382
C31	C	-0.563641	-1.418441	-0.086890
C32	C	-0.063641	-0.918441	0.413110
C33	C	-0.627248	-1.418446	-0.086882
C34	C	-0.127248	-0.918446	0.413118
O35	O	-0.660144	-1.483654	-0.021660
O36	O	-0.160144	-0.983654	0.478340
N37	N	-0.659063	-1.341748	-0.163542
N38	N	-0.159063	-0.841748	0.336458
C39	C	-0.627267	-1.265033	-0.240208
C40	C	-0.127267	-0.765033	0.259792
O41	O	-0.660169	-1.199795	-0.305412
O42	O	-0.160169	-0.699795	0.194588
C43	C	-0.563661	-1.265023	-0.240209
C44	C	-0.063661	-0.765023	0.259791
C45	C	-0.531849	-1.341734	-0.163552
C46	C	-0.031849	-0.841734	0.336448
C47	C	-0.531829	-1.495145	-0.010238
C48	C	-0.031829	-0.995145	0.489762
C49	C	-0.468226	-1.495140	-0.010247
C50	C	0.031774	-0.995140	0.489753
C51	C	-0.436434	-1.418433	-0.086909
C52	C	0.063566	-0.918433	0.413091
C53	C	-0.468246	-1.341729	-0.163561
C54	C	0.031754	-0.841729	0.336439
C55	C	-0.531866	-1.188303	-0.316868
C56	C	-0.031866	-0.688303	0.183132
C57	C	-0.468255	-1.188299	-0.316862
C58	C	0.031745	-0.688299	0.183138
C59	C	-0.436444	-1.265009	-0.240205
C60	C	0.063556	-0.765009	0.259795
C61	C	-0.372851	-1.265018	-0.240232
C62	C	0.127149	-0.765018	0.259768
N63	N	-0.341036	-1.341716	-0.163572
N64	N	0.158964	-0.841716	0.336428
C65	C	-0.372828	-1.418423	-0.086910
C66	C	0.127172	-0.918423	0.413090
C67	C	-0.760845	-1.265058	-0.240198
C68	C	-0.260845	-0.765058	0.259802
C69	C	-0.824450	-1.265072	-0.240203
C70	C	-0.324450	-0.765072	0.259797
C71	C	-0.824427	-1.418485	-0.086875
C72	C	-0.324427	-0.918485	0.413125
C73	C	-0.760820	-1.418475	-0.086877
C74	C	-0.260820	-0.918475	0.413123
C75	C	-0.729030	-1.341756	-0.163537
C76	C	-0.229030	-0.841756	0.336463
C77	C	-0.239256	-1.418409	-0.086937
C78	C	0.260744	-0.918409	0.413063
C79	C	-0.175648	-1.418402	-0.086956
C80	C	0.324352	-0.918402	0.413044
C81	C	-0.175676	-1.264986	-0.240279
C82	C	0.324324	-0.764986	0.259721
C83	C	-0.239280	-1.264997	-0.240264
C84	C	0.260720	-0.764997	0.259736
C85	C	-0.271068	-1.341713	-0.163583
C86	C	0.228932	-0.841713	0.336417
O87	O	-0.339915	-1.199840	-0.305418
O88	O	0.160085	-0.699840	0.194582
O89	O	-0.339918	-1.483640	-0.021707
O90	O	0.160082	-0.983640	0.478293
N91	N	0.143753	-1.341776	-0.163536
N92	N	0.643753	-0.841776	0.336464
C93	C	-0.000059	-1.549192	-0.156572
C94	C	0.499941	-1.049192	0.343428
C95	C	-0.000061	-1.675206	-0.159587
C96	C	0.499939	-1.175206	0.340413
C97	C	-0.000055	-0.777543	-0.162034
C98	C	0.499945	-0.277543	0.337966
C99	C	-0.000045	-0.905928	-0.165113
C100	C	0.499955	-0.405928	0.334887
C101	C	-0.000046	-1.334721	-0.371043
C102	C	0.499954	-0.834721	0.128957
C103	C	-0.000043	-1.337736	-0.497057
C104	C	0.499957	-0.837736	0.002943
C105	C	-0.000045	-1.340183	0.400606
C106	C	0.499955	-0.840183	0.900606
C107	C	-0.000051	-1.343262	0.272221
C108	C	0.499949	-0.843262	0.772221
H109	H	-0.265131	-1.480877	-0.024495
H110	H	0.234869	-0.980877	0.475505
H111	H	-0.557758	-1.125837	-0.379288
H112	H	-0.057758	-0.625837	0.120712
H113	H	-0.442374	-1.125821	-0.379287
H114	H	0.057626	-0.625821	0.120713
H115	H	-0.265181	-1.202543	-0.302696
H116	H	0.234819	-0.702543	0.197304
H117	H	-0.149782	-1.202534	-0.302699
H118	H	0.350218	-0.702534	0.197301
H119	H	-0.149748	-1.480873	-0.024532
H120	H	0.350252	-0.980873	0.475468
N121	N	-0.566110	-1.577906	0.072438
N122	N	-0.066110	-1.077906	0.572438
H123	H	-0.555036	-1.564362	0.153088
H124	H	-0.055036	-1.064362	0.653088
H125	H	-0.555006	-1.658485	0.058694
H126	H	-0.055006	-1.158485	0.558694
N127	N	-0.726556	-1.182324	-0.322901
N128	N	-0.226556	-0.682324	0.177099
H129	H	-0.700167	-1.131797	-0.279198
H130	H	-0.200167	-0.631797	0.220802
H131	H	-0.756402	-1.133821	-0.371443
H132	H	-0.256402	-0.633821	0.128557
N133	N	-0.433919	-1.577874	0.072438
N134	N	0.066081	-1.077874	0.572438
H135	H	-0.463718	-1.626459	0.121000
H136	H	0.036282	-1.126459	0.621000
H137	H	-0.407530	-1.534115	0.122911
H138	H	0.092470	-1.034115	0.622911
N139	N	-0.726512	-1.501211	-0.004198
N140	N	-0.226512	-1.001211	0.495802
H141	H	-0.756309	-1.549804	0.044361
H142	H	-0.256309	-1.049804	0.544361
H143	H	-0.700124	-1.457455	0.046280
H144	H	-0.200124	-0.957455	0.546280
H145	H	-0.850323	-1.480943	-0.024452
H146	H	-0.350323	-0.980943	0.475548
H147	H	-0.850347	-1.202619	-0.302636
H148	H	-0.350347	-0.702619	0.197364
