data_functionalizedCrystal
_audit_creation_method	'MofGen! by Chris Wilmer'
_symmetry_space_group_name_H-M	'P1'
_symmetry_Int_Tables_number	1
_symmetry_cell_setting	triclinic
loop_
_symmetry_equiv_pos_as_xyz
  x,y,z
_cell_length_a	14.519709
_cell_length_b	9.016244
_cell_length_c	14.519709
_cell_angle_alpha	89.992281
_cell_angle_beta	96.319855
_cell_angle_gamma	89.996765
loop_
_atom_site_label
_atom_site_type_symbol
_atom_site_fract_x
_atom_site_fract_y
_atom_site_fract_z
O1	O	1.223864	0.123150	-0.120894
O2	O	1.723864	0.623150	0.379106
O3	O	0.955387	0.123196	-0.135131
O4	O	1.455387	0.623196	0.364869
O5	O	1.096744	0.123159	0.006226
O6	O	1.596744	0.623159	0.506226
O7	O	1.082508	0.123188	-0.262251
O8	O	1.582508	0.623188	0.237749
O9	O	1.096738	-0.123522	0.006236
O10	O	1.596738	0.376478	0.506236
O11	O	0.955382	-0.123485	-0.135120
O12	O	1.455382	0.376515	0.364880
O13	O	1.223858	-0.123530	-0.120884
O14	O	1.723858	0.376470	0.379116
Cu15	Cu	1.089619	-0.146031	-0.128001
Cu16	Cu	1.589619	0.353969	0.371999
Cu17	Cu	1.089626	0.145697	-0.128013
Cu18	Cu	1.589626	0.645697	0.371987
O19	O	1.082502	-0.123493	-0.262240
O20	O	1.582502	0.376507	0.237760
C21	C	0.921025	-0.000139	-0.134462
C22	C	1.421025	0.499861	0.365538
C23	C	0.818643	-0.000122	-0.132474
C24	C	1.318643	0.499878	0.367526
N25	N	1.089621	-0.351218	-0.127992
N26	N	1.589621	0.148782	0.372008
C27	C	0.443748	-0.000190	-0.125154
C28	C	0.943748	0.499810	0.374846
C29	C	0.548056	-0.000170	-0.127187
C30	C	1.048056	0.499830	0.372813
C31	C	0.631192	-0.000154	-0.128814
C32	C	1.131192	0.499846	0.371186
C33	C	0.735507	-0.000138	-0.130847
C34	C	1.235507	0.499862	0.369153
C35	C	1.165516	-0.586224	-0.052632
C36	C	1.665516	-0.086224	0.447368
C37	C	1.165315	-0.414333	-0.052348
C38	C	1.665315	0.085667	0.447652
C39	C	0.993371	-0.413629	-0.106816
C40	C	1.493371	0.086371	0.393184
C41	C	0.993822	-0.585574	-0.106288
C42	C	1.493822	-0.085574	0.393712
C43	C	1.109130	-0.585715	-0.224794
C44	C	1.609130	-0.085715	0.275206
C45	C	1.111311	-0.413760	-0.224145
C46	C	1.611311	0.086240	0.275855
C47	C	1.258221	-0.000192	-0.121553
C48	C	1.758221	0.499808	0.378447
C49	C	1.360602	-0.000200	-0.123541
C50	C	1.860602	0.499800	0.376459
C51	C	1.096078	-0.000182	0.040591
C52	C	1.596078	0.499818	0.540591
C53	C	1.094090	-0.000182	0.142972
C54	C	1.594090	0.499818	0.642972
N55	N	1.089632	0.350883	-0.128015
N56	N	1.589632	0.850883	0.371985
C57	C	1.083168	-0.000149	-0.296605
C58	C	1.583168	0.499851	0.203395
C59	C	1.085156	-0.000139	-0.398987
C60	C	1.585156	0.499861	0.101013
C61	C	1.086770	-0.000143	0.517868
C62	C	1.586770	0.499857	1.017868
C63	C	1.088803	-0.000154	0.413560
C64	C	1.588803	0.499846	0.913560
C65	C	1.090430	-0.000164	0.330423
C66	C	1.590430	0.499836	0.830423
C67	C	1.092463	-0.000173	0.226109
C68	C	1.592463	0.499827	0.726109
H69	H	1.236857	-0.372136	-0.064981
H70	H	1.736857	0.127864	0.435019
H71	H	1.237299	-0.627574	-0.065066
H72	H	1.737299	-0.127574	0.434934
H73	H	1.153223	-0.629456	0.018778
H74	H	1.653223	-0.129456	0.518778
N75	N	1.035835	-0.639580	-0.299110
N76	N	1.535835	-0.139580	0.200890
H77	H	0.990213	-0.704733	-0.270281
H78	H	1.490213	-0.204733	0.229719
H79	H	1.066108	-0.698336	-0.346781
H80	H	1.566108	-0.198336	0.153219
H81	H	0.935534	-0.372746	-0.160250
H82	H	1.435534	0.127254	0.339750
H83	H	0.935650	-0.627178	-0.159097
H84	H	1.435650	-0.127178	0.340903
H85	H	1.177825	-0.629078	-0.245110
H86	H	1.677825	-0.129078	0.254890
N87	N	1.042857	-0.356861	-0.301950
N88	N	1.542857	0.143139	0.198050
H89	H	1.076925	-0.299737	-0.347536
H90	H	1.576925	0.200263	0.152464
H91	H	0.996627	-0.289502	-0.275777
H92	H	1.496627	0.210498	0.224223
H93	H	0.975791	-0.370584	-0.037031
H94	H	1.475791	0.129416	0.462969
H95	H	1.152840	-0.373219	0.019472
H96	H	1.652840	0.126781	0.519472
N97	N	0.971108	-0.638739	-0.012788
N98	N	1.471108	-0.138739	0.487212
H99	H	0.960896	-0.550479	0.027698
H100	H	1.460896	-0.050479	0.527698
H101	H	1.024223	-0.700233	0.017423
H102	H	1.524223	-0.200233	0.517423
H103	H	1.182117	-0.372970	-0.240210
H104	H	1.682117	0.127030	0.259790
