data_functionalizedCrystal
_audit_creation_method	'MofGen! by Chris Wilmer'
_symmetry_space_group_name_H-M	'P1'
_symmetry_Int_Tables_number	1
_symmetry_cell_setting	triclinic
loop_
_symmetry_equiv_pos_as_xyz
  x,y,z
_cell_length_a	9.065218
_cell_length_b	8.140239
_cell_length_c	9.065218
_cell_angle_alpha	89.998670
_cell_angle_beta	85.015919
_cell_angle_gamma	89.996351
loop_
_atom_site_label
_atom_site_type_symbol
_atom_site_fract_x
_atom_site_fract_y
_atom_site_fract_z
O1	O	-1.960395	0.136690	-0.216355
O2	O	-1.627062	0.470024	0.116978
O3	O	-1.293729	0.803357	0.450311
O4	O	-1.531110	0.136674	-0.234101
O5	O	-1.197777	0.470008	0.099232
O6	O	-0.864444	0.803341	0.432565
O7	O	-1.754626	0.136679	-0.010586
O8	O	-1.421293	0.470013	0.322747
O9	O	-1.087959	0.803346	0.656081
O10	O	-1.736880	0.136685	-0.439871
O11	O	-1.403546	0.470019	-0.106537
O12	O	-1.070213	0.803352	0.226796
O13	O	-1.754619	-0.136548	-0.010584
O14	O	-1.421285	0.196786	0.322749
O15	O	-1.087952	0.530119	0.656082
O16	O	-1.531103	-0.136553	-0.234100
O17	O	-1.197770	0.196781	0.099234
O18	O	-0.864436	0.530114	0.432567
O19	O	-1.960388	-0.136537	-0.216354
O20	O	-1.627055	0.196797	0.116980
O21	O	-1.293721	0.530130	0.450313
Zn22	Zn	-1.745744	-0.179925	-0.225226
Zn23	Zn	-1.412411	0.153408	0.108107
Zn24	Zn	-1.079078	0.486741	0.441440
Zn25	Zn	-1.745754	0.180063	-0.225229
Zn26	Zn	-1.412421	0.513396	0.108105
Zn27	Zn	-1.079087	0.846730	0.441438
O28	O	-1.736872	-0.136542	-0.439869
O29	O	-1.403539	0.196792	-0.106536
O30	O	-1.070206	0.530125	0.226798
C31	C	-1.476120	0.000059	-0.232395
C32	C	-1.142787	0.333392	0.100938
C33	C	-0.809454	0.666726	0.434272
C34	C	-1.312277	0.000053	-0.227295
C35	C	-0.978944	0.333386	0.106038
C36	C	-0.645611	0.666720	0.439371
N37	N	-1.745749	-0.425608	-0.225224
N38	N	-1.412415	-0.092275	0.108109
N39	N	-1.079082	0.241059	0.441443
C40	C	-1.015378	0.000072	-0.218060
C41	C	-0.682045	0.333405	0.115274
C42	C	-0.348712	0.666739	0.448607
C43	C	-1.179221	0.000058	-0.223159
C44	C	-0.845888	0.333391	0.110174
C45	C	-0.512554	0.666725	0.443508
C46	C	-1.752917	0.000068	0.044402
C47	C	-1.419584	0.333402	0.377735
C48	C	-1.086250	0.666735	0.711068
C49	C	-1.747817	0.000076	0.208244
C50	C	-1.414484	0.333409	0.541578
C51	C	-1.081151	0.666743	0.874911
N52	N	-1.745761	0.425746	-0.225219
N53	N	-1.412428	0.759079	0.108114
N54	N	-1.079095	1.092412	0.441447
C55	C	-1.738581	0.000073	-0.494856
C56	C	-1.405248	0.333406	-0.161523
C57	C	-1.071915	0.666740	0.171810
C58	C	-1.743681	0.000076	-0.658699
C59	C	-1.410348	0.333409	-0.325366
C60	C	-1.077014	0.666743	0.007967
