data_functionalizedCrystal
_audit_creation_method	'MofGen! by Chris Wilmer'
_symmetry_space_group_name_H-M	'P1'
_symmetry_Int_Tables_number	1
_symmetry_cell_setting	triclinic
loop_
_symmetry_equiv_pos_as_xyz
  x,y,z
_cell_length_a	15.944551
_cell_length_b	15.995350
_cell_length_c	14.472310
_cell_angle_alpha	90.003052
_cell_angle_beta	90.008536
_cell_angle_gamma	96.504444
loop_
_atom_site_label
_atom_site_type_symbol
_atom_site_fract_x
_atom_site_fract_y
_atom_site_fract_z
O1	O	-1.114529	0.107983	-0.076736
O2	O	-0.614529	0.607983	0.423264
O3	O	-0.869979	0.121297	-0.076758
O4	O	-0.369979	0.621297	0.423242
O5	O	-0.998939	-0.007247	-0.076750
O6	O	-0.498939	0.492753	0.423250
O7	O	-0.985569	0.236527	-0.076744
O8	O	-0.485569	0.736527	0.423256
O9	O	-0.998906	-0.007240	0.076932
O10	O	-0.498906	0.492760	0.576932
O11	O	-0.869946	0.121304	0.076924
O12	O	-0.369946	0.621304	0.576924
O13	O	-1.114496	0.107990	0.076946
O14	O	-0.614496	0.607990	0.576946
Cu15	Cu	-0.992218	0.114648	0.090967
Cu16	Cu	-0.492218	0.614648	0.590967
Cu17	Cu	-0.992257	0.114639	-0.090779
Cu18	Cu	-0.492257	0.614639	0.409221
O19	O	-0.985536	0.236535	0.076938
O20	O	-0.485536	0.736535	0.576938
C21	C	-0.838668	0.120748	0.000080
C22	C	-0.338668	0.620748	0.500080
C23	C	-0.745422	0.119091	0.000071
C24	C	-0.245422	0.619091	0.500071
C25	C	-0.998370	-0.038438	0.000088
C26	C	-0.498370	0.461562	0.500088
C27	C	-0.996712	-0.131389	0.000079
C28	C	-0.496712	0.368611	0.500079
C29	C	-1.145806	0.108539	0.000106
C30	C	-0.645806	0.608539	0.500106
C31	C	-1.239052	0.110196	0.000109
C32	C	-0.739052	0.610196	0.500109
C33	C	-0.530570	0.035452	0.000087
C34	C	-0.030570	0.535452	0.500087
C35	C	-0.469564	0.074288	-0.075685
C36	C	0.030436	0.574288	0.424315
C37	C	-0.574697	0.116093	0.000082
C38	C	-0.074697	0.616093	0.500082
C39	C	-0.469554	0.074314	0.075833
C40	C	0.030446	0.574314	0.575833
C41	C	-0.409784	0.113192	0.000097
C42	C	0.090216	0.613192	0.500097
C43	C	-0.514919	0.154950	-0.075753
C44	C	-0.014919	0.654950	0.424247
C45	C	-0.514915	0.154966	0.075834
C46	C	-0.014915	0.654966	0.575834
C47	C	-0.453926	0.193859	0.000043
C48	C	0.046074	0.693859	0.500043
C49	C	-0.669699	0.117762	0.000073
C50	C	-0.169699	0.617762	0.500073
C51	C	-0.314783	0.111529	0.000099
C52	C	0.185217	0.611529	0.500099
C53	C	-0.986105	0.267726	0.000098
C54	C	-0.486105	0.767726	0.500098
C55	C	-0.987762	0.360676	0.000101
C56	C	-0.487762	0.860676	0.500101
N57	N	-0.992196	0.114654	0.218798
N58	N	-0.492196	0.614654	0.718798
C59	C	-0.993713	0.698424	0.000087
C60	C	-0.493713	1.198424	0.500087
C61	C	-1.085556	0.650995	-0.000248
C62	C	-0.585556	1.150995	0.499752
C63	C	-1.083899	0.554305	0.000103
C64	C	-0.583899	1.054305	0.500103
C65	C	-0.990761	0.530863	0.000093
C66	C	-0.490761	1.030863	0.500093
C67	C	-0.945442	0.571948	0.087846
C68	C	-0.445442	1.071948	0.587846
C69	C	-0.947749	0.668584	0.087914
C70	C	-0.447749	1.168584	0.587914
C71	C	-0.945890	0.668923	-0.086851
C72	C	-0.445890	1.168923	0.413149
C73	C	-0.945912	0.571977	-0.088006
C74	C	-0.445912	1.071977	0.411994
C75	C	-0.989088	0.436166	0.000100
C76	C	-0.489088	0.936166	0.500100
C77	C	-0.995384	0.793122	0.000086
C78	C	-0.495384	1.293122	0.500086
N79	N	-0.992285	0.114627	-0.218610
N80	N	-0.492285	0.614627	0.281390
C81	C	-0.992256	0.114636	0.592890
C82	C	-0.492256	0.614636	1.092890
C83	C	-0.923020	0.183187	0.553719
C84	C	-0.423020	0.683187	1.053719
C85	C	-0.923180	0.183437	0.446631
C86	C	-0.423180	0.683437	0.946631
C87	C	-0.992226	0.114645	0.407298
C88	C	-0.492226	0.614645	0.907298
C89	C	-1.079868	0.133731	0.446144
C90	C	-0.579868	0.633731	0.946144
C91	C	-1.079479	0.134219	0.553266
C92	C	-0.579479	0.634219	1.053266
C93	C	-0.974631	0.026795	0.553415
C94	C	-0.474631	0.526795	1.053415
C95	C	-0.972621	0.027381	0.446287
C96	C	-0.472621	0.527381	0.946287
C97	C	-0.992214	0.114648	0.302410
C98	C	-0.492214	0.614648	0.802410
C99	C	-0.992273	0.114634	0.697778
C100	C	-0.492273	0.614634	1.197778
H101	H	-0.563907	-0.031473	-0.000008
H102	H	-0.063907	0.468527	0.499992
H103	H	-0.449470	0.040177	-0.139747
H104	H	0.050530	0.540177	0.360253
H105	H	-0.877995	0.556606	-0.093315
H106	H	-0.377995	1.056606	0.406685
F107	F	-0.990908	0.692519	0.173664
F108	F	-0.490908	1.192519	0.673664
F109	F	-0.937535	0.267912	0.588880
F110	F	-0.437535	0.767912	1.088880
H111	H	-1.025121	-0.024218	0.578744
H112	H	-0.525121	0.475782	1.078744
F113	F	-1.034258	-0.042422	0.411305
F114	F	-0.534258	0.457578	0.911305
H115	H	-0.908150	0.012896	0.420898
H116	H	-0.408150	0.512896	0.920898
H117	H	-0.534918	0.189029	-0.139882
H118	H	-0.034918	0.689029	0.360118
H119	H	-0.979003	0.544673	-0.152925
H120	H	-0.479003	1.044673	0.347075
F121	F	-1.100657	0.216510	0.411072
F122	F	-0.600657	0.716510	0.911072
H123	H	-0.420764	0.260854	0.000002
H124	H	0.079236	0.760854	0.500002
H125	H	-0.535030	0.189048	0.139899
H126	H	-0.035030	0.689048	0.639899
F127	F	-1.133309	0.676615	0.081554
F128	F	-0.633309	1.176615	0.581554
H129	H	-1.122274	0.669512	-0.063187
H130	H	-0.622274	1.169512	0.436813
F131	F	-0.443285	0.029720	0.159562
F132	F	0.056715	0.529720	0.659562
H133	H	-1.119526	0.525877	-0.062798
H134	H	-0.619526	1.025877	0.437202
H135	H	-1.119731	0.526449	0.063125
H136	H	-0.619731	1.026449	0.563125
H137	H	-0.880319	0.700828	0.091897
H138	H	-0.380319	1.200828	0.591897
F139	F	-0.857380	0.710427	-0.087633
F140	F	-0.357380	1.210427	0.412367
F141	F	-0.937864	0.268646	0.413125
F142	F	-0.437864	0.768646	0.913125
H143	H	-0.877016	0.557819	0.091102
H144	H	-0.377016	1.057819	0.591102
F145	F	-0.986552	0.534871	0.173217
F146	F	-0.486552	1.034871	0.673217
F147	F	-1.148820	0.070207	0.412845
F148	F	-0.648820	0.570207	0.912845
F149	F	-0.985151	0.695770	-0.173791
F150	F	-0.485151	1.195770	0.326209
F151	F	-0.838017	0.168615	0.412302
F152	F	-0.338017	0.668615	0.912302
F153	F	-0.837589	0.168557	0.587399
F154	F	-0.337589	0.668557	1.087399
H155	H	-1.095010	0.198280	0.578245
H156	H	-0.595010	0.698280	1.078245
H157	H	-1.132608	0.086259	0.579175
H158	H	-0.632608	0.586259	1.079175
H159	H	-0.912110	0.008443	0.580476
H160	H	-0.412110	0.508443	1.080476
