data_functionalizedCrystal
_audit_creation_method	'MofGen! by Chris Wilmer'
_symmetry_space_group_name_H-M	'P1'
_symmetry_Int_Tables_number	1
_symmetry_cell_setting	triclinic
loop_
_symmetry_equiv_pos_as_xyz
  x,y,z
_cell_length_a	15.944557
_cell_length_b	10.654550
_cell_length_c	9.730223
_cell_angle_alpha	90.004131
_cell_angle_beta	89.998843
_cell_angle_gamma	83.993136
loop_
_atom_site_label
_atom_site_type_symbol
_atom_site_fract_x
_atom_site_fract_y
_atom_site_fract_z
O1	O	-1.115454	-0.162007	-0.114227
O2	O	-0.871020	-0.181967	-0.114243
O3	O	-0.998857	0.010825	-0.114229
O4	O	-0.987617	-0.354798	-0.114240
O5	O	-0.998855	0.010835	0.114351
O6	O	-0.871019	-0.181957	0.114337
O7	O	-1.115452	-0.161997	0.114353
Zn8	Zn	-0.993235	-0.171976	0.150637
Zn9	Zn	-0.993237	-0.171988	-0.150527
O10	O	-0.987615	-0.354789	0.114340
C11	C	-0.839721	-0.181132	0.000045
C12	C	-0.746461	-0.178644	0.000040
C13	C	-0.475095	-0.051701	0.000065
C14	C	-0.526030	-0.112893	0.112767
C15	C	-0.410767	-0.169769	0.000072
C16	C	-0.526012	-0.112934	-0.112595
C17	C	-0.575705	-0.174123	0.000054
C18	C	-0.460474	-0.230928	0.112868
C19	C	-0.460453	-0.230952	-0.112596
C20	C	-0.511355	-0.292230	0.000134
C21	C	-0.315751	-0.167257	0.000084
C22	C	-0.670719	-0.176644	0.000052
N23	N	-0.993239	-0.171988	-0.356063
C24	C	-0.998031	0.057617	0.000059
C25	C	-0.995562	0.197029	0.000054
C26	C	-0.146753	-0.162815	0.000068
C27	C	-0.240017	-0.165252	0.000085
C28	C	-0.988441	-0.401581	0.000048
C29	C	-0.990911	-0.540992	0.000044
C30	C	-1.070830	0.277486	0.000063
C31	C	-1.068505	0.408476	0.000053
C32	C	-0.915637	0.378540	0.000031
C33	C	-0.917963	0.247552	0.000031
C34	C	-1.159087	0.294770	0.000081
C35	C	-1.156762	0.425761	0.000072
C36	C	-1.049952	-0.086784	-0.427984
C37	C	-1.049954	-0.086776	-0.571866
C38	C	-0.936525	-0.257179	-0.571896
C39	C	-0.936527	-0.257192	-0.428016
C40	C	-1.115437	0.011600	-0.427968
C41	C	-1.115440	0.011608	-0.571851
N42	N	-0.993240	-0.171966	0.356173
H43	H	-0.431952	-0.280750	0.208252
N44	N	-1.194348	0.250504	0.123876
N45	N	-1.200700	0.135419	0.139345
H46	H	-1.225601	0.104152	0.226777
N47	N	-0.531517	-0.419897	0.000214
N48	N	-0.507542	-0.491962	0.097063
H49	H	-0.521779	-0.582128	0.097125
N50	N	-1.089971	0.125780	-0.371969
N51	N	-1.070900	0.211299	-0.450352
H52	H	-1.052912	0.291939	-0.410804
H53	H	-0.890354	-0.326582	-0.369460
H54	H	-0.554671	-0.063026	0.208051
H55	H	-0.431796	-0.280775	-0.207883
N56	N	-0.454695	0.075848	0.000187
N57	N	-0.413050	0.115229	-0.096612
H58	H	-0.398638	0.205308	-0.096522
N59	N	-0.561931	-0.050348	-0.232106
N60	N	-0.553304	0.063468	-0.252151
H61	H	-0.578672	0.107680	-0.336548
N62	N	-0.841070	0.165384	-0.000002
N63	N	-0.771795	0.210515	-0.000022
H64	H	-0.717486	0.152485	-0.000046
H65	H	-0.852458	0.419693	0.000012
H66	H	-1.193608	0.265853	-0.095570
N67	N	-1.097583	0.132533	-0.620852
N68	N	-1.094564	0.153007	-0.747154
H69	H	-1.081951	0.238405	-0.781764
H70	H	-1.190015	0.467954	0.095732
H71	H	-1.183435	0.471744	-0.098621
H72	H	-1.179948	-0.009264	-0.388927
N73	N	-0.878606	-0.344222	-0.645396
N74	N	-0.905608	-0.422289	-0.725688
H75	H	-0.864703	-0.483768	-0.777596
N76	N	-1.191870	-0.026051	-0.627830
N77	N	-1.249108	-0.054252	-0.549435
H78	H	-1.303078	-0.080876	-0.588971
