data_functionalizedCrystal
_audit_creation_method	'MofGen! by Chris Wilmer'
_symmetry_space_group_name_H-M	'P1'
_symmetry_Int_Tables_number	1
_symmetry_cell_setting	triclinic
loop_
_symmetry_equiv_pos_as_xyz
  x,y,z
_cell_length_a	8.497374
_cell_length_b	12.759401
_cell_length_c	12.759399
_cell_angle_alpha	89.983359
_cell_angle_beta	89.991562
_cell_angle_gamma	90.001753
loop_
_atom_site_label
_atom_site_type_symbol
_atom_site_fract_x
_atom_site_fract_y
_atom_site_fract_z
Zn1	Zn	0.891958	1.606064	0.418406
Zn2	Zn	0.628160	1.606013	0.594052
Zn3	Zn	0.628185	1.430422	0.418393
Zn4	Zn	0.891892	1.430354	0.594048
O5	O	0.760048	1.518213	0.506225
O6	O	0.856982	1.753079	0.441713
O7	O	0.407401	1.582728	0.570747
O8	O	0.663213	1.453771	0.271373
O9	O	0.663171	1.753041	0.570760
O10	O	0.857005	1.582815	0.271383
O11	O	0.407419	1.453722	0.441691
O12	O	0.663149	1.283392	0.441686
O13	O	1.112663	1.453655	0.570752
O14	O	0.856893	1.283342	0.570739
O15	O	1.112711	1.582749	0.441709
O16	O	0.663107	1.582661	0.741073
O17	O	0.856869	1.453605	0.741069
C18	C	0.760017	1.245246	0.506212
C19	C	0.760041	1.128469	0.506232
C20	C	0.860765	1.073609	0.573532
C21	C	0.860796	0.963885	0.573536
C22	C	0.659366	0.963891	0.438937
C23	C	0.659344	1.073613	0.438928
C24	C	0.760013	1.518149	0.779192
C25	C	0.760050	1.518217	0.895969
C26	C	1.171529	1.518205	0.506226
C27	C	1.350173	1.518208	0.506237
C28	C	0.760081	1.792246	0.506238
C29	C	0.760095	1.909023	0.506244
C30	C	0.760119	1.518307	0.232191
C31	C	0.760149	1.518346	0.115415
C32	C	0.659273	1.585494	0.950797
C33	C	0.659326	1.585561	1.060521
C34	C	0.860938	1.451067	1.060578
C35	C	0.860891	1.451006	0.950856
H36	H	0.942763	1.118269	0.628332
C37	C	0.570043	1.645488	1.228689
C38	C	0.548657	1.659584	1.120791
H39	H	0.501757	1.691217	1.265894
H40	H	0.546766	1.574954	1.246774
H41	H	0.676109	1.660750	1.246576
H42	H	0.442592	1.644315	1.102902
H43	H	0.571923	1.730134	1.102698
C44	C	1.060179	1.318057	0.961925
C45	C	0.971672	1.377047	0.890580
H46	H	1.128561	1.272400	0.924710
H47	H	1.120600	1.363820	1.004663
H48	H	0.991396	1.277932	1.004775
H49	H	1.040455	1.417179	0.847734
H50	H	0.911246	1.331279	0.847824
C51	C	0.637483	1.726754	0.827288
C52	C	0.548441	1.659377	0.890462
H53	H	0.569057	1.772365	0.790038
H54	H	0.706275	1.766924	0.870037
H55	H	0.697486	1.686666	0.778931
H56	H	0.488447	1.699466	0.938824
H57	H	0.479622	1.619204	0.847708
C58	C	0.583000	0.930136	0.260952
C59	C	0.548674	0.903592	0.364964
H60	H	0.514664	0.892907	0.215286
H61	H	0.568570	1.003326	0.251324
H62	H	0.689043	0.912161	0.245704
H63	H	0.442634	0.921575	0.380214
H64	H	0.563091	0.830386	0.374597
H65	H	0.577323	1.118282	0.384118
H66	H	0.943037	1.396344	1.105281
H67	H	0.942818	0.919222	0.628337
