data_functionalizedCrystal
_audit_creation_method	'MofGen! by Chris Wilmer'
_symmetry_space_group_name_H-M	'P1'
_symmetry_Int_Tables_number	1
_symmetry_cell_setting	triclinic
loop_
_symmetry_equiv_pos_as_xyz
  x,y,z
_cell_length_a	18.215407
_cell_length_b	18.050590
_cell_length_c	18.215407
_cell_angle_alpha	90.013001
_cell_angle_beta	90.007771
_cell_angle_gamma	90.015996
loop_
_atom_site_label
_atom_site_type_symbol
_atom_site_fract_x
_atom_site_fract_y
_atom_site_fract_z
Zn1	Zn	1.125035	-0.295833	0.416063
Zn2	Zn	1.375035	-0.045833	0.666063
Zn3	Zn	1.625035	0.204167	0.916063
Zn4	Zn	1.875035	0.454167	1.166063
Zn5	Zn	1.124977	-0.419994	0.292995
Zn6	Zn	1.374977	-0.169994	0.542995
Zn7	Zn	1.624977	0.080006	0.792995
Zn8	Zn	1.874977	0.330006	1.042995
Zn9	Zn	1.001988	-0.295817	0.293016
Zn10	Zn	1.251988	-0.045817	0.543016
Zn11	Zn	1.501988	0.204183	0.793016
Zn12	Zn	1.751988	0.454183	1.043016
Zn13	Zn	1.001947	-0.419980	0.416025
Zn14	Zn	1.251947	-0.169980	0.666025
Zn15	Zn	1.501947	0.080020	0.916025
Zn16	Zn	1.751947	0.330020	1.166025
O17	O	1.063487	-0.357906	0.354525
O18	O	1.313487	-0.107906	0.604525
O19	O	1.563487	0.142094	0.854525
O20	O	1.813487	0.392094	1.104525
O21	O	1.228011	-0.312316	0.399745
O22	O	1.478011	-0.062316	0.649745
O23	O	1.728011	0.187684	0.899745
O24	O	1.978011	0.437684	1.149745
O25	O	1.108656	-0.403520	0.190014
O26	O	1.358656	-0.153520	0.440014
O27	O	1.608656	0.096480	0.690014
O28	O	1.858656	0.346480	0.940014
O29	O	1.018351	-0.191894	0.309363
O30	O	1.268351	0.058106	0.559363
O31	O	1.518351	0.308106	0.809363
O32	O	1.768351	0.558106	1.059363
O33	O	1.227969	-0.403536	0.309328
O34	O	1.477969	-0.153536	0.559328
O35	O	1.727969	0.096464	0.809328
O36	O	1.977969	0.346464	1.059328
O37	O	1.108753	-0.191906	0.399765
O38	O	1.358753	0.058094	0.649765
O39	O	1.608753	0.308094	0.899765
O40	O	1.858753	0.558094	1.149765
O41	O	1.018296	-0.312288	0.190029
O42	O	1.268296	-0.062288	0.440029
O43	O	1.518296	0.187712	0.690029
O44	O	1.768296	0.437712	0.940029
O45	O	0.898998	-0.312275	0.309326
O46	O	1.148998	-0.062275	0.559326
O47	O	1.398998	0.187725	0.809326
O48	O	1.648998	0.437725	1.059326
O49	O	1.018281	-0.403513	0.519015
O50	O	1.268281	-0.153513	0.769015
O51	O	1.518281	0.096487	1.019015
O52	O	1.768281	0.346487	1.269015
O53	O	0.898968	-0.403497	0.399701
O54	O	1.148968	-0.153497	0.649701
O55	O	1.398968	0.096503	0.899701
O56	O	1.648968	0.346503	1.149701
O57	O	1.108713	-0.312303	0.519042
O58	O	1.358713	-0.062303	0.769042
O59	O	1.608713	0.187697	1.019042
O60	O	1.858713	0.437697	1.269042
O61	O	1.108616	-0.523917	0.309291
O62	O	1.358616	-0.273917	0.559291
O63	O	1.608616	-0.023917	0.809291
O64	O	1.858616	0.226083	1.059291
O65	O	1.018226	-0.523907	0.399681
O66	O	1.268226	-0.273907	0.649681
O67	O	1.518226	-0.023907	0.899681
O68	O	1.768226	0.226093	1.149681
C69	C	0.872280	-0.357883	0.354512
C70	C	1.122280	-0.107883	0.604512
C71	C	1.372280	0.142117	0.854512
C72	C	1.622280	0.392117	1.104512
C73	C	0.790481	-0.357891	0.354524
C74	C	1.040481	-0.107891	0.604524
C75	C	1.290481	0.142109	0.854524
C76	C	1.540481	0.392109	1.104524
C77	C	0.602308	-0.310491	0.401679
C78	C	0.852308	-0.060491	0.651679
C79	C	1.102308	0.189509	0.901679
C80	C	1.352308	0.439509	1.151679
C81	C	0.525450	-0.310497	0.401681
C82	C	0.775450	-0.060497	0.651681
C83	C	1.025450	0.189503	0.901681
C84	C	1.275450	0.439503	1.151681
C85	C	0.525417	-0.405342	0.307384
C86	C	0.775417	-0.155342	0.557384
C87	C	1.025417	0.094658	0.807384
C88	C	1.275417	0.344658	1.057384
C89	C	0.602274	-0.405332	0.307378
C90	C	0.852274	-0.155332	0.557378
C91	C	1.102274	0.094668	0.807378
C92	C	1.352274	0.344668	1.057378
C93	C	0.640718	-0.357907	0.354530
C94	C	0.890718	-0.107907	0.604530
C95	C	1.140718	0.142093	0.854530
C96	C	1.390718	0.392093	1.104530
C97	C	0.487002	-0.357924	0.354538
C98	C	0.737002	-0.107924	0.604538
C99	C	0.987002	0.142076	0.854538
C100	C	1.237002	0.392076	1.104538
C101	C	0.403668	-0.357931	0.354540
C102	C	0.653668	-0.107931	0.604540
C103	C	0.903668	0.142069	0.854540
C104	C	1.153668	0.392069	1.104540
C105	C	0.724057	-0.357898	0.354527
C106	C	0.974057	-0.107898	0.604527
C107	C	1.224057	0.142102	0.854527
C108	C	1.474057	0.392102	1.104527
C109	C	1.063430	-0.550858	0.354496
C110	C	1.313430	-0.300858	0.604496
C111	C	1.563430	-0.050858	0.854496
C112	C	1.813430	0.199142	1.104496
C113	C	1.063473	-0.633404	0.354508
C114	C	1.313473	-0.383404	0.604508
C115	C	1.563473	-0.133404	0.854508
C116	C	1.813473	0.116596	1.104508
C117	C	1.112729	-0.832833	0.305422
C118	C	1.362729	-0.582833	0.555422
C119	C	1.612729	-0.332833	0.805422
C120	C	1.862729	-0.082833	1.055422
C121	C	1.130695	-0.882185	0.372588
C122	C	1.380695	-0.632185	0.622588
C123	C	1.630695	-0.382185	0.872588
C124	C	1.880695	-0.132185	1.122588
C125	C	1.063515	-0.784534	0.354537
C126	C	1.313515	-0.534534	0.604537
C127	C	1.563515	-0.284534	0.854537
C128	C	1.813515	-0.034534	1.104537
C129	C	1.045624	-0.882264	0.287401
C130	C	1.295624	-0.632264	0.537401
C131	C	1.545624	-0.382264	0.787401
C132	C	1.795624	-0.132264	1.037401
C133	C	1.063557	-0.930519	0.354559
C134	C	1.313557	-0.680519	0.604559
C135	C	1.563557	-0.430519	0.854559
C136	C	1.813557	-0.180519	1.104559
C137	C	1.081515	-0.832799	0.421738
C138	C	1.331515	-0.582799	0.671738
C139	C	1.581515	-0.332799	0.921738
C140	C	1.831515	-0.082799	1.171738
C141	C	0.996413	-0.832874	0.336506
C142	C	1.246413	-0.582874	0.586506
C143	C	1.496413	-0.332874	0.836506
C144	C	1.746413	-0.082874	1.086506
C145	C	1.014353	-0.882203	0.403718
C146	C	1.264353	-0.632203	0.653718
C147	C	1.514353	-0.382203	0.903718
C148	C	1.764353	-0.132203	1.153718
C149	C	1.063493	-0.700436	0.354523
C150	C	1.313493	-0.450436	0.604523
C151	C	1.563493	-0.200436	0.854523
C152	C	1.813493	0.049564	1.104523
C153	C	1.063579	-1.014616	0.354581
C154	C	1.313579	-0.764616	0.604581
C155	C	1.563579	-0.514616	0.854581
C156	C	1.813579	-0.264616	1.104581
C157	C	1.255439	-0.357929	0.354538
C158	C	1.505439	-0.107929	0.604538
C159	C	1.755439	0.142071	0.854538
C160	C	2.005439	0.392071	1.104538
C161	C	1.337238	-0.357939	0.354544
C162	C	1.587238	-0.107939	0.604544
C163	C	1.837238	0.142061	0.854544
C164	C	2.087238	0.392061	1.104544
C165	C	1.063499	-0.357908	0.546478
C166	C	1.313499	-0.107908	0.796478
C167	C	1.563499	0.142092	1.046478
C168	C	1.813499	0.392092	1.296478
C169	C	1.063505	-0.357909	0.628277
C170	C	1.313505	-0.107909	0.878277
C171	C	1.563505	0.142091	1.128277
C172	C	1.813505	0.392091	1.378277
C173	C	1.063563	-0.164200	0.354571
C174	C	1.313563	0.085800	0.604571
C175	C	1.563563	0.335800	0.854571
C176	C	1.813563	0.585800	1.104571
C177	C	1.063596	-0.081655	0.354590
C178	C	1.313596	0.168345	0.604590
C179	C	1.563596	0.418345	0.854590
C180	C	1.813596	0.668345	1.104590
C181	C	1.110578	-0.310423	0.816486
C182	C	1.360578	-0.060423	1.066486
C183	C	1.610578	0.189577	1.316486
C184	C	1.860578	0.439577	1.566486
C185	C	1.110574	-0.310423	0.893345
C186	C	1.360574	-0.060423	1.143345
C187	C	1.610574	0.189577	1.393345
C188	C	1.860574	0.439577	1.643345
C189	C	1.016407	-0.405405	0.893305
C190	C	1.266407	-0.155405	1.143305
C191	C	1.516407	0.094595	1.393305
C192	C	1.766407	0.344595	1.643305
C193	C	1.016408	-0.405401	0.816448
C194	C	1.266408	-0.155401	1.066448
C195	C	1.516408	0.094599	1.316448
C196	C	1.766408	0.344599	1.566448
C197	C	1.063498	-0.357911	0.778040
C198	C	1.313498	-0.107911	1.028040
C199	C	1.563498	0.142089	1.278040
C200	C	1.813498	0.392089	1.528040
C201	C	1.063493	-0.357915	0.931756
C202	C	1.313493	-0.107915	1.181756
C203	C	1.563493	0.142085	1.431756
C204	C	1.813493	0.392085	1.681756
C205	C	1.063488	-0.357915	1.015090
C206	C	1.313488	-0.107915	1.265090
C207	C	1.563488	0.142085	1.515090
C208	C	1.813488	0.392085	1.765090
C209	C	1.063502	-0.357910	0.694701
C210	C	1.313502	-0.107910	0.944701
C211	C	1.563502	0.142090	1.194701
C212	C	1.813502	0.392090	1.444701
C213	C	1.063474	-0.357920	1.163319
C214	C	1.313474	-0.107920	1.413319
C215	C	1.563474	0.142080	1.663319
C216	C	1.813474	0.392080	1.913319
C217	C	1.063486	-0.357918	1.081520
C218	C	1.313486	-0.107918	1.331520
C219	C	1.563486	0.142082	1.581520
C220	C	1.813486	0.392082	1.831520
H221	H	0.633548	-0.443944	0.268980
H222	H	0.883548	-0.193944	0.518980
H223	H	1.133548	0.056056	0.768980
H224	H	1.383548	0.306056	1.018980
Br225	Br	1.182116	-0.796700	0.236264
Br226	Br	1.432116	-0.546700	0.486264
Br227	Br	1.682116	-0.296700	0.736264
Br228	Br	1.932116	-0.046700	0.986264
H229	H	1.187460	-0.903847	0.387854
H230	H	1.437460	-0.653847	0.637854
H231	H	1.687460	-0.403847	0.887854
H232	H	1.937460	-0.153847	1.137854
Br233	Br	1.106885	-0.796743	0.516410
Br234	Br	1.356885	-0.546743	0.766410
Br235	Br	1.606885	-0.296743	1.016410
Br236	Br	1.856885	-0.046743	1.266410
H237	H	1.030475	-0.903992	0.230616
H238	H	1.280475	-0.653992	0.480616
H239	H	1.530475	-0.403992	0.730616
H240	H	1.780475	-0.153992	0.980616
H241	H	0.972752	-0.903744	0.445311
H242	H	1.222752	-0.653744	0.695311
H243	H	1.472752	-0.403744	0.945311
H244	H	1.722752	-0.153744	1.195311
Br245	Br	1.174483	-0.245972	0.764364
Br246	Br	1.424483	0.004028	1.014364
Br247	Br	1.674483	0.254028	1.264364
Br248	Br	1.924483	0.504028	1.514364
H249	H	1.148910	-0.271752	0.924644
H250	H	1.398910	-0.021752	1.174644
H251	H	1.648910	0.228248	1.424644
H252	H	1.898910	0.478248	1.674644
H253	H	0.939664	-0.811196	0.321220
H254	H	1.189664	-0.561196	0.571220
H255	H	1.439664	-0.311196	0.821220
H256	H	1.689664	-0.061196	1.071220
H257	H	0.494180	-0.271885	0.440073
H258	H	0.744180	-0.021885	0.690073
H259	H	0.994180	0.228115	0.940073
H260	H	1.244180	0.478115	1.190073
Br261	Br	0.952506	-0.469855	0.945434
Br262	Br	1.202506	-0.219855	1.195434
Br263	Br	1.452506	0.030145	1.445434
Br264	Br	1.702506	0.280145	1.695434
H265	H	0.978065	-0.444071	0.785144
H266	H	1.228065	-0.194071	1.035144
H267	H	1.478065	0.055929	1.285144
H268	H	1.728065	0.305929	1.535144
Br269	Br	0.654480	-0.246127	0.465668
Br270	Br	0.904480	0.003873	0.715668
Br271	Br	1.154480	0.253873	0.965668
Br272	Br	1.404480	0.503873	1.215668
Br273	Br	0.473238	-0.469702	0.243397
Br274	Br	0.723238	-0.219702	0.493397
Br275	Br	0.973238	0.030298	0.743397
Br276	Br	1.223238	0.280298	0.993397
