data_functionalizedCrystal
_audit_creation_method	'MofGen! by Chris Wilmer'
_symmetry_space_group_name_H-M	'P1'
_symmetry_Int_Tables_number	1
_symmetry_cell_setting	triclinic
loop_
_symmetry_equiv_pos_as_xyz
  x,y,z
_cell_length_a	19.188930
_cell_length_b	22.610064
_cell_length_c	19.188930
_cell_angle_alpha	89.998940
_cell_angle_beta	96.855221
_cell_angle_gamma	90.022082
loop_
_atom_site_label
_atom_site_type_symbol
_atom_site_fract_x
_atom_site_fract_y
_atom_site_fract_z
O1	O	0.926150	0.049381	-0.087158
O2	O	1.426150	0.549381	0.412842
O3	O	0.722838	0.049342	-0.098892
O4	O	1.222838	0.549342	0.401108
O5	O	0.830361	0.049351	0.008630
O6	O	1.330361	0.549351	0.508630
O7	O	0.818627	0.049372	-0.194681
O8	O	1.318627	0.549372	0.305319
O9	O	0.830342	-0.049018	0.008615
O10	O	1.330342	0.450982	0.508615
O11	O	0.722819	-0.049028	-0.098908
O12	O	1.222819	0.450972	0.401092
O13	O	0.926131	-0.048988	-0.087174
O14	O	1.426131	0.451012	0.412826
Zn15	Zn	0.824472	-0.064626	-0.093043
Zn16	Zn	1.324472	0.435374	0.406957
Zn17	Zn	0.824497	0.064980	-0.093023
Zn18	Zn	1.324497	0.564980	0.406977
O19	O	0.818608	-0.048997	-0.194697
O20	O	1.318608	0.451003	0.305303
C21	C	0.696818	0.000152	-0.098520
C22	C	1.196818	0.500152	0.401480
C23	C	0.619313	0.000136	-0.097380
C24	C	1.119313	0.500136	0.402620
N25	N	0.824460	-0.153078	-0.093057
N26	N	1.324460	0.346922	0.406943
C27	C	0.574389	0.000152	-0.160470
C28	C	1.074389	0.500152	0.339530
C29	C	0.501566	0.000158	-0.159399
C30	C	1.001566	0.500158	0.340601
C31	C	0.473669	0.000161	-0.095233
C32	C	0.973669	0.500161	0.404767
C33	C	0.518603	0.000142	-0.032133
C34	C	1.018603	0.500142	0.467867
C35	C	0.591425	0.000129	-0.033207
C36	C	1.091425	0.500129	0.466793
N37	N	0.365695	0.033659	-0.046180
N38	N	0.865695	0.533659	0.453820
N39	N	0.296517	0.033672	-0.045165
N40	N	0.796517	0.533672	0.454835
C41	C	0.254260	0.000197	-0.091994
C42	C	0.754260	0.500197	0.408006
N43	N	0.283795	-0.033285	-0.139889
N44	N	0.783795	0.466715	0.360111
N45	N	0.352979	-0.033295	-0.140906
N46	N	0.852979	0.466705	0.359094
C47	C	0.394707	0.000174	-0.094061
C48	C	0.894707	0.500174	0.405939
C49	C	0.130372	0.000218	-0.153928
C50	C	0.630372	0.500218	0.346072
C51	C	0.057547	0.000221	-0.152853
C52	C	0.557547	0.500221	0.347147
C53	C	0.074586	0.000211	-0.025586
C54	C	0.574586	0.500211	0.474414
C55	C	0.147409	0.000202	-0.026662
C56	C	0.647409	0.500202	0.473338
C57	C	0.175298	0.000209	-0.090835
C58	C	0.675298	0.500209	0.409165
C59	C	0.872110	-0.561716	-0.045419
C60	C	1.372110	-0.061716	0.454581
C61	C	0.872114	-0.623636	-0.045414
C62	C	1.372114	-0.123636	0.454586
O63	O	0.912598	-0.655651	-0.004921
O64	O	1.412598	-0.155651	0.495079
N65	N	0.824497	-0.654616	-0.093008
N66	N	1.324497	-0.154616	0.406992
C67	C	0.776868	-0.623672	-0.140606
C68	C	1.276868	-0.123672	0.359394
O69	O	0.736366	-0.655709	-0.181088
O70	O	1.236366	-0.155709	0.318912
C71	C	0.776862	-0.561754	-0.140607
C72	C	1.276862	-0.061754	0.359393
C73	C	0.824487	-0.530777	-0.093014
C74	C	1.324487	-0.030777	0.406986
C75	C	0.919731	-0.530739	0.002171
C76	C	1.419731	-0.030739	0.502171
C77	C	0.919728	-0.468823	0.002164
C78	C	1.419728	0.031177	0.502164
C79	C	0.872105	-0.437884	-0.045431
C80	C	1.372105	0.062116	0.454569
C81	C	0.824484	-0.468861	-0.093021
C82	C	1.324484	0.031139	0.406979
C83	C	0.729230	-0.530812	-0.188201
C84	C	1.229230	-0.030812	0.311799
C85	C	0.729227	-0.468889	-0.188198
C86	C	1.229227	0.031111	0.311802
C87	C	0.776853	-0.437912	-0.140605
C88	C	1.276853	0.062088	0.359395
C89	C	0.776857	-0.376007	-0.140622
C90	C	1.276857	0.123993	0.359378
N91	N	0.824475	-0.345027	-0.093028
N92	N	1.324475	0.154973	0.406972
C93	C	0.872098	-0.375966	-0.045432
C94	C	1.372098	0.124034	0.454568
C95	C	0.776884	-0.753706	-0.140599
C96	C	1.276884	-0.253706	0.359401
C97	C	0.776893	-0.815624	-0.140602
C98	C	1.276893	-0.315624	0.359398
C99	C	0.872138	-0.815583	-0.045409
C100	C	1.372138	-0.315583	0.454591
C101	C	0.872132	-0.753664	-0.045410
C102	C	1.372132	-0.253664	0.454590
C103	C	0.824501	-0.722726	-0.093005
C104	C	1.324501	-0.222726	0.406995
C105	C	0.872089	-0.245938	-0.045449
C106	C	1.372089	0.254062	0.454551
C107	C	0.872084	-0.184017	-0.045461
C108	C	1.372084	0.315983	0.454539
C109	C	0.776836	-0.184064	-0.140652
C110	C	1.276836	0.315936	0.359348
C111	C	0.776844	-0.245979	-0.140643
C112	C	1.276844	0.254021	0.359357
C113	C	0.824473	-0.276915	-0.093035
C114	C	1.324473	0.223085	0.406965
O115	O	0.736392	-0.343952	-0.181093
O116	O	1.236392	0.156048	0.318907
O117	O	0.912588	-0.343921	-0.004951
O118	O	1.412588	0.156079	0.495049
C119	C	0.952151	0.000203	-0.087546
C120	C	1.452151	0.500203	0.412454
C121	C	1.029656	0.000223	-0.088687
C122	C	1.529656	0.500223	0.411313
C123	C	0.829972	0.000165	0.034634
C124	C	1.329972	0.500165	0.534634
C125	C	0.828831	0.000159	0.112138
C126	C	1.328831	0.500159	0.612138
N127	N	0.824515	0.153432	-0.093004
N128	N	1.324515	0.653432	0.406996
C129	C	0.818997	0.000190	-0.220700
C130	C	1.318997	0.500190	0.279300
C131	C	0.820138	0.000200	-0.298204
C132	C	1.320138	0.500200	0.201796
C133	C	0.891922	0.000169	0.157062
C134	C	1.391922	0.500169	0.657062
C135	C	0.890850	0.000178	0.229886
C136	C	1.390850	0.500178	0.729886
C137	C	0.826684	0.000166	0.257782
C138	C	1.326684	0.500166	0.757782
C139	C	0.763585	0.000160	0.212849
C140	C	1.263585	0.500160	0.712849
C141	C	0.764658	0.000157	0.140026
C142	C	1.264658	0.500157	0.640026
N143	N	0.777630	-0.033320	0.365782
N144	N	1.277630	0.466680	0.865782
N145	N	0.776615	-0.033319	0.434961
N146	N	1.276615	0.466681	0.934961
C147	C	0.823446	0.000177	0.477191
C148	C	1.323446	0.500177	0.977191
N149	N	0.871342	0.033664	0.447631
N150	N	1.371342	0.533664	0.947631
N151	N	0.872359	0.033659	0.378446
N152	N	1.372359	0.533659	0.878446
C153	C	0.825513	0.000170	0.336745
C154	C	1.325513	0.500170	0.836745
C155	C	0.885379	0.000198	0.601079
C156	C	1.385379	0.500198	1.101079
C157	C	0.884305	0.000211	0.673904
C158	C	1.384305	0.500211	1.173904
C159	C	0.757038	0.000186	0.656865
C160	C	1.257038	0.500186	1.156865
C161	C	0.758114	0.000179	0.584042
C162	C	1.258114	0.500179	1.084042
C163	C	0.822287	0.000182	0.556154
C164	C	1.322287	0.500182	1.056154
H165	H	0.597091	0.000159	-0.212725
H166	H	1.097091	0.500159	0.287275
Cl167	Cl	0.717029	-0.854559	-0.200444
Cl168	Cl	1.217029	-0.354559	0.299556
H169	H	0.958512	-0.555924	0.040932
H170	H	1.458512	-0.055924	0.540932
H171	H	0.704792	0.000180	0.679578
H172	H	1.204792	0.500180	1.179578
Cl173	Cl	0.203888	0.000186	0.052657
Cl174	Cl	0.703888	0.500186	0.552657
Cl175	Cl	0.717005	-0.714819	-0.200445
Cl176	Cl	1.217005	-0.214819	0.299555
H177	H	0.738070	-0.271201	-0.179404
H178	H	1.238070	0.228799	0.320596
H179	H	0.937632	0.000203	0.578372
H180	H	1.437632	0.500203	1.078372
Cl181	Cl	0.972596	0.000189	0.122006
Cl182	Cl	1.472596	0.500189	0.622006
Cl183	Cl	0.931961	-0.145078	0.014373
Cl184	Cl	1.431961	0.354922	0.514373
H185	H	0.495885	0.000152	0.020111
H186	H	0.995885	0.500152	0.520111
Cl187	Cl	0.970170	0.000191	0.286372
Cl188	Cl	1.470170	0.500191	0.786372
Cl189	Cl	0.682919	0.000149	0.247918
Cl190	Cl	1.182919	0.500149	0.747918
H191	H	0.690449	-0.556024	-0.226955
H192	H	1.190449	-0.056024	0.273045
H193	H	0.706738	0.000168	0.547464
H194	H	1.206738	0.500168	1.047464
H195	H	0.628003	0.000117	0.018171
H196	H	1.128003	0.500117	0.518171
H197	H	0.153080	0.000215	-0.206181
H198	H	0.653080	0.500215	0.293819
H199	H	0.910872	-0.271119	-0.006682
H200	H	1.410872	0.228881	0.493318
Cl201	Cl	0.445079	0.000177	-0.238719
Cl202	Cl	0.945079	0.500177	0.261281
H203	H	0.713281	0.000149	0.103449
H204	H	1.213281	0.500149	0.603449
Cl205	Cl	0.932007	-0.854490	0.014427
Cl206	Cl	1.432007	-0.354490	0.514427
H207	H	0.690438	-0.443702	-0.226955
H208	H	1.190438	0.056298	0.273045
H209	H	0.051874	0.000249	0.026659
H210	H	0.551874	0.500249	0.526659
Cl211	Cl	0.963627	0.000227	0.730382
Cl212	Cl	1.463627	0.500227	1.230382
Cl213	Cl	0.979597	-0.429888	0.062002
Cl214	Cl	1.479597	0.070112	0.562002
H215	H	0.020970	0.000231	-0.204232
H216	H	0.520970	0.500231	0.295768
H217	H	0.738064	-0.158864	-0.179406
H218	H	1.238064	0.341136	0.320594
Cl219	Cl	0.932004	-0.714728	0.014425
Cl220	Cl	1.432004	-0.214728	0.514425
