data_functionalizedCrystal
_audit_creation_method	'MofGen! by Chris Wilmer'
_symmetry_space_group_name_H-M	'P1'
_symmetry_Int_Tables_number	1
_symmetry_cell_setting	triclinic
loop_
_symmetry_equiv_pos_as_xyz
  x,y,z
_cell_length_a	19.188925
_cell_length_b	19.188930
_cell_length_c	7.540329
_cell_angle_alpha	90.010644
_cell_angle_beta	90.001414
_cell_angle_gamma	83.143665
loop_
_atom_site_label
_atom_site_type_symbol
_atom_site_fract_x
_atom_site_fract_y
_atom_site_fract_z
O1	O	0.926143	0.087151	0.147540
O2	O	0.722831	0.098889	0.147538
O3	O	0.830354	-0.008636	0.147505
O4	O	0.818620	0.194676	0.147574
O5	O	0.830353	-0.008642	-0.147460
O6	O	0.722830	0.098883	-0.147427
O7	O	0.926142	0.087145	-0.147425
Cu8	Cu	0.824486	0.093013	-0.174358
Cu9	Cu	0.824487	0.093020	0.174472
O10	O	0.818619	0.194670	-0.147391
C11	C	0.696820	0.098507	0.000055
C12	C	0.619315	0.097367	0.000053
C13	C	0.057545	0.152831	0.000076
C14	C	0.130368	0.153908	0.000086
C15	C	0.175302	0.090816	0.000061
C16	C	0.147408	0.026642	0.000072
C17	C	0.074586	0.025568	0.000080
N18	N	0.295979	0.045138	-0.100363
N19	N	0.365157	0.046163	-0.100374
C20	C	0.394712	0.094050	0.000041
N21	N	0.352474	0.140884	0.100446
N22	N	0.283291	0.139860	0.100449
C23	C	0.254267	0.091974	0.000053
C24	C	0.501561	0.159386	0.000053
C25	C	0.574385	0.160460	0.000074
C26	C	0.591425	0.033193	0.000043
C27	C	0.518601	0.032121	0.000040
C28	C	0.473673	0.095220	0.000037
C29	C	0.829974	-0.034650	0.000017
C30	C	0.828833	-0.112154	0.000002
C31	C	0.891924	-0.157079	-0.000006
C32	C	0.890852	-0.229903	0.000022
C33	C	0.826686	-0.257799	0.000023
C34	C	0.763587	-0.212864	0.000041
C35	C	0.764660	-0.140041	0.000030
N36	N	0.777638	-0.365805	-0.100360
N37	N	0.776623	-0.434983	-0.100353
C38	C	0.823448	-0.477207	0.000059
N39	N	0.871338	-0.447641	0.100442
N40	N	0.872355	-0.378456	0.100428
C41	C	0.825515	-0.336761	0.000036
C42	C	0.885381	-0.601097	0.000084
C43	C	0.884307	-0.673922	0.000124
C44	C	0.757040	-0.656880	0.000124
C45	C	0.758116	-0.584057	0.000103
C46	C	0.822289	-0.556170	0.000074
C47	C	0.952154	0.087527	0.000063
C48	C	1.029658	0.088666	0.000077
C49	C	0.819000	0.220684	0.000100
C50	C	0.820140	0.298188	0.000127
N51	N	0.824488	0.093020	0.419820
N52	N	0.824491	0.093008	-0.419707
H53	H	0.020968	0.204211	0.000082
H54	H	0.628010	-0.018178	0.000036
H55	H	0.944179	-0.134379	-0.000023
H56	H	0.704794	-0.679592	0.000134
H57	H	0.706740	-0.547478	0.000099
H58	H	0.711342	-0.235581	0.000045
H59	H	0.942230	-0.266488	0.000023
H60	H	0.464978	0.210765	0.000054
O61	O	0.191125	-0.034599	0.000281
C62	C	0.233752	-0.037786	0.153060
H63	H	0.237264	0.017625	0.203997
H64	H	0.209896	-0.069596	0.260032
C65	C	0.303481	-0.141201	0.044073
C66	C	0.307800	-0.073145	0.106627
H67	H	0.349157	-0.163015	0.015436
H68	H	0.274762	-0.139057	-0.058854
H69	H	0.283598	-0.167702	0.133227
H70	H	0.327675	-0.046643	0.017466
H71	H	0.336525	-0.075286	0.209538
H72	H	0.597088	0.212713	0.000088
H73	H	0.495896	-0.020129	0.000030
H74	H	0.713282	-0.103462	0.000036
O75	O	0.047578	-0.036809	0.000307
C76	C	0.070541	-0.075243	0.153087
H77	H	0.120992	-0.056369	0.204024
H78	H	0.028374	-0.067022	0.260058
C79	C	0.022468	-0.177011	0.044105
C80	C	0.084437	-0.153833	0.106658
H81	H	0.031037	-0.225490	0.015470
H82	H	0.006995	-0.151117	-0.058824
H83	H	-0.012665	-0.170154	0.133258
H84	H	0.119565	-0.160682	0.017497
H85	H	0.099916	-0.179731	0.209571
O86	O	0.157350	0.216302	-0.000003
C87	C	0.102080	0.271763	0.000047
H88	H	0.052664	0.252341	-0.055784
H89	H	0.091721	0.291226	0.141556
C90	C	0.183145	0.356142	-0.047068
C91	C	0.122453	0.332289	-0.115654
H92	H	0.195712	0.393479	-0.118429
H93	H	0.220382	0.318777	-0.047094
H94	H	0.174505	0.372356	0.070856
H95	H	0.131097	0.316067	-0.233566
H96	H	0.085218	0.369652	-0.115649
O97	O	0.947776	-0.574118	0.000167
C98	C	1.003235	-0.629391	0.000147
H99	H	0.983813	-0.678798	0.055994
H100	H	1.022692	-0.639770	-0.141355
C101	C	1.087620	-0.548324	0.047244
C102	C	1.063768	-0.609005	0.115849
H103	H	1.124962	-0.535749	0.118606
H104	H	1.050258	-0.511085	0.047250
H105	H	1.103830	-0.556981	-0.070674
H106	H	1.047551	-0.600345	0.233755
H107	H	1.101129	-0.646242	0.115865
H108	H	0.935686	-0.710500	0.000127
