data_functionalizedCrystal
_audit_creation_method	'MofGen! by Chris Wilmer'
_symmetry_space_group_name_H-M	'P1'
_symmetry_Int_Tables_number	1
_symmetry_cell_setting	triclinic
loop_
_symmetry_equiv_pos_as_xyz
  x,y,z
_cell_length_a	6.817900
_cell_length_b	11.102188
_cell_length_c	14.125465
_cell_angle_alpha	94.635462
_cell_angle_beta	100.398878
_cell_angle_gamma	108.603875
loop_
_atom_site_label
_atom_site_type_symbol
_atom_site_fract_x
_atom_site_fract_y
_atom_site_fract_z
V1	V	-4.017258	-0.174747	-0.299976
O2	O	-3.978095	0.009521	-0.294266
O3	O	-3.994670	-0.347575	-0.297925
O4	O	-3.952928	-0.171566	-0.430807
O5	O	-4.020126	-0.167706	-0.160465
V6	V	-4.499605	-0.152765	-0.283290
O7	O	-4.281095	-0.222967	-0.336580
O8	O	-4.685966	-0.104545	-0.246686
O9	O	-4.298986	0.020063	-0.285341
O10	O	-4.656165	-0.337033	-0.289000
O11	O	-4.614134	-0.159806	-0.422802
O12	O	-4.340729	-0.155946	-0.152460
C13	C	-3.846466	-0.389722	-0.293193
C14	C	-3.909178	-0.531007	-0.292387
C15	C	-3.793218	-0.165204	-0.462695
C16	C	-3.822076	-0.163747	-0.569649
C17	C	-3.906158	-0.579555	-0.203903
C18	C	-3.965106	-0.712309	-0.203150
C19	C	-4.030084	-0.747957	-0.379374
C20	C	-3.971151	-0.615206	-0.380126
C21	C	-4.123918	-0.876464	-0.099352
C22	C	-4.120863	-0.925014	-0.010862
C23	C	-3.955734	-0.862046	0.069772
C24	C	-3.793609	-0.750527	0.061920
C25	C	-3.796650	-0.701984	-0.026570
C26	C	-3.961824	-0.764951	-0.107202
C27	C	-3.812320	-0.451047	-0.483917
C28	C	-3.815345	-0.402500	-0.572409
C29	C	-3.980464	-0.465467	-0.653051
C30	C	-4.142563	-0.576991	-0.645208
C31	C	-4.139538	-0.625537	-0.556717
C32	C	-3.974418	-0.562561	-0.476075
C33	C	-3.874969	-0.161074	-0.765472
C34	C	-4.061262	-0.166435	-0.817794
C35	C	-4.090695	-0.164948	-0.926756
C36	C	-3.845529	-0.162561	-0.656500
C37	C	-4.110534	0.062203	-0.290071
C38	C	-4.027059	0.203487	-0.290882
C39	C	-4.163782	-0.162312	-0.120566
C40	C	-4.114162	-0.163763	-0.013611
H41	H	-3.855699	-0.511003	-0.132461
H42	H	-3.982900	-0.425935	-0.725107
H43	H	-3.664646	-0.611191	-0.032964
H44	H	-3.683330	-0.311699	-0.578793
H45	H	-3.677857	-0.399765	-0.418254
H46	H	-3.659140	-0.699274	0.127581
H47	H	-3.953252	-0.901585	0.141822
H48	H	-4.198655	-0.172154	-0.780755
H49	H	-3.737595	-0.155370	-0.802510
H50	H	-4.252880	-1.015815	-0.004477
C51	C	-4.098197	-0.840587	-0.475875
C52	C	-3.943004	-0.830885	-0.544080
C53	C	-4.011093	-0.923516	-0.640581
C54	C	-4.234374	-1.025850	-0.668877
C55	C	-4.389581	-1.035557	-0.600671
C56	C	-4.321492	-0.942925	-0.504170
H57	H	-3.777706	-0.755127	-0.523135
H58	H	-3.896198	-0.916330	-0.691072
H59	H	-4.284777	-1.094421	-0.740313
H60	H	-4.554879	-1.111314	-0.621616
H61	H	-4.436387	-0.950111	-0.453679
H62	H	-4.258406	-0.927734	-0.165002
H63	H	-4.271535	-0.716349	-0.550337
H64	H	-4.277010	-0.628266	-0.710875
