data_functionalizedCrystal
_audit_creation_method	'MofGen! by Chris Wilmer'
_symmetry_space_group_name_H-M	'P1'
_symmetry_Int_Tables_number	1
_symmetry_cell_setting	triclinic
loop_
_symmetry_equiv_pos_as_xyz
  x,y,z
_cell_length_a	16.109301
_cell_length_b	17.666332
_cell_length_c	16.109301
_cell_angle_alpha	90.007897
_cell_angle_beta	83.461481
_cell_angle_gamma	90.006633
loop_
_atom_site_label
_atom_site_type_symbol
_atom_site_fract_x
_atom_site_fract_y
_atom_site_fract_z
O1	O	1.103138	0.062903	0.106869
O2	O	1.603138	0.562903	0.606869
O3	O	0.861076	0.062915	0.120168
O4	O	1.361076	0.562915	0.620168
O5	O	0.988756	0.062901	-0.007513
O6	O	1.488756	0.562901	0.492487
O7	O	0.975457	0.062917	0.234549
O8	O	1.475457	0.562917	0.734549
O9	O	0.988734	-0.062996	-0.007520
O10	O	1.488734	0.437004	0.492480
O11	O	0.861053	-0.062982	0.120161
O12	O	1.361053	0.437018	0.620161
O13	O	1.103115	-0.062994	0.106862
O14	O	1.603115	0.437006	0.606862
Cu15	Cu	0.982082	-0.074483	0.113511
Cu16	Cu	1.482082	0.425517	0.613511
Cu17	Cu	0.982109	0.074404	0.113519
Cu18	Cu	1.482109	0.574404	0.613519
O19	O	0.975435	-0.062980	0.234542
O20	O	1.475435	0.437020	0.734542
C21	C	0.830090	-0.000032	0.119626
C22	C	1.330090	0.499968	0.619626
C23	C	0.737794	-0.000027	0.118011
C24	C	1.237794	0.499973	0.618011
C25	C	0.515522	-0.000031	0.190018
C26	C	1.015522	0.499969	0.690018
C27	C	0.428801	-0.000036	0.188494
C28	C	0.928801	0.499964	0.688494
C29	C	0.448676	-0.000043	0.037006
C30	C	0.948676	0.499957	0.537006
C31	C	0.535394	-0.000044	0.038530
C32	C	1.035394	0.499956	0.538530
C33	C	0.568815	-0.000034	0.115039
C34	C	1.068815	0.499966	0.615039
C35	C	0.395376	-0.000038	0.111990
C36	C	0.895376	0.499962	0.611990
C37	C	0.301350	-0.000044	0.110337
C38	C	0.801350	0.499956	0.610337
C39	C	0.662847	-0.000030	0.116693
C40	C	1.162847	0.499970	0.616693
N41	N	0.982070	-0.179203	0.113505
N42	N	1.482070	0.320797	0.613505
C43	C	1.038625	-0.218819	0.056995
C44	C	1.538625	0.281181	0.556995
C45	C	1.038630	-0.298066	0.056991
C46	C	1.538630	0.201934	0.556991
C47	C	0.982087	-0.337695	0.113511
C48	C	1.482087	0.162305	0.613511
C49	C	0.925521	-0.298069	0.170025
C50	C	1.425521	0.201931	0.670025
C51	C	0.925512	-0.218823	0.170021
C52	C	1.425512	0.281177	0.670021
N53	N	0.971484	-0.462108	0.187080
N54	N	1.471484	0.037892	0.687080
N55	N	0.971497	-0.537389	0.187081
N56	N	1.471497	-0.037389	0.687081
C57	C	0.982109	-0.576459	0.113523
C58	C	1.482109	-0.076459	0.613523
N59	N	0.992723	-0.537404	0.039962
N60	N	1.492723	-0.037404	0.539962
N61	N	0.992714	-0.462117	0.039962
N62	N	1.492714	0.037883	0.539962
C63	C	0.982090	-0.423624	0.113520
C64	C	1.482090	0.076376	0.613520
C65	C	1.038673	-0.702004	0.057004
C66	C	1.538673	-0.202004	0.557004
C67	C	1.038672	-0.781253	0.056999
C68	C	1.538672	-0.281253	0.556999
C69	C	0.925567	-0.781254	0.170040
C70	C	1.425567	-0.281254	0.670040
C71	C	0.925564	-0.702007	0.170038
C72	C	1.425564	-0.202007	0.670038
C73	C	0.982121	-0.662386	0.113521
C74	C	1.482121	-0.162386	0.613521
C75	C	1.134101	-0.000045	0.107404
C76	C	1.634101	0.499955	0.607404
C77	C	1.226397	-0.000045	0.109019
C78	C	1.726397	0.499955	0.609019
C79	C	0.988206	-0.000048	-0.038491
C80	C	1.488206	0.499952	0.461509
C81	C	0.986591	-0.000049	-0.130786
C82	C	1.486591	0.499951	0.369214
N83	N	0.982128	0.179124	0.113518
N84	N	1.482128	0.679124	0.613518
C85	C	1.058599	-0.000040	-0.353059
C86	C	1.558599	0.499960	0.146941
C87	C	1.057075	-0.000034	-0.439779
C88	C	1.557075	0.499966	0.060221
C89	C	0.905586	-0.000029	-0.419905
C90	C	1.405586	0.499971	0.080095
C91	C	0.907111	-0.000030	-0.333186
C92	C	1.407111	0.499970	0.166814
C93	C	0.983620	-0.000040	-0.299766
C94	C	1.483620	0.499960	0.200234
C95	C	0.980571	-0.000032	-0.473205
C96	C	1.480571	0.499968	0.026795
C97	C	0.978918	-0.000026	-0.567231
C98	C	1.478918	0.499974	-0.067231
C99	C	0.985273	-0.000045	-0.205734
C100	C	1.485273	0.499955	0.294266
C101	C	0.975984	-0.000029	0.265521
C102	C	1.475984	0.499971	0.765521
C103	C	0.977600	-0.000023	0.357816
C104	C	1.477600	0.499977	0.857816
H105	H	1.084675	-0.186562	0.010974
H106	H	1.584675	0.313438	0.510974
C107	C	0.411905	-0.000047	-0.047150
C108	C	0.911905	0.499953	0.452850
N109	N	0.384210	-0.000047	-0.110538
N110	N	0.884210	0.499953	0.389462
H111	H	1.084723	-0.669744	0.010982
H112	H	1.584723	-0.169744	0.510982
H113	H	0.578788	-0.000048	-0.022530
H114	H	1.078788	0.499952	0.477470
C115	C	0.370182	-0.000037	0.270977
C116	C	0.870182	0.499963	0.770977
N117	N	0.326030	-0.000040	0.333108
N118	N	0.826030	0.499960	0.833108
H119	H	1.084685	-0.330327	0.010973
H120	H	1.584685	0.169673	0.510973
C121	C	1.100877	-0.824831	-0.005183
C122	C	1.600877	-0.324831	0.494817
N123	N	1.147727	-0.857654	-0.052024
N124	N	1.647727	-0.357654	0.447976
H125	H	0.879526	-0.813519	0.216056
H126	H	1.379526	-0.313519	0.716056
C127	C	0.863331	-0.175244	0.232225
C128	C	1.363331	0.324756	0.732225
N129	N	0.816508	-0.142419	0.279091
N130	N	1.316508	0.357581	0.779091
H131	H	0.879482	-0.330339	0.216042
H132	H	1.379482	0.169661	0.716042
C133	C	0.863408	-0.658428	0.232263
C134	C	1.363408	-0.158428	0.732263
N135	N	0.816608	-0.625604	0.279153
N136	N	1.316608	-0.125604	0.779153
H137	H	1.120897	-0.000046	-0.325851
H138	H	1.620897	0.499954	0.174149
H139	H	1.118130	-0.000033	-0.483168
H140	H	1.618130	0.499967	0.016832
H141	H	0.843295	-0.000023	-0.447127
H142	H	1.343295	0.499977	0.052873
C143	C	0.824624	-0.000026	-0.274560
C144	C	1.324624	0.499974	0.225440
N145	N	0.762497	-0.000019	-0.230402
N146	N	1.262497	0.499981	0.269598
H147	H	0.542730	-0.000029	0.252317
H148	H	1.042730	0.499971	0.752317
