data_functionalizedCrystal
_audit_creation_method	'MofGen! by Chris Wilmer'
_symmetry_space_group_name_H-M	'P1'
_symmetry_Int_Tables_number	1
_symmetry_cell_setting	triclinic
loop_
_symmetry_equiv_pos_as_xyz
  x,y,z
_cell_length_a	6.817900
_cell_length_b	11.168121
_cell_length_c	12.200875
_cell_angle_alpha	92.527554
_cell_angle_beta	107.143593
_cell_angle_gamma	108.508496
loop_
_atom_site_label
_atom_site_type_symbol
_atom_site_fract_x
_atom_site_fract_y
_atom_site_fract_z
V1	V	-4.093962	-0.174991	-0.357670
V2	V	-3.593962	0.325009	0.142330
O3	O	-4.053850	0.008114	-0.350852
O4	O	-3.553850	0.508114	0.149148
O5	O	-4.070358	-0.346695	-0.355234
O6	O	-3.570358	0.153305	0.144766
O7	O	-4.063310	-0.172429	-0.513659
O8	O	-3.563310	0.327571	-0.013659
O9	O	-4.060947	-0.167358	-0.191330
O10	O	-3.560947	0.332642	0.308670
V11	V	-4.572077	-0.153075	-0.337774
V12	V	-4.072077	0.346925	0.162226
O13	O	-4.367083	-0.223068	-0.401316
O14	O	-3.867083	0.276932	0.098684
O15	O	-4.749154	-0.104998	-0.294129
O16	O	-4.249154	0.395002	0.205871
O17	O	-4.372475	0.018629	-0.340210
O18	O	-3.872475	0.518629	0.159790
O19	O	-4.729586	-0.336180	-0.344592
O20	O	-4.229586	0.163820	0.155408
O21	O	-4.722489	-0.160708	-0.504114
O22	O	-4.222489	0.339292	-0.004114
O23	O	-4.379523	-0.155637	-0.181786
O24	O	-3.879523	0.344363	0.318214
C25	C	-3.920817	-0.388548	-0.349594
C26	C	-3.420817	0.111452	0.150406
C27	C	-3.982923	-0.528919	-0.348641
C28	C	-3.482923	-0.028919	0.151359
C29	C	-3.911825	-0.166254	-0.551679
C30	C	-3.411825	0.333746	-0.051679
C31	C	-3.968211	-0.165295	-0.679200
C32	C	-3.468211	0.334705	-0.179200
C33	C	-4.185209	-0.597615	-0.353657
C34	C	-3.685209	-0.097615	0.146343
C35	C	-4.249403	-0.742696	-0.352673
C36	C	-3.749403	-0.242696	0.147327
C37	C	-4.071405	-0.163541	-0.912674
C38	C	-3.571405	0.336459	-0.412674
C39	C	-4.013972	-0.164516	-0.782752
C40	C	-3.513972	0.335484	-0.282752
C41	C	-4.185359	0.060476	-0.345847
C42	C	-3.685359	0.560476	0.154153
C43	C	-4.102492	0.200845	-0.346807
C44	C	-3.602492	0.700845	0.153193
C45	C	-4.194350	-0.161817	-0.143759
C46	C	-3.694350	0.338183	0.356241
C47	C	-4.117202	-0.162769	-0.016237
C48	C	-3.617202	0.337231	0.483763
H49	H	-4.310872	-0.549023	-0.358687
H50	H	-3.810872	-0.049023	0.141313
O51	O	-4.455993	-0.813240	-0.357630
O52	O	-3.955993	-0.313240	0.142370
C53	C	-4.682532	-0.952481	-0.263367
C54	C	-4.182532	-0.452481	0.236633
C55	C	-4.448446	-0.872664	-0.257621
C56	C	-3.948446	-0.372664	0.242379
H57	H	-4.676511	-1.000525	-0.182509
H58	H	-4.176511	-0.500525	0.317491
H59	H	-4.761273	-1.028543	-0.343825
H60	H	-4.261273	-0.528543	0.156175
H61	H	-4.783133	-0.887380	-0.267990
H62	H	-4.283133	-0.387380	0.232010
H63	H	-4.347668	-0.937663	-0.252954
H64	H	-3.847668	-0.437663	0.247046
H65	H	-4.369877	-0.796591	-0.177176
H66	H	-3.869877	-0.296591	0.322824
H67	H	-3.929195	-0.740108	-0.342509
H68	H	-3.429195	-0.240108	0.157491
H69	H	-3.857267	-0.577514	-0.343624
H70	H	-3.357267	-0.077514	0.156376
