data_functionalizedCrystal
_audit_creation_method	'MofGen! by Chris Wilmer'
_symmetry_space_group_name_H-M	'P1'
_symmetry_Int_Tables_number	1
_symmetry_cell_setting	triclinic
loop_
_symmetry_equiv_pos_as_xyz
  x,y,z
_cell_length_a	33.428889
_cell_length_b	33.428139
_cell_length_c	33.424847
_cell_angle_alpha	60.004234
_cell_angle_beta	60.008465
_cell_angle_gamma	59.994972
loop_
_atom_site_label
_atom_site_type_symbol
_atom_site_fract_x
_atom_site_fract_y
_atom_site_fract_z
O1	O	0.055565	-0.584504	0.488714
O2	O	0.020982	-0.455083	0.393778
O3	O	0.102943	-0.536959	0.393689
O4	O	-0.026396	-0.502628	0.488803
O5	O	0.130140	-0.509767	0.420792
O6	O	0.048179	-0.427891	0.420881
O7	O	0.082762	-0.557312	0.515817
Cu8	Cu	0.067954	-0.490119	0.470823
Cu9	Cu	0.035790	-0.522276	0.438771
O10	O	0.000801	-0.475436	0.515906
N11	N	0.090577	-0.467504	0.493370
N12	N	0.013171	-0.544895	0.416225
C13	C	0.143377	-0.280390	0.546067
C14	C	0.143515	-0.414755	0.680369
C15	C	0.143392	-0.414735	0.546069
C16	C	0.277766	-0.414702	0.545966
C17	C	0.158177	-0.324719	0.560828
C18	C	0.158255	-0.399967	0.636038
C19	C	0.233434	-0.399936	0.560773
C20	C	0.158186	-0.399955	0.560829
C21	C	0.124540	-0.223964	0.527278
C22	C	0.124565	-0.433545	0.527281
C23	C	0.177014	-0.381145	0.579617
C24	C	0.359814	-0.400540	0.502735
C25	C	0.411105	-0.417624	0.485606
C26	C	0.411136	-0.500620	0.517255
C27	C	0.359845	-0.483534	0.534385
C28	C	0.136887	-0.198305	0.476855
C29	C	0.119761	-0.147011	0.459777
C30	C	0.077945	-0.147038	0.543547
C31	C	0.095072	-0.198332	0.560625
C32	C	0.074134	-0.421169	0.539710
C33	C	0.057023	-0.438269	0.522625
C34	C	0.140770	-0.480120	0.480694
C35	C	0.157883	-0.463020	0.497773
C36	C	0.074339	-0.421208	0.762475
C37	C	0.057288	-0.438323	0.813768
C38	C	0.141075	-0.480183	0.813699
C39	C	0.158125	-0.463069	0.762404
C40	C	0.124756	-0.433580	0.736794
C41	C	0.334186	-0.433494	0.527123
C42	C	-0.173769	-0.597444	0.363037
C43	C	-0.039302	-0.597595	0.228856
C44	C	-0.039496	-0.597587	0.363300
C45	C	-0.039512	-0.731889	0.363237
C46	C	-0.129442	-0.612265	0.348329
C47	C	-0.054138	-0.612351	0.273187
C48	C	-0.054257	-0.687554	0.348440
C49	C	-0.054247	-0.612346	0.348477
C50	C	-0.230191	-0.578579	0.381758
C51	C	-0.020722	-0.578803	0.382168
C52	C	-0.073020	-0.631130	0.329609
C53	C	-0.053713	-0.813916	0.406386
C54	C	-0.036654	-0.865210	0.423504
C55	C	0.046338	-0.865293	0.391984
C56	C	0.029278	-0.813999	0.374865
C57	C	-0.255900	-0.590938	0.432169
C58	C	-0.307191	-0.573786	0.449185
C59	C	-0.307060	-0.531922	0.365377
C60	C	-0.255769	-0.549074	0.348360
C61	C	-0.033081	-0.528377	0.369764
C62	C	-0.016014	-0.511306	0.386922
C63	C	0.025770	-0.595083	0.428877
C64	C	0.008703	-0.612156	0.411725
C65	C	-0.032755	-0.528393	0.146761
C66	C	-0.015585	-0.511324	0.095468
C67	C	0.026262	-0.595106	0.095516
C68	C	0.009094	-0.612174	0.146811
C69	C	-0.020417	-0.578816	0.172432
C70	C	-0.020748	-0.788312	0.382068
N71	N	0.436037	-0.467415	0.493101
O72	O	0.592642	-0.471896	0.376066
O73	O	0.592838	-0.567146	0.505347
O74	O	0.592754	-0.566928	0.423360
O75	O	0.592727	-0.472113	0.458053
O76	O	0.511269	-0.539835	0.450606
O77	O	0.511353	-0.540052	0.532594
O78	O	0.511157	-0.444802	0.403312
Cu79	Cu	0.503815	-0.489954	0.470441
Cu80	Cu	0.600180	-0.521995	0.438219
O81	O	0.511242	-0.445020	0.485300
N82	N	0.667959	-0.544533	0.415554
N83	N	0.090544	-0.122107	0.493359
O84	O	-0.026406	0.034587	0.488773
O85	O	0.102877	0.034627	0.393499
O86	O	0.020848	0.034591	0.393771
O87	O	0.055623	0.034623	0.488500
O88	O	0.048051	-0.046899	0.420925
O89	O	0.130080	-0.046864	0.420653
O90	O	0.000796	-0.046903	0.515927
Cu91	Cu	0.067922	-0.054324	0.470769
Cu92	Cu	0.035752	0.042048	0.438656
O93	O	0.082825	-0.046867	0.515655
N94	N	0.013123	0.109830	0.416068
N95	N	0.090892	-0.467554	0.838649
O96	O	0.086330	-0.584488	0.995334
O97	O	-0.008902	-0.455160	0.995379
O98	O	-0.008679	-0.537172	0.995355
O99	O	0.086107	-0.502475	0.995358
O100	O	0.018452	-0.509990	0.913868
O101	O	0.018230	-0.427978	0.913891
O102	O	0.113461	-0.557306	0.913847
Cu103	Cu	0.068323	-0.490160	0.906429
Cu104	Cu	0.036237	-0.522306	1.002797
O105	O	0.113239	-0.475293	0.913870
N106	N	0.013667	-0.544916	1.070577
C107	C	0.031339	-0.425179	0.394250
C108	C	0.132837	-0.526572	0.394139
C109	C	0.072405	-0.587216	0.515344
C110	C	-0.029093	-0.485823	0.515455
C111	C	0.552119	-0.566716	0.535258
C112	C	0.552016	-0.566447	0.433726
C113	C	0.551873	-0.445232	0.373402
C114	C	0.551980	-0.445502	0.474933
C115	C	0.132731	-0.006013	0.393923
C116	C	0.031182	-0.006158	0.394293
C117	C	-0.029092	-0.006163	0.515469
C118	C	0.072491	-0.006119	0.515133
C119	C	-0.008451	-0.425276	0.954641
C120	C	-0.008170	-0.526833	0.954596
C121	C	0.113010	-0.587190	0.954585
C122	C	0.112735	-0.485627	0.954611
H123	H	0.016234	-0.428240	0.834672
H124	H	0.023949	-0.388000	0.364433
H125	H	0.169984	-0.533889	0.364272
H126	H	0.087072	-0.886205	0.386121
O127	O	-0.073422	-0.006145	0.551089
C128	C	-0.103930	-0.006170	0.533481
H129	H	-0.090683	0.009251	0.491746
H130	H	-0.143175	0.017488	0.548510
H131	H	-0.102602	-0.045268	0.545949
H132	H	0.169783	-0.005775	0.363939
O133	O	0.551942	-0.601939	0.424880
C134	C	0.509719	-0.585086	0.413382
H135	H	0.480215	-0.554679	0.429221
H136	H	0.495587	-0.616660	0.429736
H137	H	0.519209	-0.570292	0.371893
H138	H	0.079796	-0.624394	0.545162
O139	O	0.148742	-0.631464	0.954548
C140	C	0.190910	-0.631456	0.954558
H141	H	0.190321	-0.592151	0.939141
H142	H	0.225009	-0.653236	0.930889
H143	H	0.191498	-0.648974	0.993649
O144	O	0.081285	-0.006091	0.550688
C145	C	0.039238	-0.006116	0.592989
H146	H	0.005536	0.009300	0.582312
H147	H	0.034960	0.017547	0.611227
H148	H	0.043218	-0.045214	0.619632
O149	O	-0.073428	-0.477011	0.551042
C150	C	-0.103888	-0.428874	0.533335
H151	H	-0.080302	-0.405601	0.501862
H152	H	-0.127353	-0.412471	0.564085
H153	H	-0.128640	-0.429624	0.519742
H154	H	0.338923	-0.359792	0.496821
H155	H	0.552170	-0.596617	0.572390
O156	O	0.551821	-0.409614	0.329076
C157	C	0.551786	-0.427251	0.298597
H158	H	0.567259	-0.468986	0.311841
H159	H	0.575392	-0.412199	0.259335
H160	H	0.512681	-0.414830	0.299967
O161	O	-0.044061	-0.380925	0.954591
C162	C	-0.027329	-0.343984	0.912387
H163	H	0.014433	-0.357459	0.898309
H164	H	-0.041655	-0.309798	0.921890
H165	H	-0.041237	-0.334821	0.882838
O166	O	0.551946	-0.410013	0.483873
C167	C	0.552022	-0.427869	0.532016
H168	H	0.536637	-0.459344	0.555205
H169	H	0.528361	-0.397194	0.548521
H170	H	0.591129	-0.441507	0.531253
H171	H	0.142514	-0.478200	0.954606
H172	H	0.023733	-0.006162	0.364531
O173	O	-0.043621	-0.535745	0.954532
C174	C	-0.025771	-0.583909	0.954516
H175	H	0.015963	-0.596807	0.939106
H176	H	-0.040672	-0.584600	0.930829
H177	H	-0.038170	-0.609266	0.993599
H178	H	0.050281	-0.622271	0.074658
O179	O	0.041903	-0.392633	0.737621
C180	C	0.012244	-0.418537	0.750187
H181	H	0.032071	-0.459574	0.764266
H182	H	0.004452	-0.409354	0.716472
H183	H	-0.023774	-0.407630	0.779984
O184	O	0.173557	-0.508839	0.838501
C185	C	0.221713	-0.516079	0.804836
H186	H	0.221587	-0.510335	0.768281
H187	H	0.246087	-0.554981	0.819629
H188	H	0.236406	-0.488776	0.799375
H189	H	0.199181	-0.473148	0.741498
H190	H	0.015959	-0.428182	0.532734
O191	O	0.041749	-0.392464	0.568296
C192	C	0.012054	-0.349452	0.542426
H193	H	0.031830	-0.342309	0.501386
H194	H	0.004302	-0.317143	0.551605
H195	H	-0.023981	-0.354121	0.553369
O196	O	0.173204	-0.508734	0.452020
C197	C	0.221385	-0.516001	0.444728
H198	H	0.221296	-0.485077	0.450457
H199	H	0.245708	-0.516257	0.405818
H200	H	0.236110	-0.552544	0.472011
H201	H	0.338981	-0.510371	0.554246
O202	O	0.206856	-0.474977	0.485731
C203	C	0.214816	-0.453575	0.507146
H204	H	0.181154	-0.420656	0.514905
H205	H	0.248043	-0.441119	0.480938
H206	H	0.221689	-0.481643	0.542911
O207	O	0.436008	-0.549231	0.524279
C208	C	0.423462	-0.564895	0.501250
H209	H	0.386205	-0.538891	0.496911
H210	H	0.421731	-0.603489	0.524595
H211	H	0.452303	-0.564973	0.463626
O212	O	0.435928	-0.385544	0.461903
C213	C	0.402283	-0.337714	0.459176
H214	H	0.365711	-0.335723	0.462566
H215	H	0.417074	-0.310602	0.422511
H216	H	0.396857	-0.328139	0.490245
H217	H	0.160882	-0.219171	0.449698
H218	H	0.053957	-0.126168	0.570702
O219	O	0.131730	-0.122134	0.410783
C220	C	0.114156	-0.134662	0.389505
H221	H	0.109158	-0.171914	0.413823
H222	H	0.141617	-0.136399	0.351764
H223	H	0.077483	-0.105804	0.385721
O224	O	0.083136	-0.223221	0.609614
C225	C	0.100691	-0.210656	0.630877
H226	H	0.132309	-0.196549	0.601647
H227	H	0.114034	-0.244380	0.661109
H228	H	0.069925	-0.180880	0.647069
O229	O	-0.027666	-0.462336	0.070558
C230	C	-0.079033	-0.440992	0.083021
H231	H	-0.095577	-0.470174	0.097085
H232	H	-0.088798	-0.410753	0.049257
H233	H	-0.094262	-0.424790	0.112796
O234	O	-0.061353	-0.495967	0.171624
C235	C	-0.035452	-0.466336	0.159133
H236	H	0.005584	-0.486179	0.145098
H237	H	-0.044678	-0.458567	0.192875
H238	H	-0.046319	-0.430303	0.129326
H239	H	-0.057039	-0.501216	0.345698
O240	O	0.021021	-0.661163	0.171725
C241	C	0.003510	-0.682437	0.159127
H242	H	-0.028085	-0.653206	0.144964
H243	H	-0.009853	-0.712650	0.192846
H244	H	0.034308	-0.698658	0.129384
O245	O	-0.027947	-0.462319	0.374786
C246	C	-0.010330	-0.441055	0.323412
H247	H	0.021302	-0.470295	0.306924
H248	H	0.003012	-0.410851	0.313625
H249	H	-0.041059	-0.424824	0.308147
O250	O	0.054409	-0.627533	0.457528
C251	C	0.097447	-0.657216	0.431673
H252	H	0.090613	-0.657713	0.401778
H253	H	0.108221	-0.696112	0.458016
H254	H	0.128309	-0.641824	0.414318
O255	O	0.020687	-0.661151	0.423855
C256	C	0.003064	-0.682427	0.475226
H257	H	-0.001985	-0.658111	0.493196
H258	H	0.030518	-0.720173	0.487261
H259	H	-0.033592	-0.686201	0.486762
H260	H	0.056124	-0.793157	0.355062
H261	H	-0.094449	-0.793002	0.412253
O262	O	-0.068744	-0.890009	0.447136
C263	C	-0.116556	-0.856339	0.449812
H264	H	-0.118547	-0.819783	0.446462
H265	H	-0.143700	-0.871129	0.486443
H266	H	-0.126084	-0.850880	0.418696
O267	O	-0.231130	-0.619575	0.464677
C268	C	-0.264822	-0.626810	0.512822
H269	H	-0.301362	-0.595856	0.512673
H270	H	-0.250043	-0.627092	0.537220
H271	H	-0.270304	-0.663332	0.527505
H272	H	-0.328125	-0.583847	0.490235
H273	H	-0.327887	-0.507903	0.338181
H274	H	-0.234840	-0.539009	0.307312
