data_functionalizedCrystal
_audit_creation_method	'MofGen! by Chris Wilmer'
_symmetry_space_group_name_H-M	'P1'
_symmetry_Int_Tables_number	1
_symmetry_cell_setting	triclinic
loop_
_symmetry_equiv_pos_as_xyz
  x,y,z
_cell_length_a	17.699083
_cell_length_b	14.971486
_cell_length_c	14.048226
_cell_angle_alpha	90.001501
_cell_angle_beta	89.992674
_cell_angle_gamma	96.551428
loop_
_atom_site_label
_atom_site_type_symbol
_atom_site_fract_x
_atom_site_fract_y
_atom_site_fract_z
O1	O	0.098633	-1.186608	-0.079053
O2	O	0.110445	-0.926167	-0.079079
O3	O	-0.005632	-1.063746	-0.079057
O4	O	0.214710	-1.049030	-0.079075
O5	O	-0.005639	-1.063729	0.079264
O6	O	0.110438	-0.926151	0.079242
O7	O	0.098626	-1.186591	0.079268
Zn8	Zn	0.104531	-1.056368	0.104392
Zn9	Zn	0.104540	-1.056390	-0.104203
O10	O	0.214703	-1.049013	0.079246
C11	C	0.109913	-0.892836	0.000078
C12	C	0.108330	-0.793544	0.000068
C13	C	-0.033834	-1.063210	0.000104
C14	C	-0.117856	-1.061628	0.000104
N15	N	0.104524	-1.056360	0.246753
C16	C	-0.166278	-1.142384	0.000113
C17	C	-0.245225	-1.140892	0.000105
C18	C	-0.275748	-1.058644	0.000094
C19	C	-0.227320	-0.977882	0.000081
C20	C	-0.148374	-0.979375	0.000083
C21	C	-0.545698	-0.971860	0.000073
C22	C	-0.624649	-0.970374	0.000074
C23	C	-0.642548	-1.133378	0.000095
C24	C	-0.563603	-1.134871	0.000096
C25	C	-0.515181	-1.054109	0.000079
C26	C	-0.429578	-1.055728	0.000087
C27	C	-0.361350	-1.057024	0.000093
C28	C	0.242905	-1.049549	0.000083
C29	C	0.326927	-1.051131	0.000077
C30	C	0.099158	-1.219923	0.000109
C31	C	0.100741	-1.319214	0.000112
C32	C	0.176522	-0.736085	0.000064
C33	C	0.175030	-0.642790	0.000078
C34	C	0.105346	-0.606958	0.000090
C35	C	0.037148	-0.664425	0.000097
C36	C	0.038641	-0.757717	0.000090
C37	C	0.034042	-0.469973	0.000111
C38	C	0.032549	-0.376674	0.000117
C39	C	0.170431	-0.355046	0.000099
C40	C	0.171924	-0.448339	0.000092
C41	C	0.103726	-0.505799	0.000097
N42	N	0.104541	-1.056406	-0.246564
C43	C	0.053147	-1.117299	0.296581
C44	C	0.053146	-1.117305	0.396238
C45	C	0.104528	-1.056376	0.446066
C46	C	0.155908	-0.995431	0.396231
C47	C	0.155904	-0.995421	0.296576
C48	C	0.155913	-0.995456	0.603946
C49	C	0.155918	-0.995467	0.703608
C50	C	0.053156	-1.117340	0.703608
C51	C	0.053152	-1.117331	0.603953
C52	C	0.104533	-1.056386	0.554125
H53	H	-0.141433	-1.209360	0.000128
H54	H	-0.506282	-0.906099	0.000059
H55	H	-0.021492	-0.516756	0.000117
O56	O	-0.297446	-1.227999	0.000122
H57	H	-0.333829	-1.231238	-0.064414
O58	O	-0.260236	-0.889168	0.000066
H59	H	-0.240789	-0.850364	0.064587
H60	H	0.011317	-1.166948	0.563383
H61	H	-0.649498	-0.903394	0.000067
H62	H	0.197751	-0.945826	0.563379
O63	O	-0.694779	-1.220487	0.000104
H64	H	-0.683929	-1.259838	0.064646
H65	H	-0.024194	-0.347502	0.000127
O66	O	-0.002268	-1.183079	0.757336
H67	H	-0.039117	-1.145524	0.802744
H68	H	0.197741	-0.945816	0.436807
O69	O	-0.096145	-0.892273	0.000086
H70	H	-0.107001	-0.852905	-0.064443
O71	O	-0.530679	-1.223580	0.000095
H72	H	-0.577614	-1.279486	0.000087
O73	O	0.251682	-0.774732	0.000061
H74	H	0.298849	-0.719099	0.000073
O75	O	0.248579	-0.580812	0.000074
H76	H	0.297286	-0.621403	0.000053
H77	H	-0.019590	-0.635242	0.000121
H78	H	0.197757	-0.945851	0.744173
O79	O	0.247081	-0.486993	0.000091
H80	H	0.294253	-0.431366	0.000103
O81	O	-0.034909	-0.819696	0.000102
H82	H	-0.037526	-0.862725	-0.064423
H83	H	0.011309	-1.166918	0.256017
H84	H	0.225960	-0.308257	0.000099
O85	O	-0.002254	-1.183047	0.449985
H86	H	-0.037972	-1.225426	0.398594
O87	O	0.211321	-0.929699	0.242825
H88	H	0.247057	-0.887339	0.294214
