data_functionalizedCrystal
_audit_creation_method	'MofGen! by Chris Wilmer'
_symmetry_space_group_name_H-M	'P1'
_symmetry_Int_Tables_number	1
_symmetry_cell_setting	triclinic
loop_
_symmetry_equiv_pos_as_xyz
  x,y,z
_cell_length_a	29.839131
_cell_length_b	10.685980
_cell_length_c	10.685910
_cell_angle_alpha	98.392729
_cell_angle_beta	94.382737
_cell_angle_gamma	94.407617
loop_
_atom_site_label
_atom_site_type_symbol
_atom_site_fract_x
_atom_site_fract_y
_atom_site_fract_z
Zn1	Zn	-0.100857	1.995377	0.866640
Zn2	Zn	-0.182209	1.978914	0.654349
Zn3	Zn	-0.113320	1.766861	0.638106
Zn4	Zn	-0.182201	1.782975	0.850254
O5	O	-0.144647	1.881032	0.752337
O6	O	-0.106436	2.170829	0.852135
O7	O	-0.178290	1.937151	0.474565
O8	O	-0.048794	1.797320	0.668481
O9	O	-0.166205	2.158734	0.696165
O10	O	-0.039638	1.965210	0.836384
O11	O	-0.127677	1.781356	0.462631
O12	O	-0.127670	1.591362	0.652592
O13	O	-0.166191	1.824785	1.030058
O14	O	-0.178276	1.603202	0.808457
O15	O	-0.106428	1.980835	1.042096
O16	O	-0.245080	1.952777	0.680277
O17	O	-0.245075	1.808821	0.824207
C18	C	-0.154325	1.551223	0.726984
C19	C	-0.158475	1.410131	0.716168
C20	C	-0.261378	1.880798	0.752257
C21	C	-0.311311	1.880817	0.752274
C22	C	-0.620930	1.956146	0.677522
C23	C	-0.808597	1.956307	0.677584
O24	O	-0.832847	2.020168	0.613965
N25	N	-0.832078	1.881302	0.752453
C26	C	-0.808640	1.806259	0.827319
O27	O	-0.832918	1.742477	0.891011
C28	C	-0.620973	1.806106	0.827264
C29	C	-0.597495	1.881106	0.752380
C30	C	-0.597451	2.031140	0.602646
C31	C	-0.550537	2.031094	0.602626
C32	C	-0.527102	1.956054	0.677483
C33	C	-0.550581	1.881060	0.752360
C34	C	-0.597535	1.731071	0.902136
C35	C	-0.550615	1.731042	0.902118
C36	C	-0.527137	1.806041	0.827233
C37	C	-0.480232	1.805973	0.827197
N38	N	-0.456751	1.880977	0.752328
C39	C	-0.480186	1.956018	0.677471
C40	C	-0.907167	1.806343	0.827341
C41	C	-0.954084	1.806379	0.827353
C42	C	-0.954038	1.956428	0.677619
C43	C	-0.907121	1.956384	0.677601
C44	C	-0.883686	1.881347	0.752471
C45	C	-0.381664	1.955914	0.677434
C46	C	-0.334746	1.955857	0.677417
C47	C	-0.334796	1.805813	0.827155
C48	C	-0.381710	1.805865	0.827167
C49	C	-0.405143	1.880925	0.752303
O50	O	-0.455952	1.742155	0.890793
O51	O	-0.455899	2.019812	0.613809
C52	C	-0.667843	1.956192	0.677542
C53	C	-0.691322	1.881198	0.752419
C54	C	-0.667887	1.806158	0.827276
C55	C	-0.738238	1.881234	0.752432
C56	C	-0.761673	1.956275	0.677574
C57	C	-0.738192	2.031279	0.602705
C58	C	-0.691278	2.031233	0.602685
C59	C	-0.691368	1.731153	0.902146
C60	C	-0.738282	1.731205	0.902158
C61	C	-0.761717	1.806245	0.827301
C62	C	-0.027458	1.881304	0.752449
C63	C	0.022481	1.881419	0.752496
C64	C	-0.134919	1.906444	1.083422
C65	C	-0.130773	1.917273	1.224511
C66	C	-0.134931	2.212129	0.777790
C67	C	-0.130791	2.353222	0.788636
C68	C	-0.154348	1.855711	1.422540
C69	C	-0.158496	1.844889	1.281452
H70	H	-0.185353	1.350907	0.645840
N71	N	-0.310772	2.032471	0.600906
N72	N	-0.331705	2.099465	0.534077
H73	H	-0.314775	2.153573	0.480042
N74	N	-0.405699	1.729228	0.903625
N75	N	-0.404198	1.611442	0.886097
H76	H	-0.421138	1.557321	0.940101
N77	N	-0.097066	1.427498	0.876837
N78	N	-0.067568	1.498114	0.837930
H79	H	-0.043749	1.550578	0.900221
N80	N	-0.192249	1.756731	1.207229
N81	N	-0.218311	1.688671	1.260695
H82	H	-0.242150	1.626405	1.208270
N83	N	-0.667435	1.654512	0.978634
N84	N	-0.668975	1.671833	1.096410
H85	H	-0.652074	1.617698	1.150434
H86	H	-0.400737	2.017039	0.616475
H87	H	-0.531537	1.669939	0.963090
H88	H	-0.616527	2.092254	0.541688
N89	N	-0.526565	2.107715	0.526127
N90	N	-0.547502	2.174706	0.459305
H91	H	-0.530575	2.228827	0.405275
N92	N	-0.883147	2.032998	0.601099
N93	N	-0.904083	2.099982	0.534265
H94	H	-0.887154	2.154095	0.480232
H95	H	-0.315709	1.744712	0.888099
N96	N	-0.097011	2.005413	1.298738
N97	N	-0.070946	2.073461	1.245267
H98	H	-0.047100	2.135709	1.297689
H99	H	-0.973197	1.745294	0.888319
N100	N	-0.977981	2.033067	0.601138
N101	N	-1.007875	1.982284	0.516795
H102	H	-1.024786	2.036411	0.462786
N103	N	-0.883240	1.729682	0.903834
N104	N	-0.904216	1.662726	0.970669
H105	H	-0.887320	1.608579	1.024690
H106	H	-0.757281	2.092376	0.541750
N107	N	-0.621503	1.654451	0.978636
N108	N	-0.600564	1.587472	1.045468
H109	H	-0.617490	1.533356	1.099504
H110	H	-0.672165	2.092304	0.541708
H111	H	-0.757395	1.670120	0.963136
