data_functionalizedCrystal
_audit_creation_method	'MofGen! by Chris Wilmer'
_symmetry_space_group_name_H-M	'P1'
_symmetry_Int_Tables_number	1
_symmetry_cell_setting	triclinic
loop_
_symmetry_equiv_pos_as_xyz
  x,y,z
_cell_length_a	14.044220
_cell_length_b	14.044220
_cell_length_c	11.804365
_cell_angle_alpha	102.927057
_cell_angle_beta	77.060035
_cell_angle_gamma	93.188878
loop_
_atom_site_label
_atom_site_type_symbol
_atom_site_fract_x
_atom_site_fract_y
_atom_site_fract_z
O1	O	1.294803	0.212544	-0.098903
O2	O	1.794803	0.712544	0.401097
O3	O	1.018137	0.204233	-0.098932
O4	O	1.518137	0.704233	0.401068
O5	O	1.152315	0.070055	-0.098906
O6	O	1.652315	0.570055	0.401094
O7	O	1.160625	0.346722	-0.098929
O8	O	1.660625	0.846722	0.401071
O9	O	1.116988	0.105340	0.099143
O10	O	1.616988	0.605340	0.599143
O11	O	0.982810	0.239518	0.099117
O12	O	1.482810	0.739518	0.599117
O13	O	1.259476	0.247829	0.099146
O14	O	1.759476	0.747829	0.599146
Cu15	Cu	1.117917	0.246895	0.117215
Cu16	Cu	1.617917	0.746895	0.617215
Cu17	Cu	1.159696	0.205167	-0.117001
Cu18	Cu	1.659696	0.705167	0.382999
O19	O	1.125298	0.382007	0.099120
O20	O	1.625298	0.882007	0.599120
C21	C	0.964852	0.218239	0.000088
C22	C	1.464852	0.718239	0.500088
C23	C	0.858712	0.207393	0.000077
C24	C	1.358712	0.707393	0.500077
C25	C	0.664369	0.187571	0.000102
C26	C	1.164369	0.687571	0.500102
C27	C	0.613240	0.264485	0.000101
C28	C	1.113240	0.764485	0.500101
C29	C	0.505101	0.253456	0.000115
C30	C	1.005101	0.753456	0.500115
C31	C	0.772518	0.198598	0.000088
C32	C	1.272518	0.698598	0.500088
C33	C	1.131016	0.052075	0.000118
C34	C	1.631016	0.552075	0.500118
C35	C	1.120171	-0.054067	0.000119
C36	C	1.620171	0.445933	0.500119
C37	C	1.100349	-0.248408	0.000099
C38	C	1.600349	0.251592	0.500099
C39	C	1.177262	-0.299537	0.000104
C40	C	1.677262	0.200463	0.500104
C41	C	1.166233	-0.407676	0.000093
C42	C	1.666233	0.092324	0.500093
C43	C	1.111377	-0.140260	0.000110
C44	C	1.611377	0.359740	0.500110
C45	C	1.312761	0.233822	0.000123
C46	C	1.812761	0.733822	0.500123
C47	C	1.418903	0.244667	0.000126
C48	C	1.918903	0.744667	0.500126
C49	C	1.146598	0.399986	0.000093
C50	C	1.646598	0.899986	0.500093
C51	C	1.157444	0.506127	0.000085
C52	C	1.657444	1.006127	0.500085
N53	N	1.088539	0.276245	0.281950
N54	N	1.588539	0.776245	0.781950
N55	N	1.189081	0.175810	-0.281736
N56	N	1.689081	0.675810	0.218264
C57	C	1.259626	0.105312	0.655932
C58	C	1.759626	0.605312	1.155932
C59	C	1.281849	0.083105	0.531275
C60	C	1.781849	0.583105	1.031275
C61	C	1.233523	0.131388	0.468937
C62	C	1.733523	0.631388	0.968937
C63	C	1.162971	0.201882	0.531270
C64	C	1.662971	0.701882	1.031270
C65	C	1.140752	0.224097	0.655939
C66	C	1.640752	0.724097	1.155939
C67	C	1.114649	0.250173	0.468944
C68	C	1.614649	0.750173	0.968944
C69	C	1.044097	0.320667	0.531277
C70	C	1.544097	0.820667	1.031277
C71	C	1.021880	0.342878	0.655934
C72	C	1.521880	0.842878	1.155934
C73	C	1.070206	0.294595	0.718271
C74	C	1.570206	0.794595	1.218271
C75	C	1.136868	0.227958	0.344275
C76	C	1.636868	0.727958	0.844275
C77	C	1.017994	0.346743	0.344282
C78	C	1.517994	0.846743	0.844282
C79	C	0.995771	0.368950	0.468939
C80	C	1.495771	0.868950	0.968939
H81	H	0.626930	0.113446	0.000115
H82	H	1.126930	0.613446	0.500115
F83	F	1.274157	-0.250601	0.000124
F84	F	1.774157	0.249399	0.500124
F85	F	1.003460	-0.297344	0.000083
F86	F	1.503460	0.202656	0.500083
H87	H	0.938326	0.426349	0.519706
H88	H	1.438326	0.926349	1.019706
F89	F	1.211952	0.152935	0.277951
F90	F	1.711952	0.652935	0.777951
F91	F	1.257175	0.107750	0.336265
F92	F	1.757175	0.607750	0.836265
F93	F	0.946803	0.417914	0.722273
F94	F	1.446803	0.917914	1.222273
F95	F	1.046551	0.318226	0.850948
F96	F	1.546551	0.818226	1.350948
F97	F	0.662175	0.361381	0.000088
F98	F	1.162175	0.861381	0.500088
F99	F	1.356933	0.008085	0.464940
F100	F	1.856933	0.508085	0.964940
F101	F	1.311058	0.053940	0.722279
F102	F	1.811058	0.553940	1.222279
F103	F	0.966562	0.398136	0.277943
F104	F	1.466562	0.898136	0.777943
