data_functionalizedCrystal
_audit_creation_method	'MofGen! by Chris Wilmer'
_symmetry_space_group_name_H-M	'P1'
_symmetry_Int_Tables_number	1
_symmetry_cell_setting	triclinic
loop_
_symmetry_equiv_pos_as_xyz
  x,y,z
_cell_length_a	19.188925
_cell_length_b	19.188924
_cell_length_c	10.065875
_cell_angle_alpha	98.757069
_cell_angle_beta	81.282196
_cell_angle_gamma	83.142256
loop_
_atom_site_label
_atom_site_type_symbol
_atom_site_fract_x
_atom_site_fract_y
_atom_site_fract_z
O1	O	0.936395	0.076852	-0.113528
O2	O	1.436395	0.576852	0.386472
O3	O	0.733083	0.088591	-0.113526
O4	O	1.233083	0.588591	0.386474
O5	O	0.840608	-0.018933	-0.113511
O6	O	1.340608	0.481067	0.386489
O7	O	0.828871	0.184376	-0.113543
O8	O	1.328871	0.684376	0.386457
O9	O	0.820104	0.001652	0.113475
O10	O	1.320104	0.501652	0.613475
O11	O	0.712579	0.109176	0.113460
O12	O	1.212579	0.609176	0.613460
O13	O	0.915892	0.097438	0.113458
O14	O	1.415892	0.597438	0.613458
Zn15	Zn	0.810980	0.106575	0.149498
Zn16	Zn	1.310980	0.606575	0.649498
Zn17	Zn	0.837995	0.079453	-0.149566
Zn18	Zn	1.337995	0.579453	0.350434
O19	O	0.808367	0.204961	0.113443
O20	O	1.308367	0.704961	0.613443
C21	C	0.696820	0.098504	-0.000032
C22	C	1.196820	0.598504	0.499968
C23	C	0.619315	0.097365	-0.000030
C24	C	1.119315	0.597365	0.499970
C25	C	0.057545	0.152828	-0.000042
C26	C	0.557545	0.652828	0.499958
C27	C	0.130369	0.153904	-0.000050
C28	C	0.630369	0.653904	0.499950
C29	C	0.175304	0.090813	-0.000037
C30	C	0.675304	0.590813	0.499963
C31	C	0.147412	0.026638	-0.000053
C32	C	0.647412	0.526638	0.499947
C33	C	0.074591	0.025562	-0.000059
C34	C	0.574591	0.525562	0.499941
N35	N	0.289002	0.052144	0.077237
N36	N	0.789002	0.552144	0.577237
N37	N	0.358178	0.053170	0.077246
N38	N	0.858178	0.553170	0.577246
C39	C	0.394711	0.094048	-0.000022
C40	C	0.894711	0.594048	0.499978
N41	N	0.359452	0.133873	-0.077282
N42	N	0.859452	0.633873	0.422718
N43	N	0.290268	0.132850	-0.077284
N44	N	0.790268	0.632850	0.422716
C45	C	0.254267	0.091971	-0.000032
C46	C	0.754267	0.591971	0.499968
C47	C	0.501559	0.159385	-0.000024
C48	C	1.001559	0.659385	0.499976
C49	C	0.574385	0.160457	-0.000040
C50	C	1.074385	0.660457	0.499960
C51	C	0.591426	0.033190	-0.000029
C52	C	1.091426	0.533190	0.499971
C53	C	0.518603	0.032118	-0.000027
C54	C	1.018603	0.532118	0.499973
C55	C	0.473672	0.095218	-0.000018
C56	C	0.973672	0.595218	0.499982
C57	C	0.829976	-0.034651	-0.000017
C58	C	1.329976	0.465349	0.499983
C59	C	0.828837	-0.112156	-0.000013
C60	C	1.328837	0.387844	0.499987
C61	C	0.839482	-0.159776	-0.123743
C62	C	1.339482	0.340224	0.376257
C63	C	0.838403	-0.232600	-0.123754
C64	C	1.338403	0.267400	0.376246
C65	C	0.826693	-0.257802	-0.000027
C66	C	1.326693	0.242198	0.499973
C67	C	0.816042	-0.210171	0.123720
C68	C	1.316042	0.289829	0.623720
C69	C	0.817114	-0.137348	0.123727
C70	C	1.317114	0.362652	0.623727
N71	N	0.856422	-0.369114	0.092060
N72	N	1.356422	0.130886	0.592060
N73	N	0.855406	-0.438294	0.092045
N74	N	1.355406	0.061706	0.592045
C75	C	0.823460	-0.477212	-0.000040
C76	C	1.323460	0.022788	0.499960
N77	N	0.792579	-0.444340	-0.092130
N78	N	1.292579	0.055660	0.407870
N79	N	0.793599	-0.375155	-0.092119
N80	N	1.293599	0.124845	0.407881
C81	C	0.825528	-0.336764	-0.000020
C82	C	1.325528	0.163236	0.499980
C83	C	0.832935	-0.603796	-0.123790
C84	C	1.332935	-0.103796	0.376210
C85	C	0.831851	-0.676620	-0.123795
C86	C	1.331851	-0.176620	0.376205
C87	C	0.809496	-0.654191	0.123682
C88	C	1.309496	-0.154191	0.623682
C89	C	0.810573	-0.581367	0.123684
C90	C	1.310573	-0.081367	0.623684
C91	C	0.822296	-0.556175	-0.000056
C92	C	1.322296	-0.056175	0.499944
C93	C	0.952155	0.087524	-0.000039
C94	C	1.452155	0.587524	0.499961
C95	C	1.029661	0.088662	-0.000050
C96	C	1.529661	0.588662	0.499950
C97	C	0.818999	0.220679	-0.000054
C98	C	1.318999	0.720679	0.499946
C99	C	0.820139	0.298183	-0.000067
C100	C	1.320139	0.798183	0.499933
N101	N	0.792549	0.125085	0.353601
N102	N	1.292549	0.625085	0.853601
N103	N	0.856432	0.060938	-0.353669
N104	N	1.356432	0.560938	0.146331
C105	C	0.831577	0.085889	0.421385
C106	C	1.331577	0.585889	0.921385
C107	C	0.817397	0.100140	0.578550
C108	C	1.317397	0.600140	1.078550
H109	H	0.020967	0.204208	-0.000042
H110	H	0.520967	0.704208	0.499958
F111	F	0.735148	0.182735	0.429824
F112	F	1.235148	0.682735	0.929824
F113	F	0.044915	-0.042735	-0.000070
F114	F	0.544915	0.457265	0.499930
F115	F	0.843177	-0.727301	-0.255493
F116	F	1.343177	-0.227301	0.244507
H117	H	0.773480	0.144248	0.636865
H118	H	1.273480	0.644248	1.136865
H119	H	0.464975	0.210764	-0.000020
H120	H	0.964975	0.710764	0.499980
F121	F	0.639246	-0.033958	-0.000034
F122	F	1.139246	0.466042	0.499966
H123	H	0.597087	0.212710	-0.000046
H124	H	1.097087	0.712710	0.499954
F125	F	0.797029	-0.681007	0.255363
F126	F	1.297029	-0.181007	0.755363
H127	H	0.495899	-0.020132	-0.000025
H128	H	0.995899	0.479868	0.499975
F129	F	0.803574	-0.236993	0.255399
F130	F	1.303574	0.263007	0.755399
F131	F	0.160052	0.222201	-0.000040
F132	F	0.660052	0.722201	0.499960
F133	F	0.849733	-0.283289	-0.255450
F134	F	1.349733	0.216711	0.244550
H135	H	0.849026	-0.139270	-0.224502
H136	H	1.349026	0.360730	0.275498
H137	H	0.808443	-0.098574	0.224486
H138	H	1.308443	0.401426	0.724486
H139	H	0.842476	-0.583283	-0.224546
H140	H	1.342476	-0.083283	0.275454
H141	H	0.801911	-0.542594	0.224439
H142	H	1.301911	-0.042594	0.724439
H143	H	0.875487	0.041778	0.363067
H144	H	1.375487	0.541778	0.863067
H145	H	0.184003	-0.024732	-0.000046
H146	H	0.684003	0.475268	0.499954
F147	F	0.913949	0.003397	0.570116
F148	F	1.413949	0.503397	1.070116
