data_functionalizedCrystal
_audit_creation_method	'MofGen! by Chris Wilmer'
_symmetry_space_group_name_H-M	'P1'
_symmetry_Int_Tables_number	1
_symmetry_cell_setting	triclinic
loop_
_symmetry_equiv_pos_as_xyz
  x,y,z
_cell_length_a	10.654543
_cell_length_b	17.699083
_cell_length_c	9.730223
_cell_angle_alpha	89.994713
_cell_angle_beta	90.003136
_cell_angle_gamma	96.117483
loop_
_atom_site_label
_atom_site_type_symbol
_atom_site_fract_x
_atom_site_fract_y
_atom_site_fract_z
O1	O	-1.665984	0.106277	-0.114289
O2	O	-1.300327	0.116410	-0.114293
O3	O	-1.493486	0.001220	-0.114279
O4	O	-1.472825	0.221467	-0.114303
O5	O	-1.493474	0.001217	0.114301
O6	O	-1.300315	0.116407	0.114287
O7	O	-1.665972	0.106274	0.114291
Zn8	Zn	-1.483141	0.111340	0.150581
Zn9	Zn	-1.483157	0.111344	-0.150583
O10	O	-1.472812	0.221464	0.114277
C11	C	-1.253536	0.115666	-0.000003
C12	C	-1.114131	0.113443	-0.000004
C13	C	-0.902465	0.179171	-0.000003
C14	C	-1.033449	0.181265	-0.000013
C15	C	-1.063822	0.043522	0.000001
C16	C	-0.932840	0.041429	0.000002
C17	C	-1.492740	-0.026983	0.000012
C18	C	-1.490519	-0.111016	0.000012
C19	C	-1.603899	-0.158917	0.000015
C20	C	-1.601805	-0.237874	0.000003
C21	C	-1.486329	-0.268927	-0.000002
C22	C	-1.372939	-0.221019	-0.000010
C23	C	-1.375035	-0.142064	-0.000007
C24	C	-1.364485	-0.539436	-0.000021
C25	C	-1.362398	-0.618397	-0.000019
C26	C	-1.591255	-0.635246	-0.000011
C27	C	-1.593350	-0.556291	-0.000008
C28	C	-1.479962	-0.508390	-0.000023
C29	C	-1.482234	-0.422776	-0.000012
C30	C	-1.484055	-0.354539	-0.000003
C31	C	-0.712762	0.107022	0.000003
C32	C	-0.852164	0.109255	0.000007
C33	C	-1.473559	0.249667	-0.000016
C34	C	-1.475780	0.333700	-0.000026
N35	N	-1.483139	0.111337	0.356117
N36	N	-1.483169	0.111341	-0.356119
C37	C	-1.568699	0.060352	0.428050
C38	C	-1.568711	0.060352	0.571933
C39	C	-1.397601	0.162328	0.571938
C40	C	-1.397583	0.162324	0.428058
H41	H	-1.074397	0.238197	-0.000022
H42	H	-0.836782	0.234400	0.000000
Cl43	Cl	-1.165251	-0.041740	0.000009
Cl44	Cl	-1.290054	0.226427	0.662384
H45	H	-1.327904	0.203842	0.369487
Cl46	Cl	-0.869600	-0.046472	-0.000004
H47	H	-1.638380	0.018835	0.630496
H48	H	-1.272157	-0.500444	-0.000032
Cl49	Cl	-1.749078	-0.119888	0.000036
Cl50	Cl	-1.744347	-0.298091	0.000011
H51	H	-1.687383	-0.531012	0.000003
H52	H	-1.638362	0.018834	0.369479
Cl53	Cl	-1.733803	-0.695469	0.000002
Cl54	Cl	-1.227768	-0.260058	-0.000034
Cl55	Cl	-1.217217	-0.657434	-0.000029
H56	H	-1.282709	-0.103062	-0.000010
