data_functionalizedCrystal
_audit_creation_method	'MofGen! by Chris Wilmer'
_symmetry_space_group_name_H-M	'P1'
_symmetry_Int_Tables_number	1
_symmetry_cell_setting	triclinic
loop_
_symmetry_equiv_pos_as_xyz
  x,y,z
_cell_length_a	6.817900
_cell_length_b	12.908942
_cell_length_c	19.453114
_cell_angle_alpha	96.112537
_cell_angle_beta	101.709288
_cell_angle_gamma	100.860556
loop_
_atom_site_label
_atom_site_type_symbol
_atom_site_fract_x
_atom_site_fract_y
_atom_site_fract_z
V1	V	-3.993306	-0.146948	-0.218605
O2	O	-3.995287	0.005932	-0.214846
O3	O	-3.931749	-0.290287	-0.216723
O4	O	-3.936383	-0.145183	-0.314123
O5	O	-3.990622	-0.140176	-0.116772
V6	V	-4.479743	-0.128603	-0.206472
O7	O	-4.248172	-0.187189	-0.245220
O8	O	-4.675074	-0.088362	-0.179857
O9	O	-4.318093	0.014736	-0.208354
O10	O	-4.595158	-0.281483	-0.210231
O11	O	-4.599824	-0.135375	-0.308305
O12	O	-4.313459	-0.130368	-0.110954
C13	C	-3.773825	-0.325214	-0.213175
C14	C	-3.804725	-0.442399	-0.212273
C15	C	-4.225432	-0.673379	-0.217574
C16	C	-4.254475	-0.783485	-0.216726
C17	C	-3.891859	-0.772720	-0.209737
C18	C	-3.862817	-0.662614	-0.210584
C19	C	-4.029610	-0.612947	-0.214501
C20	C	-4.000562	-0.502838	-0.215344
C21	C	-3.637952	-0.492077	-0.208359
C22	C	-3.666995	-0.602182	-0.207512
C23	C	-3.779735	-0.140119	-0.337417
C24	C	-3.814391	-0.139624	-0.415501
C25	C	-4.011968	-0.144683	-0.455744
C26	C	-4.044532	-0.144219	-0.529112
C27	C	-3.879512	-0.138717	-0.562236
C28	C	-3.681905	-0.133651	-0.521982
C29	C	-3.649344	-0.134105	-0.448615
N30	N	-3.814659	-0.194387	-0.680876
N31	N	-3.845604	-0.193958	-0.750573
C32	C	-3.977604	-0.137346	-0.783288
N33	N	-4.077526	-0.081193	-0.743676
N34	N	-4.046586	-0.081627	-0.673973
C35	C	-3.914798	-0.138223	-0.641790
C36	C	-4.210503	-0.141900	-0.903086
C37	C	-4.243057	-0.141429	-0.976454
C38	C	-3.880427	-0.130872	-0.969324
C39	C	-3.847876	-0.131332	-0.895956
C40	C	-4.012922	-0.136852	-0.862842
C41	C	-4.139359	0.049658	-0.211900
C42	C	-4.087696	0.166841	-0.212807
C43	C	-4.133449	-0.135436	-0.087657
C44	C	-4.078033	-0.135925	-0.009572
H45	H	-4.413930	-0.832685	-0.219229
H46	H	-3.531205	-0.642637	-0.204325
Br47	Br	-3.372176	-0.410056	-0.204188
H48	H	-3.547546	-0.129167	-0.548956
H49	H	-4.344892	-0.146391	-0.876122
H50	H	-3.756077	-0.813179	-0.206554
Br51	Br	-4.511220	-0.148290	-1.031072
Br52	Br	-4.235959	-0.152170	-0.410806
Br53	Br	-3.656455	-0.123378	-1.014266
Br54	Br	-4.226919	-0.435433	-0.220658
H55	H	-4.361237	-0.632937	-0.220753
Br56	Br	-4.312692	-0.151075	-0.583739
Br57	Br	-3.381182	-0.127241	-0.393995
H58	H	-3.686991	-0.127224	-0.863190
