data_functionalizedCrystal
_audit_creation_method	'MofGen! by Chris Wilmer'
_symmetry_space_group_name_H-M	'P1'
_symmetry_Int_Tables_number	1
_symmetry_cell_setting	triclinic
loop_
_symmetry_equiv_pos_as_xyz
  x,y,z
_cell_length_a	11.026607
_cell_length_b	19.288864
_cell_length_c	18.366186
_cell_angle_alpha	90.022894
_cell_angle_beta	89.997848
_cell_angle_gamma	84.138868
loop_
_atom_site_label
_atom_site_type_symbol
_atom_site_fract_x
_atom_site_fract_y
_atom_site_fract_z
O1	O	0.151279	-0.940539	-0.060785
O2	O	0.171686	-0.740867	-0.060735
O3	O	-0.015080	-0.824154	-0.060755
O4	O	0.338045	-0.857252	-0.060765
O5	O	-0.015089	-0.824135	0.060345
O6	O	0.171677	-0.740847	0.060364
O7	O	0.151270	-0.940520	0.060315
Zn8	Zn	0.161472	-0.840681	0.079567
Zn9	Zn	0.161484	-0.840706	-0.079987
O10	O	0.338036	-0.857232	0.060334
C11	C	0.171025	-0.714897	-0.000179
C12	C	0.169054	-0.637544	-0.000160
C13	C	-0.060262	-0.818039	-0.000205
C14	C	-0.194876	-0.799837	-0.000204
C15	C	0.383218	-0.863348	-0.000217
C16	C	0.517833	-0.881550	-0.000223
C17	C	0.591913	-0.831291	-0.000211
C18	C	0.731045	-0.850103	-0.000216
C19	C	0.151931	-0.966489	-0.000243
C20	C	0.153902	-1.043843	-0.000267
N21	N	0.161463	-0.840668	0.188458
C22	C	0.278640	-0.606746	-0.000174
C23	C	0.276788	-0.534064	-0.000182
C24	C	0.165344	-0.492182	-0.000190
C25	C	0.055744	-0.522988	-0.000172
C26	C	0.057599	-0.595669	-0.000156
C27	C	0.077740	-0.372816	-0.042639
C28	C	0.075890	-0.300137	-0.042659
C29	C	0.159618	-0.268011	-0.000234
C30	C	0.245218	-0.308573	0.042200
C31	C	0.247073	-0.381254	0.042216
C32	C	0.163320	-0.413372	-0.000207
C33	C	0.267204	-0.158403	-0.000257
C34	C	0.265347	-0.085720	-0.000260
C35	C	0.044300	-0.074645	-0.000257
C36	C	0.046159	-0.147327	-0.000246
C37	C	0.157615	-0.189202	-0.000249
N38	N	0.161484	-0.840723	-0.188878
C39	C	0.078804	-0.877569	0.226549
C40	C	0.078798	-0.877572	0.302777
C41	C	0.161473	-0.840685	0.340911
C42	C	0.244139	-0.803777	0.302810
C43	C	0.244134	-0.803768	0.226583
C44	C	0.271967	-0.845400	0.461669
C45	C	0.271974	-0.845414	0.537894
C46	C	0.161488	-0.840707	0.576018
C47	C	0.050992	-0.836000	0.537908
C48	C	0.050987	-0.835992	0.461681
C49	C	0.161487	-0.840689	0.423565
C50	C	0.078816	-0.877613	0.696765
C51	C	0.078809	-0.877611	0.772994
C52	C	0.244161	-0.803820	0.773025
C53	C	0.244157	-0.803817	0.696797
C54	C	0.161486	-0.840717	0.658672
H55	H	0.552333	-0.774337	-0.000200
H56	H	0.354589	-0.060646	-0.000268
Cl57	Cl	0.410880	-0.851384	0.413750
Cl58	Cl	0.792136	-0.938042	-0.000244
H59	H	-0.034995	-0.488883	-0.000188
H60	H	0.557413	-0.938504	-0.000263
H61	H	-0.046440	-0.040545	-0.000308
Cl62	Cl	-0.025125	-0.923966	0.350672
H63	H	-0.043078	-0.172402	-0.000238
H64	H	0.006194	-0.267116	-0.077214
Cl65	Cl	0.744036	-0.711897	-0.000183
H66	H	0.369396	-0.640837	-0.000179
Cl67	Cl	-0.027530	-0.413195	-0.095978
H68	H	-0.031642	-0.620743	-0.000145
H69	H	0.366029	-0.508984	-0.000192
Cl70	Cl	0.354673	-0.432244	0.095563
H71	H	0.011485	-0.907613	0.195510
Cl72	Cl	-0.087916	-0.830067	0.413774
H73	H	0.313397	-0.282418	0.076747
Cl74	Cl	-0.087914	-0.830087	0.585826
Cl75	Cl	-0.025119	-0.923996	0.648834
Cl76	Cl	0.407316	-0.211049	-0.000254
Cl77	Cl	-0.025122	-0.923999	0.820884
Cl78	Cl	0.348086	-0.757441	0.820958
H79	H	0.311471	-0.773773	0.665781
H80	H	0.361946	-0.849250	0.568918
H81	H	0.311453	-0.773741	0.333862
H82	H	0.311447	-0.773719	0.195568
