data_functionalizedCrystal
_audit_creation_method	'MofGen! by Chris Wilmer'
_symmetry_space_group_name_H-M	'P1'
_symmetry_Int_Tables_number	1
_symmetry_cell_setting	triclinic
loop_
_symmetry_equiv_pos_as_xyz
  x,y,z
_cell_length_a	12.759401
_cell_length_b	12.594516
_cell_length_c	12.759393
_cell_angle_alpha	90.030800
_cell_angle_beta	90.018496
_cell_angle_gamma	90.011977
loop_
_atom_site_label
_atom_site_type_symbol
_atom_site_fract_x
_atom_site_fract_y
_atom_site_fract_z
Zn1	Zn	1.606276	-0.423675	0.593987
Zn2	Zn	1.606180	-0.601694	0.418309
Zn3	Zn	1.430578	-0.423730	0.418326
Zn4	Zn	1.430576	-0.601612	0.593951
O5	O	1.518403	-0.512678	0.506143
O6	O	1.753285	-0.447300	0.570691
O7	O	1.582846	-0.578144	0.271291
O8	O	1.453927	-0.274777	0.441650
O9	O	1.753213	-0.578090	0.441621
O10	O	1.583011	-0.274736	0.570707
O11	O	1.453833	-0.447395	0.271303
O12	O	1.283557	-0.447316	0.441615
O13	O	1.453922	-0.577951	0.740977
O14	O	1.283555	-0.578005	0.570646
O15	O	1.583009	-0.447221	0.741003
O16	O	1.582844	-0.750629	0.441586
O17	O	1.453829	-0.750569	0.570629
C18	C	1.245435	-0.512658	0.506129
C19	C	1.128659	-0.512676	0.506148
C20	C	1.073823	-0.580834	0.573223
C21	C	0.964099	-0.580848	0.573234
C22	C	0.964056	-0.444541	0.439087
C23	C	1.073778	-0.444523	0.439081
C24	C	1.128704	-0.648987	0.640290
C25	C	1.073868	-0.717152	0.707369
C26	C	0.964144	-0.717165	0.707381
C27	C	0.909256	-0.649014	0.640313
C28	C	1.518354	-0.789219	0.506125
C29	C	1.518429	-0.907524	0.506152
C30	C	1.588682	-0.976771	0.436041
C31	C	1.614358	-1.047463	0.531933
C32	C	1.492885	-1.047632	0.410321
C33	C	1.544154	-0.976657	0.602095
C34	C	1.422637	-0.976820	0.480418
C35	C	1.448276	-1.047480	0.576377
C36	C	1.792436	-0.512698	0.506158
C37	C	1.909212	-0.512707	0.506165
C38	C	1.518476	-0.512570	0.780177
C39	C	1.518507	-0.512525	0.896954
C40	C	1.518480	-0.235057	0.506185
C41	C	1.518513	-0.116752	0.506202
C42	C	1.518390	-0.512708	0.233176
C43	C	1.518562	-0.512454	0.116400
C44	C	1.585732	-0.444447	0.951831
C45	C	1.585757	-0.444409	1.061555
C46	C	1.451330	-0.580534	1.061515
C47	C	1.451300	-0.580567	0.951793
C48	C	1.652939	-0.376405	0.896992
C49	C	1.720170	-0.308323	0.951870
C50	C	1.720195	-0.308284	1.061594
C51	C	1.652989	-0.376328	1.116440
H52	H	1.118426	-0.389014	0.384471
H53	H	1.118566	-0.772632	0.761980
O54	O	0.802669	-0.649032	0.640153
C55	C	0.765938	-0.676281	0.539437
H56	H	0.829125	-0.658012	0.478926
H57	H	0.692520	-0.628264	0.520872
H58	H	0.746468	-0.764597	0.537069
O59	O	1.235288	-0.649067	0.640111
C60	C	1.271899	-0.676240	0.539359
H61	H	1.208646	-0.722595	0.495850
H62	H	1.345303	-0.727277	0.546781
H63	H	1.291354	-0.600824	0.493976
O64	O	1.467119	-1.085000	0.313667
C65	C	1.466567	-1.196935	0.315283
H66	H	1.518102	-1.226326	0.382249
H67	H	1.498183	-1.228459	0.237723
H68	H	1.382971	-1.226532	0.327183
H69	H	1.648102	-0.945723	0.376803
H70	H	0.919357	-0.389056	0.384482
H71	H	1.695404	-1.078496	0.553728
H72	H	0.919500	-0.772661	0.762008
O73	O	1.785410	-0.242323	0.898435
C74	C	1.770955	-0.256932	0.789823
H75	H	1.736523	-0.339076	0.774815
H76	H	1.849643	-0.249728	0.748130
H77	H	1.715014	-0.193806	0.758696
H78	H	1.774930	-0.252841	1.106272
O79	O	1.653052	-0.376623	0.790408
C80	C	1.679983	-0.478666	0.753770
H81	H	1.725742	-0.522642	0.817035
H82	H	1.730395	-0.471094	0.680403
H83	H	1.605593	-0.524774	0.734245
H84	H	1.565714	-0.945615	0.683229
O85	O	1.385908	-0.646521	1.114743
C86	C	1.281194	-0.623281	1.087918
H87	H	1.275901	-0.538259	1.057776
H88	H	1.229311	-0.632426	1.160074
H89	H	1.253697	-0.680364	1.024215
O90	O	1.377560	-1.084244	0.647355
C91	C	1.404911	-1.047857	0.748244
H92	H	1.492068	-1.028040	0.750313
H93	H	1.387270	-1.112409	0.808305
H94	H	1.357513	-0.973703	0.767697
O95	O	1.653179	-0.376192	1.223027
C96	C	1.726903	-0.301491	1.259707
H97	H	1.788272	-0.286607	1.196483
H98	H	1.766782	-0.333592	1.333105
H99	H	1.685272	-0.223872	1.279194
O100	O	1.326011	-0.939810	0.454204
C101	C	1.299324	-0.975934	0.353045
H102	H	1.373807	-0.995805	0.307788
H103	H	1.254206	-0.911202	0.309898
H104	H	1.248380	-1.050001	0.359650
O105	O	1.386134	-0.646862	0.898514
C106	C	1.409071	-0.752934	0.925319
H107	H	1.493003	-0.758288	0.955507
H108	H	1.400018	-0.805536	0.853142
H109	H	1.352742	-0.780750	0.988981
