data_functionalizedCrystal
_audit_creation_method	'MofGen! by Chris Wilmer'
_symmetry_space_group_name_H-M	'P1'
_symmetry_Int_Tables_number	1
_symmetry_cell_setting	triclinic
loop_
_symmetry_equiv_pos_as_xyz
  x,y,z
_cell_length_a	17.917603
_cell_length_b	17.052862
_cell_length_c	17.052862
_cell_angle_alpha	118.506848
_cell_angle_beta	89.214222
_cell_angle_gamma	67.577043
loop_
_atom_site_label
_atom_site_type_symbol
_atom_site_fract_x
_atom_site_fract_y
_atom_site_fract_z
Zr1	Zr	0.890125	0.744198	0.153027
O2	O	0.805309	0.878999	0.285675
O3	O	0.897451	0.592879	0.098446
O4	O	0.938607	0.707331	0.257065
O5	O	0.752930	0.799388	0.017766
O6	O	1.064998	0.697038	0.250330
O7	O	0.764152	0.764547	0.127055
O8	O	0.991377	0.492305	-0.033412
O9	O	0.826551	1.004121	0.301507
O10	O	1.017461	0.653555	0.086956
O11	O	0.914762	0.687237	0.010421
O12	O	0.963219	0.821989	0.197175
O13	O	0.860520	0.855672	0.120640
Zr14	Zr	1.073805	0.783349	-0.032020
Zr15	Zr	1.091703	0.727782	0.142285
Zr16	Zr	0.872226	0.799765	-0.021277
Zr17	Zr	0.924004	0.943753	0.178278
Zr18	Zr	1.039926	0.583794	-0.057270
O19	O	1.066479	0.934667	0.022562
O20	O	1.091928	0.855658	0.270400
O21	O	0.779860	0.958008	0.037836
O22	O	1.158621	0.648548	-0.164667
O23	O	1.184070	0.569539	0.083171
O24	O	0.872002	0.671888	-0.149393
O25	O	1.211000	0.728158	0.103242
O26	O	1.025323	0.820216	-0.136058
O27	O	0.898932	0.830508	-0.129322
O28	O	1.199777	0.762999	-0.006048
O29	O	0.986780	0.991073	0.292968
O30	O	0.977150	0.536474	-0.171961
O31	O	1.137378	0.523426	-0.180499
O32	O	1.151605	0.479257	-0.041951
O33	O	0.812325	1.048289	0.162958
O34	O	0.972553	1.035241	0.154419
O35	O	1.000711	0.705557	-0.076167
O36	O	1.103410	0.671875	0.000368
O37	O	1.049168	0.840309	0.110587
O38	O	0.946469	0.873992	0.034052
C39	C	0.939587	0.514160	0.028919
C40	C	0.925204	0.429444	0.018200
C41	C	0.729821	0.784307	0.073941
C42	C	0.644245	0.791275	0.078502
C43	C	1.099092	0.120319	0.147798
C44	C	1.112604	0.199917	0.157876
C45	C	1.065755	0.257302	0.122957
C46	C	1.005392	0.235082	0.077960
C47	C	0.991874	0.155481	0.067888
C48	C	0.958538	0.292464	0.043047
C49	C	0.898174	0.270244	-0.001950
C50	C	0.884660	0.190650	-0.012021
C51	C	0.931508	0.133265	0.022898
C52	C	0.972056	0.372066	0.053120
C53	C	0.864838	0.407228	-0.026790
C54	C	0.851326	0.327629	-0.036868
C55	C	0.487575	0.804005	0.086831
C56	C	0.476349	0.723545	0.034180
C57	C	0.389172	0.730628	0.038814
C58	C	0.574759	0.796924	0.082198
C59	C	1.234109	0.743240	0.047066
C60	C	1.319685	0.736271	0.042506
C61	C	1.004353	0.694267	0.278532
C62	C	1.011951	0.670678	0.352529
C63	C	1.024343	1.013386	0.092088
C64	C	1.038726	1.098103	0.102808
C65	C	0.920100	0.955876	0.791253
C66	C	0.912956	0.978043	0.721731
C67	C	0.937704	0.901204	0.629428
C68	C	0.969597	0.802193	0.606652
C69	C	0.976736	0.780025	0.676180
C70	C	0.994340	0.725352	0.514355
C71	C	1.026233	0.626342	0.491579
C72	C	1.033371	0.604177	0.561102
C73	C	1.008623	0.681017	0.653405
C74	C	0.987202	0.747521	0.444827
C75	C	1.043838	0.571670	0.329754
C76	C	1.050982	0.549503	0.399276
C77	C	0.959579	0.833279	0.842475
C78	C	0.951987	0.856868	0.768478
C79	C	1.191731	0.493627	0.015482
C80	C	1.262924	0.401942	0.000202
C81	C	0.917199	0.583666	-0.189109
C82	C	0.895218	0.522539	-0.273825
C83	C	1.169343	0.563133	-0.202546
C84	C	1.232938	0.495037	-0.291823
C85	C	0.794587	0.964414	0.323554
C86	C	0.730992	1.032510	0.412831
C87	C	0.772199	1.033920	0.105525
C88	C	0.701006	1.125605	0.120805
C89	C	1.046731	0.943881	0.310116
C90	C	1.068712	1.005007	0.394833
C91	C	1.251493	0.349320	0.038232
C92	C	1.318382	0.263178	0.023893
C93	C	1.396700	0.229656	-0.028482
C94	C	1.408130	0.282286	-0.066512
C95	C	1.341243	0.368430	-0.052167
C96	C	0.929759	0.503399	-0.358814
C97	C	0.909103	0.445977	-0.438419
C98	C	0.853911	0.407691	-0.433034
C99	C	0.819366	0.426837	-0.348035
C100	C	0.840017	0.484264	-0.268431
C101	C	1.316419	0.445476	-0.293798
C102	C	1.376183	0.381501	-0.377676
C103	C	1.352463	0.367083	-0.459577
C104	C	1.268974	0.416653	-0.457599
C105	C	1.209213	0.480631	-0.373722
C106	C	0.647513	1.082080	0.414807
C107	C	0.587753	1.146080	0.498688
C108	C	0.611473	1.160502	0.580590
C109	C	0.694961	1.110927	0.578611
C110	C	0.754720	1.046935	0.494732
C111	C	0.712439	1.178233	0.082784
C112	C	0.645556	1.264390	0.097145
C113	C	0.567239	1.297914	0.149522
C114	C	0.555808	1.245282	0.187549
C115	C	0.622692	1.159130	0.173193
C116	C	1.123907	1.043276	0.389418
C117	C	1.144577	1.100701	0.469009
C118	C	1.110045	1.119863	0.554015
C119	C	1.054847	1.081587	0.559427
C120	C	1.034183	1.024157	0.479836
H121	H	1.021204	0.390150	0.089757
N122	N	1.119169	0.534078	-0.371592
H123	H	1.114087	0.577505	-0.397728
H124	H	1.098243	0.483677	-0.409583
N125	N	1.416917	0.298072	-0.550047
H126	H	1.460318	0.322634	-0.548631
H127	H	1.444334	0.228905	-0.560437
N128	N	1.342012	0.461008	-0.205470
H129	H	1.403968	0.419899	-0.219463
H130	H	1.327511	0.533668	-0.162988
H131	H	0.519777	1.186434	0.500281
N132	N	0.413590	0.902293	0.151145
H133	H	0.360905	0.893477	0.145376
H134	H	0.419426	0.926520	0.216489
H135	H	1.189520	1.131861	0.464584
N136	N	0.796908	1.142085	0.026295
H137	H	0.792722	1.127441	-0.037843
H138	H	0.816996	1.195116	0.055995
H139	H	1.126878	1.166628	0.618816
N140	N	0.786215	0.303665	-0.085387
H141	H	0.758584	0.352091	-0.105981
H142	H	0.813466	0.233722	-0.140707
H143	H	1.350561	0.411266	-0.083143
H144	H	1.309059	0.220337	0.054864
H145	H	1.014439	0.662974	0.710020
H146	H	0.974700	0.534567	-0.363216
H147	H	0.886989	1.058658	0.740282
H148	H	0.822692	1.006572	0.493133
H149	H	1.471905	0.254979	-0.109156
N150	N	0.550332	0.625245	-0.030138
H151	H	0.580741	0.631716	-0.075388
H152	H	0.589078	0.605676	0.006580
H153	H	0.492033	1.272591	0.230195
H154	H	0.837102	0.360932	-0.497860
N155	N	1.468839	0.136744	-0.043948
H156	H	1.449705	0.108500	-0.011907
H157	H	1.490378	0.085983	-0.112042
H158	H	0.835502	0.172568	-0.048652
H159	H	0.989236	0.993005	0.484258
N160	N	0.657895	1.321147	0.056126
H161	H	0.717656	1.286825	0.020760
H162	H	0.619931	1.323488	0.013236
H163	H	0.920514	0.068444	0.014690
H164	H	0.512785	1.368066	0.161205
H165	H	0.961233	0.828137	0.463381
H166	H	0.628183	1.070343	0.348126
N167	N	0.930008	0.925107	0.554441
H168	H	0.906052	0.999487	0.582874
H169	H	0.986784	0.892011	0.512614
H170	H	0.714266	1.122678	0.645306
N171	N	0.610354	1.102371	0.214205
H172	H	0.550590	1.136687	0.249560
H173	H	0.623980	1.032388	0.163340
N174	N	1.466225	0.328043	-0.379798
H175	H	1.472175	0.346881	-0.315185
H176	H	1.485399	0.253850	-0.418795
H177	H	1.249673	0.404904	-0.524295
H178	H	1.152031	1.027685	0.320209
N179	N	1.080326	0.343155	0.133823
H180	H	1.125675	0.348523	0.167625
H181	H	1.097693	0.331492	0.071132
N182	N	0.547014	1.229523	0.671056
H183	H	0.490532	1.258731	0.659871
H184	H	0.545773	1.191102	0.700976
H185	H	1.026736	1.097198	0.628650
H186	H	0.937241	0.430396	-0.507621
H187	H	1.161750	0.218007	0.194513
N188	N	1.085372	0.442716	0.374713
H189	H	1.143863	0.404280	0.334939
H190	H	1.086082	0.440422	0.432805
N191	N	1.149604	0.058442	0.185472
H192	H	1.131876	0.004652	0.172268
H193	H	1.210571	0.026987	0.155286
H194	H	0.811889	0.499838	-0.199234
N195	N	0.814300	0.469115	-0.064452
H196	H	0.832024	0.522909	-0.051246
H197	H	0.823717	0.425199	-0.133061
H198	H	0.774426	0.395657	-0.343664
N199	N	0.893400	1.038744	0.890801
H200	H	0.902760	1.009675	0.931386
H201	H	0.927139	1.077163	0.901260
H202	H	1.063987	0.509101	0.254597
N203	N	1.167026	0.385463	0.094722
H204	H	1.169948	0.339049	0.116635
H205	H	1.149481	0.454617	0.149523
N206	N	1.067778	0.497388	0.536535
H207	H	1.031574	0.466647	0.501795
H208	H	1.126273	0.459050	0.496797
