data_functionalizedCrystal
_audit_creation_method	'MofGen! by Chris Wilmer'
_symmetry_space_group_name_H-M	'P1'
_symmetry_Int_Tables_number	1
_symmetry_cell_setting	triclinic
loop_
_symmetry_equiv_pos_as_xyz
  x,y,z
_cell_length_a	6.817900
_cell_length_b	14.858572
_cell_length_c	15.185311
_cell_angle_alpha	94.808882
_cell_angle_beta	104.261569
_cell_angle_gamma	104.524003
loop_
_atom_site_label
_atom_site_type_symbol
_atom_site_fract_x
_atom_site_fract_y
_atom_site_fract_z
V1	V	-4.042239	-0.290234	-0.126328
V2	V	-3.542239	0.209766	0.373672
O3	O	-4.025442	-0.284429	0.005482
O4	O	-3.525442	0.215571	0.505482
O5	O	-3.997512	-0.288519	-0.249921
O6	O	-3.497512	0.211481	0.250079
O7	O	-3.998827	-0.416692	-0.124643
O8	O	-3.498827	0.083308	0.375357
O9	O	-4.024119	-0.155368	-0.120663
O10	O	-3.524119	0.344632	0.379337
V11	V	-4.524745	-0.274070	-0.110532
V12	V	-4.024745	0.225930	0.389468
O13	O	-4.305729	-0.325691	-0.160979
O14	O	-3.805729	0.174309	0.339021
O15	O	-4.711452	-0.238614	-0.075881
O16	O	-4.211452	0.261386	0.424119
O17	O	-4.346265	-0.275785	0.013062
O18	O	-3.846265	0.224215	0.513062
O19	O	-4.658939	-0.279876	-0.242342
O20	O	-4.158939	0.220124	0.257658
O21	O	-4.660262	-0.408936	-0.116196
O22	O	-4.160262	0.091064	0.383804
O23	O	-4.344951	-0.147612	-0.112216
O24	O	-3.844951	0.352388	0.387784
C25	C	-3.843245	-0.284010	-0.280043
C26	C	-3.343245	0.215990	0.219957
C27	C	-3.887996	-0.283451	-0.381083
C28	C	-3.387996	0.216549	0.118917
C29	C	-4.033279	-0.195919	-0.795170
C30	C	-3.533279	0.304081	-0.295170
C31	C	-4.121373	-0.366313	-0.821451
C32	C	-3.621373	0.133687	-0.321451
C33	C	-4.079299	-0.366833	-0.726516
C34	C	-3.579299	0.133167	-0.226516
C35	C	-4.014216	-0.281895	-0.665904
C36	C	-3.514216	0.218105	-0.165904
C37	C	-3.991206	-0.196437	-0.700227
C38	C	-3.491206	0.303563	-0.200227
C39	C	-4.102325	-0.452290	-0.692187
C40	C	-3.602325	0.047710	-0.192187
C41	C	-4.060253	-0.452814	-0.597247
C42	C	-3.560253	0.047186	-0.097247
C43	C	-3.995154	-0.367875	-0.536633
C44	C	-3.495154	0.132125	-0.036633
C45	C	-3.972143	-0.282413	-0.570961
C46	C	-3.472143	0.217587	-0.070961
C47	C	-3.907059	-0.197475	-0.510349
C48	C	-3.407059	0.302525	-0.010349
C49	C	-3.884032	-0.112012	-0.544675
C50	C	-3.384032	0.387988	-0.044675
C51	C	-3.926107	-0.111498	-0.639613
C52	C	-3.426107	0.388502	-0.139613
C53	C	-3.953080	-0.368389	-0.441695
C54	C	-3.453080	0.131611	0.058305
C55	C	-3.864986	-0.197993	-0.415406
C56	C	-3.364986	0.302007	0.084594
C57	C	-3.844921	-0.447507	-0.120237
C58	C	-3.344921	0.052493	0.379763
C59	C	-3.890735	-0.550888	-0.119677
C60	C	-3.390735	-0.050888	0.380323
C61	C	-4.058413	-0.929452	-0.117631
C62	C	-3.558413	-0.429452	0.382369
C63	C	-4.011752	-0.824124	-0.118200
C64	C	-3.511752	-0.324124	0.381800
C65	C	-3.974576	-0.740174	-0.118655
C66	C	-3.474576	-0.240174	0.381345
C67	C	-3.927911	-0.634839	-0.119222
C68	C	-3.427911	-0.134839	0.380778
C69	C	-4.163874	-0.280292	0.043178
C70	C	-3.663874	0.219708	0.543178
C71	C	-4.098362	-0.280857	0.144218
C72	C	-3.598362	0.219143	0.644218
C73	C	-4.162198	-0.116793	-0.116626
C74	C	-3.662198	0.383207	0.383374
C75	C	-4.095623	-0.013410	-0.117181
C76	C	-3.595623	0.486590	0.382819
H77	H	-4.174382	-0.435466	-0.870806
H78	H	-3.674382	0.064534	-0.370806
Br79	Br	-4.190676	-0.567556	-0.774448
Br80	Br	-3.690676	-0.067556	-0.274448
Br81	Br	-4.091497	-0.568796	-0.550670
Br82	Br	-3.591497	-0.068796	-0.050670
H83	H	-3.811978	-0.128825	-0.366060
H84	H	-3.311978	0.371175	0.133940
Br85	Br	-3.795761	0.003255	-0.462407
Br86	Br	-3.295761	0.503255	0.037593
H87	H	-3.971864	-0.437972	-0.413752
H88	H	-3.471864	0.062028	0.086248
H89	H	-4.014525	-0.126337	-0.823122
H90	H	-3.514525	0.373663	-0.323122
Br91	Br	-3.894875	0.004477	-0.686204
Br92	Br	-3.394875	0.504477	-0.186204
