data_functionalizedCrystal
_audit_creation_method	'MofGen! by Chris Wilmer'
_symmetry_space_group_name_H-M	'P1'
_symmetry_Int_Tables_number	1
_symmetry_cell_setting	triclinic
loop_
_symmetry_equiv_pos_as_xyz
  x,y,z
_cell_length_a	15.297979
_cell_length_b	15.297327
_cell_length_c	10.686551
_cell_angle_alpha	83.957836
_cell_angle_beta	103.237287
_cell_angle_gamma	110.796881
loop_
_atom_site_label
_atom_site_type_symbol
_atom_site_fract_x
_atom_site_fract_y
_atom_site_fract_z
Zn1	Zn	1.429084	-0.053190	1.072944
Zn2	Zn	1.390092	-0.220691	0.892997
Zn3	Zn	1.257453	-0.096196	0.830732
Zn4	Zn	1.246576	-0.235569	1.072736
O5	O	1.330801	-0.151412	0.967352
O6	O	1.555802	-0.051185	1.075219
O7	O	1.360731	-0.215949	0.708149
O8	O	1.301090	0.037936	0.836892
O9	O	1.527155	-0.174247	0.943012
O10	O	1.427187	0.069533	1.014844
O11	O	1.263281	-0.124483	0.662404
O12	O	1.124120	-0.138909	0.836690
O13	O	1.282552	-0.199604	1.249352
O14	O	1.116129	-0.241306	1.014489
O15	O	1.416640	-0.065611	1.249505
O16	O	1.350185	-0.351092	0.942810
O17	O	1.244744	-0.362023	1.074864
C18	C	1.085926	-0.196389	0.918811
C19	C	0.981166	-0.215651	0.898079
C20	C	0.917040	-0.288688	0.819359
C21	C	0.818613	-0.306787	0.799887
C22	C	0.784302	-0.251846	0.859126
C23	C	0.848429	-0.178803	0.937841
C24	C	0.946866	-0.160707	0.957322
C25	C	0.814128	-0.123865	0.997089
C26	C	0.878255	-0.050823	1.075804
C27	C	0.976681	-0.032729	1.095282
C28	C	1.010992	-0.087670	1.036043
C29	C	0.715691	-0.141961	0.977607
C30	C	0.745517	-0.013981	1.115571
C31	C	0.843944	0.004118	1.135043
C32	C	1.292080	-0.389851	1.015603
C33	C	1.275604	-0.491838	1.036305
C34	C	1.448974	-0.756379	0.819904
C35	C	1.464453	-0.660558	0.800448
C36	C	1.417243	-0.618373	0.859411
C37	C	1.354550	-0.672019	0.937833
C38	C	1.339064	-0.767851	0.957283
C39	C	1.307332	-0.629845	0.996789
C40	C	1.244639	-0.683491	1.075211
C41	C	1.229156	-0.779313	1.094659
C42	C	1.276367	-0.821498	1.035696
C43	C	1.322818	-0.534013	0.977339
C44	C	1.212908	-0.545485	1.114718
C45	C	1.197429	-0.641306	1.134174
C46	C	1.576632	-0.106259	1.016084
C47	C	1.681391	-0.087018	1.036851
C48	C	1.352732	-0.129470	1.296496
C49	C	1.362078	-0.120119	1.436757
C50	C	1.369701	0.087965	0.918946
C51	C	1.386278	0.189974	0.898317
C52	C	1.309020	-0.173192	0.639487
C53	C	1.299899	-0.182250	0.499210
H54	H	0.663488	-0.201434	0.913518
C55	C	1.218320	-0.263776	1.426482
N56	N	1.156871	-0.325181	1.371694
H57	H	1.422469	-0.059772	1.490600
H58	H	0.766408	-0.366258	0.735797
C59	C	0.676029	-0.271750	0.837689
N60	N	0.594474	-0.286739	0.821530
H61	H	0.717582	0.030756	1.163810
C62	C	0.954790	-0.349112	0.754203
N63	N	0.983224	-0.394626	0.705120
C64	C	1.160974	-0.499085	1.179584
N65	N	1.121861	-0.464131	1.228436
H66	H	1.091138	-0.072936	1.051889
C67	C	1.047218	0.047618	1.181874
N68	N	1.100346	0.108137	1.247093
H69	H	0.896169	0.063590	1.199134
H70	H	1.373863	-0.490343	0.913487
C71	C	1.434291	-0.512962	0.838032
N72	N	1.447143	-0.433560	0.821938
H73	H	1.515496	-0.616884	0.736596
H74	H	1.263770	-0.899522	1.051537
C75	C	1.500887	-0.802792	0.755040
N76	N	1.539989	-0.837752	0.706175
H77	H	1.178095	-0.822992	1.158498
H78	H	1.146383	-0.684998	1.198026
