data_functionalizedCrystal
_audit_creation_method	'MofGen! by Chris Wilmer'
_symmetry_space_group_name_H-M	'P1'
_symmetry_Int_Tables_number	1
_symmetry_cell_setting	triclinic
loop_
_symmetry_equiv_pos_as_xyz
  x,y,z
_cell_length_a	16.992694
_cell_length_b	16.956995
_cell_length_c	15.455313
_cell_angle_alpha	92.465639
_cell_angle_beta	87.142206
_cell_angle_gamma	83.361347
loop_
_atom_site_label
_atom_site_type_symbol
_atom_site_fract_x
_atom_site_fract_y
_atom_site_fract_z
O1	O	1.033120	0.165135	-0.072020
O2	O	1.366454	0.498469	0.261314
O3	O	1.699787	0.831802	0.594647
O4	O	0.804956	0.163287	-0.072045
O5	O	1.138289	0.496620	0.261288
O6	O	1.471623	0.829953	0.594621
O7	O	0.932745	0.049006	-0.072028
O8	O	1.266078	0.382339	0.261306
O9	O	1.599411	0.715673	0.594639
O10	O	0.905332	0.279416	-0.072037
O11	O	1.238665	0.612749	0.261296
O12	O	1.571998	0.946083	0.594629
O13	O	0.925439	0.055512	0.072233
O14	O	1.258772	0.388846	0.405567
O15	O	1.592106	0.722179	0.738900
O16	O	0.797650	0.169793	0.072216
O17	O	1.130984	0.503126	0.405549
O18	O	1.464317	0.836460	0.738882
O19	O	1.025815	0.171642	0.072241
O20	O	1.359148	0.504975	0.405575
O21	O	1.692481	0.838308	0.738908
Cu22	Cu	0.911066	0.171311	0.085401
Cu23	Cu	1.244399	0.504645	0.418734
Cu24	Cu	1.577732	0.837978	0.752067
Cu25	Cu	0.919705	0.163617	-0.085205
Cu26	Cu	1.253039	0.496950	0.248129
Cu27	Cu	1.586372	0.830284	0.581462
O28	O	0.898026	0.285922	0.072224
O29	O	1.231359	0.619256	0.405557
O30	O	1.564693	0.952589	0.738890
C31	C	0.930496	0.022641	0.000102
C32	C	1.263829	0.355974	0.333435
C33	C	1.597162	0.689307	0.666769
C34	C	0.934669	-0.065614	0.000100
C35	C	1.268002	0.267719	0.333433
C36	C	1.601335	0.601053	0.666766
C37	C	0.772245	0.164163	0.000082
C38	C	1.105578	0.497497	0.333415
C39	C	1.438912	0.830830	0.666749
C40	C	0.685661	0.157072	0.000072
C41	C	1.018994	0.490406	0.333406
C42	C	1.352327	0.823739	0.666739
C43	C	0.965887	-0.562925	0.000100
C44	C	1.299220	-0.229592	0.333433
C45	C	1.632554	0.103742	0.666766
C46	C	0.961960	-0.480000	0.000105
C47	C	1.295293	-0.146666	0.333438
C48	C	1.628626	0.186667	0.666771
C49	C	0.888248	-0.433609	0.000092
C50	C	1.221581	-0.100276	0.333426
C51	C	1.554914	0.233057	0.666759
C52	C	0.818458	-0.470148	0.000084
C53	C	1.151791	-0.136814	0.333417
C54	C	1.485124	0.196519	0.666751
C55	C	0.822385	-0.553071	0.000085
C56	C	1.155719	-0.219738	0.333419
C57	C	1.489052	0.113596	0.666752
C58	C	0.868807	-0.185076	0.000093
C59	C	1.202140	0.148258	0.333426
C60	C	1.535473	0.481591	0.666759
C61	C	0.864884	-0.102147	0.000089
C62	C	1.198218	0.231186	0.333422
C63	C	1.531551	0.564520	0.666755
C64	C	1.008387	-0.112005	0.000111
C65	C	1.341720	0.221329	0.333444
C66	C	1.675053	0.554662	0.666778
C67	C	1.012308	-0.194930	0.000107
C68	C	1.345641	0.138404	0.333440
C69	C	1.678975	0.471737	0.666774
C70	C	0.942518	-0.231460	0.000103
C71	C	1.275852	0.101873	0.333437
C72	C	1.609185	0.435206	0.666770
N73	N	0.884232	-0.348847	0.000094
N74	N	1.217565	-0.015513	0.333428
N75	N	1.550898	0.317820	0.666761
N76	N	0.946535	-0.316222	0.000107
N77	N	1.279868	0.017112	0.333441
N78	N	1.613201	0.350445	0.666774
C79	C	0.630986	0.225487	0.000070
C80	C	0.964320	0.558820	0.333403
C81	C	1.297653	0.892154	0.666737
C82	C	0.549631	0.218820	0.000082
C83	C	0.882965	0.552154	0.333416
C84	C	1.216298	0.885487	0.666749
C85	C	0.522952	0.143738	0.000090
C86	C	0.856286	0.477071	0.333424
C87	C	1.189619	0.810405	0.666757
C88	C	0.577633	0.075318	0.000095
C89	C	0.910967	0.408652	0.333429
C90	C	1.244300	0.741985	0.666762
C91	C	0.658987	0.081986	0.000089
C92	C	0.992320	0.415319	0.333423
C93	C	1.325653	0.748653	0.666756
C94	C	0.281145	0.116104	0.000115
C95	C	0.614478	0.449437	0.333448
C96	C	0.947811	0.782770	0.666782
C97	C	0.199785	0.109441	0.000118
C98	C	0.533118	0.442774	0.333452
C99	C	0.866451	0.776108	0.666785
C100	C	0.171788	0.252944	0.000107
C101	C	0.505121	0.586277	0.333440
C102	C	0.838455	0.919611	0.666774
C103	C	0.253144	0.259605	0.000096
C104	C	0.586478	0.592938	0.333429
C105	C	0.919811	0.926271	0.666762
C106	C	0.307818	0.191185	0.000105
C107	C	0.641151	0.524518	0.333438
C108	C	0.974485	0.857852	0.666772
N109	N	0.439795	0.136922	0.000100
N110	N	0.773128	0.470255	0.333434
N111	N	1.106462	0.803589	0.666767
N112	N	0.390974	0.198002	0.000101
N113	N	0.724307	0.531336	0.333435
N114	N	1.057640	0.864669	0.666768
C115	C	1.058526	0.170765	0.000112
C116	C	1.391859	0.504098	0.333445
C117	C	1.725193	0.837432	0.666779
C118	C	1.145110	0.177856	0.000116
C119	C	1.478444	0.511189	0.333449
C120	C	1.811777	0.844522	0.666783
C121	C	0.900275	0.312288	0.000092
C122	C	1.233609	0.645621	0.333425
C123	C	1.566942	0.978954	0.666759
C124	C	0.896103	0.400542	0.000089
C125	C	1.229436	0.733875	0.333422
C126	C	1.562769	1.067209	0.666755
N127	N	0.904994	0.176723	0.205395
N128	N	1.238328	0.510057	0.538729
N129	N	1.571661	0.843390	0.872062
N130	N	0.925783	0.158199	-0.205199
N131	N	1.259116	0.491533	0.128134
N132	N	1.592450	0.824866	0.461467
C133	C	0.959300	0.128193	0.250797
C134	C	1.292633	0.461526	0.584130
C135	C	1.625967	0.794860	0.917464
C136	C	0.954716	0.132293	0.341604
C137	C	1.288049	0.465627	0.674938
C138	C	1.621382	0.798960	1.008271
C139	C	0.895828	0.184929	0.387008
C140	C	1.229162	0.518262	0.720342
C141	C	1.562495	0.851595	1.053675
C142	C	0.841517	0.233461	0.341600
C143	C	1.174850	0.566794	0.674934
C144	C	1.508184	0.900128	1.008267
C145	C	0.846099	0.229356	0.250795
C146	C	1.179432	0.562689	0.584128
C147	C	1.512765	0.896023	0.917461
C148	C	0.876054	0.202626	0.658587
C149	C	1.209387	0.535960	0.991920
C150	C	1.542720	0.869293	1.325254
C151	C	0.871477	0.206730	0.749399
C152	C	1.204811	0.540063	1.082732
C153	C	1.538144	0.873396	1.416066
C154	C	0.984675	0.105560	0.749397
C155	C	1.318009	0.438894	1.082730
C156	C	1.651342	0.772227	1.416063
C157	C	0.989255	0.101463	0.658589
C158	C	1.322588	0.434797	0.991923
C159	C	1.655921	0.768130	1.325256
C160	C	0.934941	0.149993	0.613189
C161	C	1.268274	0.483326	0.946523
C162	C	1.601608	0.816659	1.279856
N163	N	0.891142	0.189123	0.479828
N164	N	1.224476	0.522457	0.813161
N165	N	1.557809	0.855790	1.146494
N166	N	0.939624	0.145794	0.520371
N167	N	1.272958	0.479127	0.853705
N168	N	1.606291	0.812460	1.187038
H169	H	1.025912	-0.600691	0.000103
H170	H	1.359245	-0.267358	0.333436
H171	H	1.692579	0.065976	0.666769
H172	H	0.505118	0.274531	0.000079
H173	H	0.838451	0.607865	0.333413
H174	H	1.171784	0.941198	0.666746
H175	H	0.178068	0.048297	0.000124
H176	H	0.511401	0.381630	0.333457
H177	H	0.844734	0.714964	0.666791
Br178	Br	1.112350	-0.257883	0.000124
Br179	Br	1.445683	0.075451	0.333457
Br180	Br	1.779017	0.408784	0.666791
H181	H	0.998935	0.092776	0.378570
H182	H	1.332268	0.426109	0.711903
H183	H	1.665602	0.759442	1.045237
H184	H	1.037205	0.058604	0.621623
H185	H	1.370539	0.391937	0.954957
H186	H	1.703872	0.725270	1.288290
H187	H	0.801877	0.268873	0.213829
H188	H	1.135210	0.602207	0.547163
H189	H	1.468543	0.935540	0.880496
H190	H	0.274860	0.320744	0.000079
H191	H	0.608193	0.654077	0.333412
H192	H	0.941526	0.987411	0.666745
Br193	Br	1.058382	0.039701	0.811014
Br194	Br	1.391715	0.373034	1.144347
Br195	Br	1.725049	0.706368	1.477681
Br196	Br	1.056673	-0.430423	0.000098
Br197	Br	1.390006	-0.097090	0.333431
Br198	Br	1.723339	0.236243	0.666764
H199	H	0.127265	0.308647	0.000101
H200	H	0.460598	0.641980	0.333434
H201	H	0.793931	0.975314	0.666768
H202	H	0.758439	-0.432370	0.000079
H203	H	1.091773	-0.099036	0.333412
H204	H	1.425106	0.234297	0.666746
Br205	Br	1.103096	-0.062423	0.000118
Br206	Br	1.436430	0.270911	0.333451
Br207	Br	1.769763	0.604244	0.666785
H208	H	0.325651	0.060391	0.000123
H209	H	0.658984	0.393725	0.333457
H210	H	0.992317	0.727058	0.666790
Br211	Br	0.791555	0.278173	0.811013
Br212	Br	1.124888	0.611507	1.144346
Br213	Br	1.458221	0.944840	1.477680
Br214	Br	0.802346	0.268487	0.596977
Br215	Br	1.135679	0.601820	0.930311
Br216	Br	1.469013	0.935154	1.263644
H217	H	0.793566	0.276315	0.378573
H218	H	1.126899	0.609648	0.711907
H219	H	1.460233	0.942982	1.045240
Br220	Br	0.541427	-0.026580	0.000115
Br221	Br	0.874761	0.306753	0.333448
Br222	Br	1.208094	0.640087	0.666782
Br223	Br	0.733189	-0.010866	0.000100
Br224	Br	1.066522	0.322467	0.333433
Br225	Br	1.399856	0.655801	0.666767
Br226	Br	0.774092	-0.234643	0.000081
Br227	Br	1.107425	0.098690	0.333414
Br228	Br	1.440758	0.432023	0.666748
Br229	Br	0.727674	-0.602652	0.000080
Br230	Br	1.061007	-0.269319	0.333413
Br231	Br	1.394340	0.064014	0.666746
H232	H	0.652701	0.286627	0.000063
H233	H	0.986034	0.619960	0.333396
H234	H	1.319368	0.953294	0.666729
H235	H	0.804856	-0.064377	0.000081
H236	H	1.138189	0.268956	0.333415
H237	H	1.471522	0.602289	0.666748
Br238	Br	1.039228	0.056762	0.189187
Br239	Br	1.372561	0.390095	0.522520
Br240	Br	1.705895	0.723428	0.855854
