data_functionalizedCrystal
_audit_creation_method	'MofGen! by Chris Wilmer'
_symmetry_space_group_name_H-M	'P1'
_symmetry_Int_Tables_number	1
_symmetry_cell_setting	triclinic
loop_
_symmetry_equiv_pos_as_xyz
  x,y,z
_cell_length_a	12.837932
_cell_length_b	12.837942
_cell_length_c	11.892095
_cell_angle_alpha	85.697431
_cell_angle_beta	94.311455
_cell_angle_gamma	94.829322
loop_
_atom_site_label
_atom_site_type_symbol
_atom_site_fract_x
_atom_site_fract_y
_atom_site_fract_z
O1	O	-1.408370	-0.266118	-0.094005
O2	O	-1.105236	-0.252673	-0.094007
O3	O	-1.250081	-0.107829	-0.093999
O4	O	-1.263525	-0.410962	-0.094013
O5	O	-1.238002	-0.119885	0.094008
O6	O	-1.093157	-0.264729	0.094000
O7	O	-1.396291	-0.278175	0.094002
Zn8	Zn	-1.242807	-0.273366	0.123851
Zn9	Zn	-1.258721	-0.257481	-0.123856
O10	O	-1.251446	-0.423018	0.093994
C11	C	-1.060128	-0.254159	-0.000004
C12	C	-0.943712	-0.240614	-0.000004
C13	C	-1.239500	-0.074788	0.000004
C14	C	-1.225956	0.041627	0.000002
C15	C	-1.441400	-0.276688	-0.000004
C16	C	-1.557816	-0.290233	-0.000011
C17	C	-0.782686	-0.127402	0.000003
C18	C	-0.892069	-0.140122	0.000002
C19	C	-0.885965	-0.328393	-0.000006
C20	C	-0.776583	-0.315673	-0.000005
C21	C	-0.724947	-0.215174	-0.000002
C22	C	-0.615563	-0.202454	-0.000009
C23	C	-0.609461	-0.390725	-0.000009
C24	C	-0.718844	-0.403445	-0.000010
C25	C	-1.262027	-0.456059	-0.000011
C26	C	-1.275572	-0.572474	-0.000017
N27	N	-1.231953	-0.284207	0.292904
C28	C	-1.388787	0.266502	-0.000021
C29	C	-1.376066	0.375884	-0.000023
C30	C	-1.187794	0.369778	-0.000012
C31	C	-1.200515	0.260395	-0.000010
C32	C	-1.301015	0.208761	-0.000013
C33	C	-1.313734	0.099376	-0.000003
C34	C	-1.125464	0.093271	-0.000000
C35	C	-1.112743	0.202654	-0.000002
N36	N	-1.269582	-0.246633	-0.292910
C37	C	-1.345101	-0.171137	0.529558
C38	C	-1.337523	-0.178723	0.647900
C39	C	-1.209213	-0.306959	0.647931
C40	C	-1.216791	-0.299373	0.529590
C41	C	-1.284739	-0.231461	0.470407
C42	C	-1.292322	-0.223881	0.352064
C43	C	-1.164008	-0.352110	0.352097
C44	C	-1.156429	-0.359696	0.470439
H45	H	-0.573523	-0.120623	-0.000011
H46	H	-1.347651	-0.168587	0.303879
H47	H	-1.395566	0.057337	-0.000001
H48	H	-1.470617	0.224460	-0.000012
H49	H	-1.386674	-0.129601	0.696057
O50	O	-1.135911	-0.380185	0.711766
H51	H	-1.158748	-0.461666	0.689052
H52	H	-1.114860	-0.401233	0.303923
H53	H	-1.400434	-0.115849	0.481371
H54	H	-0.562438	-0.462195	-0.000014
O55	O	-0.726982	-0.019015	0.000007
H56	H	-0.785509	0.039884	0.000015
O57	O	-1.083153	-0.432949	0.534271
H58	H	-1.088028	-0.428098	0.626500
H59	H	-1.105972	0.411838	-0.000022
O60	O	-0.954350	-0.045456	0.000005
H61	H	-0.900064	0.026561	0.000000
H62	H	-1.030919	0.244710	-0.000005
H63	H	-1.447540	0.422893	-0.000033
O64	O	-0.941666	-0.436782	0.000006
H65	H	-0.996279	-0.442173	-0.076621
O66	O	-0.774537	-0.511837	-0.000017
H67	H	-0.860299	-0.505938	-0.000023
H68	H	-1.053993	0.046246	0.000015
