data_functionalizedCrystal
_audit_creation_method	'MofGen! by Chris Wilmer'
_symmetry_space_group_name_H-M	'P1'
_symmetry_Int_Tables_number	1
_symmetry_cell_setting	triclinic
loop_
_symmetry_equiv_pos_as_xyz
  x,y,z
_cell_length_a	10.489741
_cell_length_b	10.489741
_cell_length_c	8.965430
_cell_angle_alpha	89.999293
_cell_angle_beta	89.998843
_cell_angle_gamma	95.460826
loop_
_atom_site_label
_atom_site_type_symbol
_atom_site_fract_x
_atom_site_fract_y
_atom_site_fract_z
O1	O	1.694053	-0.179958	-0.123946
O2	O	1.322858	-0.196851	-0.123969
O3	O	1.516902	-0.002807	-0.123948
O4	O	1.500009	-0.374003	-0.123967
O5	O	1.516886	-0.002820	0.124130
O6	O	1.322841	-0.196864	0.124110
O7	O	1.694037	-0.179971	0.124133
Cu8	Cu	1.508438	-0.188419	0.146773
Cu9	Cu	1.508457	-0.188404	-0.146609
O10	O	1.499993	-0.374016	0.124112
C11	C	1.275318	-0.195582	0.000067
C12	C	1.133688	-0.191765	0.000059
C13	C	1.065548	-0.068300	0.000079
C14	C	0.973430	-0.126617	-0.122237
C15	C	0.973447	-0.126659	0.122349
C16	C	1.043435	-0.250133	-0.122358
C17	C	1.043462	-0.250158	0.122338
C18	C	0.951371	-0.308564	-0.000007
C19	C	1.515618	0.044718	0.000090
C20	C	1.511801	0.186348	0.000087
C21	C	1.741577	-0.181241	0.000093
C22	C	1.883206	-0.185058	0.000092
C23	C	1.501277	-0.421541	0.000070
C24	C	1.505094	-0.563170	0.000063
N25	N	1.508433	-0.188429	0.353122
C26	C	1.388336	0.254488	0.000069
C27	C	1.446652	0.346604	0.122388
C28	C	1.446697	0.346591	-0.122198
C29	C	1.570167	0.276599	0.122508
C30	C	1.570195	0.276576	-0.122189
C31	C	1.628600	0.368665	0.000161
N32	N	1.508471	-0.188384	-0.352958
C33	C	1.418666	-0.278138	0.450418
C34	C	1.534163	-0.303949	0.549838
C35	C	1.392986	-0.162629	0.549830
C36	C	1.623988	-0.214298	0.450352
C37	C	1.482735	-0.072927	0.450336
C38	C	1.598314	-0.098690	0.549711
H39	H	0.942463	-0.074402	0.225758
H40	H	1.555925	-0.401606	0.593543
H41	H	1.721659	-0.236216	0.406840
C42	C	1.376075	0.388500	0.262075
H43	H	1.290715	0.349038	0.261925
H44	H	1.419112	0.363377	0.348937
H45	H	1.374834	0.478937	0.261519
C46	C	1.085407	-0.320683	0.262027
H47	H	1.126361	-0.393662	0.232645
H48	H	1.143339	-0.264821	0.318623
H49	H	1.012386	-0.347093	0.320991
H50	H	1.674327	-0.022803	0.593034
H51	H	1.730204	0.418089	0.000235
C52	C	1.453287	0.058952	0.391230
H53	H	1.371170	0.077139	0.425228
H54	H	1.516227	0.122871	0.426703
H55	H	1.454264	0.058194	0.285278
H56	H	1.295338	-0.140828	0.593530
C57	C	1.640658	0.234949	0.262372
H58	H	1.642612	0.144591	0.261555
H59	H	1.725753	0.275064	0.262737
H60	H	1.597070	0.259478	0.349119
H61	H	1.622398	0.245537	-0.225600
C62	C	1.376115	0.388444	-0.261901
H63	H	1.290764	0.348957	-0.261745
H64	H	1.374867	0.478874	-0.261392
H65	H	1.419158	0.363291	-0.348756
C66	C	1.251211	0.187403	0.000222
H67	H	1.207547	0.211216	0.087238
H68	H	1.206911	0.212369	-0.085791
H69	H	1.254586	0.097225	-0.000653
H70	H	1.342824	-0.354072	0.406821
H71	H	1.115238	0.033196	-0.000069
C72	C	0.931537	-0.056052	-0.261933
H73	H	0.874850	-0.112389	-0.319525
H74	H	0.889183	0.016022	-0.232540
H75	H	1.004750	-0.028271	-0.319934
C76	C	1.085076	-0.320668	-0.262195
H77	H	1.175433	-0.322636	-0.261372
H78	H	1.044949	-0.405759	-0.262514
H79	H	1.060554	-0.277113	-0.348968
C80	C	0.884591	-0.445813	-0.000102
H81	H	0.908547	-0.489452	-0.087072
H82	H	0.909628	-0.490005	0.085959
H83	H	0.794384	-0.442648	0.000716
