data_functionalizedCrystal
_audit_creation_method	'MofGen! by Chris Wilmer'
_symmetry_space_group_name_H-M	'P1'
_symmetry_Int_Tables_number	1
_symmetry_cell_setting	triclinic
loop_
_symmetry_equiv_pos_as_xyz
  x,y,z
_cell_length_a	15.072220
_cell_length_b	8.559649
_cell_length_c	8.559649
_cell_angle_alpha	110.221336
_cell_angle_beta	90.000498
_cell_angle_gamma	89.988335
loop_
_atom_site_label
_atom_site_type_symbol
_atom_site_fract_x
_atom_site_fract_y
_atom_site_fract_z
O1	O	0.073769	-2.126903	-0.055048
O2	O	0.073772	-1.651418	0.028733
O3	O	0.073769	-1.931051	-0.250900
O4	O	0.073772	-1.847270	0.224585
O5	O	-0.073796	-1.930988	-0.250879
O6	O	-0.073793	-1.651355	0.028754
O7	O	-0.073797	-2.126840	-0.055027
Zn8	Zn	-0.097224	-1.889087	-0.013133
Zn9	Zn	0.097199	-1.889170	-0.013161
O10	O	-0.073794	-1.847207	0.224606
C11	C	-0.000010	-1.591077	0.035093
C12	C	-0.000009	-1.411378	0.053992
N13	N	-0.229913	-1.889042	-0.013116
C14	C	-0.000012	-1.937369	-0.311198
C15	C	-0.000007	-1.956268	-0.490898
C16	C	-0.589114	-1.889168	-0.013167
C17	C	-0.551506	-1.739149	0.136067
C18	C	-0.448680	-1.739396	0.136514
C19	C	-0.410910	-1.889104	-0.013141
C20	C	-0.448203	-2.053837	0.003058
C21	C	-0.551060	-2.052972	0.004094
C22	C	-0.551215	-1.876011	-0.179179
C23	C	-0.448352	-1.871988	-0.177568
C24	C	-0.310197	-1.889079	-0.013132
C25	C	-0.689828	-1.889204	-0.013175
N26	N	0.229888	-1.889230	-0.013192
C27	C	-0.000012	-2.187180	-0.061387
C28	C	-0.000008	-2.366879	-0.080286
C29	C	-0.000011	-1.840889	0.284904
C30	C	-0.000010	-1.821990	0.464604
H31	H	-0.423468	-1.616278	0.129927
H32	H	-0.000012	-1.692570	-0.436018
H33	H	-0.000015	-2.085696	-0.590286
H34	H	-0.576266	-1.615579	0.129892
H35	H	-0.423979	-1.750914	-0.190345
H36	H	-0.422433	-2.069494	0.121992
H37	H	-0.577344	-1.745176	0.259020
H38	H	-0.000003	-1.311990	0.183420
H39	H	-0.000004	-1.466258	-0.209705
H40	H	-0.424066	-1.745636	0.260142
H41	H	-0.575535	-1.985656	-0.289990
H42	H	-0.575936	-2.166988	-0.101427
H43	H	-0.575042	-2.067738	0.124531
H44	H	-0.577205	-1.759623	-0.199912
H45	H	-0.423735	-2.167275	-0.103614
H46	H	-0.422644	-1.975753	-0.292216
