data_functionalizedCrystal
_audit_creation_method	'MofGen! by Chris Wilmer'
_symmetry_space_group_name_H-M	'P1'
_symmetry_Int_Tables_number	1
_symmetry_cell_setting	triclinic
loop_
_symmetry_equiv_pos_as_xyz
  x,y,z
_cell_length_a	10.967904
_cell_length_b	16.109301
_cell_length_c	9.482899
_cell_angle_alpha	99.328250
_cell_angle_beta	87.459449
_cell_angle_gamma	95.902985
loop_
_atom_site_label
_atom_site_type_symbol
_atom_site_fract_x
_atom_site_fract_y
_atom_site_fract_z
O1	O	-1.572671	0.171488	0.514931
O2	O	-1.072671	0.671488	1.014931
O3	O	-1.223466	0.173327	0.427442
O4	O	-0.723466	0.673327	0.927442
O5	O	-1.407664	0.051689	0.473576
O6	O	-0.907664	0.551689	0.973576
O7	O	-1.388473	0.293125	0.468798
O8	O	-0.888473	0.793125	0.968798
O9	O	-1.445110	0.026901	0.241162
O10	O	-0.945110	0.526901	0.741162
O11	O	-1.260913	0.148538	0.195029
O12	O	-0.760913	0.648538	0.695029
O13	O	-1.610117	0.146699	0.282517
O14	O	-1.110117	0.646699	0.782517
Cu15	Cu	-1.438934	0.145355	0.217552
Cu16	Cu	-0.938934	0.645355	0.717552
Cu17	Cu	-1.394649	0.174671	0.492408
Cu18	Cu	-0.894649	0.674671	0.992408
O19	O	-1.425920	0.268336	0.236384
O20	O	-0.925920	0.768336	0.736384
C21	C	-1.197504	0.158927	0.300040
C22	C	-0.697504	0.658927	0.800040
C23	C	-1.064357	0.152943	0.266681
C24	C	-0.564357	0.652943	0.766681
C25	C	-0.985598	0.163116	0.372206
C26	C	-0.485598	0.663116	0.872206
C27	C	-0.847982	0.156930	0.337730
C28	C	-0.347982	0.656930	0.837730
C29	C	-1.425610	0.008295	0.357174
C30	C	-0.925610	0.508295	0.857174
C31	C	-1.423280	-0.084077	0.356588
C32	C	-0.923280	0.415923	0.856588
C33	C	-1.527157	-0.302938	0.382636
C34	C	-1.027157	0.197062	0.882636
C35	C	-1.524956	-0.389729	0.382096
C36	C	-1.024956	0.110271	0.882096
C37	C	-1.306416	-0.377028	0.327338
C38	C	-0.806416	0.122972	0.827338
C39	C	-1.308616	-0.290237	0.327888
C40	C	-0.808616	0.209763	0.827888
C41	C	-1.418991	-0.253195	0.355530
C42	C	-0.918991	0.246805	0.855530
C43	C	-1.414591	-0.426777	0.354441
C44	C	-0.914591	0.073223	0.854441
C45	C	-1.412204	-0.520880	0.353856
C46	C	-0.912204	-0.020880	0.853856
C47	C	-1.421378	-0.159086	0.356118
C48	C	-0.921378	0.340914	0.856118
C49	C	-0.636078	0.161104	0.409918
C50	C	-0.136078	0.661104	0.909918
C51	C	-0.769224	0.167105	0.443270
C52	C	-0.269224	0.667105	0.943270
C53	C	-1.407973	0.311731	0.352789
C54	C	-0.907973	0.811731	0.852789
C55	C	-1.410301	0.404104	0.353384
C56	C	-0.910301	0.904104	0.853384
N57	N	-1.363503	0.195283	0.685727
N58	N	-0.863503	0.695283	1.185727
N59	N	-1.470091	0.124736	0.024235
N60	N	-0.970091	0.624736	0.524235
C61	C	-1.403840	0.168578	0.935443
C62	C	-0.903840	0.668578	1.435443
C63	C	-1.429763	0.151435	0.774518
C64	C	-0.929763	0.651435	1.274518
H65	H	-0.813536	0.143646	0.221856
H66	H	-0.313536	0.643646	0.721856
H67	H	-1.020048	0.176408	0.488072
H68	H	-0.520048	0.676408	0.988072
H69	H	-1.617031	-0.272781	0.405147
H70	H	-1.117031	0.227219	0.905147
Br71	Br	-0.826618	0.189271	0.636406
Br72	Br	-0.326618	0.689271	1.136406
H73	H	-1.029904	0.139659	0.150814
H74	H	-0.529904	0.639659	0.650814
Br75	Br	-1.596630	0.041026	0.952386
Br76	Br	-1.096630	0.541026	1.452386
Br77	Br	-1.671758	-0.457234	0.418892
Br78	Br	-1.171758	0.042766	0.918892
Br79	Br	-1.277318	0.252304	1.007291
Br80	Br	-0.777318	0.752304	1.507291
H81	H	-1.216553	-0.407198	0.304830
H82	H	-0.716553	0.092802	0.804830
Br83	Br	-1.161806	-0.222721	0.291118
Br84	Br	-0.661806	0.277279	0.791118
H85	H	-1.505685	0.101208	0.731409
H86	H	-1.005685	0.601208	1.231409
H87	H	-1.287590	0.245516	0.728839
H88	H	-0.787590	0.745516	1.228839
