data_functionalizedCrystal
_audit_creation_method	'MofGen! by Chris Wilmer'
_symmetry_space_group_name_H-M	'P1'
_symmetry_Int_Tables_number	1
_symmetry_cell_setting	triclinic
loop_
_symmetry_equiv_pos_as_xyz
  x,y,z
_cell_length_a	14.971486
_cell_length_b	14.971494
_cell_length_c	14.048226
_cell_angle_alpha	89.995286
_cell_angle_beta	89.998499
_cell_angle_gamma	83.615843
loop_
_atom_site_label
_atom_site_type_symbol
_atom_site_fract_x
_atom_site_fract_y
_atom_site_fract_z
O1	O	-1.186951	-0.116564	0.079047
O2	O	-0.926551	-0.130523	0.079073
O3	O	-1.063726	0.006656	0.079057
O4	O	-1.049775	-0.253743	0.079063
O5	O	-1.063710	0.006664	-0.079264
O6	O	-0.926534	-0.130515	-0.079248
O7	O	-1.186934	-0.116556	-0.079274
Zn8	Zn	-1.056732	-0.123534	-0.104398
Zn9	Zn	-1.056753	-0.123545	0.104197
O10	O	-1.049759	-0.253735	-0.079258
C11	C	-0.893218	-0.129895	-0.000084
C12	C	-0.793921	-0.128024	-0.000075
C13	C	-1.063093	0.039985	-0.000102
C14	C	-1.061219	0.139281	-0.000097
C15	C	-1.050392	-0.287064	-0.000097
C16	C	-1.052266	-0.386360	-0.000095
C17	C	-1.220267	-0.117184	-0.000114
C18	C	-1.319564	-0.119055	-0.000118
C19	C	-0.736698	-0.208613	-0.000074
C20	C	-0.643398	-0.206850	-0.000088
C21	C	-0.607323	-0.124497	-0.000096
C22	C	-0.664554	-0.043902	-0.000100
C23	C	-0.757851	-0.045666	-0.000092
C24	C	-0.470091	-0.040231	-0.000113
C25	C	-0.376787	-0.038466	-0.000118
C26	C	-0.355638	-0.201415	-0.000109
C27	C	-0.448936	-0.203179	-0.000102
C28	C	-0.506160	-0.122583	-0.000103
C29	C	-1.060350	0.185922	0.086205
C30	C	-1.058583	0.279221	0.086206
C31	C	-1.057693	0.325879	-0.000096
C32	C	-1.058559	0.279231	-0.086404
C33	C	-1.060319	0.185933	-0.086405
C34	C	-1.054893	0.473695	-0.086398
C35	C	-1.053135	0.566999	-0.086398
C36	C	-1.053158	0.566982	0.086213
C37	C	-1.054917	0.473684	0.086213
C38	C	-1.055786	0.427043	-0.000096
N39	N	-1.056723	-0.123526	-0.246759
C40	C	-1.117484	-0.062809	-0.296584
C41	C	-1.117490	-0.062808	-0.396241
C42	C	-1.056739	-0.123530	-0.446072
C43	C	-0.995972	-0.184251	-0.396240
C44	C	-0.995962	-0.184246	-0.296584
C45	C	-0.995998	-0.184257	-0.603955
C46	C	-0.996008	-0.184263	-0.703617
C47	C	-1.117525	-0.062819	-0.703611
C48	C	-1.117515	-0.062815	-0.603956
C49	C	-1.056749	-0.123537	-0.554131
N50	N	-1.056769	-0.123546	0.246558
H51	H	-0.596810	-0.272473	-0.000087
H52	H	-1.055649	0.435698	0.156488
C53	C	-1.050454	0.709987	0.162867
C54	C	-1.052195	0.618245	0.181087
H55	H	-1.049857	0.741635	0.221437
H56	H	-1.102276	0.732042	0.127407
H57	H	-0.998036	0.718503	0.127414
H58	H	-1.104616	0.609728	0.216535
H59	H	-1.000368	0.596183	0.216563
C60	C	-1.133684	0.378753	-0.186558
C61	C	-1.055845	0.422430	-0.181273
H62	H	-1.134268	0.347103	-0.245127
H63	H	-1.185108	0.421912	-0.182977
H64	H	-1.134455	0.337612	-0.135159
H65	H	-1.055076	0.463576	-0.232667
H66	H	-1.004407	0.379266	-0.184863
C67	C	-0.985447	0.071048	-0.186521
C68	C	-1.061272	0.134658	-0.181268
H69	H	-0.986030	0.039396	-0.245090
H70	H	-0.986237	0.029919	-0.135126
H71	H	-0.932650	0.100694	-0.182926
H72	H	-1.114069	0.105010	-0.184856
H73	H	-1.060490	0.175793	-0.232677
C74	C	-0.979801	0.374144	0.186397
C75	C	-1.057642	0.330473	0.181083
H76	H	-0.979221	0.405775	0.244979
H77	H	-0.979018	0.415293	0.135019
H78	H	-0.928372	0.330977	0.182813
H79	H	-1.109071	0.373641	0.184660
H80	H	-1.058433	0.289320	0.232475
C81	C	-1.237590	0.057239	-0.306598
C82	C	-1.184262	0.003942	-0.241814
H83	H	-1.278812	0.098454	-0.272786
H84	H	-1.269805	0.019952	-0.345454
H85	H	-1.200318	0.089469	-0.345480
H86	H	-1.221534	-0.028293	-0.202937
H87	H	-1.152045	0.041235	-0.202942
H88	H	-0.804442	0.019958	-0.000092
C89	C	-0.706412	-0.369501	-0.000076
C90	C	-0.776346	-0.299139	-0.000068
H91	H	-0.730889	-0.425389	-0.000081
H92	H	-0.670462	-0.365428	0.055128
H93	H	-0.670465	-0.365412	-0.055293
H94	H	-0.812290	-0.303225	0.055153
H95	H	-0.812311	-0.303214	-0.055278
C96	C	-0.418664	-0.364070	-0.000101
C97	C	-0.488591	-0.293701	-0.000095
H98	H	-0.443148	-0.419955	-0.000104
H99	H	-0.382715	-0.360001	0.055104
H100	H	-0.382715	-0.359986	-0.055317
H101	H	-0.524537	-0.297782	0.055126
H102	H	-0.524556	-0.297773	-0.055305
C103	C	-0.407058	0.122426	-0.000143
C104	C	-0.337131	0.052057	-0.000132
H105	H	-0.382574	0.178310	-0.000156
H106	H	-0.443007	0.118354	0.055065
H107	H	-0.443009	0.118343	-0.055356
H108	H	-0.301184	0.056135	0.055084
H109	H	-0.301168	0.056130	-0.055346
H110	H	-1.052402	0.604985	-0.156672
C111	C	-0.874333	-0.203448	-0.815723
C112	C	-0.929228	-0.250999	-0.758403
H113	H	-0.833110	-0.244648	-0.849551
H114	H	-0.842120	-0.166169	-0.776856
H115	H	-0.910542	-0.167289	-0.859647
H116	H	-0.893019	-0.287153	-0.714474
H117	H	-0.961444	-0.288294	-0.797274
C118	C	-1.239006	-0.043326	-0.491579
C119	C	-1.184075	0.004042	-0.549048
H120	H	-1.280034	-0.002015	-0.457647
H121	H	-1.202803	-0.079595	-0.447755
H122	H	-1.271448	-0.080483	-0.530364
H123	H	-1.151628	0.041194	-0.510261
H124	H	-1.220282	0.040327	-0.592877
C125	C	-0.875892	-0.304314	-0.613965
C126	C	-0.929208	-0.251008	-0.549185
H127	H	-0.834667	-0.345527	-0.580150
H128	H	-0.843681	-0.267031	-0.652840
H129	H	-0.913171	-0.336545	-0.652829
H130	H	-0.891928	-0.218772	-0.510326
H131	H	-0.961421	-0.288295	-0.510294
H132	H	-1.057829	0.317227	-0.156673
H133	H	-0.946484	-0.233688	-0.256018
H134	H	-1.167002	-0.013377	-0.744185
H135	H	-1.166965	-0.013367	-0.436808
H136	H	-0.309041	-0.267038	-0.000112
C137	C	-0.587285	0.052335	-0.081496
C138	C	-0.532991	0.048363	-0.000113
H139	H	-0.626111	0.107031	-0.081492
H140	H	-0.622119	0.003044	-0.081485
H141	H	-0.550443	0.049640	-0.136703
H142	H	-0.569833	0.051051	0.055095
H143	H	-0.498154	0.097667	-0.000114
H144	H	-0.635174	0.023152	-0.000120
H145	H	-1.061080	0.147940	0.156482
H146	H	-0.946503	-0.233689	-0.436818
