data_functionalizedCrystal
_audit_creation_method	'MofGen! by Chris Wilmer'
_symmetry_space_group_name_H-M	'P1'
_symmetry_Int_Tables_number	1
_symmetry_cell_setting	triclinic
loop_
_symmetry_equiv_pos_as_xyz
  x,y,z
_cell_length_a	13.033748
_cell_length_b	16.625545
_cell_length_c	13.032268
_cell_angle_alpha	97.146495
_cell_angle_beta	103.297929
_cell_angle_gamma	97.220200
loop_
_atom_site_label
_atom_site_type_symbol
_atom_site_fract_x
_atom_site_fract_y
_atom_site_fract_z
Zn1	Zn	1.547407	-0.207787	-0.394587
Zn2	Zn	1.569840	-0.323035	-0.217000
Zn3	Zn	1.392359	-0.207844	-0.239528
Zn4	Zn	1.369750	-0.362218	-0.417065
O5	O	1.469839	-0.275221	-0.317045
O6	O	1.699009	-0.206653	-0.352194
O7	O	1.565147	-0.291381	-0.071368
O8	O	1.413001	-0.094999	-0.260117
O9	O	1.715490	-0.291325	-0.221722
O10	O	1.526913	-0.094957	-0.374039
O11	O	1.434753	-0.206751	-0.087919
O12	O	1.240734	-0.244744	-0.281914
O13	O	1.374467	-0.358106	-0.562704
O14	O	1.224123	-0.358162	-0.412350
O15	O	1.504990	-0.244646	-0.546189
O16	O	1.543224	-0.441071	-0.243519
O17	O	1.396219	-0.469858	-0.390506
C18	C	1.193892	-0.305712	-0.352016
C19	C	1.075837	-0.318778	-0.367002
C20	C	1.031382	-0.268425	-0.309250
C21	C	0.909367	-0.281928	-0.324737
C22	C	1.469728	-0.484721	-0.317026
C23	C	1.469773	-0.574339	-0.317041
C24	C	1.469812	-0.647119	-0.317057
C25	C	1.469870	-0.738423	-0.317073
C26	C	1.469924	-0.811195	-0.317079
C27	C	1.469982	-0.902505	-0.317093
C28	C	1.746864	-0.244612	-0.281938
C29	C	1.864916	-0.231568	-0.266977
C30	C	1.434704	-0.305740	-0.594060
C31	C	1.419732	-0.318746	-0.712107
C32	C	1.469977	-0.064902	-0.317083
C33	C	1.470035	0.024723	-0.317100
C34	C	1.477637	-0.268406	-0.756565
C35	C	1.462163	-0.281847	-0.878573
C36	C	1.504899	-0.244756	-0.041100
C37	C	1.520077	-0.231500	0.076973
H38	H	0.857098	-0.335040	-0.385648
H39	H	1.083655	-0.215322	-0.248337
H40	H	1.401122	-0.334894	-0.930834
O41	O	1.013422	-0.382037	-0.439789
C42	C	0.940561	-0.350827	-0.516555
H43	H	0.973232	-0.284385	-0.519036
H44	H	0.928837	-0.389231	-0.598394
H45	H	0.860697	-0.353628	-0.494313
H46	H	1.358694	-0.371789	-0.764372
O47	O	0.927383	-0.168300	-0.194238
C48	C	1.000207	-0.199508	-0.117434
H49	H	1.011969	-0.262955	-0.152670
H50	H	1.080056	-0.156510	-0.093436
H51	H	0.967485	-0.204295	-0.044093
O52	O	1.550318	-0.205085	-0.694124
C53	C	1.497962	-0.152655	-0.637657
H54	H	1.419530	-0.188179	-0.631349
H55	H	1.551058	-0.128537	-0.554135
H56	H	1.480964	-0.098855	-0.681823
H57	H	1.581106	-0.178445	-0.870769
