data_functionalizedCrystal
_audit_creation_method	'MofGen! by Chris Wilmer'
_symmetry_space_group_name_H-M	'P1'
_symmetry_Int_Tables_number	1
_symmetry_cell_setting	triclinic
loop_
_symmetry_equiv_pos_as_xyz
  x,y,z
_cell_length_a	16.109302
_cell_length_b	17.699092
_cell_length_c	14.586319
_cell_angle_alpha	89.997896
_cell_angle_beta	89.994552
_cell_angle_gamma	83.374074
loop_
_atom_site_label
_atom_site_type_symbol
_atom_site_fract_x
_atom_site_fract_y
_atom_site_fract_z
O1	O	1.102966	0.097287	-0.076278
O2	O	1.602966	0.597287	0.423722
O3	O	0.860884	0.109393	-0.076270
O4	O	1.360884	0.609393	0.423730
O5	O	0.988761	-0.006839	-0.076272
O6	O	1.488761	0.493161	0.423728
O7	O	0.975089	0.213519	-0.076276
O8	O	1.475089	0.713519	0.423724
O9	O	0.988752	-0.006841	0.076208
O10	O	1.488752	0.493159	0.576208
O11	O	0.860875	0.109391	0.076210
O12	O	1.360875	0.609391	0.576210
O13	O	1.102957	0.097285	0.076203
O14	O	1.602957	0.597285	0.576203
Cu15	Cu	0.981915	0.103338	0.090129
Cu16	Cu	1.481915	0.603338	0.590129
Cu17	Cu	0.981926	0.103340	-0.090197
Cu18	Cu	1.481926	0.603340	0.409803
O19	O	0.975080	0.213517	0.076205
O20	O	1.475080	0.713517	0.576205
C21	C	0.829905	0.108902	-0.000029
C22	C	1.329905	0.608902	0.499971
C23	C	0.737612	0.107431	-0.000026
C24	C	1.237612	0.607431	0.499974
C25	C	0.525272	0.104030	0.083082
C26	C	1.025272	0.604030	0.583082
C27	C	0.438555	0.102640	0.083079
C28	C	0.938555	0.602640	0.583079
C29	C	0.438575	0.102646	-0.083164
C30	C	0.938575	0.602646	0.416836
C31	C	0.525292	0.104030	-0.083160
C32	C	1.025292	0.604030	0.416840
C33	C	0.568638	0.104726	-0.000034
C34	C	1.068638	0.604726	0.499966
C35	C	0.395203	0.101952	-0.000041
C36	C	0.895203	0.601952	0.499959
C37	C	0.301180	0.100445	-0.000046
C38	C	0.801180	0.600445	0.499954
C39	C	0.662667	0.106232	-0.000030
C40	C	1.162667	0.606232	0.499970
C41	C	0.988265	-0.035037	-0.000033
C42	C	1.488265	0.464963	0.499967
C43	C	0.986792	-0.119057	-0.000037
C44	C	1.486792	0.380943	0.499963
C45	C	0.986107	-0.158525	-0.083156
C46	C	1.486107	0.341475	0.416844
C47	C	0.984717	-0.237470	-0.083157
C48	C	1.484717	0.262530	0.416843
C49	C	0.984019	-0.276946	-0.000039
C50	C	1.484019	0.223054	0.499961
C51	C	0.984702	-0.237473	0.083086
C52	C	1.484702	0.262527	0.583086
C53	C	0.986085	-0.158529	0.083086
C54	C	1.486085	0.341471	0.583086
C55	C	0.979121	-0.555846	0.083088
C56	C	1.479121	-0.055846	0.583088
C57	C	0.977740	-0.634796	0.083081
C58	C	1.477740	-0.134796	0.583081
C59	C	0.977753	-0.634787	-0.083155
C60	C	1.477753	-0.134787	0.416845
C61	C	0.979136	-0.555843	-0.083155
C62	C	1.479136	-0.055843	0.416845
C63	C	0.979815	-0.516376	-0.000031
C64	C	1.479815	-0.016376	0.499969
C65	C	0.981320	-0.430775	-0.000031
C66	C	1.481320	0.069225	0.499969
C67	C	0.982520	-0.362547	-0.000038
C68	C	1.482520	0.137453	0.499962
C69	C	1.133936	0.097776	-0.000041
C70	C	1.633936	0.597776	0.499959
C71	C	1.226228	0.099247	-0.000049
C72	C	1.726228	0.599247	0.499951
C73	C	0.975576	0.241716	-0.000036
C74	C	1.475576	0.741716	0.499964
C75	C	0.977049	0.325736	-0.000038
C76	C	1.477049	0.825736	0.499962
N77	N	0.981914	0.103336	0.216961
N78	N	1.481914	0.603336	0.716961
N79	N	0.981934	0.103336	-0.217029
N80	N	1.481934	0.603336	0.282971
C81	C	1.038556	0.051886	0.451967
C82	C	1.538556	0.551886	0.951967
C83	C	1.038559	0.051884	0.547948
C84	C	1.538559	0.551884	1.047948
C85	C	0.925285	0.154789	0.547959
C86	C	1.425285	0.654789	1.047959
C87	C	0.925279	0.154786	0.451980
C88	C	1.425279	0.654786	0.951980
C89	C	0.981920	0.103336	0.403986
C90	C	1.481920	0.603336	0.903986
C91	C	0.981928	0.103336	0.595947
C92	C	1.481928	0.603336	1.095947
C93	C	0.981930	0.103335	0.700014
C94	C	1.481930	0.603335	1.200014
C95	C	0.981917	0.103336	0.299912
C96	C	1.481917	0.603336	0.799912
H97	H	0.403250	0.102074	0.150760
H98	H	0.903250	0.602074	0.650760
Br99	Br	0.379746	0.101679	-0.195972
Br100	Br	0.879746	0.601679	0.304028
Br101	Br	0.987011	-0.104964	0.195894
Br102	Br	1.487011	0.395036	0.695894
Br103	Br	0.584152	0.104966	-0.195969
Br104	Br	1.084152	0.604966	0.304031
Br105	Br	0.987063	-0.104958	-0.195966
Br106	Br	1.487063	0.395042	0.304034
Br107	Br	0.980091	-0.502272	-0.195962
Br108	Br	1.480091	-0.002272	0.304038
H109	H	0.984163	-0.269601	-0.150840
H110	H	1.484163	0.230399	0.349160
Br111	Br	1.115424	-0.017941	0.386836
Br112	Br	1.615424	0.482059	0.886836
H113	H	0.879171	0.196680	0.587045
H114	H	1.379171	0.696680	1.087045
H115	H	0.560562	0.104597	0.150768
H116	H	1.060562	0.604597	0.650768
H117	H	0.879155	0.196684	0.412911
H118	H	1.379155	0.696684	0.912911
Br119	Br	0.976832	-0.688353	-0.195969
Br120	Br	1.476832	-0.188353	0.304031
H121	H	0.977169	-0.666936	0.150770
H122	H	1.477169	-0.166936	0.650770
Br123	Br	0.980025	-0.502292	0.195899
Br124	Br	1.480025	-0.002292	0.695899
Br125	Br	0.983741	-0.291046	0.195891
Br126	Br	1.483741	0.208954	0.695891
H127	H	1.084677	0.009988	0.587011
H128	H	1.584677	0.509988	1.087011
