data_functionalizedCrystal
_audit_creation_method	'MofGen! by Chris Wilmer'
_symmetry_space_group_name_H-M	'P1'
_symmetry_Int_Tables_number	1
_symmetry_cell_setting	triclinic
loop_
_symmetry_equiv_pos_as_xyz
  x,y,z
_cell_length_a	6.817900
_cell_length_b	17.982783
_cell_length_c	16.305550
_cell_angle_alpha	95.663698
_cell_angle_beta	103.455250
_cell_angle_gamma	102.448572
loop_
_atom_site_label
_atom_site_type_symbol
_atom_site_fract_x
_atom_site_fract_y
_atom_site_fract_z
V1	V	-4.021167	-0.106056	-0.263384
O2	O	-4.014054	0.004435	-0.258010
O3	O	-3.967657	-0.209654	-0.261929
O4	O	-3.972637	-0.104715	-0.378096
O5	O	-4.009039	-0.101231	-0.141038
V6	V	-4.505474	-0.092806	-0.248708
O7	O	-4.280706	-0.135121	-0.295576
O8	O	-4.696132	-0.063740	-0.216516
O9	O	-4.335777	0.010793	-0.250163
O10	O	-4.629984	-0.203296	-0.254082
O11	O	-4.634999	-0.097630	-0.371054
O12	O	-4.330797	-0.094147	-0.133995
C13	C	-3.811419	-0.234900	-0.257863
C14	C	-3.848954	-0.319596	-0.257439
C15	C	-3.827008	-0.348316	-0.179947
C16	C	-3.862296	-0.427897	-0.179551
C17	C	-3.919515	-0.478756	-0.256647
C18	C	-3.941467	-0.450030	-0.334144
C19	C	-3.906194	-0.370451	-0.334540
C20	C	-4.083724	-0.770965	-0.332550
C21	C	-4.118991	-0.850548	-0.332148
C22	C	-4.039827	-0.828410	-0.177561
C23	C	-4.004554	-0.748831	-0.177957
C24	C	-4.026519	-0.720113	-0.255454
C25	C	-3.988259	-0.633822	-0.255883
C26	C	-3.957760	-0.565045	-0.256218
C27	C	-3.817771	-0.101038	-0.406045
C28	C	-3.859342	-0.100628	-0.499826
C29	C	-4.010505	-0.099035	-0.840566
C30	C	-3.774684	-0.094308	-0.799622
C31	C	-3.731454	-0.095050	-0.702129
C32	C	-3.935510	-0.099825	-0.671521
C33	C	-4.098940	-0.175069	-0.722397
C34	C	-4.140824	-0.174644	-0.819945
C35	C	-4.068609	-0.029119	-0.794490
C36	C	-4.020708	-0.028524	-0.696646
C37	C	-3.893139	-0.100274	-0.575984
C38	C	-4.052885	-0.098591	-0.936103
C39	C	-4.155357	0.036035	-0.254226
C40	C	-4.097060	0.120730	-0.254656
C41	C	-4.149005	-0.097825	-0.106042
C42	C	-4.086673	-0.098232	-0.012261
H43	H	-3.844429	-0.451277	-0.116450
N44	N	-3.957336	0.042399	-0.811013
N45	N	-3.762840	0.060580	-0.789217
H46	H	-3.684232	0.111087	-0.800886
H47	H	-4.101586	-0.747592	-0.395653
H48	H	-3.957953	-0.707425	-0.115177
N49	N	-4.177413	-0.902501	-0.410903
N50	N	-4.059307	-0.898020	-0.459440
H51	H	-4.100558	-0.934712	-0.515058
H52	H	-3.988072	-0.491446	-0.396917
H53	H	-3.924086	-0.347070	-0.397642
N54	N	-3.576019	-0.027179	-0.657974
N55	N	-3.498778	0.021071	-0.699114
H56	H	-3.388993	0.069008	-0.667933
N57	N	-4.358487	-0.182904	-0.855098
N58	N	-4.445434	-0.134006	-0.829752
H59	H	-4.599157	-0.139844	-0.854579
H60	H	-4.021953	-0.851802	-0.114459
N61	N	-3.644812	-0.026115	-0.814906
N62	N	-3.724531	0.019797	-0.856158
H63	H	-3.632811	0.067961	-0.866958
H64	H	-4.168040	-0.027588	-0.675295
N65	N	-3.645065	-0.158793	-0.681907
N66	N	-3.616566	-0.202873	-0.739840
H67	H	-3.555556	-0.247896	-0.725560
N68	N	-4.092305	-0.241045	-0.858273
N69	N	-4.027802	-0.287377	-0.812931
H70	H	-3.993529	-0.334275	-0.839995
N71	N	-3.872190	0.041291	-0.653282
N72	N	-3.704188	0.038606	-0.604044
H73	H	-3.599294	0.087912	-0.573410
N74	N	-4.290695	-0.182859	-0.698696
N75	N	-4.309085	-0.132922	-0.643911
H76	H	-4.444512	-0.138421	-0.627170
N77	N	-4.026208	-0.241481	-0.701520
N78	N	-3.854141	-0.233586	-0.649216
H79	H	-3.802761	-0.280487	-0.634470
H80	H	-3.727188	-0.144539	-0.831301
N81	N	-4.284292	-0.032630	-0.828149
N82	N	-4.394936	-0.086335	-0.885814
H83	H	-4.547262	-0.088820	-0.909591
H84	H	-3.780401	-0.306911	-0.117166
