data_functionalizedCrystal
_audit_creation_method	'MofGen! by Chris Wilmer'
_symmetry_space_group_name_H-M	'P1'
_symmetry_Int_Tables_number	1
_symmetry_cell_setting	triclinic
loop_
_symmetry_equiv_pos_as_xyz
  x,y,z
_cell_length_a	17.699083
_cell_length_b	18.366186
_cell_length_c	19.288865
_cell_angle_alpha	89.988521
_cell_angle_beta	83.209632
_cell_angle_gamma	89.996982
loop_
_atom_site_label
_atom_site_type_symbol
_atom_site_fract_x
_atom_site_fract_y
_atom_site_fract_z
O1	O	1.003957	-0.060456	0.087837
O2	O	0.783563	-0.060481	0.099265
O3	O	0.900128	-0.060453	-0.007572
O4	O	0.887392	-0.060484	0.194674
O5	O	0.900109	0.060646	-0.007577
O6	O	0.783543	0.060618	0.099260
O7	O	1.003937	0.060643	0.087832
Zn8	Zn	0.893737	0.079858	0.093545
Zn9	Zn	0.893763	-0.079696	0.093552
O10	O	0.887372	0.060616	0.194668
C11	C	0.755356	0.000066	0.098853
C12	C	0.671340	0.000057	0.097624
N13	N	0.893725	0.188749	0.093540
N14	N	0.893781	-0.188587	0.093551
C15	C	0.622631	0.000048	0.160335
C16	C	0.543689	0.000057	0.159177
C17	C	0.513458	0.000071	0.095307
C18	C	0.562174	0.000082	0.032591
C19	C	0.641114	0.000078	0.033750
C20	C	0.243817	0.000101	0.027915
C21	C	0.164871	0.000103	0.026761
C22	C	0.146393	0.000080	0.153342
C23	C	0.225333	0.000076	0.154501
C24	C	0.274041	0.000091	0.091785
C25	C	0.359639	0.000082	0.093042
C26	C	0.427862	0.000075	0.094049
C27	C	1.032144	0.000095	0.088244
C28	C	1.116160	0.000099	0.089472
C29	C	0.899709	0.000098	-0.033451
C30	C	0.898478	0.000105	-0.110556
C31	C	0.945357	0.226862	0.046256
C32	C	0.945362	0.303090	0.046253
C33	C	0.893742	0.341202	0.093545
C34	C	0.842100	0.303080	0.140833
C35	C	0.842092	0.226854	0.140830
C36	C	0.883610	0.461952	0.156821
C37	C	0.883624	0.538177	0.156825
C38	C	0.893763	0.576309	0.093554
C39	C	0.903905	0.538207	0.030277
C40	C	0.903897	0.461981	0.030274
C41	C	0.893745	0.423857	0.093554
C42	C	0.945403	0.697077	0.046263
C43	C	0.945403	0.773306	0.046259
C44	C	0.842145	0.773295	0.140845
C45	C	0.842141	0.697067	0.140843
C46	C	0.893775	0.658963	0.093553
C47	C	0.966874	0.000116	-0.155172
C48	C	0.965718	0.000104	-0.227620
C49	C	0.896163	0.000096	-0.255450
C50	C	0.827759	0.000081	-0.210825
C51	C	0.828916	0.000085	-0.138378
C52	C	0.841478	0.042508	-0.363804
C53	C	0.840323	0.042509	-0.436250
C54	C	0.892589	0.000079	-0.478900
C55	C	0.946024	-0.042341	-0.449097
C56	C	0.947181	-0.042336	-0.376650
C57	C	0.894900	0.000091	-0.334006
C58	C	0.959736	0.000077	-0.602073
C59	C	0.958578	0.000061	-0.674522
C60	C	0.820616	0.000044	-0.657725
C61	C	0.821777	0.000053	-0.585277
C62	C	0.891339	0.000073	-0.557456
C63	C	0.887792	0.000062	0.220548
C64	C	0.889022	0.000051	0.297653
H65	H	0.647238	0.000036	0.212346
Br66	Br	0.477586	0.000042	0.244288
H67	H	0.987444	0.666051	0.007754
Br68	Br	0.869924	0.410209	0.242699
Br69	Br	1.015474	0.825035	-0.017923
Br70	Br	0.772069	0.645337	0.205020
H71	H	0.680773	0.000085	-0.017316
Br72	Br	0.266357	0.000051	0.241184
Br73	Br	0.123844	0.000119	-0.059926
H74	H	0.800112	0.804326	0.179350
H75	H	0.987398	0.195839	0.007747
H76	H	0.800069	0.334115	0.179339
H77	H	0.990688	-0.076877	-0.352387
Br78	Br	0.767811	0.100082	-0.476690
Br79	Br	0.917676	0.589948	-0.055597
Br80	Br	1.016963	-0.099927	-0.506970
Br81	Br	1.015439	0.354823	-0.017925
H82	H	0.912153	0.430962	-0.021249
Br83	Br	0.309912	0.000123	-0.057199
H84	H	0.875370	0.569194	0.208349
Br85	Br	0.736087	0.000068	-0.077824
Br86	Br	0.733362	0.000060	-0.248592
Br87	Br	1.054139	0.000111	-0.564310
Br88	Br	0.772013	0.175125	0.205006
Br89	Br	1.061279	0.000123	-0.117417
H90	H	0.106724	0.000072	0.204407
Br91	Br	0.728949	0.000039	-0.524724
H92	H	0.763983	0.000034	-0.680383
H93	H	1.021416	0.000111	-0.263953
Br94	Br	0.770538	0.100096	-0.305929
Br95	Br	0.521147	0.000108	-0.054091
Br96	Br	1.051408	0.000068	-0.735074
