data_functionalizedCrystal
_audit_creation_method	'MofGen! by Chris Wilmer'
_symmetry_space_group_name_H-M	'P1'
_symmetry_Int_Tables_number	1
_symmetry_cell_setting	triclinic
loop_
_symmetry_equiv_pos_as_xyz
  x,y,z
_cell_length_a	13.033409
_cell_length_b	13.032721
_cell_length_c	18.215399
_cell_angle_alpha	97.154738
_cell_angle_beta	97.173412
_cell_angle_gamma	89.138002
loop_
_atom_site_label
_atom_site_type_symbol
_atom_site_fract_x
_atom_site_fract_y
_atom_site_fract_z
Zn1	Zn	1.520127	-0.608894	-0.334308
Zn2	Zn	1.498169	-0.780872	-0.228589
Zn3	Zn	1.348157	-0.587111	-0.224722
Zn4	Zn	1.326291	-0.759008	-0.365066
O5	O	1.423186	-0.683971	-0.288171
O6	O	1.661115	-0.649974	-0.309031
O7	O	1.478231	-0.755203	-0.125099
O8	O	1.389309	-0.446088	-0.224769
O9	O	1.644983	-0.776325	-0.231360
O10	O	1.515655	-0.462092	-0.305281
O11	O	1.368018	-0.612848	-0.122258
O12	O	1.201355	-0.591647	-0.254593
O13	O	1.352042	-0.739061	-0.463963
O14	O	1.185290	-0.717939	-0.357702
O15	O	1.494452	-0.628773	-0.441366
O16	O	1.457028	-0.921884	-0.261184
O17	O	1.330750	-0.905821	-0.361452
C18	C	1.156010	-0.650058	-0.309066
C19	C	1.041708	-0.635574	-0.318025
C20	C	0.864638	-0.676568	-0.292770
C21	C	0.982775	-0.691541	-0.283507
C22	C	1.389162	-0.951171	-0.315089
C23	C	1.374700	-1.065492	-0.326621
C24	C	1.430788	-1.124380	-0.282181
C25	C	1.415843	-1.242538	-0.294100
C26	C	1.691405	-0.718018	-0.267196
C27	C	1.805703	-0.732527	-0.258257
C28	C	1.423257	-0.683908	-0.480112
C29	C	1.423288	-0.683882	-0.561906
C30	C	1.457371	-0.415732	-0.261163
C31	C	1.471938	-0.301424	-0.249653
C32	C	1.497472	-0.626396	-0.738327
C33	C	1.497488	-0.626368	-0.815182
C34	C	1.349196	-0.741217	-0.838702
C35	C	1.349176	-0.741239	-0.761848
C36	C	1.423320	-0.683831	-0.711662
C37	C	1.423356	-0.683781	-0.865371
C38	C	1.423373	-0.683750	-0.948700
C39	C	1.423302	-0.683859	-0.628327
C40	C	1.423183	-0.683967	-0.096965
C41	C	1.423388	-0.683730	-0.015127
H42	H	1.004710	-0.576579	-0.354435
O43	O	1.026841	-0.762069	-0.240170
C44	C	1.037583	-0.941092	-0.219260
C45	C	0.987617	-0.861334	-0.268409
H46	H	1.005875	-1.021363	-0.242064
H47	H	1.124997	-0.940720	-0.219540
H48	H	1.018815	-0.920219	-0.159750
H49	H	1.006304	-0.882152	-0.327941
H50	H	0.900216	-0.861721	-0.268066
O51	O	1.277233	-0.797198	-0.735980
C52	C	1.204982	-0.965795	-0.734002
C53	C	1.286519	-0.902558	-0.763336
H54	H	1.212448	-1.050987	-0.756120
H55	H	1.217697	-0.956034	-0.670452
H56	H	1.124380	-0.937157	-0.753760
H57	H	1.367155	-0.931154	-0.743634
H58	H	1.273714	-0.912321	-0.826884
H59	H	0.842707	-0.791526	-0.221857
H60	H	1.557869	-0.579597	-0.836888
H61	H	0.827634	-0.617578	-0.329178
O62	O	1.501134	-1.080113	-0.226192
C63	C	1.530291	-0.960475	-0.113628
C64	C	1.450512	-1.010544	-0.176984
H65	H	1.489397	-0.904202	-0.073835
H66	H	1.570185	-1.023139	-0.081962
H67	H	1.590374	-0.916965	-0.138218
H68	H	1.390366	-1.054048	-0.152456
H69	H	1.410696	-0.947834	-0.208641
O70	O	1.277049	-0.796861	-0.887420
C71	C	1.095772	-0.824628	-0.929600
C72	C	1.177370	-0.761511	-0.874398
H73	H	1.015163	-0.796086	-0.919081
H74	H	1.108434	-0.814737	-0.989126
H75	H	1.103319	-0.909848	-0.921425
H76	H	1.169872	-0.676269	-0.882505
H77	H	1.164684	-0.771490	-0.814892
H78	H	1.315621	-1.102552	-0.373494
O79	O	1.542572	-1.257293	-0.193804
C80	C	1.721682	-1.246344	-0.141149
C81	C	1.641805	-1.296383	-0.204449
H82	H	1.801926	-1.277944	-0.149725
H83	H	1.721269	-1.158925	-0.141494
H84	H	1.700965	-1.265171	-0.085329
H85	H	1.662466	-1.277636	-0.260300
H86	H	1.642233	-1.383790	-0.204038
H87	H	1.356759	-1.279592	-0.340976
O88	O	1.569532	-0.570532	-0.689678
C89	C	1.716651	-0.456656	-0.674466
C90	C	1.635089	-0.519862	-0.729639
H91	H	1.769689	-0.415691	-0.706753
H92	H	1.676338	-0.396839	-0.636771
H93	H	1.764353	-0.510714	-0.639020
H94	H	1.587362	-0.465885	-0.765135
H95	H	1.675466	-0.579690	-0.767283
