data_functionalizedCrystal
_audit_creation_method	'MofGen! by Chris Wilmer'
_symmetry_space_group_name_H-M	'P1'
_symmetry_Int_Tables_number	1
_symmetry_cell_setting	triclinic
loop_
_symmetry_equiv_pos_as_xyz
  x,y,z
_cell_length_a	10.654550
_cell_length_b	10.654550
_cell_length_c	9.730223
_cell_angle_alpha	89.995747
_cell_angle_beta	89.999957
_cell_angle_gamma	84.484931
loop_
_atom_site_label
_atom_site_type_symbol
_atom_site_fract_x
_atom_site_fract_y
_atom_site_fract_z
O1	O	1.667839	0.176399	-0.114187
O2	O	1.302361	0.193205	-0.114212
O3	O	1.493503	0.002062	-0.114190
O4	O	1.476697	0.367541	-0.114209
O5	O	1.493490	0.002057	0.114390
O6	O	1.302348	0.193199	0.114368
O7	O	1.667827	0.176393	0.114393
Zn8	Zn	1.485085	0.184796	0.150672
Zn9	Zn	1.485102	0.184802	-0.150492
O10	O	1.476684	0.367536	0.114371
C11	C	1.255556	0.191968	0.000075
C12	C	1.116113	0.188276	0.000065
C13	C	1.036628	0.300818	0.000064
C14	C	0.905607	0.297341	0.000088
C15	C	0.933570	0.068772	0.000109
C16	C	1.064588	0.072250	0.000095
C17	C	1.492263	-0.044738	0.000099
C18	C	1.488571	-0.184181	0.000096
C19	C	1.601112	-0.263667	0.000104
C20	C	1.597636	-0.394688	0.000087
C21	C	1.369066	-0.366725	0.000061
C22	C	1.372544	-0.235706	0.000068
C23	C	1.714631	0.177630	0.000103
C24	C	1.854074	0.181322	0.000104
C25	C	1.477925	0.414336	0.000079
C26	C	1.481617	0.553779	0.000072
N27	N	1.485083	0.184790	0.356209
N28	N	1.485114	0.184798	-0.356028
C29	C	1.569750	0.100188	0.428144
C30	C	1.569763	0.100189	0.572027
C31	C	1.400438	0.269404	0.572026
C32	C	1.400420	0.269396	0.428146
H33	H	0.891602	-0.025693	0.000142
C34	C	1.229788	0.295073	0.733870
C35	C	1.307390	0.362406	0.651112
H36	H	1.172351	0.352493	0.782698
H37	H	1.184154	0.242384	0.677757
H38	H	1.280232	0.244691	0.797297
H39	H	1.256946	0.412781	0.587677
H40	H	1.353027	0.415117	0.707230
C41	C	0.742032	0.426021	-0.117415
C42	C	0.818234	0.421050	0.000077
H43	H	0.688087	0.502395	-0.117414
H44	H	0.793716	0.422626	-0.197117
H45	H	0.692596	0.356422	-0.117381
H46	H	0.867677	0.490644	0.000037
H47	H	0.766543	0.424457	0.079800
H48	H	1.129309	-0.019401	0.000100
C49	C	1.374625	0.440061	0.266308
C50	C	1.307351	0.362402	0.349062
H51	H	1.317167	0.497468	0.217480
H52	H	1.427283	0.485727	0.322423
H53	H	1.425033	0.389653	0.202880
H54	H	1.256950	0.412810	0.412497
H55	H	1.254671	0.316732	0.292942
C56	C	1.826692	-0.304472	0.000102
C57	C	1.728647	-0.207029	0.000110
H58	H	1.905427	-0.269506	0.000092
H59	H	1.820583	-0.354995	0.079807
H60	H	1.820569	-0.354987	-0.079615
H61	H	1.734764	-0.156520	0.079833
H62	H	1.734759	-0.156485	-0.079604
C63	C	1.232569	-0.497846	-0.117457
C64	C	1.241537	-0.423371	0.000045
H65	H	1.153839	-0.532820	-0.117457
H66	H	1.238673	-0.447307	-0.197152
H67	H	1.299106	-0.563931	-0.117438
H68	H	1.175005	-0.357279	0.000021
H69	H	1.235420	-0.473913	0.079761
C70	C	1.641572	-0.116561	0.383945
C71	C	1.662797	0.007151	0.349104
H72	H	1.699011	-0.174009	0.335155
H73	H	1.653682	-0.128624	0.479926
H74	H	1.557632	-0.130954	0.360361
H75	H	1.746735	0.021546	0.372698
H76	H	1.650699	0.019219	0.253101
C77	C	1.146254	-0.221215	0.000056
C78	C	1.248828	-0.148325	0.000065
H79	H	1.069883	-0.167266	0.000059
H80	H	1.149654	-0.272887	-0.079651
H81	H	1.149651	-0.272909	0.079771
H82	H	1.245436	-0.096637	-0.079655
H83	H	1.245427	-0.096630	0.079781
H84	H	1.638705	0.031297	0.630593
H85	H	1.689279	-0.459401	0.000090
H86	H	1.078574	0.395294	0.000049
