data_functionalizedCrystal
_audit_creation_method	'MofGen! by Chris Wilmer'
_symmetry_space_group_name_H-M	'P1'
_symmetry_Int_Tables_number	1
_symmetry_cell_setting	triclinic
loop_
_symmetry_equiv_pos_as_xyz
  x,y,z
_cell_length_a	19.188905
_cell_length_b	19.188930
_cell_length_c	18.266242
_cell_angle_alpha	90.011475
_cell_angle_beta	89.983837
_cell_angle_gamma	96.860332
loop_
_atom_site_label
_atom_site_type_symbol
_atom_site_fract_x
_atom_site_fract_y
_atom_site_fract_z
O1	O	0.926160	-0.087085	-0.061010
O2	O	1.426160	0.412915	0.438990
O3	O	0.722847	-0.098838	-0.060986
O4	O	1.222847	0.401162	0.439014
O5	O	0.830371	0.008694	-0.060984
O6	O	1.330371	0.508694	0.439016
O7	O	0.818636	-0.194618	-0.061011
O8	O	1.318636	0.305382	0.438989
O9	O	0.830353	0.008700	0.060778
O10	O	1.330353	0.508700	0.560778
O11	O	0.722828	-0.098833	0.060776
O12	O	1.222828	0.401167	0.560776
O13	O	0.926142	-0.087080	0.060752
O14	O	1.426142	0.412920	0.560752
Zn15	Zn	0.824482	-0.092955	0.080097
Zn16	Zn	1.324482	0.407045	0.580097
Zn17	Zn	0.824506	-0.092963	-0.080330
Zn18	Zn	1.324506	0.407037	0.419670
O19	O	0.818618	-0.194612	0.060751
O20	O	1.318618	0.305388	0.560751
C21	C	0.696826	-0.098458	-0.000102
C22	C	1.196826	0.401542	0.499898
C23	C	0.619321	-0.097324	-0.000092
C24	C	1.119321	0.402676	0.499908
C25	C	0.582939	-0.096782	-0.066466
C26	C	1.082939	0.403218	0.433534
C27	C	0.510115	-0.095709	-0.066475
C28	C	1.010115	0.404291	0.433525
C29	C	0.473678	-0.095164	-0.000106
C30	C	0.973678	0.404836	0.499894
C31	C	0.510068	-0.095709	0.066277
C32	C	1.010068	0.404291	0.566277
C33	C	0.582890	-0.096789	0.066284
C34	C	1.082890	0.403211	0.566284
N35	N	0.364651	-0.053733	0.049292
N36	N	0.864651	0.446267	0.549292
N37	N	0.295474	-0.052705	0.049280
N38	N	0.795474	0.447295	0.549280
C39	C	0.254272	-0.091911	-0.000123
C40	C	0.754272	0.408089	0.499877
N41	N	0.284861	-0.132174	-0.049526
N42	N	0.784861	0.367826	0.450474
N43	N	0.354045	-0.133199	-0.049517
N44	N	0.854045	0.366801	0.450483
C45	C	0.394716	-0.093993	-0.000106
C46	C	0.894716	0.406007	0.499894
C47	C	0.138926	-0.090207	-0.066512
C48	C	0.638926	0.409793	0.433488
C49	C	0.066100	-0.089138	-0.066518
C50	C	0.566100	0.410862	0.433482
C51	C	0.066056	-0.089132	0.066236
C52	C	0.566056	0.410868	0.566236
C53	C	0.138879	-0.090207	0.066240
C54	C	0.638879	0.409793	0.566240
C55	C	0.175310	-0.090742	-0.000136
C56	C	0.675310	0.409258	0.499864
C57	C	0.829982	0.034708	-0.000101
C58	C	1.329982	0.534708	0.499899
C59	C	0.828841	0.112213	-0.000095
C60	C	1.328841	0.612213	0.499905
C61	C	0.952163	-0.087460	-0.000134
C62	C	1.452163	0.412540	0.499866
C63	C	1.029668	-0.088594	-0.000148
C64	C	1.529668	0.411406	0.499852
C65	C	0.819007	-0.220626	-0.000134
C66	C	1.319007	0.279374	0.499866
C67	C	0.820148	-0.298131	-0.000145
C68	C	1.320148	0.201869	0.499855
N69	N	0.824471	-0.092950	0.189583
N70	N	1.324471	0.407050	0.689583
C71	C	0.891933	0.157142	-0.000099
C72	C	1.391933	0.657142	0.499901
C73	C	0.890861	0.229966	-0.000110
C74	C	1.390861	0.729966	0.499890
C75	C	0.826694	0.257857	-0.000103
C76	C	1.326694	0.757857	0.499897
C77	C	0.763594	0.212917	-0.000103
C78	C	1.263594	0.712917	0.499897
C79	C	0.764668	0.140095	-0.000099
C80	C	1.264668	0.640095	0.499901
N81	N	0.777640	0.365859	0.041341
N82	N	1.277640	0.865859	0.541341
N83	N	0.776624	0.435038	0.041338
N84	N	1.276624	0.935038	0.541338
C85	C	0.823456	0.477265	-0.000118
C86	C	1.323456	0.977265	0.499882
N87	N	0.871352	0.447702	-0.041561
N88	N	1.371352	0.947702	0.458439
N89	N	0.872369	0.378517	-0.041556
N90	N	1.372369	0.878517	0.458444
C91	C	0.825523	0.336819	-0.000108
C92	C	1.325523	0.836819	0.499892
C93	C	0.885390	0.601159	-0.000135
C94	C	1.385390	1.101159	0.499865
C95	C	0.884315	0.673984	-0.000151
C96	C	1.384315	1.173984	0.499849
C97	C	0.757047	0.656933	-0.000137
C98	C	1.257047	1.156933	0.499863
C99	C	0.758123	0.584110	-0.000128
C100	C	1.258123	1.084110	0.499872
C101	C	0.822296	0.556228	-0.000124
C102	C	1.322296	1.056228	0.499876
N103	N	0.824523	-0.092962	-0.189817
N104	N	1.324523	0.407038	0.310183
C105	C	0.872098	-0.045358	0.227893
C106	C	1.372098	0.454642	0.727893
C107	C	0.872103	-0.045355	0.304538
C108	C	1.372103	0.454645	0.804538
C109	C	0.824487	-0.092956	0.342870
C110	C	1.324487	0.407044	0.842870
C111	C	0.776851	-0.140551	0.304552
C112	C	1.276851	0.359449	0.804552
C113	C	0.776843	-0.140549	0.227908
C114	C	1.276843	0.359451	0.727908
N115	N	0.815411	-0.154764	0.463195
N116	N	1.315411	0.345236	0.963195
N117	N	0.815423	-0.154764	0.536003
N118	N	1.315423	0.345236	1.036003
C119	C	0.824506	-0.092966	0.573793
C120	C	1.324506	0.407034	1.073793
N121	N	0.833592	-0.031165	0.536024
N122	N	1.333592	0.468835	1.036024
N123	N	0.833584	-0.031165	0.463209
N124	N	1.333584	0.468835	0.963209
C125	C	0.824490	-0.092963	0.425977
C126	C	1.324490	0.407037	0.925977
C127	C	0.872141	-0.045366	0.695210
C128	C	1.372141	0.454634	1.195210
C129	C	0.872141	-0.045362	0.771856
C130	C	1.372141	0.454638	1.271856
C131	C	0.776892	-0.140565	0.771868
C132	C	1.276892	0.359435	1.271868
C133	C	0.776889	-0.140563	0.695223
C134	C	1.276889	0.359437	1.195223
C135	C	0.824517	-0.092964	0.656898
C136	C	1.324517	0.407036	1.156898
H137	H	0.612511	-0.097231	0.120336
H138	H	1.112511	0.402769	0.620336
C139	C	1.011080	0.625324	-0.000168
C140	C	1.511080	1.125324	0.499832
C141	C	0.955927	0.570504	-0.000148
C142	C	1.455927	1.070504	0.499852
H143	H	1.054626	0.606399	-0.000182
H144	H	1.554626	1.106399	0.499818
H145	H	1.008015	0.653381	0.042290
H146	H	1.508015	1.153381	0.542290
H147	H	1.008010	0.653363	-0.042632
H148	H	1.508010	1.153363	0.457368
H149	H	0.958994	0.542468	0.042320
H150	H	1.458994	1.042468	0.542320
H151	H	0.958994	0.542436	-0.042610
H152	H	1.458994	1.042436	0.457390
C153	C	0.654804	0.220801	-0.062689
C154	C	1.154804	0.720801	0.437311
C155	C	0.693061	0.243573	-0.000097
C156	C	1.193061	0.743573	0.499903
H157	H	0.611261	0.239730	-0.062689
H158	H	1.111261	0.739730	0.437311
H159	H	0.646414	0.171006	-0.062681
H160	H	1.146414	0.671006	0.437319
H161	H	0.680790	0.236233	-0.105146
H162	H	1.180790	0.736233	0.394854
H163	H	0.667077	0.228136	0.042361
H164	H	1.167077	0.728136	0.542361
H165	H	0.701449	0.293378	-0.000098
H166	H	1.201449	0.793378	0.499902
C167	C	0.734579	-0.182833	0.422047
C168	C	1.234579	0.317167	0.922047
C169	C	0.724512	-0.192877	0.346684
C170	C	1.224512	0.307123	0.846684
H171	H	0.702267	-0.215141	0.448055
H172	H	1.202267	0.284859	0.948055
H173	H	0.727142	-0.136260	0.434621
H174	H	1.227142	0.363740	0.934621
H175	H	0.781155	-0.190299	0.434577
H176	H	1.281155	0.309701	0.934577
H177	H	0.677937	-0.185406	0.334153
H178	H	1.177937	0.314594	0.834153
H179	H	0.731944	-0.239461	0.334105
H180	H	1.231944	0.260539	0.834105
H181	H	0.910879	-0.006599	0.196691
H182	H	1.410879	0.493401	0.696691
H183	H	0.738058	-0.179304	0.196716
H184	H	1.238058	0.320696	0.696716
C185	C	0.398419	-0.094037	0.125210
C186	C	0.898419	0.405963	0.625210
C187	C	0.470020	-0.095105	0.139232
C188	C	0.970020	0.404895	0.639232
H189	H	0.373698	-0.093661	0.170251
H190	H	0.873698	0.406339	0.670251
H191	H	0.381040	-0.134565	0.097937
H192	H	0.881040	0.365435	0.597937
H193	H	0.391962	-0.053152	0.097940
H194	H	0.891962	0.446848	0.597940
H195	H	0.476478	-0.135993	0.166497
H196	H	0.976478	0.364007	0.666497
H197	H	0.487404	-0.054573	0.166516
H198	H	0.987404	0.445427	0.666516
H199	H	0.942239	0.266555	-0.000116
H200	H	1.442239	0.766555	0.499884
H201	H	0.910888	-0.006598	0.335735
H202	H	1.410888	0.493402	0.835735
H203	H	0.036479	-0.088702	-0.120570
H204	H	0.536479	0.411298	0.379430
H205	H	0.713289	0.103513	-0.000096
H206	H	1.213289	0.603513	0.499904
H207	H	0.168589	-0.090650	-0.120559
H208	H	0.668589	0.409350	0.379441
H209	H	0.168502	-0.090644	0.120290
H210	H	0.668502	0.409356	0.620290
H211	H	0.910921	-0.006606	0.664004
H212	H	1.410921	0.493394	1.164004
H213	H	0.480487	-0.095269	-0.120527
H214	H	0.980487	0.404731	0.379473
C215	C	-0.045588	-0.087459	0.125171
C216	C	0.454412	0.412541	0.625171
C217	C	0.026013	-0.088524	0.139192
C218	C	0.526013	0.411476	0.639192
H219	H	-0.070308	-0.087079	0.170213
H220	H	0.429692	0.412921	0.670213
H221	H	-0.062967	-0.127990	0.097903
H222	H	0.437033	0.372010	0.597903
H223	H	-0.052047	-0.046577	0.097897
H224	H	0.447953	0.453423	0.597897
H225	H	0.032473	-0.129409	0.166461
H226	H	0.532473	0.370591	0.666461
H227	H	0.043398	-0.047989	0.166471
H228	H	0.543398	0.452011	0.666471
C229	C	0.672900	-0.037994	-0.143468
C230	C	1.172900	0.462006	0.356532
C231	C	0.622983	-0.097378	-0.139425
C232	C	1.122983	0.402622	0.360575
H233	H	0.697619	-0.038362	-0.188512
H234	H	1.197619	0.461638	0.311488
H235	H	0.704989	-0.038474	-0.103941
H236	H	1.204989	0.461526	0.396059
H237	H	0.649940	0.003131	-0.140706
H238	H	1.149940	0.503131	0.359294
H239	H	0.645944	-0.138503	-0.142181
H240	H	1.145944	0.361497	0.357819
H241	H	0.590890	-0.096904	-0.178963
H242	H	1.090890	0.403096	0.321037
C243	C	0.956958	0.765743	-0.062762
C244	C	1.456958	1.265743	0.437238
C245	C	0.953673	0.723372	-0.000161
C246	C	1.453673	1.223372	0.499839
H247	H	0.999780	0.796229	-0.062769
H248	H	1.499780	1.296229	0.437231
H249	H	0.918595	0.792773	-0.062759
H250	H	1.418595	1.292773	0.437241
H251	H	0.954738	0.736959	-0.105213
H252	H	1.454738	1.236959	0.394787
H253	H	0.955888	0.752156	0.042290
H254	H	1.455888	1.252156	0.542290
H255	H	0.992047	0.696339	-0.000157
H256	H	1.492047	1.196339	0.499843
C257	C	0.966303	0.048725	0.764141
C258	C	1.466303	0.548725	1.264141
C259	C	0.924500	0.006953	0.813969
C260	C	1.424500	0.506953	1.313969
H261	H	0.998631	0.081019	0.790142
H262	H	1.498631	0.581019	1.290142
H263	H	0.937322	0.073772	0.734267
H264	H	1.437322	0.573772	1.234267
H265	H	0.991316	0.019714	0.734228
H266	H	1.491316	0.519714	1.234228
H267	H	0.899482	0.035964	0.843878
H268	H	1.399482	0.535964	1.343878
H269	H	0.953485	-0.018095	0.843856
H270	H	1.453485	0.481905	1.343856
C271	C	0.698892	0.760990	-0.000138
C272	C	1.198892	1.260990	0.499862
C273	C	0.686512	0.687582	-0.000131
C274	C	1.186512	1.187582	0.499869
H275	H	0.655344	0.779911	-0.000133
H276	H	1.155344	1.279911	0.499867
H277	H	0.724864	0.776410	-0.042600
H278	H	1.224864	1.276410	0.457400
H279	H	0.724854	0.776431	0.042323
H280	H	1.224854	1.276431	0.542323
H281	H	0.660554	0.672141	-0.042595
H282	H	1.160554	1.172141	0.457405
H283	H	0.660529	0.672156	0.042335
H284	H	1.160529	1.172156	0.542335
C285	C	0.632220	0.574575	-0.000104
C286	C	1.132220	1.074575	0.499896
C287	C	0.688770	0.534719	-0.000111
C288	C	1.188770	1.034719	0.499889
H289	H	0.589403	0.544080	-0.000090
H290	H	1.089403	1.044080	0.499910
H291	H	0.634452	0.603319	-0.042566
H292	H	1.134452	1.103319	0.457434
H293	H	0.634449	0.603346	0.042357
H294	H	1.134449	1.103346	0.542357
H295	H	0.686544	0.505951	-0.042575
H296	H	1.186544	1.005951	0.457425
H297	H	0.686536	0.505962	0.042355
H298	H	1.186536	1.005962	0.542355
C299	C	0.682743	-0.234664	0.764177
C300	C	1.182743	0.265336	1.264177
C301	C	0.724548	-0.192888	0.813993
C302	C	1.224548	0.307112	1.313993
H303	H	0.650423	-0.266963	0.790187
H304	H	1.150423	0.233037	1.290187
H305	H	0.711724	-0.259704	0.734268
H306	H	1.211724	0.240296	1.234268
H307	H	0.657720	-0.205656	0.734298
H308	H	1.157720	0.294344	1.234298
H309	H	0.749575	-0.221896	0.843869
H310	H	1.249575	0.278104	1.343869
H311	H	0.695563	-0.167846	0.843914
H312	H	1.195563	0.332154	1.343914
C313	C	0.761444	-0.235623	0.609015
C314	C	1.261444	0.264377	1.109015
C315	C	0.724544	-0.192887	0.653108
C316	C	1.224544	0.307113	1.153108
H317	H	0.729124	-0.267924	0.583013
H318	H	1.229124	0.232076	1.083013
H319	H	0.790425	-0.260660	0.638898
H320	H	1.290425	0.239340	1.138898
H321	H	0.789798	-0.207265	0.575221
H322	H	1.289798	0.292735	1.075221
H323	H	0.696193	-0.221244	0.686906
H324	H	1.196193	0.278756	1.186906
H325	H	0.695550	-0.167848	0.623222
H326	H	1.195550	0.332152	1.123222
H327	H	0.944187	0.134445	-0.000097
H328	H	1.444187	0.634445	0.499903
