data_functionalizedCrystal
_audit_creation_method	'MofGen! by Chris Wilmer'
_symmetry_space_group_name_H-M	'P1'
_symmetry_Int_Tables_number	1
_symmetry_cell_setting	triclinic
loop_
_symmetry_equiv_pos_as_xyz
  x,y,z
_cell_length_a	11.792241
_cell_length_b	10.540539
_cell_length_c	10.268362
_cell_angle_alpha	89.996859
_cell_angle_beta	89.999626
_cell_angle_gamma	84.359454
loop_
_atom_site_label
_atom_site_type_symbol
_atom_site_fract_x
_atom_site_fract_y
_atom_site_fract_z
O1	O	1.507362	0.173992	-0.108167
O2	O	2.007362	0.673992	0.391833
O3	O	1.177067	0.191924	-0.108197
O4	O	1.677067	0.691924	0.391803
O5	O	1.349750	-0.001773	-0.108180
O6	O	1.849750	0.498227	0.391820
O7	O	1.334679	0.367689	-0.108184
O8	O	1.834679	0.867689	0.391816
O9	O	1.349735	-0.001781	0.108421
O10	O	1.849735	0.498219	0.608421
O11	O	1.177052	0.191916	0.108404
O12	O	1.677052	0.691916	0.608404
O13	O	1.507347	0.173984	0.108433
O14	O	2.007347	0.673984	0.608433
Cu15	Cu	1.342198	0.182949	0.128196
Cu16	Cu	1.842198	0.682949	0.628196
Cu17	Cu	1.342216	0.182959	-0.127959
Cu18	Cu	1.842216	0.682959	0.372041
O19	O	1.334664	0.367681	0.108416
O20	O	1.834664	0.867681	0.608416
C21	C	1.134766	0.190793	0.000100
C22	C	1.634766	0.690793	0.500100
C23	C	1.008743	0.187422	0.000088
C24	C	1.508743	0.687422	0.500088
C25	C	1.348612	-0.049076	0.000118
C26	C	1.848612	0.450924	0.500118
C27	C	1.345231	-0.190014	0.000111
C28	C	1.845231	0.309986	0.500111
C29	C	0.778015	0.181223	0.000126
C30	C	1.278015	0.681223	0.500126
C31	C	0.906409	0.184667	0.000105
C32	C	1.406409	0.684667	0.500105
C33	C	1.215660	-0.373018	-0.000387
C34	C	1.715660	0.126982	0.499613
C35	C	1.219087	-0.226411	0.000101
C36	C	1.719087	0.273589	0.500101
C37	C	1.405928	-0.251874	0.123806
C38	C	1.905928	0.248126	0.623806
C39	C	1.401623	-0.398404	0.123910
C40	C	1.901623	0.101596	0.623910
C41	C	1.404206	-0.398921	-0.122405
C42	C	1.904206	0.101079	0.377595
C43	C	1.405368	-0.251943	-0.124041
C44	C	1.905368	0.248057	0.375959
C45	C	1.549648	0.175114	0.000134
C46	C	2.049648	0.675114	0.500134
C47	C	1.675671	0.178486	0.000137
C48	C	2.175671	0.678486	0.500137
C49	C	1.335802	0.414984	0.000116
C50	C	1.835802	0.914984	0.500116
C51	C	1.339183	0.555921	0.000114
C52	C	1.839183	1.055921	0.500114
N53	N	1.342194	0.182942	0.308362
N54	N	1.842194	0.682942	0.808362
N55	N	1.342229	0.182956	-0.308125
N56	N	1.842229	0.682956	0.191875
C57	C	1.342210	0.182956	0.574032
C58	C	1.842210	0.682956	1.074032
C59	C	1.342197	0.182952	0.426195
C60	C	1.842197	0.682952	0.926195
H61	H	1.171327	-0.183649	-0.088569
H62	H	1.671327	0.316351	0.411431
C63	C	1.340996	-0.436319	0.248796
C64	C	1.840996	0.063681	0.748796
H65	H	1.337839	-0.526027	0.249963
H66	H	1.837839	-0.026027	0.749963
H67	H	1.265818	-0.394691	0.250710
H68	H	1.765818	0.105309	0.750710
H69	H	1.381944	-0.411640	0.322769
H70	H	1.881944	0.088360	0.822769
C71	C	1.524170	-0.463611	0.131526
C72	C	2.024170	0.036389	0.631526
H73	H	1.576363	-0.400513	0.134554
H74	H	2.076363	0.099487	0.634554
H75	H	1.539411	-0.515834	0.056947
H76	H	2.039411	-0.015834	0.556947
H77	H	1.532343	-0.514697	0.207806
H78	H	2.032343	-0.014697	0.707806
H79	H	1.363386	-0.430338	-0.216158
H80	H	1.863386	0.069662	0.283842
H81	H	1.165836	-0.401453	-0.089091
H82	H	1.665836	0.098547	0.410909
H83	H	1.166026	-0.403067	0.087812
H84	H	1.666026	0.096933	0.587812
H85	H	1.498564	-0.229821	0.128413
H86	H	1.998564	0.270179	0.628413
C87	C	1.154104	-0.169780	0.120071
C88	C	1.654104	0.330220	0.620071
H89	H	1.155968	-0.079880	0.120772
H90	H	1.655968	0.420120	0.620772
H91	H	1.189003	-0.205140	0.197017
H92	H	1.689003	0.294860	0.697017
H93	H	1.077234	-0.189367	0.116425
H94	H	1.577234	0.310633	0.616425
C95	C	1.348945	-0.194167	0.248150
C96	C	1.848945	0.305833	0.748150
H97	H	1.288174	-0.132392	0.224947
H98	H	1.788174	0.367608	0.724947
H99	H	1.403462	-0.154774	0.298203
H100	H	1.903462	0.345226	0.798203
H101	H	1.320017	-0.259746	0.298000
H102	H	1.820017	0.240254	0.798000
C103	C	1.345463	-0.196440	-0.247664
C104	C	1.845463	0.303560	0.252336
H105	H	1.284062	-0.135772	-0.223731
H106	H	1.784062	0.364228	0.276269
H107	H	1.317048	-0.263187	-0.296234
H108	H	1.817048	0.236813	0.203766
H109	H	1.398322	-0.156089	-0.299286
H110	H	1.898322	0.343911	0.200714
H111	H	1.497336	-0.228021	-0.131502
H112	H	1.997336	0.271979	0.368498
C113	C	1.527285	-0.463128	-0.123532
C114	C	2.027285	0.036872	0.376468
H115	H	1.539035	-0.517200	-0.049743
H116	H	2.039035	-0.017200	0.450257
H117	H	1.579075	-0.399612	-0.120815
H118	H	2.079075	0.100388	0.379185
H119	H	1.539664	-0.512214	-0.200726
H120	H	2.039664	-0.012214	0.299274
