data_functionalizedCrystal
_audit_creation_method	'MofGen! by Chris Wilmer'
_symmetry_space_group_name_H-M	'P1'
_symmetry_Int_Tables_number	1
_symmetry_cell_setting	triclinic
loop_
_symmetry_equiv_pos_as_xyz
  x,y,z
_cell_length_a	6.394989
_cell_length_b	10.723023
_cell_length_c	9.198806
_cell_angle_alpha	89.996191
_cell_angle_beta	90.000201
_cell_angle_gamma	94.517371
loop_
_atom_site_label
_atom_site_type_symbol
_atom_site_fract_x
_atom_site_fract_y
_atom_site_fract_z
O1	O	-0.293014	1.660298	-0.120878
O2	O	0.206986	2.160298	0.379122
O3	O	-0.321064	1.297443	-0.120881
O4	O	0.178936	1.797443	0.379119
O5	O	-0.003048	1.484021	-0.120881
O6	O	0.496952	1.984021	0.379119
O7	O	-0.611029	1.473720	-0.120879
O8	O	-0.111029	1.973720	0.379121
O9	O	-0.003047	1.484006	0.120904
O10	O	0.496953	1.984006	0.620904
O11	O	-0.321063	1.297428	0.120904
O12	O	0.178937	1.797428	0.620904
O13	O	-0.293013	1.660283	0.120907
O14	O	0.206987	2.160283	0.620907
Cu15	Cu	-0.307038	1.478854	0.142982
Cu16	Cu	0.192962	1.978854	0.642982
Cu17	Cu	-0.307039	1.478872	-0.142957
Cu18	Cu	0.192961	1.978872	0.357043
O19	O	-0.611028	1.473705	0.120906
O20	O	-0.111028	1.973705	0.620906
C21	C	-0.319022	1.250914	0.000011
C22	C	0.180978	1.750914	0.500011
C23	C	-0.312916	1.112295	0.000010
C24	C	0.187084	1.612295	0.500010
C25	C	-0.310194	1.050503	-0.125243
C26	C	0.189806	1.550503	0.374757
C27	C	-0.303883	0.907233	-0.125247
C28	C	0.196117	1.407233	0.374753
C29	C	0.074803	1.481977	0.000006
C30	C	0.574803	1.981977	0.500006
C31	C	0.311127	1.475752	0.000005
C32	C	0.811127	1.975752	0.500005
C33	C	-0.295054	1.706812	0.000012
C34	C	0.204946	2.206812	0.500012
C35	C	-0.301161	1.845431	0.000003
C36	C	0.198839	2.345431	0.500003
N37	N	-0.307036	1.478851	0.344096
N38	N	0.192964	1.978851	0.844096
N39	N	-0.307024	1.478885	-0.344070
N40	N	0.192976	1.978885	0.155930
C41	C	-0.172922	1.557183	0.416293
C42	C	0.327078	2.057183	0.916293
C43	C	-0.172914	1.557202	0.583706
C44	C	0.327086	2.057202	1.083706
H45	H	-0.301537	0.854093	-0.232480
H46	H	0.198463	1.354093	0.267520
Cl47	Cl	-0.484299	1.375320	0.440007
Cl48	Cl	0.015701	1.875320	0.940007
H49	H	-0.303492	0.898564	0.107242
H50	H	0.196508	1.398564	0.607242
Cl51	Cl	-0.309317	1.030224	0.165573
Cl52	Cl	0.190683	1.530224	0.665573
Cl53	Cl	0.004358	1.660755	0.679556
Cl54	Cl	0.504358	2.160755	1.179556
H55	H	-0.058097	1.624228	0.354167
H56	H	0.441903	2.124228	0.854167
H57	H	-0.421859	1.411823	0.593852
H58	H	0.078141	1.911823	1.093852
H59	H	-0.312547	1.103666	-0.232473
H60	H	0.187453	1.603666	0.267527
