data_functionalizedCrystal
_audit_creation_method	'MofGen! by Chris Wilmer'
_symmetry_space_group_name_H-M	'P1'
_symmetry_Int_Tables_number	1
_symmetry_cell_setting	triclinic
loop_
_symmetry_equiv_pos_as_xyz
  x,y,z
_cell_length_a	6.817900
_cell_length_b	7.076028
_cell_length_c	17.708523
_cell_angle_alpha	89.908878
_cell_angle_beta	102.890255
_cell_angle_gamma	117.700652
loop_
_atom_site_label
_atom_site_type_symbol
_atom_site_fract_x
_atom_site_fract_y
_atom_site_fract_z
V1	V	-4.192303	-0.656742	-0.105551
O2	O	-4.184288	-0.652839	0.006337
O3	O	-4.135357	-0.643981	-0.210506
O4	O	-4.219445	-0.946943	-0.103372
O5	O	-4.099617	-0.347779	-0.101538
V6	V	-4.667250	-0.620793	-0.092233
O7	O	-4.472374	-0.735601	-0.134763
O8	O	-4.837376	-0.541934	-0.063020
O9	O	-4.500989	-0.633554	0.012722
O10	O	-4.792662	-0.624695	-0.204121
O11	O	-4.877333	-0.929755	-0.096245
O12	O	-4.416901	-0.330591	-0.094412
C13	C	-3.975835	-0.631486	-0.236109
C14	C	-4.011065	-0.622987	-0.321907
C15	C	-4.266840	-0.654744	0.125728
C16	C	-4.323860	-0.646060	0.038318
C17	C	-4.202212	-0.629022	-0.363875
C18	C	-4.238628	-0.620237	-0.452553
C19	C	-4.216575	-0.259581	-0.098337
C20	C	-4.090063	-0.017935	-0.099443
V21	V	-4.428500	-0.649353	0.267887
O22	O	-4.388061	-0.640323	0.381725
O23	O	-4.405807	-0.648037	0.158593
O24	O	-4.489263	-0.951075	0.265699
O25	O	-4.304026	-0.335187	0.273878
V26	V	-4.851401	-0.555823	0.302983
O27	O	-4.701372	-0.701294	0.248848
O28	O	-4.987393	-0.451699	0.341757
O29	O	-4.671380	-0.583012	0.402492
O30	O	-4.998459	-0.551246	0.194291
O31	O	-5.082493	-0.856382	0.302138
O32	O	-4.587923	-0.279973	0.295386
C33	C	-4.504614	-0.615328	0.420594
C34	C	-4.429796	-0.626273	0.505481
C35	C	-4.398143	-0.228771	0.283972
C36	C	-4.252969	0.010460	0.281960
H37	H	-4.101932	-0.608578	-0.482270
H38	H	-4.566504	-0.637953	-0.464803
H39	H	-4.338905	-0.640704	-0.334156
H40	H	-3.874383	-0.611328	-0.351628
