data_functionalizedCrystal
_audit_creation_method	'MofGen! by Chris Wilmer'
_symmetry_space_group_name_H-M	'P1'
_symmetry_Int_Tables_number	1
_symmetry_cell_setting	triclinic
loop_
_symmetry_equiv_pos_as_xyz
  x,y,z
_cell_length_a	19.805407
_cell_length_b	16.959454
_cell_length_c	19.805399
_cell_angle_alpha	90.022387
_cell_angle_beta	90.019573
_cell_angle_gamma	90.020075
loop_
_atom_site_label
_atom_site_type_symbol
_atom_site_fract_x
_atom_site_fract_y
_atom_site_fract_z
Zn1	Zn	1.034765	-0.314700	0.382744
Zn2	Zn	1.034693	-0.446882	0.269566
Zn3	Zn	0.921580	-0.314722	0.269569
Zn4	Zn	0.921556	-0.446840	0.382713
O5	O	0.978149	-0.380786	0.326148
O6	O	1.129472	-0.332243	0.367743
O7	O	1.019668	-0.429378	0.174850
O8	O	0.936635	-0.204108	0.284596
O9	O	1.129419	-0.429356	0.284591
O10	O	1.019792	-0.204092	0.367745
O11	O	0.936564	-0.332280	0.174852
O12	O	0.826860	-0.332239	0.284565
O13	O	0.936594	-0.429285	0.477434
O14	O	0.826843	-0.429306	0.367692
O15	O	1.019768	-0.332202	0.477457
O16	O	1.019645	-0.557488	0.284561
O17	O	0.936524	-0.557457	0.367690
C18	C	0.802293	-0.380771	0.326126
C19	C	0.727061	-0.380783	0.326133
C20	C	0.691725	-0.431402	0.369347
C21	C	0.621037	-0.431404	0.369356
C22	C	0.585685	-0.380790	0.326148
C23	C	0.621026	-0.330165	0.282932
C24	C	0.691713	-0.330160	0.282926
C25	C	0.335952	-0.330183	0.282954
C26	C	0.265260	-0.330193	0.282962
C27	C	0.265276	-0.431426	0.369384
C28	C	0.335963	-0.431421	0.369379
C29	C	0.371298	-0.380794	0.326166
C30	C	0.447946	-0.380792	0.326157
C31	C	0.509038	-0.380795	0.326153
C32	C	0.978092	-0.586152	0.326136
C33	C	0.978130	-0.674009	0.326154
C34	C	0.934930	-1.045498	0.369428
C35	C	1.021555	-1.045470	0.282937
C36	C	1.021532	-0.962925	0.282930
C37	C	0.978206	-0.921662	0.326173
C38	C	0.934904	-0.962945	0.369422
C39	C	1.064828	-0.921635	0.239677
C40	C	1.064806	-0.839085	0.239669
C41	C	1.021483	-0.797820	0.282915
C42	C	0.978180	-0.839108	0.326167
C43	C	0.934854	-0.797845	0.369409
C44	C	0.891553	-0.839132	0.412665
C45	C	0.891581	-0.921680	0.412669
C46	C	1.021455	-0.715272	0.282911
C47	C	0.934827	-0.715292	0.369403
C48	C	1.154691	-0.380802	0.326170
C49	C	1.229923	-0.380808	0.326180
C50	C	0.978187	-0.380736	0.502691
C51	C	0.978203	-0.380715	0.577923
C52	C	0.978224	-0.174618	0.326174
C53	C	0.978256	-0.086761	0.326186
C54	C	0.978150	-0.380779	0.150292
C55	C	0.978265	-0.380577	0.075060
C56	C	1.021513	-0.330161	0.613280
C57	C	1.021520	-0.330138	0.683968
C58	C	0.978220	-0.380674	0.719298
C59	C	0.934905	-0.431230	0.683936
C60	C	0.934895	-0.431248	0.613249
C61	C	0.934943	-0.431156	0.969010
C62	C	0.934958	-0.431135	1.039702
C63	C	1.021568	-0.330046	1.039729
C64	C	1.021558	-0.330065	0.969042
C65	C	0.978241	-0.380617	0.933686
C66	C	0.978233	-0.380641	0.857037
C67	C	0.978230	-0.380655	0.795946
H68	H	0.720503	-0.472621	0.404530
Br69	Br	0.876111	-0.499854	0.565263
Br70	Br	1.123627	-0.977638	0.180998
Br71	Br	0.573083	-0.500102	0.428008
Br72	Br	0.383937	-0.500119	0.428016
Br73	Br	1.123574	-0.783060	0.180972
H74	H	1.056707	-0.681660	0.247691
Br75	Br	0.739669	-0.261456	0.224280
H76	H	1.056819	-0.288916	0.940280
Br77	Br	0.832822	-0.977716	0.471366
H78	H	0.899678	-1.079117	0.404647
H79	H	0.364713	-0.288965	0.247763
H80	H	0.899695	-0.472289	1.068466
H81	H	0.899647	-0.472373	0.712708
H82	H	1.056825	-1.079072	0.247726
Br83	Br	0.217283	-0.261498	0.224318
H84	H	0.236498	-0.472646	0.404573
Br85	Br	0.876031	-0.659298	0.428099
Br86	Br	0.573049	-0.261466	0.224298
H87	H	1.056775	-0.289012	0.584519
Br88	Br	0.832751	-0.783123	0.471344
H89	H	1.056788	-0.288974	0.712753
Br90	Br	0.876155	-0.499761	0.921035
Br91	Br	1.080355	-0.261437	1.087716
