data_functionalizedCrystal
_audit_creation_method	'MofGen! by Chris Wilmer'
_symmetry_space_group_name_H-M	'P1'
_symmetry_Int_Tables_number	1
_symmetry_cell_setting	triclinic
loop_
_symmetry_equiv_pos_as_xyz
  x,y,z
_cell_length_a	19.188933
_cell_length_b	17.666332
_cell_length_c	14.971486
_cell_angle_alpha	89.993323
_cell_angle_beta	96.620151
_cell_angle_gamma	90.007939
loop_
_atom_site_label
_atom_site_type_symbol
_atom_site_fract_x
_atom_site_fract_y
_atom_site_fract_z
O1	O	0.926508	0.062923	-0.111678
O2	O	0.723245	0.062931	-0.126709
O3	O	0.830325	0.062921	0.011035
O4	O	0.819429	0.062933	-0.249422
O5	O	0.830306	-0.062975	0.011042
O6	O	0.723227	-0.062966	-0.126702
O7	O	0.926489	-0.062973	-0.111671
Cu8	Cu	0.824856	-0.074465	-0.119186
Cu9	Cu	0.824878	0.074422	-0.119194
O10	O	0.819410	-0.062964	-0.249415
C11	C	0.697223	-0.000017	-0.126218
C12	C	0.619714	-0.000014	-0.124756
N13	N	0.824846	-0.179185	-0.119179
C14	C	0.066436	0.068603	-0.114326
C15	C	0.139264	0.068606	-0.115694
C16	C	0.175673	-0.000020	-0.116378
C17	C	0.139250	-0.068654	-0.115671
C18	C	0.066423	-0.068655	-0.114294
N19	N	0.284856	-0.051099	-0.169436
N20	N	0.354038	-0.051093	-0.170746
C21	C	0.395095	-0.000021	-0.120526
N22	N	0.364356	0.051057	-0.068958
N23	N	0.295167	0.051054	-0.067652
C24	C	0.254641	-0.000026	-0.117871
C25	C	0.510480	0.068612	-0.122711
C26	C	0.583310	0.068612	-0.124073
C27	C	0.583293	-0.068650	-0.124060
C28	C	0.510465	-0.068648	-0.122688
C29	C	0.474062	-0.000015	-0.122018
C30	C	0.872276	-0.218798	-0.058216
C31	C	0.872280	-0.298046	-0.058211
C32	C	0.824860	-0.337677	-0.119186
C33	C	0.777421	-0.298053	-0.180154
C34	C	0.777414	-0.218807	-0.180151
N35	N	0.816039	-0.462092	-0.198366
N36	N	0.816050	-0.537372	-0.198366
C37	C	0.824879	-0.576441	-0.119198
N38	N	0.833710	-0.537385	-0.040027
N39	N	0.833702	-0.462097	-0.040028
C40	C	0.824863	-0.423606	-0.119196
C41	C	0.872316	-0.701984	-0.058225
C42	C	0.872315	-0.781233	-0.058220
C43	C	0.777460	-0.781239	-0.180170
C44	C	0.777458	-0.701991	-0.180168
C45	C	0.824889	-0.662368	-0.119196
C46	C	0.952511	-0.000024	-0.112162
C47	C	1.030020	-0.000022	-0.113624
C48	C	0.829828	-0.000027	0.044361
C49	C	0.828368	-0.000026	0.143650
N50	N	0.824895	0.179142	-0.119194
C51	C	0.819907	-0.000014	-0.282741
C52	C	0.821367	-0.000010	-0.382030
C53	C	0.891274	-0.000029	0.201207
C54	C	0.889898	-0.000021	0.294500
C55	C	0.825615	-0.000016	0.330233
C56	C	0.762704	-0.000011	0.272668
C57	C	0.764081	-0.000013	0.179378
C58	C	0.759838	-0.000008	0.467116
C59	C	0.758461	-0.000007	0.560413
C60	C	0.885655	-0.000016	0.582237
C61	C	0.887032	-0.000018	0.488947
C62	C	0.824121	-0.000015	0.431389
H63	H	0.036801	0.124490	-0.113776
C64	C	0.959098	-0.000026	0.357809
C65	C	1.011738	-0.065408	0.353995
C66	C	1.080943	-0.065412	0.417303
C67	C	1.097506	-0.000034	0.484425
C68	C	1.044864	0.065353	0.488241
C69	C	0.975660	0.065357	0.424933
H70	H	0.999478	-0.113809	0.304306
H71	H	1.119912	-0.113816	0.414478
H72	H	1.148735	-0.000037	0.531289
H73	H	1.057124	0.113754	0.537931
H74	H	0.936691	0.113761	0.427759
H75	H	0.480839	0.124497	-0.122162
H76	H	0.738811	-0.330325	-0.229799
C77	C	0.623373	0.144104	-0.124840
C78	C	0.665585	0.162975	-0.203434
C79	C	0.705650	0.238467	-0.204198
C80	C	0.703503	0.295088	-0.126368
C81	C	0.661290	0.276219	-0.047768
C82	C	0.621225	0.200727	-0.047004
H83	H	0.667175	0.121059	-0.261054
H84	H	0.736899	0.252435	-0.262384
H85	H	0.733162	0.350972	-0.126934
H86	H	0.659699	0.318134	0.009852
H87	H	0.589976	0.186759	0.011182
C88	C	0.725242	-0.175227	-0.247219
C89	C	0.673098	-0.218811	-0.314317
C90	C	0.620927	-0.175228	-0.381388
C91	C	0.620899	-0.088061	-0.381360
C92	C	0.673044	-0.044471	-0.314259
C93	C	0.725216	-0.088054	-0.247188
H94	H	0.673117	-0.283342	-0.314340
H95	H	0.582325	-0.207497	-0.431060
H96	H	0.582278	-0.055798	-0.431009
H97	H	0.673026	0.020060	-0.314236
H98	H	0.763817	-0.055786	-0.197516
H99	H	0.168919	0.124491	-0.116270
C100	C	0.623342	-0.144137	-0.124794
C101	C	0.621188	-0.200743	-0.046934
C102	C	0.661245	-0.276230	-0.047657
C103	C	0.703456	-0.295112	-0.126239
C104	C	0.705612	-0.238505	-0.204106
C105	C	0.665555	-0.163017	-0.203383
H106	H	0.589940	-0.186766	0.011243
H107	H	0.659649	-0.318134	0.009986
H108	H	0.733109	-0.350992	-0.126774
H109	H	0.736860	-0.252481	-0.262283
H110	H	0.667151	-0.121113	-0.261025
C111	C	0.924483	-0.658394	0.008849
C112	C	0.976649	-0.701976	0.075920
C113	C	1.028816	-0.658390	0.142996
C114	C	1.028816	-0.571223	0.143001
C115	C	0.976648	-0.527636	0.075928
C116	C	0.924482	-0.571222	0.008852
H117	H	0.976650	-0.766507	0.075918
H118	H	1.067434	-0.690656	0.192648
H119	H	1.067433	-0.538958	0.192654
H120	H	0.976647	-0.463105	0.075929
H121	H	0.885864	-0.538956	-0.040800
H122	H	0.910896	-0.186540	-0.008567
C123	C	0.725290	-0.658409	-0.247237
C124	C	0.673146	-0.701994	-0.314336
C125	C	0.620975	-0.658411	-0.381406
C126	C	0.620947	-0.571243	-0.381378
C127	C	0.673093	-0.527654	-0.314277
C128	C	0.725264	-0.571237	-0.247207
H129	H	0.673165	-0.766525	-0.314359
H130	H	0.582373	-0.690679	-0.431078
H131	H	0.582327	-0.538981	-0.431027
H132	H	0.673074	-0.463123	-0.314254
H133	H	0.763866	-0.538968	-0.197534
H134	H	0.712856	-0.000011	0.132515
H135	H	0.910936	-0.813487	-0.008571
H136	H	0.480815	-0.124530	-0.122120
C137	C	0.690636	-0.000005	0.403798
C138	C	0.637988	0.065371	0.407609
C139	C	0.568790	0.065370	0.344291
C140	C	0.552239	-0.000005	0.277162
C141	C	0.604888	-0.065385	0.273348
C142	C	0.674087	-0.065385	0.336667
H143	H	0.650239	0.113770	0.457304
H144	H	0.529815	0.113769	0.347114
H145	H	0.501014	-0.000005	0.230290
H146	H	0.592638	-0.113784	0.223653
H147	H	0.713061	-0.113784	0.333844
C148	C	0.961988	-0.000035	0.161905
C149	C	1.014256	-0.065410	0.183750
C150	C	1.084971	-0.065413	0.144450
C151	C	1.103419	-0.000042	0.083306
C152	C	1.051149	0.065338	0.061458
C153	C	0.980434	0.065342	0.100757
H154	H	1.000601	-0.113806	0.229015
H155	H	1.123665	-0.113812	0.160624
H156	H	1.155767	-0.000044	0.054214
H157	H	1.064804	0.113734	0.016192
H158	H	0.941740	0.113740	0.084584
H159	H	0.168899	-0.124530	-0.116227
H160	H	0.910904	-0.330305	-0.008566
C161	C	0.954861	-0.000017	0.645544
C162	C	0.971393	-0.065390	0.712693
C163	C	1.040596	-0.065397	0.776003
C164	C	1.093267	-0.000031	0.772164
C165	C	1.076736	0.065347	0.705012
C166	C	1.007533	0.065354	0.641703
H167	H	0.932402	-0.113783	0.715538
H168	H	1.052833	-0.113794	0.825713
H169	H	1.144496	-0.000036	0.819029
H170	H	1.115728	0.113739	0.702168
H171	H	0.995296	0.113751	0.591993
H172	H	0.036774	-0.124539	-0.113726
H173	H	0.939377	-0.000028	0.459856
H174	H	0.738848	-0.813506	-0.229813
H175	H	0.706116	-0.000015	0.589503
H176	H	0.710363	-0.000002	0.301770
