data_functionalizedCrystal
_audit_creation_method	'MofGen! by Chris Wilmer'
_symmetry_space_group_name_H-M	'P1'
_symmetry_Int_Tables_number	1
_symmetry_cell_setting	triclinic
loop_
_symmetry_equiv_pos_as_xyz
  x,y,z
_cell_length_a	9.065215
_cell_length_b	9.065215
_cell_length_c	9.730223
_cell_angle_alpha	89.999584
_cell_angle_beta	90.000302
_cell_angle_gamma	85.014697
loop_
_atom_site_label
_atom_site_type_symbol
_atom_site_fract_x
_atom_site_fract_y
_atom_site_fract_z
O1	O	1.960393	0.216330	-0.114271
O2	O	1.531108	0.234081	-0.114277
O3	O	1.754626	0.010563	-0.114268
O4	O	1.736875	0.439848	-0.114280
O5	O	1.754623	0.010569	0.114312
O6	O	1.531105	0.234087	0.114303
O7	O	1.960391	0.216336	0.114309
Zn8	Zn	1.745747	0.225212	0.150598
Zn9	Zn	1.745751	0.225205	-0.150566
O10	O	1.736872	0.439854	0.114300
C11	C	1.476120	0.232379	0.000012
C12	C	1.312277	0.227281	0.000010
C13	C	1.752920	-0.044421	0.000021
C14	C	1.747822	-0.208264	0.000016
C15	C	2.015379	0.218038	0.000017
C16	C	2.179222	0.223136	0.000010
C17	C	1.738579	0.494838	0.000009
C18	C	1.743677	0.658681	0.000004
N19	N	1.745756	0.225217	0.356134
N20	N	1.745754	0.225189	-0.356102
C21	C	1.844756	0.126277	0.428064
C22	C	1.844752	0.126259	0.571947
C23	C	1.646743	0.324133	0.571958
C24	C	1.646741	0.324143	0.428077
C25	C	1.959079	0.012040	0.428060
C26	C	1.959075	0.012022	0.571943
H27	H	1.566115	0.404695	0.369513
C28	C	2.112390	0.046919	0.624714
C29	C	2.142094	0.053674	0.780314
C30	C	2.295397	0.088588	0.833085
C31	C	2.418996	0.116747	0.730256
C32	C	2.389296	0.109993	0.574646
C33	C	2.235993	0.075079	0.521875
H34	H	2.050595	0.032829	0.856443
H35	H	2.317382	0.093588	0.948278
H36	H	2.532480	0.142593	0.769320
H37	H	2.480794	0.130838	0.498517
H38	H	2.214007	0.070079	0.406682
C39	C	1.537838	0.432955	0.651097
C40	C	1.538087	0.433208	0.809360
C41	C	1.429180	0.542034	0.888495
C42	C	1.320023	0.650608	0.809368
C43	C	1.319769	0.650359	0.651097
C44	C	1.428677	0.541533	0.571962
H45	H	1.618895	0.352832	0.867942
H46	H	1.429368	0.542218	1.005658
H47	H	1.239403	0.731167	0.867949
H48	H	1.238961	0.730735	0.592515
H49	H	1.428488	0.541349	0.454798
C50	C	1.924324	-0.141317	0.375289
C51	C	1.896299	-0.264958	0.478117
C52	C	1.861543	-0.418309	0.425346
C53	C	1.854812	-0.448018	0.269746
C54	C	1.882838	-0.324373	0.166907
C55	C	1.917594	-0.171022	0.219679
H56	H	1.901281	-0.242969	0.593311
H57	H	1.840796	-0.509839	0.501475
H58	H	1.829083	-0.561537	0.230681
H59	H	1.877856	-0.346363	0.051714
H60	H	1.938341	-0.079493	0.143550
H61	H	1.922729	-0.095316	0.616561
H62	H	2.066372	0.048473	0.383434
