data_functionalizedCrystal
_audit_creation_method	'MofGen! by Chris Wilmer'
_symmetry_space_group_name_H-M	'P1'
_symmetry_Int_Tables_number	1
_symmetry_cell_setting	triclinic
loop_
_symmetry_equiv_pos_as_xyz
  x,y,z
_cell_length_a	19.077399
_cell_length_b	19.077068
_cell_length_c	12.759393
_cell_angle_alpha	92.261232
_cell_angle_beta	92.273371
_cell_angle_gamma	94.530727
loop_
_atom_site_label
_atom_site_type_symbol
_atom_site_fract_x
_atom_site_fract_y
_atom_site_fract_z
Zn1	Zn	1.066437	-0.237326	-0.544444
Zn2	Zn	1.566437	0.262674	-0.044444
Zn3	Zn	1.061603	-0.355236	-0.376103
Zn4	Zn	1.561603	0.144764	0.123897
Zn5	Zn	0.948545	-0.242097	-0.376114
Zn6	Zn	1.448545	0.257903	0.123886
Zn7	Zn	0.943778	-0.359913	-0.559065
Zn8	Zn	1.443778	0.140087	-0.059065
O9	O	1.005091	-0.298643	-0.463931
O10	O	1.505091	0.201357	0.036069
O11	O	1.164445	-0.249012	-0.515990
O12	O	1.664445	0.250988	-0.015990
O13	O	1.046578	-0.340267	-0.229087
O14	O	1.546578	0.159733	0.270913
O15	O	0.968202	-0.142812	-0.392328
O16	O	1.468202	0.357188	0.107672
O17	O	1.160893	-0.335640	-0.392310
O18	O	1.660893	0.164360	0.107690
O19	O	1.054817	-0.139307	-0.516000
O20	O	1.554817	0.360693	-0.016000
O21	O	0.963515	-0.257145	-0.229095
O22	O	1.463515	0.242855	0.270905
O23	O	0.849264	-0.261681	-0.406506
O24	O	1.349264	0.238319	0.093494
O25	O	0.960077	-0.343613	-0.704143
O26	O	1.460077	0.156387	-0.204143
O27	O	0.845762	-0.348240	-0.540920
O28	O	1.345762	0.151760	-0.040920
O29	O	1.050194	-0.253548	-0.693401
O30	O	1.550194	0.246452	-0.193401
O31	O	1.041956	-0.454508	-0.406488
O32	O	1.541956	0.045492	0.093512
O33	O	0.955390	-0.457945	-0.540910
O34	O	1.455390	0.042055	-0.040910
C35	C	0.821935	-0.305986	-0.475301
C36	C	1.321935	0.194014	0.024699
C37	C	0.743579	-0.309144	-0.480191
C38	C	1.243579	0.190856	0.019809
C39	C	0.708573	-0.265493	-0.412613
C40	C	1.208573	0.234507	0.087387
C41	C	0.634949	-0.268467	-0.417208
C42	C	1.134949	0.231533	0.082792
C43	C	0.596333	-0.315088	-0.489387
C44	C	1.096333	0.184912	0.010613
C45	C	0.631344	-0.358744	-0.556969
C46	C	1.131344	0.141256	-0.056969
C47	C	0.704966	-0.355773	-0.552368
C48	C	1.204966	0.144227	-0.052368
C49	C	0.375951	-0.328816	-0.510635
C50	C	0.875951	0.171184	-0.010635
C51	C	0.302324	-0.331782	-0.515233
C52	C	0.802324	0.168218	-0.015233
C53	C	0.305934	-0.241505	-0.375470
C54	C	0.805934	0.258495	0.124530
C55	C	0.379558	-0.238536	-0.370880
C56	C	0.879558	0.261464	0.129120
C57	C	0.414562	-0.282194	-0.438458
C58	C	0.914562	0.217806	0.061542
N59	N	0.521077	-0.318128	-0.494088
N60	N	1.021077	0.181872	0.005912
N61	N	0.489816	-0.279158	-0.433751
N62	N	0.989816	0.220842	0.066249
C63	C	0.997650	-0.481805	-0.475306
C64	C	1.497650	0.018195	0.024694
C65	C	0.994531	-0.560160	-0.480204
C66	C	1.494531	-0.060160	0.019796
C67	C	1.038171	-0.595157	-0.412572
C68	C	1.538171	-0.095157	0.087428
C69	C	1.035242	-0.668780	-0.417184
C70	C	1.535242	-0.168780	0.082816
C71	C	0.988669	-0.707404	-0.489424
C72	C	1.488669	-0.207404	0.010576
C73	C	0.945027	-0.672402	-0.557063
C74	C	1.445027	-0.172402	-0.057063
C75	C	0.947961	-0.598780	-0.552455
C76	C	1.447961	-0.098780	-0.052455
C77	C	0.975063	-0.927783	-0.510708
C78	C	1.475063	-0.427783	-0.010708
C79	C	0.972132	-1.001410	-0.515309
C80	C	1.472132	-0.501410	-0.015309
C81	C	1.062348	-0.997783	-0.375431
C82	C	1.562348	-0.497783	0.124569
C83	C	1.065274	-0.924160	-0.370825
C84	C	1.565274	-0.424160	0.129175
C85	C	1.021635	-0.889164	-0.438468
C86	C	1.521635	-0.389164	0.061532
N87	N	0.985672	-0.782658	-0.494137
N88	N	1.485672	-0.282658	0.005863
N89	N	1.024636	-0.813911	-0.433759
N90	N	1.524636	-0.313911	0.066241
C91	C	1.188963	-0.291272	-0.452518
C92	C	1.688963	0.208728	0.047482
C93	C	1.267318	-0.288131	-0.447654
C94	C	1.767318	0.211869	0.052346
C95	C	1.005143	-0.298570	-0.737957
C96	C	1.505143	0.201430	-0.237957
C97	C	1.005165	-0.298539	-0.854731
C98	C	1.505165	0.201461	-0.354731
C99	C	1.012580	-0.114765	-0.452534
C100	C	1.512580	0.385235	0.047466
C101	C	1.015772	-0.036407	-0.447677
C102	C	1.515772	0.463593	0.052323
C103	C	1.052096	-0.251638	-0.904001
C104	C	1.552096	0.248362	-0.404001
C105	C	1.052114	-0.251612	-1.013722
C106	C	1.552114	0.248388	-0.513722
C107	C	0.958268	-0.345394	-1.024895
C108	C	1.458268	0.154606	-0.524895
C109	C	0.958248	-0.345416	-0.915176
C110	C	1.458248	0.154584	-0.415176
C111	C	1.106279	-0.197495	-0.897551
C112	C	1.606279	0.302505	-0.397551
C113	C	1.106297	-0.197469	-1.007272
C114	C	1.606297	0.302531	-0.507272
C115	C	1.005082	-0.298663	-0.190966
C116	C	1.505082	0.201337	0.309034
C117	C	1.005204	-0.298490	-0.074172
C118	C	1.505204	0.201510	0.425828
H119	H	0.599896	-0.396707	-0.615734
H120	H	1.099896	0.103293	-0.115734
C121	C	1.082771	-0.128437	-1.050553
C122	C	1.582771	0.371563	-0.550553
N123	N	1.065059	-0.076440	-1.083153
N124	N	1.565059	0.423560	-0.583153
C125	C	1.116490	-0.881679	-0.291330
C126	C	1.616490	-0.381679	0.208670
N127	N	1.155058	-0.849683	-0.231442
N128	N	1.655058	-0.349683	0.268558
C129	C	0.893794	-0.714891	-0.636524
C130	C	1.393794	-0.214891	-0.136524
N131	N	0.855201	-0.746894	-0.696371
N132	N	1.355201	-0.246894	-0.196371
H133	H	1.097877	-1.026284	-0.320362
H134	H	1.597877	-0.526284	0.179638
H135	H	1.093878	-0.143487	-0.865306
H136	H	1.593878	0.356513	-0.365306
H137	H	0.740009	-0.227524	-0.353844
H138	H	1.240009	0.272476	0.146156
C139	C	1.179254	-0.214268	-1.044151
C140	C	1.679254	0.285732	-0.544151
N141	N	1.234204	-0.226923	-1.071928
N142	N	1.734204	0.273077	-0.571928
H143	H	1.157336	-0.214985	-0.861509
H144	H	1.657336	0.285015	-0.361509
H145	H	0.410994	-0.200577	-0.312097
H146	H	0.910994	0.299423	0.187903
H147	H	0.920068	-0.383558	-1.074123
H148	H	1.420068	0.116442	-0.574123
C149	C	0.743472	-0.403792	-0.626712
C150	C	1.243472	0.096208	-0.126712
N151	N	0.772474	-0.439962	-0.682708
N152	N	1.272474	0.060038	-0.182708
C153	C	0.414447	-0.376841	-0.584974
C154	C	0.914447	0.123159	-0.084974
N155	N	0.443444	-0.413017	-0.640969
N156	N	0.943444	0.086983	-0.140969
C157	C	0.920900	-1.043895	-0.594788
C158	C	1.420900	-0.543895	-0.094788
N159	N	0.882315	-1.075895	-0.654649
N160	N	1.382315	-0.575895	-0.154649
C161	C	0.596446	-0.220441	-0.342875
C162	C	1.096446	0.279559	0.157125
N163	N	0.567446	-0.184263	-0.286886
N164	N	1.067446	0.315737	0.213114
C165	C	1.089404	-0.552677	-0.333100
C166	C	1.589404	-0.052677	0.166900
N167	N	1.127996	-0.520683	-0.273241
N168	N	1.627996	-0.020683	0.226759
C169	C	0.267423	-0.193489	-0.301133
C170	C	0.767423	0.306511	0.198867
N171	N	0.238416	-0.157323	-0.245137
N172	N	0.738416	0.342677	0.254863
H173	H	1.070778	-0.697271	-0.362110
H174	H	1.570778	-0.197271	0.137890
H175	H	0.939529	-0.899296	-0.565784
H176	H	1.439529	-0.399296	-0.065784
C177	C	0.899953	-0.560284	-0.626856
C178	C	1.399953	-0.060284	-0.126856
N179	N	0.863795	-0.531289	-0.682900
N180	N	1.363795	-0.031289	-0.182900
H181	H	0.270884	-0.369746	-0.574016
H182	H	0.770884	0.130254	-0.074016
H183	H	0.920030	-0.383605	-0.875065
H184	H	1.420030	0.116395	-0.375065
