data_functionalizedCrystal
_audit_creation_method	'MofGen! by Chris Wilmer'
_symmetry_space_group_name_H-M	'P1'
_symmetry_Int_Tables_number	1
_symmetry_cell_setting	triclinic
loop_
_symmetry_equiv_pos_as_xyz
  x,y,z
_cell_length_a	11.792241
_cell_length_b	22.010155
_cell_length_c	11.792241
_cell_angle_alpha	89.995433
_cell_angle_beta	95.806584
_cell_angle_gamma	90.011508
loop_
_atom_site_label
_atom_site_type_symbol
_atom_site_fract_x
_atom_site_fract_y
_atom_site_fract_z
O1	O	1.506927	0.050466	-0.155565
O2	O	1.176586	0.050481	-0.171598
O3	O	1.349773	0.050469	0.001589
O4	O	1.333740	0.050478	-0.328752
O5	O	1.349721	-0.050581	0.001589
O6	O	1.176534	-0.050570	-0.171598
O7	O	1.506875	-0.050584	-0.155565
Cu8	Cu	1.341700	-0.059804	-0.163581
Cu9	Cu	1.341762	0.059700	-0.163582
O10	O	1.333688	-0.050572	-0.328752
C11	C	1.134269	-0.000043	-0.170591
C12	C	1.008255	-0.000038	-0.167576
N13	N	1.341664	-0.143856	-0.163580
C14	C	0.777543	-0.000055	-0.162034
C15	C	0.905928	-0.000045	-0.165113
C16	C	1.411023	-0.563637	-0.232873
C17	C	1.411037	-0.627244	-0.232870
O18	O	1.469968	-0.660137	-0.291778
N19	N	1.341784	-0.659063	-0.163569
C20	C	1.272522	-0.627271	-0.094257
O21	O	1.213619	-0.660176	-0.035310
C22	C	1.272515	-0.563665	-0.094255
C23	C	1.341764	-0.531849	-0.163569
C24	C	1.480268	-0.531821	-0.302181
C25	C	1.480252	-0.468218	-0.302185
C26	C	1.410993	-0.436430	-0.232881
C27	C	1.341749	-0.468246	-0.163573
C28	C	1.203260	-0.531874	-0.024938
C29	C	1.203260	-0.468263	-0.024941
C30	C	1.272509	-0.436448	-0.094255
C31	C	1.272474	-0.372855	-0.094274
N32	N	1.341727	-0.341036	-0.163575
C33	C	1.410986	-0.372824	-0.232878
C34	C	1.272542	-0.760849	-0.094267
C35	C	1.272542	-0.824454	-0.094274
C36	C	1.411059	-0.824423	-0.232886
C37	C	1.411052	-0.760816	-0.232883
C38	C	1.341795	-0.729030	-0.163568
C39	C	1.410949	-0.239252	-0.232882
C40	C	1.410924	-0.175644	-0.232884
C41	C	1.272412	-0.175680	-0.094268
C42	C	1.272432	-0.239284	-0.094271
C43	C	1.341709	-0.271068	-0.163581
O44	O	1.213577	-0.339922	-0.035393
O45	O	1.469891	-0.339911	-0.291805
C46	C	1.549192	-0.000059	-0.156572
C47	C	1.675206	-0.000061	-0.159587
C48	C	1.348740	-0.000056	0.043880
C49	C	1.345726	-0.000055	0.169894
N50	N	1.341806	0.143753	-0.163574
C51	C	1.334721	-0.000046	-0.371043
C52	C	1.337736	-0.000043	-0.497057
C53	C	1.340183	-0.000045	0.400606
C54	C	1.343262	-0.000051	0.272221
H55	H	1.467361	-0.265124	-0.289321
H56	H	1.146871	-0.557767	0.031507
C57	C	1.486456	-0.858864	-0.308050
C58	C	1.600627	-0.843365	-0.277524
C59	C	1.670109	-0.875075	-0.346745
H60	H	1.476693	-0.901311	-0.298182
H61	H	1.465913	-0.848430	-0.385587
H62	H	1.621163	-0.853803	-0.200006
H63	H	1.610426	-0.800924	-0.287397
H64	H	1.649567	-0.864641	-0.424283
H65	H	1.660336	-0.917520	-0.336872
H66	H	1.747581	-0.864560	-0.326051
C67	C	1.555621	-0.566357	-0.377238
C68	C	1.632099	-0.602856	-0.308954
C69	C	1.701541	-0.634668	-0.378067
H70	H	1.509568	-0.591222	-0.429185
H71	H	1.596920	-0.538309	-0.418483
H72	H	1.590804	-0.630901	-0.267728
H73	H	1.678178	-0.578007	-0.257009
H74	H	1.742840	-0.606620	-0.419312
H75	H	1.655478	-0.659529	-0.430011
H76	H	1.753446	-0.659432	-0.331746
H77	H	1.467440	-0.734916	-0.289326
H78	H	1.216019	-0.149788	-0.037846
H79	H	1.467314	-0.149742	-0.289333
C80	C	1.555376	-0.433761	-0.377622
C81	C	1.524790	-0.449251	-0.491781
C82	C	1.593987	-0.417534	-0.561307
H83	H	1.545531	-0.391315	-0.367862
H84	H	1.632915	-0.444195	-0.357115
H85	H	1.447269	-0.438813	-0.512282
H86	H	1.534640	-0.491692	-0.501577
H87	H	1.671526	-0.427968	-0.540799
H88	H	1.584137	-0.375090	-0.551537
H89	H	1.573251	-0.428044	-0.638770
C90	C	1.197310	-0.858884	-0.018906
C91	C	1.136677	-0.817426	0.041803
C92	C	1.067377	-0.849118	0.111261
H93	H	1.145269	-0.883707	-0.064940
H94	H	1.243482	-0.883678	0.033082
H95	H	1.090508	-0.792643	-0.010179
H96	H	1.188689	-0.792602	0.087858
H97	H	1.113550	-0.873912	0.163250
H98	H	1.015343	-0.873940	0.065219
H99	H	1.026237	-0.820994	0.152468
C100	C	1.197242	-0.726266	-0.019212
C101	C	1.120812	-0.689750	-0.087518
C102	C	1.051436	-0.657883	-0.018420
H103	H	1.155894	-0.754262	0.022070
H104	H	1.243380	-0.701411	0.032704
H105	H	1.074680	-0.714602	-0.139414
H106	H	1.162129	-0.661742	-0.128800
H107	H	1.097574	-0.633028	0.033496
H108	H	1.010096	-0.685884	0.022858
H109	H	0.999578	-0.633099	-0.064754
H110	H	1.146862	-0.442386	0.031506
C111	C	1.197203	-0.273719	-0.018900
C112	C	1.136564	-0.232261	0.041805
C113	C	1.067271	-0.263955	0.111268
H114	H	1.145164	-0.298545	-0.064931
H115	H	1.243380	-0.298509	0.033090
H116	H	1.090391	-0.207482	-0.010179
H117	H	1.188574	-0.207434	0.087857
H118	H	1.113448	-0.288745	0.163259
H119	H	1.015240	-0.288780	0.065230
H120	H	1.026127	-0.235831	0.152473
