data_functionalizedCrystal
_audit_creation_method	'MofGen! by Chris Wilmer'
_symmetry_space_group_name_H-M	'P1'
_symmetry_Int_Tables_number	1
_symmetry_cell_setting	triclinic
loop_
_symmetry_equiv_pos_as_xyz
  x,y,z
_cell_length_a	10.723024
_cell_length_b	10.540539
_cell_length_c	9.798715
_cell_angle_alpha	89.998989
_cell_angle_beta	89.996609
_cell_angle_gamma	84.496680
loop_
_atom_site_label
_atom_site_type_symbol
_atom_site_fract_x
_atom_site_fract_y
_atom_site_fract_z
O1	O	1.657276	0.178046	-0.113475
O2	O	1.294132	0.195088	-0.113479
O3	O	1.483989	0.001856	-0.113475
O4	O	1.467419	0.371278	-0.113479
O5	O	1.483974	0.001856	0.113507
O6	O	1.294118	0.195088	0.113503
O7	O	1.657262	0.178045	0.113507
Zn8	Zn	1.475687	0.186567	0.149543
Zn9	Zn	1.475706	0.186567	-0.149515
O10	O	1.467405	0.371277	0.113503
C11	C	1.247624	0.193848	0.000011
C12	C	1.109068	0.190137	0.000010
C13	C	1.482739	-0.045446	0.000013
C14	C	1.479021	-0.186392	0.000006
C15	C	1.034139	0.298260	0.000008
C16	C	0.890934	0.294427	0.000006
C17	C	1.336563	-0.369746	-0.000505
C18	C	1.340332	-0.223130	0.000006
C19	C	1.545757	-0.248085	0.129625
C20	C	1.541023	-0.394627	0.129734
C21	C	1.543860	-0.395146	-0.128387
C22	C	1.545138	-0.248165	-0.130101
C23	C	1.703769	0.179286	0.000013
C24	C	1.842325	0.182997	0.000006
C25	C	1.468654	0.418580	0.000012
C26	C	1.472372	0.559526	0.000010
N27	N	1.475684	0.186565	0.353643
N28	N	1.475720	0.186559	-0.353615
C29	C	1.555399	0.105075	0.421421
C30	C	1.555419	0.105071	0.578584
H31	H	1.076009	0.393665	0.000015
H32	H	1.623628	0.035306	0.363100
H33	H	1.623672	0.035308	0.636871
H34	H	1.067199	0.094732	-0.000024
Br35	Br	1.245344	-0.420653	0.153079
Br36	Br	1.715515	-0.210922	0.137667
H37	H	1.287821	-0.180499	-0.092910
H38	H	0.906704	0.090430	-0.000001
Br39	Br	1.245252	-0.417360	-0.155435
H40	H	0.826548	0.386988	-0.000001
Br41	Br	1.252169	-0.153476	0.155123
H42	H	1.407473	0.256334	0.588107
Br43	Br	1.458795	-0.441593	0.291222
H44	H	1.640766	-0.442646	0.135615
Br45	Br	1.361941	0.302840	0.450840
Br46	Br	1.469045	-0.447678	-0.292134
H47	H	1.499387	-0.205461	0.226081
H48	H	1.496308	-0.207281	-0.225990
Br49	Br	1.713670	-0.207873	-0.143160
Br50	Br	1.710823	-0.473943	-0.129842
