data_functionalizedCrystal
_audit_creation_method	'MofGen! by Chris Wilmer'
_symmetry_space_group_name_H-M	'P1'
_symmetry_Int_Tables_number	1
_symmetry_cell_setting	triclinic
loop_
_symmetry_equiv_pos_as_xyz
  x,y,z
_cell_length_a	6.817900
_cell_length_b	15.866433
_cell_length_c	16.015572
_cell_angle_alpha	95.311397
_cell_angle_beta	104.485554
_cell_angle_gamma	102.657169
loop_
_atom_site_label
_atom_site_type_symbol
_atom_site_fract_x
_atom_site_fract_y
_atom_site_fract_z
V1	V	-3.996849	-0.034802	-0.280480
O2	O	-3.966436	0.088704	-0.236005
O3	O	-3.966359	-0.152710	-0.316201
O4	O	-3.927287	0.003922	-0.385635
O5	O	-4.005779	-0.069012	-0.166091
V6	V	-4.480898	-0.024541	-0.262226
O7	O	-4.256953	-0.057309	-0.320523
O8	O	-4.670992	-0.002034	-0.222184
O9	O	-4.288182	0.093367	-0.226505
O10	O	-4.628708	-0.148047	-0.306701
O11	O	-4.589365	0.009669	-0.376615
O12	O	-4.327254	-0.063265	-0.157071
C13	C	-3.816401	-0.182647	-0.321489
C14	C	-3.872618	-0.278793	-0.351396
C15	C	-3.979885	-0.401788	-0.468679
C16	C	-3.927059	-0.311446	-0.440568
C17	C	-3.870975	-0.336477	-0.290299
C18	C	-3.923787	-0.426823	-0.318397
C19	C	-3.978242	-0.459471	-0.407588
C20	C	-3.922144	-0.484505	-0.257307
C21	C	-3.974963	-0.574844	-0.285403
C22	C	-4.029425	-0.607499	-0.374590
C23	C	-4.031061	-0.549809	-0.435685
C24	C	-3.867703	-0.451856	-0.168117
C25	C	-3.866060	-0.509539	-0.107026
C26	C	-3.918865	-0.599878	-0.135122
C27	C	-3.973327	-0.632534	-0.224309
C28	C	-3.917230	-0.657568	-0.074027
C29	C	-3.970049	-0.747907	-0.102124
C30	C	-4.026146	-0.722872	-0.252406
C31	C	-3.766560	0.017153	-0.410057
C32	C	-3.791087	0.048034	-0.496269
C33	C	-4.121356	-0.226061	-0.961224
C34	C	-4.144403	-0.197016	-1.042220
C35	C	-4.044590	-0.046747	-0.969640
C36	C	-4.021523	-0.075780	-0.888636
C37	C	-4.059912	-0.165438	-0.884436
C38	C	-3.960080	-0.015156	-0.811848
C39	C	-3.937026	-0.044187	-0.730851
C40	C	-3.975416	-0.133841	-0.726642
C41	C	-4.036859	-0.194468	-0.803439
C42	C	-3.921706	0.074501	-0.816050
C43	C	-3.860263	0.135125	-0.739262
C44	C	-3.837194	0.106095	-0.658263
C45	C	-3.875584	0.016441	-0.654054
C46	C	-3.775751	0.166722	-0.581466
C47	C	-3.752698	0.137692	-0.500469
C48	C	-3.852530	-0.012590	-0.573058
C49	C	-4.101482	0.123299	-0.221217
C50	C	-4.024503	0.219445	-0.191315
C51	C	-4.151324	-0.076501	-0.132646
C52	C	-4.106035	-0.107377	-0.046431
H53	H	-3.968706	-0.794874	-0.052378
F54	F	-4.084167	-0.757624	-0.347335
F55	F	-4.085651	-0.703646	-0.404494
F56	F	-3.811516	-0.355709	-0.138216
H57	H	-4.013346	0.026252	-0.973073
H58	H	-3.940449	0.098136	-0.882004
F59	F	-4.089081	-0.584561	-0.530614
F60	F	-4.209807	-0.261548	-1.123946
F61	F	-4.037905	-0.436540	-0.563608
H62	H	-3.956648	-0.157476	-0.660688
H63	H	-3.829019	0.208125	-0.742694
F64	F	-3.893349	-0.108014	-0.568583
F65	F	-4.077677	-0.289892	-0.798965
F66	F	-4.162174	-0.321486	-0.956750
H67	H	-3.744521	0.239722	-0.584901
F68	F	-3.687372	0.202213	-0.418744
H69	H	-3.928440	-0.264482	-0.490323
F70	F	-3.808157	-0.474783	-0.012107
F71	F	-3.813071	-0.301721	-0.195380
H72	H	-3.872907	-0.630972	-0.001409
