data_functionalizedCrystal
_audit_creation_method	'MofGen! by Chris Wilmer'
_symmetry_space_group_name_H-M	'P1'
_symmetry_Int_Tables_number	1
_symmetry_cell_setting	triclinic
loop_
_symmetry_equiv_pos_as_xyz
  x,y,z
_cell_length_a	10.654554
_cell_length_b	15.021413
_cell_length_c	10.654548
_cell_angle_alpha	89.994102
_cell_angle_beta	84.485571
_cell_angle_gamma	90.007551
loop_
_atom_site_label
_atom_site_type_symbol
_atom_site_fract_x
_atom_site_fract_y
_atom_site_fract_z
O1	O	1.667844	0.074032	0.176410
O2	O	1.302366	0.074033	0.193210
O3	O	1.493509	0.074030	0.002071
O4	O	1.476701	0.074034	0.367550
O5	O	1.493478	-0.074034	0.002098
O6	O	1.302335	-0.074032	0.193238
O7	O	1.667813	-0.074032	0.176438
Zn8	Zn	1.485069	-0.097540	0.184842
Zn9	Zn	1.485110	0.097541	0.184806
O10	O	1.476670	-0.074030	0.367577
C11	C	1.255553	0.000001	0.191989
C12	C	1.116110	0.000001	0.188295
C13	C	0.933549	0.000007	0.068808
C14	C	1.064570	0.000001	0.072279
C15	C	1.036620	-0.000002	0.300848
C16	C	0.905601	-0.000002	0.297377
C17	C	0.882017	0.000016	-0.047215
C18	C	0.961497	0.000017	-0.159769
C19	C	1.092519	0.000011	-0.156299
C20	C	1.144060	0.000003	-0.040275
N21	N	1.485051	-0.230678	0.184866
C22	C	1.396653	-0.470360	0.273207
C23	C	1.510350	-0.529695	0.298573
C24	C	1.485083	-0.412285	0.184835
C25	C	1.371417	-0.529692	0.159497
C26	C	1.485104	-0.587709	0.184807
C27	C	1.598838	-0.470313	0.210258
C28	C	1.459830	-0.470305	0.071132
C29	C	1.573609	-0.529613	0.096451
C30	C	1.485069	-0.311228	0.184854
C31	C	1.485130	-0.688764	0.184788
C32	C	1.714626	0.000002	0.177659
C33	C	1.854069	0.000007	0.181353
N34	N	1.485138	0.230678	0.184772
C35	C	1.492260	-0.000000	-0.044713
C36	C	1.488569	0.000004	-0.184157
C37	C	1.483363	0.080715	-0.380703
C38	C	1.486846	0.080715	-0.249683
C39	C	1.486820	-0.080713	-0.249658
C40	C	1.483345	-0.080712	-0.380677
C41	C	1.481628	0.161431	-0.446221
C42	C	1.483379	0.242148	-0.380729
C43	C	1.486862	0.242148	-0.249709
C44	C	1.488595	0.161432	-0.184181
C45	C	1.477919	0.000002	0.414361
C46	C	1.481610	0.000004	0.553805
H47	H	1.078596	-0.000007	0.395310
H48	H	0.775334	0.000024	-0.050054
H49	H	1.438417	-0.444198	-0.024982
O50	O	1.488321	0.320588	-0.186147
C51	C	1.378900	0.369666	-0.204959
H52	H	1.302069	0.322412	-0.231663
H53	H	1.344723	0.406300	-0.114371
H54	H	1.401427	0.419971	-0.284052
H55	H	1.321947	-0.444344	0.348001
H56	H	1.481915	-0.146434	-0.434002
O57	O	1.535888	-0.560976	0.413175
C58	C	1.536639	-0.654827	0.411210
H59	H	1.556231	-0.679026	0.309815
H60	H	1.613294	-0.680487	0.469551
H61	H	1.441002	-0.680856	0.452676
O62	O	0.828337	-0.000156	0.406668
C63	C	0.751678	-0.076829	0.411494
H64	H	0.799084	-0.130426	0.347698
H65	H	0.737824	-0.102569	0.512536
H66	H	0.656140	-0.059493	0.378154
O67	O	1.481903	0.320579	-0.444334
C68	C	1.591315	0.369705	-0.425590
H69	H	1.668173	0.322489	-0.398876
H70	H	1.625453	0.406333	-0.516212
H71	H	1.568792	0.420019	-0.346529
H72	H	1.694994	-0.444340	0.231792
H73	H	1.478787	0.161439	-0.552904
O74	O	1.663090	-0.560423	0.007411
C75	C	1.782711	-0.529983	0.034572
H76	H	1.780029	-0.513429	0.139211
H77	H	1.855919	-0.584123	0.009922
H78	H	1.808913	-0.467786	-0.023454
O79	O	0.911583	0.000141	-0.272545
C80	C	0.952098	0.076834	-0.341219
H81	H	1.043261	0.102395	-0.306207
H82	H	0.969360	0.059588	-0.445646
H83	H	0.876438	0.130535	-0.327338
H84	H	1.275283	-0.555777	0.138078
H85	H	1.491443	0.161439	-0.077497
H86	H	1.488229	-0.146428	-0.196295
H87	H	1.250748	-0.000010	-0.037458
O88	O	1.169855	0.000128	-0.265543
C89	C	1.246474	0.076821	-0.270397
H90	H	1.253979	0.102382	-0.170655
H91	H	1.344516	0.059575	-0.316326
H92	H	1.202887	0.130522	-0.328134
