data_functionalizedCrystal
_audit_creation_method	'MofGen! by Chris Wilmer'
_symmetry_space_group_name_H-M	'P1'
_symmetry_Int_Tables_number	1
_symmetry_cell_setting	triclinic
loop_
_symmetry_equiv_pos_as_xyz
  x,y,z
_cell_length_a	14.519709
_cell_length_b	10.654545
_cell_length_c	12.996460
_cell_angle_alpha	89.994208
_cell_angle_beta	89.998766
_cell_angle_gamma	84.081612
loop_
_atom_site_label
_atom_site_type_symbol
_atom_site_fract_x
_atom_site_fract_y
_atom_site_fract_z
O1	O	0.129506	1.666603	-0.085559
O2	O	0.462840	1.999937	0.247774
O3	O	0.796173	2.333270	0.581108
O4	O	0.141852	1.301005	-0.085564
O5	O	0.475185	1.634339	0.247770
O6	O	0.808518	1.967672	0.581103
O7	O	0.001491	1.493498	-0.085552
O8	O	0.334824	1.826831	0.247781
O9	O	0.668157	2.160164	0.581115
O10	O	0.269867	1.474111	-0.085571
O11	O	0.603201	1.807444	0.247763
O12	O	0.936534	2.140778	0.581096
O13	O	0.001499	1.493473	0.085582
O14	O	0.334832	1.826806	0.418915
O15	O	0.668165	2.160139	0.752249
O16	O	0.141860	1.300981	0.085570
O17	O	0.475193	1.634314	0.418904
O18	O	0.808526	1.967647	0.752237
O19	O	0.129514	1.666578	0.085575
O20	O	0.462848	1.999912	0.418908
O21	O	0.796181	2.333245	0.752241
Cu22	Cu	0.135688	1.483777	0.101198
Cu23	Cu	0.469021	1.817111	0.434532
Cu24	Cu	0.802354	2.150444	0.767865
Cu25	Cu	0.135678	1.483807	-0.101187
Cu26	Cu	0.469012	1.817140	0.232146
Cu27	Cu	0.802345	2.150473	0.565479
O28	O	0.269875	1.474086	0.085563
O29	O	0.603209	1.807420	0.418896
O30	O	0.936542	2.140753	0.752230
C31	C	0.140950	1.254204	0.000003
C32	C	0.474283	1.587537	0.333336
C33	C	0.807617	1.920870	0.666669
C34	C	0.138241	1.114786	0.000001
C35	C	0.471574	1.448119	0.333335
C36	C	0.804907	1.781453	0.666668
C37	C	0.136970	1.049280	0.093287
C38	C	0.470303	1.382614	0.426620
C39	C	0.803636	1.715947	0.759954
C40	C	0.134409	0.918286	0.093287
C41	C	0.467742	1.251619	0.426621
C42	C	0.801075	1.584952	0.759954
C43	C	0.134394	0.918313	-0.093292
C44	C	0.467727	1.251647	0.240041
C45	C	0.801060	1.584980	0.573375
C46	C	0.136948	1.049307	-0.093291
C47	C	0.470281	1.382640	0.240042
C48	C	0.803615	1.715973	0.573375
C49	C	-0.032870	1.492582	0.000015
C50	C	0.300464	1.825915	0.333348
C51	C	0.633797	2.159248	0.666682
C52	C	-0.135265	1.489874	0.000016
C53	C	0.198068	1.823208	0.333349
C54	C	0.531402	2.156541	0.666682
C55	C	-0.510212	1.479907	-0.000011
C56	C	-0.176879	1.813240	0.333322
C57	C	0.156454	2.146574	0.666655
C58	C	-0.405890	1.482675	-0.000003
C59	C	-0.072557	1.816008	0.333330
C60	C	0.260777	2.149342	0.666663
C61	C	-0.322742	1.484890	0.000003
C62	C	0.010591	1.818224	0.333337
C63	C	0.343925	2.151557	0.666670
C64	C	-0.218413	1.487659	0.000009
C65	C	0.114920	1.820992	0.333342
C66	C	0.448254	2.154326	0.666676
C67	C	0.304236	1.475002	-0.000006
C68	C	0.637569	1.808336	0.333327
C69	C	0.970902	2.141669	0.666660
C70	C	0.406631	1.477710	-0.000014
C71	C	0.739964	1.811043	0.333320
C72	C	1.073298	2.144376	0.666653
C73	C	0.130416	1.713380	0.000006
C74	C	0.463749	2.046714	0.333339
C75	C	0.797083	2.380047	0.666673
C76	C	0.133125	1.852798	0.000001
C77	C	0.466459	2.186131	0.333334
C78	C	0.799792	2.519464	0.666667
N79	N	0.135694	1.483766	0.243545
N80	N	0.469027	1.817099	0.576879
N81	N	0.802361	2.150432	0.910212
N82	N	0.135665	1.483828	-0.243534
N83	N	0.468998	1.817161	0.089799
N84	N	0.802331	2.150495	0.423132
C85	C	0.135696	1.483772	0.336651
C86	C	0.469030	1.817105	0.669985
C87	C	0.802363	2.150438	1.003318
C88	C	0.135690	1.483783	0.453457
C89	C	0.469024	1.817116	0.786790
C90	C	0.802357	2.150450	1.120123
C91	C	0.135680	1.483799	0.546555
C92	C	0.469013	1.817132	0.879888
C93	C	0.802347	2.150465	1.213222
C94	C	0.135675	1.483812	0.663367
C95	C	0.469008	1.817146	0.996701
C96	C	0.802342	2.150479	1.330034
H97	H	0.138022	1.102590	0.169252
H98	H	0.471356	1.435923	0.502585
H99	H	0.804689	1.769256	0.835919
C100	C	0.132997	0.846283	-0.195908
C101	C	0.466330	1.179617	0.137425
C102	C	0.799664	1.512950	0.470759
H103	H	0.134116	0.904062	-0.251466
H104	H	0.467449	1.237395	0.081867
H105	H	0.800783	1.570729	0.415201
H106	H	0.185690	0.785729	-0.199781
H107	H	0.519024	1.119062	0.133552
H108	H	0.852357	1.452396	0.466885
H109	H	0.078313	0.804638	-0.199792
H110	H	0.411647	1.137972	0.133541
H111	H	0.744980	1.471305	0.466875
C112	C	0.133017	0.846233	0.195902
C113	C	0.466350	1.179567	0.529235
C114	C	0.799683	1.512900	0.862568
H115	H	0.134159	0.903994	0.251459
H116	H	0.467493	1.237328	0.584792
H117	H	0.800826	1.570661	0.918126
H118	H	0.078336	0.804595	0.199791
H119	H	0.411669	1.137928	0.533125
H120	H	0.745002	1.471261	0.866458
H121	H	0.185712	0.785670	0.199770
H122	H	0.519046	1.119003	0.533103
H123	H	0.852379	1.452336	0.866436
C124	C	0.138350	1.121368	-0.195911
C125	C	0.471683	1.454701	0.137423
C126	C	0.805016	1.788034	0.470756
H127	H	0.137228	1.063609	-0.251472
H128	H	0.470561	1.396942	0.081861
H129	H	0.803894	1.730276	0.415194
H130	H	0.085662	1.181932	-0.199782
H131	H	0.418995	1.515265	0.133551
H132	H	0.752328	1.848599	0.466884
H133	H	0.193038	1.163004	-0.199789
H134	H	0.526372	1.496337	0.133544
H135	H	0.859705	1.829670	0.466877
