data_functionalizedCrystal
_audit_creation_method	'MofGen! by Chris Wilmer'
_symmetry_space_group_name_H-M	'P1'
_symmetry_Int_Tables_number	1
_symmetry_cell_setting	triclinic
loop_
_symmetry_equiv_pos_as_xyz
  x,y,z
_cell_length_a	10.654562
_cell_length_b	10.654550
_cell_length_c	9.130313
_cell_angle_alpha	89.995693
_cell_angle_beta	90.003553
_cell_angle_gamma	95.512497
loop_
_atom_site_label
_atom_site_type_symbol
_atom_site_fract_x
_atom_site_fract_y
_atom_site_fract_z
O1	O	1.667825	-0.176477	0.121892
O2	O	1.302348	-0.193266	0.121873
O3	O	1.493490	-0.002133	0.121877
O4	O	1.476684	-0.367610	0.121887
O5	O	1.493487	-0.002122	-0.121721
O6	O	1.302346	-0.193256	-0.121726
O7	O	1.667822	-0.176467	-0.121707
Cu8	Cu	1.485084	-0.184860	-0.143959
Cu9	Cu	1.485087	-0.184872	0.144125
O10	O	1.476681	-0.367600	-0.121711
C11	C	1.255549	-0.192025	0.000071
C12	C	1.116107	-0.188327	0.000064
C13	C	1.050575	-0.186596	-0.132710
C14	C	0.919553	-0.183131	-0.132686
C15	C	0.919606	-0.183133	0.132899
C16	C	1.050626	-0.186589	0.132873
C17	C	1.050542	-0.186601	-0.286044
C18	C	0.919520	-0.183136	-0.286019
C19	C	1.492254	0.044671	0.000080
C20	C	1.488563	0.184114	0.000085
C21	C	1.714621	-0.177708	0.000098
C22	C	1.854064	-0.181406	0.000115
C23	C	1.477916	-0.414403	0.000090
C24	C	1.481608	-0.553847	0.000094
N25	N	1.485091	-0.184851	-0.346582
C26	C	1.601103	0.263595	0.000086
C27	C	1.597627	0.394615	0.000096
C28	C	1.369059	0.366662	0.000097
C29	C	1.372537	0.235644	0.000098
C30	C	1.733066	0.279734	0.000079
C31	C	1.729589	0.410755	0.000089
N32	N	1.485090	-0.184872	0.346748
C33	C	1.569886	-0.100404	0.423401
C34	C	1.569890	-0.100397	0.576738
C35	C	1.400290	-0.269328	0.576754
C36	C	1.400293	-0.269340	0.423420
C37	C	1.667800	-0.002869	0.423394
C38	C	1.667804	-0.002862	0.576731
H39	H	1.096802	-0.099804	-0.344929
Cl40	Cl	1.791162	0.481226	0.162474
Cl41	Cl	1.231051	0.135729	0.000133
H42	H	1.779309	0.452517	-0.101852
Cl43	Cl	1.293707	-0.375547	0.327053
Cl44	Cl	0.837280	-0.180934	0.299849
H45	H	1.103980	-0.187978	0.240991
Cl46	Cl	1.634980	0.146269	0.640961
H47	H	1.758923	-0.033615	0.624302
Cl48	Cl	1.816716	-0.036373	0.359161
H49	H	1.784682	0.250369	0.102020
H50	H	1.331252	-0.338101	0.639197
Cl51	Cl	1.096213	-0.328010	-0.359494
Cl52	Cl	1.797920	0.224720	-0.162317
H53	H	0.889931	-0.091540	-0.333601
Cl54	Cl	1.223205	0.431453	0.000117
Cl55	Cl	0.848048	-0.317134	-0.376894
Cl56	Cl	1.620942	0.138055	0.349919
