data_functionalizedCrystal
_audit_creation_method	'MofGen! by Chris Wilmer'
_symmetry_space_group_name_H-M	'P1'
_symmetry_Int_Tables_number	1
_symmetry_cell_setting	triclinic
loop_
_symmetry_equiv_pos_as_xyz
  x,y,z
_cell_length_a	16.109317
_cell_length_b	9.565339
_cell_length_c	16.109301
_cell_angle_alpha	90.001191
_cell_angle_beta	96.535152
_cell_angle_gamma	90.001038
loop_
_atom_site_label
_atom_site_type_symbol
_atom_site_fract_x
_atom_site_fract_y
_atom_site_fract_z
O1	O	-1.103123	0.116115	0.106926
O2	O	-0.603123	0.616115	0.606926
O3	O	-0.861063	0.116151	0.120211
O4	O	-0.361063	0.616151	0.620211
O5	O	-0.988742	0.116118	-0.007462
O6	O	-0.488742	0.616118	0.492538
O7	O	-0.975443	0.116149	0.234600
O8	O	-0.475443	0.616149	0.734600
O9	O	-0.988732	-0.116402	-0.007454
O10	O	-0.488732	0.383598	0.492546
O11	O	-0.861053	-0.116369	0.120219
O12	O	-0.361053	0.383631	0.620219
O13	O	-1.103113	-0.116405	0.106934
O14	O	-0.603113	0.383595	0.606934
Zn15	Zn	-0.982081	-0.153304	0.113578
Zn16	Zn	-0.482081	0.346696	0.613578
Zn17	Zn	-0.982094	0.153051	0.113568
Zn18	Zn	-0.482094	0.653051	0.613568
O19	O	-0.975433	-0.116371	0.234607
O20	O	-0.475433	0.383629	0.734607
C21	C	-0.830083	-0.000104	0.119675
C22	C	-0.330083	0.499896	0.619675
C23	C	-0.737788	-0.000091	0.118054
C24	C	-0.237788	0.499909	0.618054
N25	N	-0.982078	-0.362384	0.113585
N26	N	-0.482078	0.137616	0.613585
C27	C	-0.438720	0.126639	0.112816
C28	C	0.061280	0.626639	0.612816
C29	C	-0.525441	0.126646	0.114333
C30	C	-0.025441	0.626646	0.614333
C31	C	-0.525449	-0.126861	0.114330
C32	C	-0.025449	0.373139	0.614330
C33	C	-0.438730	-0.126865	0.112807
C34	C	0.061270	0.373135	0.612807
C35	C	-0.395367	-0.000111	0.112054
C36	C	0.104633	0.499889	0.612054
C37	C	-0.568808	-0.000100	0.115095
C38	C	-0.068808	0.499900	0.615095
C39	C	-0.662835	-0.000094	0.116740
C40	C	-0.162835	0.499906	0.616740
C41	C	-0.301335	-0.000116	0.110408
C42	C	0.198665	0.499884	0.610408
C43	C	-0.923013	-0.453571	0.172610
C44	C	-0.423013	0.046429	0.672610
C45	C	-0.998138	-0.546759	0.188726
C46	C	-0.498138	-0.046759	0.688726
C47	C	-0.906985	-0.546751	0.097474
C48	C	-0.406985	-0.046751	0.597474
C49	C	-1.057241	-0.453520	0.129739
C50	C	-0.557241	0.046480	0.629739
C51	C	-0.966039	-0.453504	0.038454
C52	C	-0.466039	0.046496	0.538454
C53	C	-1.041219	-0.546649	0.054539
C54	C	-0.541219	-0.046649	0.554539
C55	C	-0.134092	-0.000139	0.107472
C56	C	0.365908	0.499861	0.607472
C57	C	-0.226387	-0.000120	0.109095
C58	C	0.273613	0.499880	0.609095
C59	C	-0.988199	-0.000142	-0.038433
C60	C	-0.488199	0.499858	0.461567
C61	C	-0.986584	-0.000144	-0.130728
C62	C	-0.486584	0.499856	0.369272
N63	N	-0.982104	0.362130	0.113554
N64	N	-0.482104	0.862130	0.613554
C65	C	-1.058591	-0.000133	-0.352996
C66	C	-0.558591	0.499867	0.147004
C67	C	-1.057067	-0.000121	-0.439717
C68	C	-0.557067	0.499879	0.060283
C69	C	-0.905579	-0.000104	-0.419851
C70	C	-0.405579	0.499896	0.080149
C71	C	-0.907104	-0.000106	-0.333132
C72	C	-0.407104	0.499894	0.166868
C73	C	-0.983612	-0.000127	-0.299707
C74	C	-0.483612	0.499873	0.200293
C75	C	-0.980563	-0.000114	-0.473147
C76	C	-0.480563	0.499886	0.026853
C77	C	-0.978910	-0.000101	-0.567173
C78	C	-0.478910	0.499899	-0.067173
C79	C	-0.985266	-0.000137	-0.205675
C80	C	-0.485266	0.499863	0.294325
C81	C	-0.975977	-0.000108	0.265578
C82	C	-0.475977	0.499892	0.765578
C83	C	-0.977592	-0.000097	0.357874
C84	C	-0.477592	0.499903	0.857874
H85	H	-0.403417	0.229851	0.112202
H86	H	0.096583	0.729851	0.612202
C87	C	-1.139543	-0.000136	-0.498331
C88	C	-0.639543	0.499864	0.001669
H89	H	-1.185323	-0.000159	-0.466001
H90	H	-0.685323	0.499841	0.033999
H91	H	-1.142104	0.080949	-0.532572
H92	H	-0.642104	0.580949	-0.032572
H93	H	-1.142092	-0.081231	-0.532573
H94	H	-0.642092	0.418769	-0.032573
H95	H	-0.560736	0.229859	0.114952
H96	H	-0.060736	0.729859	0.614952
H97	H	-0.952432	-0.412509	-0.025048
H98	H	-0.452432	0.087491	0.474952
H99	H	-0.560766	-0.230059	0.114945
H100	H	-0.060766	0.269941	0.614945
H101	H	-0.843470	-0.587708	0.083862
H102	H	-0.343470	-0.087708	0.583862
C103	C	-0.391039	-0.266298	0.111972
C104	C	0.108961	0.233702	0.611972
H105	H	-0.429281	-0.341787	0.112651
H106	H	0.070719	0.158213	0.612651
H107	H	-0.363562	-0.271569	0.062925
H108	H	0.136438	0.228431	0.562925
H109	H	-0.350857	-0.271562	0.159839
H110	H	0.149143	0.228438	0.659839
C111	C	-0.821427	-0.000100	-0.456622
C112	C	-0.321427	0.499900	0.043378
H113	H	-0.831256	-0.000115	-0.515901
H114	H	-0.331256	0.499885	-0.015901
H115	H	-0.790554	0.080985	-0.438330
H116	H	-0.290554	0.580985	0.061670
H117	H	-0.790559	-0.081195	-0.438328
H118	H	-0.290559	0.418805	0.061672
C119	C	-1.108780	-0.601529	-0.012911
C120	C	-0.608780	-0.101529	0.487089
H121	H	-1.162075	-0.569432	-0.001337
H122	H	-0.662075	-0.069432	0.498663
H123	H	-1.097831	-0.568186	-0.066134
H124	H	-0.597831	-0.068186	0.433866
H125	H	-1.108124	-0.700840	-0.012857
H126	H	-0.608124	-0.200840	0.487143
H127	H	-1.120770	-0.412739	0.143428
H128	H	-0.620770	0.087261	0.643428
H129	H	-0.846044	-0.000097	-0.289742
H130	H	-0.346044	0.499903	0.210258
C131	C	-0.855602	-0.398341	0.240098
C132	C	-0.355602	0.101659	0.740098
H133	H	-0.867149	-0.430273	0.293436
H134	H	-0.367149	0.069727	0.793436
H135	H	-0.802354	-0.431630	0.229190
H136	H	-0.302354	0.068370	0.729190
H137	H	-0.855730	-0.299033	0.239313
H138	H	-0.355730	0.200967	0.739313
H139	H	-1.011721	-0.587721	0.252249
H140	H	-0.511721	-0.087721	0.752249
C141	C	-1.142746	-0.000141	-0.316231
C142	C	-0.642746	0.499859	0.183769
H143	H	-1.187181	-0.000129	-0.360391
H144	H	-0.687181	0.499871	0.139609
H145	H	-1.146491	-0.081225	-0.282816
H146	H	-0.646491	0.418775	0.217184
H147	H	-1.146489	0.080955	-0.282815
H148	H	-0.646489	0.580955	0.217185
