data_functionalizedCrystal
_audit_creation_method	'MofGen! by Chris Wilmer'
_symmetry_space_group_name_H-M	'P1'
_symmetry_Int_Tables_number	1
_symmetry_cell_setting	triclinic
loop_
_symmetry_equiv_pos_as_xyz
  x,y,z
_cell_length_a	10.540539
_cell_length_b	8.559649
_cell_length_c	7.681481
_cell_angle_alpha	94.930900
_cell_angle_beta	84.216462
_cell_angle_gamma	77.152078
loop_
_atom_site_label
_atom_site_type_symbol
_atom_site_fract_x
_atom_site_fract_y
_atom_site_fract_z
O1	O	-1.648885	-0.239893	-0.146339
O2	O	-1.277251	-0.261088	-0.146359
O3	O	-1.495810	-0.018262	-0.146345
O4	O	-1.430327	-0.482719	-0.146353
O5	O	-1.522717	0.011694	0.146514
O6	O	-1.304159	-0.231132	0.146500
O7	O	-1.675793	-0.209937	0.146521
Zn8	Zn	-1.494248	-0.215778	0.193008
Zn9	Zn	-1.458796	-0.255247	-0.192847
O10	O	-1.457234	-0.452763	0.146507
C11	C	-1.243568	-0.244521	0.000068
C12	C	-1.103117	-0.239767	0.000059
C13	C	-1.514225	0.056189	0.000081
C14	C	-1.528996	0.233400	0.000072
C15	C	-1.709475	-0.226505	0.000090
C16	C	-1.849925	-0.231260	0.000087
C17	C	-0.938829	-0.057495	0.000746
C18	C	-1.084880	-0.062384	0.000068
C19	C	-1.017142	-0.342236	-0.167173
C20	C	-0.871221	-0.336195	-0.167294
C21	C	-0.900953	-0.305738	0.165741
C22	C	-1.047966	-0.307147	0.167934
C23	C	-1.438818	-0.527215	0.000076
C24	C	-1.424047	-0.704427	0.000074
N25	N	-1.518452	-0.188841	0.456344
N26	N	-1.434603	-0.282171	-0.456183
H27	H	-1.145541	0.017045	0.119947
Br28	Br	-1.255445	0.158335	0.000075
H29	H	-1.349011	-0.377433	0.468615
H30	H	-0.809198	-0.464542	-0.174887
H31	H	-1.054504	-0.295668	-0.291629
Br32	Br	-0.921775	0.079754	0.200644
Br33	Br	-0.882391	0.038495	-0.198015
H34	H	-1.604058	-0.093585	0.531555
H35	H	-1.630157	0.315753	0.000092
H36	H	-0.838130	-0.285890	-0.292300
Br37	Br	-1.030748	-0.560404	-0.177596
Br38	Br	-1.147750	0.029344	-0.200430
Br39	Br	-0.877811	-0.188444	0.377021
Br40	Br	-1.145906	-0.181935	0.374140
H41	H	-1.059580	-0.435438	0.178029
H42	H	-0.840416	-0.433744	0.166869
