data_functionalizedCrystal
_audit_creation_method	'MofGen! by Chris Wilmer'
_symmetry_space_group_name_H-M	'P1'
_symmetry_Int_Tables_number	1
_symmetry_cell_setting	triclinic
loop_
_symmetry_equiv_pos_as_xyz
  x,y,z
_cell_length_a	10.967874
_cell_length_b	9.130313
_cell_length_c	10.967829
_cell_angle_alpha	102.127737
_cell_angle_beta	82.165976
_cell_angle_gamma	102.131754
loop_
_atom_site_label
_atom_site_type_symbol
_atom_site_fract_x
_atom_site_fract_y
_atom_site_fract_z
O1	O	1.657206	0.584234	0.174994
O2	O	1.294050	0.496808	0.191752
O3	O	1.484003	0.496800	0.001797
O4	O	1.467253	0.584243	0.364949
O5	O	1.483990	0.253200	0.001809
O6	O	1.294037	0.253209	0.191764
O7	O	1.657193	0.340635	0.175005
Cu8	Cu	1.475614	0.274679	0.183385
Cu9	Cu	1.475629	0.562764	0.183372
O10	O	1.467240	0.340643	0.364960
C11	C	1.247543	0.362965	0.190540
C12	C	1.108988	0.327075	0.186894
N13	N	1.475612	0.072058	0.183394
C14	C	1.047222	0.437266	0.185263
C15	C	0.904017	0.400174	0.181495
C16	C	1.551942	0.033936	0.259766
C17	C	1.551960	-0.119402	0.259743
C18	C	1.399307	-0.196485	0.106973
C19	C	1.399297	-0.043150	0.106990
C20	C	1.628257	0.149144	0.336171
C21	C	1.704592	0.111025	0.412550
C22	C	1.704610	-0.042313	0.412527
C23	C	1.628293	-0.157532	0.336124
C24	C	1.703699	0.474481	0.176218
C25	C	1.842255	0.510381	0.179864
C26	C	1.482776	0.362957	-0.044696
C27	C	1.479127	0.327070	-0.183250
N28	N	1.475641	0.765385	0.183354
C29	C	1.477507	0.437264	-0.245022
C30	C	1.473735	0.400176	-0.388224
C31	C	1.468466	0.474489	0.411454
C32	C	1.472116	0.510385	0.550008
H33	H	1.100360	0.559065	0.186662
N34	N	1.477278	0.165731	-0.253614
H35	H	1.400648	0.096384	-0.221571
H36	H	1.474897	0.162245	-0.345923
H37	H	0.895386	0.632190	0.181265
N38	N	1.628252	0.314529	0.336187
H39	H	1.568318	0.321198	0.276209
H40	H	1.601032	0.366469	0.423399
N41	N	1.471880	0.238826	-0.458580
H42	H	1.393236	0.201888	-0.503148
H43	H	1.547736	0.236226	-0.521987
N44	N	1.628876	-0.322914	0.335537
H45	H	1.569133	-0.390113	0.275366
H46	H	1.716288	-0.343820	0.308192
N47	N	1.786916	0.235283	0.494938
H48	H	1.775324	0.338207	0.483366
H49	H	1.763038	0.225281	0.585470
H50	H	1.055848	0.205278	0.185508
N51	N	1.786935	-0.083461	0.494890
H52	H	1.847553	-0.145331	0.441099
H53	H	1.835201	0.012847	0.543284
N54	N	1.316998	-0.320746	0.024572
H55	H	1.328587	-0.423669	0.036152
H56	H	1.226450	-0.310802	0.048400
N57	N	1.316977	-0.002017	0.024615
H58	H	1.268627	-0.098266	-0.023783
H59	H	1.256433	0.059901	0.078473
N60	N	1.479207	0.598570	-0.174639
H61	H	1.481586	0.602183	-0.082307
H62	H	1.555790	0.667951	-0.206715
H63	H	1.473506	0.632189	-0.396865
N64	N	0.833716	0.238709	0.179121
H65	H	0.741412	0.235043	0.176512
H66	H	0.866097	0.169919	0.102322
