data_functionalizedCrystal
_audit_creation_method	'MofGen! by Chris Wilmer'
_symmetry_space_group_name_H-M	'P1'
_symmetry_Int_Tables_number	1
_symmetry_cell_setting	triclinic
loop_
_symmetry_equiv_pos_as_xyz
  x,y,z
_cell_length_a	10.967971
_cell_length_b	11.026607
_cell_length_c	9.482944
_cell_angle_alpha	81.873049
_cell_angle_beta	112.343712
_cell_angle_gamma	83.619813
loop_
_atom_site_label
_atom_site_type_symbol
_atom_site_fract_x
_atom_site_fract_y
_atom_site_fract_z
O1	O	1.794356	-0.250944	0.570388
O2	O	2.294356	0.249056	1.070388
O3	O	1.418144	-0.253978	0.476147
O4	O	1.918144	0.246022	0.976147
O5	O	1.575069	-0.074458	0.515451
O6	O	2.075069	0.425542	1.015451
O7	O	1.637431	-0.430465	0.531084
O8	O	2.137431	0.069535	1.031084
O9	O	1.530546	-0.038790	0.262505
O10	O	2.030546	0.461210	0.762505
O11	O	1.373621	-0.218310	0.223201
O12	O	1.873621	0.281690	0.723201
O13	O	1.749833	-0.215276	0.317442
O14	O	2.249833	0.284724	0.817442
Cu15	Cu	1.557661	-0.213536	0.247225
Cu16	Cu	2.057661	0.286464	0.747225
Cu17	Cu	1.610315	-0.255718	0.546363
Cu18	Cu	2.110315	0.244282	1.046363
O19	O	1.592908	-0.394796	0.278137
O20	O	2.092908	0.105204	0.778137
C21	C	1.346971	-0.233229	0.337422
C22	C	1.846971	0.266771	0.837422
C23	C	1.201225	-0.224527	0.300913
C24	C	1.701225	0.275473	0.800913
C25	C	1.541303	-0.010915	0.386098
C26	C	2.041303	0.489085	0.886098
C27	C	1.507009	0.125282	0.377513
C28	C	2.007009	0.625282	0.877513
C29	C	1.821007	-0.236026	0.456170
C30	C	2.321007	0.263974	0.956170
C31	C	1.966754	-0.244729	0.492689
C32	C	2.466754	0.255271	0.992689
N33	N	1.520637	-0.183867	0.036830
N34	N	2.020637	0.316133	0.536830
C35	C	2.008674	-0.230132	0.377939
C36	C	2.508674	0.269868	0.877939
C37	C	2.159311	-0.239127	0.415680
C38	C	2.659311	0.260873	0.915680
C39	C	1.626674	-0.458339	0.407494
C40	C	2.126674	0.041661	0.907494
C41	C	1.660970	-0.594538	0.416089
C42	C	2.160970	-0.094538	0.916089
C43	C	1.601704	0.194989	0.401236
C44	C	2.101704	0.694989	0.901236
C45	C	1.566262	0.335757	0.392363
C46	C	2.066262	0.835757	0.892363
C47	C	1.599385	-0.246966	-0.015642
C48	C	2.099385	0.253034	0.484358
C49	C	1.568588	-0.222270	-0.190774
C50	C	2.068588	0.277730	0.309226
N51	N	1.647348	-0.285378	0.756761
N52	N	2.147348	0.214622	1.256761
H53	H	1.933044	-0.210983	0.251756
H54	H	2.433044	0.289017	0.751756
H55	H	1.689608	-0.319266	0.069092
H56	H	2.189608	0.180734	0.569092
H57	H	2.234939	-0.258291	0.541872
H58	H	2.734939	0.241709	1.041872
O59	O	1.449091	-0.126474	-0.303010
O60	O	1.949091	0.373526	0.196990
H61	H	1.459782	-0.033962	-0.271207
H62	H	1.959782	0.466038	0.228793
H63	H	1.430421	-0.111559	-0.047902
H64	H	1.930421	0.388441	0.452098
H65	H	2.125600	-0.205377	0.174721
H66	H	2.625600	0.294623	0.674721
H67	H	1.399701	0.169816	0.350642
H68	H	1.899701	0.669816	0.850642
O69	O	1.743855	0.136016	0.436843
O70	O	2.243855	0.636016	0.936843
H71	H	1.749384	0.034707	0.438215
H72	H	2.249384	0.534707	0.938215
H73	H	1.737576	-0.357685	-0.158512
H74	H	2.237576	0.142315	0.341488
H75	H	1.458946	0.380286	0.365490
H76	H	1.958946	0.880286	0.865490
O77	O	2.066917	-0.270088	0.659842
O78	O	2.566917	0.229912	1.159842
H79	H	2.169513	-0.273157	0.663254
H80	H	2.669513	0.226843	1.163254
H81	H	1.768308	0.360917	0.443086
H82	H	2.268308	0.860917	0.943086
