data_functionalizedCrystal
_audit_creation_method	'MofGen! by Chris Wilmer'
_symmetry_space_group_name_H-M	'P1'
_symmetry_Int_Tables_number	1
_symmetry_cell_setting	triclinic
loop_
_symmetry_equiv_pos_as_xyz
  x,y,z
_cell_length_a	18.101398
_cell_length_b	18.101395
_cell_length_c	18.101389
_cell_angle_alpha	89.983159
_cell_angle_beta	89.990255
_cell_angle_gamma	90.026661
loop_
_atom_site_label
_atom_site_type_symbol
_atom_site_fract_x
_atom_site_fract_y
_atom_site_fract_z
Zn1	Zn	1.132121	-0.294995	-0.418559
Zn2	Zn	1.465454	0.038338	-0.085225
Zn3	Zn	1.798788	0.371672	0.248108
Zn4	Zn	1.132017	-0.418821	-0.294721
Zn5	Zn	1.465350	-0.085487	0.038613
Zn6	Zn	1.798683	0.247846	0.371946
Zn7	Zn	1.008280	-0.294988	-0.294751
Zn8	Zn	1.341613	0.038345	0.038582
Zn9	Zn	1.674947	0.371679	0.371915
Zn10	Zn	1.008231	-0.418790	-0.418541
Zn11	Zn	1.341564	-0.085456	-0.085207
Zn12	Zn	1.674897	0.247877	0.248126
O13	O	1.070162	-0.356898	-0.356643
O14	O	1.403495	-0.023565	-0.023310
O15	O	1.736829	0.309768	0.310024
O16	O	1.235740	-0.311437	-0.402126
O17	O	1.569073	0.021896	-0.068793
O18	O	1.902407	0.355230	0.264541
O19	O	1.115580	-0.402404	-0.191092
O20	O	1.448913	-0.069071	0.142242
O21	O	1.782247	0.264262	0.475575
O22	O	1.024772	-0.191356	-0.311195
O23	O	1.358105	0.141977	0.022138
O24	O	1.691438	0.475311	0.355472
O25	O	1.235663	-0.402411	-0.311143
O26	O	1.568997	-0.069078	0.022191
O27	O	1.902330	0.264256	0.355524
O28	O	1.115757	-0.191361	-0.402156
O29	O	1.449091	0.141972	-0.068822
O30	O	1.782424	0.475305	0.264511
O31	O	1.024671	-0.311425	-0.191114
O32	O	1.358004	0.021909	0.142219
O33	O	1.691338	0.355242	0.475552
O34	O	0.904640	-0.311395	-0.311178
O35	O	1.237974	0.021939	0.022156
O36	O	1.571307	0.355272	0.355489
O37	O	1.024688	-0.402358	-0.522176
O38	O	1.358021	-0.069025	-0.188843
O39	O	1.691355	0.264309	0.144491
O40	O	0.904604	-0.402351	-0.402125
O41	O	1.237938	-0.069018	-0.068792
O42	O	1.571271	0.264315	0.264542
O43	O	1.115710	-0.311407	-0.522189
O44	O	1.449043	0.021927	-0.188856
O45	O	1.782376	0.355260	0.144477
O46	O	1.115532	-0.522450	-0.311125
O47	O	1.448865	-0.189116	0.022208
O48	O	1.782199	0.144217	0.355541
O49	O	1.024587	-0.522427	-0.402095
O50	O	1.357920	-0.189093	-0.068762
O51	O	1.691254	0.144240	0.264571
C52	C	0.877751	-0.356869	-0.356653
C53	C	1.211085	-0.023536	-0.023320
C54	C	1.544418	0.309797	0.310013
C55	C	0.795437	-0.356875	-0.356675
C56	C	1.128771	-0.023541	-0.023342
C57	C	1.462104	0.309792	0.309992
C58	C	0.496346	-0.356918	-0.356644
C59	C	0.829680	-0.023585	-0.023311
C60	C	1.163013	0.309748	0.310022
C61	C	0.527674	-0.414422	-0.413583
C62	C	0.861007	-0.081089	-0.080250
C63	C	1.194340	0.252244	0.253083
C64	C	0.613292	-0.414242	-0.413817
C65	C	0.946625	-0.080909	-0.080484
C66	C	1.279959	0.252424	0.252849
C67	C	0.644729	-0.356897	-0.356660
C68	C	0.978062	-0.023564	-0.023326
C69	C	1.311396	0.309769	0.310007
C70	C	0.613675	-0.278899	-0.377985
C71	C	0.947008	0.054435	-0.044652
C72	C	1.280341	0.387768	0.288681
C73	C	0.528029	-0.279244	-0.378390
C74	C	0.861363	0.054089	-0.045057
C75	C	1.194696	0.387423	0.288277
C76	C	0.527894	-0.376725	-0.278242
C77	C	0.861227	-0.043392	0.055091
C78	C	1.194561	0.289941	0.388425
C79	C	0.613544	-0.378437	-0.278661
C80	C	0.946877	-0.045103	0.054672
C81	C	1.280210	0.288230	0.388006
C82	C	0.728588	-0.356881	-0.356667
C83	C	1.061922	-0.023547	-0.023334
C84	C	1.395255	0.309786	0.310000
C85	C	0.412487	-0.356930	-0.356639
C86	C	0.745820	-0.023596	-0.023305
C87	C	1.079154	0.309737	0.310028
C88	C	1.070063	-0.549309	-0.356621
C89	C	1.403396	-0.215976	-0.023288
C90	C	1.736730	0.117358	0.310046
C91	C	1.070088	-0.631623	-0.356637
C92	C	1.403422	-0.298290	-0.023303
C93	C	1.736755	0.035044	0.310030
C94	C	1.070251	-0.930714	-0.356676
C95	C	1.403584	-0.597381	-0.023343
C96	C	1.736917	-0.264047	0.309990
C97	C	1.013163	-0.899405	-0.414054
C98	C	1.346497	-0.566072	-0.080721
C99	C	1.679830	-0.232739	0.252612
C100	C	1.012892	-0.813787	-0.413875
C101	C	1.346225	-0.480454	-0.080542
C102	C	1.679559	-0.147121	0.252792
C103	C	1.070170	-0.782331	-0.356657
C104	C	1.403503	-0.448998	-0.023324
C105	C	1.736837	-0.115665	0.310009
C106	C	1.049041	-0.813467	-0.278611
C107	C	1.382374	-0.480134	0.054722
C108	C	1.715708	-0.146800	0.388055
C109	C	1.048673	-0.899112	-0.278955
C110	C	1.382006	-0.565779	0.054379
C111	C	1.715340	-0.232445	0.387712
C112	C	1.148592	-0.899067	-0.376658
C113	C	1.481926	-0.565734	-0.043324
C114	C	1.815259	-0.232401	0.290009
C115	C	1.148132	-0.813417	-0.378369
C116	C	1.481465	-0.480083	-0.045036
C117	C	1.814798	-0.146750	0.288297
C118	C	1.070126	-0.698472	-0.356642
C119	C	1.403459	-0.365139	-0.023308
C120	C	1.736793	-0.031805	0.310025
C121	C	1.070293	-1.014573	-0.356687
C122	C	1.403627	-0.681240	-0.023353
C123	C	1.736960	-0.347907	0.309980
C124	C	1.263324	-0.356928	-0.356633
C125	C	1.596657	-0.023595	-0.023300
C126	C	1.929991	0.309738	0.310034
C127	C	1.345638	-0.356941	-0.356629
C128	C	1.678971	-0.023608	-0.023295
C129	C	2.012305	0.309726	0.310038
C130	C	1.070205	-0.356880	-0.549805
C131	C	1.403538	-0.023546	-0.216471
C132	C	1.736871	0.309787	0.116862
C133	C	1.070223	-0.356872	-0.632119
C134	C	1.403556	-0.023538	-0.298786
C135	C	1.736890	0.309795	0.034548
C136	C	1.070282	-0.163736	-0.356681
C137	C	1.403615	0.169597	-0.023348
C138	C	1.736948	0.502930	0.309986
C139	C	1.070333	-0.081422	-0.356697
C140	C	1.403666	0.251911	-0.023364
C141	C	1.736999	0.585244	0.309970
C142	C	1.070266	-0.356733	-0.931210
C143	C	1.403600	-0.023400	-0.597877
C144	C	1.736933	0.309934	-0.264543
C145	C	1.012801	-0.413775	-0.899877
C146	C	1.346134	-0.080442	-0.566543
C147	C	1.679467	0.252892	-0.233210
C148	C	1.012956	-0.414040	-0.814258
C149	C	1.346289	-0.080706	-0.480925
C150	C	1.679623	0.252627	-0.147592
C151	C	1.070244	-0.356802	-0.782827
C152	C	1.403577	-0.023468	-0.449494
C153	C	1.736911	0.309865	-0.116161
C154	C	1.148270	-0.377992	-0.813914
C155	C	1.481603	-0.044659	-0.480581
C156	C	1.814936	0.288675	-0.147247
C157	C	1.147949	-0.378366	-0.899559
C158	C	1.481283	-0.045033	-0.566226
C159	C	1.814616	0.288300	-0.232892
C160	C	1.050385	-0.278374	-0.899637
C161	C	1.383718	0.054960	-0.566304
C162	C	1.717051	0.388293	-0.232971
C163	C	1.048649	-0.278826	-0.813987
C164	C	1.381982	0.054507	-0.480653
C165	C	1.715315	0.387840	-0.147320
C166	C	1.070236	-0.356839	-0.698968
C167	C	1.403570	-0.023506	-0.365635
C168	C	1.736903	0.309827	-0.032301
C169	C	1.070279	-0.356697	-1.015070
C170	C	1.403612	-0.023364	-0.681736
C171	C	1.736946	0.309970	-0.348403
C172	C	1.070162	-0.356864	-0.164232
C173	C	1.403495	-0.023530	0.169101
C174	C	1.736829	0.309803	0.502434
C175	C	1.070287	-0.356663	-0.081919
C176	C	1.403621	-0.023330	0.251415
C177	C	1.736954	0.310004	0.584748
H178	H	0.507635	-0.334839	-0.235817
H179	H	0.840969	-0.001506	0.097516
H180	H	1.174302	0.331827	0.430850
N181	N	1.102372	-0.786476	-0.220429
N182	N	1.435706	-0.453142	0.112904
N183	N	1.769039	-0.119809	0.446238
H184	H	1.127420	-0.830166	-0.196421
H185	H	1.460753	-0.496833	0.136912
H186	H	1.794087	-0.163500	0.470246
H187	H	1.140794	-0.753715	-0.244210
H188	H	1.474127	-0.420382	0.089124
H189	H	1.807460	-0.087049	0.422457
N190	N	0.499199	-0.397278	-0.490091
N191	N	0.832533	-0.063945	-0.156758
N192	N	1.165866	0.269388	0.176575
H193	H	0.519587	-0.434470	-0.526328
H194	H	0.852921	-0.101137	-0.192995
H195	H	1.186254	0.232196	0.140339
H196	H	0.443463	-0.399851	-0.490156
H197	H	0.776796	-0.066518	-0.156823
H198	H	1.110130	0.266816	0.176511
N199	N	0.640656	-0.220602	-0.324776
N200	N	0.973990	0.112731	0.008557
N201	N	1.307323	0.446064	0.341891
H202	H	0.620019	-0.170917	-0.339543
H203	H	0.953352	0.162416	-0.006210
H204	H	1.286686	0.495750	0.327123
H205	H	0.623617	-0.233270	-0.273171
H206	H	0.956950	0.100063	0.060163
H207	H	1.290284	0.433396	0.393496
H208	H	1.191125	-0.919313	-0.334867
H209	H	1.524458	-0.585980	-0.001534
H210	H	1.857791	-0.252646	0.331800
H211	H	0.507308	-0.234865	-0.338820
H212	H	0.840641	0.098469	-0.005486
H213	H	1.173974	0.431802	0.327847
N214	N	1.206596	-0.325737	-0.927020
N215	N	1.539929	0.007596	-0.593687
N216	N	1.873262	0.340930	-0.260353
H217	H	1.243688	-0.353667	-0.957943
H218	H	1.577022	-0.020333	-0.624610
H219	H	1.910355	0.313000	-0.291277
H220	H	1.182792	-0.285903	-0.957992
H221	H	1.516125	0.047430	-0.624659
H222	H	1.849459	0.380763	-0.291325
H223	H	1.026111	-0.792735	-0.471746
H224	H	1.359445	-0.459401	-0.138412
H225	H	1.692778	-0.126068	0.194921
H226	H	0.992380	-0.792075	-0.261380
H227	H	1.325714	-0.458741	0.071953
H228	H	1.659047	-0.125408	0.405287
N229	N	1.101333	-0.926553	-0.220375
N230	N	1.434666	-0.593220	0.112958
N231	N	1.768000	-0.259886	0.446292
H232	H	1.101499	-0.982349	-0.220136
H233	H	1.434832	-0.649015	0.113197
H234	H	1.768165	-0.315682	0.446530
H235	H	1.152733	-0.907801	-0.231359
H236	H	1.486066	-0.574467	0.101974
H237	H	1.819399	-0.241134	0.435307
H238	H	1.167856	-0.920627	-0.432598
H239	H	1.501190	-0.587294	-0.099265
H240	H	1.834523	-0.253960	0.234069
N241	N	1.169246	-0.786462	-0.454450
N242	N	1.502579	-0.453128	-0.121117
N243	N	1.835913	-0.119795	0.212217
H244	H	1.128487	-0.754247	-0.474773
H245	H	1.461820	-0.420914	-0.141440
H246	H	1.795153	-0.087580	0.191893
H247	H	1.216483	-0.756919	-0.451262
H248	H	1.549816	-0.423586	-0.117929
H249	H	1.883149	-0.090253	0.215405
H250	H	0.991406	-0.919148	-0.262027
H251	H	1.324739	-0.585814	0.071306
H252	H	1.658072	-0.252481	0.404640
N253	N	0.499264	-0.450772	-0.252566
N254	N	0.832597	-0.117439	0.080768
N255	N	1.165930	0.215894	0.414101
H256	H	0.520193	-0.462392	-0.202168
H257	H	0.853526	-0.129059	0.131166
H258	H	1.186860	0.204275	0.464499
H259	H	0.443567	-0.449182	-0.249668
H260	H	0.776901	-0.115848	0.083665
H261	H	1.110234	0.217485	0.416999
H262	H	0.955448	-0.920985	-0.400987
H263	H	1.288781	-0.587652	-0.067653
H264	H	1.622114	-0.254318	0.265680
N265	N	1.207459	-0.785048	-0.327054
N266	N	1.540792	-0.451715	0.006280
N267	N	1.874126	-0.118382	0.339613
H268	H	1.184537	-0.751497	-0.288831
H269	H	1.517870	-0.418164	0.044502
H270	H	1.851204	-0.084830	0.377836
H271	H	1.232132	-0.828127	-0.301597
H272	H	1.565465	-0.494793	0.031736
H273	H	1.898798	-0.161460	0.365069
N274	N	1.030015	-0.490245	-0.928377
N275	N	1.363348	-0.156911	-0.595044
N276	N	1.696682	0.176422	-0.261711
H277	H	0.992847	-0.526548	-0.907986
H278	H	1.326180	-0.193214	-0.574652
H279	H	1.659513	0.140119	-0.241319
H280	H	1.027457	-0.490291	-0.984113
H281	H	1.360790	-0.156958	-0.650779
H282	H	1.694124	0.176376	-0.317446
H283	H	0.508068	-0.262443	-0.435705
H284	H	0.841402	0.070891	-0.102372
H285	H	1.174735	0.404224	0.230961
N286	N	0.936325	-0.396443	-0.786409
N287	N	1.269659	-0.063109	-0.453076
N288	N	1.602992	0.270224	-0.119743
H289	H	0.902139	-0.388447	-0.829769
H290	H	1.235473	-0.055114	-0.496436
H291	H	1.568806	0.278220	-0.163103
H292	H	0.917555	-0.438944	-0.755489
H293	H	1.250889	-0.105610	-0.422155
H294	H	1.584222	0.227723	-0.088822
N295	N	1.030489	-0.926640	-0.490962
N296	N	1.363822	-0.593306	-0.157628
N297	N	1.697156	-0.259973	0.175705
H298	H	1.075511	-0.959539	-0.489359
H299	H	1.408844	-0.626206	-0.156026
H300	H	1.742177	-0.292872	0.177308
H301	H	0.987002	-0.955533	-0.510650
H302	H	1.320335	-0.622200	-0.177317
H303	H	1.653669	-0.288866	0.156016
N304	N	0.935927	-0.396377	-0.927151
N305	N	1.269260	-0.063043	-0.593818
N306	N	1.602594	0.270290	-0.260485
H307	H	0.934979	-0.398668	-0.982892
H308	H	1.268312	-0.065335	-0.649559
H309	H	1.601645	0.267999	-0.316225
H310	H	0.899953	-0.433636	-0.906354
H311	H	1.233286	-0.100303	-0.573021
H312	H	1.566619	0.233030	-0.239687
N313	N	1.030338	-0.490974	-0.787116
N314	N	1.363671	-0.157641	-0.453782
N315	N	1.697004	0.175692	-0.120449
H316	H	1.037937	-0.524846	-0.830787
H317	H	1.371271	-0.191513	-0.497454
H318	H	1.704604	0.141820	-0.164120
H319	H	1.076778	-0.489710	-0.756224
H320	H	1.410111	-0.156376	-0.422891
H321	H	1.743445	0.176957	-0.089558
H322	H	1.092240	-0.235875	-0.919901
H323	H	1.425573	0.097459	-0.586568
H324	H	1.758907	0.430792	-0.253235
H325	H	1.087450	-0.234070	-0.792592
H326	H	1.420783	0.099263	-0.459258
H327	H	1.754117	0.432596	-0.125925
N328	N	1.170274	-0.454239	-0.926033
N329	N	1.503607	-0.120906	-0.592700
N330	N	1.836940	0.212428	-0.259367
H331	H	1.180229	-0.487128	-0.882069
H332	H	1.513562	-0.153794	-0.548735
H333	H	1.846895	0.179539	-0.215402
H334	H	1.129076	-0.476093	-0.956664
H335	H	1.462410	-0.142760	-0.623330
H336	H	1.795743	0.190573	-0.289997
N337	N	0.935977	-0.786716	-0.396339
N338	N	1.269311	-0.453383	-0.063006
N339	N	1.602644	-0.120050	0.270327
H340	H	0.902117	-0.830419	-0.388692
H341	H	1.235451	-0.497086	-0.055358
H342	H	1.568784	-0.163753	0.277975
H343	H	0.937308	-0.755853	-0.349886
H344	H	1.270641	-0.422520	-0.016553
H345	H	1.603975	-0.089187	0.316781
H346	H	1.192236	-0.337751	-0.793556
H347	H	1.525569	-0.004417	-0.460222
H348	H	1.858902	0.328916	-0.126889
H349	H	1.165415	-0.434665	-0.792469
H350	H	1.498749	-0.101331	-0.459136
H351	H	1.832082	0.232002	-0.125802
H352	H	0.994478	-0.259069	-0.921237
H353	H	1.327811	0.074264	-0.587904
H354	H	1.661144	0.407598	-0.254570
N355	N	0.972593	-0.257650	-0.787074
N356	N	1.305926	0.075683	-0.453741
N357	N	1.639260	0.409017	-0.120407
H358	H	0.952205	-0.298390	-0.754831
H359	H	1.285539	0.034943	-0.421498
H360	H	1.618872	0.368277	-0.088164
H361	H	0.975845	-0.210414	-0.757570
H362	H	1.309178	0.122920	-0.424236
H363	H	1.642512	0.456253	-0.090903
N364	N	0.642100	-0.256235	-0.453080
N365	N	0.975434	0.077098	-0.119747
N366	N	1.308767	0.410432	0.213586
H367	H	0.675086	-0.296373	-0.473394
H368	H	1.008419	0.036960	-0.140060
H369	H	1.341753	0.370294	0.193273
H370	H	0.599012	-0.248299	-0.487617
H371	H	0.932345	0.085034	-0.154283
H372	H	1.265678	0.418367	0.179050
H373	H	0.507058	-0.472452	-0.400367
H374	H	0.840392	-0.139119	-0.067034
H375	H	1.173725	0.194215	0.266299
N376	N	0.641110	-0.490856	-0.396112
N377	N	0.974443	-0.157522	-0.062779
N378	N	1.307777	0.175811	0.270554
H379	H	0.597736	-0.525049	-0.388086
H380	H	0.931070	-0.191716	-0.054752
H381	H	1.264403	0.141617	0.278581
H382	H	0.672028	-0.509636	-0.438584
H383	H	1.005361	-0.176302	-0.105251
H384	H	1.338694	0.157031	0.228082
H385	H	0.633794	-0.401138	-0.471908
H386	H	0.967128	-0.067805	-0.138575
H387	H	1.300461	0.265529	0.194758
H388	H	0.634944	-0.339594	-0.233959
H389	H	0.968277	-0.006260	0.099375
H390	H	1.301611	0.327073	0.432708
N391	N	0.640495	-0.454432	-0.257316
N392	N	0.973828	-0.121099	0.076017
N393	N	1.307162	0.212235	0.409351
H394	H	0.672764	-0.474832	-0.298000
H395	H	1.006097	-0.141499	0.035334
H396	H	1.339431	0.191834	0.368667
H397	H	0.669989	-0.451056	-0.210080
H398	H	1.003323	-0.117722	0.123253
H399	H	1.336656	0.215611	0.456586
