data_functionalizedCrystal
_audit_creation_method	'MofGen! by Chris Wilmer'
_symmetry_space_group_name_H-M	'P1'
_symmetry_Int_Tables_number	1
_symmetry_cell_setting	triclinic
loop_
_symmetry_equiv_pos_as_xyz
  x,y,z
_cell_length_a	16.625548
_cell_length_b	14.908520
_cell_length_c	14.908694
_cell_angle_alpha	83.255478
_cell_angle_beta	86.683146
_cell_angle_gamma	86.678216
loop_
_atom_site_label
_atom_site_type_symbol
_atom_site_fract_x
_atom_site_fract_y
_atom_site_fract_z
Zn1	Zn	1.240024	0.389847	-0.532578
Zn2	Zn	1.740024	0.889847	-0.032578
Zn3	Zn	1.225219	0.532494	-0.389947
Zn4	Zn	1.725219	1.032494	0.110053
Zn5	Zn	1.097834	0.381153	-0.381234
Zn6	Zn	1.597834	0.881153	0.118766
Zn7	Zn	1.097800	0.541168	-0.541257
Zn8	Zn	1.597800	1.041168	-0.041257
O9	O	1.165219	0.461166	-0.461254
O10	O	1.665219	0.961166	0.038746
O11	O	1.350893	0.408778	-0.513672
O12	O	1.850893	0.908778	-0.013672
O13	O	1.202140	0.505149	-0.262129
O14	O	1.702140	1.005149	0.237871
O15	O	1.122906	0.255642	-0.394032
O16	O	1.622906	0.755642	0.105968
O17	O	1.340016	0.513579	-0.408882
O18	O	1.840016	1.013579	0.091118
O19	O	1.227373	0.262029	-0.505224
O20	O	1.727373	0.762029	-0.005224
O21	O	1.108550	0.393960	-0.255728
O22	O	1.608550	0.893960	0.244272
O23	O	0.984997	0.402372	-0.402447
O24	O	1.484997	0.902372	0.097553
O25	O	1.122847	0.528364	-0.666768
O26	O	1.622847	1.028364	-0.166768
O27	O	0.984971	0.519934	-0.520016
O28	O	1.484971	1.019934	-0.020016
O29	O	1.227339	0.417189	-0.660392
O30	O	1.727339	0.917189	-0.160392
O31	O	1.202106	0.660309	-0.417297
O32	O	1.702106	1.160309	0.082703
O33	O	1.108492	0.666682	-0.528464
O34	O	1.608492	1.166682	-0.028464
C35	C	1.153712	0.696340	-0.474788
C36	C	1.653712	1.196340	0.025212
C37	C	1.148864	0.796950	-0.480608
C38	C	1.648864	1.296950	0.019392
C39	C	0.955728	0.461151	-0.461228
C40	C	1.455728	0.961151	0.038772
C41	C	0.866106	0.461168	-0.461240
C42	C	1.366106	0.961168	0.038760
C43	C	1.176741	0.474714	-0.697340
C44	C	1.676741	0.974714	-0.197340
C45	C	1.181651	0.480488	-0.797946
C46	C	1.681651	0.980488	-0.297946
C47	C	0.537932	0.461176	-0.461279
C48	C	1.037932	0.961176	0.038721
C49	C	0.629240	0.461171	-0.461265
C50	C	1.129240	0.961171	0.038735
C51	C	0.702016	0.461173	-0.461259
C52	C	1.202016	0.961173	0.038741
C53	C	0.793330	0.461167	-0.461246
C54	C	1.293330	0.961167	0.038754
C55	C	1.375529	0.461181	-0.461281
C56	C	1.875529	0.961181	0.038719
C57	C	1.465150	0.461187	-0.461292
C58	C	1.965150	0.961187	0.038708
C59	C	1.176795	0.225075	-0.447688
C60	C	1.676795	0.725075	0.052312
C61	C	1.181727	0.124467	-0.441906
C62	C	1.681727	0.624467	0.058094
C63	C	1.237346	0.979315	-0.375879
C64	C	1.737346	1.479315	0.124121
C65	C	1.232794	1.073847	-0.381345
C66	C	1.732794	1.573847	0.118655
C67	C	1.135212	1.080548	-0.497008
C68	C	1.635212	1.580548	0.002992
C69	C	1.139764	0.986016	-0.491543
C70	C	1.639764	1.486016	0.008457
C71	C	1.190832	0.935402	-0.430975
C72	C	1.690832	1.435402	0.069025
C73	C	1.195380	0.840868	-0.425506
C74	C	1.695380	1.340868	0.074494
C75	C	1.097802	0.847571	-0.541173
C76	C	1.597802	1.347571	-0.041173
C77	C	1.093250	0.942103	-0.546639
C78	C	1.593250	1.442103	-0.046639
C79	C	1.093404	0.375558	-0.980331
C80	C	1.593404	0.875558	-0.480331
C81	C	1.098014	0.380980	-1.074859
C82	C	1.598014	0.880980	-0.574859
C83	C	1.195478	0.496757	-1.081532
C84	C	1.695478	0.996757	-0.581532
C85	C	1.190867	0.491335	-0.987004
C86	C	1.690867	0.991335	-0.487004
C87	C	1.139829	0.430733	-0.936407
C88	C	1.639829	0.930733	-0.436407
C89	C	1.135223	0.425307	-0.841877
C90	C	1.635223	0.925307	-0.341877
C91	C	1.232683	0.541088	-0.848552
C92	C	1.732683	1.041088	-0.348552
C93	C	1.237293	0.546510	-0.943080
C94	C	1.737293	1.046510	-0.443080
C95	C	1.153792	0.447605	-0.226083
C96	C	1.653792	0.947605	0.273917
C97	C	1.149051	0.441576	-0.125463
C98	C	1.649051	0.941576	0.374537
H99	H	1.236959	0.799660	-0.376187
H100	H	1.736959	1.299660	0.123813
H101	H	1.059925	0.811807	-0.586034
H102	H	1.559925	1.311807	-0.086034
H103	H	1.051674	0.983326	-0.595953
H104	H	1.551674	1.483326	-0.095953
H105	H	1.278844	0.595854	-0.984289
H106	H	1.778844	1.095854	-0.484289
O107	O	1.277663	0.594785	-0.805850
O108	O	1.777663	1.094785	-0.305850
C109	C	1.277332	0.710830	-0.706110
C110	C	1.777332	1.210830	-0.206110
C111	C	1.226294	0.650093	-0.754431
C112	C	1.726294	1.150093	-0.254431
H113	H	1.235823	0.755548	-0.664511
H114	H	1.735823	1.255548	-0.164511
H115	H	1.314581	0.755135	-0.758479
H116	H	1.814581	1.255135	-0.258479
H117	H	1.319391	0.666716	-0.659514
H118	H	1.819391	1.166716	-0.159514
H119	H	1.184190	0.694137	-0.801024
H120	H	1.684190	1.194137	-0.301024
H121	H	1.189100	0.605782	-0.702013
H122	H	1.689100	1.105782	-0.202013
H123	H	1.051854	0.326205	-0.939133
H124	H	1.551854	0.826205	-0.439133
O125	O	1.085709	1.129692	-0.555970
O126	O	1.585709	1.629692	-0.055970
C127	C	1.052554	1.167407	-0.711562
C128	C	1.552554	1.667407	-0.211562
C129	C	1.108682	1.111714	-0.644888
C130	C	1.608682	1.611714	-0.144888
H131	H	1.071096	1.152877	-0.783464
H132	H	1.571096	1.652877	-0.283464
H133	H	1.057307	1.242527	-0.706080
H134	H	1.557307	1.742527	-0.206080
H135	H	0.987660	1.147997	-0.694485
H136	H	1.487660	1.647997	-0.194485
H137	H	1.173599	1.131046	-0.661920
H138	H	1.673599	1.631046	-0.161920
H139	H	1.103859	1.036607	-0.650381
H140	H	1.603859	1.536607	-0.150381
H141	H	1.093669	0.375958	-0.800681
H142	H	1.593669	0.875958	-0.300681
H143	H	1.270672	1.109597	-0.336482
H144	H	1.770672	1.609597	0.163518
H145	H	1.060210	0.336051	-1.110618
H146	H	1.560210	0.836051	-0.610618
H147	H	1.237019	0.546109	-1.122745
H148	H	1.737019	1.046109	-0.622745
H149	H	1.278922	0.938104	-0.326557
H150	H	1.778922	1.438104	0.173443
