data_functionalizedCrystal
_audit_creation_method	'MofGen! by Chris Wilmer'
_symmetry_space_group_name_H-M	'P1'
_symmetry_Int_Tables_number	1
_symmetry_cell_setting	triclinic
loop_
_symmetry_equiv_pos_as_xyz
  x,y,z
_cell_length_a	27.732048
_cell_length_b	10.489741
_cell_length_c	8.965430
_cell_angle_alpha	90.005579
_cell_angle_beta	90.005570
_cell_angle_gamma	96.409085
loop_
_atom_site_label
_atom_site_type_symbol
_atom_site_fract_x
_atom_site_fract_y
_atom_site_fract_z
O1	O	0.068188	-1.691044	0.123965
O2	O	0.074589	-1.319567	0.123990
O3	O	0.001065	-1.516842	0.123949
O4	O	0.141713	-1.493768	0.124007
O5	O	0.001067	-1.516851	-0.124130
O6	O	0.074591	-1.319576	-0.124089
O7	O	0.068191	-1.691053	-0.124113
Cu8	Cu	0.071391	-1.505315	-0.146753
Cu9	Cu	0.071389	-1.505304	0.146629
O10	O	0.141715	-1.493777	-0.124072
C11	C	0.074107	-1.272061	-0.000046
C12	C	0.072661	-1.130495	-0.000038
C13	C	-0.016944	-1.516363	-0.000095
C14	C	-0.070608	-1.514904	-0.000107
N15	N	0.071393	-1.505332	-0.353102
C16	C	-0.408745	-1.622299	-0.000038
C17	C	-0.610439	-1.616888	-0.000016
O18	O	-0.641075	-1.715093	0.000042
N19	N	-0.630301	-1.499911	-0.000010
C20	C	-0.599736	-1.384279	0.000001
O21	O	-0.621258	-1.284660	0.000022
C22	C	-0.398044	-1.389692	-0.000010
C23	C	-0.378184	-1.506676	-0.000031
C24	C	-0.388886	-1.739274	-0.000058
C25	C	-0.338465	-1.740625	-0.000071
C26	C	-0.307904	-1.625002	-0.000064
C27	C	-0.327764	-1.508028	-0.000045
C28	C	-0.367480	-1.274062	0.000012
C29	C	-0.317054	-1.275425	0.000013
C30	C	-0.297195	-1.392409	-0.000008
C31	C	-0.246783	-1.393757	-0.000052
N32	N	-0.226920	-1.510733	-0.000058
C33	C	-0.257481	-1.626356	-0.000064
C34	C	-0.705628	-1.381446	0.000003
C35	C	-0.756051	-1.380092	0.000003
C36	C	-0.766751	-1.612701	-0.000011
C37	C	-0.716327	-1.614053	-0.000022
C38	C	-0.685766	-1.498422	-0.000003
C39	C	-0.151594	-1.629186	-0.000094
C40	C	-0.101169	-1.630527	-0.000113
C41	C	-0.090474	-1.397919	-0.000091
C42	C	-0.140895	-1.396577	-0.000079
C43	C	-0.171454	-1.512221	-0.000076
O44	O	-0.216118	-1.295604	-0.000093
O45	O	-0.235950	-1.725961	-0.000053
C46	C	-0.459166	-1.620947	-0.000024
C47	C	-0.479025	-1.503973	-0.000004
C48	C	-0.448464	-1.388350	0.000002
C49	C	-0.529448	-1.502619	-0.000004
C50	C	-0.560009	-1.618242	-0.000011
C51	C	-0.540147	-1.735219	-0.000017
C52	C	-0.489727	-1.736570	-0.000031
C53	C	-0.468327	-1.271374	0.000009
C54	C	-0.518748	-1.270032	0.000020
C55	C	-0.549308	-1.385654	0.000014
C56	C	0.159724	-1.494257	-0.000025
C57	C	0.213388	-1.495715	-0.000003
C58	C	0.068673	-1.738559	-0.000074
C59	C	0.070119	-1.880124	-0.000072
C60	C	0.025879	-1.064411	-0.000072
C61	C	0.047977	-0.971308	0.122250
C62	C	0.047990	-0.971351	-0.122336
C63	C	0.094778	-1.039257	0.122385
C64	C	0.094785	-1.039309	-0.122311
C65	C	0.116916	-0.946232	0.000040
C66	C	0.037393	-1.596594	-0.450387
C67	C	0.027604	-1.481529	-0.549788
C68	C	0.081150	-1.620353	-0.549828
C69	C	0.061582	-1.390209	-0.450314
C70	C	0.115148	-1.529108	-0.450345
C71	C	0.105377	-1.413960	-0.549701
N72	N	0.071383	-1.505298	0.352979
H73	H	-0.085003	-1.725793	-0.000135
H74	H	-0.534912	-1.174762	0.000025
H75	H	-0.012578	-1.115791	0.000065
N76	N	0.023159	-0.933561	-0.252074
N77	N	0.018387	-0.817882	-0.273406
H78	H	0.000847	-0.791194	-0.365028
N79	N	-0.437114	-1.153260	0.000036
N80	N	-0.439159	-1.075230	0.104611
H81	H	-0.417117	-0.991805	0.104626
H82	H	0.134128	-1.336684	-0.593034
N83	N	0.165209	-0.882096	0.000185
N84	N	0.178994	-0.807520	0.104301
H85	H	0.213101	-0.762221	0.104419
H86	H	0.114564	-1.069490	-0.225716
H87	H	-0.680750	-1.287280	0.000018
H88	H	-0.009403	-1.461395	-0.593470
H89	H	0.008625	-1.673699	-0.406778
H90	H	-0.176470	-1.723354	-0.000085
N91	N	0.161562	-1.554395	-0.395516
N92	N	0.194595	-1.573407	-0.484929
H93	H	0.227375	-1.591277	-0.446206
H94	H	0.089408	-1.717639	-0.593539
N95	N	0.023157	-0.933469	0.251980
N96	N	0.038672	-0.956555	0.378932
H97	H	0.021143	-0.929835	0.470553
N98	N	-0.318185	-1.860124	-0.000104
N99	N	-0.327408	-1.937851	-0.104678
H100	H	-0.313088	-2.022254	-0.104700
N101	N	-0.420091	-1.857402	-0.000054
N102	N	-0.402343	-1.961824	-0.000066
H103	H	-0.424379	-2.045262	-0.000072
N104	N	-0.696051	-1.733560	-0.000051
N105	N	-0.723349	-1.836779	-0.000068
H106	H	-0.709033	-1.921187	-0.000088
H107	H	-0.772216	-1.284832	-0.000005
N108	N	0.051173	-1.268141	-0.395699
N109	N	0.049481	-1.248470	-0.258385
H110	H	0.042129	-1.162262	-0.219808
H111	H	-0.292173	-1.181262	0.000031
N112	N	0.119602	-1.076804	0.252249
N113	N	0.157040	-1.132050	0.238898
H114	H	0.174575	-1.158565	0.330611
N115	N	-0.797980	-1.730797	-0.000030
N116	N	-0.842998	-1.729557	-0.000030
H117	H	-0.865056	-1.812957	-0.000037
N118	N	-0.387756	-1.154562	0.000020
N119	N	-0.378541	-1.076834	-0.104534
H120	H	-0.392860	-0.992429	-0.104526
H121	H	-0.157065	-1.301319	-0.000103
H122	H	-0.065582	-1.303782	-0.000091
H123	H	-0.473562	-1.831831	-0.000048
H124	H	-0.565039	-1.829363	-0.000029
