data_functionalizedCrystal
_audit_creation_method	'MofGen! by Chris Wilmer'
_symmetry_space_group_name_H-M	'P1'
_symmetry_Int_Tables_number	1
_symmetry_cell_setting	triclinic
loop_
_symmetry_equiv_pos_as_xyz
  x,y,z
_cell_length_a	14.519709
_cell_length_b	15.944493
_cell_length_c	12.996460
_cell_angle_alpha	89.999729
_cell_angle_beta	90.000034
_cell_angle_gamma	83.577594
loop_
_atom_site_label
_atom_site_type_symbol
_atom_site_fract_x
_atom_site_fract_y
_atom_site_fract_z
O1	O	1.223651	0.110112	-0.085419
O2	O	0.955148	0.123079	-0.085449
O3	O	1.096760	-0.005672	-0.085442
O4	O	1.082040	0.238863	-0.085426
O5	O	1.096745	-0.005679	0.085692
O6	O	0.955134	0.123072	0.085685
O7	O	1.223636	0.110105	0.085715
Cu8	Cu	1.089384	0.116588	0.101326
Cu9	Cu	1.089401	0.116596	-0.101060
O10	O	1.082025	0.238856	0.085708
C11	C	0.920783	0.122471	0.000114
C12	C	0.818405	0.120660	0.000102
C13	C	0.443522	0.113994	0.000148
C14	C	0.547826	0.115845	0.000135
C15	C	0.630960	0.117327	0.000124
C16	C	0.735271	0.119178	0.000113
C17	C	1.096151	-0.036971	0.000121
C18	C	1.094347	-0.130222	0.000107
C19	C	1.177703	-0.365861	0.000136
C20	C	1.132759	-0.416491	-0.084246
C21	C	1.091005	-0.300948	0.000120
C22	C	1.132725	-0.416474	0.084478
C23	C	1.087783	-0.465863	0.000136
C24	C	1.046085	-0.350350	-0.084332
C25	C	1.046063	-0.350330	0.084468
C26	C	1.001056	-0.400926	0.000065
C27	C	1.092863	-0.205946	0.000109
C28	C	1.085918	-0.560862	0.000139
C29	C	1.258002	0.110713	0.000150
C30	C	1.360380	0.112524	0.000155
C31	C	1.082634	0.270155	0.000143
C32	C	1.084438	0.363406	0.000149
N33	N	1.089378	0.116581	0.243673
N34	N	1.089414	0.116596	-0.243407
C35	C	1.089400	0.116597	0.663487
C36	C	1.089391	0.116596	0.546682
C37	C	1.089389	0.116590	0.453584
C38	C	1.089380	0.116587	0.336771
H39	H	1.169379	-0.445381	-0.155578
N40	N	0.902070	-0.421585	0.000003
H41	H	0.901391	-0.484855	0.000613
H42	H	0.869123	-0.396397	0.063119
H43	H	1.009498	-0.321580	-0.155747
N44	N	0.997593	-0.312038	0.178954
H45	H	1.030411	-0.336208	0.242665
H46	H	0.998676	-0.248821	0.177792
H47	H	1.169350	-0.445355	0.155812
H48	H	1.252382	-0.350125	0.000060
