data_functionalizedCrystal
_audit_creation_method	'MofGen! by Chris Wilmer'
_symmetry_space_group_name_H-M	'P1'
_symmetry_Int_Tables_number	1
_symmetry_cell_setting	triclinic
loop_
_symmetry_equiv_pos_as_xyz
  x,y,z
_cell_length_a	17.699097
_cell_length_b	14.971494
_cell_length_c	13.448316
_cell_angle_alpha	89.995115
_cell_angle_beta	89.989643
_cell_angle_gamma	83.452994
loop_
_atom_site_label
_atom_site_type_symbol
_atom_site_fract_x
_atom_site_fract_y
_atom_site_fract_z
O1	O	1.004353	0.113169	-0.082771
O2	O	0.784013	0.127872	-0.082754
O3	O	0.900085	-0.009699	-0.082761
O4	O	0.888281	0.250740	-0.082764
O5	O	0.900071	-0.009707	0.082623
O6	O	0.783998	0.127864	0.082630
O7	O	1.004339	0.113160	0.082613
Cu8	Cu	0.894167	0.120511	0.097722
Cu9	Cu	0.894184	0.120521	-0.097863
O10	O	0.888266	0.250732	0.082620
C11	C	0.755807	0.127339	-0.000060
C12	C	0.671786	0.125753	-0.000054
C13	C	0.899549	-0.043026	-0.000070
C14	C	0.897963	-0.142317	-0.000075
C15	C	0.897228	-0.188955	-0.090226
C16	C	0.895734	-0.282249	-0.090228
C17	C	0.894980	-0.328905	-0.000076
C18	C	0.895713	-0.282260	0.090083
C19	C	0.897202	-0.188967	0.090083
C20	C	0.892611	-0.476713	0.090076
C21	C	0.891123	-0.570012	0.090077
C22	C	0.891143	-0.569995	-0.090234
C23	C	0.892632	-0.476702	-0.090234
C24	C	0.893366	-0.430064	-0.000075
C25	C	0.156051	0.116032	-0.090245
C26	C	0.234999	0.117516	-0.090240
C27	C	0.274459	0.118256	-0.000085
C28	C	0.234968	0.117501	0.090071
C29	C	0.156022	0.116010	0.090065
C30	C	0.553347	0.123513	0.090097
C31	C	0.632298	0.125007	0.090096
C32	C	0.632324	0.125020	-0.090208
C33	C	0.553378	0.123529	-0.090214
C34	C	0.513895	0.122769	-0.000058
C35	C	0.428291	0.121158	-0.000065
C36	C	0.360061	0.119874	-0.000077
C37	C	1.032544	0.113693	-0.000083
C38	C	1.116565	0.115280	-0.000096
C39	C	0.888802	0.284059	-0.000073
C40	C	0.890388	0.383350	-0.000075
N41	N	0.894160	0.120504	0.235287
N42	N	0.894197	0.120522	-0.235428
C43	C	0.945573	0.059612	0.287324
C44	C	0.945578	0.059611	0.391427
C45	C	0.894173	0.120507	0.443491
C46	C	0.842754	0.181402	0.391446
C47	C	0.842747	0.181398	0.287345
C48	C	0.842775	0.181408	0.608426
C49	C	0.842784	0.181413	0.712535
C50	C	0.945607	0.059621	0.712509
C51	C	0.945599	0.059617	0.608407
C52	C	0.894181	0.120513	0.556370
H53	H	0.895138	-0.320218	-0.163638
H54	H	0.267103	0.118097	0.163476
O55	O	0.117844	0.115280	-0.177912
C56	C	0.169626	0.116285	-0.257477
H57	H	0.229003	0.089037	-0.231042
H58	H	0.170156	0.188175	-0.285194
C59	C	0.072339	0.090543	-0.375126
C60	C	0.145265	0.057070	-0.342660
H61	H	0.057310	0.054021	-0.427673
H62	H	0.037451	0.089870	-0.321522
H63	H	0.072790	0.150451	-0.398216
H64	H	0.144811	-0.002832	-0.319558
H65	H	0.180152	0.057732	-0.396262
H66	H	0.664481	0.125634	-0.163616
O67	O	0.670519	0.125676	0.177767
C68	C	0.618740	0.124705	0.257340
H69	H	0.565575	0.095339	0.230909
H70	H	0.602466	0.196272	0.285070
C71	C	0.721277	0.102709	0.374970
C72	C	0.655982	0.066633	0.342509
H73	H	0.744250	0.066891	0.427508
H74	H	0.756162	0.103366	0.321361
H75	H	0.707707	0.162347	0.398071
H76	H	0.669554	0.007001	0.319397
H77	H	0.621100	0.065965	0.396116
H78	H	0.893251	-0.438718	-0.163644
H79	H	0.987436	0.010027	0.244940
H80	H	0.987460	0.010036	0.566017
H81	H	0.897846	-0.150975	-0.163639
H82	H	0.521210	0.122882	0.163507
O83	O	0.890294	-0.615305	-0.177795
C84	C	0.823945	-0.659019	-0.183197
H85	H	0.778604	-0.623738	-0.132037
H86	H	0.837619	-0.732050	-0.158988
C87	C	0.849932	-0.699107	-0.353745
C88	C	0.794241	-0.655770	-0.290915
H89	H	0.831611	-0.697107	-0.420190
H90	H	0.894634	-0.669660	-0.350105
H91	H	0.861322	-0.759963	-0.333559
H92	H	0.782859	-0.594913	-0.311094
H93	H	0.749536	-0.685207	-0.294560
O94	O	0.893342	-0.431549	0.177745
C95	C	0.892333	-0.492727	0.257317
H96	H	0.915229	-0.562980	0.230893
H97	H	0.831496	-0.493148	0.285024
C98	C	0.914364	-0.377801	0.374957
C99	C	0.942490	-0.464085	0.342505
H100	H	0.945300	-0.360132	0.427507
H101	H	0.915040	-0.336582	0.321349
H102	H	0.863667	-0.378163	0.398040
H103	H	0.993183	-0.463719	0.319411
H104	H	0.941823	-0.505303	0.396111
O105	O	0.897939	-0.143802	0.177746
C106	C	0.896931	-0.204981	0.257317
H107	H	0.919826	-0.275233	0.230893
H108	H	0.836094	-0.205402	0.285024
C109	C	0.918961	-0.090054	0.374957
C110	C	0.947088	-0.176338	0.342505
H111	H	0.949897	-0.072385	0.427508
H112	H	0.919637	-0.048836	0.321350
H113	H	0.868264	-0.090416	0.398040
H114	H	0.997780	-0.175972	0.319412
H115	H	0.946420	-0.217556	0.396111
H116	H	0.890503	-0.607996	0.163486
O117	O	0.273422	0.118373	-0.177749
C118	C	0.310575	0.196680	-0.183151
H119	H	0.319562	0.222709	-0.104874
H120	H	0.274204	0.250336	-0.227634
C121	C	0.377114	0.142610	-0.330840
C122	C	0.388158	0.174574	-0.234699
H123	H	0.424969	0.128976	-0.362641
H124	H	0.352082	0.089854	-0.327204
H125	H	0.346803	0.187328	-0.367897
H126	H	0.418461	0.129853	-0.197641
H127	H	0.413197	0.227322	-0.238330
O128	O	0.117776	0.115323	0.177724
C129	C	0.169533	0.116273	0.257300
H130	H	0.222705	0.145647	0.230876
H131	H	0.185799	0.044700	0.285017
C132	C	0.066963	0.138238	0.374929
C133	C	0.132267	0.174323	0.342478
H134	H	0.043976	0.174041	0.427474
H135	H	0.032093	0.137594	0.321319
H136	H	0.080528	0.078594	0.398021
H137	H	0.118700	0.233960	0.319376
H138	H	0.167134	0.174977	0.396087
O139	O	0.995602	0.000437	0.441822
C140	C	1.040966	-0.053318	0.373546
H141	H	1.041837	-0.016650	0.299332
H142	H	1.016347	-0.119739	0.362499
C143	C	1.121530	-0.116881	0.505292
C144	C	1.122605	-0.071841	0.414143
H145	H	1.171888	-0.128311	0.530335
H146	H	1.090966	-0.080668	0.551292
H147	H	1.101010	-0.172227	0.496074
H148	H	1.143115	-0.016491	0.423366
H149	H	1.153174	-0.108045	0.368146
O150	O	0.995524	0.000342	0.762940
C151	C	0.983138	-0.088188	0.737534
H152	H	0.953957	-0.088039	0.661962
H153	H	0.945452	-0.115803	0.796143
C154	C	1.095774	-0.147975	0.825515
C155	C	1.059939	-0.147794	0.732692
H156	H	1.143147	-0.184745	0.822532
H157	H	1.104118	-0.088332	0.842635
H158	H	1.064361	-0.170985	0.874345
H159	H	1.091348	-0.124774	0.683866
H160	H	1.051602	-0.207435	0.715564
H161	H	0.895094	-0.320254	0.163486
O162	O	0.792739	0.240465	0.763073
C163	C	0.717809	0.226025	0.737653
H164	H	0.717387	0.154413	0.709034
H165	H	0.695604	0.275637	0.677238
C166	C	0.667044	0.327927	0.865305
C167	C	0.666525	0.239969	0.830162
H168	H	0.635408	0.336531	0.922367
H169	H	0.717525	0.337658	0.882429
H170	H	0.648542	0.369259	0.814951
H171	H	0.685036	0.198638	0.880511
H172	H	0.616045	0.230231	0.813049
H173	H	0.521253	0.122931	-0.163627
H174	H	0.800903	0.230993	0.566061
H175	H	0.800896	0.230981	0.433843
H176	H	0.800880	0.230981	0.244977
