data_functionalizedCrystal
_audit_creation_method	'MofGen! by Chris Wilmer'
_symmetry_space_group_name_H-M	'P1'
_symmetry_Int_Tables_number	1
_symmetry_cell_setting	triclinic
loop_
_symmetry_equiv_pos_as_xyz
  x,y,z
_cell_length_a	10.065918
_cell_length_b	16.992694
_cell_length_c	16.974813
_cell_angle_alpha	92.975366
_cell_angle_beta	103.455396
_cell_angle_gamma	80.737870
loop_
_atom_site_label
_atom_site_type_symbol
_atom_site_fract_x
_atom_site_fract_y
_atom_site_fract_z
O1	O	0.133260	-1.052249	0.180554
O2	O	0.133095	-0.823950	0.178699
O3	O	0.120365	-0.943306	0.063685
O4	O	0.145990	-0.932893	0.295569
O5	O	-0.109076	-0.922569	0.041461
O6	O	-0.096345	-0.803214	0.156476
O7	O	-0.096180	-1.031512	0.158331
Zn8	Zn	-0.132691	-0.914071	0.153875
Zn9	Zn	0.169606	-0.941392	0.183155
O10	O	-0.083450	-0.912157	0.273345
C11	C	0.018116	-0.784349	0.165196
C12	C	0.017343	-0.697242	0.158062
C13	C	0.002354	-0.932156	0.022765
C14	C	-0.007452	-0.929818	-0.066053
N15	N	-0.339002	-0.895430	0.133891
C16	C	-0.560973	-0.920568	0.160822
C17	C	-0.402108	-0.934907	0.176209
N18	N	0.375916	-0.960038	0.203133
C19	C	0.018802	-1.071114	0.171834
C20	C	0.019584	-1.158221	0.178969
C21	C	0.024951	-0.647616	0.226914
C22	C	0.024191	-0.565768	0.220203
C23	C	0.015832	-0.533549	0.144639
C24	C	0.008220	-0.583181	0.075781
C25	C	0.008970	-0.665027	0.082492
C26	C	0.012722	-0.289699	0.116823
C27	C	0.011976	-0.207848	0.110117
C28	C	0.027944	-0.190440	0.254539
C29	C	0.028703	-0.272288	0.261245
C30	C	0.021083	-0.321913	0.192386
N31	N	0.015059	-0.449887	0.137777
N32	N	0.021846	-0.405572	0.199248
C33	C	0.113009	-0.940025	-0.095662
C34	C	0.103791	-0.937823	-0.179116
C35	C	-0.025888	-0.925419	-0.232961
C36	C	-0.146358	-0.915209	-0.203347
C37	C	-0.137139	-0.917406	-0.119894
C38	C	-0.066872	-0.917632	-0.483849
C39	C	-0.076082	-0.915439	-0.567307
C40	C	0.174068	-0.938051	-0.543070
C41	C	0.183276	-0.940251	-0.459617
C42	C	0.062807	-0.930037	-0.430010
N43	N	-0.035313	-0.923171	-0.318265
N44	N	0.072233	-0.932280	-0.344707
C45	C	0.034564	-0.923307	0.314265
C46	C	0.044379	-0.925645	0.403084
H47	H	-0.624554	-0.876163	0.113203
H48	H	0.201883	-0.946138	-0.203218
H49	H	0.006516	-0.330095	0.060753
H50	H	-0.402575	-0.851020	0.086272
H51	H	0.288875	-0.950352	-0.415781
H52	H	-0.338533	-0.979320	0.223825
H53	H	0.272147	-0.946365	-0.567185
H54	H	-0.560504	-1.004449	0.250746
H55	H	0.218608	-0.950129	-0.051826
H56	H	-0.164967	-0.909331	-0.459755
H57	H	0.031759	-0.673842	0.288446
H58	H	0.002776	-0.705433	0.026425
H59	H	-0.181688	-0.905334	-0.611147
H60	H	0.005170	-0.181619	0.048581
H61	H	0.030388	-0.525365	0.276270
H62	H	0.035525	-0.298516	0.322778
H63	H	0.034145	-0.150027	0.310599
H64	H	0.001394	-0.556940	0.014253
H65	H	-0.251946	-0.905106	-0.247194
H66	H	-0.235231	-0.909084	-0.095788
