data_functionalizedCrystal
_audit_creation_method	'MofGen! by Chris Wilmer'
_symmetry_space_group_name_H-M	'P1'
_symmetry_Int_Tables_number	1
_symmetry_cell_setting	triclinic
loop_
_symmetry_equiv_pos_as_xyz
  x,y,z
_cell_length_a	16.120530
_cell_length_b	29.839131
_cell_length_c	29.839125
_cell_angle_alpha	89.982291
_cell_angle_beta	87.091446
_cell_angle_gamma	87.136742
loop_
_atom_site_label
_atom_site_type_symbol
_atom_site_fract_x
_atom_site_fract_y
_atom_site_fract_z
Zn1	Zn	1.274353	-0.213793	-0.288785
Zn2	Zn	1.274227	-0.288901	-0.213652
Zn3	Zn	1.134957	-0.209975	-0.209863
Zn4	Zn	1.134860	-0.285079	-0.284949
O5	O	1.204599	-0.249437	-0.249312
O6	O	1.390999	-0.226954	-0.282009
O7	O	1.255740	-0.278433	-0.150282
O8	O	1.153541	-0.147616	-0.220352
O9	O	1.390907	-0.282136	-0.226809
O10	O	1.255955	-0.150422	-0.278336
O11	O	1.153419	-0.220446	-0.147498
O12	O	1.018281	-0.216740	-0.216633
O13	O	1.153376	-0.275621	-0.348326
O14	O	1.018210	-0.271918	-0.271798
O15	O	1.255861	-0.223247	-0.351144
O16	O	1.255646	-0.351259	-0.223090
O17	O	1.153254	-0.348450	-0.275472
C18	C	0.987996	-0.243500	-0.243389
C19	C	0.895332	-0.240971	-0.240865
C20	C	0.725674	-0.236344	-0.236262
C21	C	0.684364	-0.262563	-0.262396
C22	C	0.589961	-0.259988	-0.259834
C23	C	0.820086	-0.238918	-0.238823
C24	C	1.204448	-0.366155	-0.249286
C25	C	1.204460	-0.416090	-0.249292
C26	C	1.258012	-0.727189	-0.222082
C27	C	1.258114	-0.914865	-0.222102
O28	O	1.303526	-0.940365	-0.198946
N29	N	1.204772	-0.936884	-0.249351
C30	C	1.151404	-0.911980	-0.276599
O31	O	1.106041	-0.935014	-0.299780
C32	C	1.151306	-0.724305	-0.276581
C33	C	1.204646	-0.702289	-0.249327
C34	C	1.311348	-0.705173	-0.194830
C35	C	1.311319	-0.658257	-0.194823
C36	C	1.257953	-0.633357	-0.222068
C37	C	1.204616	-0.655373	-0.249320
C38	C	1.097942	-0.699402	-0.303831
C39	C	1.097924	-0.652481	-0.303825
C40	C	1.151264	-0.630465	-0.276571
C41	C	1.151221	-0.583556	-0.276559
N42	N	1.204563	-0.561538	-0.249309
C43	C	1.257929	-0.586438	-0.222064
C44	C	1.151458	-1.010512	-0.276606
C45	C	1.151481	-1.057430	-0.276610
C46	C	1.258193	-1.060313	-0.222113
C47	C	1.258165	-1.013393	-0.222107
C48	C	1.204800	-0.988494	-0.249357
C49	C	1.257863	-0.487911	-0.222052
C50	C	1.257826	-0.440990	-0.222047
C51	C	1.151118	-0.438112	-0.276545
C52	C	1.151151	-0.485029	-0.276549
C53	C	1.204530	-0.509927	-0.249301
O54	O	1.105839	-0.558029	-0.299706
O55	O	1.303298	-0.563396	-0.198894
C56	C	1.258041	-0.774106	-0.222088
C57	C	1.204705	-0.796122	-0.249340
C58	C	1.151339	-0.771221	-0.276585
C59	C	1.204728	-0.843040	-0.249344
C60	C	1.258094	-0.867940	-0.222099
C61	C	1.311436	-0.845922	-0.194850
C62	C	1.311407	-0.799006	-0.194843
C63	C	1.097996	-0.793240	-0.303834
C64	C	1.098029	-0.840156	-0.303838
C65	C	1.151395	-0.865056	-0.276593
C66	C	1.422048	-0.255397	-0.255259
C67	C	1.514712	-0.257937	-0.257794
C68	C	1.204622	-0.249433	-0.366491
C69	C	1.204631	-0.249432	-0.416426
C70	C	1.204773	-0.132263	-0.249349
C71	C	1.204847	-0.082331	-0.249365
C72	C	1.258051	-0.222087	-0.727541
C73	C	1.258092	-0.222050	-0.915216
O74	O	1.303450	-0.198842	-0.940730
N75	N	1.204742	-0.249315	-0.937214
C76	C	1.151373	-0.276588	-0.912291
O77	O	1.105990	-0.299774	-0.935309
C78	C	1.151328	-0.276623	-0.724618
C79	C	1.204688	-0.249360	-0.702622
C80	C	1.311406	-0.194826	-0.705545
C81	C	1.311399	-0.194838	-0.658630
C82	C	1.258036	-0.222110	-0.633710
C83	C	1.204681	-0.249371	-0.655706
C84	C	1.097956	-0.303893	-0.699696
C85	C	1.097948	-0.303899	-0.652774
C86	C	1.151308	-0.276636	-0.630778
C87	C	1.151310	-0.276655	-0.583871
N88	N	1.204661	-0.249390	-0.561872
C89	C	1.258024	-0.222118	-0.586792
C90	C	1.151402	-0.276569	-1.010823
C91	C	1.151414	-0.276561	-1.057741
C92	C	1.258132	-0.222022	-1.060662
C93	C	1.258124	-0.222033	-1.013743
C94	C	1.204752	-0.249304	-0.988824
C95	C	1.258004	-0.222144	-0.488265
C96	C	1.257994	-0.222159	-0.441346
C97	C	1.151273	-0.276696	-0.438429
C98	C	1.151285	-0.276683	-0.485344
C99	C	1.204654	-0.249403	-0.510262
O100	O	1.105970	-0.299848	-0.558328
O101	O	1.303387	-0.198928	-0.563766
C102	C	1.258059	-0.222076	-0.774457
C103	C	1.204704	-0.249337	-0.796453
C104	C	1.151341	-0.276609	-0.771534
C105	C	1.204716	-0.249329	-0.843371
C106	C	1.258079	-0.222057	-0.868291
C107	C	1.311429	-0.194792	-0.846292
C108	C	1.311422	-0.194803	-0.799377
C109	C	1.097990	-0.303874	-0.793532
C110	C	1.098003	-0.303861	-0.840448
C111	C	1.151366	-0.276588	-0.865368
C112	C	1.204625	-0.249409	-0.132591
C113	C	1.204777	-0.249288	-0.082661
H114	H	0.690143	-0.211966	-0.211966
O115	O	1.363304	-0.777695	-0.168358
C116	C	1.410391	-0.809741	-0.144307
H117	H	1.413263	-0.843253	-0.162795
H118	H	1.476079	-0.797954	-0.141338
H119	H	1.379910	-0.813929	-0.109341
H120	H	1.301262	-0.423067	-0.199851
O121	O	0.726838	-0.291592	-0.291406
C122	C	0.777246	-0.267409	-0.321820
H123	H	0.790220	-0.233685	-0.306385
H124	H	0.838502	-0.287357	-0.329435
H125	H	0.743780	-0.261631	-0.354232
H126	H	1.354887	-0.866204	-0.172664
O127	O	1.309738	-0.512024	-0.195541
C128	C	1.356816	-0.482524	-0.171497
H129	H	1.322644	-0.448165	-0.168995
H130	H	1.365761	-0.496329	-0.136349
H131	H	1.420109	-0.479222	-0.189705
O132	O	1.309888	-0.195710	-0.512517
C133	C	1.363718	-0.222756	-0.541117
H134	H	1.334264	-0.255991	-0.547343
H135	H	1.374934	-0.204753	-0.574415
H136	H	1.425484	-0.229393	-0.524720
H137	H	1.354848	-0.172636	-0.640725
O138	O	1.363286	-0.168395	-0.729800
C139	C	1.417120	-0.195441	-0.758397
H140	H	1.387669	-0.228677	-0.764623
H141	H	1.428337	-0.177440	-0.791696
H142	H	1.478885	-0.202076	-0.741999
O143	O	1.363384	-0.168349	-0.870487
C144	C	1.446461	-0.180435	-0.861291
H145	H	1.450625	-0.216440	-0.848501
H146	H	1.487651	-0.177688	-0.893277
H147	H	1.468288	-0.156949	-0.834661
O148	O	1.046086	-0.330314	-0.721107
C149	C	0.992268	-0.303259	-0.746771
H150	H	1.021721	-0.270020	-0.754612
H151	H	0.981076	-0.321248	-0.779454
H152	H	0.930490	-0.296633	-0.727000
H153	H	1.301573	-0.199832	-0.995837
H154	H	1.354755	-0.640335	-0.172632
O155	O	1.363217	-0.729289	-0.168319
C156	C	1.410295	-0.699787	-0.144278
H157	H	1.376126	-0.665428	-0.141779
H158	H	1.419239	-0.713589	-0.109128
H159	H	1.473590	-0.696488	-0.162486
H160	H	1.301600	-0.995471	-0.199915
H161	H	1.301646	-1.080594	-0.199929
H162	H	1.108038	-1.075351	-0.298799
O163	O	1.099570	-0.986277	-0.303012
C164	C	1.045728	-0.957712	-0.275936
H165	H	1.075176	-0.951481	-0.242710
H166	H	1.034505	-0.924414	-0.293924
H167	H	0.983967	-0.974142	-0.269281
O168	O	1.046103	-0.720711	-0.330350
C169	C	0.998993	-0.688663	-0.354386
H170	H	1.033128	-0.656135	-0.356879
H171	H	0.990066	-0.701958	-0.389539
H172	H	0.935693	-0.681981	-0.336179
H173	H	1.054469	-0.632210	-0.326017
H174	H	1.107719	-0.502955	-0.298743
H175	H	1.301583	-0.199816	-1.080960
O176	O	1.099404	-0.413901	-0.303062
C177	C	1.146831	-0.388014	-0.333379
H178	H	1.212492	-0.403919	-0.337976
H179	H	1.116643	-0.386651	-0.367116
H180	H	1.149710	-0.352541	-0.319561
O181	O	1.099508	-0.303060	-1.079034
C182	C	1.052424	-0.327139	-1.046973
H183	H	1.049563	-0.308663	-1.013453
H184	H	0.986732	-0.330128	-1.058729
H185	H	1.082901	-0.362095	-1.042811
O186	O	1.046183	-0.861469	-0.330356
C187	C	0.999065	-0.829424	-0.354392
H188	H	1.033193	-0.796894	-0.356886
H189	H	0.990140	-0.842721	-0.389545
H190	H	0.935765	-0.822746	-0.336184
O191	O	1.099672	-0.303090	-0.986575
C192	C	1.147082	-0.333422	-0.960737
H193	H	1.210279	-0.319310	-0.955429
H194	H	1.113097	-0.338524	-0.926819
H195	H	1.156205	-0.366958	-0.979069
H196	H	1.054540	-0.772969	-0.326021
O197	O	1.309855	-0.195632	-0.420049
C198	C	1.356967	-0.171567	-0.452109
H199	H	1.322824	-0.169069	-0.484619
H200	H	1.365911	-0.136418	-0.438802
H201	H	1.420260	-0.189752	-0.458830
O202	O	1.046085	-0.330439	-0.628638
C203	C	0.998985	-0.354491	-0.658117
H204	H	1.033135	-0.356967	-0.692497
H205	H	0.990048	-0.389648	-0.644319
H206	H	0.935689	-0.336308	-0.661373
O207	O	1.099380	-0.303181	-0.506643
C208	C	1.052300	-0.327266	-0.474585
H209	H	1.049440	-0.308795	-0.441063
H210	H	0.986608	-0.330254	-0.486341
H211	H	1.082779	-0.362222	-0.470429
O212	O	1.099559	-0.303212	-0.414167
C213	C	1.146985	-0.333537	-0.388330
H214	H	1.210190	-0.319426	-0.383042
H215	H	1.113025	-0.338626	-0.354402
H216	H	1.156088	-0.367079	-0.406651
H217	H	1.354873	-0.172603	-0.781472
O218	O	1.046206	-0.330411	-0.861762
C219	C	1.064368	-0.375688	-0.850797
H220	H	1.096420	-0.377504	-0.817611
H221	H	1.004167	-0.394180	-0.847536
H222	H	1.107200	-0.391991	-0.878376
H223	H	1.054536	-0.326084	-0.773247
