data_functionalizedCrystal
_audit_creation_method	'MofGen! by Chris Wilmer'
_symmetry_space_group_name_H-M	'P1'
_symmetry_Int_Tables_number	1
_symmetry_cell_setting	triclinic
loop_
_symmetry_equiv_pos_as_xyz
  x,y,z
_cell_length_a	27.732048
_cell_length_b	8.559649
_cell_length_c	7.681187
_cell_angle_alpha	94.922842
_cell_angle_beta	84.321688
_cell_angle_gamma	76.210660
loop_
_atom_site_label
_atom_site_type_symbol
_atom_site_fract_x
_atom_site_fract_y
_atom_site_fract_z
O1	O	-0.639420	-0.175072	0.146201
O2	O	-0.497620	-0.204001	0.146254
O3	O	-0.581013	0.043373	0.146221
O4	O	-0.556027	-0.422447	0.146234
O5	O	-0.570735	0.012882	-0.146645
O6	O	-0.487342	-0.234493	-0.146613
O7	O	-0.629143	-0.205563	-0.146665
Zn8	Zn	-0.556611	-0.224869	-0.193138
Zn9	Zn	-0.570152	-0.184696	0.192726
O10	O	-0.545750	-0.452938	-0.146632
C11	C	-0.474496	-0.218639	-0.000173
C12	C	-0.420905	-0.216808	-0.000153
C13	C	-0.577767	0.087704	-0.000209
C14	C	-0.583404	0.265224	-0.000202
C15	C	-0.652267	-0.190925	-0.000235
C16	C	-0.705858	-0.192755	-0.000243
C17	C	-0.077392	-0.351486	-0.000225
C18	C	0.124031	-0.344701	-0.000241
O19	O	0.159583	-0.467855	-0.000314
N20	N	0.138041	-0.198017	-0.000242
C21	C	0.101691	-0.053019	-0.000250
O22	O	0.118230	0.071899	-0.000270
C23	C	-0.099731	-0.059806	-0.000247
C24	C	-0.113738	-0.206498	-0.000228
C25	C	-0.091400	-0.498166	-0.000208
C26	C	-0.141754	-0.499860	-0.000195
C27	C	-0.178099	-0.354872	-0.000198
C28	C	-0.164091	-0.208192	-0.000215
C29	C	-0.136079	0.085189	-0.000268
C30	C	-0.186436	0.083478	-0.000272
C31	C	-0.200443	-0.063214	-0.000253
C32	C	-0.250790	-0.064898	-0.000204
N33	N	-0.264800	-0.211583	-0.000204
C34	C	-0.228454	-0.356570	-0.000200
C35	C	0.207442	-0.049465	-0.000249
C36	C	0.257797	-0.047768	-0.000246
C37	C	0.280133	-0.339452	-0.000240
C38	C	0.229777	-0.341146	-0.000230
C39	C	0.193432	-0.196150	-0.000248
C40	C	-0.334201	-0.360115	-0.000170
C41	C	-0.384560	-0.361795	-0.000149
C42	C	-0.406891	-0.070113	-0.000165
C43	C	-0.356537	-0.068432	-0.000176
C44	C	-0.320192	-0.213446	-0.000185
O45	O	-0.286367	0.058188	-0.000151
O46	O	-0.245002	-0.481474	-0.000220
C47	C	-0.027039	-0.349792	-0.000239
C48	C	-0.013031	-0.203111	-0.000256
C49	C	-0.049376	-0.058124	-0.000259
C50	C	0.037324	-0.201414	-0.000253
C51	C	0.073669	-0.346401	-0.000250
C52	C	0.059660	-0.493086	-0.000249
C53	C	0.009306	-0.494779	-0.000236
C54	C	-0.035367	0.088560	-0.000260
C55	C	0.014988	0.090242	-0.000271
C56	C	0.051333	-0.054745	-0.000268
C57	C	-0.548995	-0.497269	-0.000198
C58	C	-0.543359	-0.674787	-0.000194
N59	N	-0.547373	-0.252285	-0.456480
N60	N	-0.579394	-0.157267	0.456068
H61	H	-0.395960	-0.481255	-0.000133
Cl62	Cl	-0.496926	-0.401997	-0.572617
Cl63	Cl	-0.288517	-0.542422	-0.000179
H64	H	-0.064955	0.206629	-0.000267
Cl65	Cl	-0.483768	0.194834	-0.000176
H66	H	-0.153153	-0.619311	-0.000179
Cl67	Cl	-0.629839	-0.007531	-0.427787
Cl68	Cl	-0.642997	0.395607	-0.000247
H69	H	-0.061811	-0.616240	-0.000212
Cl70	Cl	-0.338927	0.115982	-0.000208
Cl71	Cl	0.212174	-0.525566	-0.000213
Cl72	Cl	0.161756	0.132836	-0.000266
Cl73	Cl	0.275397	0.136658	-0.000226
H74	H	0.309735	-0.457506	-0.000238
H75	H	-0.216027	0.201555	-0.000288
Cl76	Cl	-0.118484	0.269617	-0.000262
H77	H	-0.436493	0.047932	-0.000161
Cl78	Cl	-0.008294	-0.679203	-0.000214
H79	H	0.089261	-0.611139	-0.000239
H80	H	0.026385	0.209707	-0.000273
