data_functionalizedCrystal
_audit_creation_method	'MofGen! by Chris Wilmer'
_symmetry_space_group_name_H-M	'P1'
_symmetry_Int_Tables_number	1
_symmetry_cell_setting	triclinic
loop_
_symmetry_equiv_pos_as_xyz
  x,y,z
_cell_length_a	12.827893
_cell_length_b	18.101390
_cell_length_c	12.827892
_cell_angle_alpha	89.971254
_cell_angle_beta	90.015362
_cell_angle_gamma	89.982628
loop_
_atom_site_label
_atom_site_type_symbol
_atom_site_fract_x
_atom_site_fract_y
_atom_site_fract_z
Zn1	Zn	1.597651	-0.418716	-0.415989
Zn2	Zn	1.597552	-0.294883	-0.590763
Zn3	Zn	1.422899	-0.294893	-0.416037
Zn4	Zn	1.422879	-0.418688	-0.590689
O5	O	1.510245	-0.356795	-0.503369
O6	O	1.743874	-0.402297	-0.439184
O7	O	1.574350	-0.191252	-0.567636
O8	O	1.446130	-0.311334	-0.269794
O9	O	1.743801	-0.311318	-0.567589
O10	O	1.574520	-0.402306	-0.269759
O11	O	1.446033	-0.191259	-0.439266
O12	O	1.276660	-0.311307	-0.439194
O13	O	1.446096	-0.522324	-0.567463
O14	O	1.276645	-0.402258	-0.567510
O15	O	1.574501	-0.522345	-0.439112
O16	O	1.574331	-0.311291	-0.736989
O17	O	1.445999	-0.402249	-0.736935
C18	C	1.238735	-0.356781	-0.503350
C19	C	1.122582	-0.356792	-0.503367
C20	C	1.070833	-0.401882	-0.439940
C21	C	0.950783	-0.401895	-0.439956
C22	C	1.510307	-0.549957	-0.503274
C23	C	1.510334	-0.632271	-0.503233
C24	C	1.510390	-0.931362	-0.503168
C25	C	1.591445	-0.900050	-0.422697
C26	C	1.591192	-0.814432	-0.422398
C27	C	1.510363	-0.782980	-0.503200
C28	C	1.400266	-0.814054	-0.473281
C29	C	1.400751	-0.899700	-0.472678
C30	C	1.538463	-0.899779	-0.613766
C31	C	1.540879	-0.814129	-0.613202
C32	C	1.510341	-0.699120	-0.503220
C33	C	1.510405	-1.015222	-0.503145
C34	C	1.782815	-0.356809	-0.503389
C35	C	1.898968	-0.356816	-0.503398
C36	C	1.510181	-0.356782	-0.774879
C37	C	1.510249	-0.356801	-0.891032
C38	C	1.510243	-0.164384	-0.503389
C39	C	1.510419	-0.082071	-0.503135
C40	C	1.573821	-0.401876	-1.062760
C41	C	1.573752	-0.401857	-0.942710
C42	C	1.510338	-0.356824	-0.230799
C43	C	1.510378	-0.356837	-0.114646
H44	H	1.672831	-0.793422	-0.441135
H45	H	0.943464	-0.318215	-0.557708
C46	C	0.890665	-0.454044	-0.366589
N47	N	0.845381	-0.493322	-0.311323
C48	C	1.647133	-0.453952	-0.882434
N49	N	1.702408	-0.493190	-0.837031
C50	C	1.131044	-0.454019	-0.366558
N51	N	1.176393	-0.493290	-0.311285
H52	H	1.338303	-0.920412	-0.528739
H53	H	1.338233	-0.793680	-0.530087
C54	C	1.647272	-0.453989	-1.122813
N55	N	1.702597	-0.493242	-1.168043
C56	C	1.062371	-0.304652	-0.576745
N57	N	1.017022	-0.265380	-0.632016
H58	H	1.455925	-0.318243	-0.935646
C59	C	1.650334	-0.786686	-0.643687
N60	N	1.732774	-0.766010	-0.666647
H61	H	1.673351	-0.920651	-0.441202
C62	C	1.566076	-0.786766	-0.311712
N63	N	1.547153	-0.765928	-0.228339
C64	C	1.566655	-0.929137	-0.312624
N65	N	1.547979	-0.951046	-0.229717
C66	C	1.368644	-0.926704	-0.363447
N67	N	1.344478	-0.947039	-0.281166
C68	C	1.367541	-0.785101	-0.365266
N69	N	1.342901	-0.763295	-0.283905
H70	H	1.617340	-0.921423	-0.641010
H71	H	1.456015	-0.318260	-1.070192
C72	C	1.466918	-0.785210	-0.698554
N73	N	1.411201	-0.763429	-0.762840
H74	H	1.479432	-0.920034	-0.673725
