data_functionalizedCrystal
_audit_creation_method	'MofGen! by Chris Wilmer'
_symmetry_space_group_name_H-M	'P1'
_symmetry_Int_Tables_number	1
_symmetry_cell_setting	triclinic
loop_
_symmetry_equiv_pos_as_xyz
  x,y,z
_cell_length_a	12.759401
_cell_length_b	21.295417
_cell_length_c	12.759393
_cell_angle_alpha	89.961877
_cell_angle_beta	89.981433
_cell_angle_gamma	90.028746
loop_
_atom_site_label
_atom_site_type_symbol
_atom_site_fract_x
_atom_site_fract_y
_atom_site_fract_z
Zn1	Zn	1.606146	-0.250588	-0.593935
Zn2	Zn	1.605994	-0.355872	-0.418235
Zn3	Zn	1.430448	-0.250619	-0.418275
Zn4	Zn	1.430390	-0.355822	-0.593877
O5	O	1.518245	-0.303225	-0.506081
O6	O	1.753147	-0.264563	-0.570637
O7	O	1.582668	-0.341944	-0.271219
O8	O	1.453842	-0.162526	-0.441617
O9	O	1.753035	-0.341914	-0.441551
O10	O	1.582927	-0.162503	-0.570675
O11	O	1.453695	-0.264615	-0.271248
O12	O	1.283419	-0.264566	-0.441560
O13	O	1.453744	-0.341828	-0.740906
O14	O	1.283377	-0.341858	-0.570574
O15	O	1.582871	-0.264514	-0.740949
O16	O	1.582612	-0.443955	-0.441494
O17	O	1.453597	-0.443918	-0.570536
C18	C	1.245277	-0.303210	-0.506066
C19	C	1.128501	-0.303219	-0.506085
C20	C	1.073690	-0.263018	-0.573404
C21	C	0.963966	-0.263030	-0.573410
C22	C	0.963873	-0.343450	-0.438776
C23	C	1.073595	-0.343434	-0.438765
C24	C	1.073742	-0.216591	-0.651137
C25	C	0.964018	-0.216603	-0.651144
C26	C	1.518111	-0.466777	-0.506027
C27	C	1.518150	-0.536745	-0.506040
C28	C	1.585325	-0.569543	-0.573288
C29	C	1.585362	-0.635285	-0.573314
C30	C	1.518235	-0.668227	-0.506073
C31	C	1.451046	-0.635422	-0.438820
C32	C	1.451003	-0.569681	-0.438803
N33	N	1.510296	-0.771497	-0.414126
N34	N	1.510342	-0.833948	-0.414145
C35	C	1.518357	-0.866302	-0.506120
N36	N	1.526345	-0.833846	-0.598078
N37	N	1.526303	-0.771388	-0.598058
C38	C	1.518273	-0.739513	-0.506084
C39	C	1.585577	-0.970385	-0.573402
C40	C	1.585607	-1.036129	-0.573430
C41	C	1.451296	-1.036265	-0.438927
C42	C	1.451260	-0.970522	-0.438908
C43	C	1.518407	-0.937586	-0.506145
C44	C	1.792278	-0.303241	-0.506096
C45	C	1.909054	-0.303247	-0.506102
C46	C	1.518318	-0.303162	-0.780114
C47	C	1.518350	-0.303135	-0.896891
C48	C	1.518408	-0.139035	-0.506157
C49	C	1.518477	-0.069067	-0.506189
C50	C	1.585595	-0.262873	-0.951777
C51	C	1.585620	-0.262850	-1.061501
C52	C	1.451151	-0.343356	-1.061443
C53	C	1.451122	-0.343375	-0.951721
C54	C	1.663233	-0.216396	-0.951811
C55	C	1.663258	-0.216373	-1.061535
C56	C	1.518232	-0.303243	-0.233113
C57	C	1.518404	-0.303093	-0.116337
H58	H	0.934267	-0.229721	-0.732477
O59	O	1.385901	-0.938631	-0.373723
C60	C	1.244057	-0.864462	-0.359440
C61	C	1.318001	-0.900548	-0.433382
H62	H	1.189156	-0.833653	-0.407643
H63	H	1.196008	-0.899269	-0.311402
H64	H	1.292326	-0.833713	-0.304518
H65	H	1.269813	-0.931298	-0.488368
H66	H	1.366054	-0.865707	-0.481346
O67	O	1.114209	-0.237471	-0.743359
C68	C	1.077852	-0.276812	-0.916611
C69	C	1.031883	-0.253162	-0.812236
H70	H	1.011313	-0.289517	-0.972318
H71	H	1.128135	-0.238370	-0.953299
H72	H	1.128152	-0.320102	-0.901452
H73	H	0.981535	-0.209882	-0.827305
H74	H	0.981660	-0.291642	-0.775580
H75	H	1.640249	-0.943568	-0.628154
H76	H	1.640309	-1.062832	-0.628196
H77	H	1.640056	-0.661994	-0.628088
O78	O	1.628704	-0.161115	-1.102305
C79	C	1.668974	-0.071516	-1.210530
C80	C	1.708238	-0.134085	-1.164442
H81	H	1.733265	-0.049637	-1.260760
H82	H	1.596697	-0.080457	-1.260873
H83	H	1.647908	-0.038111	-1.144005
H84	H	1.729363	-0.167521	-1.230900
H85	H	1.780478	-0.125096	-1.114072
H86	H	1.396632	-1.063086	-0.384184
O87	O	1.650579	-0.537647	-0.638702
C88	C	1.783854	-0.544454	-0.772054
C89	C	1.709992	-0.580655	-0.698045
H90	H	1.831924	-0.579210	-0.820036
H91	H	1.735625	-0.513692	-0.827015
H92	H	1.838748	-0.513653	-0.723839
H93	H	1.655083	-0.611490	-0.746176
H94	H	1.758287	-0.611377	-0.643081
H95	H	0.919156	-0.376192	-0.383966
H96	H	1.641486	-0.167645	-0.922065
H97	H	1.396299	-0.542976	-0.384041
H98	H	1.740497	-0.233873	-0.917772
H99	H	1.118218	-0.376164	-0.383937
O100	O	1.385787	-0.667488	-0.373647
C101	C	1.243956	-0.741767	-0.359413
C102	C	1.317819	-0.705504	-0.433336
H103	H	1.188971	-0.772501	-0.407643
H104	H	1.292183	-0.772587	-0.304541
H105	H	1.195982	-0.707017	-0.311320
H106	H	1.365809	-0.740208	-0.481497
H107	H	1.269532	-0.674674	-0.488139
H108	H	1.396360	-0.376158	-0.907037
O109	O	1.760286	-0.232063	-1.097023
C110	C	1.897044	-0.310034	-1.100299
C111	C	1.787149	-0.292352	-1.060054
H112	H	1.918805	-0.358772	-1.070407
H113	H	1.897102	-0.310060	-1.189648
H114	H	1.956618	-0.274332	-1.070574
H115	H	1.727513	-0.328036	-1.089702
H116	H	1.787178	-0.292306	-0.970706
H117	H	0.929997	-0.170271	-0.622153
O118	O	1.109112	-0.158380	-0.625245
C119	C	1.063321	-0.052310	-0.578213
C120	C	1.023122	-0.118204	-0.607504
H121	H	0.993819	-0.019807	-0.563883
H122	H	1.112883	-0.055396	-0.504063
H123	H	1.113034	-0.032935	-0.645090
H124	H	0.973366	-0.137618	-0.540695
H125	H	0.973617	-0.115079	-0.681686
O126	O	1.385954	-0.382427	-1.114870
C127	C	1.326356	-0.418050	-1.283876
C128	C	1.400262	-0.373778	-1.223505
H129	H	1.337883	-0.411063	-1.371719
H130	H	1.344751	-0.468827	-1.262353
H131	H	1.241658	-0.407001	-1.262239
H132	H	1.484985	-0.384770	-1.245110
H133	H	1.381776	-0.323014	-1.245034
