data_functionalizedCrystal
_audit_creation_method	'MofGen! by Chris Wilmer'
_symmetry_space_group_name_H-M	'P1'
_symmetry_Int_Tables_number	1
_symmetry_cell_setting	triclinic
loop_
_symmetry_equiv_pos_as_xyz
  x,y,z
_cell_length_a	16.109302
_cell_length_b	13.339070
_cell_length_c	14.586319
_cell_angle_alpha	89.998714
_cell_angle_beta	89.994552
_cell_angle_gamma	99.545538
loop_
_atom_site_label
_atom_site_type_symbol
_atom_site_fract_x
_atom_site_fract_y
_atom_site_fract_z
O1	O	1.133154	0.130024	-0.076280
O2	O	1.633154	0.630024	0.423720
O3	O	0.894828	0.146204	-0.076272
O4	O	1.394828	0.646204	0.423728
O5	O	0.986639	-0.009140	-0.076272
O6	O	1.486639	0.490860	0.423728
O7	O	1.041343	0.285369	-0.076279
O8	O	1.541343	0.785369	0.423721
O9	O	0.986629	-0.009143	0.076209
O10	O	1.486629	0.490857	0.576209
O11	O	0.894818	0.146202	0.076209
O12	O	1.394818	0.646202	0.576209
O13	O	1.133144	0.130022	0.076201
O14	O	1.633144	0.630022	0.576201
Cu15	Cu	1.013980	0.138112	0.090128
Cu16	Cu	1.513980	0.638112	0.590128
Cu17	Cu	1.013992	0.138114	-0.090198
Cu18	Cu	1.513992	0.638114	0.409802
O19	O	1.041333	0.285367	0.076201
O20	O	1.541333	0.785367	0.576201
C21	C	0.863697	0.145548	-0.000031
C22	C	1.363697	0.645548	0.499969
C23	C	0.770948	0.143582	-0.000028
C24	C	1.270948	0.643582	0.499972
C25	C	0.557552	0.139037	0.083080
C26	C	1.057552	0.639037	0.583080
C27	C	0.470403	0.137179	0.083077
C28	C	0.970403	0.637179	0.583077
C29	C	0.470425	0.137187	-0.083166
C30	C	0.970425	0.637187	0.416834
C31	C	0.557572	0.139037	-0.083162
C32	C	1.057572	0.639037	0.416838
C33	C	0.601134	0.139967	-0.000036
C34	C	1.101134	0.639967	0.499964
C35	C	0.426838	0.136259	-0.000043
C36	C	0.926838	0.636259	0.499957
C37	C	0.332348	0.134245	-0.000047
C38	C	0.832348	0.634245	0.499953
C39	C	0.695630	0.141979	-0.000031
C40	C	1.195630	0.641979	0.499969
C41	C	0.977393	-0.046828	-0.000033
C42	C	1.477393	0.453172	0.499967
C43	C	0.949849	-0.159121	-0.000036
C44	C	1.449849	0.340879	0.499964
C45	C	1.164017	-0.523983	-0.000042
C46	C	1.664017	-0.023983	0.499958
C47	C	1.189899	-0.418479	-0.000034
C48	C	1.689899	0.081521	0.499966
C49	C	1.129889	-0.353634	-0.000035
C50	C	1.629889	0.146366	0.499965
C51	C	1.043992	-0.394304	-0.000043
C52	C	1.543992	0.105696	0.499957
C53	C	1.018108	-0.499819	-0.000043
C54	C	1.518108	0.000181	0.499957
C55	C	0.983980	-0.329470	-0.000036
C56	C	1.483980	0.170530	0.499964
C57	C	0.898083	-0.370139	-0.000044
C58	C	1.398083	0.129861	0.499956
C59	C	0.872203	-0.475644	-0.000045
C60	C	1.372203	0.024356	0.499955
C61	C	0.932214	-0.540489	-0.000045
C62	C	1.432214	-0.040489	0.499955
C63	C	1.009864	-0.223955	-0.000036
C64	C	1.509864	0.276045	0.499964
C65	C	0.863955	-0.199790	-0.000037
C66	C	1.363955	0.300210	0.499963
C67	C	0.838073	-0.305295	-0.000045
C68	C	1.338073	0.194705	0.499955
C69	C	1.164275	0.130679	-0.000042
C70	C	1.664275	0.630679	0.499958
C71	C	1.257024	0.132644	-0.000051
C72	C	1.757024	0.632644	0.499949
C73	C	1.050579	0.323054	-0.000040
C74	C	1.550579	0.823054	0.499960
C75	C	1.078123	0.435347	-0.000043
C76	C	1.578123	0.935347	0.499957
N77	N	1.013979	0.138109	0.216959
N78	N	1.513979	0.638109	0.716959
N79	N	1.013998	0.138109	-0.217030
N80	N	1.513998	0.638109	0.282970
C81	C	1.054656	0.069346	0.451966
C82	C	1.554656	0.569346	0.951966
C83	C	1.054658	0.069343	0.547947
C84	C	1.554658	0.569343	1.047947
C85	C	0.973315	0.206876	0.547957
C86	C	1.473315	0.706876	1.047957
C87	C	0.973309	0.206873	0.451977
C88	C	1.473309	0.706873	0.951977
C89	C	1.013984	0.138109	0.403984
C90	C	1.513984	0.638109	0.903984
C91	C	1.013993	0.138109	0.595945
C92	C	1.513993	0.638109	1.095945
C93	C	1.013994	0.138107	0.700012
C94	C	1.513994	0.638107	1.200012
C95	C	1.013981	0.138109	0.299910
C96	C	1.513981	0.638109	0.799910
H97	H	1.079801	-0.190853	-0.000029
H98	H	1.579801	0.309147	0.499971
H99	H	0.802261	-0.508753	-0.000045
H100	H	1.302261	-0.008753	0.499955
H101	H	0.768135	-0.338423	-0.000051
H102	H	1.268135	0.161577	0.499949
H103	H	0.940185	0.262868	0.412908
H104	H	1.440185	0.762868	0.912908
H105	H	0.815089	-0.146993	-0.000033
H106	H	1.315089	0.353007	0.499967
C107	C	0.422512	0.136191	-0.174599
C108	C	0.922512	0.636191	0.325401
H109	H	0.460951	0.137006	-0.224099
H110	H	0.960951	0.637006	0.275901
H111	H	0.395781	0.194428	-0.178046
H112	H	0.895781	0.694428	0.321954
H113	H	0.381253	0.076515	-0.178066
H114	H	0.881253	0.576515	0.321934
C115	C	1.099388	-0.006300	0.399176
C116	C	1.599388	0.493700	0.899176
H117	H	1.123603	-0.047259	0.441503
H118	H	1.623603	0.452741	0.941503
H119	H	1.142390	0.030094	0.361724
H120	H	1.642390	0.530094	0.861724
H121	H	1.059755	-0.048422	0.361746
H122	H	1.559755	0.451578	0.861746
C123	C	1.158357	-0.237582	-0.000038
C124	C	1.658357	0.262418	0.499962
H125	H	1.218108	-0.222648	-0.000043
H126	H	1.718108	0.277352	0.499957
H127	H	1.137262	-0.209245	0.053130
H128	H	1.637262	0.290755	0.553130
H129	H	1.137277	-0.209257	-0.053223
H130	H	1.637277	0.290743	0.446777
H131	H	1.087776	0.013349	0.587011
H132	H	1.587776	0.513349	1.087011
C133	C	0.903746	-0.656545	-0.000048
C134	C	1.403746	-0.156545	0.499952
H135	H	0.951789	-0.689334	-0.000044
H136	H	1.451789	-0.189334	0.499956
H137	H	0.870950	-0.675949	-0.053219
H138	H	1.370950	-0.175949	0.446781
H139	H	0.870947	-0.675953	0.053134
H140	H	1.370947	-0.175953	0.553134
H141	H	1.259835	-0.385374	-0.000026
H142	H	1.759835	0.114626	0.499974
C143	C	0.605464	0.140030	0.174514
C144	C	1.105464	0.640030	0.674514
H145	H	0.567022	0.139195	0.224014
H146	H	1.067022	0.639195	0.724014
H147	H	0.646723	0.199698	0.177987
H148	H	1.146723	0.699698	0.677987
H149	H	0.632193	0.081785	0.177957
H150	H	1.132193	0.581785	0.677957
H151	H	0.593056	0.139792	-0.150849
H152	H	1.093056	0.639792	0.349151
H153	H	0.940199	0.262863	0.587042
H154	H	1.440199	0.762863	1.087042
H155	H	1.212868	-0.576788	-0.000034
H156	H	1.712868	-0.076788	0.499966
H157	H	0.434923	0.136422	0.150759
H158	H	0.934923	0.636422	0.650759
