data_functionalizedCrystal
_audit_creation_method	'MofGen! by Chris Wilmer'
_symmetry_space_group_name_H-M	'P1'
_symmetry_Int_Tables_number	1
_symmetry_cell_setting	triclinic
loop_
_symmetry_equiv_pos_as_xyz
  x,y,z
_cell_length_a	14.044220
_cell_length_b	17.699083
_cell_length_c	16.776229
_cell_angle_alpha	89.994790
_cell_angle_beta	89.995954
_cell_angle_gamma	91.764054
loop_
_atom_site_label
_atom_site_type_symbol
_atom_site_fract_x
_atom_site_fract_y
_atom_site_fract_z
O1	O	1.257287	-0.182430	-0.066289
O2	O	1.757287	0.317570	0.433711
O3	O	0.981333	-0.175846	-0.066291
O4	O	1.481333	0.324154	0.433709
O5	O	1.127106	-0.069487	-0.066283
O6	O	1.627106	0.430513	0.433717
O7	O	1.111514	-0.288789	-0.066297
O8	O	1.611514	0.211211	0.433703
O9	O	1.127093	-0.069506	0.066293
O10	O	1.627093	0.430494	0.566293
O11	O	0.981319	-0.175866	0.066285
O12	O	1.481319	0.324134	0.566285
O13	O	1.257273	-0.182449	0.066287
O14	O	1.757273	0.317551	0.566287
Zn15	Zn	1.119294	-0.179160	0.087336
Zn16	Zn	1.619294	0.320840	0.587336
Zn17	Zn	1.119312	-0.179135	-0.087340
Zn18	Zn	1.619312	0.320865	0.412660
O19	O	1.111500	-0.288809	0.066279
O20	O	1.611500	0.211191	0.566279
C21	C	0.946018	-0.172974	-0.000003
C22	C	1.446018	0.327026	0.499997
C23	C	0.840812	-0.164378	-0.000004
C24	C	1.340812	0.335622	0.499996
C25	C	1.292588	-0.185321	-0.000003
C26	C	1.792588	0.314679	0.499997
C27	C	1.397794	-0.193917	-0.000007
C28	C	1.897794	0.306083	0.499993
C29	C	1.126541	-0.041261	0.000005
C30	C	1.626541	0.458739	0.500005
C31	C	1.124865	0.042873	0.000005
C32	C	1.624865	0.542873	0.500005
C33	C	1.590419	-0.209632	-0.000008
C34	C	2.090419	0.290368	0.499992
C35	C	1.648193	-0.148666	-0.000003
C36	C	2.148193	0.351334	0.499997
C37	C	1.755376	-0.157410	-0.000004
C38	C	2.255376	0.342590	0.499996
C39	C	1.483226	-0.200889	-0.000008
C40	C	1.983226	0.299111	0.499992
C41	C	1.112066	-0.317035	-0.000011
C42	C	1.612066	0.182965	0.499989
C43	C	1.113742	-0.401168	-0.000017
C44	C	1.613742	0.098832	0.499983
N45	N	1.119289	-0.179178	0.206547
N46	N	1.619289	0.320822	0.706547
C47	C	1.210431	0.085591	0.000007
C48	C	1.710431	0.585591	0.500007
C49	C	1.208850	0.164644	0.000000
C50	C	1.708850	0.664644	0.500000
C51	C	1.121702	0.200976	-0.000003
C52	C	1.621702	0.700976	0.499997
C53	C	1.036130	0.158252	-0.000007
C54	C	1.536130	0.658252	0.499993
C55	C	1.037712	0.079201	-0.000006
C56	C	1.537712	0.579201	0.499994
C57	C	1.029750	0.477055	-0.000014
C58	C	1.529750	0.977055	0.499986
C59	C	1.028175	0.556112	-0.000013
C60	C	1.528175	1.056112	0.499987
C61	C	1.200888	0.562498	-0.000008
C62	C	1.700888	1.062498	0.499992
C63	C	1.202470	0.483447	-0.000006
C64	C	1.702470	0.983447	0.499994
C65	C	1.116898	0.440730	-0.000015
C66	C	1.616898	0.940730	0.499985
C67	C	1.118613	0.355012	-0.000009
C68	C	1.618613	0.855012	0.499991
C69	C	1.119987	0.286692	-0.000003
C70	C	1.619987	0.786692	0.499997
N71	N	1.119325	-0.179112	-0.206551
N72	N	1.619325	0.320888	0.293449
C73	C	1.061953	-0.129313	0.751721
C74	C	1.561953	0.370687	1.251721
C75	C	1.061950	-0.129320	0.668269
C76	C	1.561950	0.370680	1.168269
C77	C	1.119316	-0.179129	0.626546
C78	C	1.619316	0.320871	1.126546
C79	C	1.176695	-0.228929	0.668280
C80	C	1.676695	0.271071	1.168280
C81	C	1.176701	-0.228919	0.751730
C82	C	1.676701	0.271081	1.251730
C83	C	1.176670	-0.228972	0.331733
C84	C	1.676670	0.271028	0.831733
C85	C	1.176657	-0.228981	0.248276
C86	C	1.676657	0.271019	0.748276
C87	C	1.061919	-0.129373	0.248271
C88	C	1.561919	0.370627	0.748271
C89	C	1.061926	-0.129363	0.331722
C90	C	1.561926	0.370637	0.831722
C91	C	1.119308	-0.179160	0.373448
C92	C	1.619308	0.320840	0.873448
C93	C	1.119311	-0.179152	0.463937
C94	C	1.619311	0.320848	0.963937
C95	C	1.119308	-0.179141	0.536059
C96	C	1.619308	0.320859	1.036059
H97	H	1.621453	-0.268389	-0.000012
H98	H	2.121453	0.231611	0.499988
N99	N	1.609283	-0.074943	-0.000016
N100	N	2.109283	0.425057	0.499984
N101	N	1.663541	-0.017619	-0.000021
N102	N	2.163541	0.482381	0.499979
H103	H	1.636059	0.034447	-0.000034
H104	H	2.136059	0.534447	0.499966
H105	H	1.223408	-0.269481	0.634302
H106	H	1.723408	0.230519	1.134302
H107	H	1.015234	-0.088757	0.785686
H108	H	1.515234	0.411243	1.285686
N109	N	1.299442	0.048469	0.000019
N110	N	1.799442	0.548469	0.500019
N111	N	1.319586	0.005067	0.055905
N112	N	1.819586	0.505067	0.555905
H113	H	1.382453	-0.021150	0.055912
H114	H	1.882453	0.478850	0.555912
H115	H	0.965173	0.187840	-0.000015
H116	H	1.465173	0.687840	0.499985
N117	N	1.296245	0.208291	0.000021
N118	N	1.796245	0.708291	0.500021
N119	N	1.294825	0.278871	0.000024
N120	N	1.794825	0.778871	0.500024
H121	H	1.356551	0.309698	0.000041
H122	H	1.856551	0.809698	0.500041
N123	N	1.291497	0.446347	0.000004
N124	N	1.791497	0.946347	0.500004
N125	N	1.367891	0.484499	0.000005
N126	N	1.867891	0.984499	0.500005
H127	H	1.430769	0.458299	0.000011
H128	H	1.930769	0.958299	0.500011
N129	N	0.939160	0.593239	-0.000014
N130	N	1.439160	1.093239	0.499986
N131	N	0.919004	0.636633	0.055871
N132	N	1.419004	1.136633	0.555871
H133	H	0.856142	0.662856	0.055872
H134	H	1.356142	1.162856	0.555872
N135	N	1.235242	-0.279857	0.374360
N136	N	1.735242	0.220143	0.874360
N137	N	1.235233	-0.279856	0.448869
N138	N	1.735233	0.220144	0.948869
H139	H	1.276593	-0.315802	0.478979
H140	H	1.776593	0.184198	0.978979
N141	N	1.003313	-0.078494	0.374339
N142	N	1.503313	0.421506	0.874339
N143	N	0.914974	-0.081553	0.365031
N144	N	1.414974	0.418447	0.865031
H145	H	0.873577	-0.045626	0.395128
H146	H	1.373577	0.454374	0.895128
H147	H	1.015198	-0.088823	0.214288
H148	H	1.515198	0.411177	0.714288
H149	H	1.270565	0.597288	-0.000005
H150	H	1.770565	1.097288	0.499995
N151	N	0.942335	0.433439	-0.000016
N152	N	1.442335	0.933439	0.499984
N153	N	0.864534	0.465891	-0.000013
N154	N	1.364534	0.965891	0.499987
H155	H	0.802792	0.435085	-0.000012
H156	H	1.302792	0.935085	0.499988
N157	N	1.003321	-0.078461	0.625658
N158	N	1.503321	0.421539	1.125658
N159	N	0.952087	-0.034006	0.662920
N160	N	1.452087	0.465994	1.162920
H161	H	0.910669	0.001910	0.632827
H162	H	1.410669	0.501910	1.132827
N163	N	0.950299	0.035574	-0.000018
N164	N	1.450299	0.535574	0.499982
N165	N	0.872494	0.068021	-0.000025
N166	N	1.372494	0.568021	0.499975
H167	H	0.810755	0.037210	-0.000039
H168	H	1.310755	0.537210	0.499961
N169	N	1.235267	-0.279864	0.205668
N170	N	1.735267	0.220136	0.705668
N171	N	1.286500	-0.324320	0.242932
N172	N	1.786500	0.175680	0.742932
H173	H	1.327892	-0.360255	0.212840
H174	H	1.827892	0.139745	0.712840
N175	N	1.235317	-0.279788	0.794345
N176	N	1.735317	0.220212	1.294345
N177	N	1.286535	-0.324256	0.757085
N178	N	1.786535	0.175744	1.257085
H179	H	1.327938	-0.360181	0.787180
H180	H	1.827938	0.139819	1.287180
