data_functionalizedCrystal
_audit_creation_method	'MofGen! by Chris Wilmer'
_symmetry_space_group_name_H-M	'P1'
_symmetry_Int_Tables_number	1
_symmetry_cell_setting	triclinic
loop_
_symmetry_equiv_pos_as_xyz
  x,y,z
_cell_length_a	14.853567
_cell_length_b	18.266242
_cell_length_c	14.853567
_cell_angle_alpha	89.997455
_cell_angle_beta	96.365070
_cell_angle_gamma	90.006062
loop_
_atom_site_label
_atom_site_type_symbol
_atom_site_fract_x
_atom_site_fract_y
_atom_site_fract_z
O1	O	1.196371	0.060824	-0.117706
O2	O	1.696371	0.560824	0.382294
O3	O	0.933911	0.060836	-0.131727
O4	O	1.433911	0.560836	0.368273
O5	O	1.072151	0.060832	0.006513
O6	O	1.572151	0.560832	0.506513
O7	O	1.058130	0.060828	-0.255946
O8	O	1.558130	0.560828	0.244054
O9	O	1.072128	-0.060930	0.006521
O10	O	1.572128	0.439070	0.506521
O11	O	0.933888	-0.060926	-0.131720
O12	O	1.433888	0.439074	0.368280
O13	O	1.196347	-0.060938	-0.117698
O14	O	1.696347	0.439062	0.382302
Zn15	Zn	1.065114	-0.080264	-0.124708
Zn16	Zn	1.565114	0.419736	0.375292
Zn17	Zn	1.065144	0.080162	-0.124717
Zn18	Zn	1.565144	0.580162	0.375283
O19	O	1.058107	-0.060934	-0.255939
O20	O	1.558107	0.439066	0.244061
C21	C	0.900311	-0.000043	-0.131088
C22	C	1.400311	0.499957	0.368912
C23	C	0.800227	-0.000039	-0.129184
C24	C	1.300227	0.499961	0.370816
N25	N	1.065099	-0.189751	-0.124701
N26	N	1.565099	0.310249	0.375299
C27	C	0.387693	-0.000054	-0.039019
C28	C	0.887693	0.499946	0.460981
C29	C	0.366412	-0.000055	-0.203251
C30	C	0.866412	0.499945	0.296749
C31	C	0.460446	-0.000053	-0.205041
C32	C	0.960446	0.499947	0.294959
C33	C	0.518108	-0.000050	-0.123819
C34	C	1.018108	0.499950	0.376181
C35	C	0.481736	-0.000049	-0.040806
C36	C	0.981736	0.499951	0.459194
C37	C	0.496825	-0.000046	-0.288053
C38	C	0.996825	0.499954	0.211947
C39	C	0.590864	-0.000043	-0.289846
C40	C	1.090864	0.499957	0.210154
C41	C	0.648528	-0.000045	-0.208623
C42	C	1.148528	0.499955	0.291377
C43	C	0.612150	-0.000045	-0.125607
C44	C	1.112150	0.499955	0.374393
C45	C	0.669812	-0.000042	-0.044384
C46	C	1.169812	0.499958	0.455616
C47	C	0.633437	-0.000048	0.038633
C48	C	1.133437	0.499952	0.538633
C49	C	0.539399	-0.000051	0.040417
C50	C	1.039399	0.499949	0.540417
C51	C	0.742565	-0.000042	-0.210407
C52	C	1.242565	0.499958	0.289593
C53	C	0.763855	-0.000038	-0.046172
C54	C	1.263855	0.499962	0.453828
C55	C	1.126332	-0.228062	-0.063518
C56	C	1.626332	0.271938	0.436482
C57	C	1.126338	-0.304707	-0.063514
C58	C	1.626338	0.195293	0.436486
C59	C	1.065119	-0.343038	-0.124708
C60	C	1.565119	0.156962	0.375292
C61	C	1.003875	-0.304718	-0.185896
C62	C	1.503875	0.195282	0.314104
C63	C	1.003864	-0.228075	-0.185892
C64	C	1.503864	0.271925	0.314108
N65	N	1.053744	-0.463371	-0.204466
N66	N	1.553744	0.036629	0.295534
N67	N	1.053759	-0.536179	-0.204467
N68	N	1.553759	-0.036179	0.295533
C69	C	1.065144	-0.573960	-0.124721
C70	C	1.565144	-0.073960	0.375279
N71	N	1.076532	-0.536183	-0.044973
N72	N	1.576532	-0.036183	0.455027
N73	N	1.076522	-0.463368	-0.044973
N74	N	1.576522	0.036632	0.455027
C75	C	1.065123	-0.426145	-0.124719
C76	C	1.565123	0.073855	0.375281
C77	C	1.126387	-0.695378	-0.063529
C78	C	1.626387	-0.195378	0.436471
C79	C	1.126386	-0.772025	-0.063524
C80	C	1.626386	-0.272025	0.436476
C81	C	1.003928	-0.772035	-0.185913
C82	C	1.503928	-0.272035	0.314087
C83	C	1.003924	-0.695390	-0.185911
C84	C	1.503924	-0.195390	0.314089
C85	C	1.065158	-0.657066	-0.124720
C86	C	1.565158	-0.157066	0.375280
C87	C	1.229947	-0.000057	-0.118337
C88	C	1.729947	0.499943	0.381663
C89	C	1.330031	-0.000057	-0.120241
C90	C	1.830031	0.499943	0.379759
C91	C	1.071504	-0.000047	0.040106
C92	C	1.571504	0.499953	0.540106
C93	C	1.069601	-0.000040	0.140189
C94	C	1.569601	0.499960	0.640189
N95	N	1.065166	0.189649	-0.124717
N96	N	1.565166	0.689649	0.375283
C97	C	1.058754	-0.000053	-0.289531
C98	C	1.558754	0.499947	0.210469
C99	C	1.060657	-0.000055	-0.389615
C100	C	1.560657	0.499945	0.110385
C101	C	0.979435	-0.000050	0.552723
C102	C	1.479435	0.499950	1.052723
C103	C	1.143668	-0.000058	0.574004
C104	C	1.643668	0.499942	1.074004
C105	C	1.145458	-0.000053	0.479971
C106	C	1.645458	0.499947	0.979971
C107	C	1.064235	-0.000049	0.422309
C108	C	1.564235	0.499951	0.922309
C109	C	0.981223	-0.000048	0.458680
C110	C	1.481223	0.499952	0.958680
C111	C	1.228469	-0.000061	0.443591
C112	C	1.728469	0.499939	0.943591
C113	C	1.230262	-0.000058	0.349552
C114	C	1.730262	0.499942	0.849552
C115	C	1.149039	-0.000048	0.291889
C116	C	1.649039	0.499952	0.791889
C117	C	1.066023	-0.000047	0.328266
C118	C	1.566023	0.499953	0.828266
C119	C	0.984800	-0.000042	0.270604
C120	C	1.484800	0.499958	0.770604
C121	C	0.901783	-0.000036	0.306979
C122	C	1.401783	0.499964	0.806979
C123	C	0.899999	-0.000038	0.401017
C124	C	1.399999	0.499962	0.901017
C125	C	1.150823	-0.000045	0.197851
C126	C	1.650823	0.499955	0.697851
C127	C	0.986588	-0.000040	0.176561
C128	C	1.486588	0.499960	0.676561
H129	H	0.810798	-0.000038	0.019971
H130	H	1.310798	0.499962	0.519971
H131	H	0.449870	-0.000041	-0.354180
H132	H	0.949870	0.499959	0.145820
Cl133	Cl	0.926946	-0.647223	-0.262834
Cl134	Cl	1.426946	-0.147223	0.237166
Cl135	Cl	1.334624	-0.000054	0.303832
Cl136	Cl	1.834624	0.499946	0.803832
Cl137	Cl	1.203362	-0.647199	0.013401
Cl138	Cl	1.703362	-0.147199	0.513401
H139	H	0.954028	-0.335931	-0.235719
H140	H	1.454028	0.164069	0.264281
H141	H	1.209795	-0.000067	0.620958
H142	H	1.709795	0.499933	1.120958
Cl143	Cl	0.705937	-0.000038	0.140737
Cl144	Cl	1.205937	0.499962	0.640737
H145	H	0.509774	-0.000073	0.108005
H146	H	1.009774	0.499927	0.608005
H147	H	0.920445	-0.000033	0.129618
H148	H	1.420445	0.499967	0.629618
H149	H	0.358072	-0.000061	0.028572
H150	H	0.858072	0.499939	0.528572
Cl151	Cl	0.926881	-0.179910	-0.262815
Cl152	Cl	1.426881	0.320090	0.237185
Cl153	Cl	0.926960	-0.820217	-0.262836
Cl154	Cl	1.426960	-0.320217	0.237164
Cl155	Cl	0.293923	-0.000049	-0.305354
Cl156	Cl	0.793923	0.499951	0.194646
Cl157	Cl	0.636585	-0.000039	-0.394208
Cl158	Cl	1.136585	0.499961	0.105792
H159	H	1.176203	-0.335905	-0.013690
H160	H	1.676203	0.164095	0.486310
H161	H	0.772178	-0.000039	-0.277998
H162	H	1.272178	0.499961	0.222002
Cl163	Cl	1.203306	-0.179884	0.013410
Cl164	Cl	1.703306	0.320116	0.513410
H165	H	0.835652	-0.000037	0.260019
H166	H	1.335652	0.499963	0.760019
Cl167	Cl	1.203366	-0.820190	0.013404
Cl168	Cl	1.703366	-0.320190	0.513404
Cl169	Cl	0.795645	-0.000028	0.446752
Cl170	Cl	1.295645	0.499972	0.946752
H171	H	0.911844	-0.000042	0.582344
H172	H	1.411844	0.499958	1.082344
Cl173	Cl	1.255178	-0.000067	0.152125
Cl174	Cl	1.755178	0.499933	0.652125
H175	H	1.294596	-0.000072	0.490546
H176	H	1.794596	0.499928	0.990546
