data_functionalizedCrystal
_audit_creation_method	'MofGen! by Chris Wilmer'
_symmetry_space_group_name_H-M	'P1'
_symmetry_Int_Tables_number	1
_symmetry_cell_setting	triclinic
loop_
_symmetry_equiv_pos_as_xyz
  x,y,z
_cell_length_a	27.731994
_cell_length_b	27.732048
_cell_length_c	16.776229
_cell_angle_alpha	89.988391
_cell_angle_beta	89.998937
_cell_angle_gamma	82.631595
loop_
_atom_site_label
_atom_site_type_symbol
_atom_site_fract_x
_atom_site_fract_y
_atom_site_fract_z
O1	O	0.640946	0.057393	-0.066183
O2	O	0.500149	0.066166	-0.066211
O3	O	0.574920	-0.008618	-0.066181
O4	O	0.566175	0.132177	-0.066213
O5	O	0.574910	-0.008622	0.066396
O6	O	0.500139	0.066162	0.066366
O7	O	0.640936	0.057389	0.066393
Zn8	Zn	0.570536	0.061775	0.087429
Zn9	Zn	0.570549	0.061781	-0.087246
O10	O	0.566165	0.132173	0.066364
C11	C	0.482137	0.065984	0.000074
C12	C	0.428480	0.065442	0.000064
C13	C	0.095756	0.062023	0.072363
C14	C	-0.105902	0.059962	0.072373
O15	O	-0.131979	0.059672	0.133833
N16	N	-0.131111	0.059708	0.000105
C17	C	-0.105903	0.059967	-0.072169
O18	O	-0.131971	0.059699	-0.133637
C19	C	0.095755	0.062025	-0.072178
C20	C	0.120961	0.062283	0.000094
C21	C	0.120963	0.062281	0.144629
C22	C	0.171374	0.062799	0.144626
C23	C	0.196579	0.063059	0.072357
C24	C	0.171372	0.062801	0.000091
C25	C	0.120963	0.062280	-0.144452
C26	C	0.171381	0.062793	-0.144448
C27	C	0.196587	0.063052	-0.072176
C28	C	0.246988	0.063580	-0.072182
N29	N	0.272198	0.063833	0.000086
C30	C	0.246993	0.063573	0.072355
C31	C	-0.211776	0.058887	-0.072160
C32	C	-0.262190	0.058374	-0.072158
C33	C	-0.262186	0.058368	0.072385
C34	C	-0.211771	0.058885	0.072382
C35	C	-0.186566	0.059141	0.000108
C36	C	0.352860	0.064661	0.072343
C37	C	0.403275	0.065181	0.072334
C38	C	0.403267	0.065185	-0.072208
C39	C	0.352856	0.064667	-0.072199
C40	C	0.327654	0.064404	0.000083
O41	O	0.273097	0.063864	-0.133610
O42	O	0.273072	0.063830	0.133813
C43	C	0.045345	0.061505	0.072366
C44	C	0.020139	0.061247	0.000100
C45	C	0.045344	0.061507	-0.072169
C46	C	-0.030275	0.060734	0.000102
C47	C	-0.055480	0.060474	0.072371
C48	C	-0.030271	0.060727	0.144639
C49	C	0.020140	0.061245	0.144636
C50	C	0.020134	0.061254	-0.144436
C51	C	-0.030277	0.060736	-0.144427
C52	C	-0.055482	0.060476	-0.072158
C53	C	0.574732	-0.026627	0.000110
C54	C	0.574179	-0.080282	0.000116
C55	C	0.614884	-0.419105	0.000083
C56	C	0.612833	-0.620764	0.000072
O57	O	0.650055	-0.652027	0.000044
N58	N	0.568496	-0.639879	0.000064
C59	C	0.524670	-0.608576	0.000053
O60	O	0.486912	-0.629462	0.000038
C61	C	0.526721	-0.406918	0.000059
C62	C	0.571061	-0.387805	0.000075
C63	C	0.659220	-0.399992	0.000098
C64	C	0.659732	-0.349580	0.000106
C65	C	0.615908	-0.318281	0.000098
C66	C	0.571573	-0.337394	0.000082
C67	C	0.482895	-0.375615	0.000043
C68	C	0.483412	-0.325198	0.000042
C69	C	0.527751	-0.306086	0.000059
C70	C	0.528262	-0.255683	0.000082
N71	N	0.572598	-0.236567	0.000090
C72	C	0.616421	-0.267867	0.000098
C73	C	0.523596	-0.714450	0.000052
C74	C	0.523083	-0.764864	0.000052
C75	C	0.611246	-0.777049	0.000069
C76	C	0.611759	-0.726633	0.000074
C77	C	0.567932	-0.695335	0.000060
C78	C	0.617494	-0.161998	0.000113
C79	C	0.618002	-0.111581	0.000124
C80	C	0.529839	-0.099401	0.000103
C81	C	0.529331	-0.149813	0.000097
C82	C	0.573162	-0.181111	0.000099
O83	O	0.491060	-0.224391	0.000100
O84	O	0.654174	-0.246971	0.000095
C85	C	0.614372	-0.469517	0.000076
C86	C	0.570036	-0.488629	0.000061
C87	C	0.526213	-0.457330	0.000053
C88	C	0.569523	-0.539043	0.000061
C89	C	0.613346	-0.570343	0.000069
C90	C	0.657683	-0.551228	0.000077
C91	C	0.658195	-0.500816	0.000084
C92	C	0.481876	-0.476445	0.000045
C93	C	0.481367	-0.526857	0.000038
C94	C	0.525191	-0.558157	0.000046
C95	C	0.658949	0.057571	0.000107
C96	C	0.712605	0.058114	0.000111
C97	C	0.566353	0.150182	0.000071
C98	C	0.566906	0.203837	0.000060
N99	N	0.570531	0.061770	0.206640
N100	N	0.570558	0.061781	-0.206457
C101	C	0.603650	0.028669	0.248371
C102	C	0.603652	0.028669	0.331823
C103	C	0.570538	0.061772	0.373543
C104	C	0.537416	0.094875	0.331807
C105	C	0.537411	0.094872	0.248356
C106	C	0.537433	0.094884	0.668354
C107	C	0.537441	0.094885	0.751811
C108	C	0.603674	0.028680	0.751821
C109	C	0.603670	0.028678	0.668370
C110	C	0.570546	0.061779	0.626641
C111	C	0.570543	0.061778	0.536153
C112	C	0.570543	0.061775	0.464030
H113	H	0.100446	0.062068	0.203483
H114	H	0.494160	-0.073908	0.000099
Cl115	Cl	0.667501	-0.702612	0.000094
H116	H	0.630644	0.001727	0.785805
Cl117	Cl	0.321185	0.064330	0.163213
Cl118	Cl	0.495808	0.136503	0.804258
H119	H	0.694301	-0.485260	0.000097
H120	H	0.191900	0.063002	-0.203304
H121	H	0.693365	-0.576720	0.000087
Cl122	Cl	0.495795	0.136497	0.615901
Cl123	Cl	0.495784	0.136489	0.384254
H124	H	0.423797	0.065399	-0.131048
H125	H	0.630620	0.001715	0.365799
Cl126	Cl	0.495772	0.136485	0.195896
H127	H	0.423796	0.065394	0.131189
Cl128	Cl	0.425621	-0.550877	0.000022
Cl129	Cl	0.426778	-0.437104	0.000033
H130	H	0.487905	-0.688970	0.000040
H131	H	0.446789	-0.391167	0.000025
H132	H	0.447722	-0.299716	0.000029
Cl133	Cl	0.203055	0.063121	0.235488
Cl134	Cl	0.672597	-0.201336	0.000118
Cl135	Cl	0.666338	-0.816405	0.000075
Cl136	Cl	-0.061967	0.060402	0.235491
H137	H	-0.191252	0.059096	0.131232
Cl138	Cl	-0.293881	0.058039	0.163237
H139	H	-0.282710	0.058171	-0.131009
H140	H	0.630636	0.001724	0.634404
H141	H	-0.191259	0.059095	-0.131018
H142	H	0.100449	0.062069	-0.203304
H143	H	0.332331	0.064465	-0.131049
H144	H	0.040659	0.061456	0.203487
H145	H	-0.050796	0.060530	-0.203285
H146	H	0.040651	0.061464	-0.203288
H147	H	0.654110	-0.096023	0.000139
H148	H	0.486977	-0.780420	0.000053
Cl149	Cl	0.714320	-0.439332	0.000110
Cl150	Cl	0.715476	-0.325562	0.000103
Cl151	Cl	0.645284	-0.012947	0.195931
Cl152	Cl	0.473589	-0.173841	0.000091
