data_functionalizedCrystal
_audit_creation_method	'MofGen! by Chris Wilmer'
_symmetry_space_group_name_H-M	'P1'
_symmetry_Int_Tables_number	1
_symmetry_cell_setting	triclinic
loop_
_symmetry_equiv_pos_as_xyz
  x,y,z
_cell_length_a	13.635800
_cell_length_b	17.110477
_cell_length_c	14.673664
_cell_angle_alpha	79.718558
_cell_angle_beta	101.408695
_cell_angle_gamma	99.060298
loop_
_atom_site_label
_atom_site_type_symbol
_atom_site_fract_x
_atom_site_fract_y
_atom_site_fract_z
V1	V	-1.867185	-0.109975	0.289839
O2	O	-1.875007	0.004777	0.284445
O3	O	-1.833092	-0.217575	0.287738
O4	O	-1.784173	-0.108506	0.416302
O5	O	-1.924264	-0.105046	0.154991
V6	V	-2.117901	-0.096223	0.273724
O7	O	-1.978170	-0.140142	0.325187
O8	O	-2.232014	-0.066057	0.238376
O9	O	-2.040390	0.011376	0.275825
O10	O	-2.168777	-0.210976	0.279118
O11	O	-2.119520	-0.101153	0.408572
O12	O	-2.089309	-0.097692	0.147262
V13	V	-1.367185	-0.109975	0.289839
O14	O	-1.375007	0.004777	0.284445
O15	O	-1.333092	-0.217575	0.287738
O16	O	-1.284173	-0.108506	0.416302
O17	O	-1.424264	-0.105046	0.154991
V18	V	-1.617901	-0.096223	0.273724
O19	O	-1.478170	-0.140142	0.325187
O20	O	-1.732014	-0.066057	0.238376
O21	O	-1.540390	0.011376	0.275825
O22	O	-1.668777	-0.210976	0.279118
O23	O	-1.619520	-0.101153	0.408572
O24	O	-1.589309	-0.097692	0.147262
C25	C	-1.755089	-0.243798	0.283135
C26	C	-1.767465	-0.331764	0.282260
C27	C	-1.861766	-0.377128	0.286483
C28	C	-1.873388	-0.459782	0.285667
C29	C	-1.790710	-0.497068	0.280620
C30	C	-1.696400	-0.451698	0.276400
C31	C	-1.684778	-0.369047	0.277223
C32	C	-1.821373	-0.746419	0.277909
C33	C	-1.833004	-0.829076	0.277083
C34	C	-2.009991	-0.837154	0.286352
C35	C	-1.998362	-0.754500	0.287170
C36	C	-1.904053	-0.709138	0.282954
C37	C	-1.802588	-0.581552	0.279783
C38	C	-1.892174	-0.624656	0.283798
C39	C	-1.692688	-0.104670	0.447130
C40	C	-1.665394	-0.104181	0.550513
C41	C	-1.950065	0.037595	0.280426
C42	C	-1.927305	0.125560	0.281307
C43	C	-1.565407	-0.102393	0.929082
C44	C	-1.593222	-0.102890	0.823752
C45	C	-1.615400	-0.103287	0.739801
C46	C	-1.643217	-0.103783	0.634464
C47	C	-2.012467	-0.101532	0.116429
C48	C	-2.029381	-0.102017	0.013044
C49	C	-2.091369	-0.103831	-0.365524
C50	C	-2.074126	-0.103326	-0.260195
C51	C	-2.060376	-0.102925	-0.176243
C52	C	-2.043131	-0.102418	-0.070907
C53	C	-1.515949	-0.101527	1.116428
C54	C	-1.543242	-0.102000	1.013042
C55	C	-1.255089	-0.243798	0.283135
C56	C	-1.267465	-0.331764	0.282260
C57	C	-1.192688	-0.104670	0.447130
C58	C	-1.165394	-0.104181	0.550513
C59	C	-1.450065	0.037595	0.280426
C60	C	-1.427305	0.125560	0.281307
C61	C	-1.361773	-0.377116	0.286491
C62	C	-1.373412	-0.459771	0.285684
C63	C	-1.290745	-0.497072	0.280638
C64	C	-1.196429	-0.451714	0.276409
C65	C	-1.184789	-0.369061	0.277224
C66	C	-1.505490	0.170912	0.277078
C67	C	-1.484120	0.253566	0.277890
C68	C	-1.384563	0.290867	0.282938
C69	C	-1.306373	0.245509	0.287164
C70	C	-1.327745	0.162857	0.286345
H71	H	-1.929097	-0.346775	0.290584
H72	H	-1.607988	-0.332112	0.273788
H73	H	-1.586560	0.140553	0.272969
H74	H	-1.744584	-0.709494	0.274471
H75	H	-1.367175	0.358168	0.283604
H76	H	-1.300237	-0.564374	0.279976
H77	H	-1.735273	-0.611920	0.275671
H78	H	-1.225314	0.275892	0.291273
H79	H	-1.959489	-0.594295	0.287912
H80	H	-1.450216	-0.496690	0.289125
H81	H	-1.765666	-0.859434	0.272996
H82	H	-1.547798	0.290485	0.274450
H83	H	-1.429097	-0.346756	0.290594
H84	H	-2.065688	-0.724149	0.291286
H85	H	-1.629081	-0.482064	0.272296
H86	H	-1.129126	-0.482097	0.272301
H87	H	-1.107993	-0.332140	0.273773
H88	H	-1.264071	0.125937	0.289797
H89	H	-1.950176	-0.496714	0.289108
H90	H	-2.086775	-0.874097	0.289785
