data_functionalizedCrystal
_audit_creation_method	'MofGen! by Chris Wilmer'
_symmetry_space_group_name_H-M	'P1'
_symmetry_Int_Tables_number	1
_symmetry_cell_setting	triclinic
loop_
_symmetry_equiv_pos_as_xyz
  x,y,z
_cell_length_a	18.101398
_cell_length_b	18.101397
_cell_length_c	18.101390
_cell_angle_alpha	90.035542
_cell_angle_beta	90.010099
_cell_angle_gamma	90.016023
loop_
_atom_site_label
_atom_site_type_symbol
_atom_site_fract_x
_atom_site_fract_y
_atom_site_fract_z
Zn1	Zn	1.132178	-0.294889	0.418537
Zn2	Zn	1.132096	-0.418746	0.294690
Zn3	Zn	1.008336	-0.294913	0.294730
Zn4	Zn	1.008311	-0.418684	0.418510
O5	O	1.070231	-0.356808	0.356617
O6	O	1.235800	-0.311335	0.402103
O7	O	1.115656	-0.402356	0.191062
O8	O	1.024809	-0.191277	0.311181
O9	O	1.235740	-0.402332	0.311113
O10	O	1.115795	-0.191260	0.402142
O11	O	1.024730	-0.311376	0.191092
O12	O	0.904700	-0.311316	0.311155
O13	O	1.024766	-0.402226	0.522147
O14	O	0.904681	-0.402249	0.402096
O15	O	1.115771	-0.311275	0.522166
O16	O	1.115631	-0.522371	0.311087
O17	O	1.024686	-0.522325	0.402057
C18	C	0.877820	-0.356779	0.356627
C19	C	0.795506	-0.356784	0.356649
C20	C	0.496415	-0.356828	0.356618
C21	C	0.527753	-0.414318	0.413553
C22	C	0.613371	-0.414138	0.413787
C23	C	0.644797	-0.356807	0.356633
C24	C	0.613729	-0.278803	0.377965
C25	C	0.528084	-0.279148	0.378370
C26	C	0.527966	-0.376655	0.278214
C27	C	0.613616	-0.378366	0.278633
C28	C	0.728657	-0.356790	0.356641
C29	C	0.412555	-0.356839	0.356612
C30	C	1.070167	-0.549219	0.356581
C31	C	1.070208	-0.631533	0.356590
C32	C	1.070302	-0.930624	0.356658
C33	C	1.127363	-0.899297	0.299269
C34	C	1.127560	-0.813678	0.299417
C35	C	1.070255	-0.782241	0.356624
C36	C	1.091412	-0.813243	0.434681
C37	C	1.091853	-0.898888	0.434368
C38	C	0.991933	-0.899128	0.336665
C39	C	0.992320	-0.813479	0.334923
C40	C	1.070228	-0.698382	0.356609
C41	C	1.070332	-1.014483	0.356677
C42	C	1.263392	-0.356838	0.356607
C43	C	1.345706	-0.356851	0.356602
C44	C	1.070275	-0.356741	0.549779
C45	C	1.070293	-0.356712	0.632093
C46	C	1.070314	-0.163646	0.356669
C47	C	1.070350	-0.081332	0.356691
C48	C	1.070229	-0.356822	0.164206
C49	C	1.070354	-0.356642	0.081892
C50	C	1.070333	-0.356666	0.931184
C51	C	1.127779	-0.299643	0.899871
C52	C	1.127600	-0.299431	0.814253
C53	C	1.070314	-0.356688	0.782801
C54	C	0.992293	-0.335479	0.813889
C55	C	0.992637	-0.335052	0.899534
C56	C	1.090220	-0.435044	0.899589
C57	C	1.091933	-0.434645	0.813939
C58	C	1.070298	-0.356703	0.698942
C59	C	1.070344	-0.356650	1.015043
H60	H	0.507353	-0.234779	0.338802
H61	H	1.051123	-0.792877	0.478590
H62	H	1.114435	-0.241367	0.793785
H63	H	0.948379	-0.374777	0.920247
H64	H	1.052114	-0.919608	0.478601
H65	H	0.975129	-0.278821	0.792456
H66	H	1.149349	-0.450638	0.793619
Cl67	Cl	0.923148	-0.780454	0.394734
H68	H	1.146116	-0.454356	0.921223
Cl69	Cl	1.216925	-0.319926	0.781799
H70	H	1.185822	-0.312761	0.920463
H71	H	0.507148	-0.472351	0.400333
Cl72	Cl	0.645158	-0.210873	0.315943
H73	H	1.053135	-0.479414	0.792526
H74	H	0.976368	-0.793224	0.277479
H75	H	0.635008	-0.339534	0.233934
H76	H	0.975780	-0.277757	0.919530
Cl77	Cl	0.924414	-0.397631	0.782443
Cl78	Cl	1.107077	-0.781318	0.210068
Cl79	Cl	0.646860	-0.252370	0.465496
Cl80	Cl	0.496674	-0.312006	0.212717
Cl81	Cl	1.216502	-0.932442	0.319454
H82	H	0.508120	-0.262333	0.435686
H83	H	1.148055	-0.791739	0.451904
H84	H	1.185612	-0.793138	0.312644
Cl85	Cl	1.107181	-0.931178	0.209638
H86	H	1.149138	-0.918810	0.451305
Cl87	Cl	0.645806	-0.503452	0.393177
Cl88	Cl	0.962217	-0.932575	0.250311
Cl89	Cl	0.494524	-0.394337	0.502722
Cl90	Cl	1.025620	-0.500641	0.930849
Cl91	Cl	0.926294	-0.930408	0.401197
H92	H	0.633872	-0.401018	0.471879
Cl93	Cl	0.494601	-0.462966	0.248279
H94	H	0.633930	-0.435766	0.262545
H95	H	1.114781	-0.241902	0.921414
