data_functionalizedCrystal
_audit_creation_method	'MofGen! by Chris Wilmer'
_symmetry_space_group_name_H-M	'P1'
_symmetry_Int_Tables_number	1
_symmetry_cell_setting	triclinic
loop_
_symmetry_equiv_pos_as_xyz
  x,y,z
_cell_length_a	12.645331
_cell_length_b	19.121063
_cell_length_c	12.645323
_cell_angle_alpha	92.408124
_cell_angle_beta	89.977324
_cell_angle_gamma	92.467980
loop_
_atom_site_label
_atom_site_type_symbol
_atom_site_fract_x
_atom_site_fract_y
_atom_site_fract_z
Zn1	Zn	1.602654	-0.279627	-0.617388
Zn2	Zn	1.594942	-0.397086	-0.447665
Zn3	Zn	1.425367	-0.279651	-0.440134
Zn4	Zn	1.417760	-0.397040	-0.624877
O5	O	1.510181	-0.338351	-0.532516
O6	O	1.749978	-0.295217	-0.594892
O7	O	1.572404	-0.381537	-0.298321
O8	O	1.455295	-0.181363	-0.457361
O9	O	1.744312	-0.381514	-0.470197
O10	O	1.585547	-0.181346	-0.587589
O11	O	1.447818	-0.295258	-0.292788
O12	O	1.276011	-0.295213	-0.464623
O13	O	1.442330	-0.381436	-0.772230
O14	O	1.270422	-0.381459	-0.600353
O15	O	1.578171	-0.295173	-0.766727
O16	O	1.565027	-0.495364	-0.477459
O17	O	1.434852	-0.495330	-0.607656
C18	C	1.234752	-0.338334	-0.532485
C19	C	1.116921	-0.338344	-0.532497
C20	C	0.952854	-0.283838	-0.447545
C21	C	1.075405	-0.283979	-0.447195
C22	C	1.067618	-0.412331	-0.506730
C23	C	0.945039	-0.412033	-0.506155
C24	C	0.950986	-0.319567	-0.643576
C25	C	1.073698	-0.317914	-0.642847
C26	C	1.498306	-0.520831	-0.544210
C27	C	1.493323	-0.598897	-0.549248
C28	C	1.558810	-0.635567	-0.483885
C29	C	1.554130	-0.708918	-0.488629
C30	C	1.483957	-0.745598	-0.558733
C31	C	1.418467	-0.708923	-0.624104
C32	C	1.423154	-0.635573	-0.619364
C33	C	1.466419	-0.967067	-0.576438
C34	C	1.461736	-1.040422	-0.581171
C35	C	1.597400	-1.040412	-0.445697
C36	C	1.602076	-0.967061	-0.440959
C37	C	1.536590	-0.930392	-0.506334
C38	C	1.479169	-0.820575	-0.563582
C39	C	1.541384	-0.855417	-0.501489
C40	C	1.786685	-0.338368	-0.532549
C41	C	1.904514	-0.338375	-0.532563
C42	C	1.510262	-0.338296	-0.809018
C43	C	1.510297	-0.338273	-0.926847
C44	C	1.522130	-0.155158	-0.520800
C45	C	1.527222	-0.077092	-0.515807
C46	C	1.424603	-0.392285	-1.097856
C47	C	1.424801	-0.392553	-0.975313
C48	C	1.620698	-0.358362	-0.972656
C49	C	1.620225	-0.358700	-1.095276
C50	C	1.486666	-0.263871	-1.089271
C51	C	1.484145	-0.264317	-0.966693
C52	C	1.510164	-0.338354	-0.257087
C53	C	1.510347	-0.338179	-0.139246
H54	H	0.919439	-0.359290	-0.706863
C55	C	1.669435	-1.080748	-0.373800
H56	H	1.656603	-1.129686	-0.386666
H57	H	1.654728	-1.068770	-0.301784
H58	H	1.741428	-1.068681	-0.388612
H59	H	1.598523	-0.825550	-0.444415
H60	H	1.109052	-0.229114	-0.462801
C61	C	1.571101	-0.209410	-1.124969
H62	H	1.556375	-0.164617	-1.094511
H63	H	1.570044	-0.207742	-1.199933
H64	H	1.638982	-0.222273	-1.102470
C65	C	1.351120	-0.595236	-0.691265
H66	H	1.308650	-0.627586	-0.733690
H67	H	1.393483	-0.566580	-0.735638
H68	H	1.306771	-0.566666	-0.648823
C69	C	1.384551	-1.080769	-0.658297
H70	H	1.346229	-1.048426	-0.696562
H71	H	1.336548	-1.109428	-0.619559
H72	H	1.423269	-1.109338	-0.706366
H73	H	1.106322	-0.263468	-0.662363
H74	H	1.413096	-0.937218	-0.629667
C75	C	1.401978	-0.860922	-0.640690
H76	H	1.363646	-0.828580	-0.678947
H77	H	1.353985	-0.889584	-0.601947
H78	H	1.440693	-0.889488	-0.688767
C79	C	1.341280	-0.749266	-0.701221
H80	H	1.302957	-0.716919	-0.739478
H81	H	1.293279	-0.777924	-0.662482
H82	H	1.379992	-0.777834	-0.749297
H83	H	1.686088	-0.320200	-0.941072
H84	H	1.342785	-0.379982	-0.944405
H85	H	1.402923	-0.249167	-0.936622
H86	H	1.342333	-0.379835	-1.126531
H87	H	0.915362	-0.427984	-0.425139
H88	H	0.926948	-0.228808	-0.462935
C89	C	1.444962	-0.466239	-1.144242
H90	H	1.505493	-0.464285	-1.188719
H91	H	1.385153	-0.483453	-1.184347
H92	H	1.456820	-0.496600	-1.088275
C93	C	1.679223	-0.926714	-0.363805
H94	H	1.672614	-0.877778	-0.370324
H95	H	1.749694	-0.938673	-0.380113
H96	H	1.662924	-0.938794	-0.293356
H97	H	1.440044	-0.447641	-0.949534
C98	C	1.562867	-0.206978	-0.921660
H99	H	1.612943	-0.227484	-0.877778
H100	H	1.525575	-0.173096	-0.881181
H101	H	1.598675	-0.184988	-0.978248
C102	C	0.910116	-0.300442	-0.336928
H103	H	0.862943	-0.340468	-0.342330
H104	H	0.873611	-0.261547	-0.308506
H105	H	0.967437	-0.309572	-0.291706
H106	H	1.640858	-0.413021	-1.127372
H107	H	1.097224	-0.428555	-0.426612
C108	C	1.636003	-0.595225	-0.406771
H109	H	1.674341	-0.627572	-0.368531
H110	H	1.597305	-0.566654	-0.358696
H111	H	1.684006	-0.566569	-0.445523
H112	H	1.103879	-0.296410	-0.364833
C113	C	1.709119	-0.307789	-1.132108
H114	H	1.745366	-0.286996	-1.072134
H115	H	1.679407	-0.272253	-1.171558
H116	H	1.757444	-0.332722	-1.175341
C117	C	0.901320	-0.468727	-0.586595
H118	H	0.958484	-0.491848	-0.619463
H119	H	0.861021	-0.447479	-0.638869
H120	H	0.857500	-0.501822	-0.551094
C121	C	1.626161	-0.749252	-0.416724
H122	H	1.668614	-0.716901	-0.374284
H123	H	1.670509	-0.777821	-0.459159
H124	H	1.583792	-0.777909	-0.372348
C125	C	1.649186	-0.430977	-0.935874
H126	H	1.716134	-0.442667	-0.964004
H127	H	1.596842	-0.465018	-0.960160
H128	H	1.652172	-0.430039	-0.860759
C129	C	1.103384	-0.468697	-0.588026
H130	H	1.148816	-0.447557	-0.638522
H131	H	1.043152	-0.490157	-0.623017
H132	H	1.140272	-0.503145	-0.552687
C133	C	0.913884	-0.247956	-0.676473
H134	H	0.869701	-0.228856	-0.622803
H135	H	0.875362	-0.253743	-0.740949
H136	H	0.973706	-0.217081	-0.685934
H137	H	1.407816	-0.245560	-1.119000
H138	H	1.101976	-0.354739	-0.709195
