data_functionalizedCrystal
_audit_creation_method	'MofGen! by Chris Wilmer'
_symmetry_space_group_name_H-M	'P1'
_symmetry_Int_Tables_number	1
_symmetry_cell_setting	triclinic
loop_
_symmetry_equiv_pos_as_xyz
  x,y,z
_cell_length_a	14.044220
_cell_length_b	9.798715
_cell_length_c	10.723024
_cell_angle_alpha	90.004017
_cell_angle_beta	91.171627
_cell_angle_gamma	89.995876
loop_
_atom_site_label
_atom_site_type_symbol
_atom_site_fract_x
_atom_site_fract_y
_atom_site_fract_z
O1	O	0.133040	-0.113506	-1.670498
O2	O	0.633040	0.386494	-1.170498
O3	O	0.145774	-0.113507	-1.308619
O4	O	0.645774	0.386493	-0.808619
O5	O	0.001387	-0.113493	-1.484127
O6	O	0.501387	0.386507	-0.984127
O7	O	0.277427	-0.113520	-1.494990
O8	O	0.777427	0.386480	-0.994990
O9	O	0.001387	0.113489	-1.484112
O10	O	0.501387	0.613489	-0.984112
O11	O	0.145774	0.113475	-1.308605
O12	O	0.645774	0.613475	-0.808605
O13	O	0.133039	0.113476	-1.670483
O14	O	0.633039	0.613476	-1.170483
Zn15	Zn	0.139407	0.149514	-1.489542
Zn16	Zn	0.639407	0.649514	-0.989542
Zn17	Zn	0.139407	-0.149545	-1.489561
Zn18	Zn	0.639407	0.350455	-0.989561
O19	O	0.277427	0.113462	-1.494976
O20	O	0.777427	0.613462	-0.994976
C21	C	-0.033958	-0.000002	-1.479364
C22	C	0.466042	0.499998	-0.979364
C23	C	-0.139276	0.000000	-1.465180
C24	C	0.360724	0.500000	-0.965180
C25	C	0.144847	-0.000016	-1.262020
C26	C	0.644847	0.499984	-0.762020
C27	C	0.142075	-0.000016	-1.123188
C28	C	0.642075	0.499984	-0.623188
N29	N	0.139406	0.353613	-1.489538
N30	N	0.639406	0.853613	-0.989538
C31	C	-0.332106	-0.000020	-1.439248
C32	C	0.167894	0.499980	-0.939248
C33	C	-0.389085	-0.000024	-1.539849
C34	C	0.110915	0.499976	-1.039849
C35	C	-0.496383	-0.000035	-1.525420
C36	C	0.003617	0.499965	-1.025420
C37	C	-0.224799	-0.000009	-1.453675
C38	C	0.275201	0.499991	-0.953675
C39	C	0.312772	-0.000033	-1.499738
C40	C	0.812772	0.499967	-0.999738
C41	C	0.418090	-0.000043	-1.513923
C42	C	0.918090	0.499957	-1.013923
N43	N	0.139401	-0.353645	-1.489573
N44	N	0.639401	0.146355	-0.989573
C45	C	0.078514	0.421396	-1.563202
C46	C	0.578514	0.921396	-1.063202
C47	C	0.078511	0.578559	-1.563222
C48	C	0.578511	1.078559	-1.063222
C49	C	0.222866	-0.000024	-1.056288
C50	C	0.722866	0.499976	-0.556288
C51	C	0.220002	-0.000024	-0.912798
C52	C	0.720002	0.499976	-0.412798
C53	C	0.133966	-0.000015	-0.717083
C54	C	0.633966	0.499985	-0.217083
C55	C	0.136739	-0.000016	-0.855914
C56	C	0.636739	0.499984	-0.355914
H57	H	-0.357284	-0.000115	-1.636814
H58	H	0.142716	0.499885	-1.136814
O59	O	0.047636	0.000003	-1.058363
O60	O	0.547636	0.500003	-0.558363
H61	H	0.042371	-0.092514	-0.999184
H62	H	0.542371	0.407486	-0.499184
H63	H	-0.363906	-0.000023	-1.342291
H64	H	0.136094	0.499977	-0.842291
O65	O	0.208475	0.430837	-1.406022
O66	O	0.708475	0.930837	-0.906022
H67	H	0.168233	0.495968	-1.340795
H68	H	0.668233	0.995968	-0.840795
O69	O	0.009430	0.344164	-1.646690
O70	O	0.509430	0.844164	-1.146690
H71	H	0.020264	0.232842	-1.633559
H72	H	0.520264	0.732842	-1.133559
H73	H	0.294155	-0.000023	-1.105243
H74	H	0.794155	0.499977	-0.605243
O75	O	0.009449	0.655754	-1.646766
O76	O	0.509449	1.155754	-1.146766
H77	H	0.020279	0.767081	-1.633665
H78	H	0.520279	1.267081	-1.133665
H79	H	0.191538	0.588074	-1.426508
H80	H	0.691538	1.088074	-0.926508
H81	H	0.289166	-0.000036	-0.855286
H82	H	0.789166	0.499964	-0.355286
H83	H	0.067571	-0.000017	-0.913420
H84	H	0.567571	0.499983	-0.413420
