data_functionalizedCrystal
_audit_creation_method	'MofGen! by Chris Wilmer'
_symmetry_space_group_name_H-M	'P1'
_symmetry_Int_Tables_number	1
_symmetry_cell_setting	triclinic
loop_
_symmetry_equiv_pos_as_xyz
  x,y,z
_cell_length_a	14.519709
_cell_length_b	17.038272
_cell_length_c	13.596369
_cell_angle_alpha	89.993837
_cell_angle_beta	90.000291
_cell_angle_gamma	87.395851
loop_
_atom_site_label
_atom_site_type_symbol
_atom_site_fract_x
_atom_site_fract_y
_atom_site_fract_z
O1	O	1.231711	0.102502	-0.081664
O2	O	0.964158	0.114573	-0.081694
O3	O	1.096344	-0.005280	-0.081671
O4	O	1.099525	0.222356	-0.081686
O5	O	1.096330	-0.005286	0.081912
O6	O	0.964143	0.114567	0.081889
O7	O	1.231696	0.102496	0.081919
Zn8	Zn	1.097918	0.108530	0.107877
Zn9	Zn	1.097937	0.108539	-0.107651
O10	O	1.099510	0.222349	0.081897
C11	C	0.929748	0.114008	0.000094
C12	C	0.827237	0.112322	0.000083
C13	C	0.451867	0.106116	0.000128
C14	C	0.556307	0.107839	0.000115
C15	C	0.639549	0.109219	0.000104
C16	C	0.743995	0.110942	0.000093
C17	C	1.093444	-0.034416	0.000120
C18	C	1.084814	-0.121223	0.000119
C19	C	1.164047	-0.171209	0.000129
C20	C	1.155933	-0.252773	0.000118
C21	C	1.068585	-0.284349	0.000105
C22	C	0.989347	-0.234357	0.000092
C23	C	0.997462	-0.152795	0.000096
C24	C	1.039916	-0.530153	0.000089
C25	C	1.031807	-0.611722	0.000088
C26	C	1.198394	-0.630132	0.000112
C27	C	1.206502	-0.548568	0.000122
C28	C	1.127263	-0.498583	0.000104
C29	C	1.060289	-0.367720	0.000098
C30	C	1.135560	-0.415213	0.000104
C31	C	1.266107	0.103062	0.000129
C32	C	1.368617	0.104748	0.000134
C33	C	1.102410	0.251486	0.000103
C34	C	1.111040	0.338292	0.000098
N35	N	1.097911	0.108524	0.254968
N36	N	1.097950	0.108539	-0.254743
C37	C	1.097936	0.108540	0.656259
C38	C	1.097926	0.108538	0.544608
C39	C	1.097924	0.108533	0.455617
C40	C	1.097913	0.108530	0.343959
H41	H	1.220453	-0.293468	0.000129
C42	C	0.896436	-0.341336	0.000078
C43	C	0.964276	-0.402431	0.000084
H44	H	0.837163	-0.362769	0.000060
H45	H	0.903054	-0.309917	0.057124
H46	H	0.903075	-0.309896	-0.056966
H47	H	0.957641	-0.433868	0.057133
H48	H	0.957655	-0.433863	-0.056968
H49	H	1.235175	-0.145506	0.000145
C50	C	1.370351	-0.574961	0.000144
C51	C	1.302517	-0.513862	0.000137
H52	H	1.429627	-0.553533	0.000153
H53	H	1.363713	-0.606396	0.057181
H54	H	1.363726	-0.606384	-0.056909
H55	H	1.309138	-0.482442	0.057195
H56	H	1.309159	-0.482413	-0.056906
H57	H	1.262906	-0.670838	0.000125
C58	C	0.867949	-0.585335	0.000034
C59	C	0.935787	-0.646432	0.000058
H60	H	0.808675	-0.606766	0.000009
H61	H	0.874560	-0.553912	0.057078
H62	H	0.874598	-0.553900	-0.057012
H63	H	0.929142	-0.677864	0.057109
H64	H	0.929173	-0.677868	-0.056992
H65	H	0.975394	-0.489465	0.000074
C66	C	0.831984	-0.142784	0.000079
C67	C	0.910367	-0.097847	0.000087
H68	H	0.778215	-0.108860	0.000076
H69	H	0.832291	-0.174973	-0.056962
H70	H	0.832283	-0.174986	0.057129
H71	H	0.910072	-0.065649	-0.056966
H72	H	0.910060	-0.065644	0.057134
C73	C	1.241327	-0.334159	-0.083968
C74	C	1.231570	-0.380504	0.000119
H75	H	1.300598	-0.312723	-0.083951
H76	H	1.234719	-0.365592	-0.141004
H77	H	1.195288	-0.292723	-0.083967
H78	H	1.277605	-0.421943	0.000114
H79	H	1.238187	-0.349069	0.057170
H80	H	0.918226	-0.260072	0.000075
