data_functionalizedCrystal
_audit_creation_method	'MofGen! by Chris Wilmer'
_symmetry_space_group_name_H-M	'P1'
_symmetry_Int_Tables_number	1
_symmetry_cell_setting	triclinic
loop_
_symmetry_equiv_pos_as_xyz
  x,y,z
_cell_length_a	11.792241
_cell_length_b	10.654550
_cell_length_c	9.130313
_cell_angle_alpha	90.000110
_cell_angle_beta	89.996046
_cell_angle_gamma	84.339159
loop_
_atom_site_label
_atom_site_type_symbol
_atom_site_fract_x
_atom_site_fract_y
_atom_site_fract_z
O1	O	-1.507300	-0.172130	-0.121653
O2	O	-1.177000	-0.189870	-0.121687
O3	O	-1.349744	0.001761	-0.121664
O4	O	-1.334556	-0.363761	-0.121676
O5	O	-1.349742	0.001756	0.121935
O6	O	-1.176998	-0.189875	0.121912
O7	O	-1.507298	-0.172135	0.121946
Cu8	Cu	-1.342148	-0.181006	0.144171
Cu9	Cu	-1.342150	-0.180999	-0.143912
O10	O	-1.334554	-0.363766	0.121923
C11	C	-1.134705	-0.188758	0.000108
C12	C	-1.008684	-0.185423	0.000095
C13	C	-1.348628	0.048553	0.000134
C14	C	-1.345291	0.187987	0.000128
C15	C	-1.549592	-0.173247	0.000147
C16	C	-1.675614	-0.176582	0.000151
C17	C	-0.777958	-0.179290	0.000138
C18	C	-0.906351	-0.182697	0.000114
C19	C	-1.335670	-0.410558	0.000122
C20	C	-1.339006	-0.549992	0.000118
N21	N	-1.342154	-0.181009	0.346794
C22	C	-1.447000	0.267760	0.000143
C23	C	-1.443858	0.398772	0.000133
C24	C	-1.237290	0.370224	0.000099
C25	C	-1.240433	0.239215	0.000099
C26	C	-1.551859	0.216532	0.000173
C27	C	-1.653577	0.296307	0.000189
C28	C	-1.650435	0.427319	0.000179
C29	C	-1.545575	0.478556	0.000152
N30	N	-1.342152	-0.180986	-0.346535
C31	C	-1.418665	-0.096184	0.423456
C32	C	-1.418662	-0.096169	0.576793
C33	C	-1.265633	-0.265815	0.576792
C34	C	-1.265632	-0.265823	0.423458
C35	C	-1.495187	-0.011370	0.346792
C36	C	-1.571705	0.073461	0.423455
C37	C	-1.571702	0.073476	0.576791
C38	C	-1.495181	-0.011340	0.653466
H39	H	-1.738949	0.254580	0.000175
H40	H	-1.733258	0.492268	0.000177
H41	H	-1.495177	-0.011312	0.778323
O42	O	-1.191429	-0.348398	0.349042
C43	C	-1.210827	-0.472861	0.386539
H44	H	-1.301699	-0.474157	0.428704
H45	H	-1.148202	-0.509279	0.475533
C46	C	-1.082248	-0.556282	0.198536
C47	C	-1.193863	-0.557875	0.250313
H48	H	-1.071779	-0.608725	0.114509
H49	H	-1.069175	-0.472429	0.173276
H50	H	-1.030074	-0.586627	0.272711
H51	H	-1.246034	-0.527515	0.176146
H52	H	-1.206944	-0.641725	0.275557
H53	H	-1.543025	0.585236	0.000128
H54	H	-1.495199	-0.011377	0.221938
O55	O	-1.135506	0.420142	-0.000111
C56	C	-1.127499	0.495047	-0.126290
H57	H	-1.216703	0.527063	-0.168342
H58	H	-1.077740	0.437517	-0.214640
C59	C	-0.955907	0.572013	-0.036319
C60	C	-1.065469	0.611344	-0.087961
H61	H	-0.917640	0.643747	-0.012681
H62	H	-0.961298	0.521544	0.048687
H63	H	-0.914456	0.524070	-0.109953
H64	H	-1.106922	0.659272	-0.014322
H65	H	-1.060083	0.661823	-0.172955
O66	O	-1.645917	0.156045	0.349074
C67	C	-1.626490	0.280495	0.386593
H68	H	-1.535607	0.281765	0.428712
H69	H	-1.689091	0.316906	0.475627
C70	C	-1.755099	0.363977	0.198676
C71	C	-1.643471	0.365538	0.250396
H72	H	-1.765578	0.416439	0.114667
H73	H	-1.768191	0.280134	0.173402
H74	H	-1.807253	0.394317	0.272884
H75	H	-1.591319	0.335184	0.176195
H76	H	-1.630371	0.449380	0.275655
H77	H	-1.554429	0.109857	0.000186
H78	H	-1.157612	0.174261	0.000089
O79	O	-1.645866	0.156005	0.651329
C80	C	-1.584484	0.233934	0.740035
H81	H	-1.494960	0.236726	0.693817
H82	H	-1.578841	0.194684	0.856248
C83	C	-1.755944	0.364880	0.799144
C84	C	-1.645992	0.368317	0.742372
H85	H	-1.793886	0.447773	0.800593
H86	H	-1.797299	0.312376	0.739386
H87	H	-1.751226	0.332166	0.895984
H88	H	-1.650711	0.401016	0.645529
H89	H	-1.604638	0.420830	0.802114
H90	H	-1.203334	-0.334870	0.639230
