data_functionalizedCrystal
_audit_creation_method	'MofGen! by Chris Wilmer'
_symmetry_space_group_name_H-M	'P1'
_symmetry_Int_Tables_number	1
_symmetry_cell_setting	triclinic
loop_
_symmetry_equiv_pos_as_xyz
  x,y,z
_cell_length_a	14.044220
_cell_length_b	15.995350
_cell_length_c	13.101039
_cell_angle_alpha	93.364563
_cell_angle_beta	86.340132
_cell_angle_gamma	88.340626
loop_
_atom_site_label
_atom_site_type_symbol
_atom_site_fract_x
_atom_site_fract_y
_atom_site_fract_z
O1	O	1.262914	0.197637	-0.085096
O2	O	1.762914	0.697637	0.414904
O3	O	0.986946	0.190352	-0.085122
O4	O	1.486946	0.690352	0.414878
O5	O	1.132474	0.072670	-0.085107
O6	O	1.632474	0.572670	0.414893
O7	O	1.117386	0.315319	-0.085111
O8	O	1.617386	0.815319	0.414889
O9	O	1.122032	0.081129	0.085321
O10	O	1.622032	0.581129	0.585321
O11	O	0.976505	0.198810	0.085307
O12	O	1.476505	0.698810	0.585307
O13	O	1.252472	0.206096	0.085333
O14	O	1.752472	0.706096	0.585333
Zn15	Zn	1.112831	0.203796	0.112379
Zn16	Zn	1.612831	0.703796	0.612379
Zn17	Zn	1.126588	0.192651	-0.112168
Zn18	Zn	1.626588	0.692651	0.387832
O19	O	1.106945	0.323777	0.085318
O20	O	1.606945	0.823777	0.585318
C21	C	0.946411	0.191392	0.000089
C22	C	1.446411	0.691392	0.500089
C23	C	0.841186	0.181881	0.000079
C24	C	1.341186	0.681881	0.500079
C25	C	1.126629	0.045658	0.000105
C26	C	1.626629	0.545658	0.500105
C27	C	1.124760	-0.047432	0.000099
C28	C	1.624760	0.452568	0.500099
C29	C	0.648524	0.164494	0.000099
C30	C	1.148524	0.664494	0.500099
C31	C	0.590890	0.231950	0.000102
C32	C	1.090890	0.731950	0.500102
C33	C	0.483686	0.222275	0.000114
C34	C	0.983686	0.722275	0.500114
C35	C	0.755738	0.174167	0.000088
C36	C	1.255738	0.674167	0.500088
C37	C	1.118044	-0.385681	0.000102
C38	C	1.618044	0.114319	0.500102
C39	C	1.014425	-0.346007	-0.000290
C40	C	1.514425	0.153993	0.499710
C41	C	1.016272	-0.249158	0.000094
C42	C	1.516272	0.250842	0.500094
C43	C	1.121375	-0.217872	0.000100
C44	C	1.621375	0.282128	0.500100
C45	C	1.166533	-0.250301	0.097426
C46	C	1.666533	0.249699	0.597426
C47	C	1.163924	-0.347127	0.097507
C48	C	1.663924	0.152873	0.597507
C49	C	1.177939	-0.356944	-0.096302
C50	C	1.677939	0.143056	0.403698
C51	C	1.177993	-0.260065	-0.097588
C52	C	1.677993	0.239935	0.402412
C53	C	1.123263	-0.123033	0.000102
C54	C	1.623263	0.376967	0.500102
C55	C	1.116159	-0.480519	0.000106
C56	C	1.616159	0.019481	0.500106
C57	C	1.293008	0.205055	0.000120
C58	C	1.793008	0.705055	0.500120
C59	C	1.398233	0.214566	0.000123
C60	C	1.898233	0.714566	0.500123
C61	C	1.112789	0.350789	0.000103
C62	C	1.612789	0.850789	0.500103
C63	C	1.114659	0.443879	0.000103
C64	C	1.614659	0.943879	0.500103
N65	N	1.103449	0.211402	0.265626
N66	N	1.603449	0.711402	0.765626
N67	N	1.135977	0.185039	-0.265416
N68	N	1.635977	0.685039	0.234584
C69	C	1.090685	0.221758	0.474668
C70	C	1.590685	0.721758	0.974668
C71	C	1.148739	0.174686	0.525549
C72	C	1.648739	0.674686	1.025549
C73	C	1.141636	0.180448	0.641867
C74	C	1.641636	0.680448	1.141867
C75	C	1.097786	0.215997	0.358340
C76	C	1.597786	0.715997	0.858340
H77	H	0.617354	0.099482	0.000106
H78	H	1.117354	0.599482	0.500106
N79	N	1.017795	0.280880	0.532665
N80	N	1.517795	0.780880	1.032665
H81	H	0.951606	0.265380	0.514067
H82	H	1.451606	0.765380	1.014067
H83	H	1.023077	0.276646	0.608722
H84	H	1.523077	0.776646	1.108722
N85	N	0.968706	-0.220063	-0.092316
N86	N	1.468706	0.279937	0.407684
H87	H	0.946345	-0.270182	-0.133668
H88	H	1.446345	0.229818	0.366332
H89	H	0.912158	-0.181666	-0.068994
H90	H	1.412158	0.318334	0.431006
N91	N	0.957023	-0.211647	0.092657
N92	N	1.457023	0.288353	0.592657
H93	H	0.929607	-0.258034	0.133373
H94	H	1.429607	0.241966	0.633373
H95	H	0.998550	-0.176297	0.136927
H96	H	1.498550	0.323703	0.636927
N97	N	1.113619	-0.211473	0.193361
N98	N	1.613619	0.288527	0.693361
H99	H	1.143204	-0.232731	0.255572
H100	H	1.643204	0.267269	0.755572
H101	H	1.117770	-0.148503	0.194377
H102	H	1.617770	0.351497	0.694377
H103	H	1.148573	-0.383676	-0.170069
H104	H	1.648573	0.116324	0.329931
H105	H	0.622062	0.296967	0.000097
H106	H	1.122062	0.796967	0.500097
H107	H	1.122190	-0.364602	0.170256
H108	H	1.622190	0.135398	0.670256
N109	N	1.268519	-0.223707	0.102213
N110	N	1.768519	0.276293	0.602213
H111	H	1.275125	-0.187992	0.167394
H112	H	1.775125	0.312008	0.667394
H113	H	1.312245	-0.275041	0.101208
H114	H	1.812245	0.224959	0.601208
H115	H	1.203775	0.130059	0.481753
H116	H	1.703775	0.630059	0.981753
H117	H	1.254999	-0.239269	-0.103460
H118	H	1.754999	0.260731	0.396540
N119	N	0.965206	-0.379240	-0.092735
N120	N	1.465206	0.120760	0.407265
H121	H	1.009594	-0.420337	-0.135261
H122	H	1.509594	0.079663	0.364739
H123	H	0.905505	-0.408373	-0.069429
H124	H	1.405505	0.091627	0.430571
N125	N	1.264350	-0.382028	0.103399
N126	N	1.764350	0.117972	0.603399
H127	H	1.263439	-0.445138	0.103503
H128	H	1.763439	0.054862	0.603503
H129	H	1.305399	-0.365418	0.042230
H130	H	1.805399	0.134582	0.542230
H131	H	1.145029	-0.239181	-0.169587
H132	H	1.645029	0.260819	0.330413
N133	N	0.954159	-0.371464	0.091638
N134	N	1.454159	0.128536	0.591638
H135	H	0.897593	-0.403080	0.067877
H136	H	1.397593	0.096920	0.567877
H137	H	0.993757	-0.408556	0.133497
H138	H	1.493757	0.091444	0.633497
N139	N	1.279213	-0.391492	-0.097170
N140	N	1.779213	0.108508	0.402830
H141	H	1.286306	-0.425595	-0.035455
H142	H	1.786306	0.074405	0.464545
H143	H	1.294492	-0.428297	-0.161776
H144	H	1.794492	0.071703	0.338224
