data_functionalizedCrystal
_audit_creation_method	'MofGen! by Chris Wilmer'
_symmetry_space_group_name_H-M	'P1'
_symmetry_Int_Tables_number	1
_symmetry_cell_setting	triclinic
loop_
_symmetry_equiv_pos_as_xyz
  x,y,z
_cell_length_a	12.645331
_cell_length_b	12.759400
_cell_length_c	12.759393
_cell_angle_alpha	90.032166
_cell_angle_beta	89.979239
_cell_angle_gamma	89.979361
loop_
_atom_site_label
_atom_site_type_symbol
_atom_site_fract_x
_atom_site_fract_y
_atom_site_fract_z
Zn1	Zn	1.620682	0.418231	-0.594073
Zn2	Zn	1.620557	0.593950	-0.418392
Zn3	Zn	1.443403	0.418283	-0.418402
Zn4	Zn	1.443366	0.593865	-0.594023
O5	O	1.532002	0.506082	-0.506223
O6	O	1.769013	0.441554	-0.570785
O7	O	1.597020	0.570705	-0.271372
O8	O	1.466986	0.271255	-0.441731
O9	O	1.768921	0.570655	-0.441713
O10	O	1.597233	0.271217	-0.570795
O11	O	1.466866	0.441643	-0.271380
O12	O	1.295050	0.441560	-0.441682
O13	O	1.466924	0.570510	-0.741051
O14	O	1.295024	0.570560	-0.570710
O15	O	1.597198	0.441472	-0.741088
O16	O	1.596985	0.740960	-0.441665
O17	O	1.466803	0.740898	-0.570700
C18	C	1.256572	0.506057	-0.506192
C19	C	1.138742	0.506072	-0.506204
C20	C	0.971160	0.424545	-0.425481
C21	C	1.093719	0.424756	-0.425125
C22	C	1.094215	0.616750	-0.475959
C23	C	0.971617	0.616305	-0.475408
C24	C	0.971591	0.477974	-0.617485
C25	C	1.094197	0.475501	-0.616867
C26	C	1.531906	0.779050	-0.506199
C27	C	1.531961	0.895826	-0.506224
C28	C	1.599738	0.950589	-0.573481
C29	C	1.599771	1.060313	-0.573504
C30	C	1.464247	1.060502	-0.439003
C31	C	1.464209	0.950780	-0.438986
C32	C	1.667490	0.895635	-0.640719
C33	C	1.735274	0.950397	-0.707981
C34	C	1.735307	1.060121	-0.708004
C35	C	1.667556	1.115083	-0.640765
C36	C	1.808507	0.506108	-0.506254
C37	C	1.926337	0.506119	-0.506267
C38	C	1.532071	0.505975	-0.780256
C39	C	1.532100	0.505930	-0.897033
C40	C	1.532090	1.232049	-0.506263
C41	C	1.532032	1.115272	-0.506263
C42	C	1.464357	0.438715	-0.951905
C43	C	1.464389	0.438683	-1.061629
C44	C	1.599916	0.573085	-1.061600
C45	C	1.599878	0.573121	-0.951877
C46	C	1.396579	0.371523	-0.897060
C47	C	1.328832	0.304302	-0.951932
C48	C	1.328864	0.304271	-1.061657
C49	C	1.396643	0.371461	-1.116509
C50	C	1.531994	0.506113	-0.233255
C51	C	1.532170	0.505863	-0.116479
H52	H	1.122999	0.443359	-0.342708
H53	H	1.667473	0.806292	-0.640706
H54	H	1.273642	0.249604	-0.907265
Cl55	Cl	1.141539	0.654235	-0.351773
Cl56	Cl	0.923516	0.452927	-0.298985
H57	H	1.123825	0.342684	-0.444083
Cl58	Cl	1.379006	0.881931	-0.354428
H59	H	1.790491	1.104706	-0.762780
H60	H	1.667576	1.204428	-0.640801
H61	H	1.273694	0.249543	-1.106330
Cl62	Cl	0.927387	0.653149	-0.349877
Cl63	Cl	1.396677	0.371423	-1.254449
H64	H	1.790428	0.905642	-0.762732
H65	H	1.655102	0.627786	-1.106269
H66	H	1.409088	1.105261	-0.384259
Cl67	Cl	1.396539	0.371554	-0.759122
Cl68	Cl	1.685037	0.657627	-0.882890
Cl69	Cl	1.139157	0.349763	-0.652095
H70	H	0.941701	0.342226	-0.444235
H71	H	0.940699	0.398675	-0.644992
Cl72	Cl	0.925833	0.713325	-0.562282
H73	H	1.124849	0.530581	-0.680279
H74	H	0.942606	0.537389	-0.677678
Cl75	Cl	1.139225	0.713100	-0.563959
