data_functionalizedCrystal
_audit_creation_method	'MofGen! by Chris Wilmer'
_symmetry_space_group_name_H-M	'P1'
_symmetry_Int_Tables_number	1
_symmetry_cell_setting	triclinic
loop_
_symmetry_equiv_pos_as_xyz
  x,y,z
_cell_length_a	14.971486
_cell_length_b	17.699083
_cell_length_c	13.448316
_cell_angle_alpha	89.992503
_cell_angle_beta	89.998199
_cell_angle_gamma	83.448572
loop_
_atom_site_label
_atom_site_type_symbol
_atom_site_fract_x
_atom_site_fract_y
_atom_site_fract_z
O1	O	1.186608	0.098633	-0.082580
O2	O	0.926168	0.110445	-0.082607
O3	O	1.063746	-0.005632	-0.082584
O4	O	1.049030	0.214710	-0.082603
O5	O	1.063729	-0.005639	0.082800
O6	O	0.926150	0.110438	0.082777
O7	O	1.186591	0.098626	0.082804
Cu8	Cu	1.056369	0.104531	0.097891
Cu9	Cu	1.056390	0.104540	-0.097694
O10	O	1.049013	0.214703	0.082781
C11	C	0.892836	0.109913	0.000082
C12	C	0.793544	0.108330	0.000071
C13	C	0.736085	0.176522	0.000067
C14	C	0.642790	0.175030	0.000082
C15	C	0.606958	0.105346	0.000094
C16	C	0.664425	0.037148	0.000102
C17	C	0.757717	0.038641	0.000094
C18	C	0.469973	0.034042	0.000116
C19	C	0.376674	0.032549	0.000122
C20	C	0.355046	0.170431	0.000104
C21	C	0.448339	0.171924	0.000096
C22	C	0.505799	0.103726	0.000102
C23	C	1.063210	-0.033834	0.000108
C24	C	1.061628	-0.117856	0.000109
C25	C	1.142384	-0.166278	0.000118
C26	C	1.140892	-0.245225	0.000110
C27	C	1.058644	-0.275748	0.000098
C28	C	0.977882	-0.227320	0.000085
C29	C	0.979375	-0.148374	0.000087
C30	C	0.971860	-0.545698	0.000076
C31	C	0.970374	-0.624649	0.000077
C32	C	1.133378	-0.642548	0.000099
C33	C	1.134871	-0.563603	0.000101
C34	C	1.054109	-0.515181	0.000083
C35	C	1.055728	-0.429578	0.000090
C36	C	1.057024	-0.361350	0.000097
C37	C	1.219923	0.099158	0.000114
C38	C	1.319214	0.100741	0.000117
C39	C	1.049549	0.242905	0.000087
C40	C	1.051131	0.326927	0.000080
N41	N	1.056361	0.104525	0.235456
N42	N	1.056404	0.104540	-0.235258
C43	C	1.117300	0.053147	0.287506
C44	C	1.117306	0.053147	0.391610
C45	C	1.056376	0.104528	0.443660
C46	C	0.995431	0.155908	0.391602
C47	C	0.995422	0.155904	0.287501
C48	C	0.995456	0.155913	0.608582
C49	C	0.995466	0.155918	0.712691
C50	C	1.117339	0.053155	0.712691
C51	C	1.117330	0.053152	0.608590
C52	C	1.056386	0.104533	0.556539
H53	H	0.804501	-0.016888	0.000097
C54	C	0.879897	-0.658223	0.000051
H55	H	0.832011	-0.618079	0.000030
H56	H	0.875914	-0.688654	0.057722
H57	H	0.875945	-0.688642	-0.057631
H58	H	0.596010	0.230559	0.000077
H59	H	1.209360	-0.141433	0.000134
H60	H	0.906099	-0.506282	0.000062
C61	C	0.887411	-0.260893	0.000075
H62	H	0.898086	-0.314846	0.000086
H63	H	0.854170	-0.244273	-0.057600
H64	H	0.854165	-0.244281	0.057753
C65	C	1.222215	-0.695814	0.000103
H66	H	1.209551	-0.747203	0.000088
H67	H	1.255943	-0.686562	0.057780
H68	H	1.255951	-0.686544	-0.057573
C69	C	0.890544	-0.095110	0.000078
H70	H	0.841345	-0.124594	0.000080
H71	H	0.887745	-0.063936	-0.057595
H72	H	0.887731	-0.063947	0.057759
H73	H	0.477510	0.228667	0.000076
C74	C	1.184322	-0.003374	0.230260
H75	H	1.220609	-0.033977	0.276173
H76	H	1.221491	0.023900	0.189636
H77	H	1.152208	-0.034930	0.189665
H78	H	1.166926	0.011311	0.433989
H79	H	0.308257	0.225960	0.000104
C80	C	0.337259	-0.044102	0.000141
H81	H	0.384840	-0.084504	0.000157
H82	H	0.301314	-0.047550	-0.057529
H83	H	0.301316	-0.047545	0.057824
H84	H	0.765252	0.233267	0.000056
C85	C	0.533178	-0.040974	0.000110
H86	H	0.498477	-0.082690	0.000105
H87	H	0.570030	-0.043267	0.057776
H88	H	0.570011	-0.043248	-0.057577
H89	H	1.166948	0.011317	0.566210
H90	H	0.635242	-0.019590	0.000126
C91	C	1.229723	-0.298486	0.000131
H92	H	1.278921	-0.269001	0.000152
H93	H	1.232545	-0.329651	-0.057542
H94	H	1.232516	-0.329659	0.057812
C95	C	1.184370	-0.003369	0.769942
H96	H	1.175643	0.003983	0.839396
H97	H	1.244043	0.004933	0.752875
H98	H	1.174762	-0.053898	0.752889
H99	H	1.201846	-0.538756	0.000115
H100	H	0.945850	0.197757	0.755065
H101	H	0.945826	0.197751	0.566206
C102	C	0.928382	0.212405	0.448851
H103	H	0.892074	0.242992	0.402939
H104	H	0.960461	0.243968	0.489464
H105	H	0.891223	0.185100	0.489456
H106	H	0.945799	0.197740	0.245122
