data_functionalizedCrystal
_audit_creation_method	'MofGen! by Chris Wilmer'
_symmetry_space_group_name_H-M	'P1'
_symmetry_Int_Tables_number	1
_symmetry_cell_setting	triclinic
loop_
_symmetry_equiv_pos_as_xyz
  x,y,z
_cell_length_a	8.597213
_cell_length_b	15.944493
_cell_length_c	7.681481
_cell_angle_alpha	84.264607
_cell_angle_beta	88.167023
_cell_angle_gamma	84.409965
loop_
_atom_site_label
_atom_site_type_symbol
_atom_site_fract_x
_atom_site_fract_y
_atom_site_fract_z
O1	O	2.036286	0.149725	-0.455320
O2	O	1.586262	0.155691	-0.387050
O3	O	1.823608	0.030633	-0.423071
O4	O	1.798939	0.274783	-0.419299
O5	O	1.852822	0.015205	-0.134647
O6	O	1.615475	0.140263	-0.098626
O7	O	2.065499	0.134296	-0.166896
Zn8	Zn	1.845125	0.134830	-0.086967
Zn9	Zn	1.806635	0.155158	-0.466979
O10	O	1.828153	0.259354	-0.130875
C11	C	1.543281	0.146477	-0.234102
C12	C	1.371691	0.141997	-0.208072
C13	C	1.837206	-0.008392	-0.278713
C14	C	1.834180	-0.101689	-0.278277
C15	C	1.973892	-0.335156	-0.299438
C16	C	1.884149	-0.379355	-0.430216
C17	C	1.828581	-0.272503	-0.277406
C18	C	1.912917	-0.394543	-0.145847
C19	C	1.823184	-0.437503	-0.276558
C20	C	1.738865	-0.315466	-0.408307
C21	C	1.767667	-0.330657	-0.123814
C22	C	1.677814	-0.374823	-0.254610
C23	C	1.831694	-0.177451	-0.277896
C24	C	1.820058	-0.532552	-0.276079
C25	C	2.108479	0.143511	-0.319848
C26	C	2.280068	0.147992	-0.345889
C27	C	1.814555	0.298380	-0.275236
C28	C	1.817579	0.391677	-0.275684
N29	N	1.871405	0.120957	0.172379
N30	N	1.780368	0.169025	-0.726326
H31	H	1.318853	0.133440	-0.070165
O32	O	1.651296	-0.274482	-0.540778
C33	C	1.655280	-0.186345	-0.539657
H34	H	1.764541	-0.173215	-0.470643
H35	H	1.546985	-0.159102	-0.467426
C36	C	1.524134	-0.160733	-0.813997
C37	C	1.658336	-0.144606	-0.729245
H38	H	1.526012	-0.134985	-0.930942
H39	H	1.521443	-0.220112	-0.814750
H40	H	1.433902	-0.138029	-0.753786
H41	H	1.748564	-0.167319	-0.789443
H42	H	1.661042	-0.085230	-0.728506
O43	O	1.528333	-0.395640	-0.231785
C44	C	1.466508	-0.369628	-0.071487
H45	H	1.533301	-0.316445	-0.031787
H46	H	1.478474	-0.425447	0.033735
C47	C	1.210549	-0.402975	-0.140917
C48	C	1.292576	-0.337649	-0.092163
H49	H	1.103258	-0.383252	-0.153666
H50	H	1.252201	-0.420502	-0.248909
H51	H	1.220537	-0.449485	-0.053223
H52	H	1.282604	-0.291144	-0.179866
H53	H	1.250918	-0.320112	0.015815
O54	O	1.669654	0.227669	0.200859
C55	C	1.699395	0.308865	0.241307
H56	H	1.828191	0.308604	0.272539
H57	H	1.624355	0.326577	0.359584
C58	C	1.501075	0.374304	0.045169
C59	C	1.659269	0.373986	0.083514
H60	H	1.476318	0.414475	-0.052160
H61	H	1.481034	0.319601	0.017922
H62	H	1.438561	0.389062	0.143746
H63	H	1.721780	0.359218	-0.015053
H64	H	1.679320	0.428688	0.110741
H65	H	1.718532	-0.309135	0.005720
O66	O	1.942709	-0.405154	-0.584682
C67	C	1.937707	-0.493371	-0.582668
H68	H	1.844833	-0.515117	-0.483566
H69	H	2.056598	-0.527041	-0.544509
C70	C	2.011167	-0.488167	-0.887606
C71	C	1.897088	-0.514875	-0.765897
H72	H	1.986119	-0.501433	-1.000630
H73	H	2.014543	-0.428734	-0.888962
H74	H	2.110234	-0.516227	-0.855784
H75	H	1.798029	-0.486806	-0.797707
H76	H	1.893694	-0.574304	-0.764550
H77	H	1.964353	0.071897	0.233478
O78	O	1.342972	0.158356	-0.510435
C79	C	1.276434	0.234853	-0.597528
H80	H	1.229063	0.279386	-0.496994
H81	H	1.176987	0.221289	-0.682127
C82	C	1.460263	0.221880	-0.837666
C83	C	1.402092	0.276580	-0.714188
H84	H	1.537771	0.247618	-0.909634
H85	H	1.505088	0.170341	-0.778994
H86	H	1.377377	0.210582	-0.908147
H87	H	1.484974	0.287869	-0.643696
H88	H	1.357284	0.328122	-0.772851
O89	O	2.123083	-0.313895	-0.322467
C90	C	2.133582	-0.257504	-0.475001
H91	H	2.012996	-0.224060	-0.506312
H92	H	2.178917	-0.294294	-0.589041
C93	C	2.394807	-0.232460	-0.406817
C94	C	2.246703	-0.191379	-0.445266
H95	H	2.464591	-0.191673	-0.388481
H96	H	2.387737	-0.270455	-0.304055
H97	H	2.432565	-0.263117	-0.501858
H98	H	2.208940	-0.160732	-0.350218
H99	H	2.253769	-0.153378	-0.548012
H100	H	1.986491	-0.428896	-0.034944
