data_functionalizedCrystal
_audit_creation_method	'MofGen! by Chris Wilmer'
_symmetry_space_group_name_H-M	'P1'
_symmetry_Int_Tables_number	1
_symmetry_cell_setting	triclinic
loop_
_symmetry_equiv_pos_as_xyz
  x,y,z
_cell_length_a	11.792254
_cell_length_b	10.868271
_cell_length_c	10.723023
_cell_angle_alpha	90.004123
_cell_angle_beta	84.333073
_cell_angle_gamma	90.004259
loop_
_atom_site_label
_atom_site_type_symbol
_atom_site_fract_x
_atom_site_fract_y
_atom_site_fract_z
O1	O	1.507274	0.102318	0.171115
O2	O	1.176973	0.102321	0.188726
O3	O	1.349743	0.102314	-0.001676
O4	O	1.334504	0.102325	0.361516
O5	O	1.349729	-0.102330	-0.001683
O6	O	1.176959	-0.102324	0.188718
O7	O	1.507260	-0.102326	0.171107
Zn8	Zn	1.342107	-0.134817	0.179912
Zn9	Zn	1.342126	0.134811	0.179921
O10	O	1.334490	-0.102320	0.361509
C11	C	1.134673	-0.000001	0.187613
C12	C	1.008653	-0.000000	0.184292
N13	N	1.342102	-0.318831	0.179904
C14	C	0.906310	0.000005	0.181594
C15	C	0.777916	0.000006	0.178221
C16	C	1.342120	-0.569837	0.179919
C17	C	1.342107	-0.430159	0.179914
C18	C	1.549560	-0.000002	0.172220
C19	C	1.675580	0.000006	0.175541
C20	C	1.348627	-0.000007	-0.048176
C21	C	1.345310	-0.000003	-0.186722
N22	N	1.342139	0.318825	0.179919
C23	C	1.343838	0.106011	-0.248480
C24	C	1.340410	0.106018	-0.391674
C25	C	1.335606	0.000004	0.408009
C26	C	1.338923	0.000008	0.546555
H27	H	1.345112	0.196768	-0.195342
H28	H	1.339150	0.196780	-0.444785
O29	O	1.340271	-0.108359	-0.390216
C30	C	1.241360	-0.176241	-0.408455
H31	H	1.206386	-0.144638	-0.498524
H32	H	1.263311	-0.278302	-0.415809
H33	H	1.174401	-0.160677	-0.325784
O34	O	1.343739	-0.108392	-0.249903
C35	C	1.345804	-0.206965	-0.164683
H36	H	1.312160	-0.174384	-0.066921
H37	H	1.289888	-0.284937	-0.194857
H38	H	1.437032	-0.241283	-0.163359
