data_functionalizedCrystal
_audit_creation_method	'MofGen! by Chris Wilmer'
_symmetry_space_group_name_H-M	'P1'
_symmetry_Int_Tables_number	1
_symmetry_cell_setting	triclinic
loop_
_symmetry_equiv_pos_as_xyz
  x,y,z
_cell_length_a	9.065215
_cell_length_b	10.967829
_cell_length_c	10.065875
_cell_angle_alpha	93.078793
_cell_angle_beta	98.877767
_cell_angle_gamma	84.859043
loop_
_atom_site_label
_atom_site_type_symbol
_atom_site_fract_x
_atom_site_fract_y
_atom_site_fract_z
O1	O	1.987814	0.158913	0.150849
O2	O	1.559087	0.173383	0.154257
O3	O	1.775590	-0.008827	0.111396
O4	O	1.771311	0.341123	0.193710
O5	O	1.734314	0.026060	-0.107387
O6	O	1.517810	0.208269	-0.064525
O7	O	1.946538	0.193800	-0.067934
Zn8	Zn	1.725621	0.206573	-0.100966
Zn9	Zn	1.780004	0.160609	0.187289
O10	O	1.730034	0.376009	-0.025072
C11	C	1.483409	0.189436	0.044540
C12	C	1.319406	0.185280	0.043565
C13	C	1.751522	-0.036209	-0.008536
C14	C	1.741284	-0.169773	-0.039944
C15	C	1.758103	-0.247387	0.059390
C16	C	1.747522	-0.385433	0.026931
C17	C	2.022217	0.177746	0.041786
C18	C	2.186221	0.181901	0.042770
C19	C	1.754103	0.403391	0.094863
C20	C	1.764343	0.536954	0.126279
N21	N	1.688516	0.237942	-0.297692
C22	C	1.767085	0.171516	-0.381097
C23	C	1.738540	0.195667	-0.532583
N24	N	1.817120	0.129231	0.384014
H25	H	1.725279	-0.421179	-0.082150
O26	O	1.711855	-0.217113	-0.184434
H27	H	1.708182	-0.318113	-0.187255
O28	O	1.793789	-0.415701	0.270772
H29	H	1.702773	-0.439209	0.324604
O30	O	1.884175	0.072494	-0.327138
H31	H	1.937379	0.027502	-0.411278
O32	O	1.621441	0.294697	-0.586524
H33	H	1.617405	0.298134	-0.697039
O34	O	1.787538	-0.200041	0.203877
H35	H	1.896447	-0.242812	0.253196
H36	H	1.905519	0.054472	-0.575251
H37	H	1.600112	0.312688	-0.338436
