data_functionalizedCrystal
_audit_creation_method	'MofGen! by Chris Wilmer'
_symmetry_space_group_name_H-M	'P1'
_symmetry_Int_Tables_number	1
_symmetry_cell_setting	triclinic
loop_
_symmetry_equiv_pos_as_xyz
  x,y,z
_cell_length_a	23.532407
_cell_length_b	23.532407
_cell_length_c	22.010155
_cell_angle_alpha	89.999577
_cell_angle_beta	89.996931
_cell_angle_gamma	82.848678
loop_
_atom_site_label
_atom_site_type_symbol
_atom_site_fract_x
_atom_site_fract_y
_atom_site_fract_z
O1	O	0.755264	0.069127	-0.050455
O2	O	1.005264	0.319127	0.199545
O3	O	1.255264	0.569127	0.449545
O4	O	1.505264	0.819127	0.699545
O5	O	0.589400	0.079130	-0.050474
O6	O	0.839400	0.329130	0.199526
O7	O	1.089400	0.579130	0.449526
O8	O	1.339400	0.829130	0.699526
O9	O	0.677334	-0.008803	-0.050453
O10	O	0.927334	0.241197	0.199547
O11	O	1.177334	0.491197	0.449547
O12	O	1.427334	0.741197	0.699547
O13	O	0.667330	0.157060	-0.050476
O14	O	0.917330	0.407060	0.199524
O15	O	1.167330	0.657060	0.449524
O16	O	1.417330	0.907060	0.699524
O17	O	0.677318	-0.008790	0.050597
O18	O	0.927318	0.241210	0.300597
O19	O	1.177318	0.491210	0.550597
O20	O	1.427318	0.741210	0.800597
O21	O	0.589384	0.079143	0.050576
O22	O	0.839384	0.329143	0.300576
O23	O	1.089384	0.579143	0.550576
O24	O	1.339384	0.829143	0.800576
O25	O	0.755248	0.069140	0.050595
O26	O	1.005248	0.319140	0.300595
O27	O	1.255248	0.569140	0.550595
O28	O	1.505248	0.819140	0.800595
Cu29	Cu	0.672315	0.074143	0.059812
Cu30	Cu	0.922315	0.324143	0.309812
Cu31	Cu	1.172315	0.574143	0.559812
Cu32	Cu	1.422315	0.824143	0.809812
Cu33	Cu	0.672333	0.074127	-0.059691
Cu34	Cu	0.922333	0.324127	0.190309
Cu35	Cu	1.172333	0.574127	0.440309
Cu36	Cu	1.422333	0.824127	0.690309
O37	O	0.667314	0.157073	0.050574
O38	O	0.917314	0.407073	0.300574
O39	O	1.167314	0.657073	0.550574
O40	O	1.417314	0.907073	0.800574
C41	C	0.568176	0.078882	0.000049
C42	C	0.818176	0.328882	0.250049
C43	C	1.068176	0.578882	0.500049
C44	C	1.318176	0.828882	0.750049
C45	C	0.504959	0.078116	0.000042
C46	C	0.754959	0.328116	0.250042
C47	C	1.004959	0.578116	0.500042
C48	C	1.254959	0.828116	0.750042
C49	C	0.105856	0.125350	0.000063
C50	C	0.355856	0.375350	0.250063
C51	C	0.605856	0.625350	0.500063
C52	C	0.855856	0.875350	0.750063
C53	C	0.046456	0.124638	0.000067
C54	C	0.296456	0.374638	0.250067
C55	C	0.546456	0.624638	0.500067
C56	C	0.796456	0.874638	0.750067
O57	O	0.009711	0.168424	0.000083
O58	O	0.259711	0.418424	0.250083
O59	O	0.509711	0.668424	0.500083
O60	O	0.759711	0.918424	0.750083
N61	N	0.023830	0.072362	0.000073
N62	N	0.273830	0.322362	0.250073
N63	N	0.523830	0.572362	0.500073
N64	N	0.773830	0.822362	0.750073
C65	C	0.060607	0.020794	0.000082
C66	C	0.310607	0.270794	0.250082
C67	C	0.560607	0.520794	0.500082
C68	C	0.810607	0.770794	0.750082
O69	O	0.035908	-0.023737	0.000088
O70	O	0.285908	0.226263	0.250088
O71	O	0.535908	0.476263	0.500088
O72	O	0.785908	0.726263	0.750088
C73	C	0.120006	0.021506	0.000082
C74	C	0.370006	0.271506	0.250082
C75	C	0.620006	0.521506	0.500082
C76	C	0.870006	0.771506	0.750082
C77	C	0.142629	0.073785	0.000070
C78	C	0.392629	0.323785	0.250070
C79	C	0.642629	0.573785	0.500070
C80	C	0.892629	0.823785	0.750070
C81	C	0.128479	0.177625	0.000051
C82	C	0.378479	0.427625	0.250051
C83	C	0.628479	0.677625	0.500051
C84	C	0.878479	0.927625	0.750051
C85	C	0.187876	0.178336	0.000046
C86	C	0.437876	0.428336	0.250046
C87	C	0.687876	0.678336	0.500046
C88	C	0.937876	0.928336	0.750046
C89	C	0.224649	0.126772	0.000053
C90	C	0.474649	0.376772	0.250053
C91	C	0.724649	0.626772	0.500053
C92	C	0.974649	0.876772	0.750053
C93	C	0.202025	0.074497	0.000065
C94	C	0.452025	0.324497	0.250065
C95	C	0.702025	0.574497	0.500065
C96	C	0.952025	0.824497	0.750065
C97	C	0.156783	-0.030062	0.000096
C98	C	0.406783	0.219938	0.250096
C99	C	0.656783	0.469938	0.500096
C100	C	0.906783	0.719938	0.750096
C101	C	0.216185	-0.029345	0.000097
C102	C	0.466185	0.220655	0.250097
C103	C	0.716185	0.470655	0.500097
C104	C	0.966185	0.720655	0.750097
C105	C	0.238808	0.022934	0.000084
C106	C	0.488808	0.272934	0.250084
C107	C	0.738808	0.522934	0.500084
C108	C	0.988808	0.772934	0.750084
C109	C	0.298194	0.023643	0.000067
C110	C	0.548194	0.273643	0.250067
C111	C	0.798194	0.523643	0.500067
C112	C	1.048194	0.773643	0.750067
N113	N	0.320820	0.075920	0.000061
N114	N	0.570820	0.325920	0.250061
N115	N	0.820820	0.575920	0.500061
N116	N	1.070820	0.825920	0.750061
C117	C	0.284048	0.127484	0.000054
C118	C	0.534048	0.377484	0.250054
C119	C	0.784048	0.627484	0.500054
C120	C	1.034048	0.877484	0.750054
C121	C	-0.064135	0.019302	0.000082
C122	C	0.185865	0.269302	0.250082
C123	C	0.435865	0.519302	0.500082
C124	C	0.685865	0.769302	0.750082
C125	C	-0.123533	0.018589	0.000077
C126	C	0.126467	0.268589	0.250077
C127	C	0.376467	0.518589	0.500077
C128	C	0.626467	0.768589	0.750077
C129	C	-0.137680	0.122434	0.000063
C130	C	0.112320	0.372434	0.250063
C131	C	0.362320	0.622434	0.500063
C132	C	0.612320	0.872434	0.750063
C133	C	-0.078281	0.123146	0.000064
C134	C	0.171719	0.373146	0.250064
C135	C	0.421719	0.623146	0.500064
C136	C	0.671719	0.873146	0.750064
C137	C	-0.041509	0.071578	0.000076
C138	C	0.208491	0.321578	0.250076
C139	C	0.458491	0.571578	0.500076
C140	C	0.708491	0.821578	0.750076
C141	C	0.408784	0.128974	0.000043
C142	C	0.658784	0.378974	0.250043
C143	C	0.908784	0.628974	0.500043
C144	C	1.158784	0.878974	0.750043
C145	C	0.468186	0.129680	0.000035
C146	C	0.718186	0.379680	0.250035
C147	C	0.968186	0.629680	0.500035
C148	C	1.218186	0.879680	0.750035
C149	C	0.482329	0.025836	0.000052
C150	C	0.732329	0.275836	0.250052
C151	C	0.982329	0.525836	0.500052
C152	C	1.232329	0.775836	0.750052
C153	C	0.422932	0.025129	0.000057
C154	C	0.672932	0.275129	0.250057
C155	C	0.922932	0.525129	0.500057
C156	C	1.172932	0.775129	0.750057
C157	C	0.386160	0.076702	0.000054
C158	C	0.636160	0.326702	0.250054
C159	C	0.886160	0.576702	0.500054
C160	C	1.136160	0.826702	0.750054
O161	O	0.334974	-0.020119	0.000054
O162	O	0.584974	0.229881	0.250054
O163	O	0.834974	0.479881	0.500054
O164	O	1.084974	0.729881	0.750054
O165	O	0.308755	0.172007	0.000055
O166	O	0.558755	0.422007	0.250055
O167	O	0.808755	0.672007	0.500055
O168	O	1.058755	0.922007	0.750055
C169	C	0.677071	-0.030013	0.000074
C170	C	0.927071	0.219987	0.250074
C171	C	1.177071	0.469987	0.500074
C172	C	1.427071	0.719987	0.750074
C173	C	0.676305	-0.093230	0.000078
C174	C	0.926305	0.156770	0.250078
C175	C	1.176305	0.406770	0.500078
C176	C	1.426305	0.656770	0.750078
C177	C	0.723539	-0.492333	0.000050
C178	C	0.973539	-0.242333	0.250050
C179	C	1.223539	0.007667	0.500050
C180	C	1.473539	0.257667	0.750050
C181	C	0.722827	-0.551733	0.000046
C182	C	0.972827	-0.301733	0.250046
C183	C	1.222827	-0.051733	0.500046
C184	C	1.472827	0.198267	0.750046
O185	O	0.766613	-0.588478	0.000028
O186	O	1.016613	-0.338478	0.250028
O187	O	1.266613	-0.088478	0.500028
O188	O	1.516613	0.161522	0.750028
N189	N	0.670551	-0.574359	0.000040
N190	N	0.920551	-0.324359	0.250040
N191	N	1.170551	-0.074359	0.500040
N192	N	1.420551	0.175641	0.750040
C193	C	0.618983	-0.537582	0.000033
C194	C	0.868983	-0.287582	0.250033
C195	C	1.118983	-0.037582	0.500033
C196	C	1.368983	0.212418	0.750033
O197	O	0.574452	-0.562281	0.000027
O198	O	0.824452	-0.312281	0.250027
O199	O	1.074452	-0.062281	0.500027
O200	O	1.324452	0.187719	0.750027
C201	C	0.619695	-0.478182	0.000033
C202	C	0.869695	-0.228182	0.250033
C203	C	1.119695	0.021818	0.500033
C204	C	1.369695	0.271818	0.750033
C205	C	0.671974	-0.455560	0.000045
C206	C	0.921974	-0.205560	0.250045
C207	C	1.171974	0.044440	0.500045
C208	C	1.421974	0.294440	0.750045
C209	C	0.775814	-0.469710	0.000061
C210	C	1.025814	-0.219710	0.250061
C211	C	1.275814	0.030290	0.500061
C212	C	1.525814	0.280290	0.750061
C213	C	0.776525	-0.410313	0.000067
C214	C	1.026525	-0.160313	0.250067
C215	C	1.276525	0.089687	0.500067
C216	C	1.526525	0.339687	0.750067
C217	C	0.724961	-0.373540	0.000062
C218	C	0.974961	-0.123540	0.250062
C219	C	1.224961	0.126460	0.500062
C220	C	1.474961	0.376460	0.750062
C221	C	0.672685	-0.396164	0.000051
C222	C	0.922685	-0.146164	0.250051
C223	C	1.172685	0.103836	0.500051
C224	C	1.422685	0.353836	0.750051
C225	C	0.568127	-0.441406	0.000022
C226	C	0.818127	-0.191406	0.250022
C227	C	1.068127	0.058594	0.500022
C228	C	1.318127	0.308594	0.750022
C229	C	0.568844	-0.382004	0.000022
C230	C	0.818844	-0.132004	0.250022
C231	C	1.068844	0.117996	0.500022
C232	C	1.318844	0.367996	0.750022
C233	C	0.621123	-0.359381	0.000034
C234	C	0.871123	-0.109381	0.250034
C235	C	1.121123	0.140619	0.500034
C236	C	1.371123	0.390619	0.750034
C237	C	0.621832	-0.299995	0.000052
C238	C	0.871832	-0.049995	0.250052
C239	C	1.121832	0.200005	0.500052
C240	C	1.371832	0.450005	0.750052
N241	N	0.674109	-0.277368	0.000057
N242	N	0.924109	-0.027368	0.250057
N243	N	1.174109	0.222632	0.500057
N244	N	1.424109	0.472632	0.750057
C245	C	0.725673	-0.314141	0.000062
C246	C	0.975673	-0.064141	0.250062
C247	C	1.225673	0.185859	0.500062
C248	C	1.475673	0.435859	0.750062
C249	C	0.617491	-0.662324	0.000031
C250	C	0.867491	-0.412324	0.250031
C251	C	1.117491	-0.162324	0.500031
C252	C	1.367491	0.087676	0.750031
C253	C	0.616778	-0.721722	0.000035
C254	C	0.866778	-0.471722	0.250035
C255	C	1.116778	-0.221722	0.500035
C256	C	1.366778	0.028278	0.750035
C257	C	0.720623	-0.735869	0.000047
C258	C	0.970623	-0.485869	0.250047
C259	C	1.220623	-0.235869	0.500047
C260	C	1.470623	0.014131	0.750047
C261	C	0.721335	-0.676470	0.000047
C262	C	0.971335	-0.426470	0.250047
C263	C	1.221335	-0.176470	0.500047
C264	C	1.471335	0.073530	0.750047
C265	C	0.669767	-0.639698	0.000037
C266	C	0.919767	-0.389698	0.250037
C267	C	1.169767	-0.139698	0.500037
C268	C	1.419767	0.110302	0.750037
C269	C	0.727163	-0.189405	0.000075
C270	C	0.977163	0.060595	0.250075
C271	C	1.227163	0.310595	0.500075
C272	C	1.477163	0.560595	0.750075
C273	C	0.727869	-0.130003	0.000083
C274	C	0.977869	0.119997	0.250083
C275	C	1.227869	0.369997	0.500083
C276	C	1.477869	0.619997	0.750083
C277	C	0.624025	-0.115860	0.000069
C278	C	0.874025	0.134140	0.250069
C279	C	1.124025	0.384140	0.500069
C280	C	1.374025	0.634140	0.750069
C281	C	0.623318	-0.175257	0.000064
C282	C	0.873318	0.074743	0.250064
C283	C	1.123318	0.324743	0.500064
C284	C	1.373318	0.574743	0.750064
C285	C	0.674891	-0.212029	0.000065
C286	C	0.924891	0.037971	0.250065
C287	C	1.174891	0.287971	0.500065
C288	C	1.424891	0.537971	0.750065
O289	O	0.578070	-0.263215	0.000067
O290	O	0.828070	-0.013215	0.250067
O291	O	1.078070	0.236785	0.500067
O292	O	1.328070	0.486785	0.750067
O293	O	0.770196	-0.289433	0.000060
O294	O	1.020196	-0.039433	0.250060
O295	O	1.270196	0.210567	0.500060
O296	O	1.520196	0.460567	0.750060
C297	C	0.776472	0.069388	0.000071
C298	C	1.026472	0.319388	0.250071
C299	C	1.276472	0.569388	0.500071
C300	C	1.526472	0.819388	0.750071
C301	C	0.839689	0.070154	0.000073
C302	C	1.089689	0.320154	0.250073
C303	C	1.339689	0.570154	0.500073
C304	C	1.589689	0.820154	0.750073
C305	C	0.667577	0.178283	0.000046
C306	C	0.917577	0.428283	0.250046
C307	C	1.167577	0.678283	0.500046
C308	C	1.417577	0.928283	0.750046
C309	C	0.668343	0.241500	0.000037
C310	C	0.918343	0.491500	0.250037
C311	C	1.168343	0.741500	0.500037
C312	C	1.418343	0.991500	0.750037
N313	N	0.672305	0.074153	0.143865
N314	N	0.922305	0.324153	0.393865
N315	N	1.172305	0.574153	0.643865
N316	N	1.422305	0.824153	0.893865
N317	N	0.672347	0.074112	-0.143744
N318	N	0.922347	0.324112	0.106256
N319	N	1.172347	0.574112	0.356256
N320	N	1.422347	0.824112	0.606256
C321	C	0.711273	0.035196	0.563653
C322	C	0.961273	0.285196	0.813653
C323	C	1.211273	0.535196	1.063653
C324	C	1.461273	0.785196	1.313653
C325	C	0.711275	0.035192	0.627261
C326	C	0.961275	0.285192	0.877261
C327	C	1.211275	0.535192	1.127261
C328	C	1.461275	0.785192	1.377261
O329	O	0.744384	0.002076	0.660160
O330	O	0.994384	0.252076	0.910160
O331	O	1.244384	0.502076	1.160160
O332	O	1.494384	0.752076	1.410160
N333	N	0.672333	0.074115	0.659072
N334	N	0.922333	0.324115	0.909072
N335	N	1.172333	0.574115	1.159072
N336	N	1.422333	0.824115	1.409072
C337	C	0.633382	0.113041	0.627272
C338	C	0.883382	0.363041	0.877272
C339	C	1.133382	0.613041	1.127272
C340	C	1.383382	0.863041	1.377272
O341	O	0.600259	0.146148	0.660170
O342	O	0.850259	0.396148	0.910170
O343	O	1.100259	0.646148	1.160170
O344	O	1.350259	0.896148	1.410170
C345	C	0.633377	0.113042	0.563665
C346	C	0.883377	0.363042	0.813665
C347	C	1.133377	0.613042	1.063665
C348	C	1.383377	0.863042	1.313665
C349	C	0.672326	0.074120	0.531858
C350	C	0.922326	0.324120	0.781858
C351	C	1.172326	0.574120	1.031858
C352	C	1.422326	0.824120	1.281858
C353	C	0.750217	-0.003723	0.531846
C354	C	1.000217	0.246277	0.781846
C355	C	1.250217	0.496277	1.031846
C356	C	1.500217	0.746277	1.281846
C357	C	0.750215	-0.003719	0.468243
C358	C	1.000215	0.246281	0.718243
C359	C	1.250215	0.496281	0.968243
C360	C	1.500215	0.746281	1.218243
C361	C	0.711268	0.035205	0.436447
C362	C	0.961268	0.285205	0.686447
C363	C	1.211268	0.535205	0.936447
C364	C	1.461268	0.785205	1.186447
C365	C	0.672324	0.074125	0.468255
C366	C	0.922324	0.324125	0.718255
C367	C	1.172324	0.574125	0.968255
C368	C	1.422324	0.824125	1.218255
C369	C	0.594424	0.151965	0.531866
C370	C	0.844424	0.401965	0.781866
C371	C	1.094424	0.651965	1.031866
C372	C	1.344424	0.901965	1.281866
C373	C	0.594422	0.151962	0.468256
C374	C	0.844422	0.401962	0.718256
C375	C	1.094422	0.651962	0.968256
C376	C	1.344422	0.901962	1.218256
C377	C	0.633370	0.113040	0.436448
C378	C	0.883370	0.363040	0.686448
C379	C	1.133370	0.613040	0.936448
C380	C	1.383370	0.863040	1.186448
C381	C	0.633374	0.113054	0.372856
C382	C	0.883374	0.363054	0.622856
C383	C	1.133374	0.613054	0.872856
C384	C	1.383374	0.863054	1.122856
N385	N	0.672317	0.074130	0.341045
N386	N	0.922317	0.324130	0.591045
N387	N	1.172317	0.574130	0.841045
N388	N	1.422317	0.824130	1.091045
C389	C	0.711263	0.035206	0.372841
C390	C	0.961263	0.285206	0.622841
C391	C	1.211263	0.535206	0.872841
C392	C	1.461263	0.785206	1.122841
C393	C	0.633395	0.113036	0.760850
C394	C	0.883395	0.363036	1.010850
C395	C	1.133395	0.613036	1.260850
C396	C	1.383395	0.863036	1.510850
C397	C	0.633402	0.113039	0.824455
C398	C	0.883402	0.363039	1.074455
C399	C	1.133402	0.613039	1.324455
C400	C	1.383402	0.863039	1.574455
C401	C	0.711294	0.035188	0.824440
C402	C	0.961294	0.285188	1.074440
C403	C	1.211294	0.535188	1.324440
C404	C	1.461294	0.785188	1.574440
C405	C	0.711290	0.035189	0.760833
C406	C	0.961290	0.285189	1.010833
C407	C	1.211290	0.535189	1.260833
C408	C	1.461290	0.785189	1.510833
C409	C	0.672337	0.074113	0.729039
C410	C	0.922337	0.324113	0.979039
C411	C	1.172337	0.574113	1.229039
C412	C	1.422337	0.824113	1.479039
C413	C	0.711256	0.035220	0.239269
C414	C	0.961256	0.285220	0.489269
C415	C	1.211256	0.535220	0.739269
C416	C	1.461256	0.785220	0.989269
C417	C	0.711252	0.035229	0.175660
C418	C	0.961252	0.285229	0.425660
C419	C	1.211252	0.535229	0.675660
C420	C	1.461252	0.785229	0.925660
C421	C	0.633358	0.113077	0.175681
C422	C	0.883358	0.363077	0.425681
C423	C	1.133358	0.613077	0.675681
C424	C	1.383358	0.863077	0.925681
C425	C	0.633364	0.113070	0.239284
C426	C	0.883364	0.363070	0.489284
C427	C	1.133364	0.613070	0.739284
C428	C	1.383364	0.863070	0.989284
C429	C	0.672315	0.074136	0.271077
C430	C	0.922315	0.324136	0.521077
C431	C	1.172315	0.574136	0.771077
C432	C	1.422315	0.824136	1.021077
O433	O	0.600282	0.146151	0.339916
O434	O	0.850282	0.396151	0.589916
O435	O	1.100282	0.646151	0.839916
O436	O	1.350282	0.896151	1.089916
O437	O	0.744376	0.002100	0.339935
O438	O	0.994376	0.252100	0.589935
O439	O	1.244376	0.502100	0.839935
O440	O	1.494376	0.752100	1.089935
H441	H	0.246123	-0.071339	0.000107
H442	H	0.496123	0.178661	0.250107
H443	H	0.746123	0.428661	0.500107
H444	H	0.996123	0.678661	0.750107
H445	H	0.562708	0.183658	0.557755
H446	H	0.812708	0.433658	0.807755
H447	H	1.062708	0.683658	1.057755
H448	H	1.312708	0.933658	1.307755
H449	H	0.582043	-0.085909	0.000067
H450	H	0.832043	0.164091	0.250067
H451	H	1.082043	0.414091	0.500067
H452	H	1.332043	0.664091	0.750067
H453	H	0.525555	-0.459814	0.000009
H454	H	0.775555	-0.209814	0.250009
H455	H	1.025555	0.040186	0.500009
H456	H	1.275555	0.290186	0.750009
H457	H	0.781929	-0.035414	0.442349
H458	H	1.031929	0.214586	0.692349
H459	H	1.281929	0.464586	0.942349
H460	H	1.531929	0.714586	1.192349
Cl461	Cl	0.545448	0.200897	0.428290
Cl462	Cl	0.795448	0.450897	0.678290
Cl463	Cl	1.045448	0.700897	0.928290
Cl464	Cl	1.295448	0.950897	1.178290
H465	H	-0.167632	0.164421	0.000060
H466	H	0.082368	0.414421	0.250060
H467	H	0.332368	0.664421	0.500060
H468	H	0.582368	0.914421	0.750060
Cl469	Cl	-0.151965	-0.047136	0.000078
Cl470	Cl	0.098035	0.202864	0.250078
Cl471	Cl	0.348035	0.452864	0.500078
Cl472	Cl	0.598035	0.702864	0.750078
H473	H	0.580748	-0.193677	0.000071
H474	H	0.830748	0.056323	0.250071
H475	H	1.080748	0.306323	0.500071
H476	H	1.330748	0.556323	0.750071
H477	H	0.404512	-0.017441	0.000058
H478	H	0.654512	0.232559	0.250058
H479	H	0.904512	0.482559	0.500058
H480	H	1.154512	0.732559	0.750058
H481	H	0.781933	-0.035423	0.557728
H482	H	1.031933	0.214577	0.807728
H483	H	1.281933	0.464577	1.057728
H484	H	1.531933	0.714577	1.307728
Cl485	Cl	0.760255	-0.013746	0.864425
Cl486	Cl	1.010255	0.236254	1.114425
Cl487	Cl	1.260255	0.486254	1.364425
Cl488	Cl	1.510255	0.736254	1.614425
Cl489	Cl	0.128358	-0.095789	0.000101
Cl490	Cl	0.378358	0.154211	0.250101
Cl491	Cl	0.628358	0.404211	0.500101
Cl492	Cl	0.878358	0.654211	0.750101
Cl493	Cl	0.504011	-0.335779	0.000009
Cl494	Cl	0.754011	-0.085779	0.250009
Cl495	Cl	1.004011	0.164221	0.500009
Cl496	Cl	1.254011	0.414221	0.750009
H497	H	0.742971	0.003534	0.149765
H498	H	0.992971	0.253534	0.399765
H499	H	1.242971	0.503534	0.649765
H500	H	1.492971	0.753534	0.899765
H501	H	0.512280	-0.016146	0.000056
H502	H	0.762280	0.233854	0.250056
H503	H	1.012280	0.483854	0.500056
H504	H	1.262280	0.733854	0.750056
H505	H	0.770443	-0.111587	0.000094
H506	H	1.020443	0.138413	0.250094
H507	H	1.270443	0.388413	0.500094
H508	H	1.520443	0.638413	0.750094
H509	H	0.742973	0.003516	0.265148
H510	H	0.992973	0.253516	0.515148
H511	H	1.242973	0.503516	0.765148
H512	H	1.492973	0.753516	1.015148
Cl513	Cl	0.760254	-0.013745	0.720854
Cl514	Cl	1.010254	0.236255	0.970854
Cl515	Cl	1.260254	0.486255	1.220854
Cl516	Cl	1.510254	0.736255	1.470854
H517	H	0.601676	0.144737	0.734966
H518	H	0.851676	0.394737	0.984966
H519	H	1.101676	0.644737	1.234966
H520	H	1.351676	0.894737	1.484966
H521	H	0.486602	0.172255	0.000025
H522	H	0.736602	0.422255	0.250025
H523	H	0.986602	0.672255	0.500025
H524	H	1.236602	0.922255	0.750025
Cl525	Cl	0.551053	-0.750154	0.000032
Cl526	Cl	0.801053	-0.500154	0.250032
Cl527	Cl	1.051053	-0.250154	0.500032
Cl528	Cl	1.301053	-0.000154	0.750032
Cl529	Cl	0.584444	0.161979	0.864434
Cl530	Cl	0.834444	0.411979	1.114434
Cl531	Cl	1.084444	0.661979	1.364434
Cl532	Cl	1.334444	0.911979	1.614434
Cl533	Cl	0.584404	0.162008	0.279269
Cl534	Cl	0.834404	0.412008	0.529269
Cl535	Cl	1.084404	0.662008	0.779269
Cl536	Cl	1.334404	0.912008	1.029269
Cl537	Cl	0.584399	0.162009	0.135699
Cl538	Cl	0.834399	0.412009	0.385699
Cl539	Cl	1.084399	0.662009	0.635699
Cl540	Cl	1.334399	0.912009	0.885699
H541	H	0.206289	0.220908	0.000036
H542	H	0.456289	0.470908	0.250036
H543	H	0.706289	0.720908	0.500036
H544	H	0.956289	0.970908	0.750036
Cl545	Cl	0.552656	-0.616101	0.000025
Cl546	Cl	0.802656	-0.366101	0.250025
Cl547	Cl	1.052656	-0.116101	0.500025
Cl548	Cl	1.302656	0.133899	0.750025
H549	H	-0.034198	-0.022693	0.000086
H550	H	0.215802	0.227307	0.250086
H551	H	0.465802	0.477307	0.500086
H552	H	0.715802	0.727307	0.750086
Cl553	Cl	0.082260	0.242458	0.000041
Cl554	Cl	0.332260	0.492458	0.250041
Cl555	Cl	0.582260	0.742458	0.500041
Cl556	Cl	0.832260	0.992458	0.750041
Cl557	Cl	0.362567	0.193810	0.000038
Cl558	Cl	0.612567	0.443810	0.250038
Cl559	Cl	0.862567	0.693810	0.500038
Cl560	Cl	1.112567	0.943810	0.750038
Cl561	Cl	0.787061	-0.648037	0.000061
Cl562	Cl	1.037061	-0.398037	0.250061
Cl563	Cl	1.287061	-0.148037	0.500061
Cl564	Cl	1.537061	0.101963	0.750061
Cl565	Cl	-0.049848	0.188872	0.000050
Cl566	Cl	0.200152	0.438872	0.250050
Cl567	Cl	0.450152	0.688872	0.500050
Cl568	Cl	0.700152	0.938872	0.750050
H569	H	0.819097	-0.391900	0.000074
H570	H	1.069097	-0.141900	0.250074
H571	H	1.319097	0.108100	0.500074
H572	H	1.569097	0.358100	0.750074
Cl573	Cl	0.791999	-0.235622	0.000077
Cl574	Cl	1.041999	0.014378	0.250077
Cl575	Cl	1.291999	0.264378	0.500077
Cl576	Cl	1.541999	0.514378	0.750077
H577	H	0.817806	-0.499645	0.000063
H578	H	1.067806	-0.249645	0.250063
H579	H	1.317806	0.000355	0.500063
H580	H	1.567806	0.250355	0.750063
H581	H	0.762610	-0.765821	0.000048
H582	H	1.012610	-0.515821	0.250048
H583	H	1.262610	-0.265821	0.500048
H584	H	1.512610	-0.015821	0.750048
