data_functionalizedCrystal
_audit_creation_method	'MofGen! by Chris Wilmer'
_symmetry_space_group_name_H-M	'P1'
_symmetry_Int_Tables_number	1
_symmetry_cell_setting	triclinic
loop_
_symmetry_equiv_pos_as_xyz
  x,y,z
_cell_length_a	12.759401
_cell_length_b	15.297327
_cell_length_c	12.759393
_cell_angle_alpha	99.641677
_cell_angle_beta	89.980163
_cell_angle_gamma	99.708126
loop_
_atom_site_label
_atom_site_type_symbol
_atom_site_fract_x
_atom_site_fract_y
_atom_site_fract_z
Zn1	Zn	1.533805	-0.359071	-0.666327
Zn2	Zn	2.033805	0.140929	-0.166327
Zn3	Zn	1.503255	-0.509959	-0.521032
Zn4	Zn	2.003255	-0.009959	-0.021032
Zn5	Zn	1.358097	-0.359122	-0.490673
Zn6	Zn	1.858097	0.140878	0.009327
Zn7	Zn	1.327664	-0.509893	-0.696656
Zn8	Zn	1.827664	-0.009893	-0.196656
O9	O	1.430705	-0.434511	-0.593672
O10	O	1.930705	0.065489	-0.093672
O11	O	1.676772	-0.379092	-0.647066
O12	O	2.176772	0.120908	-0.147066
O13	O	1.483950	-0.489999	-0.369994
O14	O	1.983950	0.010001	0.130006
O15	O	1.406926	-0.232869	-0.488575
O16	O	1.906926	0.267131	0.011425
O17	O	1.654327	-0.489949	-0.540319
O18	O	2.154327	0.010051	-0.040319
O19	O	1.536018	-0.232832	-0.617628
O20	O	2.036018	0.267168	-0.117628
O21	O	1.377303	-0.379179	-0.347689
O22	O	1.877303	0.120821	0.152311
O23	O	1.207040	-0.379115	-0.517984
O24	O	1.707040	0.120885	-0.017984
O25	O	1.355058	-0.489837	-0.839644
O26	O	1.855058	0.010163	-0.339644
O27	O	1.184681	-0.489886	-0.669319
O28	O	1.684681	0.010114	-0.169319
O29	O	1.506509	-0.379028	-0.817362
O30	O	2.006509	0.120972	-0.317362
O31	O	1.454440	-0.636195	-0.569727
O32	O	1.954440	-0.136195	-0.069727
O33	O	1.325435	-0.636147	-0.698757
O34	O	1.825435	-0.136147	-0.198757
C35	C	1.157740	-0.434500	-0.593649
C36	C	1.657740	0.065500	-0.093649
C37	C	1.040960	-0.434517	-0.593668
C38	C	1.540960	0.065483	-0.093668
C39	C	0.974465	-0.492283	-0.672380
C40	C	1.474465	0.007717	-0.172380
C41	C	0.864741	-0.492286	-0.672402
C42	C	1.364741	0.007714	-0.172402
C43	C	0.888015	-0.376755	-0.514990
C44	C	1.388015	0.123245	-0.014990
C45	C	0.997738	-0.376748	-0.514974
C46	C	1.497738	0.123252	-0.014974
C47	C	1.383349	-0.668905	-0.640851
C48	C	1.883349	-0.168905	-0.140851
C49	C	1.363185	-0.769180	-0.661069
C50	C	1.863185	-0.269180	-0.161069
C51	C	1.575247	-1.051814	-0.449526
C52	C	2.075247	-0.551814	0.050474
C53	C	1.594191	-0.957601	-0.430525
C54	C	2.094191	-0.457601	0.069475
C55	C	1.536442	-0.910491	-0.488160
C56	C	2.036442	-0.410491	0.011840
C57	C	1.459745	-0.957603	-0.564799
C58	C	1.959745	-0.457603	-0.064799
C59	C	1.440793	-1.051826	-0.583796
C60	C	1.940793	-0.551826	-0.083796
C61	C	1.401987	-0.910503	-0.622429
C62	C	1.901987	-0.410503	-0.122429
C63	C	1.325290	-0.957616	-0.699068
C64	C	1.825290	-0.457616	-0.199068
C65	C	1.306343	-1.051829	-0.718063
C66	C	1.806343	-0.551829	-0.218063
C67	C	1.364092	-1.098939	-0.660428
C68	C	1.864092	-0.598939	-0.160428
C69	C	1.420939	-0.816280	-0.603432
C70	C	1.920939	-0.316280	-0.103432
C71	C	1.286485	-0.816293	-0.737701
C72	C	1.786485	-0.316293	-0.237701
C73	C	1.267541	-0.910506	-0.756703
C74	C	1.767541	-0.410506	-0.256703
C75	C	1.704736	-0.434523	-0.593696
C76	C	2.204736	0.065477	-0.093696
C77	C	1.821512	-0.434528	-0.593706
C78	C	2.321512	0.065472	-0.093706
C79	C	1.430797	-0.434420	-0.867687
C80	C	1.930797	0.065580	-0.367687
C81	C	1.430836	-0.434381	-0.984456
C82	C	1.930836	0.065619	-0.484456
C83	C	1.478275	-0.199201	-0.546332
C84	C	1.978275	0.300799	-0.046332
C85	C	1.498546	-0.098926	-0.526159
C86	C	1.998546	0.401074	-0.026159
C87	C	1.375331	-0.376667	-1.027701
C88	C	1.875331	0.123333	-0.527701
C89	C	1.375361	-0.376639	-1.137420
C90	C	1.875361	0.123361	-0.637420
C91	C	1.486409	-0.492042	-1.160639
C92	C	1.986409	0.007958	-0.660639
C93	C	1.486372	-0.492074	-1.050923
C94	C	1.986372	0.007926	-0.550923
C95	C	1.430687	-0.434537	-0.320710
C96	C	1.930687	0.065463	0.179290
C97	C	1.430903	-0.434321	-0.203890
C98	C	1.930903	0.065679	0.296110
H99	H	1.483386	-0.777930	-0.541031
H100	H	1.983386	-0.277930	-0.041031
H101	H	0.810605	-0.539324	-0.736499
H102	H	1.310605	-0.039324	-0.236499
H103	H	1.009653	-0.539320	-0.736461
H104	H	1.509653	-0.039320	-0.236461
H105	H	1.051882	-0.329702	-0.450875
H106	H	1.551882	0.170298	0.049125
F107	F	1.545514	-0.553438	-1.231386
F108	F	2.045514	-0.053438	-0.731386
F109	F	1.316272	-0.315221	-1.183441
F110	F	1.816272	0.184779	-0.683441
F111	F	1.675822	-0.907467	-0.348971
F112	F	2.175822	-0.407467	0.151029
F113	F	1.556831	-0.810220	-0.468160
F114	F	2.056831	-0.310220	0.031840
F115	F	1.545447	-0.553507	-1.004897
F116	F	2.045447	-0.053507	-0.504897
F117	F	1.636696	-1.101956	-0.388195
F118	F	2.136696	-0.601956	0.111805
H119	H	0.852810	-0.329723	-0.450918
H120	H	1.352810	0.170277	0.049082
H121	H	1.348675	-1.175655	-0.675898
H122	H	1.848675	-0.675655	-0.175898
F123	F	1.224710	-1.101967	-0.799624
F124	F	1.724710	-0.601967	-0.299624
H125	H	1.205093	-0.948878	-0.819103
H126	H	1.705093	-0.448878	-0.319103
F127	F	1.225014	-0.766160	-0.799039
F128	F	1.725014	-0.266160	-0.299039
H129	H	1.330110	-0.329689	-0.973586
H130	H	1.830110	0.170311	-0.473586
