data_functionalizedCrystal
_audit_creation_method	'MofGen! by Chris Wilmer'
_symmetry_space_group_name_H-M	'P1'
_symmetry_Int_Tables_number	1
_symmetry_cell_setting	triclinic
loop_
_symmetry_equiv_pos_as_xyz
  x,y,z
_cell_length_a	14.908571
_cell_length_b	18.050589
_cell_length_c	14.908308
_cell_angle_alpha	93.269302
_cell_angle_beta	90.175053
_cell_angle_gamma	86.724558
loop_
_atom_site_label
_atom_site_type_symbol
_atom_site_fract_x
_atom_site_fract_y
_atom_site_fract_z
Zn1	Zn	1.345230	-0.387558	-0.587600
Zn2	Zn	1.845230	0.112442	-0.087600
Zn3	Zn	1.353791	-0.505024	-0.437245
Zn4	Zn	1.853791	-0.005024	0.062755
Zn5	Zn	1.203548	-0.373294	-0.428597
Zn6	Zn	1.703548	0.126706	0.071403
Zn7	Zn	1.194819	-0.504142	-0.578897
Zn8	Zn	1.694819	-0.004142	-0.078897
O9	O	1.274347	-0.442504	-0.508085
O10	O	1.774347	0.057496	-0.008085
O11	O	1.472191	-0.409479	-0.574916
O12	O	1.972191	0.090521	-0.074916
O13	O	1.341097	-0.481949	-0.310273
O14	O	1.841097	0.018051	0.189727
O15	O	1.222413	-0.271266	-0.449712
O16	O	1.722413	0.228734	0.050288
O17	O	1.478480	-0.495781	-0.464452
O18	O	1.978480	0.004219	0.035548
O19	O	1.326506	-0.281746	-0.566530
O20	O	1.826506	0.218254	-0.066530
O21	O	1.230714	-0.385168	-0.303919
O22	O	1.730714	0.114832	0.196081
O23	O	1.076565	-0.384312	-0.441273
O24	O	1.576565	0.115688	0.058727
O25	O	1.207536	-0.494277	-0.705876
O26	O	1.707536	0.005723	-0.205876
O27	O	1.070152	-0.480446	-0.551698
O28	O	1.570152	0.019554	-0.051698
O29	O	1.318042	-0.408624	-0.712270
O30	O	1.818042	0.091376	-0.212270
O31	O	1.332633	-0.608827	-0.456013
O32	O	1.832633	-0.108827	0.043987
O33	O	1.215836	-0.608179	-0.560084
O34	O	1.715836	-0.108179	-0.060084
C35	C	1.040734	-0.430736	-0.494603
C36	C	1.540734	0.069264	0.005397
C37	C	0.940791	-0.425720	-0.488857
C38	C	1.440791	0.074280	0.011143
C39	C	1.274239	-0.635451	-0.508063
C40	C	1.774239	-0.135451	-0.008063
C41	C	1.274274	-0.717999	-0.508089
C42	C	1.774274	-0.217999	-0.008089
C43	C	0.746369	-0.516539	-0.592890
C44	C	1.246369	-0.016539	-0.092890
C45	C	0.652464	-0.511829	-0.587494
C46	C	1.152464	-0.011829	-0.087494
C47	C	0.659075	-0.411586	-0.472674
C48	C	1.159075	0.088414	0.027326
C49	C	0.752980	-0.416296	-0.478070
C50	C	1.252980	0.083704	0.021930
C51	C	0.796623	-0.468775	-0.538179
C52	C	1.296623	0.031225	-0.038179
C53	C	0.890530	-0.473489	-0.543570
C54	C	1.390530	0.026511	-0.043570
C55	C	0.897139	-0.373243	-0.428755
C56	C	1.397139	0.126757	0.071245
C57	C	0.803235	-0.368533	-0.423359
C58	C	1.303235	0.131467	0.076641
C59	C	1.210820	-0.917126	-0.564665
C60	C	1.710820	-0.417126	-0.064665
C61	C	1.193639	-0.961795	-0.481356
C62	C	1.693639	-0.461795	0.018644
C63	C	1.274362	-0.869134	-0.508106
C64	C	1.774362	-0.369134	-0.008106
C65	C	1.291586	-0.971550	-0.591427
C66	C	1.791586	-0.471550	-0.091427
C67	C	1.274444	-1.015125	-0.508129
C68	C	1.774444	-0.515125	-0.008129
C69	C	1.257140	-0.912712	-0.424750
C70	C	1.757140	-0.412712	0.075250
C71	C	1.355122	-0.922467	-0.534880
C72	C	1.855122	-0.422467	-0.034880
C73	C	1.337975	-0.967112	-0.451515
C74	C	1.837975	-0.467112	0.048485
C75	C	1.274312	-0.785033	-0.508094
C76	C	1.774312	-0.285033	-0.008094
C77	C	1.274495	-1.099224	-0.508132
C78	C	1.774495	-0.599224	-0.008132
C79	C	1.508873	-0.454320	-0.521619
C80	C	2.008873	0.045680	-0.021619
C81	C	1.608814	-0.459355	-0.527387
C82	C	2.108814	0.040645	-0.027387
C83	C	1.260860	-0.452943	-0.742610
C84	C	1.760860	0.047057	-0.242610
C85	C	1.255113	-0.457391	-0.842551
C86	C	1.755113	0.042609	-0.342551
C87	C	1.274479	-0.248807	-0.508127
C88	C	1.774479	0.251193	-0.008127
C89	C	1.274535	-0.166265	-0.508145
C90	C	1.774535	0.333735	-0.008145
C91	C	1.359381	-0.376542	-1.037010
C92	C	1.859381	0.123458	-0.537010
C93	C	1.353984	-0.380719	-1.130914
C94	C	1.853984	0.119281	-0.630914
C95	C	1.238917	-0.469919	-1.124263
C96	C	1.738917	0.030081	-0.624263
C97	C	1.244314	-0.465741	-1.030360
C98	C	1.744314	0.034259	-0.530360
C99	C	1.304549	-0.419052	-0.986737
C100	C	1.804549	0.080948	-0.486737
C101	C	1.309951	-0.414880	-0.892832
C102	C	1.809951	0.085120	-0.392832
C103	C	1.194880	-0.504075	-0.886183
C104	C	1.694880	-0.004075	-0.386183
C105	C	1.189483	-0.508252	-0.980086
C106	C	1.689483	-0.008252	-0.480086
C107	C	1.287833	-0.432055	-0.274474
C108	C	1.787833	0.067945	0.225526
C109	C	1.293755	-0.427407	-0.174544
C110	C	1.793755	0.072593	0.325456
H111	H	0.926063	-0.516221	-0.592512
H112	H	1.426063	-0.016221	-0.092512
C113	C	1.138133	-0.887473	-0.629175
C114	C	1.638133	-0.387473	-0.129175
N115	N	1.083384	-0.865135	-0.677758
N116	N	1.583384	-0.365135	-0.177758
H117	H	1.408431	-0.338530	-1.001492
H118	H	1.908431	0.161470	-0.501492
H119	H	0.781904	-0.559273	-0.641828
H120	H	1.281904	-0.059273	-0.141828
H121	H	1.423362	-0.905010	-0.557544
H122	H	1.923362	-0.405010	-0.057544
C123	C	0.597187	-0.564377	-0.647674
C124	C	1.097187	-0.064377	-0.147674
N125	N	0.555553	-0.603960	-0.693003
N126	N	1.055553	-0.103960	-0.193003
H127	H	1.306123	-0.997236	-0.661882
H128	H	1.806123	-0.497236	-0.161882
C129	C	0.611050	-0.353857	-0.406569
C130	C	1.111050	0.146143	0.093431
N131	N	0.574877	-0.310373	-0.356779
N132	N	1.074877	0.189627	0.143221
H133	H	1.125381	-0.979255	-0.458730
H134	H	1.625381	-0.479255	0.041270
H135	H	0.767687	-0.325804	-0.374423
H136	H	1.267687	0.174196	0.125577
H137	H	1.242524	-0.887110	-0.354272
H138	H	1.742524	-0.387110	0.145728
C139	C	1.376207	-0.363519	-0.844848
C140	C	1.876207	0.136481	-0.344848
N141	N	1.426110	-0.324829	-0.808709
N142	N	1.926110	0.175171	-0.308709
H143	H	1.150234	-0.538692	-0.845240
H144	H	1.650234	-0.038692	-0.345240
C145	C	1.410618	-0.996569	-0.386834
C146	C	1.910618	-0.496569	0.113166
N147	N	1.465328	-1.018758	-0.338113
N148	N	1.965328	-0.518758	0.161887
H149	H	0.938067	-0.334352	-0.384203
H150	H	1.438067	0.165648	0.115797
C151	C	1.414306	-0.333956	-1.186212
C152	C	1.914306	0.166044	-0.686212
N153	N	1.459743	-0.298733	-1.227862
N154	N	1.959743	0.201267	-0.727862
H155	H	1.189877	-0.507930	-1.159798
H156	H	1.689877	-0.007930	-0.659798
H157	H	1.140439	-0.546263	-1.015617
H158	H	1.640439	-0.046263	-0.515617
