data_functionalizedCrystal
_audit_creation_method	'MofGen! by Chris Wilmer'
_symmetry_space_group_name_H-M	'P1'
_symmetry_Int_Tables_number	1
_symmetry_cell_setting	triclinic
loop_
_symmetry_equiv_pos_as_xyz
  x,y,z
_cell_length_a	18.760492
_cell_length_b	23.196402
_cell_length_c	23.196401
_cell_angle_alpha	90.011712
_cell_angle_beta	60.005898
_cell_angle_gamma	59.998455
loop_
_atom_site_label
_atom_site_type_symbol
_atom_site_fract_x
_atom_site_fract_y
_atom_site_fract_z
Zr1	Zr	0.780265	0.555321	-0.075697
O2	O	0.928977	0.463245	-0.167750
O3	O	0.631552	0.583551	-0.047475
O4	O	0.780267	0.583517	-0.167750
O5	O	0.780261	0.463300	0.047396
O6	O	0.780269	0.678387	-0.167753
O7	O	0.780263	0.463278	-0.047475
O8	O	0.514245	0.678447	0.047397
O9	O	1.046284	0.463241	-0.167754
O10	O	0.692721	0.666387	-0.035445
O11	O	0.692719	0.595603	0.035359
O12	O	0.867811	0.595564	-0.106249
O13	O	0.867808	0.524781	-0.035445
Zr14	Zr	0.780265	0.706664	0.075606
Zr15	Zr	0.780268	0.706628	-0.075702
Zr16	Zr	0.780262	0.555357	0.075612
Zr17	Zr	0.967356	0.555316	-0.075703
Zr18	Zr	0.593174	0.706669	0.075612
O19	O	0.928977	0.678435	0.047384
O20	O	0.928982	0.678383	-0.167758
O21	O	0.928973	0.463296	0.047392
O22	O	0.631552	0.798740	0.167659
O23	O	0.631556	0.798689	-0.047482
O24	O	0.631548	0.583602	0.167667
O25	O	0.780269	0.798685	-0.047487
O26	O	0.780263	0.678468	0.167659
O27	O	0.780261	0.583598	0.167662
O28	O	0.780267	0.798707	0.047384
O29	O	1.046287	0.583510	-0.167758
O30	O	0.514243	0.678475	0.167667
O31	O	0.514245	0.798744	0.167663
O32	O	0.514248	0.798715	0.047392
O33	O	1.046282	0.463270	-0.047483
O34	O	1.046284	0.583539	-0.047487
O35	O	0.692719	0.666421	0.106158
O36	O	0.692721	0.737204	0.035354
O37	O	0.867811	0.666382	-0.035450
O38	O	0.867808	0.595598	0.035354
C39	C	0.780261	0.441731	-0.000039
C40	C	0.780260	0.377497	-0.000037
C41	C	0.546242	0.630999	-0.000038
C42	C	0.466817	0.631002	-0.000036
C43	C	0.688868	0.384291	0.036916
C44	C	0.688866	0.323937	0.036919
C45	C	0.780263	0.256789	-0.000044
C46	C	0.871667	0.249998	-0.036998
C47	C	0.871666	0.310352	-0.036994
C48	C	0.850285	0.132843	-0.061958
C49	C	0.850283	0.072492	-0.061963
C50	C	0.780270	0.070635	-0.000055
C51	C	0.710243	0.129145	0.061858
C52	C	0.710242	0.189499	0.061862
C53	C	0.780274	0.191341	-0.000052
C54	C	0.688870	0.011988	0.036903
C55	C	0.688873	-0.048369	0.036908
C56	C	0.871676	-0.122307	-0.037016
C57	C	0.871671	-0.061950	-0.037014
C58	C	0.780265	0.005195	-0.000056
C59	C	0.131021	0.594035	0.036907
C60	C	0.131029	0.667934	-0.037013
C61	C	0.205644	0.667940	-0.037009
C62	C	0.242953	0.630991	-0.000047
C63	C	0.205646	0.594038	0.036911
C64	C	0.242964	0.704887	-0.073972
C65	C	0.317585	0.704893	-0.073970
C66	C	0.354889	0.667948	-0.037004
C67	C	0.317577	0.630994	-0.000044
C68	C	0.354886	0.594045	0.036918
C69	C	0.317570	0.557095	0.073883
C70	C	0.242950	0.557093	0.073878
C71	C	0.429509	0.667950	-0.036998
C72	C	0.429510	0.594048	0.036922
C73	C	1.014287	0.630986	-0.000052
C74	C	1.093713	0.630983	-0.000055
C75	C	0.780268	0.630947	-0.189310
C76	C	0.780270	0.630932	-0.253544
C77	C	0.780268	0.820254	-0.000052
C78	C	0.780270	0.884488	-0.000054
C79	C	0.871662	0.593967	-0.320676
C80	C	0.871663	0.593985	-0.381032
C81	C	0.780267	0.630958	-0.374251
C82	C	0.688863	0.667931	-0.307106
C83	C	0.688864	0.667918	-0.246753
C84	C	0.710244	0.625710	-0.441565
C85	C	0.710247	0.625718	-0.501919
C86	C	0.780260	0.631003	-0.560398
C87	C	0.850286	0.636265	-0.558523
C88	C	0.850288	0.636252	-0.498170
C89	C	0.780256	0.630977	-0.439689
C90	C	0.871660	0.594055	-0.692977
C91	C	0.871657	0.594078	-0.753332
C92	C	0.688854	0.668020	-0.679404
C93	C	0.688859	0.668002	-0.619052
C94	C	0.780265	0.631016	-0.625843
C95	C	0.780261	0.631038	0.189219
C96	C	0.780260	0.631053	0.253454
C97	C	0.546246	0.820261	-0.000045
C98	C	0.466822	0.884497	-0.000045
C99	C	0.546239	0.631045	0.189226
C100	C	0.466812	0.631062	0.253463
C101	C	0.546242	0.820306	0.189219
C102	C	0.466817	0.884557	0.253454
C103	C	1.014287	0.441679	-0.189310
C104	C	1.093713	0.377428	-0.253545
C105	C	1.014284	0.441724	-0.000046
C106	C	1.093708	0.377488	-0.000046
C107	C	1.014291	0.630940	-0.189317
C108	C	1.093717	0.630923	-0.253554
C109	C	0.429524	0.877697	-0.037007
C110	C	0.354907	0.938047	-0.037021
C111	C	0.317585	1.005197	-0.000068
C112	C	0.354890	1.011996	0.036895
C113	C	0.429511	0.951646	0.036905
C114	C	0.429513	0.668036	0.320592
C115	C	0.354894	0.668050	0.380955
C116	C	0.317571	0.631094	0.374188
C117	C	0.354877	0.594115	0.307052
C118	C	0.429500	0.594097	0.246690
C119	C	0.429520	0.951685	0.246661
C120	C	0.354902	1.012062	0.307010
C121	C	0.317578	1.005309	0.374153
C122	C	0.354882	0.938174	0.380945
C123	C	0.429504	0.877799	0.320596
C124	C	1.131019	0.310300	-0.246751
C125	C	1.205660	0.249923	-0.307101
C126	C	1.242988	0.256676	-0.374243
C127	C	1.205679	0.323811	-0.381036
C128	C	1.131044	0.384186	-0.320687
C129	C	1.131014	0.384288	0.036910
C130	C	1.205651	0.323938	0.036908
C131	C	1.242976	0.256788	-0.000048
C132	C	1.205667	0.249989	-0.037008
C133	C	1.131036	0.310339	-0.037010
C134	C	1.131017	0.667887	-0.246764
C135	C	1.205637	0.667884	-0.307115
C136	C	1.242960	0.630913	-0.374256
C137	C	1.205653	0.593948	-0.381045
C138	C	1.131030	0.593955	-0.320694
H139	H	0.614438	0.438960	0.067005
H140	H	0.347961	0.527008	0.103974
Cl141	Cl	0.573954	0.714511	-0.670873
H142	H	0.907300	0.024858	-0.112378
H143	H	0.907313	0.134340	-0.112371
H144	H	1.303724	0.630912	-0.423392
H145	H	0.256823	1.054332	-0.000081
H146	H	1.236004	0.697984	-0.301574
H147	H	1.236054	0.563847	-0.435719
Cl148	Cl	0.573963	0.096401	0.083368
H149	H	0.256816	1.054476	0.423287
Cl150	Cl	1.252612	0.332288	-0.465449
Cl151	Cl	0.986569	0.301810	-0.083454
Cl152	Cl	0.986565	0.165585	-0.083462
Cl153	Cl	0.307956	1.096419	0.083351
H154	H	0.459880	0.563961	0.067023
Cl155	Cl	1.084157	0.547474	-0.329243
H156	H	1.100670	0.438843	-0.326227
H157	H	0.614441	0.329468	0.067010
Cl158	Cl	0.476422	0.714394	-0.083468
H159	H	0.212561	0.527010	0.103973
Cl160	Cl	0.573959	0.714460	-0.534652
H161	H	0.459898	0.957196	0.191995
H162	H	1.236025	0.195265	-0.301557
Cl163	Cl	0.308020	0.929484	-0.083490
Cl164	Cl	0.196067	0.751326	-0.120442
Cl165	Cl	1.336797	0.180925	-0.000037
H166	H	0.614447	0.698036	-0.301589
H167	H	0.653228	0.237134	0.112275
Cl168	Cl	0.986572	0.547455	-0.329217
Cl169	Cl	0.084101	0.547594	0.083383
H170	H	0.459893	0.698131	0.326116
Cl171	Cl	0.573961	0.714388	-0.162353
Cl172	Cl	0.308006	0.714545	0.465346
Cl173	Cl	0.622213	0.126823	0.139689
Cl174	Cl	1.084112	0.468698	0.083370
Cl175	Cl	0.084133	0.714375	-0.083483
Cl176	Cl	1.252596	0.165566	-0.083460
H177	H	0.459911	0.823025	-0.067108
Cl178	Cl	0.986565	0.547511	-0.465438
H179	H	0.256808	0.631114	0.423344
H180	H	0.459870	0.957193	0.067008
H181	H	1.100663	0.304792	-0.067102
Cl182	Cl	0.573968	-0.039825	0.083376
H183	H	0.653231	0.621430	-0.503441
H184	H	0.459859	0.563991	0.192033
Cl185	Cl	0.986576	-0.206716	-0.083479
H186	H	0.324482	0.932687	0.435620
Cl187	Cl	1.336814	0.180768	-0.450105
Cl188	Cl	1.252534	0.332501	0.083380
H189	H	0.347962	0.734981	-0.104068
H190	H	0.324478	0.564026	0.301552
Cl191	Cl	0.986571	-0.070491	-0.083475
Cl192	Cl	0.308015	1.096451	0.298455
H193	H	0.907304	0.640538	-0.496646
H194	H	0.459862	0.823143	0.326137
Cl195	Cl	1.084110	0.714372	-0.162365
Cl196	Cl	0.938309	0.642909	-0.632036
Cl197	Cl	0.986567	0.547577	-0.701511
H198	H	0.946083	0.563980	-0.807996
Cl199	Cl	0.622166	0.619125	-0.368030
H200	H	1.100631	0.304789	-0.192086
