data_functionalizedCrystal
_audit_creation_method	'MofGen! by Chris Wilmer'
_symmetry_space_group_name_H-M	'P1'
_symmetry_Int_Tables_number	1
_symmetry_cell_setting	triclinic
loop_
_symmetry_equiv_pos_as_xyz
  x,y,z
_cell_length_a	18.101397
_cell_length_b	21.395362
_cell_length_c	18.101390
_cell_angle_alpha	89.957156
_cell_angle_beta	90.035542
_cell_angle_gamma	89.961273
loop_
_atom_site_label
_atom_site_type_symbol
_atom_site_fract_x
_atom_site_fract_y
_atom_site_fract_z
Zn1	Zn	-0.294440	-0.957872	0.419184
Zn2	Zn	0.205560	-0.457872	0.919184
Zn3	Zn	-0.418297	-0.957803	0.295337
Zn4	Zn	0.081703	-0.457803	0.795337
Zn5	Zn	-0.294514	-0.853096	0.295306
Zn6	Zn	0.205486	-0.353096	0.795306
Zn7	Zn	-0.418284	-0.853075	0.419086
Zn8	Zn	0.081716	-0.353075	0.919086
O9	O	-0.356384	-0.905462	0.357229
O10	O	0.143616	-0.405462	0.857229
O11	O	-0.310845	-1.045541	0.402810
O12	O	0.189155	-0.545541	0.902810
O13	O	-0.401913	-0.943893	0.191700
O14	O	0.098087	-0.443893	0.691700
O15	O	-0.190871	-0.867033	0.311767
O16	O	0.309129	-0.367033	0.811767
O17	O	-0.401842	-1.045490	0.311820
O18	O	0.098158	-0.545490	0.811820
O19	O	-0.190817	-0.944011	0.402780
O20	O	0.309183	-0.444011	0.902780
O21	O	-0.310970	-0.866966	0.191677
O22	O	0.189030	-0.366966	0.691677
O23	O	-0.310957	-0.765416	0.311672
O24	O	0.189043	-0.265416	0.811672
O25	O	-0.401819	-0.866996	0.522732
O26	O	0.098181	-0.366996	1.022732
O27	O	-0.401891	-0.765400	0.402613
O28	O	0.098109	-0.265400	0.902613
O29	O	-0.310832	-0.943990	0.522804
O30	O	0.189168	-0.443990	1.022804
O31	O	-0.521928	-0.943872	0.311725
O32	O	-0.021928	-0.443872	0.811725
O33	O	-0.521919	-0.866929	0.402643
O34	O	-0.021919	-0.366929	0.902643
C35	C	-0.356431	-0.742674	0.357129
C36	C	0.143569	-0.242674	0.857129
C37	C	-0.356469	-0.673033	0.357104
C38	C	0.143531	-0.173033	0.857104
C39	C	-0.403882	-0.640328	0.404383
C40	C	0.096118	-0.140328	0.904383
C41	C	-0.403867	-0.574892	0.404410
C42	C	0.096133	-0.074892	0.904410
C43	C	-0.356447	-0.542164	0.357146
C44	C	0.143553	-0.042164	0.857146
C45	C	-0.309024	-0.574877	0.309863
C46	C	0.190976	-0.074877	0.809863
C47	C	-0.309035	-0.640311	0.309842
C48	C	0.190965	-0.140311	0.809842
C49	C	-0.350504	-0.438444	0.290467
C50	C	0.149496	0.061556	0.790467
C51	C	-0.350498	-0.373011	0.290487
C52	C	0.149502	0.126989	0.790487
C53	C	-0.356408	-0.340344	0.357210
C54	C	0.143592	0.159656	0.857210
C55	C	-0.362340	-0.373117	0.423916
C56	C	0.137660	0.126883	0.923916
C57	C	-0.362351	-0.438551	0.423895
C58	C	0.137649	0.061449	0.923895
C59	C	-0.356429	-0.471212	0.357163
C60	C	0.143571	0.028788	0.857163
C61	C	-0.403808	-0.236686	0.404523
C62	C	0.096192	0.263314	0.904523
C63	C	-0.403788	-0.171249	0.404552
C64	C	0.096212	0.328751	0.904552
C65	C	-0.308949	-0.171236	0.309998
C66	C	0.191051	0.328764	0.809998
C67	C	-0.308965	-0.236671	0.309976
C68	C	0.191035	0.263329	0.809976
C69	C	-0.356399	-0.269392	0.357237
C70	C	0.143601	0.230608	0.857237
C71	C	-0.548794	-0.905408	0.357193
C72	C	-0.048794	-0.405408	0.857193
C73	C	-0.631108	-0.905442	0.357202
C74	C	-0.131108	-0.405442	0.857202
C75	C	-0.930199	-0.905522	0.357270
C76	C	-0.430199	-0.405522	0.857270
C77	C	-0.898849	-0.953798	0.299913
C78	C	-0.398849	-0.453798	0.799913
C79	C	-0.813231	-0.953965	0.300062
C80	C	-0.313231	-0.453965	0.800062
C81	C	-0.781817	-0.905483	0.357236
C82	C	-0.281817	-0.405483	0.857236
C83	C	-0.812810	-0.923382	0.435305
C84	C	-0.312810	-0.423382	0.935305
C85	C	-0.898455	-0.923755	0.434993
C86	C	-0.398455	-0.423755	0.934993
C87	C	-0.898735	-0.839219	0.337232
C88	C	-0.398735	-0.339219	0.837232
C89	C	-0.813085	-0.839546	0.335490
C90	C	-0.313085	-0.339546	0.835490
C91	C	-0.697957	-0.905459	0.357221
C92	C	-0.197957	-0.405459	0.857221
C93	C	-1.014059	-0.905547	0.357289
C94	C	-0.514059	-0.405547	0.857289
C95	C	-0.163222	-0.905532	0.357281
C96	C	0.336778	-0.405532	0.857281
C97	C	-0.080908	-0.905563	0.357303
C98	C	0.419092	-0.405563	0.857303
C99	C	-0.356316	-0.905499	0.550391
C100	C	0.143684	-0.405499	1.050391
C101	C	-0.356287	-0.905515	0.632705
C102	C	0.143713	-0.405515	1.132705
C103	C	-0.356349	-0.068885	0.357308
C104	C	0.143651	0.431115	0.857308
C105	C	-0.356366	-0.138526	0.357287
C106	C	0.143634	0.361474	0.857287
C107	C	-0.356398	-0.905460	0.164818
C108	C	0.143602	-0.405460	0.664818
C109	C	-0.356218	-0.905566	0.082504
C110	C	0.143782	-0.405566	0.582504
C111	C	-0.356241	-0.905548	0.931796
C112	C	0.143759	-0.405548	1.431796
C113	C	-0.299196	-0.954150	0.900516
C114	C	0.200804	-0.454150	1.400516
C115	C	-0.298984	-0.953999	0.814898
C116	C	0.201016	-0.453999	1.314898
C117	C	-0.356264	-0.905532	0.783413
C118	C	0.143736	-0.405532	1.283413
C119	C	-0.335086	-0.839523	0.814456
C120	C	0.164914	-0.339523	1.314456
C121	C	-0.334658	-0.839814	0.900101
C122	C	0.165342	-0.339814	1.400101
C123	C	-0.434612	-0.922374	0.900213
C124	C	0.065388	-0.422374	1.400213
C125	C	-0.434212	-0.923822	0.814563
C126	C	0.065788	-0.423822	1.314563
C127	C	-0.356278	-0.905519	0.699554
C128	C	0.143722	-0.405519	1.199554
C129	C	-0.356225	-0.905557	1.015655
C130	C	0.143775	-0.405557	1.515655
H131	H	-0.270413	-0.548226	0.271381
H132	H	0.229587	-0.048226	0.771381
H133	H	-0.442396	-0.144622	0.443057
H134	H	0.057604	0.355378	0.943057
H135	H	-0.278435	-0.825002	0.793013
H136	H	0.221565	-0.325002	1.293013
H137	H	-0.375357	-0.802328	0.794057
H138	H	0.124643	-0.302328	1.294057
H139	H	-0.453901	-0.969664	0.921879
H140	H	0.046099	-0.469664	1.421879
H141	H	-0.345688	-0.465036	0.236130
H142	H	0.154312	0.034964	0.736130
H143	H	-0.919011	-0.803250	0.379007
H144	H	-0.419011	-0.303250	0.879007
O145	O	-0.785988	-1.019021	0.317629
O146	O	-0.285988	-0.519021	0.817629
H147	H	-0.724671	-1.019370	0.317789
H148	H	-0.224671	-0.519370	0.817789
O149	O	-0.786264	-0.821659	0.259390
O150	O	-0.286264	-0.321659	0.759390
H151	H	-0.724979	-0.820005	0.259234
H152	H	-0.224979	-0.320005	0.759234
H153	H	-0.270423	-0.666939	0.271342
H154	H	0.229577	-0.166939	0.771342
H155	H	-0.270359	-0.263300	0.271472
H156	H	0.229641	0.236700	0.771472
H157	H	-0.442477	-0.548259	0.442914
H158	H	0.057523	-0.048259	0.942914
O159	O	-0.927425	-0.817651	0.263123
O160	O	-0.427425	-0.317651	0.763123
H161	H	-0.988635	-0.814958	0.264906
H162	H	-0.488635	-0.314958	0.764906
H163	H	-0.374401	-0.802370	0.920789
H164	H	0.125599	-0.302370	1.420789
O165	O	-0.926524	-0.939036	0.223148
O166	O	-0.426524	-0.439036	0.723148
H167	H	-0.878873	-0.929580	0.186242
H168	H	-0.378873	-0.429580	0.686242
H169	H	-0.792460	-0.889295	0.479191
H170	H	-0.292460	-0.389295	0.979191
H171	H	-0.367151	-0.346521	0.478248
H172	H	0.132849	0.153479	0.978248
O173	O	-0.344097	-0.337663	0.218546
O174	O	0.155903	0.162337	0.718546
H175	H	-0.339972	-0.371369	0.172147
H176	H	0.160028	0.128631	0.672147
O177	O	-0.784771	-0.789333	0.386764
O178	O	-0.284771	-0.289333	0.886764
H179	H	-0.802105	-0.800077	0.444190
H180	H	-0.302105	-0.300077	0.944190
O181	O	-0.927243	-1.018505	0.317276
O182	O	-0.427243	-0.518505	0.817276
H183	H	-0.963585	-1.016432	0.366580
H184	H	-0.463585	-0.516432	0.866580
O185	O	-0.924824	-0.987952	0.457460
O186	O	-0.424824	-0.487952	0.957460
H187	H	-0.876405	-1.018439	0.468443
H188	H	-0.376405	-0.518439	0.968443
H189	H	-0.792278	-0.942767	0.242176
H190	H	-0.292278	-0.442767	0.742176
H191	H	-0.241460	-0.943153	0.922051
H192	H	0.258540	-0.443153	1.422051
H193	H	-0.919191	-0.890134	0.479202
H194	H	-0.419191	-0.390134	0.979202
O195	O	-0.454939	-0.271990	0.455517
O196	O	0.045061	0.228010	0.955517
H197	H	-0.492591	-0.301750	0.422307
H198	H	0.007409	0.198250	0.922307
O199	O	-0.455373	-0.988169	0.787700
O200	O	0.044627	-0.488169	1.287700
H201	H	-0.410570	-1.007049	0.752305
H202	H	0.089430	-0.507049	1.252305
H203	H	-0.791283	-0.971304	0.452560
H204	H	-0.291283	-0.471304	0.952560
O205	O	-0.222079	-0.939254	0.787765
O206	O	0.277921	-0.439254	1.287765
H207	H	-0.184896	-0.932196	0.835816
H208	H	0.315104	-0.432196	1.335816
H209	H	-0.312244	-1.002946	0.793913
H210	H	0.187756	-0.502946	1.293913
O211	O	-0.257806	-0.135947	0.259010
O212	O	0.242194	0.364053	0.759010
H213	H	-0.265768	-0.084951	0.266962
H214	H	0.234232	0.415049	0.766962
O215	O	-0.493541	-0.880342	0.786183
O216	O	0.006459	-0.380342	1.286183
H217	H	-0.468284	-0.844855	0.749273
H218	H	0.031716	-0.344855	1.249273
H219	H	-0.367179	-0.465233	0.478209
H220	H	0.132821	0.034767	0.978209
O221	O	-0.490920	-0.875491	0.927004
O222	O	0.009080	-0.375491	1.427004
H223	H	-0.463270	-0.840373	0.962641
H224	H	0.036730	-0.340373	1.462641
H225	H	-0.277370	-0.825552	0.920088
H226	H	0.222630	-0.325552	1.420088
O227	O	-0.455030	-0.675622	0.455366
O228	O	0.044970	-0.175622	0.955366
H229	H	-0.487992	-0.641882	0.488253
H230	H	0.012008	-0.141882	0.988253
O231	O	-0.316520	-1.019199	0.927850
O232	O	0.183480	-0.519199	1.427850
H233	H	-0.365972	-1.017587	0.964025
H234	H	0.134028	-0.517587	1.464025
