data_functionalizedCrystal
_audit_creation_method	'MofGen! by Chris Wilmer'
_symmetry_space_group_name_H-M	'P1'
_symmetry_Int_Tables_number	1
_symmetry_cell_setting	triclinic
loop_
_symmetry_equiv_pos_as_xyz
  x,y,z
_cell_length_a	10.723022
_cell_length_b	14.519731
_cell_length_c	9.798715
_cell_angle_alpha	90.004381
_cell_angle_beta	90.003403
_cell_angle_gamma	84.078040
loop_
_atom_site_label
_atom_site_type_symbol
_atom_site_fract_x
_atom_site_fract_y
_atom_site_fract_z
O1	O	1.655992	0.129340	0.113486
O2	O	1.292725	0.141722	0.113491
O3	O	1.483976	0.001343	0.113475
O4	O	1.464741	0.269719	0.113501
O5	O	1.483962	0.001342	-0.113507
O6	O	1.292711	0.141721	-0.113492
O7	O	1.655978	0.129339	-0.113497
Zn8	Zn	1.474342	0.135530	-0.149532
Zn9	Zn	1.474361	0.135531	0.149526
O10	O	1.464727	0.269718	-0.113482
C11	C	1.246227	0.140821	-0.000000
C12	C	1.107697	0.138126	0.000001
C13	C	1.059885	0.057174	-0.000005
C14	C	0.916708	0.054386	-0.000004
C15	C	1.483068	-0.033022	-0.000016
C16	C	1.480367	-0.135416	-0.000017
C17	C	1.478173	-0.218571	-0.000013
C18	C	1.475431	-0.322894	-0.000003
C19	C	1.473254	-0.406044	0.000006
C20	C	1.470512	-0.510373	0.000014
C21	C	1.702477	0.130240	-0.000003
C22	C	1.841006	0.132935	0.000004
C23	C	1.465635	0.304082	0.000013
C24	C	1.468336	0.406476	0.000023
N25	N	1.474339	0.135528	-0.353632
C26	C	1.546609	0.189004	-0.421406
C27	C	1.546629	0.189003	-0.578568
N28	N	1.474374	0.135525	0.353626
H29	H	0.875537	-0.014924	0.000025
H30	H	1.608473	0.234784	-0.363077
H31	H	1.608496	0.234791	-0.636852
C32	C	0.896604	0.226579	0.000012
C33	C	0.982095	0.251317	-0.117853
C34	C	1.037704	0.344961	-0.117845
C35	C	1.007821	0.413866	0.000027
C36	C	0.922325	0.389130	0.117901
C37	C	0.866716	0.295486	0.117893
H38	H	1.004220	0.200307	-0.205116
H39	H	1.100994	0.363272	-0.205103
H40	H	1.048986	0.483187	0.000033
H41	H	0.900200	0.440139	0.205165
H42	H	0.803427	0.277175	0.205151
H43	H	1.412492	0.089745	-0.588099
C44	C	1.390766	0.073673	-0.432415
C45	C	1.408503	-0.032105	-0.412911
C46	C	1.324927	-0.093963	-0.491690
C47	C	1.223614	-0.050041	-0.589973
C48	C	1.205873	0.055744	-0.609482
C49	C	1.289449	0.117601	-0.530703
H50	H	1.483504	-0.064624	-0.340152
H51	H	1.338061	-0.172271	-0.477248
H52	H	1.161746	-0.095831	-0.648290
H53	H	1.130871	0.088262	-0.682241
H54	H	1.276315	0.195910	-0.545145
C55	C	1.147772	-0.033672	-0.000013
C56	C	1.241311	-0.054925	-0.117880
C57	C	1.329195	-0.145773	-0.117887
C58	C	1.323542	-0.215369	-0.000026
C59	C	1.229999	-0.194118	0.117850
C60	C	1.142114	-0.103269	0.117857
H61	H	1.245499	-0.003404	-0.205136
H62	H	1.398442	-0.161504	-0.205147
H63	H	1.388599	-0.282620	-0.000031
H64	H	1.225811	-0.245638	0.205106
H65	H	1.072868	-0.087538	0.205117
H66	H	1.042633	0.205368	0.000014
