data_functionalizedCrystal
_audit_creation_method	'MofGen! by Chris Wilmer'
_symmetry_space_group_name_H-M	'P1'
_symmetry_Int_Tables_number	1
_symmetry_cell_setting	triclinic
loop_
_symmetry_equiv_pos_as_xyz
  x,y,z
_cell_length_a	19.805405
_cell_length_b	19.805407
_cell_length_c	19.805382
_cell_angle_alpha	90.073245
_cell_angle_beta	89.897720
_cell_angle_gamma	89.973590
loop_
_atom_site_label
_atom_site_type_symbol
_atom_site_fract_x
_atom_site_fract_y
_atom_site_fract_z
Zn1	Zn	-0.268991	-1.035094	-0.382713
Zn2	Zn	0.231009	-0.535094	0.117287
Zn3	Zn	-0.382324	-1.034903	-0.269521
Zn4	Zn	0.117676	-0.534903	0.230479
Zn5	Zn	-0.269154	-0.921803	-0.269537
Zn6	Zn	0.230846	-0.421803	0.230463
Zn7	Zn	-0.382144	-0.921873	-0.382668
Zn8	Zn	0.117856	-0.421873	0.117332
O9	O	-0.325653	-0.978418	-0.326110
O10	O	0.174347	-0.478418	0.173890
O11	O	-0.284032	-1.129786	-0.367710
O12	O	0.215968	-0.629786	0.132290
O13	O	-0.367455	-1.019791	-0.174806
O14	O	0.132545	-0.519791	0.325194
O15	O	-0.174416	-0.936882	-0.284576
O16	O	0.325584	-0.436882	0.215424
O17	O	-0.367297	-1.129645	-0.284548
O18	O	0.132703	-0.629645	0.215452
O19	O	-0.174296	-1.020117	-0.367725
O20	O	0.325704	-0.520117	0.132275
O21	O	-0.284310	-0.936697	-0.174818
O22	O	0.215690	-0.436697	0.325182
O23	O	-0.284135	-0.827096	-0.284532
O24	O	0.215865	-0.327096	0.215468
O25	O	-0.366990	-0.937001	-0.477391
O26	O	0.133010	-0.437001	0.022609
O27	O	-0.367148	-0.827147	-0.367649
O28	O	0.132852	-0.327147	0.132351
O29	O	-0.283858	-1.020184	-0.477424
O30	O	0.216142	-0.520184	0.022576
O31	O	-0.477017	-1.019858	-0.284504
O32	O	0.022983	-0.519858	0.215496
O33	O	-0.476884	-0.936815	-0.367633
O34	O	0.023116	-0.436815	0.132367
C35	C	-0.325640	-0.802562	-0.326088
C36	C	0.174360	-0.302562	0.173912
C37	C	-0.325651	-0.727330	-0.326094
C38	C	0.174349	-0.227330	0.173906
C39	C	-0.501509	-0.978342	-0.326077
C40	C	-0.001509	-0.478342	0.173923
C41	C	-0.576741	-0.978371	-0.326085
C42	C	-0.076741	-0.478371	0.173915
C43	C	-0.325386	-0.978622	-0.502653
C44	C	0.174614	-0.478622	-0.002653
C45	C	-0.325272	-0.978708	-0.577885
C46	C	0.174728	-0.478708	-0.077885
C47	C	-0.612132	-1.021654	-0.282846
C48	C	-0.112132	-0.521654	0.217154
C49	C	-0.682820	-1.021683	-0.282861
C50	C	-0.182820	-0.521683	0.217139
C51	C	-0.718117	-0.978425	-0.326112
C52	C	-0.218117	-0.478425	0.173888
C53	C	-0.682721	-0.935140	-0.369357
C54	C	-0.182721	-0.435140	0.130643
C55	C	-0.612034	-0.935116	-0.369345
C56	C	-0.112034	-0.435116	0.130655
C57	C	-0.967794	-0.935240	-0.369407
C58	C	-0.467794	-0.435240	0.130593
C59	C	-1.038487	-0.935267	-0.369414
C60	C	-0.538487	-0.435267	0.130586
C61	C	-1.038580	-1.021808	-0.282923
C62	C	-0.538580	-0.521808	0.217077
C63	C	-0.967893	-1.021783	-0.282911
C64	C	-0.467893	-0.521783	0.217089
C65	C	-0.932504	-0.978501	-0.326158
C66	C	-0.432504	-0.478501	0.173842
C67	C	-0.855856	-0.978471	-0.326142
C68	C	-0.355856	-0.478471	0.173858
C69	C	-0.794764	-0.978451	-0.326125
C70	C	-0.294764	-0.478451	0.173875
C71	C	-0.149110	-0.978513	-0.326157
C72	C	0.350890	-0.478513	0.173843
C73	C	-0.073878	-0.978554	-0.326178
C74	C	0.426122	-0.478554	0.173822
C75	C	-0.325667	-1.154961	-0.326132
C76	C	0.174333	-0.654961	0.173868
C77	C	-0.325672	-1.230193	-0.326141
C78	C	0.174328	-0.730193	0.173859
C79	C	-0.368941	-0.692030	-0.369303
C80	C	0.131059	-0.192030	0.130697
C81	C	-0.368942	-0.621342	-0.369313
C82	C	0.131058	-0.121342	0.130687
C83	C	-0.325656	-0.585955	-0.326110
C84	C	0.174344	-0.085955	0.173890
C85	C	-0.282361	-0.621260	-0.282899
C86	C	0.217639	-0.121260	0.217101
C87	C	-0.282357	-0.691947	-0.282893
C88	C	0.217643	-0.191947	0.217107
C89	C	-0.282376	-0.336186	-0.282921
C90	C	0.217624	0.163814	0.217079
C91	C	-0.282385	-0.265494	-0.282929
C92	C	0.217615	0.234506	0.217071
C93	C	-0.368961	-0.265581	-0.369341
C94	C	0.131039	0.234419	0.130659
C95	C	-0.368957	-0.336269	-0.369335
C96	C	0.131043	0.163731	0.130665
C97	C	-0.325660	-0.371567	-0.326127
C98	C	0.174340	0.128433	0.173873
C99	C	-0.325659	-0.448216	-0.326118
C100	C	0.174341	0.051784	0.173882
C101	C	-0.325661	-0.509308	-0.326115
C102	C	0.174339	-0.009308	0.173885
C103	C	-0.325871	-0.978255	-0.150253
C104	C	0.174129	-0.478255	0.349747
C105	C	-0.325794	-0.978299	-0.075021
C106	C	0.174206	-0.478299	0.424979
C107	C	-0.281715	-1.021674	0.386560
C108	C	0.218285	-0.521674	0.886560
C109	C	-0.281786	-1.021614	0.315872
C110	C	0.218214	-0.521614	0.815872
C111	C	-0.325418	-0.978591	0.280740
C112	C	0.174582	-0.478591	0.780740
C113	C	-0.368977	-0.935620	0.316300
C114	C	0.131023	-0.435620	0.816300
C115	C	-0.368902	-0.935678	0.386987
C116	C	0.131098	-0.435678	0.886987
C117	C	-0.369282	-0.935388	0.031227
C118	C	0.130718	-0.435388	0.531227
C119	C	-0.369355	-0.935336	-0.039465
C120	C	0.130645	-0.435336	0.460535
C121	C	-0.282166	-1.021325	-0.039888
C122	C	0.217834	-0.521325	0.460112
C123	C	-0.282090	-1.021382	0.030799
C124	C	0.217910	-0.521382	0.530799
C125	C	-0.325647	-0.978409	0.066353
C126	C	0.174353	-0.478409	0.566353
C127	C	-0.325568	-0.978474	0.143001
C128	C	0.174432	-0.478474	0.643001
C129	C	-0.325501	-0.978529	0.204093
C130	C	0.174499	-0.478529	0.704093
H131	H	-0.583398	-1.056876	-0.247622
H132	H	-0.083398	-0.556876	0.252378
C133	C	-0.234093	-1.068705	0.069441
C134	C	0.265907	-0.568705	0.569441
H135	H	-0.208157	-1.094281	0.038141
H136	H	0.291843	-0.594281	0.538141
H137	H	-0.259739	-1.098392	0.097029
H138	H	0.240261	-0.598392	0.597029
H139	H	-0.204758	-1.042630	0.096984
H140	H	0.295242	-0.542630	0.596984
H141	H	-0.246698	-1.056313	-0.068844
H142	H	0.253302	-0.556313	0.431156
C143	C	-0.233877	-1.068880	0.276764
C144	C	0.266123	-0.568880	0.776764
H145	H	-0.207887	-1.094518	0.307811
H146	H	0.292113	-0.594518	0.807811
H147	H	-0.204598	-1.042772	0.249160
H148	H	0.295402	-0.542772	0.749160
H149	H	-0.259592	-1.098523	0.249201
H150	H	0.240408	-0.598523	0.749201
H151	H	-0.939157	-1.057005	-0.247689
H152	H	-0.439157	-0.557005	0.252311
H153	H	-0.404364	-0.900683	0.415935
H154	H	0.095636	-0.400683	0.915935
C155	C	-1.077510	-1.069422	-0.235356
C156	C	-0.577510	-0.569422	0.264644
H157	H	-1.124664	-1.063249	-0.241560
H158	H	-0.624664	-0.563249	0.258440
H159	H	-1.066022	-1.059494	-0.189868
H160	H	-0.566022	-0.559494	0.310132
H161	H	-1.065867	-1.114901	-0.245304
H162	H	-0.565867	-0.614901	0.254696
C163	C	-0.416973	-0.888295	0.277660
C164	C	0.083027	-0.388295	0.777660
H165	H	-0.442899	-0.862709	0.308961
H166	H	0.057101	-0.362709	0.808961
H167	H	-0.446308	-0.914361	0.250114
H168	H	0.053692	-0.414361	0.750114
H169	H	-0.391320	-0.858606	0.250073
H170	H	0.108680	-0.358606	0.750073
H171	H	-0.404207	-0.365077	-0.404513
H172	H	0.095793	0.134923	0.095487
H173	H	-0.246186	-1.056711	0.415159
H174	H	0.253814	-0.556711	0.915159
H175	H	-0.247132	-0.236684	-0.247747
H176	H	0.252868	0.263316	0.252253
H177	H	-0.247114	-0.592442	-0.247725
H178	H	0.252886	-0.092442	0.252275
H179	H	-0.938986	-0.899998	-0.404619
H180	H	-0.438986	-0.399998	0.095381
C181	C	-0.234764	-0.375006	-0.235383
C182	C	0.265236	0.124994	0.264617
H183	H	-0.208994	-0.343805	-0.209647
H184	H	0.291006	0.156195	0.290353
H185	H	-0.205267	-0.402631	-0.261317
H186	H	0.294733	0.097369	0.238683
H187	H	-0.260662	-0.402526	-0.205841
H188	H	0.239338	0.097474	0.294159
C189	C	-1.077312	-0.887687	-0.416999
C190	C	-0.577312	-0.387687	0.083001
H191	H	-1.046112	-0.861911	-0.442759
H192	H	-0.546112	-0.361911	0.057241
H193	H	-1.104962	-0.858195	-0.391088
H194	H	-0.604962	-0.358195	0.108912
H195	H	-1.104807	-0.913609	-0.446517
H196	H	-0.604807	-0.413609	0.053483
C197	C	-0.721546	-0.887556	-0.416932
C198	C	-0.221546	-0.387556	0.083068
H199	H	-0.768713	-0.893764	-0.410741
H200	H	-0.268713	-0.393764	0.089259
H201	H	-0.709866	-0.897471	-0.462417
H202	H	-0.209866	-0.397471	0.037583
H203	H	-0.710015	-0.842070	-0.406975
H204	H	-0.210015	-0.342070	0.093025
C205	C	-0.573105	-0.887506	-0.416910
C206	C	-0.073105	-0.387506	0.083090
H207	H	-0.604249	-0.861743	-0.442668
H208	H	-0.104249	-0.361743	0.057332
H209	H	-0.545452	-0.913401	-0.446419
H210	H	-0.045452	-0.413401	0.053581
H211	H	-0.545603	-0.857993	-0.390985
H212	H	-0.045603	-0.357993	0.109015
C213	C	-0.416559	-0.226754	-0.416901
C214	C	0.083441	0.273246	0.083099
H215	H	-0.442335	-0.257955	-0.442631
H216	H	0.057665	0.242045	0.057369
H217	H	-0.390650	-0.199243	-0.446436
H218	H	0.109350	0.300757	0.053564
H219	H	-0.446061	-0.199120	-0.390977
H220	H	0.053939	0.300880	0.109023
H221	H	-0.404887	-0.900298	-0.068067
H222	H	0.095113	-0.400298	0.431933
C223	C	-0.234737	-0.730777	-0.235365
C224	C	0.265263	-0.230777	0.264635
H225	H	-0.208961	-0.699579	-0.209632
H226	H	0.291039	-0.199579	0.290368
H227	H	-0.205247	-0.758397	-0.261311
H228	H	0.294753	-0.258397	0.238689
H229	H	-0.260627	-0.758302	-0.205820
H230	H	0.239373	-0.258302	0.294180
C231	C	-0.417177	-0.888106	0.070328
C232	C	0.082823	-0.388106	0.570328
H233	H	-0.443172	-0.862476	0.039278
H234	H	0.056828	-0.362476	0.539278
H235	H	-0.391453	-0.858468	0.097881
H236	H	0.108547	-0.358468	0.597881
H237	H	-0.446462	-0.914202	0.097941
H238	H	0.053538	-0.414202	0.597941
H239	H	-0.711632	-1.056927	-0.247650
H240	H	-0.211632	-0.556927	0.252350
H241	H	-0.404192	-0.720838	-0.404482
H242	H	0.095808	-0.220838	0.095518
C243	C	-0.416603	-0.582515	-0.416801
C244	C	0.083397	-0.082515	0.083199
H245	H	-0.442399	-0.613714	-0.442512
H246	H	0.057601	-0.113714	0.057488
H247	H	-0.390754	-0.554970	-0.446358
H248	H	0.109246	-0.054970	0.053642
H249	H	-0.446082	-0.554913	-0.390815
H250	H	0.053918	-0.054913	0.109185
