data_functionalizedCrystal
_audit_creation_method	'MofGen! by Chris Wilmer'
_symmetry_space_group_name_H-M	'P1'
_symmetry_Int_Tables_number	1
_symmetry_cell_setting	triclinic
loop_
_symmetry_equiv_pos_as_xyz
  x,y,z
_cell_length_a	10.654550
_cell_length_b	9.730217
_cell_length_c	10.654550
_cell_angle_alpha	90.003118
_cell_angle_beta	84.484931
_cell_angle_gamma	89.998171
loop_
_atom_site_label
_atom_site_type_symbol
_atom_site_fract_x
_atom_site_fract_y
_atom_site_fract_z
O1	O	1.667836	0.114187	0.176397
O2	O	1.302357	0.114212	0.193203
O3	O	1.493500	0.114190	0.002061
O4	O	1.476694	0.114209	0.367539
O5	O	1.493494	-0.114390	0.002059
O6	O	1.302351	-0.114368	0.193201
O7	O	1.667830	-0.114393	0.176395
Zn8	Zn	1.485090	-0.150672	0.184798
Zn9	Zn	1.485097	0.150492	0.184800
O10	O	1.476688	-0.114371	0.367537
C11	C	1.255556	-0.000075	0.191968
C12	C	1.116113	-0.000065	0.188276
N13	N	1.485094	-0.356209	0.184796
C14	C	1.036628	-0.000064	0.300818
C15	C	0.905607	-0.000088	0.297341
C16	C	0.933570	-0.000109	0.068772
C17	C	1.064588	-0.000095	0.072250
C18	C	1.654420	-0.356219	0.015589
C19	C	1.739091	-0.428164	-0.069011
C20	C	1.739104	-0.572044	-0.069012
C21	C	1.654434	-0.643982	0.015594
C22	C	1.569762	-0.572037	0.100194
C23	C	1.569761	-0.428154	0.100188
C24	C	1.400432	-0.572027	0.269392
C25	C	1.400423	-0.428147	0.269401
C26	C	1.315762	-0.643965	0.353998
C27	C	1.231094	-0.572020	0.438606
C28	C	1.231086	-0.428132	0.438604
C29	C	1.315752	-0.356202	0.354001
C30	C	1.714631	-0.000103	0.177630
C31	C	1.854074	-0.000104	0.181322
C32	C	1.492263	-0.000099	-0.044738
C33	C	1.488571	-0.000096	-0.184181
N34	N	1.485104	0.356028	0.184793
C35	C	1.601112	-0.000104	-0.263667
C36	C	1.597636	-0.000087	-0.394688
C37	C	1.369066	-0.000061	-0.366725
C38	C	1.372544	-0.000068	-0.235706
C39	C	1.477925	-0.000079	0.414336
C40	C	1.481617	-0.000072	0.553779
H41	H	1.078574	-0.000049	0.395294
H42	H	1.315757	-0.239048	0.353996
H43	H	1.654428	-0.239064	0.015591
H44	H	0.840894	-0.000089	0.388984
H45	H	0.891602	-0.000142	-0.025693
Cl46	Cl	1.739124	-0.000093	-0.494608
Cl47	Cl	1.164521	-0.000108	-0.069243
Cl48	Cl	1.223212	-0.000026	-0.431509
Cl49	Cl	1.654434	-0.824861	0.015576
H50	H	1.808046	-0.630621	-0.137904
H51	H	1.695588	-0.000124	-0.221720
H52	H	1.315770	-0.761120	0.353989
H53	H	1.280893	-0.000058	-0.170985
H54	H	1.808027	-0.369579	-0.137899
H55	H	1.162156	-0.630601	0.507480
Cl56	Cl	1.124627	-0.337700	0.544958
