data_functionalizedCrystal
_audit_creation_method	'MofGen! by Chris Wilmer'
_symmetry_space_group_name_H-M	'P1'
_symmetry_Int_Tables_number	1
_symmetry_cell_setting	triclinic
loop_
_symmetry_equiv_pos_as_xyz
  x,y,z
_cell_length_a	29.839134
_cell_length_b	25.639242
_cell_length_c	25.639217
_cell_angle_alpha	89.918438
_cell_angle_beta	90.100538
_cell_angle_gamma	89.998458
loop_
_atom_site_label
_atom_site_type_symbol
_atom_site_fract_x
_atom_site_fract_y
_atom_site_fract_z
Zn1	Zn	0.178543	0.799650	-0.295789
Zn2	Zn	0.428543	1.049650	-0.045789
Zn3	Zn	0.678543	1.299650	0.204211
Zn4	Zn	0.928543	1.549650	0.454211
Zn5	Zn	0.253781	0.799533	-0.208372
Zn6	Zn	0.503781	1.049533	0.041628
Zn7	Zn	0.753781	1.299533	0.291628
Zn8	Zn	1.003781	1.549533	0.541628
Zn9	Zn	0.178660	0.712136	-0.208353
Zn10	Zn	0.428660	0.962136	0.041647
Zn11	Zn	0.678660	1.212136	0.291647
Zn12	Zn	0.928660	1.462136	0.541647
Zn13	Zn	0.253641	0.712222	-0.295763
Zn14	Zn	0.503641	0.962222	-0.045763
Zn15	Zn	0.753641	1.212222	0.204237
Zn16	Zn	1.003641	1.462222	0.454237
O17	O	0.216156	0.755885	-0.252069
O18	O	0.466156	1.005885	-0.002069
O19	O	0.716156	1.255885	0.247931
O20	O	0.966156	1.505885	0.497931
O21	O	0.188533	0.872800	-0.284212
O22	O	0.438533	1.122800	-0.034212
O23	O	0.688533	1.372800	0.215788
O24	O	0.938533	1.622800	0.465788
O25	O	0.243924	0.787855	-0.135204
O26	O	0.493924	1.037855	0.114796
O27	O	0.743924	1.287855	0.364796
O28	O	0.993924	1.537855	0.614796
O29	O	0.115777	0.723758	-0.219954
O30	O	0.365777	0.973758	0.030046
O31	O	0.615777	1.223758	0.280046
O32	O	0.865777	1.473758	0.530046
O33	O	0.243810	0.872714	-0.219988
O34	O	0.493810	1.122714	0.030012
O35	O	0.743810	1.372714	0.280012
O36	O	0.993810	1.622714	0.530012
O37	O	0.115691	0.788055	-0.284193
O38	O	0.365691	1.038055	-0.034193
O39	O	0.615691	1.288055	0.215807
O40	O	0.865691	1.538055	0.465807
O41	O	0.188733	0.723645	-0.135190
O42	O	0.438733	0.973645	0.114810
O43	O	0.688733	1.223645	0.364810
O44	O	0.938733	1.473645	0.614810
O45	O	0.188597	0.638982	-0.219929
O46	O	0.438597	0.888982	0.030071
O47	O	0.688597	1.138982	0.280071
O48	O	0.938597	1.388982	0.530071
O49	O	0.243571	0.723904	-0.368932
O50	O	0.493571	0.973904	-0.118932
O51	O	0.743571	1.223904	0.131068
O52	O	0.993571	1.473904	0.381068
O53	O	0.243685	0.639045	-0.284148
O54	O	0.493685	0.889045	-0.034148
O55	O	0.743685	1.139045	0.215852
O56	O	0.993685	1.389045	0.465852
O57	O	0.188397	0.788138	-0.368951
O58	O	0.438397	1.038138	-0.118951
O59	O	0.688397	1.288138	0.131049
O60	O	0.938397	1.538138	0.381049
O61	O	0.316629	0.787938	-0.219962
O62	O	0.566629	1.037938	0.030038
O63	O	0.816629	1.287938	0.280038
O64	O	1.066629	1.537938	0.530038
O65	O	0.316526	0.723790	-0.284167
O66	O	0.566526	0.973790	-0.034167
O67	O	0.816526	1.223790	0.215833
O68	O	1.066526	1.473790	0.465833
C69	C	0.216138	0.620043	-0.252034
C70	C	0.466138	0.870043	-0.002034
C71	C	0.716138	1.120043	0.247966
C72	C	0.966138	1.370043	0.497966
C73	C	0.216142	0.561929	-0.252031
C74	C	0.466142	0.811929	-0.002031
C75	C	0.716142	1.061929	0.247969
C76	C	0.966142	1.311929	0.497969
C77	C	0.098978	0.755910	-0.252075
C78	C	0.348978	1.005910	-0.002075
C79	C	0.598978	1.255910	0.247925
C80	C	0.848978	1.505910	0.497925
C81	C	0.049043	0.755921	-0.252077
C82	C	0.299043	1.005921	-0.002077
C83	C	0.549043	1.255921	0.247923
C84	C	0.799043	1.505921	0.497923
C85	C	0.244888	0.201607	-0.285477
C86	C	0.494888	0.451607	-0.035477
C87	C	0.744888	0.701607	0.214523
C88	C	0.994888	0.951607	0.464523
C89	C	0.244891	0.147003	-0.285485
C90	C	0.494891	0.397003	-0.035485
C91	C	0.744891	0.647003	0.214515
C92	C	0.994891	0.897003	0.464515
O93	O	0.269311	0.118802	-0.313892
O94	O	0.519311	0.368802	-0.063892
O95	O	0.769311	0.618802	0.186108
O96	O	1.019311	0.868802	0.436108
N97	N	0.216168	0.119646	-0.252103
N98	N	0.466168	0.369646	-0.002103
N99	N	0.716168	0.619646	0.247897
N100	N	0.966168	0.869646	0.497897
C101	C	0.187438	0.146897	-0.218715
C102	C	0.437438	0.396897	0.031285
C103	C	0.687438	0.646897	0.281285
C104	C	0.937438	0.896897	0.531285
O105	O	0.163007	0.118614	-0.190323
O106	O	0.413007	0.368614	0.059677
O107	O	0.663007	0.618614	0.309677
O108	O	0.913007	0.868614	0.559677
C109	C	0.187433	0.201500	-0.218710
C110	C	0.437433	0.451500	0.031290
C111	C	0.687433	0.701500	0.281290
C112	C	0.937433	0.951500	0.531290
C113	C	0.216161	0.228854	-0.252090
C114	C	0.466161	0.478854	-0.002090
C115	C	0.716161	0.728854	0.247910
C116	C	0.966161	0.978854	0.497910
C117	C	0.273614	0.228961	-0.318854
C118	C	0.523614	0.478961	-0.068854
C119	C	0.773614	0.728961	0.181146
C120	C	1.023614	0.978961	0.431146
C121	C	0.273611	0.283562	-0.318845
C122	C	0.523611	0.533562	-0.068845
C123	C	0.773611	0.783562	0.181155
C124	C	1.023611	1.033562	0.431155
C125	C	0.244884	0.310808	-0.285459
C126	C	0.494884	0.560808	-0.035459
C127	C	0.744884	0.810808	0.214541
C128	C	0.994884	1.060808	0.464541
C129	C	0.216159	0.283454	-0.252081
C130	C	0.466159	0.533454	-0.002081
C131	C	0.716159	0.783454	0.247919
C132	C	0.966159	1.033454	0.497919
C133	C	0.158701	0.228750	-0.185325
C134	C	0.408701	0.478750	0.064675
C135	C	0.658701	0.728750	0.314675
C136	C	0.908701	0.978750	0.564675
C137	C	0.158698	0.283357	-0.185323
C138	C	0.408698	0.533357	0.064677
C139	C	0.658698	0.783357	0.314677
C140	C	0.908698	1.033357	0.564677
C141	C	0.187426	0.310710	-0.218703
C142	C	0.437426	0.560710	0.031297
C143	C	0.687426	0.810710	0.281297
C144	C	0.937426	1.060710	0.531297
C145	C	0.187429	0.365302	-0.218685
C146	C	0.437429	0.615302	0.031315
C147	C	0.687429	0.865302	0.281315
C148	C	0.937429	1.115302	0.531315
N149	N	0.216152	0.392658	-0.252067
N150	N	0.466152	0.642658	-0.002067
N151	N	0.716152	0.892658	0.247933
N152	N	0.966152	1.142658	0.497933
C153	C	0.244879	0.365412	-0.285453
C154	C	0.494879	0.615412	-0.035453
C155	C	0.744879	0.865412	0.214547
C156	C	0.994879	1.115412	0.464547
C157	C	0.187449	0.032226	-0.218729
C158	C	0.437449	0.282226	0.031271
C159	C	0.687449	0.532226	0.281271
C160	C	0.937449	0.782226	0.531271
C161	C	0.187456	-0.022376	-0.218731
C162	C	0.437456	0.227624	0.031269
C163	C	0.687456	0.477624	0.281269
C164	C	0.937456	0.727624	0.531269
C165	C	0.244909	-0.022266	-0.285502
C166	C	0.494909	0.227734	-0.035502
C167	C	0.744909	0.477734	0.214498
C168	C	0.994909	0.727734	0.464498
C169	C	0.244904	0.032337	-0.285497
C170	C	0.494904	0.282337	-0.035497
C171	C	0.744904	0.532337	0.214503
C172	C	0.994904	0.782337	0.464503
C173	C	0.216172	0.059583	-0.252111
C174	C	0.466172	0.309583	-0.002111
C175	C	0.716172	0.559583	0.247889
C176	C	0.966172	0.809583	0.497889
C177	C	0.244873	0.480077	-0.285431
C178	C	0.494873	0.730077	-0.035431
C179	C	0.744873	0.980077	0.214569
C180	C	0.994873	1.230077	0.464569
C181	C	0.244869	0.534682	-0.285418
C182	C	0.494869	0.784682	-0.035418
C183	C	0.744869	1.034682	0.214582
C184	C	0.994869	1.284682	0.464582
C185	C	0.187415	0.534567	-0.218649
C186	C	0.437415	0.784567	0.031351
C187	C	0.687415	1.034567	0.281351
C188	C	0.937415	1.284567	0.531351
C189	C	0.187420	0.479967	-0.218661
C190	C	0.437420	0.729967	0.031339
C191	C	0.687420	0.979967	0.281339
C192	C	0.937420	1.229967	0.531339
C193	C	0.216150	0.452723	-0.252056
C194	C	0.466150	0.702723	-0.002056
C195	C	0.716150	0.952723	0.247944
C196	C	0.966150	1.202723	0.497944
O197	O	0.163021	0.393538	-0.190294
O198	O	0.413021	0.643538	0.059706
O199	O	0.663021	0.893538	0.309706
O200	O	0.913021	1.143538	0.559706
O201	O	0.269302	0.393701	-0.313846
O202	O	0.519302	0.643701	-0.063846
O203	O	0.769302	0.893701	0.186154
O204	O	1.019302	1.143701	0.436154
C205	C	-0.260558	0.722433	-0.218643
C206	C	-0.010558	0.972433	0.031357
C207	C	0.239442	1.222433	0.281357
C208	C	0.489442	1.472433	0.531357
C209	C	-0.448231	0.722436	-0.218648
C210	C	-0.198231	0.972436	0.031352
C211	C	0.051769	1.222436	0.281352
C212	C	0.301769	1.472436	0.531352
O213	O	-0.472461	0.693952	-0.190222
O214	O	-0.222461	0.943952	0.059778
O215	O	0.027539	1.193952	0.309778
O216	O	0.277539	1.443952	0.559778
N217	N	-0.471742	0.755913	-0.252093
N218	N	-0.221742	1.005913	-0.002093
N219	N	0.028258	1.255913	0.247907
N220	N	0.278258	1.505913	0.497907
C221	C	-0.448331	0.789389	-0.285542
C222	C	-0.198331	1.039389	-0.035542
C223	C	0.051669	1.289389	0.214458
C224	C	0.301669	1.539389	0.464458
O225	O	-0.472635	0.817860	-0.313993
O226	O	-0.222635	1.067860	-0.063993
O227	O	0.027365	1.317860	0.186007
O228	O	0.277365	1.567860	0.436007
C229	C	-0.260659	0.789383	-0.285539
C230	C	-0.010659	1.039383	-0.035539
C231	C	0.239341	1.289383	0.214461
C232	C	0.489341	1.539383	0.464461
C233	C	-0.237151	0.755908	-0.252088
C234	C	0.012849	1.005908	-0.002088
C235	C	0.262849	1.255908	0.247912
C236	C	0.512849	1.505908	0.497912
C237	C	-0.237050	0.688959	-0.185196
C238	C	0.012950	0.938959	0.064804
C239	C	0.262950	1.188959	0.314804
C240	C	0.512950	1.438959	0.564804
C241	C	-0.190135	0.688961	-0.185193
C242	C	0.059865	0.938961	0.064807
C243	C	0.309865	1.188961	0.314807
C244	C	0.559865	1.438961	0.564807
C245	C	-0.166727	0.722436	-0.218638
C246	C	0.083273	0.972436	0.031362
C247	C	0.333273	1.222436	0.281362
C248	C	0.583273	1.472436	0.531362
C249	C	-0.190235	0.755909	-0.252085
C250	C	0.059765	1.005909	-0.002085
C251	C	0.309765	1.255909	0.247915
C252	C	0.559765	1.505909	0.497915
C253	C	-0.237249	0.822857	-0.318990
C254	C	0.012751	1.072857	-0.068990
C255	C	0.262751	1.322857	0.181010
C256	C	0.512751	1.572857	0.431010
C257	C	-0.190328	0.822851	-0.318987
C258	C	0.059672	1.072851	-0.068987
C259	C	0.309672	1.322851	0.181013
C260	C	0.559672	1.572851	0.431013
C261	C	-0.166820	0.789376	-0.285536
C262	C	0.083180	1.039376	-0.035536
C263	C	0.333180	1.289376	0.214464
C264	C	0.583180	1.539376	0.464464
C265	C	-0.119913	0.789386	-0.285527
C266	C	0.130087	1.039386	-0.035527
C267	C	0.380087	1.289386	0.214473
C268	C	0.630087	1.539386	0.464473
N269	N	-0.096402	0.755908	-0.252082
N270	N	0.153598	1.005908	-0.002082
N271	N	0.403598	1.255908	0.247918
N272	N	0.653598	1.505908	0.497918
C273	C	-0.119810	0.722434	-0.218638
C274	C	0.130190	0.972434	0.031362
C275	C	0.380190	1.222434	0.281362
C276	C	0.630190	1.472434	0.531362
C277	C	-0.546862	0.789391	-0.285540
C278	C	-0.296862	1.039391	-0.035540
C279	C	-0.046862	1.289391	0.214460
C280	C	0.203138	1.539391	0.464460
C281	C	-0.593780	0.789393	-0.285540
C282	C	-0.343780	1.039393	-0.035540
C283	C	-0.093780	1.289393	0.214460
C284	C	0.156220	1.539393	0.464460
C285	C	-0.593677	0.722439	-0.218647
C286	C	-0.343677	0.972439	0.031353
C287	C	-0.093677	1.222439	0.281353
C288	C	0.156323	1.472439	0.531353
C289	C	-0.546758	0.722440	-0.218645
C290	C	-0.296758	0.972440	0.031355
C291	C	-0.046758	1.222440	0.281355
C292	C	0.203242	1.472440	0.531355
C293	C	-0.523351	0.755914	-0.252095
C294	C	-0.273351	1.005914	-0.002095
C295	C	-0.023351	1.255914	0.247905
C296	C	0.226649	1.505914	0.497905
C297	C	-0.021284	0.722440	-0.218634
C298	C	0.228716	0.972440	0.031366
C299	C	0.478716	1.222440	0.281366
C300	C	0.728716	1.472440	0.531366
C301	C	0.025636	0.722446	-0.218632
C302	C	0.275636	0.972446	0.031368
C303	C	0.525636	1.222446	0.281368
C304	C	0.775636	1.472446	0.531368
C305	C	0.025529	0.789398	-0.285527
C306	C	0.275529	1.039398	-0.035527
C307	C	0.525529	1.289398	0.214473
C308	C	0.775529	1.539398	0.464473
C309	C	-0.021387	0.789394	-0.285526
C310	C	0.228613	1.039394	-0.035526
C311	C	0.478613	1.289394	0.214474
C312	C	0.728613	1.539394	0.464474
C313	C	-0.044792	0.755911	-0.252078
C314	C	0.205208	1.005911	-0.002078
C315	C	0.455208	1.255911	0.247922
C316	C	0.705208	1.505911	0.497922
O317	O	-0.095654	0.817851	-0.313943
O318	O	0.154346	1.067851	-0.063943
O319	O	0.404346	1.317851	0.186057
O320	O	0.654346	1.567851	0.436057
O321	O	-0.095498	0.693959	-0.190199
O322	O	0.154502	0.943959	0.059801
O323	O	0.404502	1.193959	0.309801
O324	O	0.654502	1.443959	0.559801
C325	C	-0.307474	0.722431	-0.218646
C326	C	-0.057474	0.972431	0.031354
C327	C	0.192526	1.222431	0.281354
C328	C	0.442526	1.472431	0.531354
C329	C	-0.330982	0.755904	-0.252094
C330	C	-0.080982	1.005904	-0.002094
C331	C	0.169018	1.255904	0.247906
C332	C	0.419018	1.505904	0.497906
C333	C	-0.307575	0.789379	-0.285539
C334	C	-0.057575	1.039379	-0.035539
C335	C	0.192425	1.289379	0.214461
C336	C	0.442425	1.539379	0.464461
C337	C	-0.377900	0.755907	-0.252094
C338	C	-0.127900	1.005907	-0.002094
C339	C	0.122100	1.255907	0.247906
C340	C	0.372100	1.505907	0.497906
C341	C	-0.401307	0.722432	-0.218649
C342	C	-0.151307	0.972432	0.031351
C343	C	0.098693	1.222432	0.281351
C344	C	0.348693	1.472432	0.531351
C345	C	-0.377797	0.688955	-0.185204
C346	C	-0.127797	0.938955	0.064796
C347	C	0.122203	1.188955	0.314796
C348	C	0.372203	1.438955	0.564796
C349	C	-0.330881	0.688956	-0.185202
C350	C	-0.080881	0.938956	0.064798
C351	C	0.169119	1.188956	0.314798
C352	C	0.419119	1.438956	0.564798
C353	C	-0.331085	0.822857	-0.318984
C354	C	-0.081085	1.072857	-0.068984
C355	C	0.168915	1.322857	0.181016
C356	C	0.418915	1.572857	0.431016
C357	C	-0.378000	0.822853	-0.318983
C358	C	-0.128000	1.072853	-0.068983
C359	C	0.122000	1.322853	0.181017
C360	C	0.372000	1.572853	0.431017
C361	C	-0.401408	0.789378	-0.285539
C362	C	-0.151408	1.039378	-0.035539
C363	C	0.098592	1.289378	0.214461
C364	C	0.348592	1.539378	0.464461
C365	C	0.332879	0.755875	-0.252075
C366	C	0.582879	1.005875	-0.002075
C367	C	0.832879	1.255875	0.247925
C368	C	1.082879	1.505875	0.497925
C369	C	0.382813	0.755918	-0.252095
C370	C	0.632813	1.005918	-0.002095
C371	C	0.882813	1.255918	0.247905
C372	C	1.132813	1.505918	0.497905
C373	C	0.215955	0.756044	-0.388443
C374	C	0.465955	1.006044	-0.138443
C375	C	0.715955	1.256044	0.111557
C376	C	0.965955	1.506044	0.361557
C377	C	0.215869	0.756111	-0.446557
C378	C	0.465869	1.006111	-0.196557
C379	C	0.715869	1.256111	0.053443
C380	C	0.965869	1.506111	0.303443
C381	C	0.216174	0.892258	-0.252105
C382	C	0.466174	1.142258	-0.002105
C383	C	0.716174	1.392258	0.247895
C384	C	0.966174	1.642258	0.497895
C385	C	0.216182	0.950372	-0.252120
C386	C	0.466182	1.200372	-0.002120
C387	C	0.716182	1.450372	0.247880
C388	C	0.966182	1.700372	0.497880
C389	C	0.216324	0.755758	-0.116226
C390	C	0.466324	1.005758	0.133774
C391	C	0.716324	1.255758	0.383774
C392	C	0.966324	1.505758	0.633774
C393	C	0.216283	0.755792	-0.058112
C394	C	0.466283	1.005792	0.191888
C395	C	0.716283	1.255792	0.441888
C396	C	0.966283	1.505792	0.691888
C397	C	0.187171	0.789119	0.192918
C398	C	0.437171	1.039119	0.442918
C399	C	0.687171	1.289119	0.692918
C400	C	0.937171	1.539119	0.942918
C401	C	0.187208	0.789089	0.138314
C402	C	0.437208	1.039089	0.388314
C403	C	0.687208	1.289089	0.638314
C404	C	0.937208	1.539089	0.888314
O405	O	0.162610	0.817294	0.109939
O406	O	0.412610	1.067294	0.359939
O407	O	0.662610	1.317294	0.609939
O408	O	0.912610	1.567294	0.859939
N409	N	0.216162	0.755877	0.111161
N410	N	0.466162	1.005877	0.361161
N411	N	0.716162	1.255877	0.611161
N412	N	0.966162	1.505877	0.861161
C413	C	0.245078	0.722689	0.138616
C414	C	0.495078	0.972689	0.388616
C415	C	0.745078	1.222689	0.638616
C416	C	0.995078	1.472689	0.888616
O417	O	0.269709	0.694437	0.110507
O418	O	0.519709	0.944437	0.360507
O419	O	0.769709	1.194437	0.610507
O420	O	1.019709	1.444437	0.860507
C421	C	0.245039	0.722716	0.193219
C422	C	0.495039	0.972716	0.443219
C423	C	0.745039	1.222716	0.693219
C424	C	0.995039	1.472716	0.943219
C425	C	0.216086	0.755934	0.220369
C426	C	0.466086	1.005934	0.470369
C427	C	0.716086	1.255934	0.720369
C428	C	0.966086	1.505934	0.970369
C429	C	0.158220	0.822333	0.220067
C430	C	0.408220	1.072333	0.470067
C431	C	0.658220	1.322333	0.720067
C432	C	0.908220	1.572333	0.970067
C433	C	0.158184	0.822363	0.274668
C434	C	0.408184	1.072363	0.524668
C435	C	0.658184	1.322363	0.774668
C436	C	0.908184	1.572363	1.024668
C437	C	0.187099	0.789179	0.302119
C438	C	0.437099	1.039179	0.552119
C439	C	0.687099	1.289179	0.802119
C440	C	0.937099	1.539179	1.052119
C441	C	0.216050	0.755964	0.274969
C442	C	0.466050	1.005964	0.524969
C443	C	0.716050	1.255964	0.774969
C444	C	0.966050	1.505964	1.024969
C445	C	0.273953	0.689526	0.220673
C446	C	0.523953	0.939526	0.470673
C447	C	0.773953	1.189526	0.720673
C448	C	1.023953	1.439526	0.970673
C449	C	0.273911	0.689556	0.275280
C450	C	0.523911	0.939556	0.525280
C451	C	0.773911	1.189556	0.775280
C452	C	1.023911	1.439556	1.025280
C453	C	0.244958	0.722773	0.302429
C454	C	0.494958	0.972773	0.552429
C455	C	0.744958	1.222773	0.802429
C456	C	0.994958	1.472773	1.052429
C457	C	0.244929	0.722810	0.357020
C458	C	0.494929	0.972810	0.607020
C459	C	0.744929	1.222810	0.857020
C460	C	0.994929	1.472810	1.107020
N461	N	0.215975	0.756021	0.384173
N462	N	0.465975	1.006021	0.634173
N463	N	0.715975	1.256021	0.884173
N464	N	0.965975	1.506021	1.134173
C465	C	0.187060	0.789206	0.356722
C466	C	0.437060	1.039206	0.606722
C467	C	0.687060	1.289206	0.856722
C468	C	0.937060	1.539206	1.106722
C469	C	0.245158	0.722634	0.023945
C470	C	0.495158	0.972634	0.273945
C471	C	0.745158	1.222634	0.523945
C472	C	0.995158	1.472634	0.773945
C473	C	0.245200	0.722609	-0.030657
C474	C	0.495200	0.972609	0.219343
C475	C	0.745200	1.222609	0.469343
C476	C	0.995200	1.472609	0.719343
C477	C	0.187328	0.789008	-0.030955
C478	C	0.437328	1.039008	0.219045
C479	C	0.687328	1.289008	0.469045
C480	C	0.937328	1.539008	0.719045
C481	C	0.187289	0.789035	0.023648
C482	C	0.437289	1.039035	0.273648
C483	C	0.687289	1.289035	0.523648
C484	C	0.937289	1.539035	0.773648
C485	C	0.216204	0.755846	0.051098
C486	C	0.466204	1.005846	0.301098
C487	C	0.716204	1.255846	0.551098
C488	C	0.966204	1.505846	0.801098
C489	C	0.186986	0.789267	0.471387
C490	C	0.436986	1.039267	0.721387
C491	C	0.686986	1.289267	0.971387
C492	C	0.936986	1.539267	1.221387
C493	C	0.186954	0.789296	0.525992
C494	C	0.436954	1.039296	0.775992
C495	C	0.686954	1.289296	1.025992
C496	C	0.936954	1.539296	1.275992
C497	C	0.244824	0.722894	0.526286
C498	C	0.494824	0.972894	0.776286
C499	C	0.744824	1.222894	1.026286
C500	C	0.994824	1.472894	1.276286
C501	C	0.244858	0.722868	0.471685
C502	C	0.494858	0.972868	0.721685
C503	C	0.744858	1.222868	0.971685
C504	C	0.994858	1.472868	1.221685
C505	C	0.215936	0.756055	0.444237
C506	C	0.465936	1.006055	0.694237
C507	C	0.715936	1.256055	0.944237
C508	C	0.965936	1.506055	1.194237
O509	O	0.269513	0.694618	0.385430
O510	O	0.519513	0.944618	0.635430
O511	O	0.769513	1.194618	0.885430
O512	O	1.019513	1.444618	1.135430
O513	O	0.162429	0.817449	0.384838
O514	O	0.412429	1.067449	0.634838
O515	O	0.662429	1.317449	0.884838
O516	O	0.912429	1.567449	1.134838
H517	H	0.268264	0.556951	-0.312600
H518	H	0.518264	0.806951	-0.062600
H519	H	0.768264	1.056951	0.187400
H520	H	1.018264	1.306951	0.437400
Br521	Br	0.284503	0.677536	-0.067496
Br522	Br	0.534503	0.927536	0.182504
Br523	Br	0.784503	1.177536	0.432504
Br524	Br	1.034503	1.427536	0.682504
Br525	Br	0.283893	-0.059254	-0.330818
Br526	Br	0.533893	0.190746	-0.080818
Br527	Br	0.783893	0.440746	0.169182
Br528	Br	1.033893	0.690746	0.419182
Br529	Br	0.148474	-0.059492	-0.173420
Br530	Br	0.398474	0.190508	0.076580
Br531	Br	0.648474	0.440508	0.326580
Br532	Br	0.898474	0.690508	0.576580
H533	H	0.163377	0.816347	0.548095
H534	H	0.413377	1.066347	0.798095
H535	H	0.663377	1.316347	1.048095
H536	H	0.913377	1.566347	1.298095
Br537	Br	0.119708	0.191640	-0.140023
Br538	Br	0.369708	0.441640	0.109977
Br539	Br	0.619708	0.691640	0.359977
Br540	Br	0.869708	0.941640	0.609977
Br541	Br	0.313153	0.644508	0.312530
Br542	Br	0.563153	0.894508	0.562530
Br543	Br	0.813153	1.144508	0.812530
Br544	Br	1.063153	1.394508	1.062530
H545	H	0.268706	0.695606	0.046292
H546	H	0.518706	0.945606	0.296292
H547	H	0.768706	1.195606	0.546292
H548	H	1.018706	1.445606	0.796292
Br549	Br	-0.158565	0.868282	-0.364387
Br550	Br	0.091435	1.118282	-0.114387
Br551	Br	0.341435	1.368282	0.135613
Br552	Br	0.591435	1.618282	0.385613
H553	H	0.164053	0.054406	-0.191539
H554	H	0.414053	0.304406	0.058461
H555	H	0.664053	0.554406	0.308461
H556	H	0.914053	0.804406	0.558461
H557	H	0.135298	0.305537	-0.158138
H558	H	0.385298	0.555537	0.091862
H559	H	0.635298	0.805537	0.341862
H560	H	0.885298	1.055537	0.591862
H561	H	0.268438	0.695824	0.449579
H562	H	0.518438	0.945824	0.699579
H563	H	0.768438	1.195824	0.949579
H564	H	1.018438	1.445824	1.199579
H565	H	0.163434	0.816290	0.449045
H566	H	0.413434	1.066290	0.699045
H567	H	0.663434	1.316290	0.949045
H568	H	0.913434	1.566290	1.199045
H569	H	0.297004	0.305828	-0.346028
H570	H	0.547004	0.555828	-0.096028
H571	H	0.797004	0.805828	0.153972
H572	H	1.047004	1.055828	0.403972
H573	H	0.044774	0.695185	-0.191391
H574	H	0.294774	0.945185	0.058609
H575	H	0.544774	1.195185	0.308609
H576	H	0.794774	1.445185	0.558609
H577	H	0.164028	0.457694	-0.191479
H578	H	0.414028	0.707694	0.058521
H579	H	0.664028	0.957694	0.308521
H580	H	0.914028	1.207694	0.558521
Br581	Br	0.148430	0.571555	-0.173341
Br582	Br	0.398430	0.821555	0.076659
Br583	Br	0.648430	1.071555	0.326659
Br584	Br	0.898430	1.321555	0.576659
Br585	Br	0.148086	0.834045	-0.068220
Br586	Br	0.398086	1.084045	0.181780
Br587	Br	0.648086	1.334045	0.431780
Br588	Br	0.898086	1.584045	0.681780
H589	H	0.268367	0.695878	0.548646
H590	H	0.518367	0.945878	0.798646
H591	H	0.768367	1.195878	1.048646
H592	H	1.018367	1.445878	1.298646
H593	H	-0.612917	0.816658	-0.312773
H594	H	-0.362917	1.066658	-0.062773
H595	H	-0.112917	1.316658	0.187227
H596	H	0.137083	1.566658	0.437227
H597	H	0.297529	0.662476	0.198577
H598	H	0.547529	0.912476	0.448577
H599	H	0.797529	1.162476	0.698577
H600	H	1.047529	1.412476	0.948577
H601	H	-0.311745	0.661697	-0.157963
H602	H	-0.061745	0.911697	0.092037
H603	H	0.188255	1.161697	0.342037
H604	H	0.438255	1.411697	0.592037
H605	H	-0.040335	0.695174	-0.191398
H606	H	0.209665	0.945174	0.058602
H607	H	0.459665	1.195174	0.308602
H608	H	0.709665	1.445174	0.558602
H609	H	0.134671	0.849356	0.197723
H610	H	0.384671	1.099356	0.447723
H611	H	0.634671	1.349356	0.697723
H612	H	0.884671	1.599356	0.947723
Br613	Br	0.118886	0.867444	0.311505
Br614	Br	0.368886	1.117444	0.561505
Br615	Br	0.618886	1.367444	0.811505
Br616	Br	0.868886	1.617444	1.061505
Br617	Br	-0.158238	0.643523	-0.139796
Br618	Br	0.091762	0.893523	0.110204
Br619	Br	0.341762	1.143523	0.360204
Br620	Br	0.591762	1.393523	0.610204
H621	H	0.163712	0.816083	0.045750
H622	H	0.413712	1.066083	0.295750
H623	H	0.663712	1.316083	0.545750
H624	H	0.913712	1.566083	0.795750
Br625	Br	-0.268808	0.643520	-0.139803
Br626	Br	-0.018808	0.893520	0.110197
Br627	Br	0.231192	1.143520	0.360197
Br628	Br	0.481192	1.393520	0.610197
H629	H	0.297007	0.206783	-0.346045
H630	H	0.547007	0.456783	-0.096045
H631	H	0.797007	0.706783	0.153955
H632	H	1.047007	0.956783	0.403955
Br633	Br	0.283893	0.069455	-0.330800
Br634	Br	0.533893	0.319455	-0.080800
Br635	Br	0.783893	0.569455	0.169200
Br636	Br	1.033893	0.819455	0.419200
Br637	Br	-0.514859	0.677007	-0.173246
Br638	Br	-0.264859	0.927007	0.076754
Br639	Br	-0.014859	1.177007	0.326754
Br640	Br	0.235141	1.427007	0.576754
Br641	Br	-0.625453	0.677009	-0.173258
Br642	Br	-0.375453	0.927009	0.076742
Br643	Br	-0.125453	1.177009	0.326742
Br644	Br	0.124547	1.427009	0.576742
H645	H	0.268267	0.457901	-0.312626
H646	H	0.518267	0.707901	-0.062626
H647	H	0.768267	0.957901	0.187374
H648	H	1.018267	1.207901	0.437374
H649	H	-0.527809	0.816653	-0.312779
H650	H	-0.277809	1.066653	-0.062779
H651	H	-0.027809	1.316653	0.187221
H652	H	0.222191	1.566653	0.437221
H653	H	-0.256383	0.850115	-0.346229
H654	H	-0.006383	1.100115	-0.096229
H655	H	0.243617	1.350115	0.153771
H656	H	0.493617	1.600115	0.403771
H657	H	-0.040527	0.816658	-0.312760
H658	H	0.209473	1.066658	-0.062760
H659	H	0.459473	1.316658	0.187240
H660	H	0.709473	1.566658	0.437240
H661	H	0.044595	0.816654	-0.312755
H662	H	0.294595	1.066654	-0.062755
H663	H	0.544595	1.316654	0.187245
H664	H	0.794595	1.566654	0.437245
H665	H	-0.397138	0.850117	-0.346222
H666	H	-0.147138	1.100117	-0.096222
H667	H	0.102862	1.350117	0.153778
H668	H	0.352862	1.600117	0.403778
Br669	Br	-0.409573	0.643527	-0.139813
Br670	Br	-0.159573	0.893527	0.110187
Br671	Br	0.090427	1.143527	0.360187
Br672	Br	0.340427	1.393527	0.610187
Br673	Br	-0.299325	0.868288	-0.364382
Br674	Br	-0.049325	1.118288	-0.114382
Br675	Br	0.200675	1.368288	0.135618
Br676	Br	0.450675	1.618288	0.385618
