data_functionalizedCrystal
_audit_creation_method	'MofGen! by Chris Wilmer'
_symmetry_space_group_name_H-M	'P1'
_symmetry_Int_Tables_number	1
_symmetry_cell_setting	triclinic
loop_
_symmetry_equiv_pos_as_xyz
  x,y,z
_cell_length_a	13.032951
_cell_length_b	17.638032
_cell_length_c	13.032268
_cell_angle_alpha	95.519332
_cell_angle_beta	89.114265
_cell_angle_gamma	92.684249
loop_
_atom_site_label
_atom_site_type_symbol
_atom_site_fract_x
_atom_site_fract_y
_atom_site_fract_z
Zn1	Zn	-1.381762	0.508285	-0.630050
Zn2	Zn	-0.881762	1.008285	-0.130050
Zn3	Zn	-1.377758	0.620410	-0.424799
Zn4	Zn	-0.877758	1.120410	0.075201
Zn5	Zn	-1.238841	0.476842	-0.445617
Zn6	Zn	-0.738841	0.976842	0.054383
Zn7	Zn	-1.184943	0.616334	-0.576128
Zn8	Zn	-0.684943	1.116334	-0.076128
O9	O	-1.295826	0.555468	-0.519148
O10	O	-0.795826	1.055468	-0.019148
O11	O	-1.521738	0.538023	-0.616677
O12	O	-1.021738	1.038023	-0.116677
O13	O	-1.380212	0.589912	-0.287043
O14	O	-0.880212	1.089912	0.212957
O15	O	-1.282032	0.375710	-0.501361
O16	O	-0.782032	0.875710	-0.001361
O17	O	-1.518796	0.620401	-0.465880
O18	O	-1.018796	1.120401	0.034120
O19	O	-1.387036	0.398811	-0.636863
O20	O	-0.887036	0.898811	-0.136863
O21	O	-1.278150	0.484433	-0.302338
O22	O	-0.778150	0.984433	0.197662
O23	O	-1.091185	0.480481	-0.449076
O24	O	-0.591185	0.980481	0.050924
O25	O	-1.190171	0.613454	-0.723799
O26	O	-0.690171	1.113454	-0.223799
O27	O	-1.051586	0.582965	-0.544962
O28	O	-0.551586	1.082965	-0.044962
O29	O	-1.334773	0.534071	-0.763415
O30	O	-0.834773	1.034071	-0.263415
O31	O	-1.327949	0.725172	-0.413594
O32	O	-0.827949	1.225172	0.086406
O33	O	-1.186288	0.722178	-0.524775
O34	O	-0.686288	1.222178	-0.024775
C35	C	-1.034953	0.527869	-0.493427
C36	C	-0.534953	1.027869	0.006573
C37	C	-0.923343	0.516083	-0.482441
C38	C	-0.423343	1.016083	0.017559
C39	C	-1.250860	0.750984	-0.461099
C40	C	-0.750860	1.250984	0.038901
C41	C	-1.231709	0.834638	-0.436308
C42	C	-0.731709	1.334638	0.063692
C43	C	-1.256906	0.576815	-0.781060
C44	C	-0.756906	1.076815	-0.281060
C45	C	-1.240321	0.585913	-0.892671
C46	C	-0.740321	1.085913	-0.392671
C47	C	-0.854015	0.561601	-0.524873
C48	C	-0.354015	1.061601	-0.024873
C49	C	-0.738660	0.549420	-0.513520
C50	C	-0.238660	1.049420	-0.013520
C51	C	-0.557721	0.583165	-0.544967
C52	C	-0.057721	1.083165	-0.044967
C53	C	-0.669332	0.594945	-0.555958
C54	C	-0.169332	1.094945	-0.055958
C55	C	-1.441764	1.169611	-0.707820
C56	C	-0.941764	1.669611	-0.207820
C57	C	-1.423741	1.248213	-0.684504
C58	C	-0.923741	1.748213	-0.184504
C59	C	-1.314504	1.224264	-0.543290
C60	C	-0.814504	1.724264	-0.043290
C61	C	-1.332523	1.145659	-0.566591
C62	C	-0.832523	1.645659	-0.066591
C63	C	-1.396153	1.118339	-0.648858
C64	C	-0.896153	1.618339	-0.148858
C65	C	-1.286911	1.094387	-0.507629
C66	C	-0.786911	1.594387	-0.007629
C67	C	-1.304925	1.015788	-0.530931
C68	C	-0.804925	1.515788	-0.030931
C69	C	-1.368549	0.988462	-0.613196
C70	C	-0.868549	1.488462	-0.113196
C71	C	-1.414166	1.039741	-0.672160
C72	C	-0.914166	1.539741	-0.172160
C73	C	-1.223276	1.121708	-0.425367
C74	C	-0.723276	1.621708	0.074633
C75	C	-1.177665	1.070436	-0.366405
C76	C	-0.677665	1.570436	0.133595
C77	C	-1.195683	0.991836	-0.389702
C78	C	-0.695683	1.491836	0.110298
C79	C	-1.259308	0.964509	-0.471967
C80	C	-0.759308	1.464509	0.028033
C81	C	-1.150066	0.940557	-0.330738
C82	C	-0.650066	1.440557	0.169262
C83	C	-1.168080	0.861958	-0.354041
C84	C	-0.668080	1.361958	0.145959
C85	C	-1.277321	0.885911	-0.495270
C86	C	-0.777321	1.385911	0.004730
C87	C	-1.340963	1.359189	-0.577440
C88	C	-0.840963	1.859189	-0.077440
C89	C	-1.360121	1.275538	-0.602257
C90	C	-0.860121	1.775538	-0.102257
C91	C	-1.304473	0.550691	-0.962032
C92	C	-0.804473	1.050691	-0.462032
C93	C	-1.287333	0.560093	-1.077388
C94	C	-0.787333	1.060093	-0.577388
C95	C	-1.334665	0.534155	-0.258278
C96	C	-0.834665	1.034155	0.241722
C97	C	-1.351494	0.524866	-0.146749
C98	C	-0.851494	1.024866	0.353251
H99	H	-0.880062	0.609587	-0.569610
H100	H	-0.380062	1.109587	-0.069610
F101	F	-1.109940	1.099520	-0.278859
F102	F	-0.609940	1.599520	0.221141
F103	F	-1.392832	0.502161	-0.928032
F104	F	-0.892832	1.002161	-0.428032
H105	H	-0.712618	0.501427	-0.468790
H106	H	-0.212618	1.001427	0.031210
H107	H	-1.219710	0.597204	-1.103403
H108	H	-0.719710	1.097204	-0.603403
H109	H	-1.262694	1.246519	-0.476311
H110	H	-0.762694	1.746519	0.023689
F111	F	-0.703364	0.657666	-0.614447
F112	F	-0.203364	1.157666	-0.114447
F113	F	-1.082335	0.969643	-0.243199
F114	F	-0.582335	1.469643	0.256801
H115	H	-0.897296	0.468092	-0.437714
H116	H	-0.397296	0.968092	0.062286
H117	H	-1.493587	1.147368	-0.774803
H118	H	-0.993587	1.647368	-0.274803
F119	F	-1.204241	1.205363	-0.400462
F120	F	-0.704241	1.705363	0.099538
F121	F	-1.345056	0.856831	-0.582818
F122	F	-0.845056	1.356831	-0.082818
H123	H	-1.383215	0.924461	-0.632167
H124	H	-0.883215	1.424461	-0.132167
H125	H	-1.130937	0.820211	-0.306028
H126	H	-0.630937	1.320211	0.193972
H127	H	-1.172703	0.623022	-0.918691
H128	H	-0.672703	1.123022	-0.418691
H129	H	-1.419106	0.487744	-1.120737
H130	H	-0.919106	0.987744	-0.620737
H131	H	-1.465989	1.017497	-0.739144
H132	H	-0.965989	1.517497	-0.239144
H133	H	-1.460871	1.289958	-0.732537
H134	H	-0.960871	1.789958	-0.232537
