data_functionalizedCrystal
_audit_creation_method	'MofGen! by Chris Wilmer'
_symmetry_space_group_name_H-M	'P1'
_symmetry_Int_Tables_number	1
_symmetry_cell_setting	triclinic
loop_
_symmetry_equiv_pos_as_xyz
  x,y,z
_cell_length_a	9.065218
_cell_length_b	10.654550
_cell_length_c	9.130313
_cell_angle_alpha	90.004369
_cell_angle_beta	89.996409
_cell_angle_gamma	95.249592
loop_
_atom_site_label
_atom_site_type_symbol
_atom_site_fract_x
_atom_site_fract_y
_atom_site_fract_z
O1	O	1.959393	-0.184159	-0.121803
O2	O	1.530025	-0.199265	-0.121805
O3	O	1.754581	-0.009012	-0.121795
O4	O	1.734837	-0.374412	-0.121813
O5	O	1.754566	-0.009006	0.121804
O6	O	1.530010	-0.199259	0.121794
O7	O	1.959377	-0.184153	0.121796
Cu8	Cu	1.744692	-0.191706	0.144037
Cu9	Cu	1.744710	-0.191712	-0.144046
O10	O	1.734822	-0.374406	0.121786
C11	C	1.475039	-0.197810	-0.000006
C12	C	1.311220	-0.193469	-0.000006
C13	C	1.753124	0.037795	0.000004
C14	C	1.748786	0.177255	0.000002
C15	C	2.014364	-0.185608	-0.000006
C16	C	2.178183	-0.189949	-0.000015
C17	C	1.736279	-0.421213	-0.000016
C18	C	1.740616	-0.560673	-0.000024
N19	N	1.744690	-0.191700	0.346660
C20	C	1.881001	0.256217	0.000002
C21	C	1.876917	0.387254	-0.000016
C22	C	1.608391	0.360354	-0.000028
C23	C	1.612477	0.229320	-0.000021
N24	N	1.744724	-0.191708	-0.346669
C25	C	1.844157	-0.107492	0.423316
C26	C	1.844171	-0.107493	0.576653
C27	C	1.645246	-0.275920	0.576664
C28	C	1.645226	-0.275913	0.423330
H29	H	1.984580	0.451541	-0.000019
O30	O	1.548435	-0.357595	0.651082
C31	C	1.402173	-0.335456	0.613622
H32	H	1.400429	-0.234887	0.571485
H33	H	1.359527	-0.404554	0.524618
C34	C	1.304508	-0.477303	0.801607
C35	C	1.302365	-0.353779	0.749865
H36	H	1.242939	-0.488611	0.885644
H37	H	1.403047	-0.492223	0.826841
H38	H	1.268973	-0.534871	0.727424
H39	H	1.337917	-0.296215	0.824040
H40	H	1.203830	-0.338850	0.724645
O41	O	1.476114	0.411141	0.000029
C42	C	1.500855	0.543728	-0.000009
H43	H	1.615680	0.573187	0.046110
H44	H	1.493339	0.580267	-0.116876
C45	C	1.241896	0.563224	0.038876
C46	C	1.382921	0.599406	0.095531
H47	H	1.169146	0.597571	0.097803
H48	H	1.225225	0.473897	0.038896
H49	H	1.235654	0.593675	-0.058513
H50	H	1.389167	0.568941	0.192911
H51	H	1.399590	0.688729	0.095530
H52	H	1.991993	0.213831	0.000017
H53	H	1.504805	0.165025	-0.000025
H54	H	1.925144	-0.038920	0.360896
O55	O	1.940939	-0.025650	0.650890
C56	C	2.028689	0.048697	0.550332
H57	H	2.030863	-0.002817	0.441024
H58	H	1.979840	0.142572	0.534043
C59	C	2.184926	0.135958	0.744403
C60	C	2.187606	0.072682	0.610153
H61	H	2.282951	0.150759	0.781304
H62	H	2.125804	0.085873	0.812152
H63	H	2.144211	0.214180	0.730811
H64	H	2.228303	-0.005545	0.623750
H65	H	2.246739	0.122755	0.542407
H66	H	1.564221	-0.344485	0.360912
