data_functionalizedCrystal
_audit_creation_method	'MofGen! by Chris Wilmer'
_symmetry_space_group_name_H-M	'P1'
_symmetry_Int_Tables_number	1
_symmetry_cell_setting	triclinic
loop_
_symmetry_equiv_pos_as_xyz
  x,y,z
_cell_length_a	6.817900
_cell_length_b	7.190339
_cell_length_c	9.582880
_cell_angle_alpha	93.431763
_cell_angle_beta	68.792966
_cell_angle_gamma	119.388276
loop_
_atom_site_label
_atom_site_type_symbol
_atom_site_fract_x
_atom_site_fract_y
_atom_site_fract_z
V1	V	4.203257	0.294197	-0.465547
V2	V	4.703257	0.794197	0.034453
O3	O	4.097951	-0.015063	-0.457773
O4	O	4.597951	0.484937	0.042227
O5	O	4.239606	0.584233	-0.461316
O6	O	4.739606	1.084233	0.038684
O7	O	4.192579	0.289265	-0.669065
O8	O	4.692579	0.789265	-0.169065
O9	O	4.145304	0.281947	-0.248585
O10	O	4.645304	0.781947	0.251415
V11	V	4.671016	0.257254	-0.439724
V12	V	5.171016	0.757254	0.060276
O13	O	4.499096	0.375235	-0.522192
O14	O	4.999096	0.875235	-0.022192
O15	O	4.825374	0.176216	-0.383078
O16	O	5.325374	0.676216	0.116922
O17	O	4.411460	-0.032783	-0.443954
O18	O	4.911460	0.467217	0.056046
O19	O	4.893719	0.566514	-0.447497
O20	O	5.393719	1.066514	0.052503
O21	O	4.846366	0.269504	-0.656685
O22	O	5.346366	0.769504	-0.156685
O23	O	4.458487	0.262185	-0.236205
O24	O	4.958487	0.762185	0.263795
C25	C	4.044013	0.278687	-0.718705
C26	C	4.544013	0.778687	-0.218705
C27	C	4.117127	0.276574	-0.885075
C28	C	4.617127	0.776574	-0.385075
C29	C	4.104021	0.654953	-0.453708
C30	C	4.604021	1.154953	0.046292
C31	C	4.217372	0.896517	-0.451570
C32	C	4.717372	1.396517	0.048430
C33	C	4.270396	0.272771	-0.186558
C34	C	4.770396	0.772771	0.313442
C35	C	4.176517	0.274873	-0.020186
C36	C	4.676517	0.774873	0.479814
