data_functionalizedCrystal
_audit_creation_method	'MofGen! by Chris Wilmer'
_symmetry_space_group_name_H-M	'P1'
_symmetry_Int_Tables_number	1
_symmetry_cell_setting	triclinic
loop_
_symmetry_equiv_pos_as_xyz
  x,y,z
_cell_length_a	19.188924
_cell_length_b	11.792241
_cell_length_c	10.868271
_cell_angle_alpha	90.000107
_cell_angle_beta	89.992800
_cell_angle_gamma	96.332310
loop_
_atom_site_label
_atom_site_type_symbol
_atom_site_fract_x
_atom_site_fract_y
_atom_site_fract_z
O1	O	0.095695	-1.505472	-0.102209
O2	O	0.105558	-1.174983	-0.102238
O3	O	-0.000975	-1.349769	-0.102208
O4	O	0.202229	-1.330686	-0.102239
O5	O	-0.000980	-1.349755	0.102436
O6	O	0.105554	-1.174969	0.102406
O7	O	0.095691	-1.505458	0.102436
Zn8	Zn	0.100622	-1.340211	0.134913
Zn9	Zn	0.100627	-1.340230	-0.134715
O10	O	0.202224	-1.330672	0.102406
C11	C	0.104936	-1.132694	0.000081
C12	C	0.103082	-1.006708	0.000070
N13	N	0.100618	-1.340207	0.318927
C14	C	-0.026992	-1.349145	0.000115
C15	C	-0.104507	-1.347294	0.000118
C16	C	-0.140909	-1.346438	-0.111434
C17	C	-0.213741	-1.344682	-0.111443
C18	C	-0.250172	-1.343806	0.000106
C19	C	-0.213761	-1.344656	0.111673
C20	C	-0.140929	-1.346400	0.111679
N21	N	-0.369486	-1.405648	0.083134
N22	N	-0.438674	-1.403994	0.083121
C23	C	-0.469610	-1.338549	0.000093
N24	N	-0.428747	-1.274835	-0.082939
N25	N	-0.359553	-1.276495	-0.082929
C26	C	-0.329146	-1.341914	0.000111
C27	C	-0.584985	-1.335788	-0.111477
C28	C	-0.657819	-1.334025	-0.111482
C29	C	-0.657838	-1.334010	0.111637
C30	C	-0.585005	-1.335761	0.111639
C31	C	-0.548583	-1.336655	0.000078
C32	C	0.228241	-1.331296	0.000080
C33	C	0.305756	-1.333147	0.000068
C34	C	0.096313	-1.547747	0.000114
C35	C	0.098167	-1.673733	0.000117
C36	C	0.099672	-0.776047	0.000106
C37	C	0.101567	-0.904404	0.000086
N38	N	0.100626	-1.340243	-0.318729
C39	C	0.100626	-1.340224	0.569933
C40	C	0.100623	-1.340211	0.430255
H41	H	-0.111259	-1.347163	-0.202275
Cl42	Cl	-0.259513	-1.343606	-0.251691
Cl43	Cl	-0.539240	-1.336837	0.251885
H44	H	-0.111291	-1.347092	0.202521
H45	H	-0.243427	-1.343939	0.202496
Cl46	Cl	-0.539194	-1.336902	-0.251721
H47	H	-0.687455	-1.333322	-0.202325
H48	H	-0.687498	-1.333288	0.202463
