data_functionalizedCrystal
_audit_creation_method	'MofGen! by Chris Wilmer'
_symmetry_space_group_name_H-M	'P1'
_symmetry_Int_Tables_number	1
_symmetry_cell_setting	triclinic
loop_
_symmetry_equiv_pos_as_xyz
  x,y,z
_cell_length_a	17.077404
_cell_length_b	15.297327
_cell_length_c	17.077396
_cell_angle_alpha	80.354728
_cell_angle_beta	90.015921
_cell_angle_gamma	99.704720
loop_
_atom_site_label
_atom_site_type_symbol
_atom_site_fract_x
_atom_site_fract_y
_atom_site_fract_z
Zn1	Zn	1.145926	-0.359196	0.497877
Zn2	Zn	1.123110	-0.510073	0.389318
Zn3	Zn	1.014659	-0.359226	0.366632
Zn4	Zn	0.991907	-0.510010	0.520535
O5	O	1.068901	-0.434626	0.443591
O6	O	1.252744	-0.379225	0.483489
O7	O	1.108697	-0.490102	0.276468
O8	O	1.051142	-0.232977	0.365066
O9	O	1.235982	-0.490073	0.403731
O10	O	1.147583	-0.232955	0.461491
O11	O	1.029019	-0.379276	0.259801
O12	O	0.901796	-0.379214	0.387036
O13	O	1.012365	-0.489965	0.627370
O14	O	0.885080	-0.489994	0.500107
O15	O	1.125522	-0.379163	0.610724
O16	O	1.086636	-0.636311	0.425700
O17	O	0.990241	-0.636264	0.522105
C18	C	0.864957	-0.434601	0.443569
C19	C	0.777705	-0.434612	0.443582
C20	C	0.745429	-0.376995	0.485204
C21	C	0.663447	-0.377001	0.485208
C22	C	0.613743	-0.434629	0.443595
C23	C	0.646025	-0.492247	0.401968
C24	C	0.728006	-0.492236	0.401959
C25	C	0.475152	-0.492268	0.401990
C26	C	0.393166	-0.492280	0.402000
C27	C	0.410593	-0.377033	0.485240
C28	C	0.492574	-0.377022	0.485231
C29	C	0.524850	-0.434642	0.443605
C30	C	1.033515	-0.669021	0.478840
C31	C	1.018449	-0.769296	0.493946
C32	C	1.176904	-1.051927	0.335893
C33	C	1.191059	-0.957714	0.321696
C34	C	1.147908	-0.910605	0.364757
C35	C	1.090599	-0.957719	0.422018
C36	C	1.076438	-1.051941	0.436212
C37	C	1.047442	-0.910619	0.465076
C38	C	0.990134	-0.957733	0.522337
C39	C	0.975976	-1.051946	0.536529
C40	C	1.019127	-1.099055	0.493467
C41	C	1.061603	-0.816396	0.450882
C42	C	0.961138	-0.816410	0.551201
C43	C	0.946983	-0.910624	0.565398
C44	C	1.273641	-0.434653	0.443613
C45	C	1.360889	-0.434664	0.443622
C46	C	1.068950	-0.434553	0.648324
C47	C	1.068972	-0.434522	0.735569
C48	C	1.104445	-0.199316	0.408221
C49	C	1.119593	-0.099041	0.393148
C50	C	1.068906	-0.434634	0.239644
C51	C	1.069075	-0.434411	0.152361
C52	C	1.110548	-0.492125	1.120049
C53	C	1.110524	-0.492151	1.038072
C54	C	1.069032	-0.434459	0.988409
C55	C	1.027554	-0.376743	1.020726
C56	C	1.027574	-0.376721	1.102702
C57	C	1.027518	-0.376789	0.849863
C58	C	1.027499	-0.376809	0.767881
C59	C	1.110468	-0.492219	0.785233
C60	C	1.110487	-0.492197	0.867209
C61	C	1.069011	-0.434480	0.899521
H62	H	0.637172	-0.330086	0.519103
C63	C	0.339139	-0.554948	0.356961
C64	C	0.283369	-0.612860	0.410035
C65	C	0.233593	-0.670608	0.368574
H66	H	0.312280	-0.520488	0.317621
H67	H	0.370066	-0.589313	0.332183
H68	H	0.252446	-0.578500	0.434800
H69	H	0.310206	-0.647341	0.449375
H70	H	0.264520	-0.704973	0.343796
H71	H	0.206740	-0.636140	0.329236
H72	H	0.195752	-0.709914	0.404579
H73	H	1.108264	-0.778045	0.404260
C74	C	1.163130	-0.808316	0.349264
C75	C	1.093086	-0.777224	0.324474
C76	C	1.107086	-0.682997	0.310182
H77	H	1.179857	-0.786833	0.396667
H78	H	1.203410	-0.786969	0.308966
H79	H	1.052819	-0.798561	0.364768
H80	H	1.076348	-0.798682	0.277066
H81	H	1.147365	-0.661651	0.269884
H82	H	1.123813	-0.661523	0.357588
H83	H	1.059565	-0.661890	0.293353
H84	H	0.605550	-0.539164	0.368081
C85	C	1.253343	-0.906727	0.259533
C86	C	1.288120	-0.968145	0.224876
C87	C	1.345512	-0.921208	0.167614
H88	H	1.228942	-0.870022	0.219704
H89	H	1.293097	-0.869939	0.284034
H90	H	1.248372	-1.004918	0.200374
H91	H	1.312536	-1.004852	0.264684
H92	H	1.385265	-0.884420	0.192116
H93	H	1.321104	-0.884505	0.127791
H94	H	1.369120	-0.962873	0.144098
C95	C	1.155642	-0.554837	1.003136
C96	C	1.192007	-0.605332	1.064171
C97	C	1.233590	-0.663080	1.032017
H98	H	1.119750	-0.594234	0.977068
H99	H	1.195086	-0.520353	0.965996
H100	H	1.152568	-0.639814	1.101297
H101	H	1.227911	-0.565959	1.090244
H102	H	1.273034	-0.628596	0.994878
H103	H	1.197693	-0.702471	1.005950
H104	H	1.258274	-0.697341	1.073423
H105	H	0.993767	-0.329773	0.980284
H106	H	0.993716	-0.329828	0.727446
C107	C	0.799516	-0.314525	0.530371
C108	C	0.878218	-0.326862	0.521475
C109	C	0.928062	-0.269335	0.563079
H110	H	0.795323	-0.253859	0.509896
H111	H	0.784140	-0.327814	0.585110
H112	H	0.893591	-0.313566	0.466746
H113	H	0.882437	-0.387516	0.541953
H114	H	0.912686	-0.282624	0.617818
H115	H	0.923862	-0.208672	0.542600
H116	H	0.981466	-0.277703	0.557054
C117	C	0.763208	-0.554696	0.356786
C118	C	0.845644	-0.542335	0.365666
C119	C	0.878099	-0.599846	0.324051
H120	H	0.740721	-0.615367	0.377261
H121	H	0.751803	-0.541408	0.302049
H122	H	0.857043	-0.555628	0.420391
H123	H	0.868153	-0.481675	0.345187
H124	H	0.866693	-0.586559	0.269314
H125	H	0.855606	-0.660514	0.344530
H126	H	0.934035	-0.591461	0.330064
C127	C	0.510039	-0.554930	0.356786
C128	C	0.448963	-0.605422	0.320366
C129	C	0.481069	-0.663168	0.278733
H130	H	0.547211	-0.520473	0.317377
H131	H	0.536068	-0.594323	0.392668
H132	H	0.422947	-0.566034	0.284487
H133	H	0.411787	-0.639898	0.359757
H134	H	0.507098	-0.702560	0.314614
H135	H	0.518240	-0.628703	0.239328
H136	H	0.439633	-0.697439	0.254023
H137	H	1.212027	-1.090292	0.300834
C138	C	0.546557	-0.314607	0.530533
C139	C	0.585908	-0.365759	0.588472
C140	C	0.635635	-0.308292	0.630225
H141	H	0.584531	-0.275235	0.494728
H142	H	0.515616	-0.280308	0.555372
H143	H	0.616847	-0.400043	0.563634
H144	H	0.547954	-0.405129	0.624293
H145	H	0.604694	-0.273993	0.655064
H146	H	0.673604	-0.268923	0.594415
H147	H	0.662335	-0.342990	0.669546
H148	H	0.900321	-0.948997	0.612020
H149	H	1.144340	-0.539100	1.160480
H150	H	1.144240	-0.539214	0.758922
C151	C	0.914395	-0.765111	0.597906
C152	C	0.939078	-0.672516	0.573238
C153	C	0.896046	-0.625226	0.616246
H154	H	0.859315	-0.780496	0.588740
H155	H	0.923554	-0.780448	0.652986
H156	H	0.929912	-0.657185	0.518171
H157	H	0.994151	-0.657104	0.582406
H158	H	0.905206	-0.640563	0.671326
H159	H	0.840968	-0.640618	0.607077
H160	H	0.912793	-0.562395	0.599520
H161	H	1.007607	-1.175771	0.505025
C162	C	0.913744	-1.102937	0.598752
C163	C	0.878998	-1.041520	0.633441
C164	C	0.821675	-1.088458	0.690771
H165	H	0.873959	-1.139748	0.574326
H166	H	0.938222	-1.139619	0.638548
H167	H	0.854521	-1.004854	0.593651
H168	H	0.918764	-1.004707	0.657882
H169	H	0.846153	-1.125140	0.730567
H170	H	0.781895	-1.125268	0.666338
H171	H	0.798098	-1.046795	0.714319
H172	H	0.993743	-0.329790	0.876168
C173	C	0.982532	-0.313961	1.137630
C174	C	0.946208	-0.263423	1.076591
C175	C	0.904713	-0.205592	1.108734
H176	H	0.943070	-0.348358	1.174777
H177	H	1.018495	-0.274601	1.163684
H178	H	0.910248	-0.302777	1.050550
H179	H	0.985652	-0.229007	1.039439
H180	H	0.940676	-0.166232	1.134788
H181	H	0.865255	-0.239996	1.145881
H182	H	0.880068	-0.171289	1.067324
H183	H	0.384311	-0.330115	0.519132
H184	H	1.144278	-0.539171	0.907643
