data_functionalizedCrystal
_audit_creation_method	'MofGen! by Chris Wilmer'
_symmetry_space_group_name_H-M	'P1'
_symmetry_Int_Tables_number	1
_symmetry_cell_setting	triclinic
loop_
_symmetry_equiv_pos_as_xyz
  x,y,z
_cell_length_a	19.805407
_cell_length_b	16.120531
_cell_length_c	19.805399
_cell_angle_alpha	87.133995
_cell_angle_beta	89.978486
_cell_angle_gamma	87.068160
loop_
_atom_site_label
_atom_site_type_symbol
_atom_site_fract_x
_atom_site_fract_y
_atom_site_fract_z
Zn1	Zn	1.021025	0.331932	-0.396443
Zn2	Zn	1.521025	0.831932	0.103557
Zn3	Zn	1.015193	0.471354	-0.288984
Zn4	Zn	1.515193	0.971354	0.211016
Zn5	Zn	0.907844	0.331957	-0.283260
Zn6	Zn	1.407844	0.831957	0.216740
Zn7	Zn	0.902053	0.471304	-0.402120
Zn8	Zn	1.402053	0.971304	0.097880
O9	O	0.961529	0.401637	-0.342702
O10	O	1.461529	0.901637	0.157298
O11	O	1.114967	0.350437	-0.382209
O12	O	1.614967	0.850437	0.117791
O13	O	1.000936	0.452893	-0.193510
O14	O	1.500936	0.952893	0.306490
O15	O	0.927721	0.215287	-0.293502
O16	O	1.427721	0.715287	0.206498
O17	O	1.110683	0.452869	-0.303259
O18	O	1.610683	0.952869	0.196741
O19	O	1.010875	0.215269	-0.376658
O20	O	1.510875	0.715269	0.123342
O21	O	0.922067	0.350479	-0.189304
O22	O	1.422067	0.850479	0.310696
O23	O	0.812359	0.350431	-0.299007
O24	O	1.312359	0.850431	0.200993
O25	O	0.917852	0.452785	-0.496082
O26	O	1.417852	0.952785	0.003918
O27	O	0.808105	0.452809	-0.386333
O28	O	1.308105	0.952809	0.113667
O29	O	1.005260	0.350389	-0.491912
O30	O	1.505260	0.850389	0.008088
O31	O	0.995321	0.588013	-0.308763
O32	O	1.495321	1.088013	0.191237
O33	O	0.912198	0.587976	-0.391884
O34	O	1.412198	1.087976	0.108116
C35	C	0.785673	0.401618	-0.342665
C36	C	1.285673	0.901618	0.157335
C37	C	0.710441	0.401630	-0.342666
C38	C	1.210441	0.901630	0.157334
C39	C	0.246448	0.455045	-0.388152
C40	C	0.746448	0.955045	0.111848
C41	C	0.317137	0.455044	-0.388138
C42	C	0.817137	0.955044	0.111862
C43	C	0.354678	0.401657	-0.342729
C44	C	0.854678	0.901657	0.157271
C45	C	0.321527	0.348274	-0.297327
C46	C	0.821527	0.848274	0.202673
C47	C	0.250840	0.348280	-0.297339
C48	C	0.750840	0.848280	0.202661
C49	C	0.606602	0.348248	-0.297279
C50	C	1.106602	0.848248	0.202721
C51	C	0.677294	0.348244	-0.297272
C52	C	1.177294	0.848244	0.202728
C53	C	0.672898	0.455012	-0.388077
C54	C	1.172898	0.955012	0.111923
C55	C	0.602211	0.455018	-0.388089
C56	C	1.102211	0.955018	0.111911
C57	C	0.569066	0.401639	-0.342685
C58	C	1.069066	0.901639	0.157315
C59	C	0.492418	0.401642	-0.342700
C60	C	0.992418	0.901642	0.157300
C61	C	0.431326	0.401649	-0.342716
C62	C	0.931326	0.901649	0.157284
C63	C	0.952517	0.618245	-0.351575
C64	C	1.452517	1.118245	0.148425
C65	C	0.948724	0.710911	-0.355394
C66	C	1.448724	1.210911	0.144606
C67	C	0.941802	0.880572	-0.362380
C68	C	1.441802	1.380572	0.137620
C69	C	0.981281	0.921860	-0.322985
C70	C	1.481281	1.421860	0.177015
C71	C	0.977430	1.016266	-0.326872
C72	C	1.477430	1.516266	0.173128
C73	C	0.945652	0.786158	-0.358494
C74	C	1.445652	1.286158	0.141506
C75	C	1.138071	0.401656	-0.342739
C76	C	1.638071	0.901656	0.157261
C77	C	1.213302	0.401664	-0.342755
C78	C	1.713302	0.901664	0.157245
C79	C	0.970570	1.184182	-0.333796
C80	C	1.470570	1.684182	0.166204
C81	C	0.974361	1.091517	-0.329969
C82	C	1.474361	1.591517	0.170031
C83	C	0.961561	0.401579	-0.519242
C84	C	1.461561	0.901579	-0.019242
C85	C	0.961574	0.401554	-0.594473
C86	C	1.461574	0.901554	-0.094473
C87	C	0.920520	0.348222	-0.627627
C88	C	1.420520	0.848222	-0.127627
C89	C	0.920530	0.348206	-0.698314
C90	C	1.420530	0.848206	-0.198314
C91	C	0.961599	0.401518	-0.735847
C92	C	1.461599	0.901518	-0.235847
C93	C	1.002655	0.454856	-0.702689
C94	C	1.502655	0.954856	-0.202689
C95	C	1.002641	0.454876	-0.632003
C96	C	1.502641	0.954876	-0.132003
C97	C	1.002712	0.454778	-0.987759
C98	C	1.502712	0.954778	-0.487759
C99	C	1.002724	0.454752	-1.058451
C100	C	1.502724	0.954752	-0.558451
C101	C	0.920601	0.348108	-1.054071
C102	C	1.420601	0.848108	-0.554071
C103	C	0.920587	0.348128	-0.983385
C104	C	1.420587	0.848128	-0.483385
C105	C	0.961640	0.401468	-0.950233
C106	C	1.461640	0.901468	-0.450233
C107	C	0.961628	0.401487	-0.873585
C108	C	1.461628	0.901487	-0.373585
C109	C	0.961615	0.401496	-0.812494
C110	C	1.461615	0.901496	-0.312494
C111	C	0.961538	0.401634	-0.166846
C112	C	1.461538	0.901634	0.333154
C113	C	0.961665	0.401424	-0.091605
C114	C	1.461665	0.901424	0.408395
H115	H	0.215887	0.498514	-0.425132
H116	H	0.715887	0.998514	0.074868
H117	H	1.036077	0.498298	-0.605010
H118	H	1.536077	0.998298	-0.105010
H119	H	0.571648	0.498488	-0.425067
H120	H	1.071648	0.998488	0.074933
H121	H	0.887147	0.304712	-0.952829
H122	H	1.387147	0.804712	-0.452829
H123	H	0.344121	0.498513	-0.425103
H124	H	0.844121	0.998513	0.074897
H125	H	0.699893	0.498478	-0.425045
H126	H	1.199893	0.998478	0.074955
H127	H	0.352099	0.304809	-0.260352
H128	H	0.852099	0.804809	0.239648
H129	H	0.887171	0.304678	-1.081072
H130	H	1.387171	0.804678	-0.581072
H131	H	0.579624	0.304786	-0.260306
H132	H	1.079624	0.804786	0.239694
H133	H	1.036169	0.498169	-1.089008
H134	H	1.536169	0.998169	-0.589008
H135	H	0.707859	0.304767	-0.260293
H136	H	1.207859	0.804767	0.239707
H137	H	0.223854	0.304810	-0.260374
H138	H	0.723854	0.804810	0.239626
H139	H	1.017973	0.886307	-0.286338
H140	H	1.517973	1.386307	0.213662
H141	H	1.036132	0.498221	-0.960776
H142	H	1.536132	0.998221	-0.460776
H143	H	0.905112	0.916123	-0.399023
H144	H	1.405112	1.416123	0.100977
H145	H	1.036090	0.498268	-0.733254
H146	H	1.536090	0.998268	-0.233254
H147	H	0.887096	0.304780	-0.725305
H148	H	1.387096	0.804780	-0.225305
H149	H	0.887081	0.304804	-0.597072
H150	H	1.387081	0.804804	-0.097072
