data_functionalizedCrystal
_audit_creation_method	'MofGen! by Chris Wilmer'
_symmetry_space_group_name_H-M	'P1'
_symmetry_Int_Tables_number	1
_symmetry_cell_setting	triclinic
loop_
_symmetry_equiv_pos_as_xyz
  x,y,z
_cell_length_a	15.995350
_cell_length_b	9.130313
_cell_length_c	10.654551
_cell_angle_alpha	90.002136
_cell_angle_beta	83.988902
_cell_angle_gamma	89.999134
loop_
_atom_site_label
_atom_site_type_symbol
_atom_site_fract_x
_atom_site_fract_y
_atom_site_fract_z
O1	O	1.111924	0.121669	0.161872
O2	O	0.868265	0.121699	0.181861
O3	O	0.995696	0.121680	-0.010946
O4	O	0.984493	0.121688	0.354679
O5	O	0.995689	-0.121919	-0.010950
O6	O	0.868258	-0.121900	0.181857
O7	O	1.111917	-0.121929	0.161868
Cu8	Cu	0.990087	-0.144157	0.171862
Cu9	Cu	0.990095	0.143927	0.171867
O10	O	0.984486	-0.121911	0.354675
C11	C	0.837062	-0.000097	0.181033
C12	C	0.744097	-0.000085	0.178555
N13	N	0.990087	-0.346780	0.171859
C14	C	0.994870	-0.000117	-0.057735
C15	C	0.992408	-0.000110	-0.197146
C16	C	0.406298	-0.000116	0.169658
C17	C	0.452934	-0.000662	0.032344
C18	C	0.549639	-0.000103	0.034822
C19	C	0.573884	-0.000102	0.174071
C20	C	0.533194	0.139001	0.241801
C21	C	0.436539	0.139107	0.238351
C22	C	0.436208	-0.137910	0.241184
C23	C	0.533153	-0.139739	0.241152
C24	C	0.668596	-0.000089	0.176573
C25	C	0.311585	-0.000119	0.167160
C26	C	1.143120	-0.000131	0.162696
C27	C	1.236085	-0.000132	0.165174
C28	C	1.046536	-0.576787	0.086515
C29	C	1.046531	-0.423450	0.086517
C30	C	0.933649	-0.423455	0.257213
C31	C	0.933659	-0.576789	0.257216
N32	N	0.990101	0.346549	0.171860
C33	C	0.991256	0.132678	-0.262633
C34	C	0.988936	0.132679	-0.393623
C35	C	0.988923	-0.132906	-0.393628
C36	C	0.991237	-0.132906	-0.262640
C37	C	0.985312	-0.000111	0.401464
C38	C	0.987774	-0.000108	0.540875
H39	H	0.577755	-0.099818	-0.018417
H40	H	0.992207	0.240809	-0.209311
H41	H	0.404876	0.145421	0.339165
H42	H	0.577188	0.099783	-0.018774
N43	N	0.876009	-0.655087	0.344416
N44	N	0.825616	-0.586625	0.420614
H45	H	0.784904	-0.641922	0.482201
H46	H	0.992170	-0.241044	-0.209318
N47	N	0.413222	0.269556	0.176396
N48	N	0.468309	0.359884	0.135999
H49	H	0.451846	0.452017	0.092240
H50	H	0.561298	0.242523	0.194762
N51	N	0.987749	-0.268548	-0.460533
N52	N	1.046920	-0.357469	-0.457479
H53	H	1.046094	-0.453271	-0.504728
N54	N	0.551660	0.145478	0.370138
N55	N	0.595121	0.047413	0.413217
H56	H	0.608164	0.051983	0.503856
N57	N	1.104182	-0.655094	-0.000681
N58	N	1.102362	-0.637972	-0.116760
H59	H	1.143076	-0.693273	-0.178347
H60	H	0.434090	-0.100418	-0.022545
H61	H	0.433026	0.098541	-0.022289
H62	H	0.415409	-0.243347	0.196292
H63	H	1.092487	-0.361034	0.017023
N64	N	0.567047	-0.268827	0.179101
N65	N	0.621001	-0.258141	0.085822
H66	H	0.644944	-0.349307	0.041995
N67	N	0.397100	-0.139074	0.368187
N68	N	0.347405	-0.038969	0.406004
H69	H	0.319781	-0.039780	0.495696
H70	H	0.887694	-0.361021	0.326706
N71	N	0.553202	-0.150271	0.368523
N72	N	0.628217	-0.159082	0.390829
H73	H	0.642388	-0.166502	0.480785
H74	H	0.987997	0.240808	-0.446936
