data_functionalizedCrystal
_audit_creation_method	'MofGen! by Chris Wilmer'
_symmetry_space_group_name_H-M	'P1'
_symmetry_Int_Tables_number	1
_symmetry_cell_setting	triclinic
loop_
_symmetry_equiv_pos_as_xyz
  x,y,z
_cell_length_a	23.532407
_cell_length_b	23.532407
_cell_length_c	12.503572
_cell_angle_alpha	93.496478
_cell_angle_beta	86.509276
_cell_angle_gamma	82.848678
loop_
_atom_site_label
_atom_site_type_symbol
_atom_site_fract_x
_atom_site_fract_y
_atom_site_fract_z
O1	O	0.758558	0.065826	-0.089196
O2	O	1.091891	0.399159	0.244137
O3	O	1.425224	0.732493	0.577470
O4	O	0.592696	0.075828	-0.089229
O5	O	0.926029	0.409161	0.244104
O6	O	1.259362	0.742495	0.577437
O7	O	0.680627	-0.012104	-0.089192
O8	O	1.013961	0.321229	0.244141
O9	O	1.347294	0.654563	0.577475
O10	O	0.670626	0.153758	-0.089233
O11	O	1.003959	0.487091	0.244100
O12	O	1.337292	0.820425	0.577433
O13	O	0.674014	-0.005480	0.089447
O14	O	1.007348	0.327853	0.422780
O15	O	1.340681	0.661187	0.756114
O16	O	0.586082	0.082452	0.089410
O17	O	0.919416	0.415785	0.422743
O18	O	1.252749	0.749119	0.756076
O19	O	0.751945	0.072450	0.089443
O20	O	1.085278	0.405783	0.422776
O21	O	1.418611	0.739117	0.756110
Cu22	Cu	0.668410	0.078056	0.105738
Cu23	Cu	1.001743	0.411389	0.439071
Cu24	Cu	1.335076	0.744722	0.772404
Cu25	Cu	0.676230	0.070222	-0.105524
Cu26	Cu	1.009564	0.403556	0.227809
Cu27	Cu	1.342897	0.736889	0.561143
O28	O	0.664013	0.160382	0.089406
O29	O	0.997346	0.493715	0.422739
O30	O	1.330679	0.827049	0.756072
C31	C	0.568173	0.078885	0.000086
C32	C	0.901506	0.412218	0.333420
C33	C	1.234840	0.745552	0.666753
C34	C	0.504957	0.078119	0.000075
C35	C	0.838290	0.411452	0.333408
C36	C	1.171623	0.744786	0.666741
C37	C	0.105852	0.125354	0.000111
C38	C	0.439185	0.458687	0.333445
C39	C	0.772519	0.792020	0.666778
C40	C	0.046452	0.124642	0.000118
C41	C	0.379785	0.457976	0.333451
C42	C	0.713118	0.791309	0.666785
O43	O	0.009706	0.168429	0.000146
O44	O	0.343039	0.501763	0.333480
O45	O	0.676373	0.835096	0.666813
N46	N	0.023825	0.072367	0.000129
N47	N	0.357158	0.405700	0.333463
N48	N	0.690492	0.739033	0.666796
C49	C	0.060602	0.020799	0.000145
C50	C	0.393935	0.354132	0.333478
C51	C	0.727269	0.687466	0.666811
O52	O	0.035902	-0.023731	0.000156
O53	O	0.369235	0.309602	0.333489
O54	O	0.702569	0.642936	0.666823
C55	C	0.120001	0.021511	0.000146
C56	C	0.453334	0.354844	0.333479
C57	C	0.786668	0.688178	0.666812
C58	C	0.142625	0.073790	0.000124
C59	C	0.475958	0.407123	0.333457
C60	C	0.809291	0.740457	0.666790
C61	C	0.128476	0.177628	0.000090
C62	C	0.461809	0.510962	0.333424
C63	C	0.795143	0.844295	0.666757
C64	C	0.187873	0.178339	0.000082
C65	C	0.521206	0.511673	0.333415
C66	C	0.854539	0.845006	0.666748
C67	C	0.224645	0.126775	0.000094
C68	C	0.557978	0.460109	0.333427
C69	C	0.891312	0.793442	0.666761
C70	C	0.202021	0.074501	0.000115
C71	C	0.535354	0.407834	0.333448
C72	C	0.868688	0.741167	0.666782
C73	C	0.156777	-0.030056	0.000169
C74	C	0.490110	0.303278	0.333502
C75	C	0.823443	0.636611	0.666836
C76	C	0.216179	-0.029339	0.000171
C77	C	0.549512	0.303994	0.333504
C78	C	0.882846	0.637328	0.666837
C79	C	0.238803	0.022940	0.000148
C80	C	0.572136	0.356273	0.333482
C81	C	0.905469	0.689606	0.666815
C82	C	0.298190	0.023648	0.000118
C83	C	0.631523	0.356981	0.333452
C84	C	0.964857	0.690315	0.666785
N85	N	0.320817	0.075924	0.000107
N86	N	0.654150	0.409257	0.333440
N87	N	0.987483	0.742590	0.666774
C88	C	0.284044	0.127488	0.000095
C89	C	0.617377	0.460821	0.333428
C90	C	0.950711	0.794154	0.666762
C91	C	-0.064140	0.019307	0.000145
C92	C	0.269193	0.352641	0.333478
C93	C	0.602526	0.685974	0.666811
C94	C	-0.123538	0.018595	0.000136
C95	C	0.209795	0.351928	0.333469
C96	C	0.543129	0.685261	0.666803
C97	C	-0.137685	0.122438	0.000111
C98	C	0.195649	0.455772	0.333445
C99	C	0.528982	0.789105	0.666778
C100	C	-0.078286	0.123151	0.000112
C101	C	0.255048	0.456484	0.333446
C102	C	0.588381	0.789817	0.666779
C103	C	-0.041514	0.071583	0.000133
C104	C	0.291819	0.404917	0.333467
C105	C	0.625153	0.738250	0.666800
C106	C	0.408782	0.128976	0.000076
C107	C	0.742115	0.462310	0.333409
C108	C	1.075448	0.795643	0.666742
C109	C	0.468184	0.129683	0.000062
C110	C	0.801517	0.463016	0.333396
C111	C	1.134851	0.796349	0.666729
C112	C	0.482325	0.025839	0.000093
C113	C	0.815658	0.359173	0.333426
C114	C	1.148992	0.692506	0.666759
C115	C	0.422928	0.025133	0.000100
C116	C	0.756261	0.358466	0.333434
C117	C	1.089595	0.691799	0.666767
C118	C	0.386157	0.076706	0.000095
C119	C	0.719490	0.410039	0.333429
C120	C	1.052824	0.743373	0.666762
O121	O	0.334970	-0.020116	0.000095
O122	O	0.668303	0.313217	0.333428
O123	O	1.001637	0.646551	0.666761
O124	O	0.308752	0.172011	0.000098
O125	O	0.642085	0.505344	0.333431
O126	O	0.975419	0.838677	0.666764
C127	C	0.677066	-0.030008	0.000130
C128	C	1.010399	0.303325	0.333463
C129	C	1.343733	0.636659	0.666797
C130	C	0.676300	-0.093225	0.000138
C131	C	1.009633	0.240109	0.333472
C132	C	1.342967	0.573442	0.666805
C133	C	0.723535	-0.492329	0.000089
C134	C	1.056869	-0.158996	0.333422
C135	C	1.390202	0.174337	0.666755
C136	C	0.722824	-0.551730	0.000080
C137	C	1.056157	-0.218397	0.333414
C138	C	1.389491	0.114937	0.666747
O139	O	0.766611	-0.588476	0.000050
O140	O	1.099944	-0.255142	0.333383
O141	O	1.433278	0.078191	0.666716
N142	N	0.670548	-0.574357	0.000071
N143	N	1.003881	-0.241023	0.333404
N144	N	1.337215	0.092310	0.666738
C145	C	0.618980	-0.537579	0.000059
C146	C	0.952314	-0.204246	0.333392
C147	C	1.285647	0.129087	0.666725
O148	O	0.574450	-0.562279	0.000049
O149	O	0.907784	-0.228946	0.333382
O150	O	1.241117	0.104387	0.666715
C151	C	0.619692	-0.478180	0.000059
C152	C	0.953026	-0.144847	0.333393
C153	C	1.286359	0.188486	0.666726
C154	C	0.671971	-0.455557	0.000080
C155	C	1.005305	-0.122224	0.333413
C156	C	1.338638	0.211110	0.666746
C157	C	0.775810	-0.469706	0.000108
C158	C	1.109143	-0.136372	0.333441
C159	C	1.442477	0.196961	0.666775
C160	C	0.776521	-0.410309	0.000118
C161	C	1.109854	-0.076976	0.333452
C162	C	1.443187	0.256358	0.666785
C163	C	0.724957	-0.373536	0.000109
C164	C	1.058290	-0.040203	0.333443
C165	C	1.391624	0.293130	0.666776
C166	C	0.672682	-0.396160	0.000090
C167	C	1.006015	-0.062827	0.333423
C168	C	1.339349	0.270506	0.666757
C169	C	0.568126	-0.441405	0.000039
C170	C	0.901459	-0.108071	0.333373
C171	C	1.234792	0.225262	0.666706
C172	C	0.568842	-0.382002	0.000039
C173	C	0.902175	-0.048669	0.333372
C174	C	1.235509	0.284665	0.666706
C175	C	0.621121	-0.359379	0.000060
C176	C	0.954454	-0.026045	0.333393
C177	C	1.287788	0.307288	0.666726
C178	C	0.621829	-0.299991	0.000091
C179	C	0.955162	0.033342	0.333425
C180	C	1.288496	0.366675	0.666758
N181	N	0.674105	-0.277365	0.000101
N182	N	1.007438	0.055969	0.333434
N183	N	1.340772	0.389302	0.666768
C184	C	0.725669	-0.314137	0.000110
C185	C	1.059002	0.019196	0.333443
C186	C	1.392336	0.352529	0.666777
C187	C	0.617489	-0.662322	0.000055
C188	C	0.950822	-0.328989	0.333389
C189	C	1.284156	0.004345	0.666722
C190	C	0.616776	-0.721720	0.000062
C191	C	0.950109	-0.388386	0.333396
C192	C	1.283443	-0.055053	0.666729
C193	C	0.720620	-0.735866	0.000082
C194	C	1.053954	-0.402533	0.333416
C195	C	1.387287	-0.069200	0.666749
C196	C	0.721332	-0.676467	0.000083
C197	C	1.054666	-0.343134	0.333416
C198	C	1.387999	-0.009801	0.666750
C199	C	0.669765	-0.639696	0.000065
C200	C	1.003098	-0.306362	0.333398
C201	C	1.336432	0.026971	0.666732
C202	C	0.727158	-0.189400	0.000133
C203	C	1.060491	0.143934	0.333466
C204	C	1.393824	0.477267	0.666799
C205	C	0.727864	-0.129997	0.000147
C206	C	1.061197	0.203336	0.333481
C207	C	1.394531	0.536670	0.666814
C208	C	0.624020	-0.115856	0.000122
C209	C	0.957354	0.217477	0.333455
C210	C	1.290687	0.550811	0.666788
C211	C	0.623314	-0.175253	0.000113
C212	C	0.956647	0.158080	0.333446
C213	C	1.289980	0.491414	0.666779
C214	C	0.674887	-0.212024	0.000114
C215	C	1.008221	0.121309	0.333448
C216	C	1.341554	0.454642	0.666781
O217	O	0.578065	-0.263211	0.000118
O218	O	0.911399	0.070122	0.333451
O219	O	1.244732	0.403456	0.666784
O220	O	0.770192	-0.289430	0.000106
O221	O	1.103526	0.043904	0.333439
O222	O	1.436859	0.377237	0.666772
C223	C	0.776467	0.069393	0.000125
C224	C	1.109800	0.402726	0.333458
C225	C	1.443134	0.736059	0.666792
C226	C	0.839684	0.070159	0.000130
C227	C	1.173017	0.403492	0.333463
C228	C	1.506351	0.736826	0.666796
C229	C	0.667574	0.178286	0.000081
C230	C	1.000907	0.511619	0.333414
C231	C	1.334241	0.844952	0.666748
C232	C	0.668341	0.241502	0.000066
C233	C	1.001674	0.574836	0.333399
C234	C	1.335007	0.908169	0.666733
N235	N	0.662913	0.083565	0.254327
N236	N	0.996247	0.416898	0.587661
N237	N	1.329580	0.750232	0.920994
N238	N	0.681732	0.064708	-0.254114
N239	N	1.015065	0.398042	0.079219
N240	N	1.348398	0.731375	0.412553
C241	C	0.654828	0.091674	0.473439
C242	C	0.988161	0.425008	0.806773
C243	C	1.321494	0.758341	1.140106
C244	C	0.689815	0.056601	0.526781
C245	C	1.023149	0.389934	0.860115
C246	C	1.356482	0.723268	1.193448
C247	C	0.685316	0.061113	0.648702
C248	C	1.018650	0.394447	0.982036
C249	C	1.351983	0.727780	1.315369
C250	C	0.659326	0.087163	0.351507
C251	C	0.992659	0.420496	0.684840
C252	C	1.325992	0.753830	1.018174
H253	H	0.378849	0.170973	0.000075
H254	H	0.712182	0.504306	0.333408
H255	H	1.045515	0.837639	0.666742
N256	N	0.782779	-0.229058	0.000142
N257	N	1.116113	0.104276	0.333475
N258	N	1.449446	0.437609	0.666808
H259	H	0.808056	-0.224260	-0.066069
H260	H	1.141389	0.109074	0.267264
H261	H	1.474723	0.442407	0.600598
H262	H	0.803099	-0.219340	0.066418
H263	H	1.136432	0.113993	0.399751
H264	H	1.469765	0.447327	0.733085
N265	N	0.831429	-0.509363	0.000133
N266	N	1.164762	-0.176030	0.333466
N267	N	1.498095	0.157304	0.666799
H268	H	0.835910	-0.536777	-0.066085
H269	H	1.169243	-0.203444	0.267248
H270	H	1.502577	0.129889	0.600582
H271	H	0.864614	-0.485968	0.000188
H272	H	1.197947	-0.152634	0.333521
H273	H	1.531281	0.180699	0.666854
H274	H	0.819092	-0.391895	0.000131
H275	H	1.152425	-0.058562	0.333464
H276	H	1.485758	0.274771	0.666797
H277	H	0.763902	-0.658052	0.000099
H278	H	1.097236	-0.324719	0.333432
H279	H	1.430569	0.008615	0.666765
N280	N	0.776238	-0.775534	0.000092
N281	N	1.109571	-0.442201	0.333426
N282	N	1.442904	-0.108868	0.666759
H283	H	0.767850	-0.816595	0.000085
H284	H	1.101183	-0.483262	0.333419
H285	H	1.434516	-0.149928	0.666752
H286	H	0.801487	-0.770693	-0.066127
H287	H	1.134820	-0.437360	0.267206
H288	H	1.468154	-0.104027	0.600540
N289	N	0.255836	-0.084961	0.000198
N290	N	0.589169	0.248372	0.333531
N291	N	0.922503	0.581705	0.666865
H292	H	0.251037	-0.110241	-0.066014
H293	H	0.584370	0.223092	0.267320
H294	H	0.917703	0.556425	0.600653
H295	H	0.296882	-0.076535	0.000233
H296	H	0.630215	0.256798	0.333567
H297	H	0.963548	0.590131	0.666900
H298	H	0.206287	0.220910	0.000063
H299	H	0.539620	0.554243	0.333397
H300	H	0.872953	0.887577	0.666730
H301	H	0.098541	0.219620	0.000084
H302	H	0.431874	0.552954	0.333418
H303	H	0.765208	0.886287	0.666751
N304	N	-0.053886	0.179536	0.000085
N305	N	0.279447	0.512869	0.333418
N306	N	0.612780	0.846202	0.666752
H307	H	-0.086200	0.212090	0.000073
H308	H	0.247134	0.545423	0.333406
H309	H	0.580467	0.878757	0.666740
H310	H	-0.031999	0.184554	0.066308
H311	H	0.301334	0.517887	0.399642
H312	H	0.634668	0.851220	0.732975
N313	N	0.492579	0.186074	0.000032
N314	N	0.825913	0.519407	0.333365
N315	N	1.159246	0.852741	0.666698
H316	H	0.476702	0.211105	0.066248
H317	H	0.810036	0.544438	0.399581
H318	H	1.143369	0.877771	0.732915
H319	H	0.535787	0.178658	-0.000017
H320	H	0.869120	0.511991	0.333317
H321	H	1.202453	0.845325	0.666650
H322	H	-0.167636	0.164425	0.000107
H323	H	0.165697	0.497758	0.333440
H324	H	0.499031	0.831091	0.666773
H325	H	-0.141952	-0.023977	0.000137
H326	H	0.191382	0.309357	0.333471
H327	H	0.524715	0.642690	0.666804
N328	N	0.733970	0.012340	0.465987
N329	N	1.067303	0.345673	0.799320
N330	N	1.400636	0.679006	1.132654
H331	H	0.760796	0.032231	0.419325
H332	H	1.094130	0.365565	0.752658
H333	H	1.427463	0.698898	1.085992
H334	H	0.756654	-0.010426	0.518640
H335	H	1.089987	0.322907	0.851974
H336	H	1.423321	0.656240	1.185307
N337	N	0.566927	-0.199654	0.000098
N338	N	0.900260	0.133679	0.333432
N339	N	1.233593	0.467013	0.666765
H340	H	0.566769	-0.226429	-0.066131
H341	H	0.900102	0.106904	0.267202
H342	H	1.233435	0.440238	0.600535
H343	H	0.561896	-0.221508	0.066356
H344	H	0.895230	0.111825	0.399689
H345	H	1.228563	0.445158	0.733022
H346	H	0.621497	0.125088	0.519333
H347	H	0.954831	0.458422	0.852666
H348	H	1.288164	0.791755	1.185999
N349	N	-0.024486	-0.036319	0.000148
N350	N	0.308848	0.297014	0.333482
N351	N	0.642181	0.630348	0.666815
H352	H	0.002922	-0.040796	-0.066074
H353	H	0.336255	0.292537	0.267260
H354	H	0.669589	0.625871	0.600593
H355	H	-0.002012	-0.035855	0.066413
H356	H	0.331322	0.297478	0.399747
H357	H	0.664655	0.630811	0.733080
N358	N	0.132383	-0.086441	0.000203
N359	N	0.465716	0.246892	0.333536
N360	N	0.799050	0.580225	0.666869
H361	H	0.148264	-0.111476	-0.066006
H362	H	0.481597	0.221857	0.267327
H363	H	0.814931	0.555190	0.600660
H364	H	0.143376	-0.106505	0.066481
H365	H	0.476710	0.226829	0.399814
H366	H	0.810043	0.560162	0.733147
N367	N	0.398523	-0.031252	0.000104
N368	N	0.731856	0.302081	0.333437
N369	N	1.065190	0.635414	0.666770
H370	H	0.430834	-0.063810	0.000105
H371	H	0.764168	0.269524	0.333438
H372	H	1.097501	0.602857	0.666771
H373	H	0.371743	-0.031355	0.066334
H374	H	0.705076	0.301978	0.399668
H375	H	1.038410	0.635311	0.733001
H376	H	0.582038	-0.085905	0.000118
H377	H	0.915372	0.247428	0.333451
H378	H	1.248705	0.580762	0.666785
N379	N	0.521992	-0.029774	0.000106
N380	N	0.855326	0.303559	0.333440
N381	N	1.188659	0.636893	0.666773
H382	H	0.563053	-0.021386	0.000104
H383	H	0.896386	0.311948	0.333438
H384	H	1.229719	0.645281	0.666771
H385	H	0.512252	-0.050112	0.066342
H386	H	0.845586	0.283222	0.399675
H387	H	1.178919	0.616555	0.733009
H388	H	0.770437	-0.111581	0.000167
H389	H	1.103771	0.221752	0.333500
H390	H	1.437104	0.555086	0.666833
N391	N	0.560389	-0.746116	0.000070
N392	N	0.893722	-0.412783	0.333403
N393	N	1.227056	-0.079450	0.666736
H394	H	0.527834	-0.713803	0.000069
H395	H	0.861168	-0.380469	0.333403
H396	H	1.194501	-0.047136	0.666736
H397	H	0.560277	-0.772903	-0.066155
H398	H	0.893610	-0.439569	0.267178
H399	H	1.226943	-0.106236	0.600511
N400	N	0.561869	-0.622657	0.000054
N401	N	0.895202	-0.289324	0.333388
N402	N	1.228536	0.044009	0.666721
H403	H	0.541495	-0.632353	-0.066169
H404	H	0.874828	-0.299019	0.267164
H405	H	1.208162	0.034314	0.600498
H406	H	0.536642	-0.627471	0.066318
H407	H	0.869975	-0.294138	0.399651
H408	H	1.203309	0.039196	0.732985
N409	N	0.511738	-0.465795	0.000031
N410	N	0.845071	-0.132462	0.333364
N411	N	1.178405	0.200871	0.666697
H412	H	0.479186	-0.433479	0.000023
H413	H	0.812519	-0.100146	0.333356
H414	H	1.145853	0.233188	0.666690
H415	H	0.511627	-0.492582	-0.066193
H416	H	0.844960	-0.159249	0.267140
H417	H	1.178293	0.174084	0.600473
N418	N	0.513222	-0.342341	0.000014
N419	N	0.846555	-0.009008	0.333348
N420	N	1.179889	0.324325	0.666681
H421	H	0.480000	-0.365691	0.000001
H422	H	0.813333	-0.032358	0.333334
H423	H	1.146666	0.300976	0.666667
H424	H	0.508799	-0.314939	0.066240
H425	H	0.842133	0.018395	0.399574
H426	H	1.175466	0.351728	0.732907
