data_functionalizedCrystal
_audit_creation_method	'MofGen! by Chris Wilmer'
_symmetry_space_group_name_H-M	'P1'
_symmetry_Int_Tables_number	1
_symmetry_cell_setting	triclinic
loop_
_symmetry_equiv_pos_as_xyz
  x,y,z
_cell_length_a	16.625548
_cell_length_b	21.295419
_cell_length_c	16.625539
_cell_angle_alpha	90.018037
_cell_angle_beta	90.018832
_cell_angle_gamma	90.000443
loop_
_atom_site_label
_atom_site_type_symbol
_atom_site_fract_x
_atom_site_fract_y
_atom_site_fract_z
Zn1	Zn	-1.232775	0.250622	-0.455995
Zn2	Zn	-1.232738	0.355892	-0.321182
Zn3	Zn	-1.097945	0.250640	-0.321171
Zn4	Zn	-1.097959	0.355857	-0.455967
O5	O	-1.165354	0.303253	-0.388579
O6	O	-1.345603	0.264593	-0.438127
O7	O	-1.214836	0.341952	-0.208348
O8	O	-1.115840	0.162548	-0.339063
O9	O	-1.345575	0.341935	-0.339081
O10	O	-1.214899	0.162535	-0.438117
O11	O	-1.115805	0.264624	-0.208340
O12	O	-0.985115	0.264591	-0.339036
O13	O	-1.115864	0.341875	-0.568803
O14	O	-0.985125	0.341893	-0.438070
O15	O	-1.214913	0.264559	-0.568823
O16	O	-1.214850	0.443977	-0.339054
O17	O	-1.115828	0.443951	-0.438081
C18	C	-0.955863	0.303240	-0.388550
C19	C	-0.866242	0.303250	-0.388556
C20	C	-1.165373	0.139063	-0.388592
C21	C	-1.165380	0.069094	-0.388597
C22	C	-0.538067	0.303249	-0.388581
C23	C	-0.629375	0.303247	-0.388571
C24	C	-0.702152	0.303250	-0.388568
C25	C	-0.793466	0.303248	-0.388560
C26	C	-1.113884	-0.430376	-0.440174
C27	C	-1.113872	-0.364633	-0.440169
C28	C	-1.165423	-0.331745	-0.388612
C29	C	-1.216976	-0.364605	-0.337041
C30	C	-1.216981	-0.430346	-0.337041
N31	N	-1.235993	-0.228521	-0.382436
N32	N	-1.235986	-0.166069	-0.382440
C33	C	-1.165410	-0.133670	-0.388607
N34	N	-1.094839	-0.166082	-0.394784
N35	N	-1.094847	-0.228539	-0.394784
C36	C	-1.165423	-0.260460	-0.388606
C37	C	-1.113843	-0.029533	-0.440166
C38	C	-1.113829	0.036211	-0.440156
C39	C	-1.216941	0.036238	-0.337032
C40	C	-1.216948	-0.029504	-0.337038
C41	C	-1.165399	-0.062386	-0.388609
C42	C	-0.375663	0.303262	-0.388601
C43	C	-0.465284	0.303255	-0.388590
C44	C	-1.165358	0.466804	-0.388583
C45	C	-1.165433	0.536772	-0.388612
C46	C	-1.165394	0.303211	-0.598888
C47	C	-1.165411	0.303193	-0.688509
C48	C	-1.165424	0.303180	-0.761291
C49	C	-1.165443	0.303156	-0.852600
C50	C	-1.165462	0.303134	-0.925376
C51	C	-1.165482	0.303111	-1.016691
C52	C	-1.165361	0.303249	-0.179088
C53	C	-1.165501	0.303089	-0.089467
H54	H	-1.071908	-0.457146	-0.482164
H55	H	-1.258914	0.063015	-0.295051
N56	N	-1.269611	-0.063056	-0.284364
N57	N	-1.315634	-0.033686	-0.238331
H58	H	-1.352829	-0.057381	-0.201125
N59	N	-1.061203	-0.331077	-0.492841
N60	N	-1.015180	-0.360443	-0.538877
H61	H	-0.977982	-0.336745	-0.576077
H62	H	-1.258949	-0.337823	-0.295061
N63	N	-1.061186	-0.063116	-0.492847
N64	N	-1.015156	-0.033773	-0.538878
H65	H	-0.977967	-0.057488	-0.576085
N66	N	-1.269643	-0.463897	-0.284362
N67	N	-1.315664	-0.434529	-0.238326
H68	H	-1.352858	-0.458224	-0.201120
H69	H	-1.071844	0.062957	-0.482140
