data_functionalizedCrystal
_audit_creation_method	'MofGen! by Chris Wilmer'
_symmetry_space_group_name_H-M	'P1'
_symmetry_Int_Tables_number	1
_symmetry_cell_setting	triclinic
loop_
_symmetry_equiv_pos_as_xyz
  x,y,z
_cell_length_a	16.120566
_cell_length_b	16.120531
_cell_length_c	16.120297
_cell_angle_alpha	84.389419
_cell_angle_beta	89.874982
_cell_angle_gamma	90.174626
loop_
_atom_site_label
_atom_site_type_symbol
_atom_site_fract_x
_atom_site_fract_y
_atom_site_fract_z
Zn1	Zn	-1.224936	0.422251	-0.554851
Zn2	Zn	-0.724936	0.922251	-0.054851
Zn3	Zn	-1.224816	0.554934	-0.422147
Zn4	Zn	-0.724816	1.054934	0.077853
Zn5	Zn	-1.093677	0.408168	-0.408087
Zn6	Zn	-0.593677	0.908168	0.091913
Zn7	Zn	-1.078814	0.554167	-0.554071
Zn8	Zn	-0.578814	1.054167	-0.054071
O9	O	-1.155561	0.484880	-0.484789
O10	O	-0.655561	0.984880	0.015211
O11	O	-1.340955	0.446066	-0.543457
O12	O	-0.840955	0.946066	-0.043457
O13	O	-1.213591	0.529892	-0.303650
O14	O	-0.713591	1.029892	0.196350
O15	O	-1.117359	0.293406	-0.421998
O16	O	-0.617359	0.793406	0.078002
O17	O	-1.340867	0.543548	-0.445960
O18	O	-0.840867	1.043548	0.054040
O19	O	-1.213795	0.303753	-0.529824
O20	O	-0.713795	0.803753	-0.029824
O21	O	-1.117243	0.422064	-0.293320
O22	O	-0.617243	0.922064	0.206680
O23	O	-0.975671	0.421320	-0.421242
O24	O	-0.475671	0.921320	0.078758
O25	O	-1.092027	0.542242	-0.670807
O26	O	-0.592027	1.042242	-0.170807
O27	O	-0.964751	0.528586	-0.528496
O28	O	-0.464751	1.028586	-0.028496
O29	O	-1.199382	0.445323	-0.671379
O30	O	-0.699382	0.945323	-0.171379
O31	O	-1.199179	0.671462	-0.445205
O32	O	-0.699179	1.171462	0.054795
O33	O	-1.091911	0.670899	-0.542129
O34	O	-0.591911	1.170899	-0.042129
C35	C	-0.940124	0.473342	-0.473260
C36	C	-0.440124	0.973342	0.026740
C37	C	-0.847957	0.468427	-0.468348
C38	C	-0.347957	0.968427	0.031652
C39	C	-0.679207	0.459435	-0.459387
C40	C	-0.179207	0.959435	0.040613
C41	C	-0.632751	0.510397	-0.510201
C42	C	-0.132751	1.010397	-0.010201
C43	C	-0.538852	0.505394	-0.505215
C44	C	-0.038852	1.005394	-0.005215
C45	C	-0.773114	0.464437	-0.464372
C46	C	-0.273114	0.964437	0.035628
C47	C	-0.371839	0.496465	-0.496351
C48	C	0.128161	0.996465	0.003649
C49	C	-0.464006	0.501407	-0.501243
C50	C	0.035994	1.001407	-0.001243
C51	C	-1.143941	0.701423	-0.495127
C52	C	-0.643941	1.201423	0.004873
C53	C	-1.139044	0.794066	-0.499582
C54	C	-0.639044	1.294066	0.000418
C55	C	-1.130107	0.963688	-0.507732
C56	C	-0.630107	1.463688	-0.007732
C57	C	-1.181048	1.005231	-0.461800
C58	C	-0.681048	1.505231	0.038200
C59	C	-1.176076	1.099614	-0.466335
C60	C	-0.676076	1.599614	0.033665
C61	C	-1.135078	0.869296	-0.503199
C62	C	-0.635078	1.369296	-0.003199
C63	C	-1.144060	0.495268	-0.702180
C64	C	-0.644060	0.995268	-0.202180
C65	C	-1.139159	0.499694	-0.794819
C66	C	-0.639159	0.999694	-0.294819
C67	C	-1.167220	1.267491	-0.474413
C68	C	-0.667220	1.767491	0.025587
C69	C	-1.172115	1.174847	-0.469948
C70	C	-0.672115	1.674847	0.030052
C71	C	-1.130182	0.507756	-0.964429
C72	C	-0.630182	1.007756	-0.464429
C73	C	-1.181116	0.461763	-1.005997
C74	C	-0.681116	0.961763	-0.505997
C75	C	-1.176121	0.466249	-1.100374
C76	C	-0.676121	0.966249	-0.600374
C77	C	-1.135176	0.503272	-0.870044
C78	C	-0.635176	1.003272	-0.370044
C79	C	-1.167068	0.474475	-0.268243
C80	C	-0.667068	0.974475	0.231757
C81	C	-1.172142	0.469822	-0.175602
C82	C	-0.672142	0.969822	0.324398
H83	H	-0.648462	0.412052	-0.412142
H84	H	-0.148462	0.912052	0.087858
H85	H	-1.228394	0.969912	-0.419070
H86	H	-0.728394	1.469912	0.080930
Cl87	Cl	-1.057010	1.018214	-0.573698
Cl88	Cl	-0.557010	1.518214	-0.073698
H89	H	-0.663498	0.557784	-0.557451
H90	H	-0.163498	1.057784	-0.057451
H91	H	-1.228473	0.419017	-0.970706
H92	H	-0.728473	0.919017	-0.470706
Cl93	Cl	-1.057073	0.573751	-1.018915
Cl94	Cl	-0.557073	1.073751	-0.518915
