data_functionalizedCrystal
_audit_creation_method	'MofGen! by Chris Wilmer'
_symmetry_space_group_name_H-M	'P1'
_symmetry_Int_Tables_number	1
_symmetry_cell_setting	triclinic
loop_
_symmetry_equiv_pos_as_xyz
  x,y,z
_cell_length_a	12.759395
_cell_length_b	12.759394
_cell_length_c	12.759387
_cell_angle_alpha	90.031660
_cell_angle_beta	90.021426
_cell_angle_gamma	90.015525
loop_
_atom_site_label
_atom_site_type_symbol
_atom_site_fract_x
_atom_site_fract_y
_atom_site_fract_z
Zn1	Zn	1.606268	-0.418192	0.594025
Zn2	Zn	1.606158	-0.593909	0.418342
Zn3	Zn	1.430566	-0.418246	0.418359
Zn4	Zn	1.430558	-0.593831	0.593979
O5	O	1.518387	-0.506045	0.506176
O6	O	1.753274	-0.441511	0.570732
O7	O	1.582823	-0.570662	0.271323
O8	O	1.453922	-0.271218	0.441687
O9	O	1.753194	-0.570609	0.441659
O10	O	1.583010	-0.271178	0.570748
O11	O	1.453816	-0.441604	0.271335
O12	O	1.283544	-0.441529	0.441643
O13	O	1.453909	-0.570477	0.741006
O14	O	1.283538	-0.570530	0.570670
O15	O	1.583002	-0.441436	0.741040
O16	O	1.582815	-0.740920	0.441615
O17	O	1.453802	-0.740863	0.570654
C18	C	1.245420	-0.506028	0.506154
C19	C	1.128643	-0.506046	0.506169
C20	C	0.909252	-0.640617	0.640348
C21	C	0.964140	-0.707880	0.707412
C22	C	1.073862	-0.707867	0.707399
C23	C	1.128698	-0.640586	0.640311
C24	C	1.073810	-0.573322	0.573247
C25	C	0.964086	-0.573340	0.573270
C26	C	1.073755	-0.438782	0.439104
C27	C	0.964033	-0.438788	0.439122
C28	C	1.128591	-0.371501	0.372017
C29	C	1.073703	-0.304231	0.304956
C30	C	0.963975	-0.304245	0.304973
C31	C	0.909145	-0.371525	0.372057
C32	C	1.518324	-0.779012	0.506151
C33	C	1.518393	-0.895789	0.506175
C34	C	1.652835	-0.895795	0.371907
C35	C	1.720083	-0.950658	0.304785
C36	C	1.720145	-1.060380	0.304814
C37	C	1.652953	-1.115240	0.371974
C38	C	1.585705	-1.060377	0.439095
C39	C	1.585648	-0.950653	0.439057
C40	C	1.451270	-1.060371	0.573367
C41	C	1.451202	-0.950649	0.573334
C42	C	1.384079	-1.115231	0.640526
C43	C	1.316823	-1.060368	0.707644
C44	C	1.316764	-0.950639	0.707612
C45	C	1.383954	-0.895786	0.640456
C46	C	1.792421	-0.506062	0.506199
C47	C	1.909197	-0.506070	0.506209
C48	C	1.518467	-0.505942	0.780210
C49	C	1.518500	-0.505898	0.896986
C50	C	1.518479	-0.232011	0.506224
C51	C	1.518518	-0.115234	0.506245
C52	C	1.518369	-0.506071	0.233209
C53	C	1.518538	-0.505819	0.116432
C54	C	1.652934	-0.371535	0.897041
C55	C	1.720166	-0.304339	0.951930
C56	C	1.720192	-0.304300	1.061651
C57	C	1.652976	-0.371464	1.116487
C58	C	1.585744	-0.438661	1.061599
C59	C	1.585728	-0.438694	0.951875
C60	C	1.451307	-0.573016	1.061544
C61	C	1.451285	-0.573061	0.951822
C62	C	1.384091	-0.640180	1.116380
C63	C	1.316863	-0.707384	1.061492
C64	C	1.316841	-0.707420	0.951763
C65	C	1.384053	-0.640258	0.896934
H66	H	0.819804	-0.371539	0.372082
C67	C	1.771421	-0.126457	0.918181
C68	C	1.794047	-0.230517	0.891648
H69	H	1.817028	-0.080884	0.880962
H70	H	1.781062	-0.116823	0.991373
H71	H	1.700832	-0.111087	0.900185
H72	H	1.864635	-0.245889	0.909652
H73	H	1.784416	-0.240156	0.818440
C74	C	1.410919	-1.272299	0.740537
C75	C	1.384153	-1.235839	0.640562
H76	H	1.410969	-1.346757	0.740556
H77	H	1.361252	-1.247481	0.790112
H78	H	1.478697	-1.247396	0.758737
H79	H	1.316372	-1.260735	0.622366
H80	H	1.433822	-1.260667	0.590972
H81	H	0.919291	-0.249472	0.250360
C82	C	1.138921	-1.094258	0.758696
C83	C	1.242974	-1.120666	0.781464
H84	H	1.093331	-1.131483	0.804275
H85	H	1.123594	-1.112324	0.688109
H86	H	1.129268	-1.021059	0.768281
H87	H	1.252630	-1.193865	0.771871
H88	H	1.258306	-1.102608	0.852068
H89	H	1.653018	-1.204581	0.372000
H90	H	1.774792	-0.905981	0.250107
H91	H	1.774931	-0.249576	1.106341
C92	C	1.310923	-0.713279	1.273524
C93	C	1.384115	-0.640141	1.236988
H94	H	1.310935	-0.713252	1.347983
H95	H	1.329058	-0.781077	1.248690
H96	H	1.243131	-0.695095	1.248690
H97	H	1.451908	-0.658329	1.261816
H98	H	1.365986	-0.572328	1.261833
H99	H	1.118359	-0.249460	0.250334
C100	C	1.853026	-1.049377	0.172078
C101	C	1.794062	-1.120692	0.231032
H102	H	1.898653	-1.086614	0.126525
H103	H	1.893173	-1.006514	0.217871
H104	H	1.807236	-1.006647	0.131843
H105	H	1.839851	-1.163417	0.271274
H106	H	1.753911	-1.163573	0.185234
C107	C	1.725935	-0.738621	0.298748
C108	C	1.652763	-0.775187	0.371868
H109	H	1.725894	-0.664162	0.298729
H110	H	1.707803	-0.763515	0.230955
H111	H	1.793737	-0.763374	0.316985
H112	H	1.584959	-0.750440	0.353627
H113	H	1.670889	-0.750282	0.439676
C114	C	1.310672	-0.738602	0.713510
C115	C	1.383885	-0.775178	0.640416
H116	H	1.310630	-0.664143	0.713478
H117	H	1.328831	-0.763345	0.781321
H118	H	1.242897	-0.763500	0.695290
H119	H	1.451661	-0.750286	0.658641
H120	H	1.365732	-0.750424	0.572591
H121	H	1.262082	-0.762129	0.907080
H122	H	1.652930	-0.371570	0.807700
C123	C	1.726198	-0.298249	1.273692
C124	C	1.652998	-0.371416	1.237095
H125	H	1.726213	-0.298227	1.348151
H126	H	1.708048	-0.230468	1.248881
H127	H	1.793982	-0.316444	1.248876
H128	H	1.585213	-0.353217	1.261905
H129	H	1.671142	-0.439212	1.261917
C130	C	1.265614	-0.885264	1.095233
C131	C	1.242985	-0.781204	1.121764
H132	H	1.219999	-0.930837	1.132441
H133	H	1.336192	-0.900634	1.113233
H134	H	1.255979	-0.894896	1.022030
H135	H	1.252627	-0.771569	1.194966
H136	H	1.172390	-0.765829	1.103771
C137	C	1.265499	-0.916755	0.885468
C138	C	1.242844	-0.890336	0.781399
H139	H	1.219859	-0.879533	0.931020
H140	H	1.336065	-0.898695	0.900882
H141	H	1.255920	-0.989955	0.895083
H142	H	1.252431	-0.817137	0.771782
H143	H	1.172262	-0.908390	0.765980
H144	H	1.218039	-0.640590	0.640297
H145	H	1.384046	-0.640286	0.807593
H146	H	0.819911	-0.640623	0.640376
H147	H	0.919481	-0.762662	0.762031
H148	H	1.118551	-0.762642	0.762006
H149	H	1.217932	-0.371500	0.372006
