data_functionalizedCrystal
_audit_creation_method	'MofGen! by Chris Wilmer'
_symmetry_space_group_name_H-M	'P1'
_symmetry_Int_Tables_number	1
_symmetry_cell_setting	triclinic
loop_
_symmetry_equiv_pos_as_xyz
  x,y,z
_cell_length_a	27.435584
_cell_length_b	27.434948
_cell_length_c	27.431174
_cell_angle_alpha	60.005483
_cell_angle_beta	60.011353
_cell_angle_gamma	59.993028
loop_
_atom_site_label
_atom_site_type_symbol
_atom_site_fract_x
_atom_site_fract_y
_atom_site_fract_z
O1	O	0.067437	-0.712144	0.595551
O2	O	0.567437	-0.212144	1.095551
O3	O	0.025356	-0.554453	0.479848
O4	O	0.525356	-0.054453	0.979848
O5	O	0.125206	-0.654236	0.479781
O6	O	0.625206	-0.154236	0.979781
O7	O	-0.032412	-0.612361	0.595618
O8	O	0.467588	-0.112361	1.095618
O9	O	0.158328	-0.621117	0.512835
O10	O	0.658328	-0.121117	1.012835
O11	O	0.058479	-0.521333	0.512902
O12	O	0.558479	-0.021333	1.012902
O13	O	0.100560	-0.679025	0.628605
O14	O	0.600560	-0.179025	1.128605
Zn15	Zn	0.084778	-0.594921	0.576001
Zn16	Zn	0.584778	-0.094921	1.076001
Zn17	Zn	0.041138	-0.638557	0.532452
Zn18	Zn	0.541138	-0.138557	1.032452
O19	O	0.000710	-0.579241	0.628672
O20	O	0.500710	-0.079241	1.128672
N21	N	0.114563	-0.565144	0.605726
N22	N	0.614563	-0.065144	1.105726
N23	N	0.011358	-0.668338	0.502727
N24	N	0.511358	-0.168338	1.002727
C25	C	0.156385	-0.523520	0.904506
C26	C	0.656385	-0.023520	1.404506
C27	C	0.413419	-0.523497	0.647322
C28	C	0.913419	-0.023497	1.147322
C29	C	0.156253	-0.523488	0.647384
C30	C	0.656253	-0.023488	1.147384
C31	C	0.156238	-0.266354	0.647407
C32	C	0.656238	0.233646	1.147407
C33	C	0.197637	-0.390463	0.688753
C34	C	0.697637	0.109537	1.188753
C35	C	0.197646	-0.482126	0.688741
C36	C	0.697646	0.017874	1.188741
C37	C	0.220575	-0.459215	0.711654
C38	C	0.720575	0.040785	1.211654
C39	C	0.320555	-0.441991	0.659023
C40	C	0.820555	0.058009	1.159023
C41	C	0.383051	-0.462825	0.638179
C42	C	0.883051	0.037175	1.138179
C43	C	0.383069	-0.563942	0.676737
C44	C	0.883069	-0.063942	1.176737
C45	C	0.320575	-0.543107	0.697583
C46	C	0.820575	-0.043107	1.197583
C47	C	0.212704	-0.359206	0.627313
C48	C	0.712704	0.140794	1.127313
C49	C	0.191849	-0.296705	0.606496
C50	C	0.691849	0.203295	1.106496
C51	C	0.140866	-0.296722	0.708562
C52	C	0.640866	0.203278	1.208562
C53	C	0.161721	-0.359223	0.729379
C54	C	0.661721	0.140777	1.229379
C55	C	0.136200	-0.467030	0.703858
C56	C	0.636200	0.032970	1.203858
C57	C	0.115361	-0.487857	0.683021
C58	C	0.615361	0.012143	1.183021
C59	C	0.217408	-0.538877	0.631968
C60	C	0.717408	-0.038877	1.131968
C61	C	0.238249	-0.518050	0.652796
C62	C	0.738249	-0.018050	1.152796
C63	C	0.136259	-0.467047	0.811668
C64	C	0.636259	0.032953	1.311668
C65	C	0.115461	-0.487892	0.874167
C66	C	0.615461	0.012108	1.374167
C67	C	0.217537	-0.538923	0.874131
C68	C	0.717537	-0.038923	1.374131
C69	C	0.238333	-0.518080	0.811631
C70	C	0.738333	-0.018080	1.311631
C71	C	0.197693	-0.482140	0.780401
C72	C	0.697693	0.017860	1.280401
C73	C	0.289320	-0.482131	0.688723
C74	C	0.789320	0.017869	1.188723
C75	C	0.132699	-0.546027	0.973247
C76	C	0.632699	-0.046027	1.473247
C77	C	0.482158	-0.545613	0.624075
C78	C	0.982158	-0.045613	1.124075
C79	C	0.132521	-0.546006	0.624886
C80	C	0.632521	-0.046006	1.124886
C81	C	0.132917	-0.197607	0.625310
C82	C	0.632917	0.302393	1.125310
C83	C	-0.098217	-0.686189	0.484419
C84	C	0.401783	-0.186189	0.984419
C85	C	-0.006438	-0.686322	0.392891
C86	C	0.493562	-0.186322	0.892891
C87	C	-0.006621	-0.777944	0.484592
C88	C	0.493379	-0.277944	0.984592
C89	C	-0.006606	-0.686315	0.484649
C90	C	0.493394	-0.186315	0.984649
C91	C	-0.029470	-0.709193	0.461638
C92	C	0.470530	-0.209193	0.961638
N93	N	0.538410	-0.565162	0.605628
N94	N	1.038410	-0.065162	1.105628
O95	O	0.742647	-0.575135	0.458625
O96	O	1.242647	-0.075135	0.958625
O97	O	0.742821	-0.691181	0.616169
O98	O	1.242821	-0.191181	1.116169
O99	O	0.742757	-0.690917	0.516248
O100	O	1.242757	-0.190917	1.016248
O101	O	0.742711	-0.575399	0.558546
O102	O	1.242711	-0.075399	1.058546
O103	O	0.643472	-0.657878	0.549405
O104	O	1.143472	-0.157878	1.049405
O105	O	0.643536	-0.658142	0.649326
O106	O	1.143536	-0.158142	1.149326
O107	O	0.643362	-0.542096	0.491782
O108	O	1.143362	-0.042096	0.991782
Zn109	Zn	0.627685	-0.594873	0.575818
Zn110	Zn	1.127685	-0.094873	1.075818
Zn111	Zn	0.758498	-0.638404	0.532133
Zn112	Zn	1.258498	-0.138404	1.032133
O113	O	0.643426	-0.542360	0.591702
O114	O	1.143426	-0.042360	1.091702
N115	N	0.847774	-0.668115	0.502317
N116	N	1.347774	-0.168115	1.002317
N117	N	0.114542	-0.141354	0.605766
N118	N	0.614542	0.358646	1.105766
O119	O	-0.032397	0.062987	0.595660
O120	O	0.467603	0.562987	1.095660
O121	O	0.125155	0.062987	0.479633
O122	O	0.625155	0.562987	0.979633
O123	O	0.025219	0.062974	0.479910
O124	O	0.525219	0.562974	0.979910
O125	O	0.067539	0.063001	0.595383
O126	O	0.567539	0.563001	1.095383
O127	O	0.058343	-0.036320	0.513009
O128	O	0.558343	0.463680	1.013009
O129	O	0.158279	-0.036306	0.512732
O130	O	0.658279	0.463694	1.012732
O131	O	0.000728	-0.036306	0.628759
O132	O	0.500728	0.463694	1.128759
Zn133	Zn	0.084763	-0.052071	0.576000
Zn134	Zn	0.584763	0.447929	1.076000
Zn135	Zn	0.041120	0.078752	0.532392
Zn136	Zn	0.541120	0.578752	1.032392
O137	O	0.100664	-0.036292	0.628482
O138	O	0.600664	0.463708	1.128482
N139	N	0.011333	0.168036	0.502628
N140	N	0.511333	0.668036	1.002628
N141	N	0.114782	-0.565197	1.029501
N142	N	0.614782	-0.065197	1.529501
O143	O	0.104681	-0.712124	1.233827
O144	O	0.604681	-0.212124	1.733827
O145	O	-0.011334	-0.554523	1.233839
O146	O	0.488666	-0.054523	1.733839
O147	O	-0.011066	-0.654443	1.233797
O148	O	0.488934	-0.154443	1.733797
O149	O	0.104414	-0.612204	1.233869
O150	O	0.604414	-0.112204	1.733869
O151	O	0.022028	-0.621336	1.134509
O152	O	0.522028	-0.121336	1.634509
O153	O	0.021760	-0.521417	1.134551
O154	O	0.521760	-0.021417	1.634551
O155	O	0.137775	-0.679018	1.134539
O156	O	0.637775	-0.179018	1.634539
Zn157	Zn	0.085022	-0.594961	1.118780
Zn158	Zn	0.585022	-0.094961	1.618780
Zn159	Zn	0.041420	-0.638580	1.249597
Zn160	Zn	0.541420	-0.138580	1.749597
O161	O	0.137508	-0.579098	1.134580
O162	O	0.637508	-0.079098	1.634580
N163	N	0.011658	-0.668350	1.338876
N164	N	0.511658	-0.168350	1.838876
C165	C	0.037974	-0.518023	0.480435
C166	C	0.537974	-0.018023	0.980435
C167	C	0.161625	-0.641592	0.480351
C168	C	0.661625	-0.141592	0.980351
C169	C	0.087941	-0.715455	0.628017
C170	C	0.587941	-0.215455	1.128017
C171	C	-0.035710	-0.591885	0.628101
C172	C	0.464290	-0.091885	1.128101
C173	C	0.693199	-0.690642	0.652596
C174	C	1.193199	-0.190642	1.152596
C175	C	0.693122	-0.690315	0.528855
C176	C	1.193122	-0.190315	1.028855
C177	C	0.692981	-0.542634	0.455356
C178	C	1.192981	-0.042634	0.955356
C179	C	0.693062	-0.542961	0.579095
C180	C	1.193062	-0.042961	1.079095
C181	C	0.161524	0.013463	0.480164
C182	C	0.661524	0.513463	0.980164
C183	C	0.037807	0.013324	0.480547
C184	C	0.537807	0.513324	0.980547
C185	C	-0.035683	0.013341	0.628188
C186	C	0.464317	0.513341	1.128188
C187	C	0.088076	0.013357	0.627845
C188	C	0.588076	0.513357	1.127845
C189	C	-0.010764	-0.518114	1.184196
C190	C	0.489236	-0.018114	1.684196
C191	C	-0.010426	-0.641846	1.184125
C192	C	0.489574	-0.141846	1.684125
C193	C	0.137205	-0.715426	1.184182
C194	C	0.637205	-0.215426	1.684182
C195	C	0.136875	-0.591687	1.184231
C196	C	0.636875	-0.091687	1.684231
H197	H	0.103160	-0.437777	0.786243
H198	H	0.603160	0.062223	1.286243
H199	H	-0.080982	-0.582959	0.664476
H200	H	0.419018	-0.082959	1.164476
C201	C	0.693141	-0.739340	0.516631
C202	C	1.193141	-0.239340	1.016631
H203	H	0.693102	-0.724745	0.477106
H204	H	1.193102	-0.224745	0.977106
H205	H	0.727786	-0.773281	0.521060
H206	H	1.227786	-0.273281	1.021060
H207	H	0.658536	-0.750230	0.544184
H208	H	1.158536	-0.250230	1.044184
C209	C	-0.059416	-0.654027	1.184038
C210	C	0.440584	-0.154027	1.684038
H211	H	-0.044821	-0.693556	1.184013
H212	H	0.455179	-0.193556	1.684013
H213	H	-0.093385	-0.649571	1.218646
H214	H	0.406615	-0.149571	1.718646
H215	H	-0.070258	-0.626472	1.149393
H216	H	0.429742	-0.126472	1.649393
C217	C	0.047773	-0.471259	0.699649
C218	C	0.547773	0.028741	1.199649
H219	H	0.026574	-0.446887	0.724046
H220	H	0.526574	0.053113	1.224046
H221	H	0.037501	-0.450048	0.664320
H222	H	0.537501	0.049952	1.164320
H223	H	0.037546	-0.506606	0.720851
H224	H	0.537546	-0.006606	1.220851
C225	C	0.025574	0.013309	0.431541
C226	C	0.525574	0.513309	0.931541
H227	H	-0.013955	0.013301	0.446136
H228	H	0.486045	0.513301	0.946136
H229	H	0.030013	0.047931	0.397584
H230	H	0.530013	0.547931	0.897584
H231	H	0.053116	-0.021325	0.420678
H232	H	0.553116	0.478675	0.920678
H233	H	0.097136	0.013366	0.664120
H234	H	0.597136	0.513366	1.164120
C235	C	-0.096806	0.013342	0.677399
C236	C	0.403194	0.513342	1.177399
H237	H	-0.121899	0.013339	0.662983
H238	H	0.378101	0.513339	1.162983
H239	H	-0.091564	-0.021280	0.711326
H240	H	0.408436	0.478720	1.211326
H241	H	-0.114668	0.047976	0.688238
H242	H	0.385332	0.547976	1.188238
C243	C	0.693266	-0.739861	0.713717
C244	C	1.193266	-0.239861	1.213717
H245	H	0.693276	-0.725440	0.738803
H246	H	1.193276	-0.225440	1.238803
H247	H	0.658662	-0.750732	0.731591
H248	H	1.158662	-0.250732	1.231591
H249	H	0.727912	-0.773774	0.708464
H250	H	1.227912	-0.273774	1.208464
H251	H	0.028987	-0.472723	0.444098
H252	H	0.528987	0.027277	0.944098
C253	C	-0.059971	-0.456970	1.184200
C254	C	0.440029	0.043030	1.684200
H255	H	-0.045555	-0.431893	1.184222
H256	H	0.454445	0.068107	1.684222
H257	H	-0.070818	-0.439101	1.149570
H258	H	0.429182	0.060899	1.649570
H259	H	-0.093895	-0.462196	1.218823
H260	H	0.406105	0.037804	1.718823
C261	C	0.692906	-0.493412	0.394238
C262	C	1.192906	0.006588	0.894238
H263	H	0.692902	-0.507835	0.369150
H264	H	1.192902	-0.007835	0.869150
H265	H	0.658265	-0.459500	0.399491
H266	H	1.158265	0.040500	0.899491
H267	H	0.727515	-0.482543	0.376360
H268	H	1.227515	0.017457	0.876360
C269	C	0.693041	-0.493936	0.591320
C270	C	1.193041	0.006064	1.091320
H271	H	0.693071	-0.508528	0.630849
H272	H	1.193071	-0.008528	1.130849
H273	H	0.727639	-0.483039	0.563767
H274	H	1.227639	0.016961	1.063767
H275	H	0.658388	-0.459997	0.586896
H276	H	1.158388	0.040003	1.086896
H277	H	0.206679	0.013739	0.443646
H278	H	0.706679	0.513739	0.943646
C279	C	0.186413	-0.776570	1.184176
C280	C	0.686413	-0.276570	1.684176
H281	H	0.171995	-0.801650	1.184162
H282	H	0.671995	-0.301650	1.684162
H283	H	0.220338	-0.771347	1.149560
H284	H	0.720338	-0.271347	1.649560
H285	H	0.197255	-0.794441	1.218813
H286	H	0.697255	-0.294441	1.718813
H287	H	0.206895	-0.650521	0.443974
H288	H	0.706895	-0.150521	0.943974
H289	H	0.149444	-0.384673	0.779411
H290	H	0.649444	0.115327	1.279411
C291	C	0.047880	-0.471276	0.908552
C292	C	0.547880	0.028724	1.408552
H293	H	0.026658	-0.446882	0.880998
H294	H	0.526658	0.053118	1.380998
H295	H	0.037639	-0.506612	0.932932
H296	H	0.537639	-0.006612	1.432932
H297	H	0.037649	-0.450072	0.932932
H298	H	0.537649	0.049928	1.432932
C299	C	0.262243	-0.578450	0.908477
C300	C	0.762243	-0.078450	1.408477
H301	H	0.301809	-0.584454	0.880902
H302	H	0.801809	-0.084454	1.380902
H303	H	0.256251	-0.559375	0.932863
H304	H	0.756251	-0.059375	1.432863
H305	H	0.256255	-0.615916	0.932850
H306	H	0.756255	-0.115916	1.432850
H307	H	0.096930	-0.760753	0.664356
H308	H	0.596930	-0.260753	1.164356
C309	C	0.185889	-0.579487	1.184251
C310	C	0.685889	-0.079487	1.684251
H311	H	0.220633	-0.614006	1.184255
H312	H	0.720633	-0.114006	1.684255
H313	H	0.195175	-0.546923	1.149634
H314	H	0.695175	-0.046923	1.649634
H315	H	0.172098	-0.570016	1.218886
H316	H	0.672098	-0.070016	1.718886
C317	C	0.305914	-0.534685	0.777239
C318	C	0.805914	-0.034685	1.277239
H319	H	0.312482	-0.517131	0.735545
H320	H	0.812482	-0.017131	1.235545
H321	H	0.323476	-0.520317	0.787476
H322	H	0.823476	-0.020317	1.287476
H323	H	0.323473	-0.576858	0.787473
H324	H	0.823473	-0.076858	1.287473
C325	C	0.262074	-0.578394	0.592434
C326	C	0.762074	-0.078394	1.092434
H327	H	0.301652	-0.584397	0.586416
H328	H	0.801652	-0.084397	1.086416
H329	H	0.256083	-0.615854	0.611509
H330	H	0.756083	-0.115854	1.111509
H331	H	0.256051	-0.559300	0.554976
H332	H	0.756051	-0.059300	1.054976
C333	C	0.286214	-0.587261	0.730253
C334	C	0.786214	-0.087261	1.230253
H335	H	0.244517	-0.566121	0.741406
H336	H	0.744517	-0.066121	1.241406
H337	H	0.296444	-0.607017	0.704537
H338	H	0.796444	-0.107017	1.204537
H339	H	0.296477	-0.615880	0.764983
H340	H	0.796477	-0.115880	1.264983
C341	C	0.305837	-0.534654	0.636178
C342	C	0.805837	-0.034654	1.136178
H343	H	0.312432	-0.517102	0.653732
H344	H	0.812432	-0.017102	1.153732
H345	H	0.323403	-0.576824	0.650541
H346	H	0.823403	-0.076824	1.150541
H347	H	0.323372	-0.520270	0.594007
H348	H	0.823372	-0.020270	1.094007
C349	C	0.417453	-0.631014	0.686473
C350	C	0.917453	-0.131014	1.186473
H351	H	0.389899	-0.651938	0.707150
H352	H	0.889899	-0.151938	1.207150
H353	H	0.441817	-0.636808	0.648919
H354	H	0.941817	-0.136808	1.148919
H355	H	0.441848	-0.645678	0.709368
H356	H	0.941848	-0.145678	1.209368
H357	H	0.103135	-0.437780	0.733124
H358	H	0.603135	0.062220	1.233124
H359	H	0.295112	-0.392340	0.651807
H360	H	0.795112	0.107660	1.151807
C361	C	0.417412	-0.418674	0.605504
C362	C	0.917412	0.081326	1.105504
H363	H	0.459108	-0.439817	0.594363
H364	H	0.959108	0.060183	1.094363
H365	H	0.407152	-0.390056	0.570776
H366	H	0.907152	0.109944	1.070776
H367	H	0.407182	-0.398916	0.631222
H368	H	0.907182	0.101084	1.131222
C369	C	0.252205	-0.393569	0.582627
C370	C	0.752205	0.106431	1.082627
H371	H	0.258182	-0.366000	0.543053
H372	H	0.758182	0.134000	1.043053
H373	H	0.289675	-0.417951	0.588615
H374	H	0.789675	0.082049	1.088615
H375	H	0.233118	-0.417949	0.588638
H376	H	0.733118	0.082051	1.088638
H377	H	0.204115	-0.271255	0.556464
H378	H	0.704115	0.228745	1.056464
C379	C	0.101361	-0.262356	0.753248
C380	C	0.601361	0.237644	1.253248
H381	H	0.095377	-0.289924	0.792822
H382	H	0.595377	0.210076	1.292822
H383	H	0.120437	-0.237969	0.747237
H384	H	0.620437	0.262031	1.247237
H385	H	0.063888	-0.237982	0.747258
H386	H	0.563888	0.262018	1.247258
