data_functionalizedCrystal
_audit_creation_method	'MofGen! by Chris Wilmer'
_symmetry_space_group_name_H-M	'P1'
_symmetry_Int_Tables_number	1
_symmetry_cell_setting	triclinic
loop_
_symmetry_equiv_pos_as_xyz
  x,y,z
_cell_length_a	21.295418
_cell_length_b	13.033615
_cell_length_c	13.032268
_cell_angle_alpha	89.080892
_cell_angle_beta	97.141274
_cell_angle_gamma	97.198053
loop_
_atom_site_label
_atom_site_type_symbol
_atom_site_fract_x
_atom_site_fract_y
_atom_site_fract_z
Zn1	Zn	0.884925	-0.482921	-0.530065
Zn2	Zn	0.888221	-0.633086	-0.336270
Zn3	Zn	0.794484	-0.461164	-0.358051
Zn4	Zn	0.768184	-0.654893	-0.508122
O5	O	0.833954	-0.558016	-0.433127
O6	O	0.973448	-0.502820	-0.504426
O7	O	0.888172	-0.592049	-0.195250
O8	O	0.816109	-0.320129	-0.399168
O9	O	0.975870	-0.613146	-0.362045
O10	O	0.882555	-0.336114	-0.525546
O11	O	0.819304	-0.465738	-0.211253
O12	O	0.702910	-0.486883	-0.377891
O13	O	0.771285	-0.650312	-0.654942
O14	O	0.683587	-0.629215	-0.488147
O15	O	0.857054	-0.523965	-0.671064
O16	O	0.862671	-0.779900	-0.340767
O17	O	0.774480	-0.795921	-0.467026
C18	C	0.670409	-0.558055	-0.433002
C19	C	0.600440	-0.558100	-0.432970
C20	C	0.851898	-0.289761	-0.467235
C21	C	0.859545	-0.175447	-0.481769
C22	C	0.816094	-0.825230	-0.399175
C23	C	0.808509	-0.939550	-0.384684
C24	C	0.557531	-0.632286	-0.490271
C25	C	0.491786	-0.632267	-0.490320
C26	C	0.468953	-0.558069	-0.433049
C27	C	0.511871	-0.483869	-0.375745
C28	C	0.577614	-0.483884	-0.375705
N29	N	0.373972	-0.538617	-0.344125
N30	N	0.311519	-0.538608	-0.344164
C31	C	0.270874	-0.558017	-0.433166
N32	N	0.295040	-0.577455	-0.522126
N33	N	0.357500	-0.577468	-0.522084
C34	C	0.397667	-0.558044	-0.433086
C35	C	0.156676	-0.632187	-0.490526
C36	C	0.090931	-0.632161	-0.490578
C37	C	0.111017	-0.483767	-0.375992
C38	C	0.176761	-0.483789	-0.375950
C39	C	0.199587	-0.558005	-0.433215
C40	C	0.998137	-0.557978	-0.433253
C41	C	1.068103	-0.557961	-0.433307
C42	C	0.810868	-0.591998	-0.701360
C43	C	0.801030	-0.606479	-0.815666
C44	C	0.830077	-0.116573	-0.425720
C45	C	0.837980	0.001577	-0.440741
C46	C	0.839081	-0.550421	-0.874603
C47	C	0.828914	-0.565387	-0.992743
C48	C	0.856991	-0.524092	-0.165947
C49	C	0.866970	-0.509321	-0.051679
H50	H	0.576110	-0.692717	-0.536902
H51	H	0.879182	-0.491345	-0.837599
C52	C	0.788092	-0.166631	-0.345864
C53	C	0.716786	-0.153040	-0.356047
C54	C	0.674800	-0.203093	-0.276187
C55	C	0.704121	-0.266737	-0.186143
C56	C	0.775431	-0.280331	-0.175956
C57	C	0.817417	-0.230278	-0.255817
H58	H	0.695077	-0.105924	-0.422706
H59	H	0.622011	-0.193029	-0.283728
H60	H	0.673041	-0.303789	-0.127026
H61	H	0.797140	-0.327446	-0.109298
H62	H	0.870206	-0.240341	-0.248275
C63	C	0.444576	-0.713883	-0.553347
C64	C	0.469682	-0.795517	-0.616333
C65	C	0.422475	-0.877134	-0.679356
C66	C	0.350160	-0.877119	-0.679394
C67	C	0.325050	-0.795482	-0.616405
C68	C	0.372258	-0.713865	-0.553382
H69	H	0.523217	-0.795531	-0.616307
H70	H	0.441063	-0.937567	-0.725984
H71	H	0.315214	-0.937537	-0.726047
H72	H	0.271515	-0.795468	-0.616431
H73	H	0.353669	-0.653432	-0.506754
H74	H	0.907074	-0.450238	-1.014682
H75	H	0.175261	-0.692613	-0.537160
H76	H	0.869058	0.038637	-0.499856
H77	H	0.493277	-0.423455	-0.329116
C78	C	0.043728	-0.713770	-0.553616
C79	C	0.068839	-0.795400	-0.616601
C80	C	0.021634	-0.877010	-0.679640
C81	C	-0.050681	-0.876991	-0.679696
C82	C	-0.075796	-0.795358	-0.616709
C83	C	-0.028592	-0.713748	-0.553670
H84	H	0.122374	-0.795417	-0.616562
H85	H	0.040227	-0.937440	-0.726267
H86	H	-0.085625	-0.937403	-0.726362
H87	H	-0.129332	-0.795341	-0.616749
H88	H	-0.047184	-0.653318	-0.507043
C89	C	0.766518	0.010398	-0.304827
C90	C	0.795834	-0.053248	-0.214780
C91	C	0.753844	-0.103298	-0.134925
C92	C	0.682538	-0.089702	-0.145115
C93	C	0.653218	-0.026054	-0.235165
C94	C	0.695208	0.023996	-0.315021
H95	H	0.848623	-0.063314	-0.207233
H96	H	0.775549	-0.150415	-0.068264
H97	H	0.651455	-0.126753	-0.086001
H98	H	0.600430	-0.015987	-0.242712
H99	H	0.673503	0.071113	-0.381682
H100	H	0.890621	-0.138382	-0.540880
H101	H	0.612552	-0.423469	-0.329044
H102	H	0.760923	-0.665545	-0.852671
C103	C	0.774731	-0.645198	-1.042717
C104	C	0.773300	-0.760270	-1.013187
C105	C	0.719119	-0.840079	-1.063162
C106	C	0.666369	-0.804816	-1.142667
C107	C	0.667798	-0.689738	-1.172201
C108	C	0.721980	-0.609929	-1.122226
H109	H	0.812350	-0.786379	-0.954329
H110	H	0.718061	-0.925267	-1.041298
H111	H	0.626261	-0.863895	-1.179661
H112	H	0.628748	-0.663629	-1.231059
H113	H	0.723037	-0.524741	-1.144090
C114	C	0.085910	-0.402145	-0.312994
C115	C	0.013596	-0.402121	-0.313035
C116	C	-0.011515	-0.320494	-0.250039
C117	C	0.035689	-0.238889	-0.187002
C118	C	0.108007	-0.238910	-0.186958
C119	C	0.133118	-0.320538	-0.249954
H120	H	-0.021351	-0.462533	-0.359702
H121	H	-0.065050	-0.320479	-0.250072
H122	H	0.017100	-0.178463	-0.140368
H123	H	0.142954	-0.178499	-0.140292
H124	H	0.186653	-0.320552	-0.249921
H125	H	0.211699	-0.423383	-0.329284
