data_functionalizedCrystal
_audit_creation_method	'MofGen! by Chris Wilmer'
_symmetry_space_group_name_H-M	'P1'
_symmetry_Int_Tables_number	1
_symmetry_cell_setting	triclinic
loop_
_symmetry_equiv_pos_as_xyz
  x,y,z
_cell_length_a	21.395362
_cell_length_b	18.215405
_cell_length_c	21.395356
_cell_angle_alpha	89.973989
_cell_angle_beta	89.957023
_cell_angle_gamma	90.038610
loop_
_atom_site_label
_atom_site_type_symbol
_atom_site_fract_x
_atom_site_fract_y
_atom_site_fract_z
Zn1	Zn	0.957888	-0.292691	-0.354593
Zn2	Zn	1.291222	0.040642	-0.021260
Zn3	Zn	1.624555	0.373976	0.312074
Zn4	Zn	0.957807	-0.415759	-0.249818
Zn5	Zn	1.291140	-0.082426	0.083515
Zn6	Zn	1.624474	0.250908	0.416848
Zn7	Zn	0.853105	-0.292745	-0.249794
Zn8	Zn	1.186438	0.040588	0.083539
Zn9	Zn	1.519772	0.373922	0.416872
Zn10	Zn	0.853087	-0.415754	-0.354523
Zn11	Zn	1.186420	-0.082421	-0.021190
Zn12	Zn	1.519754	0.250912	0.312143
O13	O	0.905472	-0.354237	-0.302182
O14	O	1.238805	-0.020904	0.031151
O15	O	1.572138	0.312429	0.364484
O16	O	1.045555	-0.308995	-0.340734
O17	O	1.378889	0.024338	-0.007400
O18	O	1.712222	0.357671	0.325933
O19	O	0.943892	-0.399465	-0.162137
O20	O	1.277225	-0.066132	0.171196
O21	O	1.610558	0.267201	0.504529
O22	O	0.867046	-0.189753	-0.263715
O23	O	1.200380	0.143580	0.069618
O24	O	1.533713	0.476913	0.402952
O25	O	1.045496	-0.399413	-0.263756
O26	O	1.378829	-0.066080	0.069577
O27	O	1.712162	0.267254	0.402910
O28	O	0.944030	-0.189714	-0.340710
O29	O	1.277363	0.143620	-0.007377
O30	O	1.610697	0.476953	0.325957
O31	O	0.866967	-0.309087	-0.162119
O32	O	1.200301	0.024246	0.171214
O33	O	1.533634	0.357579	0.504547
O34	O	0.765425	-0.309083	-0.263647
O35	O	1.098758	0.024250	0.069686
O36	O	1.432091	0.357584	0.403019
O37	O	0.867016	-0.399405	-0.442210
O38	O	1.200349	-0.066072	-0.108877
O39	O	1.533682	0.267261	0.224456
O40	O	0.765411	-0.399458	-0.340591
O41	O	1.098745	-0.066124	-0.007258
O42	O	1.432078	0.267209	0.326075
O43	O	0.944013	-0.308991	-0.442262
O44	O	1.277346	0.024342	-0.108928
O45	O	1.610679	0.357676	0.224405
O46	O	0.943874	-0.518743	-0.263689
O47	O	1.277208	-0.185409	0.069645
O48	O	1.610541	0.147924	0.402978
O49	O	0.866937	-0.518739	-0.340615
O50	O	1.200270	-0.185406	-0.007282
O51	O	1.533603	0.147927	0.326052
C52	C	0.742684	-0.354276	-0.302110
C53	C	1.076017	-0.020943	0.031224
C54	C	1.409351	0.312390	0.364557
C55	C	0.673043	-0.354311	-0.302093
C56	C	1.006376	-0.020977	0.031240
C57	C	1.339710	0.312356	0.364573
C58	C	0.640339	-0.401431	-0.342098
C59	C	0.973673	-0.068098	-0.008765
C60	C	1.307006	0.265236	0.324569
C61	C	0.574904	-0.401413	-0.342126
C62	C	0.908237	-0.068080	-0.008793
C63	C	1.241571	0.265254	0.324541
C64	C	0.542175	-0.354282	-0.302138
C65	C	0.875508	-0.020949	0.031195
C66	C	1.208841	0.312384	0.364529
C67	C	0.574886	-0.307153	-0.262130
C68	C	0.908219	0.026181	0.071203
C69	C	1.241553	0.359514	0.404536
C70	C	0.640320	-0.307167	-0.262108
C71	C	0.973654	0.026166	0.071225
C72	C	1.306987	0.359500	0.404559
C73	C	0.438450	-0.348364	-0.245733
C74	C	0.771783	-0.015031	0.087601
C75	C	1.105117	0.318302	0.420934
C76	C	0.373017	-0.348355	-0.245754
C77	C	0.706350	-0.015022	0.087580
C78	C	1.039684	0.318311	0.420913
C79	C	0.340354	-0.354234	-0.302207
C80	C	0.673687	-0.020901	0.031126
C81	C	1.007021	0.312432	0.364460
C82	C	0.373132	-0.360138	-0.358641
C83	C	0.706465	-0.026804	-0.025308
C84	C	1.039798	0.306529	0.308026
C85	C	0.438566	-0.360152	-0.358619
C86	C	0.771899	-0.026819	-0.025285
C87	C	1.105232	0.306515	0.308048
C88	C	0.471222	-0.354261	-0.302158
C89	C	0.804556	-0.020928	0.031175
C90	C	1.137889	0.312405	0.364509
C91	C	0.236698	-0.401338	-0.342245
C92	C	0.570031	-0.068004	-0.008912
C93	C	0.903364	0.265329	0.324421
C94	C	0.171261	-0.401314	-0.342274
C95	C	0.504595	-0.067981	-0.008941
C96	C	0.837928	0.265352	0.324392
C97	C	0.171245	-0.307058	-0.262273
C98	C	0.504578	0.026275	0.071060
C99	C	0.837911	0.359609	0.404393
C100	C	0.236680	-0.307077	-0.262250
C101	C	0.570013	0.026256	0.071083
C102	C	0.903347	0.359589	0.404417
C103	C	0.269403	-0.354221	-0.302235
C104	C	0.602736	-0.020888	0.031098
C105	C	0.936069	0.312446	0.364432
C106	C	0.905412	-0.545444	-0.302161
C107	C	1.238745	-0.212110	0.031173
C108	C	1.572078	0.121223	0.364506
C109	C	0.905443	-0.627242	-0.302172
C110	C	1.238777	-0.293909	0.031161
C111	C	1.572110	0.039424	0.364494
C112	C	0.945548	-0.815355	-0.342318
C113	C	1.278881	-0.482021	-0.008985
C114	C	1.612215	-0.148688	0.324349
C115	C	0.945571	-0.892213	-0.342330
C116	C	1.278904	-0.558880	-0.008996
C117	C	1.612237	-0.225547	0.324337
C118	C	0.865473	-0.892368	-0.262085
C119	C	1.198806	-0.559034	0.071248
C120	C	1.532140	-0.225701	0.404581
C121	C	0.865448	-0.815510	-0.262077
C122	C	1.198781	-0.482177	0.071256
C123	C	1.532114	-0.148844	0.404590
C124	C	0.905489	-0.777006	-0.302193
C125	C	1.238822	-0.443673	0.031141
C126	C	1.572155	-0.110339	0.364474
C127	C	0.905537	-0.930722	-0.302212
C128	C	1.238870	-0.597389	0.031121
C129	C	1.572204	-0.264055	0.364454
C130	C	0.905561	-1.014056	-0.302225
C131	C	1.238895	-0.680722	0.031108
C132	C	1.572228	-0.347389	0.364442
C133	C	0.905464	-0.693667	-0.302181
C134	C	1.238797	-0.360334	0.031152
C135	C	1.572130	-0.027000	0.364486
C136	C	1.068895	-0.354199	-0.302256
C137	C	1.402228	-0.020865	0.031078
C138	C	1.735562	0.312468	0.364411
C139	C	1.138536	-0.354182	-0.302287
C140	C	1.471870	-0.020849	0.031047
C141	C	1.805203	0.312484	0.364380
C142	C	0.905521	-0.354192	-0.465606
C143	C	1.238854	-0.020858	-0.132272
C144	C	1.572188	0.312475	0.201061
C145	C	0.905542	-0.354172	-0.535247
C146	C	1.238875	-0.020839	-0.201914
C147	C	1.572209	0.312494	0.131420
C148	C	0.905549	-0.162284	-0.302218
C149	C	1.238883	0.171049	0.031116
C150	C	1.572216	0.504382	0.364449
C151	C	0.905582	-0.080485	-0.302233
C152	C	1.238915	0.252848	0.031101
C153	C	1.572249	0.586181	0.364434
C154	C	0.865498	-0.307107	-0.567941
C155	C	1.198832	0.026226	-0.234607
C156	C	1.532165	0.359560	0.098726
C157	C	0.865496	-0.307094	-0.633376
C158	C	1.198830	0.026240	-0.300043
C159	C	1.532163	0.359573	0.033290
C160	C	0.905549	-0.354137	-0.666115
C161	C	1.238882	-0.020804	-0.332782
C162	C	1.572216	0.312529	0.000551
C163	C	0.945596	-0.401211	-0.633413
C164	C	1.278929	-0.067878	-0.300080
C165	C	1.612262	0.265455	0.033253
C166	C	0.945592	-0.401229	-0.567979
C167	C	1.278925	-0.067896	-0.234646
C168	C	1.612259	0.265438	0.098687
C169	C	0.962002	-0.359905	-0.769821
C170	C	1.295335	-0.026571	-0.436487
C171	C	1.628668	0.306762	-0.103154
C172	C	0.962006	-0.359882	-0.835254
C173	C	1.295340	-0.026549	-0.501920
C174	C	1.628673	0.306785	-0.168587
C175	C	0.905559	-0.354088	-0.867936
C176	C	1.238893	-0.020754	-0.534603
C177	C	1.572226	0.312579	-0.201269
C178	C	0.849106	-0.348300	-0.835177
C179	C	1.182440	-0.014967	-0.501844
C180	C	1.515773	0.318366	-0.168511
C181	C	0.849103	-0.348318	-0.769743
C182	C	1.182436	-0.014984	-0.436410
C183	C	1.515769	0.318349	-0.103077
C184	C	0.905557	-0.354124	-0.737068
C185	C	1.238890	-0.020790	-0.403734
C186	C	1.572224	0.312543	-0.070401
C187	C	0.865510	-0.307005	-0.971583
C188	C	1.198843	0.026328	-0.638249
C189	C	1.532177	0.359662	-0.304916
C190	C	0.865507	-0.306997	-1.037019
C191	C	1.198840	0.026337	-0.703686
C192	C	1.532173	0.359670	-0.370353
C193	C	0.945612	-0.401111	-1.037055
C194	C	1.278945	-0.067777	-0.703722
C195	C	1.612278	0.265556	-0.370388
C196	C	0.945609	-0.401123	-0.971620
C197	C	1.278943	-0.067790	-0.638286
C198	C	1.612276	0.265544	-0.304953
C199	C	0.905559	-0.354066	-0.938887
C200	C	1.238893	-0.020733	-0.605554
C201	C	1.572226	0.312600	-0.272221
C202	C	0.905459	-0.354230	-0.139395
C203	C	1.238792	-0.020896	0.193939
C204	C	1.572125	0.312437	0.527272
C205	C	0.905559	-0.354042	-0.069754
C206	C	1.238893	-0.020708	0.263580
C207	C	1.572226	0.312625	0.596913
H208	H	0.548271	-0.439784	-0.374705
H209	H	0.881605	-0.106450	-0.041372
H210	H	1.214938	0.226883	0.291962
H211	H	0.263308	-0.268710	-0.229671
H212	H	0.596641	0.064623	0.103663
H213	H	0.929974	0.397956	0.436996
H214	H	0.144597	-0.268680	-0.229717
H215	H	0.477930	0.064654	0.103616
H216	H	0.811264	0.397987	0.436949
H217	H	0.978225	-0.439413	-1.063711
H218	H	1.311558	-0.106080	-0.730377
H219	H	1.644891	0.227254	-0.397044
C220	C	0.989568	-0.453060	-0.669427
C221	C	1.322902	-0.119726	-0.336094
C222	C	1.656235	0.213607	-0.002761
N223	N	1.022658	-0.492151	-0.696553
N224	N	1.355991	-0.158818	-0.363220
N225	N	1.689325	0.174516	-0.029886
H226	H	0.832874	-0.923728	-0.229424
H227	H	1.166208	-0.590394	0.103910
H228	H	1.499541	-0.257061	0.437243
C229	C	0.336968	-0.341856	-0.183676
C230	C	0.670301	-0.008523	0.149657
C231	C	1.003635	0.324811	0.482990
N232	N	0.309817	-0.336957	-0.136918
N233	N	0.643151	-0.003624	0.196415
N234	N	0.976484	0.329710	0.529749
C235	C	0.821371	-0.773324	-0.217940
C236	C	1.154704	-0.439991	0.115393
C237	C	1.488037	-0.106658	0.448726
N238	N	0.788170	-0.741550	-0.184701
N239	N	1.121503	-0.408216	0.148632
N240	N	1.454837	-0.074883	0.481966
H241	H	0.465039	-0.343574	-0.199758
H242	H	0.798372	-0.010240	0.133575
H243	H	1.131706	0.323093	0.466908
C244	C	0.538883	-0.255309	-0.218143
C245	C	0.872216	0.078025	0.115190
C246	C	1.205549	0.411358	0.448523
N247	N	0.511765	-0.216257	-0.185012
N248	N	0.845098	0.117077	0.148321
N249	N	1.178431	0.450410	0.481654
C250	C	0.989658	-0.452991	-0.532015
C251	C	1.322992	-0.119658	-0.198681
C252	C	1.656325	0.213675	0.134652
N253	N	1.022855	-0.491974	-0.504925
N254	N	1.356188	-0.158640	-0.171592
N255	N	1.689521	0.174693	0.161741
C256	C	0.821446	-0.255313	-0.669347
C257	C	1.154780	0.078021	-0.336014
C258	C	1.488113	0.411354	-0.002680
N259	N	0.788269	-0.216310	-0.696438
N260	N	1.121602	0.117024	-0.363105
N261	N	1.454936	0.450357	-0.029771
H262	H	1.007971	-0.364617	-0.743216
H263	H	1.341305	-0.031284	-0.409883
H264	H	1.674638	0.302050	-0.076550
C265	C	0.989683	-0.452874	-0.935655
C266	C	1.323016	-0.119540	-0.602322
C267	C	1.656350	0.213793	-0.268988
N268	N	1.022886	-0.491848	-0.908567
N269	N	1.356220	-0.158515	-0.575233
N270	N	1.689553	0.174818	-0.241900
H271	H	0.832884	-0.268793	-0.541294
H272	H	1.166218	0.064541	-0.207961
H273	H	1.499551	0.397874	0.125372
C274	C	0.989590	-0.773002	-0.386450
C275	C	1.322924	-0.439669	-0.053117
C276	C	1.656257	-0.106336	0.280217
N277	N	1.022763	-0.741105	-0.419693
N278	N	1.356096	-0.407771	-0.086360
N279	N	1.689429	-0.074438	0.246974
C280	C	0.821455	-0.255216	-1.072983
C281	C	1.154788	0.078117	-0.739649
C282	C	1.488122	0.411450	-0.406316
N283	N	0.788276	-0.216212	-1.100071
N284	N	1.121609	0.117121	-0.766737
N285	N	1.454943	0.450455	-0.433404
C286	C	0.474619	-0.366645	-0.420694
C287	C	0.807952	-0.033311	-0.087361
C288	C	1.141285	0.300022	0.245972
N289	N	0.501774	-0.371534	-0.467451
N290	N	0.835107	-0.038201	-0.134117
N291	N	1.168441	0.295132	0.199216
H292	H	0.978190	-0.923434	-0.375005
H293	H	1.311523	-0.590100	-0.041672
H294	H	1.644856	-0.256767	0.291661
C295	C	0.787005	-0.341959	-0.733711
C296	C	1.120339	-0.008626	-0.400378
C297	C	1.453672	0.324707	-0.067044
N298	N	0.740232	-0.337174	-0.706572
N299	N	1.073565	-0.003840	-0.373238
N300	N	1.406899	0.329493	-0.039905
H301	H	0.346539	-0.364924	-0.404611
H302	H	0.679872	-0.031590	-0.071277
H303	H	1.013205	0.301743	0.262056
H304	H	0.803142	-0.343577	-0.861786
H305	H	1.136475	-0.010243	-0.528452
H306	H	1.469809	0.323090	-0.195119
C307	C	0.821448	-0.255250	-0.935575
C308	C	1.154782	0.078083	-0.602242
C309	C	1.488115	0.411417	-0.268908
N310	N	0.788259	-0.216269	-0.908456
N311	N	1.121593	0.117065	-0.575122
N312	N	1.454926	0.450398	-0.241789
H313	H	1.007974	-0.364591	-0.861921
H314	H	1.341307	-0.031258	-0.528588
H315	H	1.674640	0.302076	-0.195254
C316	C	0.135287	-0.453160	-0.386280
C317	C	0.468621	-0.119826	-0.052947
C318	C	0.801954	0.213507	0.280387
N319	N	0.108191	-0.492214	-0.419423
N320	N	0.441525	-0.158881	-0.086089
N321	N	0.774858	0.174453	0.247244
H322	H	0.666978	-0.439818	-0.374658
H323	H	1.000311	-0.106485	-0.041325
H324	H	1.333645	0.226849	0.292009
H325	H	0.666947	-0.268794	-0.229531
H326	H	1.000281	0.064540	0.103802
H327	H	1.333614	0.397873	0.437135
C328	C	0.272695	-0.453188	-0.386237
C329	C	0.606028	-0.119854	-0.052903
C330	C	0.939362	0.213479	0.280430
N331	N	0.299806	-0.492240	-0.419373
N332	N	0.633140	-0.158907	-0.086039
N333	N	0.966473	0.174427	0.247294
