data_functionalizedCrystal
_audit_creation_method	'MofGen! by Chris Wilmer'
_symmetry_space_group_name_H-M	'P1'
_symmetry_Int_Tables_number	1
_symmetry_cell_setting	triclinic
loop_
_symmetry_equiv_pos_as_xyz
  x,y,z
_cell_length_a	18.215407
_cell_length_b	12.594516
_cell_length_c	18.215399
_cell_angle_alpha	90.023782
_cell_angle_beta	90.019833
_cell_angle_gamma	90.012264
loop_
_atom_site_label
_atom_site_type_symbol
_atom_site_fract_x
_atom_site_fract_y
_atom_site_fract_z
Zn1	Zn	1.125139	-0.423740	0.416137
Zn2	Zn	1.125075	-0.601738	0.293080
Zn3	Zn	1.002071	-0.423775	0.293085
Zn4	Zn	1.002065	-0.601679	0.416105
O5	O	1.063588	-0.512733	0.354602
O6	O	1.228115	-0.447362	0.399825
O7	O	1.108734	-0.578170	0.190096
O8	O	1.018426	-0.274825	0.309423
O9	O	1.228068	-0.578136	0.309415
O10	O	1.108843	-0.274799	0.399830
O11	O	1.018364	-0.447422	0.190100
O12	O	0.899086	-0.447364	0.309392
O13	O	1.018415	-0.578035	0.519093
O14	O	0.899082	-0.578069	0.399774
O15	O	1.108837	-0.447305	0.519117
O16	O	1.108729	-0.750676	0.309384
O17	O	1.018354	-0.750632	0.399770
C18	C	0.872381	-0.512715	0.354580
C19	C	0.790583	-0.512733	0.354589
C20	C	0.602406	-0.580898	0.401592
C21	C	0.525547	-0.580901	0.401601
C22	C	0.525522	-0.444588	0.307627
C23	C	0.602379	-0.444580	0.307622
C24	C	0.640819	-0.512741	0.354604
C25	C	0.487103	-0.512752	0.354618
C26	C	0.403769	-0.512755	0.354627
C27	C	0.724158	-0.512736	0.354595
C28	C	1.063554	-0.789274	0.354589
C29	C	1.063606	-0.907579	0.354608
C30	C	1.112818	-0.976817	0.305499
C31	C	1.130801	-1.047521	0.372671
C32	C	1.045716	-1.047675	0.287480
C33	C	1.081623	-0.976724	0.421814
C34	C	0.996507	-0.976872	0.336578
C35	C	1.014464	-1.047544	0.403795
C36	C	1.255541	-0.512752	0.354623
C37	C	1.337339	-0.512760	0.354632
C38	C	1.063633	-0.512660	0.546555
C39	C	1.063652	-0.512628	0.628354
C40	C	1.063642	-0.235112	0.354631
C41	C	1.063665	-0.116807	0.354643
C42	C	1.063585	-0.512729	0.163395
C43	C	1.063709	-0.512461	0.081597
C44	C	1.110751	-0.444493	0.816561
C45	C	1.110760	-0.444462	0.893420
C46	C	1.016604	-0.580599	0.893384
C47	C	1.016592	-0.580624	0.816526
C48	C	1.063670	-0.512572	0.778117
C49	C	1.063691	-0.512517	0.931833
C50	C	1.063700	-0.512483	1.015167
C51	C	1.063660	-0.512604	0.694778
H52	H	0.494274	-0.636400	0.439865
H53	H	0.633656	-0.389071	0.269359
F54	F	0.922323	-0.936281	0.316596
F55	F	1.160875	-0.372010	0.934332
H56	H	0.494215	-0.389095	0.269376
F57	F	1.167221	-0.936223	0.251266
F58	F	0.966476	-0.653082	0.775609
F59	F	1.160853	-0.372065	0.775686
H60	H	1.030559	-1.078839	0.230696
H61	H	0.633701	-0.636396	0.439849
F62	F	0.960100	-1.087883	0.458158
H63	H	1.187571	-1.078556	0.387940
H64	H	1.096723	-0.945692	0.478647
H65	H	0.978277	-0.636006	0.924666
