data_functionalizedCrystal
_audit_creation_method	'MofGen! by Chris Wilmer'
_symmetry_space_group_name_H-M	'P1'
_symmetry_Int_Tables_number	1
_symmetry_cell_setting	triclinic
loop_
_symmetry_equiv_pos_as_xyz
  x,y,z
_cell_length_a	21.295418
_cell_length_b	18.050589
_cell_length_c	18.050583
_cell_angle_alpha	89.971909
_cell_angle_beta	90.037417
_cell_angle_gamma	89.955964
loop_
_atom_site_label
_atom_site_type_symbol
_atom_site_fract_x
_atom_site_fract_y
_atom_site_fract_z
Zn1	Zn	0.962327	0.295321	0.420315
Zn2	Zn	1.462327	0.795321	0.920315
Zn3	Zn	0.962245	0.419525	0.296135
Zn4	Zn	1.462245	0.919525	0.796135
Zn5	Zn	0.857061	0.295388	0.296098
Zn6	Zn	1.357061	0.795388	0.796098
Zn7	Zn	0.857023	0.419508	0.420242
Zn8	Zn	1.357023	0.919508	0.920242
O9	O	0.909664	0.357435	0.358197
O10	O	1.409664	0.857435	0.858197
O11	O	1.050405	0.311776	0.403889
O12	O	1.550405	0.811776	0.903889
O13	O	0.948274	0.403094	0.192205
O14	O	1.448274	0.903094	0.692205
O15	O	0.871075	0.191454	0.312591
O16	O	1.371075	0.691454	0.812591
O17	O	1.050345	0.403029	0.312654
O18	O	1.550345	0.903029	0.812654
O19	O	0.948413	0.191405	0.403853
O20	O	1.448413	0.691405	0.903853
O21	O	0.870996	0.311891	0.192178
O22	O	1.370996	0.811891	0.692178
O23	O	0.768967	0.311873	0.312520
O24	O	1.268967	0.811873	0.812520
O25	O	0.871010	0.402998	0.524176
O26	O	1.371010	0.902998	1.024176
O27	O	0.768939	0.403064	0.403727
O28	O	1.268939	0.903064	0.903727
O29	O	0.948376	0.311759	0.524230
O30	O	1.448376	0.811759	1.024230
O31	O	0.948237	0.523448	0.312582
O32	O	1.448237	1.023448	0.812582
O33	O	0.870931	0.523435	0.403763
O34	O	1.370931	1.023435	0.903763
C35	C	0.909588	0.550388	0.358185
C36	C	1.409588	1.050388	0.858185
C37	C	0.909613	0.632933	0.358205
C38	C	1.409613	1.132933	0.858205
C39	C	0.746112	0.357474	0.358112
C40	C	1.246112	0.857474	0.858112
C41	C	0.676144	0.357509	0.358093
C42	C	1.176144	0.857509	0.858093
C43	C	0.909698	0.357369	0.551903
C44	C	1.409698	0.857369	1.051903
C45	C	0.909713	0.357341	0.634449
C46	C	1.409713	0.857341	1.134449
C47	C	0.643280	0.405055	0.405514
C48	C	1.143280	0.905055	0.905514
C49	C	0.577537	0.405036	0.405547
C50	C	1.077537	0.905036	0.905547
C51	C	0.544662	0.357480	0.358146
C52	C	1.044662	0.857480	0.858146
C53	C	0.577534	0.309925	0.310722
C54	C	1.077534	0.809925	0.810722
C55	C	0.643276	0.309940	0.310695
C56	C	1.143276	0.809940	0.810695
N57	N	0.441392	0.351684	0.293191
N58	N	0.941392	0.851684	0.793191
N59	N	0.378940	0.351675	0.293218
N60	N	0.878940	0.851675	0.793218
C61	C	0.346587	0.357433	0.358225
C62	C	0.846587	0.857433	0.858225
N63	N	0.379045	0.363215	0.423205
N64	N	0.879045	0.863215	0.923205
N65	N	0.441502	0.363228	0.423177
N66	N	0.941502	0.863228	0.923177
C67	C	0.473376	0.357459	0.358170
C68	C	0.973376	0.857459	0.858170
C69	C	0.242437	0.404961	0.405686
C70	C	0.742437	0.904961	0.905686
C71	C	0.176693	0.404938	0.405721
C72	C	0.676693	0.904938	0.905721
C73	C	0.176692	0.309831	0.310889
C74	C	0.676692	0.809831	0.810889
C75	C	0.242434	0.309850	0.310861
C76	C	0.742434	0.809850	0.810861
C77	C	0.275303	0.357419	0.358259
C78	C	0.775303	0.857419	0.858259
C79	C	1.073854	0.357397	0.358284
C80	C	1.573854	0.857397	0.858284
C81	C	1.143822	0.357380	0.358320
C82	C	1.643822	0.857380	0.858320
C83	C	0.909757	0.163730	0.358226
C84	C	1.409757	0.663730	0.858226
C85	C	0.909797	0.081184	0.358238
C86	C	1.409797	0.581184	0.858238
C87	C	0.867616	0.832404	0.407771
C88	C	1.367616	1.332404	0.907771
C89	C	0.852272	0.881854	0.339998
C90	C	1.352272	1.381854	0.839998
C91	C	0.909675	0.784064	0.358214
C92	C	1.409675	1.284064	0.858214
C93	C	0.925049	0.881695	0.425996
C94	C	1.425049	1.381695	0.925996
C95	C	0.909733	0.930049	0.358230
C96	C	1.409733	1.430049	0.858230
C97	C	0.894301	0.832427	0.290405
C98	C	1.394301	1.332427	0.790405
C99	C	0.967105	0.832263	0.376448
C100	C	1.467105	1.332263	0.876448
C101	C	0.951784	0.881691	0.308628
C102	C	1.451784	1.381691	0.808628
C103	C	0.909640	0.699965	0.358206
C104	C	1.409640	1.199965	0.858206
C105	C	0.909769	1.014145	0.358230
C106	C	1.409769	1.514145	0.858230
C107	C	0.909666	0.357448	0.165245
C108	C	1.409666	0.857448	0.665245
C109	C	0.909774	0.357267	0.082700
C110	C	1.409774	0.857267	0.582700
C111	C	0.951824	0.307674	0.883304
C112	C	1.451824	0.807674	1.383304
C113	C	0.967184	0.375433	0.833901
C114	C	1.467184	0.875433	1.333901
C115	C	0.909753	0.357293	0.931570
C116	C	1.409753	0.857293	1.431570
C117	C	0.894402	0.289563	0.833891
C118	C	1.394402	0.789563	1.333891
C119	C	0.909735	0.357313	0.785584
C120	C	1.409735	0.857313	1.285584
C121	C	0.925144	0.425087	0.883254
C122	C	1.425144	0.925087	1.383254
C123	C	0.852335	0.339171	0.883248
C124	C	1.352335	0.839171	1.383248
C125	C	0.867674	0.406977	0.833867
C126	C	1.367674	0.906977	1.333867
C127	C	0.909766	0.357281	1.015668
C128	C	1.409766	0.857281	1.515668
C129	C	0.909723	0.357333	0.701488
C130	C	1.409723	0.857333	1.201488
H131	H	0.550773	0.443753	0.444166
H132	H	1.050773	0.943753	0.944166
O133	O	0.877036	0.803888	0.214459
O134	O	1.377036	1.303888	0.714459
H135	H	0.829542	0.824243	0.199279
H136	H	1.329542	1.324243	0.699279
H137	H	0.938030	0.903336	0.483311
H138	H	1.438030	1.403336	0.983311
H139	H	0.803732	0.903653	0.324590
H140	H	1.303732	1.403653	0.824590
H141	H	0.881427	0.232275	0.812205
H142	H	1.381427	0.732275	1.312205
O143	O	0.820437	0.803728	0.463207
O144	O	1.320437	1.303728	0.963207
H145	H	0.821146	0.742243	0.463080
H146	H	1.321146	1.242243	0.963080
O147	O	0.788042	0.318828	0.911979
O148	O	1.288042	0.818828	1.411979
H149	H	0.769236	0.365159	0.945763
H150	H	1.269236	0.865159	1.445763
H151	H	0.269193	0.271137	0.272242
H152	H	0.769193	0.771137	0.772242
H153	H	0.149925	0.271106	0.272298
H154	H	0.649925	0.771106	0.772298
O155	O	0.998931	0.910184	0.253063
O156	O	1.498931	1.410184	0.753063
H157	H	1.046412	0.889433	0.267755
H158	H	1.546412	1.389433	0.767755
H159	H	1.015634	0.810466	0.391889
H160	H	1.515634	1.310466	0.891889
H161	H	0.987436	0.265757	0.905009
H162	H	1.487436	0.765757	1.405009
H163	H	0.550763	0.271204	0.272129
H164	H	1.050763	0.771204	0.772129
H165	H	0.269200	0.443691	0.444284
H166	H	0.769200	0.943691	0.944284
H167	H	0.670037	0.443788	0.444110
H168	H	1.170037	0.943788	0.944110
H169	H	0.670034	0.271220	0.272079
H170	H	1.170034	0.771220	0.772079
H171	H	0.149936	0.443654	0.444341
H172	H	0.649936	0.943654	0.944341
O173	O	1.031489	0.395762	0.805182
O174	O	1.531489	0.895762	1.305182
H175	H	1.049899	0.349867	0.770512
H176	H	1.549899	0.849867	1.270512
O177	O	0.942413	0.500994	0.911845
O178	O	1.442413	1.000994	1.411845
H179	H	0.942310	0.500382	0.973333
H180	H	1.442310	1.000382	1.473333
O181	O	0.820544	0.462629	0.805273
O182	O	1.320544	0.962629	1.305273
H183	H	0.833430	0.518781	0.825145
H184	H	1.333430	1.018781	1.325145
