data_functionalizedCrystal
_audit_creation_method	'MofGen! by Chris Wilmer'
_symmetry_space_group_name_H-M	'P1'
_symmetry_Int_Tables_number	1
_symmetry_cell_setting	triclinic
loop_
_symmetry_equiv_pos_as_xyz
  x,y,z
_cell_length_a	21.395362
_cell_length_b	15.297327
_cell_length_c	21.395364
_cell_angle_alpha	80.327192
_cell_angle_beta	90.036401
_cell_angle_gamma	99.725883
loop_
_atom_site_label
_atom_site_type_symbol
_atom_site_fract_x
_atom_site_fract_y
_atom_site_fract_z
Zn1	Zn	0.914673	-0.359064	0.397710
Zn2	Zn	0.896469	-0.509888	0.311047
Zn3	Zn	0.809902	-0.359068	0.292912
Zn4	Zn	0.791730	-0.509945	0.415759
O5	O	0.853193	-0.434491	0.354357
O6	O	0.999939	-0.379046	0.386250
O7	O	0.884972	-0.489859	0.220961
O8	O	0.839023	-0.232804	0.291671
O9	O	0.986565	-0.489856	0.322580
O10	O	0.915999	-0.232801	0.368665
O11	O	0.821371	-0.379052	0.207637
O12	O	0.719810	-0.379107	0.309172
O13	O	0.808052	-0.489953	0.501045
O14	O	0.706459	-0.489956	0.399427
O15	O	0.898378	-0.379101	0.487785
O16	O	0.867351	-0.636159	0.340081
O17	O	0.790400	-0.636201	0.417012
C18	C	0.690400	-0.434539	0.354290
C19	C	0.620754	-0.434581	0.354279
C20	C	0.581096	-0.492377	0.401224
C21	C	0.515663	-0.492355	0.401249
C22	C	0.489889	-0.434546	0.354319
C23	C	0.529556	-0.376740	0.307370
C24	C	0.594988	-0.376757	0.307350
C25	C	0.387048	-0.427257	0.297039
C26	C	0.321616	-0.427246	0.297059
C27	C	0.288076	-0.434488	0.354382
C28	C	0.319973	-0.441759	0.411688
C29	C	0.385405	-0.441777	0.411668
C30	C	0.418940	-0.434521	0.354336
C31	C	0.177468	-0.492262	0.401358
C32	C	0.112035	-0.492234	0.401383
C33	C	0.125929	-0.376624	0.307499
C34	C	0.191361	-0.376647	0.307479
C35	C	0.217126	-0.434471	0.354408
C36	C	0.824945	-0.668919	0.382486
C37	C	0.812918	-0.769208	0.394541
C38	C	0.939412	-1.051693	0.268414
C39	C	0.950712	-0.957467	0.257085
C40	C	0.916265	-0.910397	0.291448
C41	C	0.870515	-0.957564	0.337142
C42	C	0.859211	-1.051799	0.348469
C43	C	0.836063	-0.910504	0.371503
C44	C	0.790314	-0.957670	0.417197
C45	C	0.779012	-1.051896	0.428522
C46	C	0.813459	-1.098966	0.394159
C47	C	0.847368	-0.816268	0.360176
C48	C	0.767166	-0.816374	0.440231
C49	C	0.755867	-0.910601	0.451560
C50	C	1.016622	-0.434444	0.354425
C51	C	1.086266	-0.434424	0.354454
C52	C	0.853219	-0.434533	0.517785
C53	C	0.853230	-0.434551	0.587429
C54	C	0.881569	-0.199149	0.326132
C55	C	0.893660	-0.098860	0.314104
C56	C	0.900255	-0.376840	0.613239
C57	C	0.900247	-0.376825	0.678673
C58	C	0.853219	-0.434538	0.718295
C59	C	0.806185	-0.492253	0.692477
C60	C	0.806190	-0.492259	0.627044
C61	C	0.838464	-0.515820	0.831722
C62	C	0.838462	-0.515815	0.897154
C63	C	0.853199	-0.434517	0.920114
C64	C	0.867950	-0.353221	0.877633
C65	C	0.867955	-0.353227	0.812199
C66	C	0.853208	-0.434536	0.789248
C67	C	0.900219	-0.376785	1.016874
C68	C	0.900207	-0.376769	1.082309
C69	C	0.806147	-0.492204	1.096113
C70	C	0.806156	-0.492212	1.030679
C71	C	0.853195	-0.434504	0.991063
C72	C	0.853168	-0.434477	1.191568
C73	C	0.853177	-0.434480	1.121927
H74	H	0.079746	-0.539296	0.439615
H75	H	0.884617	-0.777873	0.322971
O76	O	0.995108	-0.911513	0.212705
C77	C	1.048088	-0.766301	0.159800
C78	C	0.997779	-0.818232	0.210070
H79	H	1.050273	-0.690874	0.157662
H80	H	1.034895	-0.784795	0.111475
H81	H	1.096378	-0.784797	0.173080
H82	H	0.949470	-0.799763	0.196850
H83	H	1.011026	-0.799733	0.258382
H84	H	0.967450	-1.090026	0.240437
O85	O	0.419581	-0.420387	0.241346
C86	C	0.431643	-0.485234	0.147846
C87	C	0.394757	-0.493131	0.210903
H88	H	0.411578	-0.544028	0.123208
H89	H	0.483887	-0.486549	0.157644
H90	H	0.426742	-0.419229	0.115980
H91	H	0.399606	-0.559129	0.242800
H92	H	0.342528	-0.491763	0.201058
H93	H	0.804263	-1.175693	0.403382
H94	H	0.826455	-0.582011	0.931737
O95	O	0.882190	-0.274168	0.899844
C96	C	0.854521	-0.128472	0.902341
C97	C	0.838332	-0.217945	0.877131
H98	H	0.819063	-0.082998	0.883999
H99	H	0.904456	-0.093766	0.885329
H100	H	0.852008	-0.142443	0.956404
H101	H	0.840809	-0.204053	0.823069
H102	H	0.788405	-0.252624	0.894192
O103	O	0.633421	-0.320587	0.261680
C104	C	0.640302	-0.205880	0.168586
C105	C	0.596701	-0.269458	0.220263
H106	H	0.610633	-0.164511	0.135094
H107	H	0.665892	-0.247191	0.140681
H108	H	0.676671	-0.158822	0.191758
H109	H	0.560296	-0.316528	0.197143
H110	H	0.571157	-0.228090	0.248162
H111	H	0.767894	-0.539253	0.606030
H112	H	0.602070	-0.539461	0.439438
O113	O	0.734645	-1.097812	0.472950
C114	C	0.713415	-1.204144	0.570340
C115	C	0.763721	-1.152221	0.520063
H116	H	0.736907	-1.248132	0.608451
H117	H	0.675373	-1.248382	0.546888
H118	H	0.690726	-1.154301	0.592924
H119	H	0.786459	-1.201999	0.497462
H120	H	0.801724	-1.107970	0.543550
O121	O	0.711428	-0.956562	0.495901
C122	C	0.658503	-1.101780	0.548852
C123	C	0.708837	-1.049842	0.498609
H124	H	0.656402	-1.177206	0.551067
H125	H	0.610177	-1.083407	0.535579
H126	H	0.671700	-1.083169	0.597144
H127	H	0.695700	-1.068425	0.450299
H128	H	0.757149	-1.068219	0.511937
O129	O	0.882183	-0.274308	0.770871
C130	C	0.846436	-0.173193	0.684843
C131	C	0.830251	-0.262602	0.731600
H132	H	0.804455	-0.163691	0.653089
H133	H	0.889830	-0.174560	0.654359
H134	H	0.856995	-0.115101	0.712502
H135	H	0.819662	-0.320742	0.703992
H136	H	0.786876	-0.261157	0.762083
O137	O	0.733778	-0.770522	0.473579
C138	C	0.715624	-0.625398	0.491582
C139	C	0.753490	-0.677220	0.453786
H140	H	0.731537	-0.549954	0.475584
H141	H	0.724386	-0.643826	0.544346
H142	H	0.662877	-0.644059	0.482767
H143	H	0.806248	-0.658587	0.462548
H144	H	0.744674	-0.658787	0.401034
O145	O	0.927141	-0.818867	0.280388
C146	C	0.883283	-0.683739	0.248012
C147	C	0.870878	-0.787401	0.260502
H148	H	0.837801	-0.658268	0.231945
H149	H	0.921868	-0.658066	0.209425
H150	H	0.899361	-0.658141	0.293470
H151	H	0.854776	-0.813076	0.215080
H152	H	0.832314	-0.813013	0.299115
O153	O	0.824100	-0.594876	0.809529
C154	C	0.794682	-0.756125	0.835794
C155	C	0.810990	-0.666672	0.861013
H156	H	0.784065	-0.814194	0.877407
H157	H	0.836587	-0.765782	0.806335
H158	H	0.751272	-0.754612	0.804962
H159	H	0.854382	-0.668121	0.891872
H160	H	0.769050	-0.657049	0.890437
H161	H	0.767892	-0.539240	0.724742
O162	O	0.945974	-0.320693	0.574845
C163	C	1.039289	-0.206239	0.568067
C164	C	0.987544	-0.269766	0.611621
H165	H	1.072919	-0.165062	0.597784
H166	H	1.016251	-0.159008	0.531757
H167	H	1.067031	-0.247671	0.542413
H168	H	0.959784	-0.228407	0.637317
H169	H	1.010620	-0.316999	0.647891
O170	O	0.945949	-0.320892	0.703838
C171	C	1.032026	-0.308753	0.776289
C172	C	0.980285	-0.372194	0.747855
H173	H	1.059809	-0.350205	0.811873
H174	H	1.008984	-0.261589	0.801283
H175	H	1.065618	-0.267489	0.736720
H176	H	0.946676	-0.413516	0.787386
H177	H	1.003370	-0.419298	0.722845
O178	O	0.287481	-0.448664	0.467407
C179	C	0.275374	-0.383747	0.560867
C180	C	0.312238	-0.375836	0.497795
H181	H	0.295367	-0.324864	0.585447
H182	H	0.280295	-0.449690	0.592801
H183	H	0.223130	-0.382516	0.551020
H184	H	0.364495	-0.377028	0.507583
H185	H	0.307264	-0.309900	0.465880
O186	O	0.945936	-0.320638	0.978474
C187	C	1.039247	-0.206177	0.971691
C188	C	0.987503	-0.269703	1.015247
H189	H	1.072876	-0.164993	1.001406
H190	H	1.016208	-0.158952	0.935378
H191	H	1.066991	-0.247610	0.946042
H192	H	0.959741	-0.228342	1.040939
H193	H	1.010580	-0.316930	1.051521
O194	O	0.945810	-0.320602	1.107396
C195	C	0.968918	-0.198794	1.166667
C196	C	0.917210	-0.262337	1.138277
H197	H	0.945813	-0.151684	1.191652
H198	H	1.002531	-0.157489	1.127128
H199	H	0.996693	-0.240220	1.202278
H200	H	0.889388	-0.220981	1.102673
H201	H	0.883641	-0.303645	1.177850
O202	O	0.760529	-0.548245	1.134689
C203	C	0.718819	-0.599369	1.241607
C204	C	0.770527	-0.535869	1.197991
H205	H	0.726877	-0.589373	1.292794
H206	H	0.721057	-0.672139	1.237534
H207	H	0.670210	-0.583561	1.226771
H208	H	0.819162	-0.551597	1.212798
H209	H	0.768233	-0.463118	1.202070
O210	O	0.760447	-0.548363	1.005710
C211	C	0.667128	-0.662812	1.026304
C212	C	0.718869	-0.599283	1.054665
H213	H	0.633491	-0.703984	1.065868
H214	H	0.690169	-0.710047	1.001380
H215	H	0.639393	-0.621381	0.990653
H216	H	0.746622	-0.640641	1.090341
H217	H	0.695789	-0.552045	1.079550
H218	H	0.483368	-0.539418	0.439480
H219	H	0.198448	-0.539342	0.439573
O220	O	0.100972	-0.320512	0.261822
C221	C	0.086164	-0.276490	0.150010
C222	C	0.114469	-0.340083	0.201678
H223	H	0.097054	-0.292303	0.101373
H224	H	0.107847	-0.203752	0.152309
H225	H	0.032589	-0.286376	0.158108
H226	H	0.168042	-0.330277	0.193615
H227	H	0.092736	-0.412798	0.199366
O228	O	0.416473	-0.448700	0.467284
C229	C	0.498708	-0.379843	0.529305
C230	C	0.463586	-0.371906	0.466285
H231	H	0.536797	-0.317755	0.528523
H232	H	0.521808	-0.442571	0.535797
H233	H	0.463483	-0.385056	0.570272
H234	H	0.498770	-0.366656	0.425281
H235	H	0.440476	-0.309190	0.459848
H236	H	0.223651	-0.329588	0.269248
O237	O	0.290590	-0.420353	0.241418
C238	C	0.208316	-0.489149	0.179410
C239	C	0.243406	-0.497075	0.242449
H240	H	0.170151	-0.551161	0.180228
H241	H	0.243496	-0.484023	0.138418
H242	H	0.185293	-0.426353	0.172933
H243	H	0.266430	-0.559867	0.248987
H244	H	0.208198	-0.502150	0.283408
H245	H	0.508567	-0.329670	0.269161
