data_functionalizedCrystal
_audit_creation_method	'MofGen! by Chris Wilmer'
_symmetry_space_group_name_H-M	'P1'
_symmetry_Int_Tables_number	1
_symmetry_cell_setting	triclinic
loop_
_symmetry_equiv_pos_as_xyz
  x,y,z
_cell_length_a	16.109301
_cell_length_b	19.188930
_cell_length_c	15.186229
_cell_angle_alpha	89.991143
_cell_angle_beta	89.999362
_cell_angle_gamma	83.303131
loop_
_atom_site_label
_atom_site_type_symbol
_atom_site_fract_x
_atom_site_fract_y
_atom_site_fract_z
O1	O	1.102833	0.089744	-0.073183
O2	O	1.352833	0.339744	0.176817
O3	O	1.602833	0.589744	0.426817
O4	O	1.852833	0.839744	0.676817
O5	O	0.860734	0.100912	-0.073198
O6	O	1.110734	0.350912	0.176802
O7	O	1.360734	0.600912	0.426802
O8	O	1.610734	0.850912	0.676802
O9	O	0.988770	-0.006311	-0.073173
O10	O	1.238770	0.243689	0.176827
O11	O	1.488770	0.493689	0.426827
O12	O	1.738770	0.743689	0.676827
O13	O	0.974797	0.196967	-0.073208
O14	O	1.224797	0.446967	0.176792
O15	O	1.474797	0.696967	0.426792
O16	O	1.724797	0.946967	0.676792
O17	O	0.988762	-0.006313	0.073284
O18	O	1.238762	0.243687	0.323284
O19	O	1.488762	0.493687	0.573284
O20	O	1.738762	0.743687	0.823284
O21	O	0.860726	0.100911	0.073259
O22	O	1.110726	0.350911	0.323259
O23	O	1.360726	0.600911	0.573259
O24	O	1.610726	0.850911	0.823259
O25	O	1.102825	0.089742	0.073274
O26	O	1.352825	0.339742	0.323274
O27	O	1.602825	0.589742	0.573274
O28	O	1.852825	0.839742	0.823274
Zn29	Zn	0.981774	0.095326	0.096520
Zn30	Zn	1.231774	0.345326	0.346520
Zn31	Zn	1.481774	0.595326	0.596520
Zn32	Zn	1.731774	0.845326	0.846520
Zn33	Zn	0.981785	0.095328	-0.096444
Zn34	Zn	1.231785	0.345328	0.153556
Zn35	Zn	1.481785	0.595328	0.403556
Zn36	Zn	1.731785	0.845328	0.653556
O37	O	0.974789	0.196966	0.073249
O38	O	1.224789	0.446966	0.323249
O39	O	1.474789	0.696966	0.573249
O40	O	1.724789	0.946966	0.823249
C41	C	0.829757	0.100459	0.000029
C42	C	1.079757	0.350459	0.250029
C43	C	1.329757	0.600459	0.500029
C44	C	1.579757	0.850459	0.750029
C45	C	0.737466	0.099103	0.000024
C46	C	0.987466	0.349103	0.250024
C47	C	1.237466	0.599103	0.500024
C48	C	1.487466	0.849103	0.750024
C49	C	0.514993	0.159573	0.000023
C50	C	0.764993	0.409573	0.250023
C51	C	1.014993	0.659573	0.500023
C52	C	1.264993	0.909573	0.750023
C53	C	0.428277	0.158294	0.000029
C54	C	0.678277	0.408294	0.250029
C55	C	0.928277	0.658294	0.500029
C56	C	1.178277	0.908294	0.750029
C57	C	0.448573	0.031076	0.000048
C58	C	0.698573	0.281076	0.250048
C59	C	0.948573	0.531076	0.500048
C60	C	1.198573	0.781076	0.750048
C61	C	0.535287	0.032357	0.000048
C62	C	0.785287	0.282357	0.250048
C63	C	1.035287	0.532357	0.500048
C64	C	1.285287	0.782357	0.750048
C65	C	0.568495	0.096608	0.000031
C66	C	0.818495	0.346608	0.250031
C67	C	1.068495	0.596608	0.500031
C68	C	1.318495	0.846608	0.750031
C69	C	0.395064	0.094047	0.000037
C70	C	0.645064	0.344047	0.250037
C71	C	0.895064	0.594047	0.500037
C72	C	1.145064	0.844047	0.750037
C73	C	0.301043	0.092659	0.000043
C74	C	0.551043	0.342659	0.250043
C75	C	0.801043	0.592659	0.500043
C76	C	1.051043	0.842659	0.750043
C77	C	0.662522	0.097996	0.000027
C78	C	0.912522	0.347996	0.250027
C79	C	1.162522	0.597996	0.500027
C80	C	1.412522	0.847996	0.750027
C81	C	0.988313	-0.032324	0.000058
C82	C	1.238313	0.217676	0.250058
C83	C	1.488313	0.467676	0.500058
C84	C	1.738313	0.717676	0.750058
C85	C	0.986955	-0.109832	0.000066
C86	C	1.236955	0.140168	0.250066
C87	C	1.486955	0.390168	0.500066
C88	C	1.736955	0.640168	0.750066
C89	C	1.062082	-0.154580	0.000075
C90	C	1.312082	0.095420	0.250075
C91	C	1.562082	0.345420	0.500075
C92	C	1.812082	0.595420	0.750075
C93	C	1.060806	-0.227407	0.000060
C94	C	1.310806	0.022593	0.250060
C95	C	1.560806	0.272593	0.500060
C96	C	1.810806	0.522593	0.750060
C97	C	0.984399	-0.255482	0.000055
C98	C	1.234399	-0.005482	0.250055
C99	C	1.484399	0.244518	0.500055
C100	C	1.734399	0.494518	0.750055
C101	C	0.909261	-0.210724	0.000041
C102	C	1.159261	0.039276	0.250041
C103	C	1.409261	0.289276	0.500041
C104	C	1.659261	0.539276	0.750041
C105	C	0.910540	-0.137899	0.000046
C106	C	1.160540	0.112101	0.250046
C107	C	1.410540	0.362101	0.500046
C108	C	1.660540	0.612101	0.750046
N109	N	0.925991	-0.363624	0.049893
N110	N	1.175991	-0.113624	0.299893
N111	N	1.425991	0.136376	0.549893
N112	N	1.675991	0.386376	0.799893
N113	N	0.924782	-0.432805	0.049890
N114	N	1.174782	-0.182805	0.299890
N115	N	1.424782	0.067195	0.549890
N116	N	1.674782	0.317195	0.799890
C117	C	0.980543	-0.474900	0.000037
C118	C	1.230543	-0.224900	0.250037
C119	C	1.480543	0.025100	0.500037
C120	C	1.730543	0.275100	0.750037
N121	N	1.037571	-0.445200	-0.049802
N122	N	1.287571	-0.195200	0.200198
N123	N	1.537571	0.054800	0.450198
N124	N	1.787571	0.304800	0.700198
N125	N	1.038783	-0.376013	-0.049795
N126	N	1.288783	-0.126013	0.200205
N127	N	1.538783	0.123987	0.450205
N128	N	1.788783	0.373987	0.700205
C129	C	0.983004	-0.334448	0.000049
C130	C	1.233004	-0.084448	0.250049
C131	C	1.483004	0.165552	0.500049
C132	C	1.733004	0.415552	0.750049
C133	C	1.054292	-0.598616	0.000029
C134	C	1.304292	-0.348616	0.250029
C135	C	1.554292	-0.098616	0.500029
C136	C	1.804292	0.151384	0.750029
C137	C	1.053012	-0.671443	0.000010
C138	C	1.303012	-0.421443	0.250010
C139	C	1.553012	-0.171443	0.500010
C140	C	1.803012	0.078557	0.750010
C141	C	0.901465	-0.654759	-0.000001
C142	C	1.151465	-0.404759	0.249999
C143	C	1.401465	-0.154759	0.499999
C144	C	1.651465	0.095241	0.749999
C145	C	0.902747	-0.581933	0.000010
C146	C	1.152747	-0.331933	0.250010
C147	C	1.402747	-0.081933	0.500010
C148	C	1.652747	0.168067	0.750010
C149	C	0.979162	-0.553866	0.000029
C150	C	1.229162	-0.303866	0.250029
C151	C	1.479162	-0.053866	0.500029
C152	C	1.729162	0.196134	0.750029
C153	C	1.133802	0.090196	0.000045
C154	C	1.383802	0.340196	0.250045
C155	C	1.633802	0.590196	0.500045
C156	C	1.883802	0.840196	0.750045
C157	C	1.226093	0.091552	0.000045
C158	C	1.476093	0.341552	0.250045
C159	C	1.726093	0.591552	0.500045
C160	C	1.976093	0.841552	0.750045
C161	C	0.975246	0.222979	0.000016
C162	C	1.225246	0.472979	0.250016
C163	C	1.475246	0.722979	0.500016
C164	C	1.725246	0.972979	0.750016
C165	C	0.976604	0.300486	0.000003
C166	C	1.226604	0.550486	0.250003
C167	C	1.476604	0.800486	0.500003
C168	C	1.726604	1.050486	0.750003
N169	N	0.981772	0.095325	0.228213
N170	N	1.231772	0.345325	0.478213
N171	N	1.481772	0.595325	0.728213
N172	N	1.731772	0.845325	0.978213
N173	N	0.981793	0.095325	-0.228137
N174	N	1.231793	0.345325	0.021863
N175	N	1.481793	0.595325	0.271863
N176	N	1.731793	0.845325	0.521863
C177	C	1.038486	0.047862	0.453947
C178	C	1.288486	0.297862	0.703947
C179	C	1.538486	0.547862	0.953947
C180	C	1.788486	0.797862	1.203947
C181	C	1.038488	0.047860	0.546136
C182	C	1.288488	0.297860	0.796136
C183	C	1.538488	0.547860	1.046136
C184	C	1.788488	0.797860	1.296136
C185	C	0.925074	0.142790	0.546123
C186	C	1.175074	0.392790	0.796123
C187	C	1.425074	0.642790	1.046123
C188	C	1.675074	0.892790	1.296123
C189	C	0.925068	0.142787	0.453935
C190	C	1.175068	0.392787	0.703935
C191	C	1.425068	0.642787	0.953935
C192	C	1.675068	0.892787	1.203935
C193	C	0.981779	0.095324	0.407849
C194	C	1.231779	0.345324	0.657849
C195	C	1.481779	0.595324	0.907849
C196	C	1.731779	0.845324	1.157849
C197	C	0.981787	0.095325	0.592227
C198	C	1.231787	0.345325	0.842227
C199	C	1.481787	0.595325	1.092227
C200	C	1.731787	0.845325	1.342227
C201	C	0.981790	0.095323	0.692183
C202	C	1.231790	0.345323	0.942183
C203	C	1.481790	0.595323	1.192183
C204	C	1.731790	0.845323	1.442183
C205	C	0.981775	0.095325	0.307887
C206	C	1.231775	0.345325	0.557887
C207	C	1.481775	0.595325	0.807887
C208	C	1.731775	0.845325	1.057887
H209	H	0.384719	0.209567	0.000024
H210	H	0.634719	0.459567	0.250024
H211	H	0.884719	0.709567	0.500024
H212	H	1.134719	0.959567	0.750024
C213	C	0.412041	-0.039593	0.000054
C214	C	0.662041	0.210407	0.250054
C215	C	0.912041	0.460407	0.500054
C216	C	1.162041	0.710407	0.750054
H217	H	0.352734	-0.031339	0.000044
H218	H	0.602734	0.218661	0.250044
H219	H	0.852734	0.468661	0.500044
H220	H	1.102734	0.718661	0.750044
H221	H	0.430419	-0.065523	0.051129
H222	H	0.680419	0.184477	0.301129
H223	H	0.930419	0.434477	0.551129
H224	H	1.180419	0.684477	0.801129
H225	H	0.430424	-0.065513	-0.051023
H226	H	0.680424	0.184487	0.198977
H227	H	0.930424	0.434487	0.448977
H228	H	1.180424	0.684487	0.698977
H229	H	1.084662	0.009214	0.416426
H230	H	1.334662	0.259214	0.666426
H231	H	1.584662	0.509214	0.916426
H232	H	1.834662	0.759214	1.166426
H233	H	0.578851	-0.018920	0.000057
H234	H	0.828851	0.231080	0.250057
H235	H	1.078851	0.481080	0.500057
H236	H	1.328851	0.731080	0.750057
H237	H	1.124306	-0.131733	0.000087
H238	H	1.374306	0.118267	0.250087
H239	H	1.624306	0.368267	0.500087
H240	H	1.874306	0.618267	0.750087
C241	C	0.820108	-0.532704	0.000006
C242	C	1.070108	-0.282704	0.250006
C243	C	1.320108	-0.032704	0.500006
C244	C	1.570108	0.217296	0.750006
H245	H	0.831812	-0.485312	0.000002
H246	H	1.081812	-0.235312	0.250002
H247	H	1.331812	0.014688	0.500002
H248	H	1.581812	0.264688	0.750002
H249	H	0.788758	-0.541218	0.051073
H250	H	1.038758	-0.291218	0.301073
H251	H	1.288758	-0.041218	0.551073
H252	H	1.538758	0.208782	0.801073
H253	H	0.788774	-0.541205	-0.051079
H254	H	1.038774	-0.291205	0.198921
H255	H	1.288774	-0.041205	0.448921
H256	H	1.538774	0.208795	0.698921
H257	H	0.849360	-0.101464	0.000039
H258	H	1.099360	0.148536	0.250039
H259	H	1.349360	0.398536	0.500039
H260	H	1.599360	0.648536	0.750039
H261	H	1.084664	0.009211	0.583666
H262	H	1.334664	0.259211	0.833666
H263	H	1.584664	0.509211	1.083666
H264	H	1.834664	0.759211	1.333666
H265	H	0.878886	0.181437	0.416400
H266	H	1.128886	0.431437	0.666400
H267	H	1.378886	0.681437	0.916400
H268	H	1.628886	0.931437	1.166400
C269	C	0.551519	0.230246	0.000014
C270	C	0.801519	0.480246	0.250014
C271	C	1.051519	0.730246	0.500014
C272	C	1.301519	0.980246	0.750014
H273	H	0.507233	0.267562	0.000018
H274	H	0.757233	0.517562	0.250018
H275	H	1.007233	0.767562	0.500018
H276	H	1.257233	1.017562	0.750018
H277	H	0.584926	0.233394	-0.051058
H278	H	0.834926	0.483394	0.198942
H279	H	1.084926	0.733394	0.448942
H280	H	1.334926	0.983394	0.698942
H281	H	0.584923	0.233386	0.051094
H282	H	0.834923	0.483386	0.301094
H283	H	1.084923	0.733386	0.551094
H284	H	1.334923	0.983386	0.801094
C285	C	1.143449	-0.276639	0.000077
C286	C	1.393449	-0.026639	0.250077
C287	C	1.643449	0.223361	0.500077
C288	C	1.893449	0.473361	0.750077
H289	H	1.189141	-0.249493	0.000094
H290	H	1.439141	0.000507	0.250094
H291	H	1.689141	0.250507	0.500094
H292	H	1.939141	0.500507	0.750094
H293	H	1.146109	-0.305390	-0.050995
H294	H	1.396109	-0.055390	0.199005
H295	H	1.646109	0.194610	0.449005
H296	H	1.896109	0.444610	0.699005
H297	H	1.146087	-0.305399	0.051157
H298	H	1.396087	-0.055399	0.301157
H299	H	1.646087	0.194601	0.551157
H300	H	1.896087	0.444601	0.801157
H301	H	0.847050	-0.233587	0.000035
H302	H	1.097050	0.016413	0.250035
H303	H	1.347050	0.266413	0.500035
H304	H	1.597050	0.516413	0.750035
H305	H	1.116514	-0.575763	0.000041
H306	H	1.366514	-0.325763	0.250041
H307	H	1.616514	-0.075763	0.500041
H308	H	1.866514	0.174237	0.750041
H309	H	1.114193	-0.707878	0.000012
H310	H	1.364193	-0.457878	0.250012
H311	H	1.614193	-0.207878	0.500012
H312	H	1.864193	0.042122	0.750012
H313	H	0.878902	0.181434	0.583655
H314	H	1.128902	0.431434	0.833655
H315	H	1.378902	0.681434	1.083655
H316	H	1.628902	0.931434	1.333655
H317	H	0.839253	-0.677617	-0.000010
H318	H	1.089253	-0.427617	0.249990
H319	H	1.339253	-0.177617	0.499990
H320	H	1.589253	0.072383	0.749990
