data_functionalizedCrystal
_audit_creation_method	'MofGen! by Chris Wilmer'
_symmetry_space_group_name_H-M	'P1'
_symmetry_Int_Tables_number	1
_symmetry_cell_setting	triclinic
loop_
_symmetry_equiv_pos_as_xyz
  x,y,z
_cell_length_a	10.489741
_cell_length_b	10.489741
_cell_length_c	8.965430
_cell_angle_alpha	90.000707
_cell_angle_beta	89.998843
_cell_angle_gamma	84.539174
loop_
_atom_site_label
_atom_site_type_symbol
_atom_site_fract_x
_atom_site_fract_y
_atom_site_fract_z
O1	O	1.694053	0.179958	-0.123946
O2	O	1.322858	0.196851	-0.123969
O3	O	1.516902	0.002807	-0.123948
O4	O	1.500009	0.374003	-0.123967
O5	O	1.516886	0.002820	0.124130
O6	O	1.322841	0.196864	0.124110
O7	O	1.694037	0.179971	0.124133
Cu8	Cu	1.508438	0.188419	0.146773
Cu9	Cu	1.508457	0.188404	-0.146609
O10	O	1.499993	0.374016	0.124112
C11	C	1.275318	0.195582	0.000067
C12	C	1.133688	0.191765	0.000059
C13	C	1.065548	0.068300	0.000079
C14	C	0.973430	0.126617	-0.122237
C15	C	0.973447	0.126659	0.122349
C16	C	1.043435	0.250133	-0.122358
C17	C	1.043462	0.250158	0.122338
C18	C	0.951371	0.308564	-0.000007
C19	C	1.515618	-0.044718	0.000090
C20	C	1.511801	-0.186348	0.000087
C21	C	1.388336	-0.254488	0.000069
C22	C	1.446652	-0.346604	0.122388
C23	C	1.446697	-0.346591	-0.122198
C24	C	1.570167	-0.276599	0.122508
C25	C	1.570195	-0.276576	-0.122189
C26	C	1.628600	-0.368665	0.000161
C27	C	1.741577	0.181241	0.000093
C28	C	1.883206	0.185058	0.000092
C29	C	1.501277	0.421541	0.000070
C30	C	1.505094	0.563170	0.000063
N31	N	1.508433	0.188429	0.353122
N32	N	1.508471	0.188384	-0.352958
C33	C	1.418666	0.278138	0.450418
C34	C	1.534163	0.303949	0.549838
C35	C	1.392986	0.162629	0.549830
C36	C	1.623988	0.214298	0.450352
C37	C	1.482735	0.072927	0.450336
C38	C	1.598314	0.098690	0.549711
H39	H	0.942463	0.074402	0.225758
H40	H	1.622398	-0.245537	-0.225600
H41	H	1.555925	0.401606	0.593543
H42	H	1.394447	-0.377561	-0.225620
H43	H	1.622355	-0.245761	0.226035
O44	O	1.688890	0.008173	0.601659
C45	C	1.687243	0.008458	0.758911
H46	H	1.589479	0.051139	0.799869
H47	H	1.706448	-0.093912	0.801686
H48	H	1.764468	0.068373	0.802336
O49	O	1.267215	-0.195302	0.000463
C50	C	1.202579	-0.230809	0.129649
H51	H	1.275494	-0.263531	0.219345
H52	H	1.137749	-0.145170	0.172333
H53	H	1.142227	-0.312433	0.101735
O54	O	0.936510	0.064089	-0.245486
C55	C	0.995213	-0.062540	-0.245071
H56	H	1.022651	-0.091884	-0.126041
H57	H	0.925585	-0.129724	-0.291265
H58	H	1.084869	-0.068409	-0.317569
O59	O	1.124946	-0.052733	-0.000251
C60	C	1.202870	-0.070475	-0.128116
H61	H	1.228371	0.026476	-0.170143
H62	H	1.294316	-0.132958	-0.098709
H63	H	1.148937	-0.119288	-0.218889
O64	O	1.080346	0.312517	-0.245716
C65	C	1.142123	0.420188	-0.202080
H66	H	1.181095	0.405207	-0.084040
H67	H	1.224482	0.433239	-0.281892
H68	H	1.070749	0.509183	-0.205024
H69	H	1.342824	0.354072	0.406821
O70	O	1.740392	0.240573	0.398206
C71	C	1.738945	0.240347	0.240952
H72	H	1.636058	0.259369	0.199829
H73	H	1.797912	0.318341	0.197559
H74	H	1.781694	0.143152	0.198308
O75	O	1.384204	-0.383743	0.245593
C76	C	1.277269	-0.446545	0.201678
H77	H	1.292960	-0.485724	0.083822
H78	H	1.264618	-0.528868	0.281682
H79	H	1.187760	-0.375831	0.204020
O80	O	1.456509	-0.043490	0.398210
C81	C	1.334636	-0.070307	0.448837
H82	H	1.274955	0.023179	0.476798
H83	H	1.284673	-0.122866	0.357814
H84	H	1.345729	-0.132919	0.552834
H85	H	0.901947	0.410168	-0.000079
H86	H	1.295338	0.140828	0.593530
O87	O	1.749897	-0.427418	0.000323
C88	C	1.838169	-0.334114	0.001580
H89	H	1.790152	-0.240807	0.049127
H90	H	1.923995	-0.368870	0.073746
H91	H	1.871742	-0.317219	-0.117114
O92	O	1.080472	0.312248	0.245853
C93	C	1.045166	0.246849	0.374574
H94	H	1.033942	0.142757	0.345274
H95	H	1.122532	0.250675	0.463328
H96	H	0.950479	0.294231	0.419206
