data_functionalizedCrystal
_audit_creation_method	'MofGen! by Chris Wilmer'
_symmetry_space_group_name_H-M	'P1'
_symmetry_Int_Tables_number	1
_symmetry_cell_setting	triclinic
loop_
_symmetry_equiv_pos_as_xyz
  x,y,z
_cell_length_a	11.792241
_cell_length_b	10.654550
_cell_length_c	9.130313
_cell_angle_alpha	90.000110
_cell_angle_beta	90.000619
_cell_angle_gamma	95.660841
loop_
_atom_site_label
_atom_site_type_symbol
_atom_site_fract_x
_atom_site_fract_y
_atom_site_fract_z
O1	O	1.507300	-0.172130	-0.121766
O2	O	1.177000	-0.189870	-0.121775
O3	O	1.349744	0.001761	-0.121765
O4	O	1.334556	-0.363761	-0.121776
O5	O	1.349742	0.001756	0.121834
O6	O	1.176998	-0.189875	0.121824
O7	O	1.507298	-0.172135	0.121832
Cu8	Cu	1.342148	-0.181006	0.144071
Cu9	Cu	1.342150	-0.180999	-0.144013
O10	O	1.334553	-0.363766	0.121822
C11	C	1.134705	-0.188758	0.000023
C12	C	1.008684	-0.185423	0.000020
C13	C	1.348628	0.048553	0.000032
C14	C	1.345291	0.187987	0.000027
C15	C	1.549592	-0.173247	0.000031
C16	C	1.675614	-0.176582	0.000025
C17	C	1.906340	-0.182715	0.000025
C18	C	1.777947	-0.179308	0.000025
C19	C	1.335670	-0.410558	0.000022
C20	C	1.339006	-0.549992	0.000017
N21	N	1.342154	-0.181009	0.346693
C22	C	1.447000	0.267760	0.000034
C23	C	1.443858	0.398772	0.000024
C24	C	1.237290	0.370224	0.000006
C25	C	1.240433	0.239215	0.000005
C26	C	1.566261	0.284243	0.000051
C27	C	1.563120	0.415255	0.000041
N28	N	1.342152	-0.180986	-0.346636
C29	C	1.418665	-0.096184	0.423350
C30	C	1.418662	-0.096169	0.576686
C31	C	1.265633	-0.265815	0.576697
C32	C	1.265632	-0.265823	0.423363
C33	C	1.507018	0.001757	0.423345
C34	C	1.507015	0.001772	0.576682
H35	H	1.157611	0.174267	-0.000021
C36	C	1.617566	0.236249	0.142146
N37	N	1.656206	0.200099	0.249174
C38	C	1.623813	0.471844	0.137768
N39	N	1.669523	0.514466	0.241502
H40	H	1.589425	-0.028599	0.375788
C41	C	1.121951	0.426589	-0.000002
N42	N	1.035075	0.469040	-0.000000
H43	H	1.594237	-0.019500	0.618300
C44	C	1.611834	0.477067	-0.142034
N45	N	1.648531	0.523626	-0.249038
C46	C	1.469748	0.124894	0.640926
N47	N	1.441671	0.217625	0.689316
C48	C	1.181462	-0.359104	0.661048
N49	N	1.118062	-0.429371	0.724579
C50	C	1.629274	0.244756	-0.137663
N51	N	1.676731	0.215014	-0.241390
C52	C	1.181551	-0.359234	0.339046
N53	N	1.118254	-0.429633	0.275539
H54	H	1.487639	0.098234	0.381727
