data_functionalizedCrystal
_audit_creation_method	'MofGen! by Chris Wilmer'
_symmetry_space_group_name_H-M	'P1'
_symmetry_Int_Tables_number	1
_symmetry_cell_setting	triclinic
loop_
_symmetry_equiv_pos_as_xyz
  x,y,z
_cell_length_a	14.853567
_cell_length_b	17.766277
_cell_length_c	19.288857
_cell_angle_alpha	90.006698
_cell_angle_beta	83.384020
_cell_angle_gamma	90.002750
loop_
_atom_site_label
_atom_site_type_symbol
_atom_site_fract_x
_atom_site_fract_y
_atom_site_fract_z
O1	O	1.195848	0.062546	0.090684
O2	O	1.695848	0.562546	0.590684
O3	O	0.933326	0.062559	0.101487
O4	O	1.433326	0.562559	0.601487
O5	O	1.072176	0.062543	-0.005020
O6	O	1.572176	0.562543	0.494980
O7	O	1.056998	0.062562	0.197190
O8	O	1.556998	0.562562	0.697190
O9	O	1.072161	-0.062645	-0.005022
O10	O	1.572161	0.437355	0.494978
O11	O	0.933311	-0.062629	0.101484
O12	O	1.433311	0.437371	0.601484
O13	O	1.195832	-0.062643	0.090681
O14	O	1.695832	0.437357	0.590681
Cu15	Cu	1.064570	-0.074067	0.096083
Cu16	Cu	1.564570	0.425933	0.596083
Cu17	Cu	1.064588	0.073983	0.096086
Cu18	Cu	1.564588	0.573983	0.596086
O19	O	1.056982	-0.062626	0.197188
O20	O	1.556982	0.437374	0.697188
C21	C	0.899733	-0.000033	0.100996
C22	C	1.399733	0.499967	0.600996
C23	C	0.799657	-0.000029	0.099529
C24	C	1.299657	0.499971	0.599529
N25	N	1.064564	-0.178197	0.096080
N26	N	1.564564	0.321803	0.596080
C27	C	1.126086	-0.782493	0.048935
C28	C	1.626086	-0.282493	0.548935
C29	C	1.126087	-0.703691	0.048936
C30	C	1.626087	-0.203691	0.548936
C31	C	1.064589	-0.664286	0.096079
C32	C	1.564589	-0.164286	0.596079
C33	C	1.003100	-0.703689	0.143236
C34	C	1.503100	-0.203689	0.643236
C35	C	1.003106	-0.782489	0.143238
C36	C	1.503106	-0.282489	0.643238
C37	C	0.982439	-0.539449	0.105072
C38	C	1.482439	-0.039449	0.605072
C39	C	0.982432	-0.460650	0.105065
C40	C	1.482432	0.039350	0.605065
C41	C	1.064569	-0.421239	0.096078
C42	C	1.564569	0.078761	0.596078
C43	C	1.146718	-0.460637	0.087083
C44	C	1.646718	0.039363	0.587083
C45	C	1.146724	-0.539437	0.087084
C46	C	1.646724	-0.039437	0.587084
C47	C	1.064575	-0.578840	0.096083
C48	C	1.564575	-0.078840	0.596083
C49	C	1.126060	-0.296400	0.048929
C50	C	1.626060	0.203600	0.548929
C51	C	1.126062	-0.217597	0.048936
C52	C	1.626062	0.282403	0.548936
C53	C	1.003067	-0.217596	0.143232
C54	C	1.503067	0.282404	0.643232
C55	C	1.003072	-0.296398	0.143229
C56	C	1.503072	0.203602	0.643229
C57	C	1.064568	-0.335795	0.096074
C58	C	1.564568	0.164205	0.596074
C59	C	0.387521	-0.000052	0.030062
C60	C	0.887521	0.499948	0.530062
C61	C	0.365516	-0.000039	0.156594
C62	C	0.865516	0.499961	0.656594
C63	C	0.459542	-0.000037	0.157973
C64	C	0.959542	0.499963	0.657973
C65	C	0.517562	-0.000041	0.095395
C66	C	1.017562	0.499959	0.595395
C67	C	0.481556	-0.000047	0.031439
C68	C	0.981556	0.499953	0.531439
C69	C	0.495555	-0.000023	0.221928
C70	C	0.995555	0.499977	0.721928
C71	C	0.589586	-0.000019	0.223310
C72	C	1.089586	0.499981	0.723310
C73	C	0.647608	-0.000029	0.160732
C74	C	1.147608	0.499971	0.660732
C75	C	0.611597	-0.000036	0.096773
C76	C	1.111597	0.499964	0.596773
C77	C	0.669617	-0.000040	0.034195
C78	C	1.169617	0.499960	0.534195
C79	C	0.633607	-0.000052	-0.029765
C80	C	1.133607	0.499948	0.470235
C81	C	0.539578	-0.000056	-0.031139
C82	C	1.039578	0.499944	0.468861
C83	C	0.741637	-0.000025	0.162107
C84	C	1.241637	0.499975	0.662107
C85	C	0.763651	-0.000035	0.035573
C86	C	1.263651	0.499965	0.535573
C87	C	1.229426	-0.000048	0.091172
C88	C	1.729426	0.499952	0.591172
C89	C	1.329501	-0.000048	0.092639
C90	C	1.829501	0.499952	0.592639
C91	C	1.071681	-0.000052	-0.030899
C92	C	1.571681	0.499948	0.469101
C93	C	1.070219	-0.000054	-0.108008
C94	C	1.570219	0.499946	0.391992
N95	N	1.064601	0.178114	0.096083
N96	N	1.564601	0.678114	0.596083
C97	C	1.069544	0.068187	-0.144219
C98	C	1.569544	0.568187	0.355781
C99	C	1.068157	0.068192	-0.216670
C100	C	1.568157	0.568192	0.283330
C101	C	1.067463	-0.000046	-0.252908
C102	C	1.567463	0.499954	0.247092
C103	C	1.068132	-0.068296	-0.216688
C104	C	1.568132	0.431704	0.283312
C105	C	1.069510	-0.068299	-0.144237
C106	C	1.569510	0.431701	0.355763
C107	C	1.118078	-0.052324	-0.372970
C108	C	1.618078	0.447676	0.127030
C109	C	1.116705	-0.052317	-0.445420
C110	C	1.616705	0.447683	0.054580
C111	C	1.063208	-0.000038	-0.476369
C112	C	1.563208	0.499962	0.023631
C113	C	1.011095	0.052248	-0.434860
C114	C	1.511095	0.552248	0.065140
C115	C	1.012473	0.052244	-0.362410
C116	C	1.512473	0.552244	0.137590
C117	C	1.065968	-0.000050	-0.331468
C118	C	1.565968	0.499950	0.168532
C119	C	1.061029	0.068214	-0.591139
C120	C	1.561029	0.568214	-0.091139
C121	C	1.059636	0.068217	-0.663591
C122	C	1.559636	0.568217	-0.163591
C123	C	1.059620	-0.068273	-0.663608
C124	C	1.559620	0.431727	-0.163608
C125	C	1.061003	-0.068274	-0.591157
C126	C	1.561003	0.431726	-0.091157
C127	C	1.061712	-0.000029	-0.554927
C128	C	1.561712	0.499971	-0.054927
C129	C	1.057477	-0.000030	0.223067
C130	C	1.557477	0.499970	0.723067
C131	C	1.058940	-0.000023	0.300176
C132	C	1.558940	0.499977	0.800176
H133	H	1.176161	-0.814568	0.010540
H134	H	1.676161	-0.314568	0.510540
H135	H	0.448309	-0.000012	0.272875
H136	H	0.948309	0.499988	0.772875
Br137	Br	0.712359	-0.000049	-0.114688
Br138	Br	1.212359	0.499951	0.385312
Br139	Br	0.638448	-0.000002	0.310110
Br140	Br	1.138448	0.499998	0.810110
Br141	Br	0.938484	0.123203	-0.476852
Br142	Br	1.438484	0.623203	0.023148
Br143	Br	0.790505	0.000001	0.248901
Br144	Br	1.290505	0.500001	0.748901
Br145	Br	1.070502	0.160805	-0.095054
Br146	Br	1.570502	0.660805	0.404946
H147	H	1.213602	-0.428550	0.079770
H148	H	1.713602	0.071450	0.579770
Br149	Br	1.067239	0.160811	-0.265825
Br150	Br	1.567239	0.660811	0.234175
H151	H	0.510250	-0.000084	-0.083212
H152	H	1.010250	0.499916	0.416788
Br153	Br	1.209538	-0.650219	-0.015055
Br154	Br	1.709538	-0.150219	0.484945
Br155	Br	1.209519	-0.164130	-0.015050
Br156	Br	1.709519	0.335870	0.484950
Br157	Br	1.058668	-0.160885	-0.712779
Br158	Br	1.558668	0.339115	-0.212779
Br159	Br	1.190712	-0.123264	-0.330978
Br160	Br	1.690712	0.376736	0.169022
H161	H	0.970040	0.094816	-0.328617
H162	H	1.470040	0.594816	0.171383
Br163	Br	1.067178	-0.160906	-0.265865
Br164	Br	1.567178	0.339094	0.234135
H165	H	1.070055	-0.123871	-0.114754
H166	H	1.570055	0.376129	0.385246
Br167	Br	0.338655	-0.000076	-0.056737
Br168	Br	0.838655	0.499924	0.443263
Br169	Br	0.286775	-0.000020	0.241516
Br170	Br	0.786775	0.499980	0.741516
H171	H	1.061600	0.123783	-0.561639
H172	H	1.561600	0.623783	-0.061639
Br173	Br	1.058711	0.160837	-0.712736
Br174	Br	1.558711	0.660837	-0.212736
Br175	Br	1.061914	-0.160892	-0.542009
Br176	Br	1.561914	0.339108	-0.042009
H177	H	0.915541	-0.428579	0.112382
H178	H	1.415541	0.071421	0.612382
Br179	Br	0.919623	-0.349867	0.207217
Br180	Br	1.419623	0.150133	0.707217
Br181	Br	1.258205	-0.592903	0.074883
Br182	Br	1.758205	-0.092903	0.574883
Br183	Br	1.209519	-0.349870	-0.015064
Br184	Br	1.709519	0.150130	0.484936
Br185	Br	0.919614	-0.164124	0.207220
Br186	Br	1.419614	0.335876	0.707220
H187	H	0.915548	-0.571531	0.112394
H188	H	1.415548	-0.071531	0.612394
Br189	Br	0.919643	-0.650213	0.207222
Br190	Br	1.419643	-0.150213	0.707222
Br191	Br	1.187435	-0.123271	-0.501745
Br192	Br	1.687435	0.376729	-0.001745
Br193	Br	0.842387	-0.000049	-0.049359
Br194	Br	1.342387	0.499951	0.450641
Br195	Br	0.919658	-0.835956	0.207230
Br196	Br	1.419658	-0.335956	0.707230
