data_functionalizedCrystal
_audit_creation_method	'MofGen! by Chris Wilmer'
_symmetry_space_group_name_H-M	'P1'
_symmetry_Int_Tables_number	1
_symmetry_cell_setting	triclinic
loop_
_symmetry_equiv_pos_as_xyz
  x,y,z
_cell_length_a	15.995343
_cell_length_b	14.044220
_cell_length_c	12.503572
_cell_angle_alpha	86.156832
_cell_angle_beta	86.486087
_cell_angle_gamma	91.660969
loop_
_atom_site_label
_atom_site_type_symbol
_atom_site_fract_x
_atom_site_fract_y
_atom_site_fract_z
O1	O	1.124526	-0.116667	-0.089214
O2	O	0.881879	-0.131761	-0.089241
O3	O	0.999560	0.013770	-0.089217
O4	O	1.006845	-0.262198	-0.089238
O5	O	0.990711	0.002807	0.089423
O6	O	0.873030	-0.142724	0.089400
O7	O	1.115677	-0.127630	0.089426
Cu8	Cu	0.993545	-0.136178	0.105724
Cu9	Cu	1.004010	-0.123213	-0.105539
O10	O	0.997996	-0.273161	0.089402
C11	C	0.846213	-0.136619	0.000076
C12	C	0.753123	-0.134752	0.000067
C13	C	0.582683	-0.131364	0.000081
C14	C	0.551491	-0.026312	0.000089
C15	C	0.454645	-0.024361	0.000501
C16	C	0.414873	-0.128027	0.000095
C17	C	0.442867	-0.187096	0.101900
C18	C	0.539749	-0.188347	0.101979
C19	C	0.549837	-0.177418	-0.101175
C20	C	0.453119	-0.173458	-0.102507
C21	C	0.320034	-0.126146	0.000106
C22	C	0.677522	-0.133247	0.000078
C23	C	0.991947	0.043603	0.000103
C24	C	0.982436	0.148828	0.000103
C25	C	1.151343	-0.122771	0.000107
C26	C	1.244433	-0.124638	0.000109
C27	C	1.005609	-0.302993	0.000080
C28	C	1.015121	-0.408218	0.000073
N29	N	0.986191	-0.145296	0.254315
C30	C	0.965048	0.341490	0.000086
C31	C	1.032504	0.399125	0.000090
C32	C	1.022830	0.506329	0.000080
C33	C	0.974721	0.234276	0.000096
N34	N	1.011371	-0.114087	-0.254130
C35	C	0.975373	-0.158717	0.473428
C36	C	1.022186	-0.100669	0.526764
C37	C	1.016167	-0.108137	0.648686
C38	C	0.981391	-0.151251	0.351495
H39	H	0.580073	0.018886	-0.072905
O40	O	0.563834	-0.150742	0.193144
C41	C	0.519856	-0.081771	0.357907
C42	C	0.492471	-0.124322	0.254694
H43	H	0.462174	-0.060418	0.407709
H44	H	0.562634	-0.016155	0.335854
H45	H	0.555041	-0.137309	0.406603
H46	H	0.457253	-0.068855	0.205950
H47	H	0.449734	-0.189958	0.276821
H48	H	0.429498	0.012289	0.073912
H49	H	0.559861	-0.265651	0.106327
H50	H	0.930778	-0.214019	0.519326
O51	O	1.110007	0.361788	0.000157
C52	C	1.190440	0.219344	0.000126
C53	C	1.102624	0.261506	0.000071
H54	H	1.184503	0.138263	0.000034
H55	H	1.222222	0.239646	0.074910
H56	H	1.229618	0.248927	-0.074611
H57	H	1.063379	0.231945	0.074757
H58	H	1.070908	0.241212	-0.074763
H59	H	0.416301	-0.155521	0.177957
H60	H	0.900037	0.372658	0.000076
O61	O	1.075291	-0.034487	0.472170
C62	C	1.113415	0.132513	0.437917
C63	C	1.053212	0.057620	0.499724
H64	H	1.095597	0.206997	0.460189
H65	H	1.108923	0.127074	0.347873
H66	H	1.180339	0.118899	0.459987
H67	H	0.986262	0.071184	0.477743
H68	H	1.057777	0.063077	0.589753
O69	O	0.432720	0.030380	-0.086564
C70	C	0.480662	0.128128	-0.245462
C71	C	0.505602	0.066166	-0.146894
H72	H	0.539572	0.157062	-0.294278
H73	H	0.442449	0.190213	-0.217716
H74	H	0.441491	0.082918	-0.297405
H75	H	0.544802	0.111296	-0.094909
H76	H	0.543773	0.004077	-0.174715
H77	H	0.573872	0.009270	0.072992
H78	H	0.416547	-0.263623	0.105395
H79	H	0.435419	-0.130369	-0.177824
O80	O	0.585301	-0.132233	-0.193192
C81	C	0.713139	-0.088506	-0.299386
C82	C	0.673088	-0.139704	-0.195132
H83	H	0.784119	-0.094546	-0.300999
H84	H	0.696631	-0.009981	-0.302861
H85	H	0.688302	-0.123149	-0.371523
H86	H	0.697903	-0.105140	-0.122937
H87	H	0.689591	-0.218228	-0.191751
H88	H	0.426133	-0.248719	-0.108975
H89	H	0.569675	-0.254682	-0.102163
