data_functionalizedCrystal
_audit_creation_method	'MofGen! by Chris Wilmer'
_symmetry_space_group_name_H-M	'P1'
_symmetry_Int_Tables_number	1
_symmetry_cell_setting	triclinic
loop_
_symmetry_equiv_pos_as_xyz
  x,y,z
_cell_length_a	16.176319
_cell_length_b	14.971486
_cell_length_c	14.971486
_cell_angle_alpha	83.614129
_cell_angle_beta	90.007008
_cell_angle_gamma	90.002456
loop_
_atom_site_label
_atom_site_type_symbol
_atom_site_fract_x
_atom_site_fract_y
_atom_site_fract_z
O1	O	-0.068652	-1.186948	-0.116565
O2	O	-0.068674	-0.926548	-0.130524
O3	O	-0.068657	-1.063728	0.006656
O4	O	-0.068670	-1.049769	-0.253744
O5	O	0.068837	-1.063709	0.006665
O6	O	0.068819	-0.926529	-0.130515
O7	O	0.068841	-1.186929	-0.116556
Cu8	Cu	0.081384	-1.056727	-0.123535
Cu9	Cu	-0.081217	-1.056750	-0.123545
O10	O	0.068824	-1.049750	-0.253736
C11	C	0.000069	-0.893214	-0.129895
C12	C	0.000061	-0.793917	-0.128024
N13	N	0.195749	-1.056718	-0.123527
N14	N	-0.195583	-1.056766	-0.123546
C15	C	0.239022	-1.117480	-0.062809
C16	C	0.325569	-1.117484	-0.062808
C17	C	0.368842	-1.056731	-0.123530
C18	C	0.325564	-0.995963	-0.184251
C19	C	0.239018	-0.995955	-0.184247
C20	C	0.674592	-0.995994	-0.184268
C21	C	0.761144	-0.996008	-0.184269
C22	C	0.761142	-1.117523	-0.062829
C23	C	0.674597	-1.117515	-0.062825
C24	C	0.631326	-1.056744	-0.123542
C25	C	0.537482	-1.056739	-0.123541
C26	C	0.462685	-1.056740	-0.123536
C27	C	0.000090	-1.063094	0.039985
C28	C	0.000089	-1.061223	0.139282
C29	C	0.000096	-1.220263	-0.117185
C30	C	0.000099	-1.319561	-0.119056
C31	C	0.000058	-0.736691	-0.208614
C32	C	0.000070	-0.643392	-0.206850
C33	C	0.000080	-0.607320	-0.124497
C34	C	0.000085	-0.664552	-0.043902
C35	C	0.000079	-0.757850	-0.045666
C36	C	0.000097	-0.470090	-0.040231
C37	C	0.000102	-0.376786	-0.038466
C38	C	0.000088	-0.355632	-0.201415
C39	C	0.000082	-0.448930	-0.203179
C40	C	0.000086	-0.506156	-0.122584
C41	C	0.000075	-1.050384	-0.287065
C42	C	0.000071	-1.052254	-0.386362
C43	C	0.000096	-1.141812	0.196507
C44	C	0.000088	-1.140049	0.289807
C45	C	0.000078	-1.057696	0.325879
C46	C	0.000068	-0.977101	0.268646
C47	C	0.000070	-0.978865	0.175349
C48	C	0.000064	-0.973430	0.463109
C49	C	0.000063	-0.971665	0.556413
C50	C	0.000082	-1.134614	0.577567
C51	C	0.000085	-1.136378	0.484269
C52	C	0.000076	-1.055782	0.427043
H53	H	0.203794	-1.166956	-0.013365
H54	H	0.000066	-0.478296	-0.270239
Cl55	Cl	0.620199	-1.193895	0.013511
Cl56	Cl	0.000086	-0.829791	0.055651
H57	H	0.360800	-1.166960	-0.013366
H58	H	0.796376	-0.946532	-0.233718
H59	H	0.000105	-0.635175	0.023152
Cl60	Cl	0.000041	-0.782030	-0.312150
H61	H	0.796382	-1.167003	-0.013386
Cl62	Cl	0.620201	-0.919602	-0.260600
H63	H	0.000089	-0.309033	-0.267039
H64	H	0.000068	-0.904606	0.585780
H65	H	0.360802	-0.946492	-0.233689
H66	H	0.203787	-0.946476	-0.233689
Cl67	Cl	0.000088	-1.235935	0.649508
Cl68	Cl	0.000062	-0.571455	-0.308168
Cl69	Cl	0.000141	-0.331439	0.065065
Cl70	Cl	0.000053	-0.872107	0.391168
H71	H	0.000054	-0.910047	0.298024
Cl72	Cl	0.000103	-0.542030	0.061092
H73	H	0.000064	-0.913240	0.128756
H74	H	0.000110	-1.208874	0.167145
H75	H	0.000096	-1.205673	0.336396
Cl76	Cl	0.000093	-1.239909	0.438922
