data_functionalizedCrystal
_audit_creation_method	'MofGen! by Chris Wilmer'
_symmetry_space_group_name_H-M	'P1'
_symmetry_Int_Tables_number	1
_symmetry_cell_setting	triclinic
loop_
_symmetry_equiv_pos_as_xyz
  x,y,z
_cell_length_a	21.295418
_cell_length_b	21.295417
_cell_length_c	16.120256
_cell_angle_alpha	92.868749
_cell_angle_beta	92.858322
_cell_angle_gamma	90.046319
loop_
_atom_site_label
_atom_site_type_symbol
_atom_site_fract_x
_atom_site_fract_y
_atom_site_fract_z
Zn1	Zn	0.944261	-0.268438	-0.471777
Zn2	Zn	0.949511	-0.368364	-0.332356
Zn3	Zn	0.844332	-0.263141	-0.332336
Zn4	Zn	0.838957	-0.373698	-0.471673
O5	O	0.894265	-0.318410	-0.402035
O6	O	1.033044	-0.281678	-0.453334
O7	O	0.940005	-0.349956	-0.215693
O8	O	0.857640	-0.175755	-0.350868
O9	O	1.036902	-0.355093	-0.350903
O10	O	0.931057	-0.179647	-0.453314
O11	O	0.862731	-0.272649	-0.215678
O12	O	0.755532	-0.277822	-0.350767
O13	O	0.848479	-0.364185	-0.588348
O14	O	0.751583	-0.359048	-0.453138
O15	O	0.925845	-0.286850	-0.588424
O16	O	0.934793	-0.457159	-0.350802
O17	O	0.853570	-0.461079	-0.453158
C18	C	0.730717	-0.318440	-0.401939
C19	C	0.660750	-0.318468	-0.401918
C20	C	0.625846	-0.360813	-0.455143
C21	C	0.560103	-0.360799	-0.455180
C22	C	0.529265	-0.318446	-0.401978
C23	C	0.564176	-0.276093	-0.348750
C24	C	0.629919	-0.276104	-0.348720
N25	N	0.428786	-0.310733	-0.329063
N26	N	0.366333	-0.310727	-0.329094
C27	C	0.331187	-0.318409	-0.402067
N28	N	0.360853	-0.326111	-0.475009
N29	N	0.423311	-0.326121	-0.474977
C30	C	0.457979	-0.318429	-0.402005
C31	C	0.224996	-0.360741	-0.455336
C32	C	0.159251	-0.360723	-0.455375
C33	C	0.163327	-0.276020	-0.348937
C34	C	0.229070	-0.276035	-0.348906
C35	C	0.259901	-0.318399	-0.402104
C36	C	0.894184	-0.481960	-0.401989
C37	C	0.894206	-0.551928	-0.401997
C38	C	0.936533	-0.582735	-0.348756
C39	C	0.936562	-0.648479	-0.348774
C40	C	0.894253	-0.683412	-0.402026
C41	C	0.851923	-0.652597	-0.455278
C42	C	0.851900	-0.586856	-0.455264
N43	N	0.838943	-0.786935	-0.408349
N44	N	0.838968	-0.849387	-0.408358
C45	C	0.894322	-0.881489	-0.402074
N46	N	0.949653	-0.848778	-0.395764
N47	N	0.949628	-0.786321	-0.395751
C48	C	0.894274	-0.754698	-0.402048
C49	C	0.936683	-0.983582	-0.348850
C50	C	0.936713	-1.049326	-0.348874
C51	C	0.852069	-1.053444	-0.455374
C52	C	0.852045	-0.987701	-0.455354
C53	C	0.894351	-0.952773	-0.402087
C54	C	1.058452	-0.318381	-0.402132
C55	C	1.128418	-0.318369	-0.402174
C56	C	0.885977	-0.326704	-0.619480
C57	C	0.882445	-0.330238	-0.712142
C58	C	0.894363	-0.154222	-0.402100
C59	C	0.894404	-0.084255	-0.402128
C60	C	0.912682	-0.299964	-0.923121
C61	C	0.875976	-0.336664	-0.881791
C62	C	0.879577	-0.333088	-0.787390
C63	C	0.909082	-0.303540	-1.017531
C64	C	0.902557	-0.310104	-0.185437
C65	C	0.906211	-0.306392	-0.092775
H66	H	0.539064	-0.241608	-0.305434
C67	C	0.129416	-0.229430	-0.290417
H68	H	0.159622	-0.204210	-0.258715
H69	H	0.105109	-0.252072	-0.254046
H70	H	0.102601	-0.203251	-0.322394
H71	H	0.946809	-0.265860	-0.887608
H72	H	0.971184	-1.074408	-0.305520
C73	C	0.120858	-0.407313	-0.513914
H74	H	0.148638	-0.432549	-0.545581
H75	H	0.093867	-0.384670	-0.550316
H76	H	0.096388	-0.433475	-0.481948
C77	C	0.805385	-0.691018	-0.513856
H78	H	0.780175	-0.663252	-0.545569
H79	H	0.779201	-0.715490	-0.481929
H80	H	0.828071	-0.718009	-0.550227
C81	C	0.267466	-0.229463	-0.290348
H82	H	0.239687	-0.204240	-0.258661
H83	H	0.291943	-0.203296	-0.322289
H84	H	0.294451	-0.252124	-0.253951
H85	H	0.971031	-0.673567	-0.305419
C86	C	0.829873	-0.382744	-0.929759
H87	H	0.807314	-0.405299	-0.891412
H88	H	0.852668	-0.411427	-0.963744
H89	H	0.801186	-0.359929	-0.963709
C90	C	0.805335	-0.552966	-0.513828
H91	H	0.780139	-0.583185	-0.545544
H92	H	0.827997	-0.528663	-0.550183
H93	H	0.779132	-0.526149	-0.481878
H94	H	0.817576	-0.962616	-0.498705
H95	H	0.650945	-0.395308	-0.498462
H96	H	0.531679	-0.395281	-0.498525
C97	C	0.983075	-0.544319	-0.290174
H98	H	1.008291	-0.572087	-0.258474
H99	H	0.960397	-0.517325	-0.253805
H100	H	1.009260	-0.519852	-0.322112
H101	H	0.250100	-0.395233	-0.498658
C102	C	0.668314	-0.229526	-0.290166
H103	H	0.640535	-0.204301	-0.258482
H104	H	0.692792	-0.203361	-0.322110
H105	H	0.695298	-0.252186	-0.253767
C106	C	0.983223	-0.945160	-0.290269
H107	H	1.008443	-0.972926	-0.258571
H108	H	0.960544	-0.918168	-0.253897
H109	H	1.009405	-0.920688	-0.322207
H110	H	0.817623	-1.081886	-0.498736
