data_functionalizedCrystal
_audit_creation_method	'MofGen! by Chris Wilmer'
_symmetry_space_group_name_H-M	'P1'
_symmetry_Int_Tables_number	1
_symmetry_cell_setting	triclinic
loop_
_symmetry_equiv_pos_as_xyz
  x,y,z
_cell_length_a	14.971486
_cell_length_b	17.038272
_cell_length_c	13.448316
_cell_angle_alpha	89.993314
_cell_angle_beta	89.998199
_cell_angle_gamma	87.362843
loop_
_atom_site_label
_atom_site_type_symbol
_atom_site_fract_x
_atom_site_fract_y
_atom_site_fract_z
O1	O	1.194577	0.101898	-0.082578
O2	O	0.935090	0.114100	-0.082605
O3	O	1.063291	-0.005818	-0.082584
O4	O	1.066375	0.221816	-0.082599
O5	O	1.063273	-0.005826	0.082800
O6	O	0.935072	0.114093	0.082779
O7	O	1.194559	0.101890	0.082806
Cu8	Cu	1.064814	0.107991	0.097893
Cu9	Cu	1.064835	0.107999	-0.097692
O10	O	1.066358	0.221809	0.082785
C11	C	0.901716	0.113551	0.000083
C12	C	0.802296	0.111915	0.000073
C13	C	1.060477	-0.034954	0.000108
C14	C	1.052107	-0.121756	0.000107
C15	C	0.750345	0.182364	0.000070
C16	C	0.656930	0.180823	0.000085
C17	C	0.615468	0.108832	0.000096
C18	C	0.667426	0.038378	0.000102
C19	C	0.760839	0.039920	0.000095
C20	C	0.472723	0.035169	0.000116
C21	C	0.379303	0.033626	0.000122
C22	C	0.368815	0.176072	0.000107
C23	C	0.462228	0.177614	0.000099
C24	C	0.514179	0.107159	0.000103
C25	C	1.128951	-0.171781	0.000116
C26	C	1.121081	-0.253341	0.000105
C27	C	1.036367	-0.284874	0.000093
C28	C	0.959518	-0.234843	0.000081
C29	C	0.967388	-0.153285	0.000084
C30	C	1.008563	-0.530664	0.000077
C31	C	1.000698	-0.612229	0.000077
C32	C	1.162262	-0.630721	0.000099
C33	C	1.170125	-0.549161	0.000108
C34	C	1.093276	-0.499137	0.000091
C35	C	1.028321	-0.368241	0.000086
C36	C	1.101323	-0.415771	0.000091
C37	C	1.227933	0.102440	0.000115
C38	C	1.327353	0.104075	0.000119
C39	C	1.069172	0.250944	0.000091
C40	C	1.077542	0.337746	0.000086
N41	N	1.064806	0.107984	0.235458
N42	N	1.064850	0.108000	-0.235257
C43	C	1.121593	0.054906	0.287507
C44	C	1.121599	0.054905	0.391611
C45	C	1.064821	0.107987	0.443662
C46	C	1.008026	0.161068	0.391605
C47	C	1.008017	0.161064	0.287504
C48	C	1.008052	0.161073	0.608585
C49	C	1.008062	0.161078	0.712694
C50	C	1.121634	0.054914	0.712692
C51	C	1.121624	0.054911	0.608591
C52	C	1.064831	0.107992	0.556541
H53	H	0.784097	0.240987	0.000060
H54	H	0.961773	0.204284	0.245126
H55	H	0.633660	-0.020239	0.000126
H56	H	0.326511	0.233438	0.000107
H57	H	1.239108	-0.523493	0.000118
H58	H	0.803137	-0.017447	0.000097
H59	H	0.345548	-0.024995	0.000133
H60	H	1.167862	0.011692	0.566210
H61	H	0.614636	0.238189	0.000081
H62	H	0.495983	0.236235	0.000080
Cl63	Cl	1.217690	-0.316226	0.000120
H64	H	0.515019	-0.022203	0.000121
Cl65	Cl	1.235454	-0.132148	0.000141
H66	H	1.224829	-0.671459	0.000111
H67	H	0.961801	0.204295	0.566210
Cl68	Cl	0.911950	-0.467788	0.000052
H69	H	0.961791	0.204285	0.433991
H70	H	1.167833	0.011684	0.245134
Cl71	Cl	1.193031	-0.011814	0.778129
H72	H	1.167839	0.011685	0.433989
H73	H	0.931710	-0.637900	0.000083
H74	H	0.890541	-0.260524	0.000065
H75	H	0.904813	-0.112555	0.000077
Cl76	Cl	0.936677	0.227811	0.778122
H77	H	1.170296	-0.390093	0.000079
Cl78	Cl	0.921826	-0.407890	0.000065
