data_functionalizedCrystal
_audit_creation_method	'MofGen! by Chris Wilmer'
_symmetry_space_group_name_H-M	'P1'
_symmetry_Int_Tables_number	1
_symmetry_cell_setting	triclinic
loop_
_symmetry_equiv_pos_as_xyz
  x,y,z
_cell_length_a	14.519709
_cell_length_b	17.666332
_cell_length_c	14.519709
_cell_angle_alpha	89.993850
_cell_angle_beta	96.319855
_cell_angle_gamma	90.003638
loop_
_atom_site_label
_atom_site_type_symbol
_atom_site_fract_x
_atom_site_fract_y
_atom_site_fract_z
O1	O	1.223874	0.062851	-0.120891
O2	O	0.955397	0.062875	-0.135128
O3	O	1.096754	0.062856	0.006229
O4	O	1.082517	0.062871	-0.262248
O5	O	1.096729	-0.063041	0.006233
O6	O	0.955372	-0.063022	-0.135123
O7	O	1.223849	-0.063045	-0.120887
Cu8	Cu	1.089608	-0.074529	-0.128005
Cu9	Cu	1.089638	0.074358	-0.128010
O10	O	1.082492	-0.063026	-0.262244
C11	C	0.921025	-0.000071	-0.134462
C12	C	0.818643	-0.000062	-0.132474
N13	N	1.089594	-0.179248	-0.128001
C14	C	0.443748	-0.000097	-0.125154
C15	C	0.548056	-0.000087	-0.127187
C16	C	0.631192	-0.000079	-0.128814
C17	C	0.735507	-0.000070	-0.130847
C18	C	1.145610	-0.218854	-0.184064
C19	C	1.145624	-0.298101	-0.184061
C20	C	1.089607	-0.337741	-0.128006
C21	C	1.033588	-0.298126	-0.071931
C22	C	1.033581	-0.218880	-0.071929
N23	N	1.008826	-0.462173	-0.125354
N24	N	1.008834	-0.537454	-0.125362
C25	C	1.089623	-0.576505	-0.128009
N26	N	1.170404	-0.537431	-0.130667
N27	N	1.170395	-0.462144	-0.130664
C28	C	1.089607	-0.423670	-0.128002
C29	C	1.145660	-0.702039	-0.184073
C30	C	1.145676	-0.781288	-0.184064
C31	C	1.033631	-0.781311	-0.071939
C32	C	1.033623	-0.702064	-0.071943
C33	C	1.089636	-0.662432	-0.128015
C34	C	1.258221	-0.000098	-0.121553
C35	C	1.360602	-0.000102	-0.123541
C36	C	1.096078	-0.000093	0.040591
C37	C	1.094090	-0.000093	0.142972
N38	N	1.089659	0.179078	-0.128007
C39	C	1.083168	-0.000076	-0.296605
C40	C	1.085156	-0.000071	-0.398987
C41	C	1.086770	-0.000073	0.517868
C42	C	1.088803	-0.000079	0.413560
C43	C	1.090430	-0.000084	0.330423
C44	C	1.092463	-0.000088	0.226109
H45	H	1.191223	-0.186591	-0.229719
C46	C	1.207305	-0.824863	-0.245726
C47	C	1.163083	-0.879351	-0.320740
C48	C	1.224715	-0.922929	-0.382398
C49	C	1.330569	-0.912019	-0.369042
C50	C	1.374797	-0.857528	-0.294024
C51	C	1.313165	-0.813950	-0.232366
H52	H	1.084718	-0.887430	-0.330630
H53	H	1.191975	-0.963267	-0.437931
H54	H	1.376193	-0.944278	-0.414685
H55	H	1.453161	-0.849449	-0.284134
H56	H	1.345905	-0.773612	-0.176834
C57	C	0.971962	-0.341725	-0.010275
C58	C	0.971958	-0.428893	-0.010282
C59	C	0.910332	-0.472491	0.051379
C60	C	0.848709	-0.428922	0.113048
C61	C	0.848711	-0.341749	0.113057
C62	C	0.910337	-0.298151	0.051396
H63	H	1.017577	-0.461150	-0.055935
H64	H	0.910331	-0.537022	0.051371
H65	H	0.803090	-0.461196	0.158693
H66	H	0.803092	-0.309492	0.158710
H67	H	0.910338	-0.233620	0.051404
C68	C	0.971954	-0.175309	-0.010261
C69	C	0.985376	-0.186212	0.095594
C70	C	0.923746	-0.142640	0.157260
C71	C	0.848694	-0.088166	0.113071
C72	C	0.835268	-0.077261	0.007210
C73	C	0.896898	-0.120833	-0.054456
H74	H	1.040938	-0.226539	0.128310
H75	H	0.933685	-0.150712	0.235625
H76	H	0.803072	-0.055912	0.158720
H77	H	0.779707	-0.036934	-0.025506
H78	H	0.886960	-0.112761	-0.132821
C79	C	1.207228	-0.341680	-0.245751
C80	C	1.207222	-0.428847	-0.245764
C81	C	1.268818	-0.472423	-0.307460
C82	C	1.330420	-0.428831	-0.369144
C83	C	1.330428	-0.341658	-0.369134
C84	C	1.268832	-0.298083	-0.307438
H85	H	1.161619	-0.461121	-0.200099
H86	H	1.268812	-0.536954	-0.307467
H87	H	1.376017	-0.461088	-0.414816
H88	H	1.376031	-0.309384	-0.414799
H89	H	1.268838	-0.233552	-0.307431
H90	H	1.191269	-0.669770	-0.229729
H91	H	0.988021	-0.813585	-0.026296
H92	H	0.988005	-0.669817	-0.026294
