data_functionalizedCrystal
_audit_creation_method	'MofGen! by Chris Wilmer'
_symmetry_space_group_name_H-M	'P1'
_symmetry_Int_Tables_number	1
_symmetry_cell_setting	triclinic
loop_
_symmetry_equiv_pos_as_xyz
  x,y,z
_cell_length_a	16.120484
_cell_length_b	15.297475
_cell_length_c	15.296721
_cell_angle_alpha	88.382971
_cell_angle_beta	101.986619
_cell_angle_gamma	96.312526
loop_
_atom_site_label
_atom_site_type_symbol
_atom_site_fract_x
_atom_site_fract_y
_atom_site_fract_z
Zn1	Zn	-0.646918	-1.212938	-0.755054
Zn2	Zn	-0.766608	-1.230713	-0.613834
Zn3	Zn	-0.600221	-1.094736	-0.581241
Zn4	Zn	-0.758437	-1.059451	-0.734603
O5	O	-0.693046	-1.149459	-0.671183
O6	O	-0.685757	-1.336437	-0.758520
O7	O	-0.728413	-1.234882	-0.486227
O8	O	-0.490111	-1.117743	-0.599215
O9	O	-0.773693	-1.349497	-0.654767
O10	O	-0.524419	-1.204586	-0.726915
O11	O	-0.606170	-1.134980	-0.462281
O12	O	-0.598247	-0.968914	-0.579385
O13	O	-0.759767	-1.057605	-0.860600
O14	O	-0.714488	-0.942990	-0.692060
O15	O	-0.677834	-1.170371	-0.875625
O16	O	-0.881829	-1.200667	-0.634936
O17	O	-0.875826	-1.074842	-0.723665
C18	C	-0.908991	-1.135874	-0.680642
C19	C	-1.001392	-1.130137	-0.684732
C20	C	-0.650414	-0.924541	-0.629967
C21	C	-0.632199	-0.828315	-0.612357
C22	C	-0.723098	-1.108069	-0.900972
C23	C	-0.735905	-1.090431	-0.998895
C24	C	-1.170573	-1.119663	-0.692220
C25	C	-1.214710	-1.179409	-0.650189
C26	C	-1.308848	-1.173581	-0.654355
C27	C	-1.076426	-1.125489	-0.688055
C28	C	-0.476265	-1.163118	-0.661711
C29	C	-0.383886	-1.168938	-0.657674
C30	C	-0.735845	-1.375256	-0.712560
C31	C	-0.754083	-1.471477	-0.730193
C32	C	-0.823240	-0.503219	-0.797050
C33	C	-0.840360	-0.593629	-0.813594
C34	C	-0.788321	-0.652304	-0.763286
C35	C	-0.719159	-0.620562	-0.696432
C36	C	-0.702042	-0.530145	-0.679882
C37	C	-0.667123	-0.679230	-0.646118
C38	C	-0.597961	-0.647488	-0.579263
C39	C	-0.580846	-0.557078	-0.562717
C40	C	-0.632885	-0.498403	-0.613024
C41	C	-0.684241	-0.769647	-0.662668
C42	C	-0.563042	-0.796573	-0.545499
C43	C	-0.545922	-0.706163	-0.528956
C44	C	-0.784578	-1.023430	-1.037073
C45	C	-0.796615	-1.006859	-1.129076
C46	C	-0.759975	-1.057283	-1.182910
C47	C	-0.711296	-1.124282	-1.144731
C48	C	-0.699263	-1.140859	-1.052720
C49	C	-0.674660	-1.174712	-1.198557
C50	C	-0.625981	-1.241711	-1.160378
C51	C	-0.613950	-1.258284	-1.068375
C52	C	-0.650590	-1.207860	-1.014542
C53	C	-0.686693	-1.158135	-1.290568
C54	C	-0.601378	-1.275564	-1.306215
C55	C	-0.589341	-1.292135	-1.214211
C56	C	-0.663060	-1.190742	-0.442294
C57	C	-0.650051	-1.208562	-0.344393
H58	H	-1.181796	-1.234935	-0.611077
H59	H	-0.489610	-0.680306	-0.474522
Cl60	Cl	-1.221385	-1.033936	-0.752599
Cl61	Cl	-0.927303	-0.633527	-0.897635
H62	H	-0.740552	-0.795482	-0.717102
H63	H	-0.865607	-0.455439	-0.837998
H64	H	-0.524538	-0.531239	-0.508271
Cl65	Cl	-0.611361	-0.384739	-0.592234
Cl66	Cl	-0.809843	-0.765963	-0.784088
Cl67	Cl	-0.497622	-0.870331	-0.482248
H68	H	-0.726328	-1.103584	-1.321644
Cl69	Cl	-0.775106	-1.036447	-1.298572
Cl70	Cl	-0.857816	-0.922642	-1.177068
Cl71	Cl	-0.528136	-1.376351	-1.166202
H72	H	-0.814410	-0.982386	-0.993235
H73	H	-0.640786	-1.221344	-0.939623
Cl74	Cl	-0.552764	-1.342521	-1.020383
H75	H	-0.571544	-1.316624	-1.350046
