data_functionalizedCrystal
_audit_creation_method	'MofGen! by Chris Wilmer'
_symmetry_space_group_name_H-M	'P1'
_symmetry_Int_Tables_number	1
_symmetry_cell_setting	triclinic
loop_
_symmetry_equiv_pos_as_xyz
  x,y,z
_cell_length_a	15.995350
_cell_length_b	15.995350
_cell_length_c	13.448316
_cell_angle_alpha	89.995627
_cell_angle_beta	89.996887
_cell_angle_gamma	83.492375
loop_
_atom_site_label
_atom_site_type_symbol
_atom_site_fract_x
_atom_site_fract_y
_atom_site_fract_z
O1	O	1.110988	0.107929	-0.082603
O2	O	0.867213	0.121256	-0.082622
O3	O	0.995764	-0.007295	-0.082611
O4	O	0.982437	0.236480	-0.082614
O5	O	0.995748	-0.007303	0.082773
O6	O	0.867197	0.121248	0.082761
O7	O	1.110972	0.107921	0.082781
Cu8	Cu	0.989083	0.114584	0.097872
Cu9	Cu	0.989102	0.114593	-0.097713
O10	O	0.982421	0.236472	0.082770
C11	C	0.836010	0.120701	0.000067
C12	C	0.743060	0.119049	0.000059
C13	C	0.995205	-0.038494	0.000079
C14	C	0.993553	-0.131444	0.000073
C15	C	0.405312	0.113117	0.000080
C16	C	0.452746	0.021565	0.000450
C17	C	0.549436	0.023217	0.000070
C18	C	0.572873	0.116060	0.000070
C19	C	0.531795	0.161221	-0.094369
C20	C	0.435159	0.158921	-0.094441
C21	C	0.434802	0.160803	0.093631
C22	C	0.531747	0.160782	0.094873
C23	C	0.667570	0.117727	0.000061
C24	C	0.310614	0.111452	0.000082
C25	C	0.987621	-0.469192	0.000076
C26	C	0.896069	-0.421758	-0.000302
C27	C	0.897721	-0.325068	0.000071
C28	C	0.990564	-0.301631	0.000074
C29	C	1.035711	-0.342713	0.094518
C30	C	1.033411	-0.439349	0.094597
C31	C	1.035321	-0.439698	-0.093475
C32	C	1.035299	-0.342753	-0.094723
C33	C	0.992231	-0.206934	0.000076
C34	C	0.985956	-0.563890	0.000080
C35	C	1.142175	0.108476	0.000090
C36	C	1.235125	0.110127	0.000091
C37	C	0.982980	0.267671	0.000078
C38	C	0.984631	0.360621	0.000077
N39	N	0.989076	0.114577	0.235436
N40	N	0.989116	0.114593	-0.235278
C41	C	1.046016	0.057677	0.287482
C42	C	1.046021	0.057677	0.391585
C43	C	0.989089	0.114580	0.443641
C44	C	0.932143	0.171482	0.391588
C45	C	0.932134	0.171478	0.287487
C46	C	0.932166	0.171487	0.608568
C47	C	0.932176	0.171493	0.712677
C48	C	1.046053	0.057686	0.712666
C49	C	1.046044	0.057682	0.608565
C50	C	0.989099	0.114586	0.556520
H51	H	0.577859	-0.012281	0.067768
Br52	Br	0.577148	0.105740	0.211321
H53	H	0.434217	-0.015034	0.068176
H54	H	0.885792	0.217821	0.566196
Br55	Br	0.854849	0.248696	0.216854
Br56	Br	1.145437	-0.493103	0.101756
H57	H	1.103004	-0.327391	-0.100423
Br58	Br	0.854870	0.248704	0.462232
H59	H	1.102822	-0.471459	-0.094107
H60	H	0.402911	0.226137	-0.098727
Br61	Br	0.557348	0.273630	0.104381
H62	H	1.000476	-0.457654	0.165193
Br63	Br	0.420095	-0.039153	-0.111798
Br64	Br	1.149398	-0.319175	0.100382
Br65	Br	0.404650	0.104042	-0.212104
Br66	Br	0.595852	-0.036072	-0.113157
H67	H	0.403040	0.228304	0.094270
Br68	Br	0.983428	-0.295419	0.211660
H69	H	0.862232	-0.296642	-0.067631
H70	H	0.859483	-0.440286	-0.068030
Br71	Br	0.555362	0.274899	-0.100250
Br72	Br	0.579094	0.108955	-0.211516
Br73	Br	1.123291	-0.019547	0.216845
Br74	Br	1.123295	-0.019548	0.462222
H75	H	0.414259	0.130869	0.165214
H76	H	0.859633	-0.441355	0.067042
Br77	Br	0.980744	-0.296792	-0.211194
H78	H	0.861980	-0.297206	0.067882
Br79	Br	0.985435	-0.473914	-0.212786
H80	H	1.092406	0.011352	0.566181
Br81	Br	1.123338	-0.019534	0.783302
Br82	Br	0.854908	0.248722	0.783317
