data_functionalizedCrystal
_audit_creation_method	'MofGen! by Chris Wilmer'
_symmetry_space_group_name_H-M	'P1'
_symmetry_Int_Tables_number	1
_symmetry_cell_setting	triclinic
loop_
_symmetry_equiv_pos_as_xyz
  x,y,z
_cell_length_a	10.723024
_cell_length_b	9.798715
_cell_length_c	10.723024
_cell_angle_alpha	90.001978
_cell_angle_beta	84.467869
_cell_angle_gamma	90.003391
loop_
_atom_site_label
_atom_site_type_symbol
_atom_site_fract_x
_atom_site_fract_y
_atom_site_fract_z
O1	O	1.657187	0.113478	0.175024
O2	O	1.294035	0.113483	0.191778
O3	O	1.483988	0.113475	0.001825
O4	O	1.467234	0.113486	0.364977
O5	O	1.483974	-0.113507	0.001824
O6	O	1.294021	-0.113499	0.191777
O7	O	1.657173	-0.113504	0.175024
Zn8	Zn	1.475595	-0.149540	0.183401
Zn9	Zn	1.475613	0.149519	0.183401
O10	O	1.467220	-0.113496	0.364977
C11	C	1.247528	-0.000008	0.190558
C12	C	1.108974	-0.000006	0.186911
N13	N	1.475591	-0.353640	0.183399
C14	C	1.033991	-0.000002	0.293198
C15	C	0.890788	-0.000001	0.289431
C16	C	1.555347	-0.421420	0.103292
C17	C	1.555367	-0.578582	0.103288
C18	C	1.703680	-0.000010	0.176243
C19	C	1.842234	-0.000003	0.179891
C20	C	1.482762	-0.000014	-0.044675
C21	C	1.479114	-0.000009	-0.183229
N22	N	1.475627	0.353619	0.183393
C23	C	1.585401	-0.000009	-0.258212
C24	C	1.581634	-0.000004	-0.401415
C25	C	1.468447	-0.000004	0.411477
C26	C	1.472094	0.000000	0.550031
H27	H	1.075814	-0.000007	0.386984
Br28	Br	1.669192	-0.675725	-0.011019
H29	H	1.407345	-0.588102	0.251984
H30	H	1.407319	-0.411961	0.251975
Br31	Br	1.741727	0.000004	-0.188520
Br32	Br	1.668819	-0.324225	-0.011335
H33	H	1.067152	0.000026	0.093125
H34	H	1.385328	0.000001	-0.225051
Br35	Br	1.733301	-0.000019	-0.508799
H36	H	1.381099	-0.000010	-0.385544
H37	H	0.906659	0.000002	0.088896
H38	H	0.826355	0.000008	0.380421
