data_functionalizedCrystal
_audit_creation_method	'MofGen! by Chris Wilmer'
_symmetry_space_group_name_H-M	'P1'
_symmetry_Int_Tables_number	1
_symmetry_cell_setting	triclinic
loop_
_symmetry_equiv_pos_as_xyz
  x,y,z
_cell_length_a	19.188930
_cell_length_b	19.188930
_cell_length_c	9.016244
_cell_angle_alpha	89.992636
_cell_angle_beta	89.978791
_cell_angle_gamma	83.144779
loop_
_atom_site_label
_atom_site_type_symbol
_atom_site_fract_x
_atom_site_fract_y
_atom_site_fract_z
O1	O	0.926148	0.087165	-0.123834
O2	O	0.722837	0.098899	-0.123734
O3	O	0.830360	-0.008624	-0.123758
O4	O	0.818625	0.194687	-0.123810
O5	O	0.830344	-0.008621	0.122923
O6	O	0.722821	0.098901	0.122947
O7	O	0.926132	0.087167	0.122847
Cu8	Cu	0.824475	0.093035	0.145421
Cu9	Cu	0.824494	0.093032	-0.146308
O10	O	0.818610	0.194690	0.122871
C11	C	0.696818	0.098520	-0.000381
C12	C	0.619313	0.097380	-0.000341
C13	C	0.829972	-0.034634	-0.000413
C14	C	0.828831	-0.112138	-0.000400
C15	C	0.574389	0.160470	-0.000381
C16	C	0.501566	0.159399	-0.000397
C17	C	0.473669	0.095233	-0.000403
C18	C	0.518603	0.032133	-0.000355
C19	C	0.591425	0.033207	-0.000325
N20	N	0.365694	0.046185	-0.084407
N21	N	0.296516	0.045169	-0.084439
C22	C	0.254260	0.091994	-0.000493
N23	N	0.283796	0.139884	0.083468
N24	N	0.352981	0.140902	0.083494
C25	C	0.394707	0.094062	-0.000436
C26	C	0.130372	0.153928	-0.000548
C27	C	0.057547	0.152853	-0.000555
C28	C	0.074586	0.025586	-0.000528
C29	C	0.147409	0.026662	-0.000506
C30	C	0.175298	0.090835	-0.000523
C31	C	0.891922	-0.157062	-0.000423
C32	C	0.890850	-0.229886	-0.000447
C33	C	0.826684	-0.257782	-0.000416
C34	C	0.763585	-0.212849	-0.000401
C35	C	0.764658	-0.140026	-0.000393
N36	N	0.777631	-0.365787	0.083558
N37	N	0.776616	-0.434965	0.083553
C38	C	0.823446	-0.477191	-0.000445
N39	N	0.871340	-0.447626	-0.084419
N40	N	0.872358	-0.378442	-0.084408
C41	C	0.825513	-0.336745	-0.000426
C42	C	0.885379	-0.601079	-0.000496
C43	C	0.884305	-0.673904	-0.000528
C44	C	0.757038	-0.656865	-0.000468
C45	C	0.758114	-0.584042	-0.000450
C46	C	0.822286	-0.556154	-0.000457
C47	C	0.952151	0.087546	-0.000510
C48	C	1.029656	0.088687	-0.000559
C49	C	0.818997	0.220700	-0.000477
C50	C	0.820138	0.298204	-0.000500
N51	N	0.824467	0.093036	0.350607
N52	N	0.824507	0.093024	-0.351494
C53	C	0.766778	0.150365	0.585652
C54	C	0.766901	0.150576	0.413761
C55	C	0.897272	0.108727	0.412904
C56	C	0.896956	0.109132	0.584849
C57	C	0.810080	0.019822	0.585179
C58	C	0.808399	0.020318	0.413225
H59	H	0.597091	0.212725	-0.000398
H60	H	0.754844	0.008406	0.372514
H61	H	0.776087	0.204904	0.372594
F62	F	0.690963	-0.536229	-0.000419
H63	H	0.704792	-0.679578	-0.000450
H64	H	0.464982	0.210776	-0.000425
F65	F	0.639238	-0.033946	-0.000282
H66	H	0.909703	0.162511	0.624916
F67	F	0.488912	-0.036157	-0.000355
H68	H	0.153080	0.206181	-0.000540
F69	F	0.009735	0.220007	-0.000589
H70	H	0.935683	-0.710481	-0.000556
H71	H	0.941244	0.069002	0.626421
F72	F	0.044901	-0.042705	-0.000520
H73	H	0.944176	-0.134360	-0.000434
F74	F	0.695295	-0.242539	-0.000378
H75	H	0.937632	-0.578372	-0.000508
H76	H	0.183988	-0.024713	-0.000482
F77	F	0.697505	-0.092213	-0.000368
H78	H	0.712777	0.141260	0.371647
H79	H	0.712482	0.141205	0.627076
F80	F	0.865109	-0.035949	0.638302
F81	F	0.914337	0.177701	0.356572
F82	F	0.778628	0.220978	0.642057
F83	F	0.958003	-0.277706	-0.000474
H84	H	0.941243	0.068066	0.371989
F85	F	0.742205	0.000039	0.641965
H86	H	0.847728	-0.024333	0.370242
