data_functionalizedCrystal
_audit_creation_method	'MofGen! by Chris Wilmer'
_symmetry_space_group_name_H-M	'P1'
_symmetry_Int_Tables_number	1
_symmetry_cell_setting	triclinic
loop_
_symmetry_equiv_pos_as_xyz
  x,y,z
_cell_length_a	13.897449
_cell_length_b	12.645330
_cell_length_c	13.897441
_cell_angle_alpha	89.973671
_cell_angle_beta	89.981404
_cell_angle_gamma	90.018972
loop_
_atom_site_label
_atom_site_type_symbol
_atom_site_fract_x
_atom_site_fract_y
_atom_site_fract_z
Zn1	Zn	1.474682	-0.421980	-0.545403
Zn2	Zn	1.474582	-0.599272	-0.384114
Zn3	Zn	1.313377	-0.422027	-0.384122
Zn4	Zn	1.313353	-0.599205	-0.545367
O5	O	1.393999	-0.510621	-0.464751
O6	O	1.609651	-0.445506	-0.524020
O7	O	1.453166	-0.575808	-0.249133
O8	O	1.334827	-0.273673	-0.405535
O9	O	1.609577	-0.575762	-0.405521
O10	O	1.453337	-0.273639	-0.524028
O11	O	1.334730	-0.445587	-0.249139
O12	O	1.178393	-0.445522	-0.405499
O13	O	1.334785	-0.575648	-0.680353
O14	O	1.178375	-0.575694	-0.523965
O15	O	1.453313	-0.445441	-0.680380
O16	O	1.453143	-0.747610	-0.405486
O17	O	1.334689	-0.747561	-0.523957
C18	C	1.143384	-0.510607	-0.464729
C19	C	1.036171	-0.510626	-0.464743
C20	C	1.393928	-0.786051	-0.464738
C21	C	1.393987	-0.903881	-0.464764
C22	C	0.839875	-0.510630	-0.464768
C23	C	0.949108	-0.510625	-0.464751
C24	C	1.319774	-1.071458	-0.539525
C25	C	1.319395	-0.948899	-0.539284
C26	C	1.366471	-0.948478	-0.363109
C27	C	1.366018	-1.071077	-0.363563
C28	C	1.496168	-1.070967	-0.490835
C29	C	1.495542	-0.948360	-0.493058
C30	C	1.645592	-0.510636	-0.464774
C31	C	1.752806	-0.510642	-0.464784
C32	C	1.394058	-0.510532	-0.716344
C33	C	1.394083	-0.510494	-0.823558
C34	C	1.394096	-0.234116	-0.464786
C35	C	1.394137	-0.116286	-0.464801
C36	C	1.394103	-0.510464	-0.910628
C37	C	1.394130	-0.510416	-1.019861
C38	C	1.393995	-0.510633	-0.214137
C39	C	1.394157	-0.510372	-0.106924
H40	H	1.336610	-0.918742	-0.614661
N41	N	1.273881	-0.910074	-0.334947
N42	N	1.227999	-0.849872	-0.389568
H43	H	1.162605	-0.822748	-0.369684
H44	H	1.243753	-0.919666	-0.522036
H45	H	1.418916	-0.919320	-0.305912
N46	N	1.527651	-1.109668	-0.582244
N47	N	1.475264	-1.171129	-0.629315
H48	H	1.497489	-1.198465	-0.693875
N49	N	1.521566	-0.911784	-0.586911
N50	N	1.465580	-0.853173	-0.632843
H51	H	1.483955	-0.827336	-0.699129
H52	H	1.551570	-1.099955	-0.436411
N53	N	1.430983	-1.108285	-0.291310
N54	N	1.417774	-1.084136	-0.205105
H55	H	1.463643	-1.110413	-0.154069
N56	N	1.341232	-1.108338	-0.634386
N57	N	1.341522	-1.205295	-0.651856
H58	H	1.356702	-1.231337	-0.718853
H59	H	1.244605	-1.102361	-0.522497
N60	N	1.568710	-0.909905	-0.429761
N61	N	1.583722	-0.812734	-0.422886
H62	H	1.635394	-0.785576	-0.378172
N63	N	1.272451	-1.107064	-0.335888
N64	N	1.207938	-1.041635	-0.316375
H65	H	1.141853	-1.067045	-0.296829
