data_functionalizedCrystal
_audit_creation_method	'MofGen! by Chris Wilmer'
_symmetry_space_group_name_H-M	'P1'
_symmetry_Int_Tables_number	1
_symmetry_cell_setting	triclinic
loop_
_symmetry_equiv_pos_as_xyz
  x,y,z
_cell_length_a	17.000371
_cell_length_b	17.038272
_cell_length_c	10.268362
_cell_angle_alpha	89.994496
_cell_angle_beta	89.994912
_cell_angle_gamma	83.355402
loop_
_atom_site_label
_atom_site_type_symbol
_atom_site_fract_x
_atom_site_fract_y
_atom_site_fract_z
O1	O	1.058002	0.028043	-0.108306
O2	O	1.308002	0.278043	0.141694
O3	O	1.558002	0.528043	0.391694
O4	O	1.808002	0.778043	0.641694
O5	O	0.828181	0.056288	-0.108308
O6	O	1.078181	0.306288	0.141692
O7	O	1.328181	0.556288	0.391692
O8	O	1.578181	0.806288	0.641692
O9	O	0.941726	-0.071556	-0.108297
O10	O	1.191726	0.178444	0.141703
O11	O	1.441726	0.428444	0.391703
O12	O	1.691726	0.678444	0.641703
O13	O	0.944457	0.155887	-0.108317
O14	O	1.194457	0.405887	0.141683
O15	O	1.444457	0.655887	0.391683
O16	O	1.694457	0.905887	0.641683
O17	O	0.941715	-0.071560	0.108304
O18	O	1.191715	0.178440	0.358304
O19	O	1.441715	0.428440	0.608304
O20	O	1.691715	0.678440	0.858304
O21	O	0.828170	0.056284	0.108293
O22	O	1.078170	0.306284	0.358293
O23	O	1.328170	0.556284	0.608293
O24	O	1.578170	0.806284	0.858293
O25	O	1.057991	0.028039	0.108295
O26	O	1.307991	0.278039	0.358295
O27	O	1.557991	0.528039	0.608295
O28	O	1.807991	0.778039	0.858295
Cu29	Cu	0.943080	0.042161	0.128071
Cu30	Cu	1.193080	0.292161	0.378071
Cu31	Cu	1.443080	0.542161	0.628071
Cu32	Cu	1.693080	0.792161	0.878071
Cu33	Cu	0.943092	0.042166	-0.128084
Cu34	Cu	1.193092	0.292166	0.121916
Cu35	Cu	1.443092	0.542166	0.371916
Cu36	Cu	1.693092	0.792166	0.621916
O37	O	0.944446	0.155883	0.108283
O38	O	1.194446	0.405883	0.358283
O39	O	1.444446	0.655883	0.608283
O40	O	1.694446	0.905883	0.858283
C41	C	0.798625	0.057803	-0.000008
C42	C	1.048625	0.307803	0.249992
C43	C	1.298625	0.557803	0.499992
C44	C	1.548625	0.807803	0.749992
C45	C	0.710572	0.062314	-0.000008
C46	C	0.960572	0.312314	0.249992
C47	C	1.210572	0.562314	0.499992
C48	C	1.460572	0.812314	0.749992
C49	C	0.673845	-0.007108	0.000000
C50	C	0.923845	0.242892	0.250000
C51	C	1.173845	0.492892	0.500000
C52	C	1.423845	0.742892	0.750000
C53	C	0.591110	-0.002864	-0.000009
C54	C	0.841110	0.247136	0.249991
C55	C	1.091110	0.497136	0.499991
C56	C	1.341110	0.747136	0.749991
C57	C	0.545102	0.070802	-0.000018
C58	C	0.795102	0.320802	0.249982
C59	C	1.045102	0.570802	0.499982
C60	C	1.295102	0.820802	0.749982
C61	C	0.581834	0.140229	-0.000031
C62	C	0.831834	0.390229	0.249969
C63	C	1.081834	0.640229	0.499969
C64	C	1.331834	0.890229	0.749969
C65	C	0.664568	0.135985	-0.000030
C66	C	0.914568	0.385985	0.249970
C67	C	1.164568	0.635985	0.499970
C68	C	1.414568	0.885985	0.749970
C69	C	0.295066	0.087196	-0.000029
C70	C	0.545066	0.337196	0.249971
C71	C	0.795066	0.587196	0.499971
C72	C	1.045066	0.837196	0.749971
C73	C	0.212327	0.091434	-0.000025
C74	C	0.462327	0.341434	0.249975
C75	C	0.712327	0.591434	0.499975
C76	C	0.962327	0.841434	0.749975
C77	C	0.221608	-0.051659	-0.000006
C78	C	0.471608	0.198341	0.249994
C79	C	0.721608	0.448341	0.499994
C80	C	0.971608	0.698341	0.749994
C81	C	0.304344	-0.055897	0.000002
C82	C	0.554344	0.194103	0.250002
C83	C	0.804344	0.444103	0.500002
C84	C	1.054344	0.694103	0.750002
C85	C	0.341068	0.013530	-0.000017
C86	C	0.591068	0.263530	0.249983
C87	C	0.841068	0.513530	0.499983
C88	C	1.091068	0.763530	0.749983
C89	C	0.460533	0.075141	-0.000024
C90	C	0.710533	0.325141	0.249976
C91	C	0.960533	0.575141	0.499976
C92	C	1.210533	0.825141	0.749976
C93	C	0.425636	0.009190	-0.000021
C94	C	0.675636	0.259190	0.249979
C95	C	0.925636	0.509190	0.499979
C96	C	1.175636	0.759190	0.749979
C97	C	0.939235	-0.100516	0.000003
C98	C	1.189235	0.149484	0.250003
C99	C	1.439235	0.399484	0.500003
C100	C	1.689235	0.649484	0.750003
C101	C	0.931823	-0.186802	0.000003
C102	C	1.181823	0.063198	0.250003
C103	C	1.431823	0.313198	0.500003
C104	C	1.681823	0.563198	0.750003
C105	C	0.999881	-0.241577	0.000005
C106	C	1.249881	0.008423	0.250005
C107	C	1.499881	0.258423	0.500005
C108	C	1.749881	0.508423	0.750005
C109	C	0.992911	-0.322650	-0.000008
C110	C	1.242911	-0.072650	0.249992
C111	C	1.492911	0.177350	0.499992
C112	C	1.742911	0.427350	0.749992
C113	C	0.917882	-0.348946	-0.000013
C114	C	1.167882	-0.098946	0.249987
C115	C	1.417882	0.151054	0.499987
C116	C	1.667882	0.401054	0.749987
C117	C	0.849819	-0.294164	-0.000018
C118	C	1.099819	-0.044164	0.249982
C119	C	1.349819	0.205836	0.499982
C120	C	1.599819	0.455836	0.749982
C121	C	0.856789	-0.213093	-0.000015
C122	C	1.106789	0.036907	0.249985
C123	C	1.356789	0.286907	0.499985
C124	C	1.606789	0.536907	0.749985
C125	C	0.893256	-0.593018	-0.000031
C126	C	1.143256	-0.343018	0.249969
C127	C	1.393256	-0.093018	0.499969
C128	C	1.643256	0.156982	0.749969
C129	C	0.886291	-0.674096	-0.000030
C130	C	1.136291	-0.424096	0.249970
C131	C	1.386291	-0.174096	0.499970
C132	C	1.636291	0.075904	0.749970
C133	C	1.029384	-0.702577	-0.000021
C134	C	1.279384	-0.452577	0.249979
C135	C	1.529384	-0.202577	0.499979
C136	C	1.779384	0.047423	0.749979
C137	C	1.036348	-0.621502	-0.000010
C138	C	1.286348	-0.371502	0.249990
C139	C	1.536348	-0.121502	0.499990
C140	C	1.786348	0.128498	0.749990
C141	C	0.968285	-0.566727	-0.000023
C142	C	1.218285	-0.316727	0.249977
C143	C	1.468285	-0.066727	0.499977
C144	C	1.718285	0.183273	0.749977
C145	C	0.910756	-0.431816	-0.000021
C146	C	1.160756	-0.181816	0.249979
C147	C	1.410756	0.068184	0.499979
C148	C	1.660756	0.318184	0.749979
C149	C	0.975411	-0.483859	-0.000024
C150	C	1.225411	-0.233859	0.249976
C151	C	1.475411	0.016141	0.499976
C152	C	1.725411	0.266141	0.749976
C153	C	1.087547	0.026524	-0.000009
C154	C	1.337547	0.276524	0.249991
C155	C	1.587547	0.526524	0.499991
C156	C	1.837547	0.776524	0.749991
C157	C	1.175600	0.022013	-0.000017
C158	C	1.425600	0.272013	0.249983
C159	C	1.675600	0.522013	0.499983
C160	C	1.925600	0.772013	0.749983
C161	C	0.946936	0.184843	-0.000020
C162	C	1.196936	0.434843	0.249980
C163	C	1.446936	0.684843	0.499980
C164	C	1.696936	0.934843	0.749980
C165	C	0.954349	0.271129	-0.000028
C166	C	1.204349	0.521129	0.249972
C167	C	1.454349	0.771129	0.499972
C168	C	1.704349	1.021129	0.749972
N169	N	0.943076	0.042157	0.308237
N170	N	1.193076	0.292157	0.558237
N171	N	1.443076	0.542157	0.808237
N172	N	1.693076	0.792157	1.058237
N173	N	0.943102	0.042164	-0.308250
N174	N	1.193102	0.292164	-0.058250
N175	N	1.443102	0.542164	0.191750
N176	N	1.693102	0.792164	0.441750
C177	C	0.943088	0.042165	0.573907
C178	C	1.193088	0.292165	0.823907
C179	C	1.443088	0.542165	1.073907
C180	C	1.693088	0.792165	1.323907
C181	C	0.943079	0.042163	0.426069
C182	C	1.193079	0.292163	0.676069
C183	C	1.443079	0.542163	0.926069
C184	C	1.693079	0.792163	1.176069
H185	H	0.463099	-0.050788	-0.000021
H186	H	0.713099	0.199212	0.249979
H187	H	0.963099	0.449212	0.499979
H188	H	1.213099	0.699212	0.749979
H189	H	0.341798	-0.115883	0.000015
H190	H	0.591798	0.134117	0.250015
H191	H	0.841798	0.384117	0.500015
H192	H	1.091798	0.634117	0.750015
H193	H	0.849667	-0.453235	-0.000022
H194	H	1.099667	-0.203235	0.249978
H195	H	1.349667	0.046765	0.499978
H196	H	1.599667	0.296765	0.749978
Cl197	Cl	0.175435	-0.138933	0.000011
Cl198	Cl	0.425435	0.111067	0.250011
Cl199	Cl	0.675435	0.361067	0.500011
Cl200	Cl	0.925435	0.611067	0.750011
Cl201	Cl	0.710738	0.223261	-0.000047
Cl202	Cl	0.960738	0.473261	0.249953
Cl203	Cl	1.210738	0.723261	0.499953
Cl204	Cl	1.460738	0.973261	0.749953
H205	H	1.048332	-0.367246	-0.000003
H206	H	1.298332	-0.117246	0.249997
H207	H	1.548332	0.132754	0.499997
H208	H	1.798332	0.382754	0.749997
H209	H	1.036500	-0.462446	-0.000049
H210	H	1.286500	-0.212446	0.249951
H211	H	1.536500	0.037554	0.499951
H212	H	1.786500	0.287554	0.749951
Cl213	Cl	0.731676	-0.099721	0.000020
Cl214	Cl	0.981676	0.150279	0.250020
Cl215	Cl	1.231676	0.400279	0.500020
Cl216	Cl	1.481676	0.650279	0.750020
Cl217	Cl	0.544943	-0.090142	-0.000036
Cl218	Cl	0.794943	0.159858	0.249964
Cl219	Cl	1.044943	0.409858	0.499964
Cl220	Cl	1.294943	0.659858	0.749964
Cl221	Cl	1.094208	-0.208528	0.000025
Cl222	Cl	1.344208	0.041472	0.250025
Cl223	Cl	1.594208	0.291472	0.500025
Cl224	Cl	1.844208	0.541472	0.750025
H225	H	1.097445	-0.600099	-0.000006
H226	H	1.347445	-0.350099	0.249994
H227	H	1.597445	-0.100099	0.499994
H228	H	1.847445	0.149901	0.749994
Cl229	Cl	0.154489	0.184050	-0.000024
Cl230	Cl	0.404489	0.434050	0.249976
Cl231	Cl	0.654489	0.684050	0.499976
Cl232	Cl	0.904489	0.934050	0.749976
H233	H	1.084797	-0.747183	-0.000014
H234	H	1.334797	-0.497183	0.249986
H235	H	1.584797	-0.247183	0.499986
H236	H	1.834797	0.002817	0.749986
Cl237	Cl	0.791962	-0.707152	-0.000028
Cl238	Cl	1.041962	-0.457152	0.249972
Cl239	Cl	1.291962	-0.207152	0.499972
Cl240	Cl	1.541962	0.042848	0.749972
H241	H	0.423064	0.135120	-0.000030
H242	H	0.673064	0.385120	0.249970
H243	H	0.923064	0.635120	0.499970
H244	H	1.173064	0.885120	0.749970
H245	H	0.544368	0.200209	-0.000047
H246	H	0.794368	0.450209	0.249953
H247	H	1.044368	0.700209	0.499953
H248	H	1.294368	0.950209	0.749953
H249	H	0.324957	0.143728	-0.000053
H250	H	0.574957	0.393728	0.249947
H251	H	0.824957	0.643728	0.499947
H252	H	1.074957	0.893728	0.749947
H253	H	0.837834	-0.548429	-0.000040
H254	H	1.087834	-0.298429	0.249960
H255	H	1.337834	-0.048429	0.499960
H256	H	1.587834	0.201571	0.749960
Cl257	Cl	0.755496	-0.327222	-0.000041
Cl258	Cl	1.005496	-0.077222	0.249959
Cl259	Cl	1.255496	0.172778	0.499959
Cl260	Cl	1.505496	0.422778	0.749959
H261	H	0.801369	-0.168494	-0.000017
H262	H	1.051369	0.081506	0.249983
H263	H	1.301369	0.331506	0.499983
H264	H	1.551369	0.581506	0.749983
