data_functionalizedCrystal
_audit_creation_method	'MofGen! by Chris Wilmer'
_symmetry_space_group_name_H-M	'P1'
_symmetry_Int_Tables_number	1
_symmetry_cell_setting	triclinic
loop_
_symmetry_equiv_pos_as_xyz
  x,y,z
_cell_length_a	42.784839
_cell_length_b	42.784841
_cell_length_c	42.784893
_cell_angle_alpha	90.002418
_cell_angle_beta	59.997780
_cell_angle_gamma	119.999863
loop_
_atom_site_label
_atom_site_type_symbol
_atom_site_fract_x
_atom_site_fract_y
_atom_site_fract_z
O1	O	0.275695	-0.214412	-0.009300
O2	O	0.211692	-0.168961	0.009253
O3	O	0.275692	-0.168961	-0.054750
O4	O	0.211694	-0.214412	0.054702
O5	O	0.223708	-0.220945	-0.054749
O6	O	0.159708	-0.220945	0.009253
O7	O	0.223710	-0.266397	-0.009300
Zn8	Zn	0.183455	-0.251924	-0.000023
Zn9	Zn	0.251947	-0.183433	-0.000024
O10	O	0.159710	-0.266396	0.054703
C11	C	0.051021	-0.022778	0.028112
C12	C	0.013142	-0.041761	0.028375
C13	C	0.051018	-0.079378	0.028116
C14	C	0.013139	-0.098275	0.028379
C15	C	-0.005578	-0.079377	0.028112
C16	C	0.069652	-0.041762	0.028379
C17	C	0.152948	0.113708	0.017863
C18	C	0.173786	0.152360	0.014965
C19	C	0.155902	0.171750	0.013509
C20	C	0.178499	0.213661	0.010359
C21	C	0.117177	0.152485	0.014953
C22	C	0.096339	0.113835	0.017857
C23	C	0.114226	0.094447	0.019312
C24	C	-0.131813	-0.113936	0.017859
C25	C	-0.167567	-0.131750	0.014961
C26	C	-0.185502	-0.169024	0.013506
C27	C	-0.224264	-0.188340	0.010358
C28	C	-0.167685	-0.188485	0.014954
C29	C	-0.131938	-0.170675	0.017859
C30	C	-0.114002	-0.133396	0.019309
C31	C	0.152939	-0.113943	0.017877
C32	C	0.173778	-0.131757	0.014977
C33	C	0.155892	-0.169032	0.013523
C34	C	0.178486	-0.188349	0.010377
C35	C	0.117170	-0.188491	0.014967
C36	C	0.096334	-0.170675	0.017865
C37	C	0.114220	-0.133401	0.019323
C38	C	0.091629	0.052537	0.022456
C39	C	0.073617	0.019131	0.024964
C40	C	0.073613	-0.098693	0.024971
C41	C	0.091623	-0.114089	0.022466
C42	C	-0.044339	-0.098690	0.024964
C43	C	-0.075237	-0.114084	0.022456
O44	O	-0.327856	-0.266388	-0.009322
O45	O	-0.236954	-0.220935	0.009228
O46	O	-0.236950	-0.220939	-0.054773
O47	O	-0.327860	-0.266385	0.054680
O48	O	-0.236948	-0.168954	-0.054776
O49	O	-0.236952	-0.168950	0.009225
O50	O	-0.327854	-0.214403	-0.009325
Zn51	Zn	-0.282403	-0.183423	-0.000050
Zn52	Zn	-0.282405	-0.251916	-0.000046
O53	O	-0.327858	-0.214400	0.054676
C54	C	0.384390	-0.079141	-0.361606
C55	C	0.422270	-0.041526	-0.380503
C56	C	0.384390	-0.079141	-0.305008
C57	C	0.422270	-0.041526	-0.323990
C58	C	0.440988	-0.022543	-0.361606
C59	C	0.365758	-0.098038	-0.323991
C60	C	0.282465	-0.170819	-0.396168
C61	C	0.261627	-0.188759	-0.413983
C62	C	0.279513	-0.169420	-0.451257
C63	C	0.256917	-0.188867	-0.470572
C64	C	0.318239	-0.132140	-0.470717
C65	C	0.339076	-0.114205	-0.452905
C66	C	0.321187	-0.133546	-0.415628
C67	C	0.567227	0.113942	-0.453282
C68	C	0.602981	0.152594	-0.471222
C69	C	0.620916	0.171985	-0.451883
C70	C	0.659678	0.213894	-0.471328
C71	C	0.603097	0.152719	-0.414603
C72	C	0.567349	0.114068	-0.396667
C73	C	0.549414	0.094682	-0.416011
C74	C	0.282465	-0.170819	-0.168522
C75	C	0.261624	-0.188757	-0.129868
C76	C	0.279510	-0.169418	-0.110479
C77	C	0.256914	-0.188865	-0.068568
C78	C	0.318233	-0.132140	-0.129742
C79	C	0.339070	-0.114203	-0.168394
C80	C	0.321184	-0.133548	-0.187782
C81	C	0.343783	-0.114094	-0.396315
C82	C	0.361794	-0.098590	-0.380920
C83	C	0.361794	-0.098590	-0.263099
C84	C	0.343783	-0.114094	-0.229693
C85	C	0.479750	0.019366	-0.381054
C86	C	0.510649	0.052771	-0.396557
C87	C	0.440758	-0.356212	-0.028193
C88	C	0.422041	-0.393827	-0.028459
C89	C	0.384158	-0.356213	-0.028190
C90	C	0.365526	-0.393828	-0.028456
C91	C	0.384160	-0.412810	-0.028193
C92	C	0.422038	-0.337315	-0.028456
C93	C	0.567000	-0.264532	-0.017949
C94	C	0.602755	-0.246591	-0.015053
C95	C	0.620692	-0.265931	-0.013601
C96	C	0.659455	-0.246483	-0.010453
C97	C	0.602873	-0.303210	-0.015048
C98	C	0.567125	-0.321146	-0.017949
C99	C	0.549188	-0.301805	-0.019399
C100	C	0.339356	-0.549295	-0.017951
C101	C	0.318645	-0.587947	-0.015055
C102	C	0.279915	-0.607338	-0.013597
C103	C	0.257452	-0.649247	-0.010452
C104	C	0.261899	-0.588073	-0.015042
C105	C	0.282613	-0.549422	-0.017945
C106	C	0.321343	-0.530035	-0.019397
C107	C	0.339344	-0.264537	-0.017936
C108	C	0.318628	-0.246599	-0.015032
C109	C	0.279898	-0.265939	-0.013577
C110	C	0.257433	-0.246493	-0.010426
C111	C	0.261884	-0.303217	-0.015022
C112	C	0.282601	-0.321153	-0.017924
C113	C	0.321334	-0.301808	-0.019385
C114	C	0.510421	-0.321258	-0.022542
C115	C	0.479522	-0.336762	-0.025048
C116	C	0.361696	-0.336765	-0.025041
C117	C	0.343793	-0.321261	-0.022532
C118	C	0.361701	-0.454719	-0.025047
C119	C	0.343799	-0.488125	-0.022541
O120	O	0.223728	0.336934	-0.009323
O121	O	0.159726	0.227482	0.009227
O122	O	0.223729	0.291478	-0.054775
O123	O	0.159725	0.272938	0.054678
O124	O	0.275711	0.291477	-0.054771
O125	O	0.211707	0.227481	0.009230
O126	O	0.275710	0.336932	-0.009320
Zn127	Zn	0.251962	0.282206	-0.000045
Zn128	Zn	0.183474	0.282208	-0.000049
O129	O	0.211707	0.272936	0.054681
O130	O	0.763271	0.337164	-0.496871
O131	O	0.672367	0.227713	-0.451422
O132	O	0.672365	0.291711	-0.451418
O133	O	0.763273	0.273165	-0.496876
O134	O	0.672366	0.291712	-0.503402
O135	O	0.672368	0.227714	-0.503407
O136	O	0.763272	0.337165	-0.548856
Zn137	Zn	0.717820	0.282440	-0.534385
Zn138	Zn	0.717819	0.282438	-0.465893
O139	O	0.763275	0.273167	-0.548860
O140	O	0.211690	-0.214417	-0.548617
O141	O	0.275691	-0.168962	-0.503167
O142	O	0.211689	-0.168964	-0.503163
O143	O	0.275692	-0.214415	-0.548621
O144	O	0.159706	-0.220947	-0.451179
O145	O	0.223708	-0.220945	-0.451183
O146	O	0.159707	-0.266400	-0.496633
Zn147	Zn	0.183454	-0.251926	-0.465654
Zn148	Zn	0.251944	-0.183436	-0.534146
O149	O	0.223709	-0.266398	-0.496637
C150	C	-0.005343	-0.412572	0.361558
C151	C	0.013375	-0.393590	0.380456
C152	C	0.051255	-0.355974	0.304961
C153	C	0.069887	-0.337077	0.323944
C154	C	0.051254	-0.355974	0.361560
C155	C	0.013375	-0.393589	0.323943
C156	C	-0.131582	-0.549057	0.396116
C157	C	-0.167336	-0.587709	0.413930
C158	C	-0.185271	-0.607098	0.451205
C159	C	-0.224034	-0.649009	0.470519
C160	C	-0.167452	-0.587833	0.470666
C161	C	-0.131705	-0.549184	0.452854
C162	C	-0.113770	-0.529796	0.415578
C163	C	0.096061	-0.321414	0.453239
C164	C	0.116773	-0.303600	0.471179
C165	C	0.155502	-0.266327	0.451842
C166	C	0.177965	-0.247011	0.471288
C167	C	0.173517	-0.246866	0.414562
C168	C	0.152802	-0.264677	0.396625
C169	C	0.114073	-0.301955	0.415968
C170	C	0.096064	-0.321412	0.168474
C171	C	0.116779	-0.303599	0.129820
C172	C	0.155508	-0.266324	0.110432
C173	C	0.177972	-0.247009	0.068521
C174	C	0.173522	-0.246865	0.129696
C175	C	0.152807	-0.264680	0.168348
C176	C	0.114075	-0.301953	0.187735
C177	C	-0.075004	-0.487887	0.396265
C178	C	-0.044106	-0.454481	0.380871
C179	C	0.073715	-0.336660	0.263052
C180	C	0.091618	-0.321265	0.229646
C181	C	0.073714	-0.336661	0.381009
C182	C	0.091616	-0.321267	0.396513
C183	C	0.051046	-0.022794	-0.361634
C184	C	0.069679	-0.041778	-0.380530
C185	C	-0.005555	-0.079390	-0.305034
C186	C	0.013163	-0.098288	-0.324016
C187	C	0.051045	-0.079393	-0.361631
C188	C	0.013164	-0.041775	-0.324018
C189	C	0.095858	0.113693	-0.396200
C190	C	0.116571	0.152344	-0.414015
C191	C	0.155302	0.171732	-0.451290
C192	C	0.177767	0.213642	-0.470607
C193	C	0.173317	0.152465	-0.470750
C194	C	0.152600	0.113815	-0.452936
C195	C	0.113869	0.094429	-0.415659
C196	C	0.152973	-0.113959	-0.453306
C197	C	0.173810	-0.131775	-0.471245
C198	C	0.155926	-0.169048	-0.451906
C199	C	0.178519	-0.188366	-0.471350
C200	C	0.117198	-0.188507	-0.414626
C201	C	0.096358	-0.170694	-0.396690
C202	C	0.114251	-0.133416	-0.416035
C203	C	-0.131801	-0.113944	-0.168548
C204	C	-0.167554	-0.131755	-0.129895
C205	C	-0.185491	-0.169029	-0.110504
C206	C	-0.224255	-0.188343	-0.068593
C207	C	-0.167671	-0.188490	-0.129767
C208	C	-0.131918	-0.170677	-0.168418
C209	C	-0.113988	-0.133404	-0.187808
C210	C	0.091411	0.052521	-0.396344
C211	C	0.073508	0.019115	-0.380949
C212	C	-0.044320	-0.098701	-0.263125
C213	C	-0.075220	-0.114094	-0.229719
C214	C	0.073641	-0.098707	-0.381079
C215	C	0.091652	-0.114103	-0.396582
C216	C	-0.615853	-0.356193	0.361535
C217	C	-0.634487	-0.393808	0.380433
C218	C	-0.559253	-0.356195	0.304938
C219	C	-0.577972	-0.393810	0.323921
C220	C	-0.615854	-0.412792	0.361537
C221	C	-0.577972	-0.337297	0.323920
C222	C	-0.660661	-0.264512	0.396093
C223	C	-0.681373	-0.246571	0.413906
C224	C	-0.720104	-0.265909	0.451181
C225	C	-0.742568	-0.246461	0.470495
C226	C	-0.738120	-0.303189	0.470643
C227	C	-0.717405	-0.321125	0.452831
C228	C	-0.678674	-0.301785	0.415554
C229	C	-0.717784	-0.549275	0.453218
C230	C	-0.738622	-0.587926	0.471159
C231	C	-0.720740	-0.607319	0.451822
C232	C	-0.743333	-0.649227	0.471268
C233	C	-0.682012	-0.588055	0.414542
C234	C	-0.661170	-0.549403	0.396604
C235	C	-0.679063	-0.530016	0.415946
C236	C	-0.433006	-0.264522	0.168449
C237	C	-0.397253	-0.246585	0.129796
C238	C	-0.379317	-0.265926	0.110407
C239	C	-0.340553	-0.246480	0.068496
C240	C	-0.397138	-0.303204	0.129672
C241	C	-0.432891	-0.321139	0.168324
C242	C	-0.450820	-0.301793	0.187711
C243	C	-0.656216	-0.321238	0.396242
C244	C	-0.638314	-0.336743	0.380848
C245	C	-0.520488	-0.336748	0.263028
C246	C	-0.489588	-0.321245	0.229622
C247	C	-0.638451	-0.454700	0.380987
C248	C	-0.656463	-0.488106	0.396492
C249	C	0.440756	0.310302	-0.361620
C250	C	0.422038	0.310564	-0.380518
C251	C	0.384160	0.310312	-0.305026
C252	C	0.365528	0.310574	-0.324010
C253	C	0.384159	0.310303	-0.361624
C254	C	0.422038	0.310573	-0.324006
C255	C	0.566989	0.300046	-0.396172
C256	C	0.602741	0.297145	-0.413984
C257	C	0.620675	0.295684	-0.451257
C258	C	0.659436	0.292531	-0.470569
C259	C	0.602857	0.297127	-0.470719
C260	C	0.567111	0.300033	-0.452909
C261	C	0.549177	0.301493	-0.415634
C262	C	0.339351	0.300042	-0.453303
C263	C	0.318640	0.297142	-0.471244
C264	C	0.279912	0.295690	-0.451908
C265	C	0.257449	0.292541	-0.471354
C266	C	0.261899	0.297143	-0.414629
C267	C	0.282613	0.300049	-0.396692
C268	C	0.321341	0.301496	-0.416033
C269	C	0.339354	0.300088	-0.168540
C270	C	0.318640	0.297192	-0.129888
C271	C	0.279912	0.295742	-0.110501
C272	C	0.257450	0.292601	-0.068591
C273	C	0.261898	0.297184	-0.129766
C274	C	0.282612	0.300078	-0.168417
C275	C	0.321344	0.301533	-0.187802
C276	C	0.510413	0.304640	-0.396323
C277	C	0.479516	0.307151	-0.380931
C278	C	0.361701	0.307173	-0.263117
C279	C	0.343799	0.304671	-0.229712
C280	C	0.361700	0.307154	-0.381073
C281	C	0.343798	0.304644	-0.396578
O282	O	0.275503	0.336913	-0.548651
O283	O	0.211494	0.227461	-0.503201
O284	O	0.275490	0.291455	-0.503192
O285	O	0.211507	0.272919	-0.548659
O286	O	0.223502	0.291457	-0.451211
O287	O	0.159506	0.227463	-0.451219
O288	O	0.223515	0.336915	-0.496669
Zn289	Zn	0.183256	0.282189	-0.465691
Zn290	Zn	0.251753	0.282187	-0.534179
O291	O	0.159519	0.272921	-0.496677
C292	C	0.051032	0.254111	0.361530
C293	C	0.013154	0.253851	0.380425
C294	C	0.051031	0.254102	0.304932
C295	C	0.013153	0.253842	0.323913
C296	C	-0.005564	0.254113	0.361527
C297	C	0.069663	0.253840	0.323916
C298	C	0.152954	0.264360	0.396096
C299	C	0.173791	0.267260	0.413911
C300	C	0.155906	0.268721	0.451185
C301	C	0.178502	0.271871	0.470501
C302	C	0.117182	0.267279	0.470643
C303	C	0.096345	0.264374	0.452830
C304	C	0.114233	0.262915	0.415555
C305	C	-0.131796	0.264379	0.453195
C306	C	-0.167548	0.267281	0.471133
C307	C	-0.185483	0.268734	0.451793
C308	C	-0.224243	0.271886	0.471236
C309	C	-0.167664	0.267282	0.414515
C310	C	-0.131919	0.264374	0.396581
C311	C	-0.113984	0.262925	0.415925
C312	C	0.152952	0.264325	0.168451
C313	C	0.173792	0.267221	0.129798
C314	C	0.155907	0.268673	0.110407
C315	C	0.178502	0.271814	0.068498
C316	C	0.117186	0.267232	0.129669
C317	C	0.096350	0.264339	0.168320
C318	C	0.114234	0.262881	0.187709
C319	C	0.091638	0.259769	0.396240
C320	C	0.073627	0.257260	0.380845
C321	C	0.073626	0.257242	0.263024
C322	C	0.091636	0.259743	0.229619
C323	C	-0.044324	0.257264	0.380973
C324	C	-0.075221	0.259775	0.396474
H325	H	0.167516	0.097925	0.019049
H326	H	-0.002298	-0.408829	0.411365
C327	C	0.224411	-0.228585	-0.164762
C328	C	0.262802	-0.192080	-0.189832
H329	H	0.212272	-0.241707	-0.177919
H330	H	0.231464	-0.242543	-0.155551
H331	H	0.203458	-0.226260	-0.143815
H332	H	0.283757	-0.194404	-0.210777
H333	H	0.255750	-0.178118	-0.199048
H334	H	0.617485	0.168277	-0.501573
C335	C	0.261268	-0.362932	-0.051460
C336	C	0.262805	-0.362127	-0.019519
H337	H	0.249050	-0.388227	-0.052446
H338	H	0.243388	-0.355021	-0.049520
H339	H	0.290329	-0.346097	-0.074078
H340	H	0.233743	-0.378959	0.003099
H341	H	0.280686	-0.370042	-0.021456
H342	H	0.167470	-0.248829	0.366274
H343	H	0.335043	-0.409068	-0.028878
H344	H	0.205343	-0.115928	-0.501596
C345	C	0.571051	0.118073	-0.342502
C346	C	0.547763	0.092894	-0.355692
H347	H	0.558956	0.105000	-0.317204
H348	H	0.601269	0.127277	-0.358813
H349	H	0.568716	0.139014	-0.342539
H350	H	0.550101	0.071954	-0.355658
H351	H	0.517538	0.083683	-0.339377
C352	C	0.512137	0.304504	-0.343676
C353	C	0.547280	0.301653	-0.355201
H354	H	0.499968	0.305494	-0.318382
H355	H	0.522582	0.327118	-0.360552
H356	H	0.490026	0.282830	-0.344272
H357	H	0.569393	0.323329	-0.354608
H358	H	0.536836	0.279037	-0.338321
C359	C	0.186492	-0.357950	0.018521
C360	C	0.219312	-0.324477	-0.013424
H361	H	0.160210	-0.371072	0.019508
H362	H	0.196251	-0.373965	0.016584
H363	H	0.180752	-0.351513	0.041137
H364	H	0.225054	-0.330914	-0.036040
H365	H	0.209551	-0.308459	-0.011489
H366	H	0.167518	0.263140	0.184235
H367	H	-0.182070	-0.115902	0.013781
C368	C	0.393371	-0.553052	-0.017679
C369	C	0.381930	-0.527984	-0.019555
H370	H	0.419656	-0.539893	-0.018671
H371	H	0.370110	-0.573995	0.005595
H372	H	0.398114	-0.562264	-0.038694
H373	H	0.377184	-0.518774	0.001462
H374	H	0.405197	-0.507034	-0.042831
C375	C	0.230854	-0.133876	0.010536
C376	C	0.216341	-0.110368	0.013390
H377	H	0.257131	-0.120670	0.009555
H378	H	0.208634	-0.156585	0.032201
H379	H	0.236646	-0.140309	-0.012087
H380	H	0.210546	-0.103937	0.036015
H381	H	0.238566	-0.087652	-0.008278
H382	H	0.205322	0.268398	0.114116
H383	H	0.437709	-0.409066	-0.028885
C384	C	-0.067804	-0.171555	-0.011528
C385	C	-0.112352	-0.192064	0.019449
H386	H	-0.055711	-0.184759	-0.010546
H387	H	-0.065475	-0.169191	-0.034798
H388	H	-0.052011	-0.146808	-0.010242
H389	H	-0.128145	-0.216810	0.018162
H390	H	-0.114684	-0.194432	0.042725
C391	C	0.021046	-0.225565	-0.354910
C392	C	0.053791	-0.192085	-0.355715
H393	H	-0.005231	-0.238772	-0.329613
H394	H	0.015258	-0.219126	-0.371738
H395	H	0.030904	-0.241504	-0.362827
H396	H	0.043935	-0.176145	-0.347801
H397	H	0.059579	-0.198523	-0.338881
C398	C	0.207896	-0.584312	-0.015332
C399	C	0.219332	-0.609383	-0.013448
H400	H	0.181618	-0.597468	-0.014350
H401	H	0.203147	-0.575102	0.005681
H402	H	0.231167	-0.563366	-0.038608
H403	H	0.196062	-0.630328	0.009830
H404	H	0.224078	-0.618598	-0.034463
C405	C	0.455788	-0.272437	-0.061930
C406	C	0.443185	-0.295594	-0.029029
H407	H	0.468840	-0.246682	-0.062281
H408	H	0.476567	-0.273897	-0.084007
H409	H	0.430502	-0.281026	-0.061810
H410	H	0.468472	-0.287007	-0.029150
H411	H	0.422405	-0.294133	-0.006945
C412	C	-0.222537	-0.240984	0.010502
C413	C	-0.187398	-0.229458	0.013357
H414	H	-0.234704	-0.266277	0.009512
H415	H	-0.244648	-0.240386	0.032170
H416	H	-0.212087	-0.224107	-0.012118
H417	H	-0.197849	-0.246333	0.035979
H418	H	-0.165283	-0.230058	-0.008313
H419	H	0.370607	-0.083853	-0.468752
H420	H	0.167522	0.263171	0.365746
H421	H	0.333308	0.295959	-0.501595
C422	C	0.225987	-0.253776	-0.413096
C423	C	0.219058	-0.229731	-0.392591
H424	H	0.199705	-0.279070	-0.399887
H425	H	0.233657	-0.244825	-0.437841
H426	H	0.249293	-0.253745	-0.415459
H427	H	0.195754	-0.229760	-0.390230
H428	H	0.211382	-0.238685	-0.367839
H429	H	-0.629638	-0.533721	0.366252
H430	H	0.552629	0.098160	-0.469035
H431	H	0.102103	-0.319447	0.501532
H432	H	0.102110	-0.319446	0.114137
H433	H	0.617241	0.295963	-0.398133
H434	H	-0.117214	-0.083584	0.019042
H435	H	0.064523	-0.351759	0.184259
H436	H	0.167269	0.098131	-0.468782
H437	H	0.617704	0.168507	-0.398859
C438	C	-0.429531	-0.206755	0.164688
C439	C	-0.452717	-0.243259	0.189759
H440	H	-0.441703	-0.193631	0.177845
H441	H	-0.399308	-0.192797	0.155476
H442	H	-0.431862	-0.209079	0.143743
H443	H	-0.450383	-0.240934	0.210703
H444	H	-0.482948	-0.257220	0.198977
H445	H	-0.182060	-0.603623	0.501016
H446	H	0.102624	0.268416	0.113879
H447	H	-0.117197	0.263199	0.468949
C448	C	0.376799	-0.192434	-0.015337
C449	C	0.338428	-0.205624	-0.013443
H450	H	0.389025	-0.167137	-0.014359
H451	H	0.369696	-0.208744	0.005674
H452	H	0.397702	-0.192472	-0.038615
H453	H	0.317524	-0.205589	0.009837
H454	H	0.345530	-0.189310	-0.034455
C455	C	0.334134	0.344053	-0.323750
C456	C	0.324382	0.311153	-0.303443
H457	H	0.308732	0.344409	-0.311055
H458	H	0.357669	0.366130	-0.325048
H459	H	0.342607	0.343930	-0.348917
H460	H	0.315912	0.311277	-0.278277
H461	H	0.300839	0.289070	-0.302140
H462	H	-0.002293	-0.408830	0.308704
C463	C	0.020675	-0.363246	0.507980
C464	C	0.053485	-0.362384	0.474508
H465	H	-0.005610	-0.388538	0.521110
H466	H	0.030440	-0.355418	0.523990
H467	H	0.014938	-0.346370	0.501540
H468	H	0.059225	-0.379258	0.480948
H469	H	0.043718	-0.370217	0.458496
C470	C	0.480451	0.311302	-0.434889
C471	C	0.443185	0.311134	-0.422240
H472	H	0.493503	0.311653	-0.460645
H473	H	0.501226	0.333381	-0.433431
H474	H	0.471892	0.288981	-0.419173
H475	H	0.451744	0.333456	-0.437955
H476	H	0.422405	0.289052	-0.423701
H477	H	-0.182059	-0.115906	-0.114213
C478	C	0.261279	-0.225553	-0.354326
C479	C	0.262803	-0.192082	-0.355196
H480	H	0.249144	-0.238676	-0.329033
H481	H	0.243328	-0.241568	-0.362150
H482	H	0.290332	-0.219115	-0.371203
H483	H	0.233749	-0.198520	-0.338321
H484	H	0.280754	-0.176064	-0.347368
C485	C	0.418955	-0.045556	-0.266312
C486	C	0.443407	-0.020944	-0.303411
H487	H	0.432003	-0.032847	-0.253608
H488	H	0.389476	-0.052723	-0.252555
H489	H	0.418812	-0.067788	-0.267613
H490	H	0.443547	0.001287	-0.302110
H491	H	0.472894	-0.013772	-0.317171
C492	C	0.418973	-0.045565	-0.434875
C493	C	0.443419	-0.020950	-0.422224
H494	H	0.432029	-0.032861	-0.460631
H495	H	0.418820	-0.067799	-0.433420
H496	H	0.389492	-0.052725	-0.419158
H497	H	0.472899	-0.013793	-0.437940
H498	H	0.443577	0.001290	-0.423683
H499	H	0.370881	-0.248784	-0.019122
C500	C	-0.135630	-0.228548	-0.164413
C501	C	-0.112335	-0.192070	-0.189593
H502	H	-0.123541	-0.241755	-0.177486
H503	H	-0.133294	-0.226178	-0.143474
H504	H	-0.165851	-0.242452	-0.155206
H505	H	-0.082115	-0.178165	-0.198797
H506	H	-0.114666	-0.194438	-0.210538
H507	H	0.370598	-0.083850	-0.184076
C508	C	0.311406	-0.134477	-0.070427
C509	C	0.337878	-0.110868	-0.108423
H510	H	0.323531	-0.121342	-0.057266
H511	H	0.282356	-0.140920	-0.058265
H512	H	0.310386	-0.157179	-0.069982
H513	H	0.338896	-0.088168	-0.108869
H514	H	0.366936	-0.104420	-0.120588
C515	C	-0.333115	-0.181575	0.095047
C516	C	-0.377663	-0.205610	0.108619
H517	H	-0.321021	-0.156279	0.081972
H518	H	-0.330787	-0.181611	0.115989
H519	H	-0.317325	-0.190533	0.077970
H520	H	-0.393455	-0.196654	0.125699
H521	H	-0.379995	-0.205573	0.087675
H522	H	0.064816	0.263199	0.468675
H523	H	0.333315	-0.603629	-0.013877
C524	C	0.204951	0.292692	-0.416987
C525	C	0.219331	0.295550	-0.393373
H526	H	0.178669	0.291705	-0.403862
H527	H	0.227218	0.314359	-0.439695
H528	H	0.199207	0.270071	-0.423413
H529	H	0.225078	0.318172	-0.386949
H530	H	0.197059	0.273881	-0.370657
H531	H	-0.562326	-0.306401	0.308670
H532	H	-0.117201	-0.533500	0.468702
C533	C	-0.795704	-0.647120	0.523793
C534	C	-0.781191	-0.609101	0.512133
H535	H	-0.821983	-0.660191	0.549089
H536	H	-0.801490	-0.659343	0.506961
H537	H	-0.773483	-0.647610	0.523242
H538	H	-0.803411	-0.608611	0.512680
H539	H	-0.775408	-0.596875	0.528969
C540	C	-0.519543	-0.389766	0.266261
C541	C	-0.556815	-0.414382	0.303355
H542	H	-0.506479	-0.402464	0.253568
H543	H	-0.528093	-0.382615	0.252489
H544	H	-0.498774	-0.367525	0.267570
H545	H	-0.577585	-0.436621	0.302046
H546	H	-0.548265	-0.421538	0.317131
H547	H	0.617258	-0.216240	-0.013873
C548	C	-0.688819	-0.647360	0.416898
C549	C	-0.662350	-0.609366	0.393284
H550	H	-0.676682	-0.660517	0.403772
H551	H	-0.689857	-0.647800	0.439605
H552	H	-0.717867	-0.659530	0.423327
H553	H	-0.633302	-0.597195	0.386857
H554	H	-0.661306	-0.608924	0.370570
H555	H	0.335269	-0.128941	-0.308748
C556	C	-0.045266	0.253091	0.327961
C557	C	-0.007997	0.253264	0.303340
H558	H	-0.058322	0.252736	0.315260
H559	H	-0.066039	0.231011	0.350194
H560	H	-0.036712	0.275412	0.335121
H561	H	-0.016552	0.230942	0.296182
H562	H	0.012779	0.275346	0.281100
C563	C	0.486640	0.344045	-0.323727
C564	C	0.443180	0.311150	-0.303426
H565	H	0.499688	0.344402	-0.311018
H566	H	0.503217	0.343917	-0.348886
H567	H	0.486486	0.366128	-0.325038
H568	H	0.443334	0.289067	-0.302117
H569	H	0.426599	0.311275	-0.278260
H570	H	0.204850	0.168253	-0.501099
H571	H	0.617482	-0.318952	-0.013867
C572	C	0.227657	0.266960	0.356043
C573	C	0.216357	0.268851	0.392522
H574	H	0.253939	0.267945	0.342837
H575	H	0.204351	0.243685	0.358414
H576	H	0.232354	0.287972	0.342137
H577	H	0.211657	0.247837	0.406429
H578	H	0.239669	0.292129	0.390152
H579	H	-0.002512	0.253428	0.411332
C580	C	-0.606646	-0.206743	0.341803
C581	C	-0.618086	-0.243251	0.355121
H582	H	-0.580362	-0.193619	0.316509
H583	H	-0.629908	-0.209062	0.341790
H584	H	-0.601904	-0.192788	0.358074
H585	H	-0.622832	-0.257208	0.338851
H586	H	-0.594819	-0.240934	0.355130
C587	C	-0.795075	-0.300831	0.523137
C588	C	-0.780694	-0.324446	0.511612
H589	H	-0.821361	-0.313958	0.548429
H590	H	-0.772812	-0.278126	0.522543
H591	H	-0.800812	-0.294401	0.506256
H592	H	-0.774954	-0.330874	0.528491
H593	H	-0.802962	-0.347158	0.512208
H594	H	0.100165	-0.026535	-0.411435
C595	C	0.570497	-0.206754	-0.017693
C596	C	0.547301	-0.243264	-0.019564
H597	H	0.558339	-0.193623	-0.018697
H598	H	0.568158	-0.209068	0.005585
H599	H	0.600725	-0.192806	-0.038703
H600	H	0.517074	-0.257213	0.001447
H601	H	0.549636	-0.240951	-0.042845
C602	C	-0.045283	-0.152645	0.029133
C603	C	-0.008013	-0.139997	0.028956
H604	H	-0.058340	-0.178401	0.029487
H605	H	-0.066054	-0.151183	0.051214
H606	H	-0.036729	-0.136930	0.006813
H607	H	-0.016568	-0.155710	0.051277
H608	H	0.012762	-0.141462	0.006872
C609	C	0.657707	0.292665	-0.523212
C610	C	0.622568	0.295521	-0.511688
H611	H	0.669873	0.291671	-0.548504
H612	H	0.679819	0.314335	-0.522618
H613	H	0.647257	0.270048	-0.506331
H614	H	0.633019	0.318140	-0.528567
H615	H	0.600453	0.273849	-0.512285
H616	H	0.552621	-0.351498	-0.019128
H617	H	0.064821	0.263164	0.184001
C618	C	-0.429188	-0.375304	0.164320
C619	C	-0.452479	-0.362115	0.189499
H620	H	-0.441282	-0.400600	0.177393
H621	H	-0.431520	-0.375267	0.143380
H622	H	-0.398968	-0.358991	0.155116
H623	H	-0.482700	-0.378426	0.198700
H624	H	-0.450152	-0.362154	0.210446
C625	C	0.224452	0.299788	-0.164417
C626	C	0.262815	0.301669	-0.189594
H627	H	0.212232	0.300773	-0.177492
H628	H	0.203545	0.276516	-0.143477
H629	H	0.231564	0.320804	-0.155212
H630	H	0.255703	0.280651	-0.198796
H631	H	0.283727	0.324943	-0.210540
H632	H	-0.116983	-0.533275	0.365765
C633	C	0.376811	0.297498	-0.133892
C634	C	0.338442	0.295609	-0.108713
H635	H	0.389038	0.296525	-0.120820
H636	H	0.369705	0.276484	-0.143094
H637	H	0.397714	0.320772	-0.154835
H638	H	0.317538	0.272334	-0.087771
H639	H	0.345546	0.316625	-0.099505
H640	H	0.167477	-0.248833	0.184031
H641	H	0.267945	0.301232	-0.366341
C642	C	-0.775577	-0.375288	0.510698
C643	C	-0.737207	-0.362100	0.474221
H644	H	-0.787804	-0.400585	0.523902
H645	H	-0.768473	-0.358978	0.524606
H646	H	-0.796480	-0.375249	0.508325
H647	H	-0.716303	-0.362135	0.476594
H648	H	-0.744310	-0.378414	0.460310
H649	H	0.267943	-0.533739	-0.019121
C650	C	0.101046	-0.041495	0.061859
C651	C	0.110798	-0.021194	0.028955
H652	H	0.126448	-0.028800	0.062213
H653	H	0.077511	-0.042790	0.083935
H654	H	0.092571	-0.066663	0.061741
H655	H	0.119270	0.003973	0.029075
H656	H	0.134340	-0.019895	0.006874
C657	C	-0.231674	0.237913	0.536153
C658	C	-0.187125	0.268883	0.512104
H659	H	-0.243756	0.238902	0.561447
H660	H	-0.247470	0.239194	0.527205
H661	H	-0.234007	0.214637	0.536122
H662	H	-0.184792	0.292159	0.512133
H663	H	-0.171324	0.267605	0.521055
H664	H	-0.117415	0.263190	0.366230
C665	C	0.123514	-0.282703	0.266277
C666	C	0.111033	-0.295355	0.303374
H667	H	0.148913	-0.256946	0.253581
H668	H	0.130124	-0.298414	0.252511
H669	H	0.099971	-0.284165	0.267584
H670	H	0.134576	-0.293896	0.302067
H671	H	0.104426	-0.279640	0.317143
C672	C	0.570812	0.299722	-0.510775
C673	C	0.547525	0.301619	-0.474299
H674	H	0.558717	0.300697	-0.523979
H675	H	0.601030	0.320733	-0.524684
H676	H	0.568475	0.276445	-0.508399
H677	H	0.549865	0.324897	-0.476675
H678	H	0.517299	0.280606	-0.460387
H679	H	0.230362	0.296001	-0.113978
H680	H	-0.181841	-0.603391	0.398082
C681	C	0.230464	-0.194368	0.416919
C682	C	0.216085	-0.205894	0.393304
H683	H	0.256746	-0.169074	0.403793
H684	H	0.208197	-0.194965	0.439627
H685	H	0.236208	-0.211244	0.423347
H686	H	0.210339	-0.189019	0.386879
H687	H	0.238357	-0.205293	0.370590
H688	H	0.064321	0.097912	-0.365848
H689	H	0.370885	0.301223	-0.469054
C690	C	0.123292	0.253099	0.327958
C691	C	0.110811	0.253264	0.303342
H692	H	0.148694	0.252743	0.315256
H693	H	0.129899	0.275419	0.335114
H694	H	0.099751	0.231019	0.350197
H695	H	0.134352	0.275346	0.281105
H696	H	0.104206	0.230942	0.296182
H697	H	0.205059	-0.216514	0.113907
C698	C	-0.183933	0.303191	0.389833
C699	C	-0.187376	0.268877	0.393254
H700	H	-0.196099	0.304177	0.376704
H701	H	-0.199660	0.304469	0.414597
H702	H	-0.153703	0.324198	0.375871
H703	H	-0.217606	0.247870	0.407218
H704	H	-0.171649	0.267596	0.368485
C705	C	0.311429	-0.134497	-0.523214
C706	C	0.337896	-0.110883	-0.511687
H707	H	0.323565	-0.121370	-0.548507
H708	H	0.310393	-0.157202	-0.522619
H709	H	0.282380	-0.140926	-0.506335
H710	H	0.366945	-0.104455	-0.528565
H711	H	0.338938	-0.088170	-0.512285
H712	H	-0.002509	-0.129196	-0.308775
H713	H	-0.002500	-0.026531	-0.308780
H714	H	-0.002524	-0.026519	0.028802
H715	H	0.102633	-0.218858	-0.398880
C716	C	0.210990	-0.059651	0.017594
C717	C	0.172601	-0.072971	0.019477
H718	H	0.223127	-0.034356	0.018579
H719	H	0.203935	-0.075916	0.038605
H720	H	0.231945	-0.059643	-0.005684
H721	H	0.151644	-0.072982	0.042756
H722	H	0.179654	-0.056701	-0.001536
H723	H	-0.117212	-0.083598	-0.184336
H724	H	0.102623	0.268466	0.500992
H725	H	0.101900	0.168027	-0.398169
C726	C	-0.710341	-0.416327	0.424270
C727	C	-0.675653	-0.414402	0.422148
H728	H	-0.735759	-0.429049	0.450020
H729	H	-0.701882	-0.391164	0.415701
H730	H	-0.716913	-0.430081	0.408534
H731	H	-0.669080	-0.400646	0.437881
H732	H	-0.684113	-0.439569	0.430722
C733	C	0.211022	-0.059674	-0.511079
C734	C	0.172635	-0.072988	-0.474571
H735	H	0.223157	-0.034381	-0.524205
H736	H	0.231977	-0.059662	-0.508759
H737	H	0.203964	-0.075946	-0.525033
H738	H	0.179694	-0.056718	-0.460615
H739	H	0.151676	-0.072998	-0.476889
H740	H	-0.666703	-0.216219	0.398058
C741	C	0.227653	0.148356	0.015259
C742	C	0.216353	0.173535	0.013372
H743	H	0.253934	0.161430	0.014272
H744	H	0.204346	0.127420	0.038534
H745	H	0.232349	0.139146	-0.005754
H746	H	0.211654	0.182743	0.034386
H747	H	0.239665	0.194478	-0.009906
C748	C	-0.222533	-0.240992	-0.070462
C749	C	-0.187387	-0.229464	-0.108455
H750	H	-0.234705	-0.266288	-0.057307
H751	H	-0.212091	-0.224121	-0.058288
H752	H	-0.244642	-0.240392	-0.070025
H753	H	-0.165277	-0.230061	-0.108892
H754	H	-0.197828	-0.246340	-0.120632
C755	C	0.039260	-0.168556	0.022303
C756	C	0.053770	-0.192064	0.019454
H757	H	0.012984	-0.181760	0.023281
H758	H	0.033469	-0.162120	0.044922
H759	H	0.061485	-0.145845	0.000633
H760	H	0.031546	-0.214774	0.041125
H761	H	0.059558	-0.198505	-0.003168
C762	C	-0.775833	-0.553031	0.510988
C763	C	-0.737446	-0.527964	0.474480
H764	H	-0.787968	-0.539872	0.524113
H765	H	-0.796788	-0.573975	0.508669
H766	H	-0.768775	-0.562242	0.524944
H767	H	-0.744505	-0.518754	0.460523
H768	H	-0.716487	-0.507013	0.476798
C769	C	-0.342269	-0.300849	0.070372
C770	C	-0.377418	-0.324463	0.108365
H771	H	-0.330093	-0.313972	0.057221
H772	H	-0.352710	-0.294424	0.058194
H773	H	-0.320164	-0.278138	0.069937
H774	H	-0.399525	-0.347173	0.108800
H775	H	-0.366978	-0.330893	0.120546
H776	H	0.102618	0.168275	0.013770
H777	H	0.064808	0.098152	0.019035
C778	C	0.396303	0.304531	-0.227843
C779	C	0.381924	0.301683	-0.189849
H780	H	0.422585	0.305518	-0.240998
H781	H	0.374036	0.282862	-0.228281
H782	H	0.402048	0.327150	-0.240016
H783	H	0.376177	0.279063	-0.177674
H784	H	0.404197	0.323354	-0.189408
C785	C	0.123968	-0.240996	0.010523
C786	C	0.097506	-0.229465	0.013370
H787	H	0.111826	-0.266292	0.009539
H788	H	0.153014	-0.224125	-0.012093
H789	H	0.125003	-0.240397	0.032196
H790	H	0.096473	-0.230062	-0.008305
H791	H	0.068452	-0.246341	0.035988
H792	H	0.230091	-0.219108	-0.114185
