data_functionalizedCrystal
_audit_creation_method	'MofGen! by Chris Wilmer'
_symmetry_space_group_name_H-M	'P1'
_symmetry_Int_Tables_number	1
_symmetry_cell_setting	triclinic
loop_
_symmetry_equiv_pos_as_xyz
  x,y,z
_cell_length_a	17.038272
_cell_length_b	14.519709
_cell_length_c	13.596369
_cell_angle_alpha	90.000208
_cell_angle_beta	89.999553
_cell_angle_gamma	92.604150
loop_
_atom_site_label
_atom_site_type_symbol
_atom_site_fract_x
_atom_site_fract_y
_atom_site_fract_z
O1	O	-1.037692	0.200289	-0.081646
O2	O	-0.810056	0.197108	-0.081675
O3	O	-0.929910	0.064922	-0.081668
O4	O	-0.917839	0.332475	-0.081652
O5	O	-0.929898	0.064913	0.081915
O6	O	-0.810044	0.197100	0.081908
O7	O	-1.037680	0.200280	0.081937
Zn8	Zn	-0.923860	0.198689	0.107895
Zn9	Zn	-0.923876	0.198700	-0.107633
O10	O	-0.917827	0.332467	0.081931
C11	C	-0.780917	0.194212	0.000113
C12	C	-0.694110	0.185582	0.000101
C13	C	-0.929341	0.030515	0.000119
C14	C	-0.927655	-0.071996	0.000105
C15	C	-1.066819	0.203177	0.000148
C16	C	-1.153626	0.211807	0.000153
C17	C	-0.644125	0.264814	0.000106
C18	C	-0.562561	0.256700	0.000119
C19	C	-0.530985	0.169352	0.000120
C20	C	-0.580977	0.090114	0.000117
C21	C	-0.662539	0.098229	0.000111
C22	C	-0.285180	0.140683	0.000144
C23	C	-0.203612	0.132574	0.000148
C24	C	-0.185201	0.299161	0.000152
C25	C	-0.266766	0.307269	0.000140
C26	C	-0.316751	0.228030	0.000142
C27	C	-0.447614	0.161056	0.000130
C28	C	-0.400120	0.236327	0.000139
C29	C	-0.918395	0.366874	0.000142
C30	C	-0.920081	0.469384	0.000149
C31	C	-0.926287	0.844755	0.000110
C32	C	-0.924564	0.740315	0.000121
C33	C	-0.923184	0.657073	0.000130
C34	C	-0.921461	0.552626	0.000140
N35	N	-0.923855	0.198681	0.254987
N36	N	-0.923887	0.198701	-0.254724
C37	C	-0.923875	0.198701	0.656278
C38	C	-0.923867	0.198698	0.544626
C39	C	-0.923866	0.198692	0.455636
C40	C	-0.923857	0.198688	0.343977
H41	H	-0.669827	0.335942	0.000105
C42	C	-0.717527	0.011072	0.000102
C43	C	-0.776134	-0.006259	0.085044
C44	C	-0.831122	-0.093418	0.085039
C45	C	-0.827504	-0.163246	0.000092
C46	C	-0.768895	-0.145917	-0.084856
C47	C	-0.713907	-0.058758	-0.084852
H48	H	-0.778815	0.045434	0.147932
H49	H	-0.874508	-0.106245	0.147924
H50	H	-0.868209	-0.227767	0.000089
H51	H	-0.766214	-0.197610	-0.147744
H52	H	-0.670520	-0.045931	-0.147736
C53	C	-0.507580	0.343861	0.000126
C54	C	-0.511193	0.413691	-0.084819
C55	C	-0.456213	0.500858	-0.084808
C56	C	-0.397621	0.518194	0.000147
C57	C	-0.394006	0.448361	0.085098
C58	C	-0.448985	0.361195	0.085088
H59	H	-0.554568	0.400860	-0.147713
H60	H	-0.458890	0.552552	-0.147695
H61	H	-0.356922	0.582720	0.000155
H62	H	-0.350630	0.461193	0.147993
H63	H	-0.446309	0.309500	0.147975
H64	H	-0.292469	0.378396	0.000128
C65	C	-0.412880	0.064973	0.000125
C66	C	-0.431679	-0.002624	-0.084824
C67	C	-0.396944	-0.098708	-0.084824
C68	C	-0.343410	-0.127194	0.000125
C69	C	-0.324608	-0.059595	0.085081
C70	C	-0.359343	0.036488	0.085081
H71	H	-0.471311	0.018462	-0.147714
H72	H	-0.410863	-0.148748	-0.147715
H73	H	-0.317697	-0.198321	0.000125
H74	H	-0.284976	-0.080681	0.147971
H75	H	-0.345424	0.086529	0.147972
H76	H	-0.144495	0.363673	0.000152
H77	H	-0.177906	0.061442	0.000147
C78	C	-0.546244	-0.005970	0.000118
C79	C	-0.492705	-0.034458	0.085061
C80	C	-0.457973	-0.130543	0.085058
C81	C	-0.476781	-0.198141	0.000111
C82	C	-0.530323	-0.169654	-0.084839
C83	C	-0.565055	-0.073569	-0.084836
H84	H	-0.478780	0.015583	0.147949
H85	H	-0.418338	-0.151631	0.147944
H86	H	-0.451071	-0.269269	0.000109
H87	H	-0.544248	-0.219695	-0.147727
H88	H	-0.604690	-0.052482	-0.147722
H89	H	-0.325869	0.076161	0.000147
H90	H	-0.425833	0.307445	0.000144
