data_functionalizedCrystal
_audit_creation_method	'MofGen! by Chris Wilmer'
_symmetry_space_group_name_H-M	'P1'
_symmetry_Int_Tables_number	1
_symmetry_cell_setting	triclinic
loop_
_symmetry_equiv_pos_as_xyz
  x,y,z
_cell_length_a	8.559649
_cell_length_b	12.996460
_cell_length_c	8.597304
_cell_angle_alpha	82.294004
_cell_angle_beta	77.624184
_cell_angle_gamma	89.990776
loop_
_atom_site_label
_atom_site_type_symbol
_atom_site_fract_x
_atom_site_fract_y
_atom_site_fract_z
O1	O	-2.119300	0.080930	0.053140
O2	O	-1.785966	0.414264	0.386473
O3	O	-1.452633	0.747597	0.719807
O4	O	-1.655360	0.088087	-0.027760
O5	O	-1.322027	0.421420	0.305573
O6	O	-0.988694	0.754753	0.638906
O7	O	-1.896459	0.064155	0.242258
O8	O	-1.563125	0.397488	0.575591
O9	O	-1.229792	0.730821	0.908925
O10	O	-1.878201	0.104862	-0.216878
O11	O	-1.544868	0.438196	0.116455
O12	O	-1.211535	0.771529	0.449788
O13	O	-1.896433	-0.106980	0.242268
O14	O	-1.563100	0.226353	0.575602
O15	O	-1.229766	0.559687	0.908935
O16	O	-1.655334	-0.083048	-0.027750
O17	O	-1.322001	0.250285	0.305583
O18	O	-0.988668	0.583619	0.638916
O19	O	-2.119274	-0.090204	0.053150
O20	O	-1.785941	0.243129	0.386484
O21	O	-1.452607	0.576462	0.719817
Cu22	Cu	-1.887302	-0.102252	0.012701
Cu23	Cu	-1.553969	0.231081	0.346034
Cu24	Cu	-1.220635	0.564414	0.679368
Cu25	Cu	-1.887332	0.100134	0.012689
Cu26	Cu	-1.553999	0.433468	0.346022
Cu27	Cu	-1.220666	0.766801	0.679356
O28	O	-1.878175	-0.066272	-0.216868
O29	O	-1.544842	0.267061	0.116465
O30	O	-1.211509	0.600394	0.449798
C31	C	-1.595913	0.003061	-0.033886
C32	C	-1.262580	0.336394	0.299447
C33	C	-0.929247	0.669728	0.632780
C34	C	-1.418818	0.004673	-0.052136
C35	C	-1.085485	0.338006	0.281198
C36	C	-0.752152	0.671340	0.614531
N37	N	-1.887292	-0.244600	0.012712
N38	N	-1.553959	0.088733	0.346045
N39	N	-1.220625	0.422066	0.679379
C40	C	-1.887330	-0.664412	0.012687
C41	C	-1.553997	-0.331079	0.346020
C42	C	-1.220663	0.002254	0.679354
C43	C	-1.887315	-0.547607	0.012688
C44	C	-1.553982	-0.214274	0.346021
C45	C	-1.220648	0.119059	0.679355
C46	C	-1.887312	-0.454510	0.012698
C47	C	-1.553979	-0.121177	0.346032
C48	C	-1.220645	0.212157	0.679365
C49	C	-1.887295	-0.337698	0.012702
C50	C	-1.553962	-0.004364	0.346035
C51	C	-1.220628	0.328969	0.679368
C52	C	-1.178721	-0.005186	0.059276
C53	C	-0.845388	0.328148	0.392609
C54	C	-0.512054	0.661481	0.725943
C55	C	-1.355816	-0.006819	0.077525
C56	C	-1.022482	0.326515	0.410859
C57	C	-0.689149	0.659848	0.744192
C58	C	-1.894484	-0.026574	0.300499
C59	C	-1.561151	0.306760	0.633832
C60	C	-1.227818	0.640093	0.967165
C61	C	-1.888620	-0.041952	0.474020
C62	C	-1.555287	0.291381	0.807353
C63	C	-1.221953	0.624714	1.140686
N64	N	-1.887354	0.242481	0.012692
N65	N	-1.554021	0.575815	0.346025
N66	N	-1.220688	0.909148	0.679359
C67	C	-1.880150	0.024458	-0.275109
C68	C	-1.546817	0.357792	0.058225
C69	C	-1.213483	0.691125	0.391558
C70	C	-1.886014	0.039843	-0.448630
C71	C	-1.552681	0.373177	-0.115296
C72	C	-1.219347	0.706510	0.218037
H73	H	-1.437368	-0.017896	0.202503
H74	H	-1.104035	0.315437	0.535837
H75	H	-0.770702	0.648771	0.869170
H76	H	-1.886346	-0.123757	0.540548
H77	H	-1.553013	0.209576	0.873881
H78	H	-1.219679	0.542909	1.207215
H79	H	-1.337275	0.015760	-0.177105
H80	H	-1.003941	0.349093	0.156228
H81	H	-0.670608	0.682427	0.489561
H82	H	-1.888265	0.121644	0.484844
H83	H	-1.554931	0.454977	0.818177
H84	H	-1.221598	0.788310	1.151511
