data_functionalizedCrystal
_audit_creation_method	'MofGen! by Chris Wilmer'
_symmetry_space_group_name_H-M	'P1'
_symmetry_Int_Tables_number	1
_symmetry_cell_setting	triclinic
loop_
_symmetry_equiv_pos_as_xyz
  x,y,z
_cell_length_a	19.188930
_cell_length_b	19.188924
_cell_length_c	13.448316
_cell_angle_alpha	89.991325
_cell_angle_beta	89.979356
_cell_angle_gamma	83.143372
loop_
_atom_site_label
_atom_site_type_symbol
_atom_site_fract_x
_atom_site_fract_y
_atom_site_fract_z
O1	O	0.926145	0.087170	-0.083016
O2	O	1.259478	0.420503	0.250317
O3	O	1.592811	0.753836	0.583651
O4	O	0.722833	0.098904	-0.082948
O5	O	1.056167	0.432237	0.250385
O6	O	1.389500	0.765570	0.583718
O7	O	0.830359	-0.008619	-0.082972
O8	O	1.163692	0.324714	0.250361
O9	O	1.497025	0.658047	0.583694
O10	O	0.818619	0.194693	-0.082992
O11	O	1.151953	0.528026	0.250341
O12	O	1.485286	0.861359	0.583675
O13	O	0.830345	-0.008626	0.082411
O14	O	1.163679	0.324707	0.415745
O15	O	1.497012	0.658041	0.749078
O16	O	0.722820	0.098897	0.082435
O17	O	1.056153	0.432231	0.415769
O18	O	1.389486	0.765564	0.749102
O19	O	0.926131	0.087163	0.082368
O20	O	1.259465	0.420496	0.415701
O21	O	1.592798	0.753830	0.749035
Cu22	Cu	0.824474	0.093030	0.097502
Cu23	Cu	1.157808	0.426363	0.430836
Cu24	Cu	1.491141	0.759696	0.764169
Cu25	Cu	0.824490	0.093037	-0.098083
Cu26	Cu	1.157824	0.426371	0.235250
Cu27	Cu	1.491157	0.759704	0.568584
O28	O	0.818606	0.194686	0.082392
O29	O	1.151939	0.528019	0.415725
O30	O	1.485273	0.861353	0.749059
C31	C	0.696815	0.098521	-0.000248
C32	C	1.030149	0.431854	0.333086
C33	C	1.363482	0.765187	0.666419
C34	C	0.619311	0.097380	-0.000222
C35	C	0.952644	0.430713	0.333112
C36	C	1.285978	0.764047	0.666445
C37	C	0.574386	0.160471	-0.000243
C38	C	0.907719	0.493804	0.333090
C39	C	1.241052	0.827138	0.666423
C40	C	0.501562	0.159399	-0.000254
C41	C	0.834895	0.492733	0.333079
C42	C	1.168228	0.826066	0.666413
C43	C	0.473667	0.095233	-0.000263
C44	C	0.807000	0.428566	0.333070
C45	C	1.140333	0.761900	0.666404
C46	C	0.518602	0.032134	-0.000236
C47	C	0.851935	0.365467	0.333097
C48	C	1.185269	0.698800	0.666431
C49	C	0.591424	0.033207	-0.000215
C50	C	0.924758	0.366540	0.333118
C51	C	1.258091	0.699874	0.666452
N52	N	0.365692	0.046188	-0.056586
N53	N	0.699026	0.379521	0.276748
N54	N	1.032359	0.712855	0.610081
N55	N	0.296514	0.045173	-0.056608
N56	N	0.629847	0.378506	0.276726
N57	N	0.963180	0.711839	0.610059
C58	C	0.254258	0.091995	-0.000324
C59	C	0.587592	0.425328	0.333010
C60	C	0.920925	0.758661	0.666343
N61	N	0.283793	0.139881	0.055971
N62	N	0.617126	0.473215	0.389304
N63	N	0.950460	0.806548	0.722637
N64	N	0.352978	0.140899	0.055988
N65	N	0.686311	0.474232	0.389321
N66	N	1.019644	0.807566	0.722655
C67	C	0.394704	0.094062	-0.000285
C68	C	0.728038	0.427395	0.333048
C69	C	1.061371	0.760729	0.666382
C70	C	0.130368	0.153928	-0.000356
C71	C	0.463702	0.487262	0.332978
C72	C	0.797035	0.820595	0.666311
C73	C	0.057543	0.152854	-0.000360
C74	C	0.390877	0.486187	0.332973
C75	C	0.724210	0.819521	0.666306
C76	C	0.074585	0.025586	-0.000352
C77	C	0.407919	0.358920	0.332981
C78	C	0.741252	0.692253	0.666315
C79	C	0.147409	0.026663	-0.000337
C80	C	0.480742	0.359996	0.332996
C81	C	0.814075	0.693329	0.666329
C82	C	0.175295	0.090835	-0.000344
C83	C	0.508629	0.424169	0.332989
C84	C	0.841962	0.757502	0.666323
C85	C	0.829973	-0.034634	-0.000279
C86	C	1.163306	0.298700	0.333054
C87	C	1.496639	0.632033	0.666387
C88	C	0.828834	-0.112138	-0.000276
C89	C	1.162167	0.221195	0.333057
C90	C	1.495500	0.554528	0.666390
C91	C	0.828310	-0.148534	-0.090427
C92	C	1.161643	0.184800	0.242906
C93	C	1.494976	0.518133	0.576239
C94	C	0.827230	-0.221356	-0.090434
C95	C	1.160563	0.111977	0.242899
C96	C	1.493896	0.445310	0.576232
C97	C	0.826688	-0.257783	-0.000286
C98	C	1.160021	0.075550	0.333048
C99	C	1.493355	0.408884	0.666381
C100	C	0.827208	-0.221378	0.089877
C101	C	1.160542	0.111955	0.423210
C102	C	1.493875	0.445288	0.756544
C103	C	0.828281	-0.148556	0.089882
C104	C	1.161615	0.184777	0.423215
C105	C	1.494948	0.518111	0.756548
N106	N	0.864730	-0.377449	0.066797
N107	N	1.198064	-0.044115	0.400130
N108	N	1.531397	0.289218	0.733464
N109	N	0.863713	-0.446627	0.066787
N110	N	1.197046	-0.113294	0.400120
N111	N	1.530379	0.220040	0.733453
C112	C	0.823454	-0.477192	-0.000294
C113	C	1.156787	-0.143859	0.333039
C114	C	1.490121	0.189475	0.666372
N115	N	0.784260	-0.435967	-0.067379
N116	N	1.117594	-0.102633	0.265954
N117	N	1.450927	0.230700	0.599287
N118	N	0.785281	-0.366782	-0.067372
N119	N	1.118614	-0.033449	0.265962
N120	N	1.451948	0.299884	0.599295
C121	C	0.825524	-0.336746	-0.000281
C122	C	1.158858	-0.003413	0.333053
C123	C	1.492191	0.329920	0.666386
C124	C	0.821758	-0.592550	-0.090459
C125	C	1.155091	-0.259217	0.242874
C126	C	1.488424	0.074117	0.576208
C127	C	0.820674	-0.665373	-0.090462
C128	C	1.154007	-0.332040	0.242871
C129	C	1.487340	0.001293	0.576204
C130	C	0.820659	-0.665395	0.089852
C131	C	1.153993	-0.332061	0.423185
C132	C	1.487326	0.001272	0.756518
C133	C	0.821736	-0.592572	0.089852
C134	C	1.155070	-0.259238	0.423186
C135	C	1.488403	0.074095	0.756519
C136	C	0.822289	-0.556154	-0.000306
C137	C	1.155622	-0.222821	0.333028
C138	C	1.488956	0.110512	0.666361
C139	C	0.952149	0.087546	-0.000335
C140	C	1.285482	0.420880	0.332998
C141	C	1.618816	0.754213	0.666332
C142	C	1.029654	0.088687	-0.000368
C143	C	1.362987	0.422020	0.332966
C144	C	1.696320	0.755354	0.666299
C145	C	0.818992	0.220700	-0.000303
C146	C	1.152325	0.554034	0.333030
C147	C	1.485659	0.887367	0.666363
C148	C	0.820131	0.298205	-0.000313
C149	C	1.153464	0.631539	0.333021
C150	C	1.486797	0.964872	0.666354
N151	N	0.824468	0.093024	0.235067
N152	N	1.157802	0.426357	0.568400
N153	N	1.491135	0.759690	0.901733
N154	N	0.824502	0.093038	-0.235647
N155	N	1.157835	0.426371	0.097686
N156	N	1.491169	0.759704	0.431019
C157	C	0.872095	0.045432	0.287097
C158	C	1.205428	0.378765	0.620430
C159	C	1.538762	0.712099	0.953763
C160	C	0.872100	0.045431	0.391200
C161	C	1.205433	0.378765	0.724533
C162	C	1.538766	0.712098	1.057866
C163	C	0.824480	0.093026	0.443271
C164	C	1.157813	0.426360	0.776605
C165	C	1.491146	0.759693	1.109938
C166	C	0.776848	0.140620	0.391234
C167	C	1.110181	0.473954	0.724568
C168	C	1.443514	0.807287	1.057901
C169	C	0.776841	0.140617	0.287133
C170	C	1.110174	0.473950	0.620466
C171	C	1.443507	0.807284	0.953800
C172	C	0.776867	0.140625	0.608214
C173	C	1.110200	0.473958	0.941548
C174	C	1.443534	0.807292	1.274881
C175	C	0.776875	0.140629	0.712323
C176	C	1.110208	0.473963	1.045656
C177	C	1.443542	0.807296	1.378990
C178	C	0.872126	0.045439	0.712281
C179	C	1.205459	0.378773	1.045614
C180	C	1.538793	0.712106	1.378948
C181	C	0.872119	0.045436	0.608180
C182	C	1.205452	0.378769	0.941513
C183	C	1.538786	0.712103	1.274846
C184	C	0.824488	0.093031	0.556150
C185	C	1.157821	0.426364	0.889483
C186	C	1.491154	0.759698	1.222817
H187	H	0.495885	-0.020111	-0.000257
H188	H	0.829219	0.313222	0.333076
H189	H	1.162552	0.646556	0.666410
N190	N	0.820095	-0.702604	0.181929
N191	N	1.153429	-0.369270	0.515262
N192	N	1.486762	-0.035937	0.848596
N193	N	0.819132	-0.767622	0.181915
N194	N	1.152465	-0.434289	0.515248
N195	N	1.485799	-0.100955	0.848581
H196	H	0.818730	-0.793905	0.246947
H197	H	1.152063	-0.460571	0.580280
H198	H	1.485397	-0.127238	0.913613
N199	N	0.602858	0.226026	-0.000253
N200	N	0.936192	0.559359	0.333080
N201	N	1.269525	0.892692	0.666414
N202	N	0.562732	0.282354	-0.000273
N203	N	0.896065	0.615687	0.333060
N204	N	1.229399	0.949020	0.666393
H205	H	0.582842	0.328653	-0.000281
H206	H	0.916175	0.661986	0.333053
H207	H	1.249508	0.995319	0.666386
N208	N	0.920755	-0.003196	0.765438
N209	N	1.254088	0.330137	1.098771
N210	N	1.587421	0.663471	1.432105
N211	N	0.920740	-0.003206	0.858385
N212	N	1.254073	0.330128	1.191718
N213	N	1.587406	0.663461	1.525051
H214	H	0.955075	-0.037560	0.895932
H215	H	1.288409	0.295774	1.229265
H216	H	1.621742	0.629107	1.562599
H217	H	0.826799	-0.250995	-0.163848
H218	H	1.160132	0.082339	0.169485
H219	H	1.493465	0.415672	0.502818
N220	N	0.828876	-0.111327	-0.182511
N221	N	1.162209	0.222007	0.150823
N222	N	1.495542	0.555340	0.484156
N223	N	0.878681	-0.077276	-0.202638
N224	N	1.212015	0.256057	0.130696
N225	N	1.545348	0.589391	0.464029
H226	H	0.879081	-0.050997	-0.267672
H227	H	1.212415	0.282337	0.065661
H228	H	1.545748	0.615670	0.398995
N229	N	0.637319	-0.031242	-0.000178
N230	N	0.970652	0.302091	0.333155
N231	N	1.303986	0.635425	0.666489
N232	N	0.634867	-0.073968	0.069541
N233	N	0.968201	0.259366	0.402875
N234	N	1.301534	0.592699	0.736208
H235	H	0.667282	-0.119486	0.069568
H236	H	1.000615	0.213848	0.402901
H237	H	1.333949	0.547181	0.736235
H238	H	0.910875	0.006677	0.244707
H239	H	1.244209	0.340011	0.578040
H240	H	1.577542	0.673344	0.911373
N241	N	0.920751	-0.003190	0.444331
N242	N	1.254085	0.330143	0.777664
N243	N	1.587418	0.663476	1.110998
N244	N	0.963267	-0.045680	0.397827
N245	N	1.296600	0.287653	0.731160
N246	N	1.629934	0.620987	1.064494
H247	H	0.997629	-0.080023	0.435350
H248	H	1.330963	0.253311	0.768683
H249	H	1.664296	0.586644	1.102016
H250	H	0.822204	-0.562897	-0.163871
H251	H	1.155537	-0.229563	0.169462
H252	H	1.488870	0.103770	0.502796
H253	H	0.153075	0.206181	-0.000346
H254	H	0.486408	0.539515	0.332987
H255	H	0.819741	0.872848	0.666320
N256	N	0.455671	0.223854	-0.000271
N257	N	0.789004	0.557188	0.333063
N258	N	1.122337	0.890521	0.666396
N259	N	0.480579	0.281144	-0.000271
N260	N	0.813912	0.614478	0.333062
N261	N	1.147245	0.947811	0.666396
H262	H	0.448171	0.326667	-0.000283
H263	H	0.781504	0.660000	0.333051
H264	H	1.114837	0.993333	0.666384
H265	H	0.826765	-0.251041	0.163277
H266	H	1.160099	0.082292	0.496610
H267	H	1.493432	0.415626	0.829943
H268	H	0.828705	-0.118923	0.163295
H269	H	1.162038	0.214410	0.496629
H270	H	1.495372	0.547744	0.829962
N271	N	0.820160	-0.702551	-0.182559
N272	N	1.153494	-0.369218	0.150775
N273	N	1.486827	-0.035884	0.484108
N274	N	0.868775	-0.749768	-0.202680
N275	N	1.202108	-0.416434	0.130653
N276	N	1.535442	-0.083101	0.463986
H277	H	0.868417	-0.776025	-0.267727
H278	H	1.201751	-0.442691	0.065607
H279	H	1.535084	-0.109358	0.398940
N280	N	0.920801	-0.003148	0.555003
N281	N	1.254135	0.330185	0.888337
N282	N	1.587468	0.663518	1.221670
N283	N	0.963346	-0.045619	0.601467
N284	N	1.296679	0.287715	0.934800
N285	N	1.630013	0.621048	1.268134
H286	H	0.997740	-0.079922	0.563912
H287	H	1.331074	0.253412	0.897245
H288	H	1.664407	0.586745	1.230579
H289	H	0.738097	0.179386	0.754714
H290	H	1.071431	0.512719	1.088048
H291	H	1.404764	0.846052	1.421381
H292	H	0.822169	-0.562939	0.163263
H293	H	1.155502	-0.229606	0.496596
H294	H	1.488836	0.103727	0.829930
N295	N	0.728206	0.189244	0.555081
N296	N	1.061539	0.522577	0.888414
N297	N	1.394873	0.855911	1.221748
N298	N	0.685693	0.231738	0.601582
N299	N	1.019026	0.565072	0.934916
N300	N	1.352360	0.898405	1.268249
H301	H	0.651329	0.266077	0.564057
H302	H	0.984662	0.599410	0.897391
H303	H	1.317995	0.932744	1.230724
H304	H	0.738057	0.179370	0.244771
H305	H	1.071390	0.512704	0.578105
H306	H	1.404724	0.846037	0.911438
N307	N	0.011660	0.217310	-0.000370
N308	N	0.344993	0.550643	0.332963
N309	N	0.678327	0.883977	0.666296
N310	N	0.036572	0.274598	-0.000373
N311	N	0.369906	0.607931	0.332960
N312	N	0.703239	0.941265	0.666293
H313	H	0.004167	0.320122	-0.000380
H314	H	0.337500	0.653455	0.332954
H315	H	0.670834	0.986789	0.666287
N316	N	0.046089	-0.039953	-0.000343
N317	N	0.379423	0.293380	0.332990
N318	N	0.712756	0.626714	0.666323
N319	N	-0.018931	-0.040904	-0.000352
N320	N	0.314402	0.292429	0.332981
N321	N	0.647736	0.625762	0.666315
H322	H	-0.039060	-0.087193	-0.000339
H323	H	0.294273	0.246140	0.332994
H324	H	0.627606	0.579474	0.666327
H325	H	0.183988	-0.024713	-0.000325
H326	H	0.517322	0.308620	0.333008
H327	H	0.850655	0.641953	0.666341
N328	N	0.728195	0.189227	0.444423
N329	N	1.061528	0.522560	0.777757
N330	N	1.394861	0.855893	1.111090
N331	N	0.684933	0.167178	0.502547
N332	N	1.018266	0.500511	0.835881
N333	N	1.351600	0.833845	1.169214
H334	H	0.650571	0.201507	0.540112
H335	H	0.983904	0.534840	0.873445
H336	H	1.317237	0.868174	1.206779
