data_functionalizedCrystal
_audit_creation_method	'MofGen! by Chris Wilmer'
_symmetry_space_group_name_H-M	'P1'
_symmetry_Int_Tables_number	1
_symmetry_cell_setting	triclinic
loop_
_symmetry_equiv_pos_as_xyz
  x,y,z
_cell_length_a	14.853567
_cell_length_b	13.330367
_cell_length_c	14.853567
_cell_angle_alpha	90.000844
_cell_angle_beta	83.634930
_cell_angle_gamma	90.004582
loop_
_atom_site_label
_atom_site_type_symbol
_atom_site_fract_x
_atom_site_fract_y
_atom_site_fract_z
O1	O	-1.196369	-0.083346	-0.117704
O2	O	-0.933909	-0.083362	-0.131725
O3	O	-1.072150	-0.083356	0.006515
O4	O	-1.058128	-0.083351	-0.255944
O5	O	-1.072130	0.083491	0.006519
O6	O	-0.933889	0.083485	-0.131722
O7	O	-1.196349	0.083501	-0.117700
Cu8	Cu	-1.065117	0.098728	-0.124711
Cu9	Cu	-1.065141	-0.098588	-0.124715
O10	O	-1.058108	0.083496	-0.255941
C11	C	-0.900311	0.000060	-0.131088
C12	C	-0.800227	0.000053	-0.129184
C13	C	-1.071504	0.000064	0.040106
C14	C	-1.069601	0.000055	0.140189
C15	C	-1.229947	0.000078	-0.118337
C16	C	-1.330031	0.000078	-0.120241
C17	C	-0.387693	0.000074	-0.039019
C18	C	-0.366412	0.000076	-0.203251
C19	C	-0.460446	0.000073	-0.205042
C20	C	-0.518108	0.000069	-0.123819
C21	C	-0.481736	0.000067	-0.040806
C22	C	-0.496825	0.000064	-0.288053
C23	C	-0.590864	0.000059	-0.289846
C24	C	-0.648528	0.000062	-0.208623
C25	C	-0.612150	0.000062	-0.125607
C26	C	-0.669812	0.000058	-0.044384
C27	C	-0.633437	0.000065	0.038633
C28	C	-0.539399	0.000070	0.040417
C29	C	-0.742565	0.000057	-0.210407
C30	C	-0.763855	0.000052	-0.046172
N31	N	-1.065107	0.237509	-0.124708
N32	N	-1.065158	-0.237370	-0.124711
C33	C	-1.003925	0.710130	-0.185903
C34	C	-1.126381	0.710103	-0.063519
C35	C	-1.126371	0.605084	-0.063516
C36	C	-1.065138	0.552584	-0.124709
C37	C	-1.003915	0.605102	-0.185904
C38	C	-1.187598	0.552559	-0.002328
C39	C	-1.187591	0.447534	-0.002323
C40	C	-1.126353	0.395031	-0.063512
C41	C	-1.065127	0.447556	-0.124710
C42	C	-1.003895	0.395055	-0.185902
C43	C	-0.942664	0.447578	-0.247096
C44	C	-0.942677	0.552599	-0.247093
C45	C	-1.126340	0.290010	-0.063515
C46	C	-1.003884	0.290027	-0.185903
C47	C	-1.058754	0.000073	-0.289531
C48	C	-1.060657	0.000075	-0.389615
C49	C	-0.979435	0.000069	0.552723
C50	C	-1.143668	0.000079	0.574004
C51	C	-1.145458	0.000073	0.479971
C52	C	-1.064235	0.000067	0.422309
C53	C	-0.981223	0.000066	0.458680
C54	C	-1.228469	0.000084	0.443591
C55	C	-1.230262	0.000079	0.349552
C56	C	-1.149039	0.000066	0.291889
C57	C	-1.066023	0.000064	0.328266
C58	C	-0.984800	0.000058	0.270604
C59	C	-0.901783	0.000049	0.306979
C60	C	-0.899999	0.000053	0.401017
C61	C	-1.150823	0.000062	0.197851
C62	C	-0.986588	0.000055	0.176561
H63	H	-0.810798	0.000052	0.019971
H64	H	-0.832411	0.000046	0.430643
C65	C	-1.193684	0.232239	0.003789
H66	H	-1.230152	0.278548	0.040234
H67	H	-1.231241	0.191257	-0.028712
H68	H	-1.161201	0.191283	0.041385
C69	C	-1.233007	0.000087	0.637424
H70	H	-1.282702	0.000092	0.602293
H71	H	-1.235728	-0.058092	0.674556
H72	H	-1.235716	0.058281	0.674545
C73	C	-1.254933	0.389768	0.064993
H74	H	-1.291397	0.436078	0.101441
H75	H	-1.292494	0.348784	0.032500
H76	H	-1.222444	0.348814	0.102586
H77	H	-0.892811	0.404820	-0.296924
H78	H	-0.680397	0.000055	0.104764
H79	H	-1.297860	0.000085	0.319944
H80	H	-0.954018	0.247288	-0.235731
H81	H	-0.911844	0.000058	0.582344
C82	C	-0.499384	0.000068	0.131725
H83	H	-0.435121	0.000059	0.121155
H84	H	-0.519162	0.058248	0.165178
H85	H	-0.519171	-0.058126	0.165167
H86	H	-1.294596	0.000099	0.490546
C87	C	-0.782580	0.000046	-0.301711
H88	H	-0.846844	0.000037	-0.291144
H89	H	-0.762793	0.058225	-0.335164
H90	H	-0.762800	-0.058148	-0.335151
C91	C	-0.347685	0.000077	0.052293
H92	H	-0.283422	0.000076	0.041730
H93	H	-0.367472	0.058257	0.085743
H94	H	-0.367470	-0.058117	0.085735
H95	H	-0.835652	0.000051	0.260019
C96	C	-0.875339	0.610375	-0.314406
H97	H	-0.884125	0.680441	-0.305648
H98	H	-0.815158	0.593184	-0.304511
H99	H	-0.885210	0.593157	-0.374595
C100	C	-0.936579	0.767898	-0.253214
H101	H	-0.945355	0.837965	-0.244456
H102	H	-0.876401	0.750695	-0.243315
H103	H	-0.946449	0.750683	-0.313404
H104	H	-1.176239	0.752852	-0.013702
H105	H	-0.449870	0.000057	-0.354180
C106	C	-0.302988	0.000083	-0.292588
H107	H	-0.241773	0.000092	-0.279634
H108	H	-0.314027	-0.058097	-0.326628
H109	H	-0.314024	0.058277	-0.326615
C110	C	-0.630869	0.000065	-0.381159
H111	H	-0.583059	0.000076	-0.429274
H112	H	-0.667118	-0.058115	-0.385277
H113	H	-0.667103	0.058259	-0.385264
H114	H	-1.237457	0.595308	0.047489
H115	H	-1.218414	0.000076	0.168238
H116	H	-0.920445	0.000045	0.129618
