data_functionalizedCrystal
_audit_creation_method	'MofGen! by Chris Wilmer'
_symmetry_space_group_name_H-M	'P1'
_symmetry_Int_Tables_number	1
_symmetry_cell_setting	triclinic
loop_
_symmetry_equiv_pos_as_xyz
  x,y,z
_cell_length_a	14.446369
_cell_length_b	14.446369
_cell_length_c	18.426585
_cell_angle_alpha	60.000002
_cell_angle_beta	90.002293
_cell_angle_gamma	59.996355
loop_
_atom_site_label
_atom_site_type_symbol
_atom_site_fract_x
_atom_site_fract_y
_atom_site_fract_z
Zr1	Zr	0.891718	1.013206	-0.095219
O2	O	0.743892	1.206341	-0.211106
O3	O	0.937041	0.820081	-0.059693
O4	O	0.937022	1.013210	-0.211099
O5	O	0.743919	1.013206	0.059731
O6	O	1.089359	1.013201	-0.211095
O7	O	0.743911	1.013212	-0.059700
O8	O	1.089393	0.667729	0.059743
O9	O	0.743885	1.358678	-0.211107
O10	O	1.070051	0.899506	-0.044539
O11	O	0.956369	0.899508	0.044587
O12	O	0.956347	1.126892	-0.133674
O13	O	0.842665	1.126893	-0.044547
Zr14	Zr	1.134691	1.013182	0.095266
Zr15	Zr	1.134678	1.013193	-0.095212
Zr16	Zr	0.891731	1.013196	0.095259
Zr17	Zr	0.891707	1.256166	-0.095221
Zr18	Zr	1.134702	0.770223	0.095268
O19	O	1.089368	1.206308	0.059740
O20	O	1.089350	1.206322	-0.211096
O21	O	0.743910	1.206326	0.059730
O22	O	1.282517	0.820047	0.211153
O23	O	1.282499	0.820062	-0.059683
O24	O	0.937059	0.820066	0.211143
O25	O	1.282490	1.013183	-0.059684
O26	O	1.089387	1.013179	0.211146
O27	O	0.937050	1.013187	0.211142
O28	O	1.282498	1.013176	0.059747
O29	O	0.937006	1.358667	-0.211101
O30	O	1.089403	0.667721	0.211148
O31	O	1.282524	0.667710	0.211154
O32	O	1.282514	0.667719	0.059749
O33	O	0.743895	1.358670	-0.059702
O34	O	0.937016	1.358659	-0.059696
O35	O	1.070062	0.899497	0.133721
O36	O	1.183744	0.899495	0.044594
O37	O	1.070040	1.126881	-0.044541
O38	O	0.956359	1.126882	0.044586
C39	C	1.013218	0.709288	0.000025
C40	C	1.013223	0.606146	0.000026
C41	C	1.084925	0.566863	-0.056196
C42	C	1.084590	0.459943	-0.056499
C43	C	0.889618	0.546958	-0.040689
C44	C	0.890032	0.654334	-0.041112
C45	C	1.064087	0.479325	0.096988
C46	C	1.066561	0.370862	0.096839
C47	C	0.709299	1.013211	0.000015
C48	C	0.606156	1.013217	0.000012
C49	C	0.387777	1.156614	-0.055922
C50	C	0.495008	1.156711	-0.056237
C51	C	0.602833	0.941987	-0.040992
C52	C	0.495064	0.942897	-0.041402
C53	C	0.496437	0.939936	0.097020
C54	C	0.602406	0.942639	0.096867
C55	C	1.317111	1.013178	0.000032
C56	C	1.420254	1.013172	0.000035
C57	C	1.013189	1.013207	-0.238236
C58	C	1.013184	1.013211	-0.319099
C59	C	1.013191	1.317100	0.000022
C60	C	1.013186	1.420243	0.000021
C61	C	1.013226	1.013172	-0.615183
C62	C	1.013217	1.013178	-0.532802
C63	C	1.013204	1.013192	-0.467144
C64	C	1.013196	1.013197	-0.384757
C65	C	1.013220	1.013181	0.238283
C66	C	1.013226	1.013177	0.319146
C67	C	1.317125	0.709272	0.000034
C68	C	1.420272	0.606123	0.000037
C69	C	1.013234	0.709276	0.238285
C70	C	1.013244	0.606128	0.319149
C71	C	1.317140	0.709259	0.238294
C72	C	1.420293	0.606106	0.319160
C73	C	0.709269	1.317130	-0.238247
C74	C	0.606116	1.420282	-0.319114
C75	C	0.709285	1.317117	0.000013
C76	C	0.606137	1.420265	0.000009
C77	C	1.013175	1.317113	-0.238238
C78	C	1.013165	1.420260	-0.319102
C79	C	1.072596	0.557684	0.403658
C80	C	1.072601	0.460779	0.479645
C81	C	1.013261	0.412315	0.471121
C82	C	0.953902	0.460769	0.386603
C83	C	0.953891	0.557679	0.310618
C84	C	1.528086	0.557664	0.310613
C85	C	1.625018	0.460754	0.386588
C86	C	1.614156	0.412282	0.471111
C87	C	1.506352	0.460734	0.479656
C88	C	1.409422	0.557648	0.403681
C89	C	0.498323	1.468737	-0.310566
C90	C	0.401391	1.565676	-0.386542
C91	C	0.412253	1.614153	-0.471064
C92	C	0.520057	1.565695	-0.479609
C93	C	0.616987	1.468764	-0.403635
C94	C	1.072517	1.468694	-0.310550
C95	C	1.072530	1.565599	-0.386522
C96	C	1.013183	1.614075	-0.471046
C97	C	0.953829	1.565632	-0.479597
C98	C	0.953824	1.468722	-0.403625
C99	C	1.638651	0.459794	0.055965
C100	C	1.531415	0.566723	0.056283
C101	C	1.423609	0.479261	0.041040
C102	C	1.531383	0.371877	0.041446
C103	C	1.529993	0.546865	-0.096976
C104	C	1.424018	0.655344	-0.096820
H105	H	1.019764	0.338557	0.142218
N106	N	0.532804	0.799967	0.152514
H107	H	0.618281	0.738713	0.174914
H108	H	0.500050	0.784133	0.115013
H109	H	1.693092	0.333368	0.532967
N110	N	0.285129	1.617902	-0.377310
H111	H	0.225364	1.686667	-0.438260
H112	H	0.276160	1.658013	-0.343696
H113	H	1.120918	0.597133	0.410615
N114	N	0.316276	1.231201	-0.019695
H115	H	0.296369	1.322981	-0.056551
H116	H	0.360214	1.185212	0.043993
H117	H	0.905563	0.597110	0.241810
H118	H	0.905588	0.421295	0.379676
N119	N	0.889821	1.617932	-0.570767
H120	H	0.806796	1.658158	-0.577896
H121	H	0.921033	1.543946	-0.577840
H122	H	1.536952	0.597115	0.241798
N123	N	1.293158	0.609875	0.412902
H124	H	1.250275	0.707163	0.383456
H125	H	1.301087	0.564360	0.477991
N126	N	1.741282	0.408505	0.377360
H127	H	1.733446	0.453913	0.312286
H128	H	1.784090	0.311215	0.406861
N129	N	1.494645	0.408446	0.570821
H130	H	1.572412	0.339698	0.617647
H131	H	1.451804	0.368297	0.577864
N132	N	1.136630	0.408526	0.570796
H133	H	1.174228	0.453927	0.564658
H134	H	1.196296	0.311235	0.604353
N135	N	1.182839	0.427018	0.142083
H136	H	1.204869	0.485012	0.100109
H137	H	1.237349	0.335114	0.159037
H138	H	1.176148	0.529745	-0.029064
H139	H	0.489457	1.429272	-0.241751
H140	H	1.693646	0.370118	0.127076
H141	H	0.333318	1.693081	-0.532920
H142	H	1.013279	0.333406	0.533001
N143	N	0.531765	1.617986	-0.570775
H144	H	0.453998	1.686738	-0.617600
H145	H	0.574609	1.543976	-0.577819
N146	N	0.733251	1.416478	-0.412854
H147	H	0.776132	1.433320	-0.383407
H148	H	0.725325	1.461916	-0.477943
N149	N	0.889797	1.416500	-0.412864
H150	H	0.806778	1.490465	-0.446438
H151	H	0.898876	1.347733	-0.351888
H152	H	0.601887	0.994575	0.127499
N153	N	1.533533	0.685088	0.019857
H154	H	1.604298	0.668112	0.003449
H155	H	1.533169	0.702741	0.066457
N156	N	1.136533	1.416408	-0.219387
H157	H	1.105415	1.490344	-0.212267
H158	H	1.219541	1.376169	-0.212326
N159	N	1.136552	1.617833	-0.377289
H160	H	1.174135	1.572421	-0.312214
H161	H	1.082065	1.715124	-0.406790
N162	N	1.013206	1.718586	-0.552984
H163	H	1.059816	1.741905	-0.534732
H164	H	0.932802	1.798954	-0.589532
H165	H	1.580006	0.586437	-0.131229
N166	N	1.710119	0.509127	0.019726
H167	H	1.722149	0.506289	-0.033316
H168	H	1.785898	0.451897	0.067276
N169	N	1.534666	0.517102	0.151049
H170	H	1.605844	0.425596	0.192778
H171	H	1.466046	0.515811	0.158948
H172	H	1.581739	0.281114	0.112813
H173	H	1.502542	0.522079	-0.138864
N174	N	1.496090	0.332184	-0.009044
H175	H	1.410655	0.384453	-0.031464
H176	H	1.529168	0.235795	0.031673
H177	H	1.345338	0.501514	0.002247
H178	H	1.421482	0.440698	0.111731
N179	N	1.424718	0.775198	-0.137396
H180	H	1.422611	0.797533	-0.093231
H181	H	1.356127	0.851195	-0.192770
N182	N	1.319172	0.697887	-0.156694
H183	H	1.249838	0.771606	-0.159393
H184	H	1.313553	0.621505	-0.132354
N185	N	1.205099	0.341737	-0.020372
H186	H	1.258918	0.358776	-0.004106
H187	H	1.222128	0.324263	-0.067076
H188	H	0.493248	1.212882	-0.028947
H189	H	1.049953	0.656660	-0.127297
H190	H	0.849339	0.745208	-0.112453
N191	N	1.037814	0.509734	-0.151241
H192	H	1.017325	0.601307	-0.192971
H193	H	0.967936	0.510904	-0.158948
N194	N	0.815720	0.517194	0.010952
H195	H	0.736689	0.600037	-0.016386
H196	H	0.848636	0.481414	0.074698
H197	H	0.833663	0.684075	-0.002798
N198	N	0.835316	0.598214	-0.134286
H199	H	0.832275	0.529369	-0.133473
H200	H	0.881503	0.619865	-0.172133
N201	N	1.187153	0.251134	0.137136
H202	H	1.207137	0.228962	0.092869
H203	H	1.194786	0.175014	0.192557
H204	H	0.332784	1.212639	-0.127033
N205	N	0.995251	0.511843	0.152734
H206	H	0.931434	0.608220	0.115411
H207	H	1.045577	0.490107	0.204869
H208	H	0.446413	0.985829	0.131273
H209	H	0.444712	0.993522	-0.112769
N210	N	0.491761	1.231217	-0.151001
H211	H	0.420588	1.264117	-0.192732
H212	H	0.560386	1.171377	-0.158898
H213	H	0.521725	0.837656	-0.003280
N214	N	0.706515	0.802233	0.010385
H215	H	0.756758	0.783705	0.060855
H216	H	0.749668	0.788691	-0.030503
H217	H	0.604961	0.991466	-0.111682
H218	H	0.681572	0.837951	0.142067
