data_functionalizedCrystal
_audit_creation_method	'MofGen! by Chris Wilmer'
_symmetry_space_group_name_H-M	'P1'
_symmetry_Int_Tables_number	1
_symmetry_cell_setting	triclinic
loop_
_symmetry_equiv_pos_as_xyz
  x,y,z
_cell_length_a	12.759401
_cell_length_b	21.295417
_cell_length_c	12.759393
_cell_angle_alpha	89.960830
_cell_angle_beta	89.981504
_cell_angle_gamma	90.030668
loop_
_atom_site_label
_atom_site_type_symbol
_atom_site_fract_x
_atom_site_fract_y
_atom_site_fract_z
Zn1	Zn	1.606140	-0.250569	-0.593926
Zn2	Zn	1.605986	-0.355853	-0.418223
Zn3	Zn	1.430442	-0.250602	-0.418265
Zn4	Zn	1.430382	-0.355805	-0.593864
O5	O	1.518237	-0.303208	-0.506069
O6	O	1.753141	-0.264542	-0.570626
O7	O	1.582660	-0.341926	-0.271207
O8	O	1.453838	-0.162509	-0.441611
O9	O	1.753027	-0.341894	-0.441538
O10	O	1.582923	-0.162484	-0.570668
O11	O	1.453689	-0.264598	-0.271238
O12	O	1.283413	-0.264551	-0.441551
O13	O	1.453736	-0.341811	-0.740893
O14	O	1.283369	-0.341843	-0.570562
O15	O	1.582865	-0.264495	-0.740939
O16	O	1.582602	-0.443936	-0.441478
O17	O	1.453587	-0.443901	-0.570521
C18	C	1.245270	-0.303196	-0.506055
C19	C	1.128493	-0.303206	-0.506074
C20	C	1.073636	-0.343516	-0.573139
C21	C	0.963912	-0.343524	-0.573151
C22	C	0.963912	-0.262910	-0.439022
C23	C	1.073635	-0.262899	-0.439017
C24	C	1.073635	-0.390061	-0.650574
C25	C	0.963911	-0.390069	-0.650585
C26	C	1.518100	-0.466759	-0.506011
C27	C	1.518137	-0.536727	-0.506021
C28	C	1.585375	-0.569592	-0.438898
C29	C	1.585424	-0.635334	-0.438921
C30	C	1.518217	-0.668210	-0.506058
C31	C	1.450974	-0.635338	-0.573195
C32	C	1.450934	-0.569596	-0.573177
N33	N	1.426309	-0.771475	-0.514062
N34	N	1.426350	-0.833927	-0.514073
C35	C	1.518334	-0.866284	-0.506118
N36	N	1.610278	-0.833832	-0.498130
N37	N	1.610236	-0.771375	-0.498114
C38	C	1.518253	-0.739495	-0.506085
C39	C	1.585631	-0.970434	-0.439016
C40	C	1.585682	-1.036178	-0.439047
C41	C	1.451223	-1.036180	-0.573315
C42	C	1.451181	-0.970438	-0.573289
C43	C	1.518384	-0.937569	-0.506134
C44	C	1.792271	-0.303220	-0.506084
C45	C	1.909047	-0.303225	-0.506091
C46	C	1.518311	-0.303144	-0.780103
C47	C	1.518342	-0.303117	-0.896880
C48	C	1.518404	-0.139017	-0.506151
C49	C	1.518475	-0.069049	-0.506185
C50	C	1.585589	-0.262855	-0.951767
C51	C	1.585614	-0.262832	-1.061491
C52	C	1.451143	-0.343339	-1.061431
C53	C	1.451113	-0.343358	-0.951709
C54	C	1.663228	-0.216376	-0.951803
C55	C	1.663253	-0.216353	-1.061527
C56	C	1.518225	-0.303225	-0.233102
C57	C	1.518397	-0.303075	-0.116326
H58	H	1.107628	-0.436347	-0.621279
H59	H	1.744618	-0.229411	-1.091302
H60	H	1.640181	-0.662097	-0.384261
H61	H	1.396255	-0.662109	-0.627859
C62	C	1.749033	-0.293192	-0.844045
C63	C	1.767531	-0.239965	-0.905843
H64	H	1.813426	-0.307758	-0.815678
H65	H	1.702543	-0.282690	-0.788616
H66	H	1.718598	-0.325232	-0.885938
H67	H	1.797959	-0.207923	-0.863947
H68	H	1.814038	-0.250464	-0.961280
C69	C	1.645607	-1.136951	-0.379619
C70	C	1.659706	-1.072306	-0.365369
H71	H	1.691344	-1.159254	-0.334168
H72	H	1.575077	-1.147803	-0.364087
H73	H	1.660858	-1.147638	-0.450265
H74	H	1.644448	-1.061618	-0.294724
H75	H	1.730253	-1.061449	-0.380894
C76	C	1.391583	-1.136954	-0.632962
C77	C	1.377349	-1.072310	-0.647117
H78	H	1.345972	-1.159260	-0.678525
H79	H	1.462164	-1.147677	-0.648402
H80	H	1.376248	-1.147768	-0.562359
H81	H	1.392691	-1.061495	-0.717718
H82	H	1.306751	-1.061583	-0.631684
H83	H	1.640098	-0.542832	-0.384219
H84	H	1.634161	-0.170033	-1.095585
H85	H	1.118295	-0.230071	-0.384413
C86	C	1.318033	-0.576203	-0.705896
C87	C	1.377014	-0.533468	-0.646958
H88	H	1.272393	-0.553897	-0.751439
H89	H	1.363803	-0.601796	-0.746131
H90	H	1.277889	-0.601894	-0.660085
H91	H	1.417165	-0.507781	-0.692769
H92	H	1.331239	-0.507865	-0.606720
C93	C	0.795715	-0.227136	-0.379466
C94	C	0.903607	-0.218614	-0.365303
H95	H	0.758490	-0.199793	-0.333946
H96	H	0.777771	-0.217970	-0.450076
H97	H	0.777713	-0.269425	-0.363964
H98	H	0.921611	-0.176326	-0.380813
H99	H	0.921559	-0.227776	-0.294677
C100	C	1.028566	-0.361863	-0.827124
C101	C	1.113894	-0.372505	-0.760467
H102	H	1.053423	-0.351021	-0.894963
H103	H	0.987192	-0.398863	-0.831437
H104	H	0.987223	-0.328480	-0.800186
H105	H	1.155232	-0.405891	-0.787401
H106	H	1.155285	-0.335501	-0.756158
H107	H	0.934093	-0.438810	-0.628642
H108	H	1.640355	-0.943671	-0.384338
H109	H	0.929921	-0.372666	-0.727941
H110	H	1.396425	-0.943678	-0.627944
C111	C	1.533945	-0.134518	-0.948218
C112	C	1.633861	-0.150570	-0.911634
H113	H	1.515814	-0.093895	-0.923413
H114	H	1.533972	-0.134504	-1.022659
H115	H	1.484285	-0.164264	-0.923377
H116	H	1.683522	-0.120826	-0.936483
H117	H	1.633842	-0.150579	-0.837178
C118	C	1.318177	-0.422920	-0.962675
C119	C	1.377178	-0.387606	-0.891376
H120	H	1.272532	-0.450238	-0.925426
H121	H	1.278048	-0.395479	-1.005490
H122	H	1.363942	-0.447001	-1.005454
H123	H	1.331413	-0.363521	-0.848602
H124	H	1.417310	-0.415050	-0.848543
C125	C	1.391481	-0.379059	-1.229602
C126	C	1.377256	-0.387576	-1.121703
H127	H	1.345871	-0.406374	-1.266807
H128	H	1.376149	-0.336765	-1.247603
H129	H	1.462071	-0.388271	-1.247571
H130	H	1.306669	-0.378359	-1.103732
H131	H	1.392581	-0.429880	-1.103695
