data_functionalizedCrystal
_audit_creation_method	'MofGen! by Chris Wilmer'
_symmetry_space_group_name_H-M	'P1'
_symmetry_Int_Tables_number	1
_symmetry_cell_setting	triclinic
loop_
_symmetry_equiv_pos_as_xyz
  x,y,z
_cell_length_a	16.992694
_cell_length_b	16.053802
_cell_length_c	16.992701
_cell_angle_alpha	87.254122
_cell_angle_beta	90.667696
_cell_angle_gamma	92.750953
loop_
_atom_site_label
_atom_site_type_symbol
_atom_site_fract_x
_atom_site_fract_y
_atom_site_fract_z
O1	O	1.053957	0.069310	0.163816
O2	O	0.825558	0.069335	0.161983
O3	O	0.938843	0.069326	0.048699
O4	O	0.940672	0.069319	0.277100
O5	O	0.932606	-0.069532	0.054907
O6	O	0.819321	-0.069523	0.168191
O7	O	1.047720	-0.069548	0.170024
Zn8	Zn	0.932530	-0.091582	0.170093
Zn9	Zn	0.940748	0.091370	0.161914
O10	O	0.934435	-0.069539	0.283308
C11	C	0.793079	-0.000091	0.162731
C12	C	0.705595	-0.000081	0.155702
N13	N	0.926927	-0.216442	0.175675
C14	C	0.659604	-0.000084	0.223520
C15	C	0.577403	-0.000095	0.216912
C16	C	0.541195	-0.000098	0.142484
C17	C	0.587192	-0.000097	0.074661
C18	C	0.669392	-0.000092	0.081271
C19	C	0.295880	-0.000119	0.115091
C20	C	0.213674	-0.000122	0.108486
C21	C	0.203890	-0.000121	0.250738
C22	C	0.286092	-0.000111	0.257340
C23	C	0.332082	-0.000115	0.189517
N24	N	0.457172	-0.000107	0.135728
N25	N	0.416103	-0.000112	0.196275
C26	C	0.975150	-0.260140	0.127492
C27	C	0.971239	-0.347546	0.131405
C28	C	0.919108	-0.391254	0.183505
C29	C	0.870880	-0.347550	0.231690
C30	C	0.874788	-0.260145	0.227773
C31	C	0.902036	-0.652662	0.200594
C32	C	0.898134	-0.740073	0.204509
C33	C	0.998492	-0.740063	0.104222
C34	C	1.002399	-0.652657	0.100313
C35	C	0.954168	-0.608961	0.148495
N36	N	0.915110	-0.480597	0.187508
N37	N	0.958162	-0.519619	0.144488
C38	C	1.080198	-0.000120	0.169275
C39	C	1.167683	-0.000125	0.176304
C40	C	0.933369	-0.000100	0.022443
C41	C	0.926342	-0.000091	-0.065042
N42	N	0.946356	0.216229	0.156326
C43	C	0.939909	-0.000111	0.309564
C44	C	0.946937	-0.000115	0.397049
C45	C	0.994159	-0.000097	0.888966
C46	C	0.987549	-0.000096	0.806766
C47	C	0.913122	-0.000094	0.770559
C48	C	0.845299	-0.000085	0.816556
C49	C	0.851910	-0.000080	0.898755
C50	C	0.885725	-0.000101	0.525245
C51	C	0.879119	-0.000108	0.443040
C52	C	1.021370	-0.000118	0.433255
C53	C	1.027974	-0.000118	0.515456
C54	C	0.960152	-0.000105	0.561447
N55	N	0.906364	-0.000095	0.686537
N56	N	0.966911	-0.000098	0.645467
H57	H	0.539959	-0.000096	0.272137
H58	H	0.315566	-0.000099	0.317947
O59	O	1.074438	-0.000100	0.928011
H60	H	1.067644	-0.000104	0.992897
H61	H	0.166436	-0.000120	0.305955
O62	O	0.841896	-0.787209	0.260704
H63	H	0.875647	-0.827013	0.302853
H64	H	1.017604	-0.224559	0.085070
H65	H	1.010505	-0.383125	0.092170
O66	O	0.698655	-0.000089	0.303796
H67	H	0.652861	-0.000104	0.349844
H68	H	0.818508	-0.000120	0.413564
H69	H	0.828430	-0.383141	0.274108
H70	H	0.830499	-0.000091	0.562681
H71	H	0.557705	-0.000111	0.014061
H72	H	0.184197	-0.000123	0.047876
O73	O	1.058632	-0.605510	0.044130
H74	H	1.024888	-0.565683	0.001995
O75	O	0.345480	-0.000123	0.041943
H76	H	0.306490	-0.000118	-0.010919
O77	O	1.060699	-0.000101	0.757163
H78	H	1.043602	-0.000092	0.693922
O79	O	0.719004	-0.000086	0.008125
H80	H	0.680019	-0.000081	-0.044740
O81	O	0.822761	-0.213014	0.279731
H82	H	0.834225	-0.144894	0.268244
O83	O	1.108250	-0.000100	0.554508
H84	H	1.154300	-0.000092	0.508716
O85	O	1.050504	-0.787190	0.052249
H86	H	1.039027	-0.855311	0.063718
O87	O	0.850026	-0.605537	0.252566
H88	H	0.813129	-0.650616	0.289459
H89	H	1.076587	-0.000127	0.395801
O90	O	0.765020	-0.000092	0.777511
H91	H	0.771815	-0.000108	0.712626
O92	O	0.778761	-0.000082	0.948361
H93	H	0.780903	0.056520	0.983505
