data_functionalizedCrystal
_audit_creation_method	'MofGen! by Chris Wilmer'
_symmetry_space_group_name_H-M	'P1'
_symmetry_Int_Tables_number	1
_symmetry_cell_setting	triclinic
loop_
_symmetry_equiv_pos_as_xyz
  x,y,z
_cell_length_a	19.077105
_cell_length_b	13.032318
_cell_length_c	19.076919
_cell_angle_alpha	84.789057
_cell_angle_beta	89.923776
_cell_angle_gamma	85.373553
loop_
_atom_site_label
_atom_site_type_symbol
_atom_site_fract_x
_atom_site_fract_y
_atom_site_fract_z
Zn1	Zn	1.017230	0.500545	0.395940
Zn2	Zn	1.517230	1.000545	0.895940
Zn3	Zn	1.008229	0.666902	0.263651
Zn4	Zn	1.508229	1.166902	0.763651
Zn5	Zn	0.905584	0.486685	0.274965
Zn6	Zn	1.405584	0.986685	0.774965
Zn7	Zn	0.886102	0.666278	0.376459
Zn8	Zn	1.386102	1.166278	0.876459
O9	O	0.954286	0.580103	0.327754
O10	O	1.454286	1.080103	0.827754
O11	O	1.113870	0.528674	0.381810
O12	O	1.613870	1.028674	0.881810
O13	O	0.999000	0.637457	0.167313
O14	O	1.499000	1.137457	0.667313
O15	O	0.932313	0.343741	0.303901
O16	O	1.432313	0.843741	0.803901
O17	O	1.107258	0.650896	0.284618
O18	O	1.607258	1.150896	0.784618
O19	O	1.014339	0.353924	0.392781
O20	O	1.514339	0.853924	0.892781
O21	O	0.923586	0.505051	0.175626
O22	O	1.423586	1.005051	0.675626
O23	O	0.805165	0.504446	0.285011
O24	O	1.305165	1.004446	0.785011
O25	O	0.899110	0.649833	0.476883
O26	O	1.399110	1.149833	0.976883
O27	O	0.790852	0.636393	0.359578
O28	O	1.290852	1.136393	0.859578
O29	O	0.995449	0.528069	0.491195
O30	O	1.495449	1.028069	0.991195
O31	O	0.980109	0.811601	0.265728
O32	O	1.480109	1.311601	0.765728
O33	O	0.890383	0.811143	0.348607
O34	O	1.390383	1.311143	0.848607
C35	C	0.772641	0.568849	0.321409
C36	C	1.272641	1.068849	0.821409
C37	C	0.694929	0.564060	0.318708
C38	C	1.194929	1.064060	0.818708
C39	C	0.650981	0.630604	0.356184
C40	C	1.150981	1.130604	0.856184
C41	C	0.577964	0.626091	0.353651
C42	C	1.077964	1.126091	0.853651
C43	C	0.548896	0.555039	0.313639
C44	C	1.048896	1.055039	0.813639
C45	C	0.592849	0.488488	0.276162
C46	C	1.092849	0.988488	0.776162
C47	C	0.665865	0.492997	0.278699
C48	C	1.165865	0.992997	0.778699
C49	C	0.331319	0.534173	0.301900
C50	C	0.831319	1.034173	0.801900
C51	C	0.258297	0.529672	0.299364
C52	C	0.758297	1.029672	0.799364
C53	C	0.243417	0.667274	0.376855
C54	C	0.743417	1.167274	0.876855
C55	C	0.316435	0.671781	0.379385
C56	C	0.816435	1.171781	0.879385
C57	C	0.360383	0.605226	0.341911
C58	C	0.860383	1.105226	0.841911
N59	N	0.474260	0.550427	0.311047
N60	N	0.974260	1.050427	0.811047
N61	N	0.435017	0.609834	0.344507
N62	N	0.935017	1.109834	0.844507
C63	C	0.932174	0.848915	0.303842
C64	C	1.432174	1.348915	0.803842
C65	C	0.922777	0.963919	0.293638
C66	C	1.422777	1.463919	0.793638
C67	C	0.959143	1.020147	0.333105
C68	C	1.459143	1.520147	0.833105
C69	C	0.949431	1.139010	0.322560
C70	C	1.449431	1.639010	0.822560
C71	C	1.136641	0.591401	0.334125
C72	C	1.636641	1.091401	0.834125
C73	C	1.214350	0.596216	0.336840
C74	C	1.714350	1.096216	0.836840
C75	C	0.946110	0.590428	0.510117
C76	C	1.446110	1.090428	1.010117
C77	C	0.942626	0.594827	0.587829
C78	C	1.442626	1.094827	1.087829
C79	C	0.976461	1.310241	0.351781
C80	C	1.476461	1.810241	0.851781
C81	C	0.985802	1.195236	0.362033
C82	C	1.485802	1.695236	0.862033
C83	C	0.962477	0.569746	0.146109
C84	C	1.462477	1.069746	0.646109
C85	C	0.966120	0.565063	0.068428
C86	C	1.466120	1.065063	0.568428
C87	C	0.991145	0.533502	0.631791
C88	C	1.491145	1.033502	1.131791
C89	C	0.987863	0.537631	0.704810
C90	C	1.487863	1.037631	1.204810
C91	C	0.936065	0.603093	0.733865
C92	C	1.436065	1.103093	1.233865
C93	C	0.887541	0.664421	0.689898
C94	C	1.387541	1.164421	1.189898
C95	C	0.890820	0.660285	0.616880
C96	C	1.390820	1.160285	1.116880
C97	C	0.920876	0.622255	0.951443
C98	C	1.420876	1.122255	1.451443
C99	C	0.917601	0.626388	1.024466
C100	C	1.417601	1.126388	1.524466
C101	C	1.017923	0.499597	1.039373
C102	C	1.517923	0.999597	1.539373
C103	C	1.021200	0.495471	0.966354
C104	C	1.521200	0.995471	1.466354
C105	C	0.972674	0.556795	0.922393
C106	C	1.472674	1.056795	1.422393
N107	N	0.932710	0.607318	0.808502
N108	N	1.432710	1.107318	1.308502
N109	N	0.976026	0.552564	0.847758
N110	N	1.476026	1.052564	1.347758
H111	H	0.701648	0.438804	0.248187
H112	H	1.201648	0.938804	0.748187
H113	H	0.845363	0.717718	0.713560
H114	H	1.345363	1.217718	1.213560
C115	C	1.010902	0.966317	0.389314
C116	C	1.510902	1.466317	0.889314
H117	H	1.032451	1.017007	0.412715
H118	H	1.532451	1.517007	0.912715
H119	H	1.046010	0.924493	0.367389
H120	H	1.546010	1.424493	0.867389
H121	H	0.986168	0.924253	0.422529
H122	H	1.486168	1.424253	0.922529
C123	C	0.682953	0.708767	0.400192
C124	C	1.182953	1.208767	0.900192
H125	H	0.732733	0.701932	0.396330
H126	H	1.232733	1.201932	0.896330
H127	H	0.670128	0.695662	0.448107
H128	H	1.170128	1.195662	0.948107
H129	H	0.665729	0.776937	0.383276
H130	H	1.165729	1.276937	0.883276
H131	H	0.542184	0.680279	0.384167
H132	H	1.042184	1.180279	0.884167
C133	C	0.837451	0.727742	0.568519
C134	C	1.337451	1.227742	1.068519
H135	H	0.846818	0.715896	0.520873
H136	H	1.346818	1.215896	1.020873
H137	H	0.841419	0.798570	0.574653
H138	H	1.341419	1.298570	1.074653
H139	H	0.791186	0.710357	0.580192
H140	H	1.291186	1.210357	1.080192
C141	C	0.348406	0.749932	0.423404
C142	C	0.848406	1.249932	0.923404
H143	H	0.311774	0.788911	0.445366
H144	H	0.811774	1.288911	0.945366
H145	H	0.374385	0.795191	0.393595
H146	H	0.874385	1.295191	0.893595
H147	H	0.378776	0.713900	0.458417
H148	H	0.878776	1.213900	0.958417
H149	H	1.024126	1.155383	0.403635
H150	H	1.524126	1.655383	0.903635
H151	H	0.875418	0.679698	1.048119
H152	H	1.375418	1.179698	1.548119
C153	C	0.195076	0.740468	0.418079
C154	C	0.695076	1.240468	0.918079
H155	H	0.147427	0.727603	0.410844
H156	H	0.647427	1.227603	0.910844
H157	H	0.201786	0.810116	0.402008
H158	H	0.701786	1.310116	0.902008
H159	H	0.206184	0.728822	0.466828
H160	H	0.706184	1.228822	0.966828
C161	C	0.897653	1.192836	0.266363
C162	C	1.397653	1.692836	0.766363
H163	H	0.876093	1.142145	0.242972
H164	H	1.376093	1.642145	0.742972
H165	H	0.922366	1.234916	0.233145
H166	H	1.422366	1.734916	0.733145
H167	H	0.862547	1.234643	0.288309
H168	H	1.362547	1.734643	0.788309
C169	C	0.871002	1.017749	0.237444
C170	C	1.371002	1.517749	0.737444
H171	H	0.849441	0.967058	0.214053
H172	H	1.349441	1.467058	0.714053
H173	H	0.895714	1.059829	0.204226
H174	H	1.395714	1.559829	0.704226
H175	H	0.835895	1.059556	0.259390
H176	H	1.335895	1.559556	0.759390
H177	H	1.063382	0.442168	0.942703
H178	H	1.563382	0.942168	1.442703
C179	C	0.867487	0.689687	0.903097
C180	C	1.367487	1.189687	1.403097
H181	H	0.836169	0.729263	0.930861
H182	H	1.336169	1.229263	1.430861
H183	H	0.841568	0.646586	0.877083
H184	H	1.341568	1.146586	1.377083
H185	H	0.891782	0.734824	0.871525
H186	H	1.391782	1.234824	1.371525
H187	H	0.234634	0.471801	0.266787
H188	H	0.734634	0.971801	0.766787
H189	H	1.033327	0.480199	0.608140
H190	H	1.533327	0.980199	1.108140
H191	H	1.027374	0.487696	0.740601
H192	H	1.527374	0.987696	1.240601
C193	C	1.071292	0.432138	1.087731
C194	C	1.571292	0.932138	1.587731
H195	H	1.061919	0.443968	1.135379
H196	H	1.561919	0.943968	1.635379
H197	H	1.117558	0.449509	1.076061
H198	H	1.617558	0.949509	1.576061
H199	H	1.067314	0.361308	1.081594
H200	H	1.567314	0.861308	1.581594
C201	C	0.379655	0.460973	0.260679
C202	C	0.879655	0.960973	0.760679
H203	H	0.427305	0.473820	0.267924
H204	H	0.927305	0.973820	0.767924
H205	H	0.368550	0.472604	0.211932
H206	H	0.868550	0.972604	0.711932
H207	H	0.372939	0.391324	0.276760
H208	H	0.872939	0.891324	0.776760
C209	C	0.560876	0.410336	0.232147
C210	C	1.060876	0.910336	0.732147
H211	H	0.511095	0.417188	0.235996
H212	H	1.011095	0.917188	0.735996
H213	H	0.578094	0.342164	0.249050
H214	H	1.078094	0.842164	0.749050
H215	H	0.573705	0.423457	0.184230
H216	H	1.073705	0.923457	0.684230
