data_functionalizedCrystal
_audit_creation_method	'MofGen! by Chris Wilmer'
_symmetry_space_group_name_H-M	'P1'
_symmetry_Int_Tables_number	1
_symmetry_cell_setting	triclinic
loop_
_symmetry_equiv_pos_as_xyz
  x,y,z
_cell_length_a	16.959454
_cell_length_b	13.897449
_cell_length_c	13.897441
_cell_angle_alpha	89.973931
_cell_angle_beta	90.027967
_cell_angle_gamma	89.979997
loop_
_atom_site_label
_atom_site_type_symbol
_atom_site_fract_x
_atom_site_fract_y
_atom_site_fract_z
Zn1	Zn	-0.314658	-1.474687	0.545536
Zn2	Zn	0.185342	-0.974687	1.045536
Zn3	Zn	-0.446853	-1.474574	0.384245
Zn4	Zn	0.053147	-0.974574	0.884245
Zn5	Zn	-0.314692	-1.313376	0.384239
Zn6	Zn	0.185308	-0.813376	0.884239
Zn7	Zn	-0.446798	-1.313351	0.545483
Zn8	Zn	0.053202	-0.813351	1.045483
O9	O	-0.380750	-1.393997	0.464876
O10	O	0.119250	-0.893997	0.964876
O11	O	-0.332202	-1.609653	0.524165
O12	O	0.167798	-1.109653	1.024165
O13	O	-0.429359	-1.453154	0.249262
O14	O	0.070641	-0.953154	0.749262
O15	O	-0.204077	-1.334832	0.405656
O16	O	0.295923	-0.834832	0.905656
O17	O	-0.429326	-1.609571	0.405665
O18	O	0.070674	-1.109571	0.905665
O19	O	-0.204051	-1.453346	0.524160
O20	O	0.295949	-0.953346	1.024160
O21	O	-0.332261	-1.334722	0.249258
O22	O	0.167739	-0.834722	0.749258
O23	O	-0.332208	-1.178391	0.405604
O24	O	0.167792	-0.678391	0.905604
O25	O	-0.429232	-1.334789	0.680471
O26	O	0.070768	-0.834789	1.180471
O27	O	-0.429265	-1.178373	0.524069
O28	O	0.070735	-0.678373	1.024069
O29	O	-0.332149	-1.453322	0.680511
O30	O	0.167851	-0.953322	1.180511
O31	O	-0.557457	-1.453130	0.405613
O32	O	-0.057457	-0.953130	0.905613
O33	O	-0.557416	-1.334680	0.524074
O34	O	-0.057416	-0.834680	1.024074
C35	C	-0.380735	-1.143382	0.464830
C36	C	0.119265	-0.643382	0.964830
C37	C	-0.380747	-1.036169	0.464834
C38	C	0.119253	-0.536169	0.964834
C39	C	-0.586117	-1.393916	0.464859
C40	C	-0.086117	-0.893916	0.964859
C41	C	-0.673973	-1.393970	0.464885
C42	C	-0.173973	-0.893970	0.964885
C43	C	-0.380749	-0.949099	0.464846
C44	C	0.119251	-0.449099	0.964846
C45	C	-0.380753	-0.839866	0.464870
C46	C	0.119247	-0.339866	0.964870
C47	C	-1.045458	-1.332409	0.526552
C48	C	-0.545458	-0.832409	1.026552
C49	C	-1.045440	-1.455853	0.403298
C50	C	-0.545440	-0.955853	0.903298
C51	C	-0.962894	-1.455819	0.403289
C52	C	-0.462894	-0.955819	0.903289
C53	C	-0.921626	-1.394079	0.464911
C54	C	-0.421626	-0.894079	0.964911
C55	C	-0.962904	-1.332372	0.526543
C56	C	-0.462904	-0.832372	1.026543
C57	C	-0.921610	-1.517518	0.341653
C58	C	-0.421610	-1.017518	0.841653
C59	C	-0.839059	-1.517486	0.341640
C60	C	-0.339059	-1.017486	0.841640
C61	C	-0.797789	-1.455750	0.403268
C62	C	-0.297789	-0.955750	0.903268
C63	C	-0.839073	-1.394041	0.464902
C64	C	-0.339073	-0.894041	0.964902
C65	C	-0.797805	-1.332300	0.526525
C66	C	-0.297805	-0.832300	1.026525
C67	C	-0.839086	-1.270596	0.588165
C68	C	-0.339086	-0.770596	1.088165
C69	C	-0.921635	-1.270635	0.588170
C70	C	-0.421635	-0.770635	1.088170
C71	C	-0.715241	-1.455710	0.403262
C72	C	-0.215241	-0.955710	0.903262
C73	C	-0.715251	-1.332263	0.526516
C74	C	-0.215251	-0.832263	1.026516
C75	C	-0.174582	-1.394104	0.464913
C76	C	0.325418	-0.894104	0.964913
C77	C	-0.086725	-1.394150	0.464929
C78	C	0.413275	-0.894150	0.964929
C79	C	-0.380680	-1.394065	0.716469
C80	C	0.119320	-0.894065	1.216469
C81	C	-0.380651	-1.394094	0.823683
C82	C	0.119349	-0.894094	1.323683
C83	C	-0.380763	-0.645590	0.464910
C84	C	0.119237	-0.145590	0.964910
C85	C	-0.380760	-0.752804	0.464895
C86	C	0.119240	-0.252804	0.964895
C87	C	-0.380763	-1.393984	0.214261
C88	C	0.119237	-0.893984	0.714261
C89	C	-0.380570	-1.394142	0.107048
C90	C	0.119430	-0.894142	0.607048
C91	C	-0.380597	-1.394121	1.019978
C92	C	0.119403	-0.894121	1.519978
C93	C	-0.380629	-1.394103	0.910746
C94	C	0.119371	-0.894103	1.410746
H95	H	-0.805477	-1.220322	0.638334
H96	H	-0.305477	-0.720322	1.138334
N97	N	-1.087622	-1.269367	0.589495
N98	N	-0.587622	-0.769367	1.089495
N99	N	-1.078459	-1.180359	0.583001
N100	N	-0.578459	-0.680359	1.083001
H101	H	-1.108238	-1.135833	0.627454
H102	H	-0.608238	-0.635833	1.127454
N103	N	-0.963815	-1.207620	0.651125
N104	N	-0.463815	-0.707620	1.151125
N105	N	-1.037518	-1.207664	0.651121
N106	N	-0.537518	-0.707664	1.151121
H107	H	-1.067312	-1.163159	0.695582
H108	H	-0.567312	-0.663159	1.195582
H109	H	-0.681633	-1.505945	0.353072
H110	H	-0.181633	-1.005945	0.853072
H111	H	-0.805452	-1.567730	0.291451
H112	H	-0.305452	-1.067730	0.791451
H113	H	-0.955216	-1.567777	0.291476
H114	H	-0.455216	-1.067777	0.791476
N115	N	-0.673112	-1.269196	0.589477
N116	N	-0.173112	-0.769196	1.089477
N117	N	-0.709982	-1.214116	0.644505
N118	N	-0.209982	-0.714116	1.144505
H119	H	-0.680222	-1.169576	0.688974
H120	H	-0.180222	-0.669576	1.188974
N121	N	-1.087603	-1.518901	0.340354
N122	N	-0.587603	-1.018901	0.840354
N123	N	-1.161306	-1.518920	0.340366
N124	N	-0.661306	-1.018920	0.840366
H125	H	-1.191088	-1.563450	0.295909
H126	H	-0.691088	-1.063450	0.795909
