data_functionalizedCrystal
_audit_creation_method	'MofGen! by Chris Wilmer'
_symmetry_space_group_name_H-M	'P1'
_symmetry_Int_Tables_number	1
_symmetry_cell_setting	triclinic
loop_
_symmetry_equiv_pos_as_xyz
  x,y,z
_cell_length_a	17.019311
_cell_length_b	10.654541
_cell_length_c	9.730217
_cell_angle_alpha	90.003041
_cell_angle_beta	93.881130
_cell_angle_gamma	83.939275
loop_
_atom_site_label
_atom_site_type_symbol
_atom_site_fract_x
_atom_site_fract_y
_atom_site_fract_z
O1	O	-1.047546	-0.160036	-0.238265
O2	O	-0.817993	-0.180427	-0.211101
O3	O	-0.938049	0.012591	-0.225299
O4	O	-0.927491	-0.353053	-0.224067
O5	O	-0.938045	0.012592	0.003281
O6	O	-0.817990	-0.180425	0.017480
O7	O	-1.047542	-0.160034	-0.009685
Zn8	Zn	-0.932765	-0.170229	0.040190
Zn9	Zn	-0.932770	-0.170232	-0.260975
O10	O	-0.927487	-0.353052	0.004514
C11	C	-0.937272	0.059378	-0.110918
C12	C	-0.934954	0.198785	-0.110646
C13	C	-0.788598	-0.179651	-0.093332
C14	C	-0.701016	-0.177327	-0.082968
C15	C	-1.076937	-0.160810	-0.127456
C16	C	-1.164520	-0.163134	-0.137830
C17	C	-0.205663	-0.164225	-0.018100
C18	C	-0.287956	-0.166408	-0.027842
C19	C	-0.329105	-0.167492	-0.157314
C20	C	-0.287957	-0.166404	-0.277052
C21	C	-0.205664	-0.164229	-0.267310
C22	C	-0.577575	-0.174065	-0.192964
C23	C	-0.659873	-0.176236	-0.202697
C24	C	-0.659867	-0.176243	0.046515
C25	C	-0.577573	-0.174060	0.056246
C26	C	-0.536431	-0.172980	-0.063493
C27	C	-0.413223	-0.169720	-0.167274
C28	C	-0.452315	-0.170761	-0.053531
C29	C	-0.928264	-0.399838	-0.109870
C30	C	-0.930582	-0.539246	-0.110151
N31	N	-0.932768	-0.170227	0.245726
C32	C	-1.078512	0.228998	-0.127617
C33	C	-1.149199	0.309596	-0.135970
C34	C	-1.147016	0.440580	-0.135716
C35	C	-1.074139	0.490967	-0.127112
C36	C	-1.003452	0.410369	-0.118759
C37	C	-1.005643	0.279384	-0.119010
C38	C	-0.859895	0.380156	-0.101798
C39	C	-0.862076	0.249172	-0.102042
C40	C	-0.787017	0.430543	-0.093194
C41	C	-0.716329	0.349944	-0.084830
C42	C	-0.718515	0.218953	-0.085083
C43	C	-0.791389	0.168573	-0.093688
N44	N	-0.932774	-0.170224	-0.466512
C45	C	-1.039121	0.000641	0.233138
C46	C	-1.092302	0.086072	0.298784
C47	C	-1.092310	0.086073	0.442663
C48	C	-1.039129	0.000636	0.520900
C49	C	-0.985948	-0.084794	0.455255
C50	C	-0.985947	-0.084788	0.311372
C51	C	-0.879593	-0.255654	0.467842
C52	C	-0.879587	-0.255663	0.323963
C53	C	-0.826412	-0.341091	0.546080
C54	C	-0.773233	-0.426529	0.480434
C55	C	-0.773227	-0.426528	0.336546
C56	C	-0.826405	-0.341094	0.258318
H57	H	-0.172164	-0.163348	0.087330
H58	H	-1.135612	0.155642	0.496111
Br59	Br	-1.164469	0.202025	0.192606
Br60	Br	-0.343801	-0.167879	-0.452767
H61	H	-0.544077	-0.173151	0.161675
Br62	Br	-0.343789	-0.167902	0.134657
Br63	Br	-0.617434	0.418333	-0.073177
H64	H	-0.544087	-0.173181	-0.290463
H65	H	-0.793176	0.061921	-0.093887
Br66	Br	-0.715706	-0.177717	0.209008
Br67	Br	-0.701059	-0.542456	0.586615
H68	H	-1.039133	0.000653	0.638054
H69	H	-0.826409	-0.341089	0.141163
H70	H	-0.693374	-0.177128	-0.308134
H71	H	-1.039126	0.000639	0.115983
H72	H	-0.826417	-0.341081	0.663234
Br73	Br	-0.149825	-0.162761	-0.429806
Br74	Br	-1.242948	0.549969	-0.147071
Br75	Br	-0.701041	-0.542466	0.247470
Br76	Br	-0.469076	-0.171176	-0.342982
Br77	Br	-0.784053	0.608308	-0.092950
Br78	Br	-1.081480	0.051234	-0.127923
Br79	Br	-1.071177	0.668733	-0.126875
Br80	Br	-1.248100	0.241209	-0.147661
H81	H	-0.418807	-0.169886	0.051885
Br82	Br	-0.622576	0.109579	-0.073762
