data_functionalizedCrystal
_audit_creation_method	'MofGen! by Chris Wilmer'
_symmetry_space_group_name_H-M	'P1'
_symmetry_Int_Tables_number	1
_symmetry_cell_setting	triclinic
loop_
_symmetry_equiv_pos_as_xyz
  x,y,z
_cell_length_a	14.519710
_cell_length_b	10.654550
_cell_length_c	13.596369
_cell_angle_alpha	89.994113
_cell_angle_beta	90.000021
_cell_angle_gamma	95.917462
loop_
_atom_site_label
_atom_site_type_symbol
_atom_site_fract_x
_atom_site_fract_y
_atom_site_fract_z
O1	O	1.224716	-0.164626	0.081770
O2	O	0.956340	-0.184013	0.081776
O3	O	1.096698	0.008479	0.081767
O4	O	1.084357	-0.357118	0.081779
O5	O	1.096696	0.008491	-0.081816
O6	O	0.956337	-0.184001	-0.081807
O7	O	1.224714	-0.164614	-0.081813
Zn8	Zn	1.090525	-0.174305	-0.107782
Zn9	Zn	1.090528	-0.174321	0.107745
O10	O	1.084355	-0.357106	-0.081804
C11	C	0.921974	-0.183103	-0.000014
C12	C	0.819579	-0.180396	-0.000012
C13	C	1.259079	-0.165524	-0.000020
C14	C	1.361475	-0.168231	-0.000016
C15	C	1.095791	0.055275	-0.000024
C16	C	1.093080	0.194692	-0.000023
C17	C	1.736422	-0.178198	-0.000016
C18	C	1.632100	-0.175430	-0.000016
C19	C	1.548952	-0.173215	-0.000015
C20	C	1.444623	-0.170446	-0.000017
C21	C	1.085262	-0.403901	-0.000011
C22	C	1.087973	-0.543318	-0.000006
N23	N	1.090530	-0.174294	-0.254874
C24	C	1.175721	0.274972	-0.000024
C25	C	1.173168	0.405968	-0.000012
C26	C	1.005326	0.376391	-0.000001
C27	C	1.007880	0.245397	-0.000006
N28	N	1.090531	-0.174323	0.254837
C29	C	1.090526	-0.174309	0.656128
C30	C	1.090524	-0.174317	0.544477
C31	C	1.090528	-0.174316	0.455486
C32	C	1.090527	-0.174324	0.343828
H33	H	1.240463	0.471328	-0.000012
C34	C	0.913384	0.080915	0.084092
C35	C	0.917033	0.157144	-0.000001
H36	H	0.857298	0.026439	0.084099
H37	H	0.964483	0.031975	0.084079
H38	H	0.915880	0.132639	0.141130
H39	H	0.914543	0.105421	-0.057039
H40	H	0.865919	0.206089	0.000003
C41	C	1.275971	0.144843	-0.084128
C42	C	1.269373	0.219238	-0.000032
H43	H	1.333793	0.110447	-0.084131
H44	H	1.227128	0.078284	-0.084123
H45	H	1.271484	0.195355	-0.141164
H46	H	1.273853	0.168724	0.057004
H47	H	1.318230	0.285806	-0.000029
C48	C	0.926885	0.564064	-0.000001
C49	C	0.911677	0.432132	0.000003
H50	H	0.869068	0.598470	-0.000007
H51	H	0.960941	0.591592	0.057041
H52	H	0.960949	0.591602	-0.057050
H53	H	0.877619	0.404593	0.057056
H54	H	0.877607	0.404593	-0.057044
