data_functionalizedCrystal
_audit_creation_method	'MofGen! by Chris Wilmer'
_symmetry_space_group_name_H-M	'P1'
_symmetry_Int_Tables_number	1
_symmetry_cell_setting	triclinic
loop_
_symmetry_equiv_pos_as_xyz
  x,y,z
_cell_length_a	19.902436
_cell_length_b	17.917559
_cell_length_c	17.917603
_cell_angle_alpha	60.142335
_cell_angle_beta	90.004008
_cell_angle_gamma	63.036947
loop_
_atom_site_label
_atom_site_type_symbol
_atom_site_fract_x
_atom_site_fract_y
_atom_site_fract_z
Zr1	Zr	0.685760	0.806670	-0.128892
O2	O	0.589364	0.951696	-0.249418
O3	O	0.710689	0.654458	-0.087258
O4	O	0.722881	0.796291	-0.242647
O5	O	0.572812	0.820556	0.023214
O6	O	0.833459	0.796277	-0.242637
O7	O	0.577172	0.809863	-0.094029
O8	O	0.811650	0.542565	0.035325
O9	O	0.594622	1.074268	-0.254749
O10	O	0.809428	0.719716	-0.075156
O11	O	0.723651	0.727706	0.012333
O12	O	0.738006	0.894695	-0.170617
O13	O	0.652229	0.902685	-0.083128
Zr14	Zr	0.855166	0.823702	0.058113
Zr15	Zr	0.862119	0.806648	-0.128876
Zr16	Zr	0.678807	0.823723	0.058096
Zr17	Zr	0.694145	1.002159	-0.137394
Zr18	Zr	0.846781	0.628212	0.066615
O19	O	0.830237	0.975913	0.016479
O20	O	0.840124	0.951665	-0.249395
O21	O	0.579477	0.975944	0.016456
O22	O	0.951562	0.678675	0.178638
O23	O	0.961449	0.654427	-0.087235
O24	O	0.700802	0.678706	0.178615
O25	O	0.968114	0.809815	-0.093993
O26	O	0.818045	0.834080	0.171868
O27	O	0.707467	0.834094	0.171857
O28	O	0.963754	0.820508	0.023249
O29	O	0.734803	1.074251	-0.254736
O30	O	0.806123	0.556120	0.183956
O31	O	0.946305	0.556103	0.183969
O32	O	0.951832	0.542548	0.035338
O33	O	0.589095	1.087824	-0.106118
O34	O	0.729276	1.087806	-0.106105
O35	O	0.802921	0.735676	0.099838
O36	O	0.888697	0.727686	0.012348
O37	O	0.817275	0.902665	-0.083113
O38	O	0.731498	0.910655	0.004376
C39	C	0.759975	0.570658	-0.024755
C40	C	0.756415	0.487668	-0.021146
C41	C	0.790956	0.294708	-0.056283
C42	C	0.749972	0.335668	-0.014499
C43	C	0.753558	0.420249	-0.018198
C44	C	0.787371	0.210119	-0.052584
C45	C	0.549865	0.815213	-0.035410
C46	C	0.474996	0.815222	-0.035417
C47	C	0.202991	0.815173	-0.035381
C48	C	0.186417	0.925578	-0.095335
C49	C	0.264269	0.925622	-0.095643
C50	C	0.337935	0.815198	-0.035399
C51	C	0.334562	0.754210	-0.073156
C52	C	0.256382	0.754911	-0.073594
C53	C	0.252214	0.764933	0.062392
C54	C	0.329234	0.767089	0.062151
C55	C	0.414203	0.815206	-0.035408
C56	C	0.126725	0.815161	-0.035375
C57	C	0.991061	0.815158	-0.035370
C58	C	1.065930	0.815149	-0.035363
C59	C	0.779161	0.793854	-0.269284
C60	C	0.782113	0.786614	-0.348666
C61	C	0.780951	1.059713	-0.046025
C62	C	0.784511	1.142703	-0.049634
C63	C	0.787522	0.773390	-0.494022
C64	C	0.753406	0.856977	-0.576760
C65	C	0.756416	0.849619	-0.657642
C66	C	0.784513	0.780746	-0.413132
C67	C	0.761765	0.836517	0.198504
C68	C	0.758814	0.843757	0.277886
C69	C	0.980573	0.570631	-0.024735
C70	C	1.051882	0.487632	-0.021119
C71	C	0.751277	0.591990	0.209139
C72	C	0.744766	0.516239	0.292130
C73	C	0.971875	0.591963	0.209159
C74	C	1.040233	0.516203	0.292157
C75	C	0.569051	1.038408	-0.279939
C76	C	0.500693	1.114168	-0.362937
C77	C	0.560353	1.059740	-0.046045
C78	C	0.489044	1.142739	-0.049661
C79	C	0.789649	1.038381	-0.279919
C80	C	0.796160	1.114132	-0.362910
C81	C	1.043992	0.444494	-0.065105
C82	C	1.110989	0.366516	-0.061725
C83	C	1.185875	0.331673	-0.014353
C84	C	1.193764	0.374819	0.029634
C85	C	1.126768	0.452800	0.026248
C86	C	0.783085	0.484827	0.376788
C87	C	0.776964	0.413663	0.454773
C88	C	0.732528	0.373907	0.448099
C89	C	0.694203	0.405326	0.363432
C90	C	0.700320	0.476495	0.285449
C91	C	1.117116	0.476455	0.285465
C92	C	1.181353	0.405281	0.363443
C93	C	1.168704	0.373851	0.448112
C94	C	1.091813	0.413607	0.454802
C95	C	1.027578	0.484785	0.376825
C96	C	0.423810	1.153926	-0.356245
C97	C	0.359575	1.225124	-0.434224
C98	C	0.372224	1.256558	-0.518893
C99	C	0.449115	1.216797	-0.525583
C100	C	0.513349	1.145606	-0.447605
C101	C	0.496934	1.185885	-0.005683
C102	C	0.429939	1.263882	-0.009085
C103	C	0.355053	1.298727	-0.056459
C104	C	0.347165	1.255578	-0.100443
C105	C	0.414160	1.177587	-0.097046
C106	C	0.840603	1.153865	-0.356207
C107	C	0.846737	1.225031	-0.434178
C108	C	0.808423	1.256468	-0.518851
C109	C	0.763978	1.216727	-0.525552
C110	C	0.757850	1.145557	-0.447582
H111	H	0.828734	0.323161	-0.094832
O112	O	0.461437	1.247111	-0.607800
C113	C	0.501547	1.162979	-0.613688
H114	H	0.534596	1.091128	-0.543138
H115	H	0.457219	1.158635	-0.649155
C116	C	0.520009	1.262251	-0.754165
C117	C	0.560605	1.174004	-0.667513
H118	H	0.556436	1.269052	-0.787370
H119	H	0.492983	1.318934	-0.750200
H120	H	0.483070	1.258620	-0.783709
H121	H	0.597536	1.177641	-0.637967
H122	H	0.587639	1.117321	-0.671474
O123	O	0.588085	1.106929	-0.453954
C124	C	0.642077	1.037339	-0.366980
H125	H	0.613385	1.054627	-0.318081
H126	H	0.659890	0.957509	-0.344442
C127	C	0.750991	1.024570	-0.428531
C128	C	0.715753	1.045810	-0.368474
H129	H	0.796440	1.029792	-0.429452
H130	H	0.714616	1.071452	-0.487127
H131	H	0.765828	0.958046	-0.409742
H132	H	0.700908	1.112337	-0.387270
H133	H	0.752127	0.998940	-0.309881
O134	O	0.715968	0.948965	-0.588849
C135	C	0.751804	1.002935	-0.637359
H136	H	0.814824	0.947668	-0.628787
H137	H	0.717041	1.056044	-0.711716
C138	C	0.675376	1.132686	-0.612016
C139	C	0.752781	1.064805	-0.601480
H140	H	0.675976	1.170854	-0.589888
H141	H	0.651230	1.096328	-0.579336
H142	H	0.646416	1.176934	-0.673981
H143	H	0.781737	1.020551	-0.539516
H144	H	0.776932	1.101157	-0.634148
H145	H	0.818986	0.696310	-0.483933
H146	H	0.270705	0.673646	-0.032486
O147	O	0.263905	0.982159	-0.065678
C148	C	0.257302	0.940756	0.022562
H149	H	0.229409	0.893941	0.034719
H150	H	0.318374	0.890529	0.072850
C151	C	0.239523	1.084119	0.019665
C152	C	0.205260	1.026626	0.034594
H153	H	0.207425	1.137086	0.027090
H154	H	0.243976	1.112011	-0.039782
H155	H	0.290417	1.042252	0.061574
H156	H	0.154372	1.068490	-0.007321
H157	H	0.200798	0.998743	0.094035
O158	O	0.309880	1.325601	-0.594695
C159	C	0.310207	1.282934	-0.643000
H160	H	0.372448	1.218098	-0.623817
H161	H	0.268589	1.253260	-0.625993
C162	C	0.206261	1.443625	-0.768213
C163	C	0.282708	1.363998	-0.744658
H164	H	0.189295	1.493629	-0.830921
H165	H	0.206038	1.472371	-0.735669
H166	H	0.171589	1.418884	-0.754034
H167	H	0.317380	1.388737	-0.758826
H168	H	0.282936	1.335258	-0.777207
O169	O	0.971221	0.478508	-0.111199
C170	C	0.935030	0.581926	-0.180067
H171	H	0.962594	0.616743	-0.162298
H172	H	0.943963	0.590829	-0.246226
C173	C	0.812343	0.593071	-0.211751
C174	C	0.846193	0.635836	-0.189924
H175	H	0.757544	0.626325	-0.217835
H176	H	0.836726	0.523395	-0.165356
H177	H	0.819795	0.600493	-0.266882
H178	H	0.838750	0.628402	-0.134789
H179	H	0.821807	0.705512	-0.236310
O180	O	1.103173	0.324688	-0.104466
C181	C	1.022710	0.372176	-0.147007
H182	H	0.985256	0.407572	-0.112571
H183	H	1.007511	0.433445	-0.220847
C184	C	1.051943	0.249999	-0.182545
C185	C	1.005942	0.293465	-0.140244
H186	H	1.041599	0.201448	-0.178377
H187	H	1.106153	0.218007	-0.153887
H188	H	1.039272	0.301065	-0.244074
H189	H	1.018620	0.242402	-0.078714
H190	H	0.951733	0.325447	-0.168892
O191	O	0.952885	0.523545	0.383281
C192	C	0.915779	0.629133	0.338103
H193	H	0.962455	0.650180	0.333718
H194	H	0.878496	0.667453	0.267369
C195	C	0.805232	0.638422	0.395611
C196	C	0.862560	0.664273	0.390232
H197	H	0.772400	0.660101	0.427763
H198	H	0.830229	0.567287	0.426046
H199	H	0.774170	0.670358	0.336662
H200	H	0.893626	0.632327	0.449179
H201	H	0.837566	0.735405	0.359808
O202	O	0.144331	0.971656	-0.180984
C203	C	0.187479	0.916641	-0.216915
H204	H	0.252865	0.870052	-0.179253
H205	H	0.166635	0.864194	-0.209301
C206	C	0.094137	1.047548	-0.363580
C207	C	0.174446	0.990333	-0.317328
H208	H	0.086096	1.093003	-0.425521
H209	H	0.065066	1.084612	-0.339373
H210	H	0.076776	1.003832	-0.357226
H211	H	0.191803	1.034048	-0.323674
H212	H	0.203520	0.953278	-0.341539
H213	H	0.813419	1.314420	-0.582333
H214	H	1.133203	0.487915	0.062073
H215	H	0.712187	0.307217	0.024047
O216	O	0.140780	0.982424	-0.065559
C217	C	0.123182	0.923192	0.009983
H218	H	0.128843	0.857460	0.009040
H219	H	0.166092	0.892726	0.074096
C220	C	0.031392	1.069169	0.008330
C221	C	0.038339	0.988441	0.007167
H222	H	-0.020941	1.109418	0.006596
H223	H	0.043250	1.109075	-0.042562
H224	H	0.067156	1.043768	0.061758
H225	H	0.002583	1.013842	-0.046266
H226	H	0.026473	0.948541	0.058050
H227	H	1.240421	0.268175	-0.011602
O228	O	1.129273	0.507058	0.203155
C229	C	1.056100	0.578427	0.135751
H230	H	1.007841	0.568274	0.165365
H231	H	1.042539	0.657863	0.108875
C232	C	1.118952	0.575268	0.022052
C233	C	1.059680	0.562791	0.058423
H234	H	1.121160	0.565627	-0.025650
H235	H	1.168251	0.527188	0.067462
H236	H	1.107644	0.641465	-0.000337
H237	H	1.070994	0.496592	0.080822
H238	H	1.010383	0.610860	0.013014
H239	H	1.254745	0.346439	0.068203
H240	H	1.221015	0.315892	0.511598
H241	H	0.436377	1.299002	0.026736
O242	O	0.814279	0.383221	0.536942
C243	C	0.854801	0.433584	0.526100
H244	H	0.867175	0.459635	0.458141
H245	H	0.817116	0.501878	0.529256
C246	C	0.918061	0.329160	0.685262
C247	C	0.933264	0.361148	0.601797
H248	H	0.966459	0.284480	0.731958
H249	H	0.890758	0.295231	0.692568
H250	H	0.886655	0.386079	0.687879
H251	H	0.964661	0.304231	0.599177
H252	H	0.960574	0.395065	0.594493
O253	O	0.726779	1.247417	-0.607879
C254	C	0.741737	1.318739	-0.675250
H255	H	0.757993	1.355466	-0.647642
H256	H	0.792576	1.279304	-0.696958
C257	C	0.647476	1.355196	-0.790719
C258	C	0.667435	1.400311	-0.756813
H259	H	0.601645	1.405512	-0.841033
H260	H	0.637400	1.307143	-0.745331
H261	H	0.689848	1.322335	-0.808802
H262	H	0.625068	1.433160	-0.738720
H263	H	0.677502	1.448372	-0.802200
O264	O	0.267722	0.971809	-0.181727
C265	C	0.334770	0.903471	-0.189517
H266	H	0.380226	0.842160	-0.120536
H267	H	0.317054	0.867478	-0.216813
C268	C	0.314709	1.035569	-0.339059
C269	C	0.370541	0.960270	-0.254336
H270	H	0.336773	1.070605	-0.379045
H271	H	0.269536	1.081610	-0.333813
H272	H	0.299950	1.005563	-0.361794
H273	H	0.385292	0.990278	-0.231598
H274	H	0.415718	0.914236	-0.259580
O275	O	0.218095	0.795780	-0.159305
C276	C	0.265862	0.737373	-0.190404
H277	H	0.330219	0.693620	-0.150330
H278	H	0.247728	0.682132	-0.181299
C279	C	0.176555	0.861037	-0.340025
C280	C	0.255600	0.807305	-0.290810
H281	H	0.170223	0.904172	-0.401961
H282	H	0.144372	0.900385	-0.319073
H283	H	0.161453	0.814993	-0.332428
H284	H	0.270698	0.853348	-0.298399
H285	H	0.287786	0.767966	-0.311766
O286	O	0.726566	0.304875	0.523917
C287	C	0.692077	0.347560	0.572213
H288	H	0.701376	0.412409	0.552997
H289	H	0.626233	0.377221	0.555230
C290	C	0.719364	0.186874	0.697467
C291	C	0.730792	0.266516	0.673871
H292	H	0.743242	0.136882	0.760175
H293	H	0.742598	0.158116	0.664928
H294	H	0.664493	0.211604	0.683307
H295	H	0.785662	0.241788	0.688020
H296	H	0.707569	0.295269	0.706415
O297	O	0.569617	1.152194	0.040348
C298	C	0.562198	1.206997	0.078446
H299	H	0.504147	1.282776	0.039173
H300	H	0.563128	1.162331	0.151561
C301	C	0.702553	1.131761	0.122582
C302	C	0.631257	1.224837	0.074342
H303	H	0.745153	1.142762	0.120055
H304	H	0.707552	1.094835	0.096918
H305	H	0.703317	1.094548	0.183507
H306	H	0.630489	1.262043	0.013416
H307	H	0.626258	1.261770	0.099995
H308	H	0.819270	0.517189	0.382239
H309	H	0.658023	0.372947	0.358012
H310	H	0.669118	0.502060	0.216520
H311	H	1.243955	0.372918	0.357980
H312	H	0.407724	1.142460	-0.132856
O313	O	0.209295	0.812489	0.100705
C314	C	0.201643	0.743146	0.179597
H315	H	0.209907	0.678047	0.175701
H316	H	0.248310	0.712636	0.240567
C317	C	0.108930	0.876509	0.193463
C318	C	0.119074	0.796557	0.188674
H319	H	0.057999	0.909454	0.199066
H320	H	0.114087	0.923227	0.140314
H321	H	0.147824	0.851072	0.244271
H322	H	0.080186	0.821996	0.137861
H323	H	0.113908	0.749844	0.241815
H324	H	0.386318	0.672789	-0.031376
H325	H	1.081525	0.388006	0.523749
O326	O	0.411375	1.123552	-0.274076
C327	C	0.329736	1.173910	-0.284910
H328	H	0.298091	1.246876	-0.354913
H329	H	0.306579	1.123338	-0.276568
C330	C	0.353455	1.109050	-0.127471
C331	C	0.314589	1.198673	-0.213447
H332	H	0.344111	1.124321	-0.083387
H333	H	0.408457	1.075119	-0.120171
H334	H	0.334153	1.066915	-0.120532
H335	H	0.333898	1.240800	-0.220388
H336	H	0.259590	1.232611	-0.220747
H337	H	0.296973	1.257486	-0.428760
H338	H	0.300508	1.362233	-0.059218
O339	O	0.877778	1.123510	-0.274015
C340	C	0.849314	1.207593	-0.268067
H341	H	0.823611	1.279480	-0.338603
H342	H	0.801534	1.211894	-0.232466
C343	C	0.949054	1.108229	-0.127742
C344	C	0.917491	1.196522	-0.214376
H345	H	0.991108	1.101399	-0.094620
H346	H	0.968230	1.051580	-0.131747
H347	H	0.909230	1.111824	-0.098087
H348	H	0.957313	1.192921	-0.244034
H349	H	0.898324	1.253171	-0.210375
H350	H	0.340401	0.787688	-0.144282
H351	H	0.329531	0.811623	0.090402
H352	H	0.381430	0.686901	0.110190
H353	H	0.266956	0.683663	0.107214
H354	H	0.286184	1.283961	-0.139014
H355	H	0.882926	1.257382	-0.428704
H356	H	0.721656	1.113213	-0.453052
