data_functionalizedCrystal
_audit_creation_method	'MofGen! by Chris Wilmer'
_symmetry_space_group_name_H-M	'P1'
_symmetry_Int_Tables_number	1
_symmetry_cell_setting	triclinic
loop_
_symmetry_equiv_pos_as_xyz
  x,y,z
_cell_length_a	6.817900
_cell_length_b	12.908942
_cell_length_c	10.992743
_cell_angle_alpha	94.369217
_cell_angle_beta	108.770538
_cell_angle_gamma	100.860556
loop_
_atom_site_label
_atom_site_type_symbol
_atom_site_fract_x
_atom_site_fract_y
_atom_site_fract_z
V1	V	-4.073780	-0.145820	-0.399874
O2	O	-4.074378	0.007040	-0.392998
O3	O	-4.011531	-0.289169	-0.396432
O4	O	-4.052020	-0.143563	-0.574596
O5	O	-4.033609	-0.139574	-0.213601
V6	V	-4.555751	-0.127538	-0.377680
O7	O	-4.338444	-0.185924	-0.448559
O8	O	-4.741284	-0.087435	-0.328996
O9	O	-4.394794	0.015811	-0.381123
O10	O	-4.672550	-0.280399	-0.384557
O11	O	-4.713319	-0.133784	-0.563954
O12	O	-4.354305	-0.129796	-0.202959
C13	C	-3.852301	-0.324115	-0.389941
C14	C	-3.882869	-0.441304	-0.388292
C15	C	-4.305527	-0.672256	-0.397987
C16	C	-4.334258	-0.782366	-0.396438
C17	C	-3.969069	-0.771638	-0.383652
C18	C	-3.940338	-0.661527	-0.385201
C19	C	-4.108574	-0.611841	-0.392368
C20	C	-4.079836	-0.501727	-0.393908
C21	C	-3.714654	-0.491002	-0.381131
C22	C	-3.743385	-0.601112	-0.379582
C23	C	-3.903947	-0.138378	-0.617206
C24	C	-3.967348	-0.137481	-0.760037
C25	C	-4.278261	-0.142971	-0.971103
C26	C	-4.212330	-0.143500	-0.822469
C27	C	-3.846083	-0.032856	-0.791324
C28	C	-3.913414	-0.031888	-0.939971
C29	C	-3.979840	-0.233151	-0.977256
C30	C	-3.918504	-0.235531	-0.829030
C31	C	-4.217365	0.050751	-0.387610
C32	C	-4.166036	0.167939	-0.389268
C33	C	-4.165718	-0.134984	-0.160342
C34	C	-4.081556	-0.135876	-0.017510
H35	H	-3.606422	-0.641583	-0.373752
F36	F	-3.720528	-0.019487	-0.978308
F37	F	-4.258885	-0.448848	-0.401533
H38	H	-4.442502	-0.631798	-0.403803
H39	H	-4.494634	-0.831554	-0.401016
F40	F	-3.788066	-0.227643	-1.015801
F41	F	-3.790052	-0.824538	-0.376040
F42	F	-3.505029	-0.426695	-0.375152
F43	F	-4.336944	-0.241784	-0.796367
H44	H	-4.406278	-0.217765	-1.023374
H45	H	-4.355639	-0.073104	-0.998176
H46	H	-4.257523	-0.073596	-0.776564
H47	H	-3.980078	0.041679	-0.963421
H48	H	-3.666751	-0.024640	-0.749498
H49	H	-3.879189	0.039979	-0.742889
F50	F	-4.129163	-0.335695	-1.048106
F51	F	-4.036931	-0.336619	-0.804801
F52	F	-3.689247	-0.237759	-0.774455
