data_functionalizedCrystal
_audit_creation_method	'MofGen! by Chris Wilmer'
_symmetry_space_group_name_H-M	'P1'
_symmetry_Int_Tables_number	1
_symmetry_cell_setting	triclinic
loop_
_symmetry_equiv_pos_as_xyz
  x,y,z
_cell_length_a	16.120530
_cell_length_b	25.639240
_cell_length_c	16.120256
_cell_angle_alpha	92.863576
_cell_angle_beta	90.128265
_cell_angle_gamma	87.127770
loop_
_atom_site_label
_atom_site_type_symbol
_atom_site_fract_x
_atom_site_fract_y
_atom_site_fract_z
Zn1	Zn	1.247376	-0.264893	-0.534488
Zn2	Zn	1.747376	0.235107	-0.034488
Zn3	Zn	1.254306	-0.348122	-0.395404
Zn4	Zn	1.754306	0.151878	0.104596
Zn5	Zn	1.115368	-0.256055	-0.388408
Zn6	Zn	1.615368	0.243945	0.111592
Zn7	Zn	1.108263	-0.347643	-0.527374
Zn8	Zn	1.608263	0.152357	-0.027374
O9	O	1.181328	-0.304178	-0.461418
O10	O	1.681328	0.195822	0.038582
O11	O	1.364660	-0.279833	-0.521943
O12	O	1.864660	0.220167	-0.021943
O13	O	1.241750	-0.332411	-0.278111
O14	O	1.741750	0.167589	0.221889
O15	O	1.132953	-0.184066	-0.407834
O16	O	1.632953	0.315934	0.092166
O17	O	1.369752	-0.340980	-0.419759
O18	O	1.869752	0.159020	0.080241
O19	O	1.229938	-0.190559	-0.515158
O20	O	1.729938	0.309441	-0.015158
O21	O	1.139673	-0.264770	-0.272971
O22	O	1.639673	0.235230	0.227029
O23	O	0.998060	-0.264305	-0.400937
O24	O	1.498060	0.235695	0.099063
O25	O	1.120842	-0.340164	-0.644683
O26	O	1.620842	0.159836	-0.144683
O27	O	0.992840	-0.331595	-0.503035
O28	O	1.492840	0.168405	-0.003035
O29	O	1.223048	-0.279368	-0.649909
O30	O	1.723048	0.220632	-0.149909
O31	O	1.234860	-0.421220	-0.412862
O32	O	1.734860	0.078780	0.087138
O33	O	1.127563	-0.420868	-0.509820
O34	O	1.627563	0.079132	-0.009820
C35	C	0.965278	-0.296939	-0.450455
C36	C	1.465278	0.203061	0.049545
C37	C	0.872850	-0.293856	-0.445785
C38	C	1.372850	0.206144	0.054215
C39	C	0.703621	-0.288214	-0.437265
C40	C	1.203621	0.211786	0.062735
C41	C	0.659872	-0.320183	-0.485632
C42	C	1.159872	0.179817	0.014368
C43	C	0.565708	-0.317044	-0.480892
C44	C	1.065708	0.182956	0.019108
C45	C	0.797794	-0.291352	-0.442004
C46	C	1.297794	0.208648	0.057996
C47	C	1.181214	-0.440015	-0.461347
C48	C	1.681214	0.059985	0.038653
C49	C	1.181240	-0.498130	-0.461349
C50	C	1.681240	0.001870	0.038651
C51	C	1.231850	-0.861844	-0.517400
C52	C	1.731850	-0.361844	-0.017400
C53	C	1.231874	-0.916450	-0.517418
C54	C	1.731874	-0.416450	-0.017418
O55	O	1.274768	-0.947529	-0.565000
O56	O	1.774768	-0.447529	-0.065000
N57	N	1.181440	-0.940424	-0.461505
N58	N	1.681440	-0.440424	0.038495
C59	C	1.130972	-0.909789	-0.405576
C60	C	1.630972	-0.409789	0.094424
O61	O	1.088076	-0.935194	-0.358019
O62	O	1.588076	-0.435194	0.141981
C63	C	1.130945	-0.855184	-0.405562
C64	C	1.630945	-0.355184	0.094438
C65	C	1.181388	-0.831213	-0.461473
C66	C	1.681388	-0.331213	0.038527
C67	C	1.282289	-0.837873	-0.573307
C68	C	1.782289	-0.337873	-0.073307
C69	C	1.282266	-0.783271	-0.573287
C70	C	1.782266	-0.283271	-0.073287
C71	C	1.231805	-0.752640	-0.517361
C72	C	1.731805	-0.252640	-0.017361
C73	C	1.181366	-0.776611	-0.461454
C74	C	1.681366	-0.276611	0.038546
C75	C	1.080474	-0.824550	-0.349638
C76	C	1.580474	-0.324550	0.150362
C77	C	1.080450	-0.769942	-0.349629
C78	C	1.580450	-0.269942	0.150371
C79	C	1.130894	-0.745971	-0.405540
C80	C	1.630894	-0.245971	0.094460
C81	C	1.130881	-0.691379	-0.405508
C82	C	1.630881	-0.191379	0.094492
N83	N	1.181316	-0.667405	-0.461421
N84	N	1.681316	-0.167405	0.038579
C85	C	1.231777	-0.698036	-0.517347
C86	C	1.731777	-0.198036	-0.017347
C87	C	1.131033	-1.024462	-0.405609
C88	C	1.631033	-0.524462	0.094391
C89	C	1.131064	-1.079066	-0.405618
C90	C	1.631064	-0.579066	0.094382
C91	C	1.231965	-1.085723	-0.517461
C92	C	1.731965	-0.585723	-0.017461
C93	C	1.231937	-1.031119	-0.517448
C94	C	1.731937	-0.531119	-0.017448
C95	C	1.181467	-1.000488	-0.461522
C96	C	1.681467	-0.500488	0.038478
C97	C	1.231726	-0.583368	-0.517302
C98	C	1.731726	-0.083368	-0.017302
C99	C	1.231702	-0.528761	-0.517275
C100	C	1.731702	-0.028761	-0.017275
C101	C	1.130798	-0.522108	-0.405435
C102	C	1.630798	-0.022108	0.094565
C103	C	1.130826	-0.576710	-0.405458
C104	C	1.630826	-0.076710	0.094542
C105	C	1.181292	-0.607339	-0.461399
C106	C	1.681292	-0.107339	0.038601
O107	O	1.088007	-0.660266	-0.357952
O108	O	1.588007	-0.160266	0.142048
O109	O	1.274658	-0.672623	-0.564903
O110	O	1.774658	-0.172623	-0.064903
C111	C	1.398222	-0.311446	-0.472425
C112	C	1.898222	0.188554	0.027575
C113	C	1.490650	-0.314543	-0.477115
C114	C	1.990650	0.185457	0.022885
C115	C	1.170379	-0.310699	-0.678312
C116	C	1.670379	0.189301	-0.178312
C117	C	1.165714	-0.313477	-0.770738
C118	C	1.665714	0.186523	-0.270738
C119	C	1.181465	-0.167812	-0.461509
C120	C	1.681465	0.332188	0.038491
C121	C	1.181523	-0.109701	-0.461548
C122	C	1.681523	0.390299	0.038452
C123	C	1.205658	-0.289675	-0.983730
C124	C	1.705658	0.210325	-0.483730
C125	C	1.157167	-0.318527	-0.939957
C126	C	1.657167	0.181473	-0.439957
C127	C	1.161924	-0.315717	-0.845795
C128	C	1.661924	0.184283	-0.345795
C129	C	1.200903	-0.292485	-1.077900
C130	C	1.700903	0.207515	-0.577900
C131	C	1.192282	-0.297647	-0.245372
C132	C	1.692282	0.202353	0.254628
C133	C	1.197109	-0.294727	-0.152953
C134	C	1.697109	0.205273	0.347047
H135	H	0.670359	-0.258489	-0.392299
H136	H	1.170359	0.241511	0.107701
H137	H	1.272782	-0.509246	-0.562805
H138	H	1.772782	-0.009246	-0.062805
C139	C	1.097195	-0.354360	-0.984322
C140	C	1.597195	0.145640	-0.484322
C141	C	1.141792	-0.390913	-1.036549
C142	C	1.641792	0.109087	-0.536549
C143	C	1.086582	-0.423937	-1.077425
C144	C	1.586582	0.076063	-0.577425
H145	H	1.059278	-0.334209	-1.016441
H146	H	1.559278	0.165791	-0.516441
H147	H	1.067416	-0.372127	-0.944497
H148	H	1.567416	0.127873	-0.444497
H149	H	1.171557	-0.373148	-1.076369
H150	H	1.671557	0.126852	-0.576369
H151	H	1.179705	-0.411076	-1.004451
H152	H	1.679705	0.088924	-0.504451
H153	H	1.056803	-0.441704	-1.037599
H154	H	1.556803	0.058296	-0.537599
H155	H	1.048668	-0.403782	-1.109539
H156	H	1.548668	0.096218	-0.609539
H157	H	1.116833	-0.448745	-1.112859
H158	H	1.616833	0.051255	-0.612859
C159	C	1.286694	-1.118921	-0.578321
C160	C	1.786694	-0.618921	-0.078321
C161	C	1.264373	-1.107478	-0.659655
C162	C	1.764373	-0.607478	-0.159655
C163	C	1.314775	-1.138045	-0.715736
C164	C	1.814775	-0.638045	-0.215736
H165	H	1.279527	-1.154887	-0.570436
H166	H	1.779527	-0.654887	-0.070436
H167	H	1.343197	-1.111445	-0.569085
H168	H	1.843197	-0.611445	-0.069085
H169	H	1.207884	-1.114958	-0.668888
H170	H	1.707884	-0.614958	-0.168888
H171	H	1.271543	-1.071518	-0.667567
H172	H	1.771543	-0.571518	-0.167567
H173	H	1.371278	-1.130569	-0.706500
H174	H	1.871278	-0.630569	-0.206500
H175	H	1.307605	-1.174009	-0.707843
H176	H	1.807605	-0.674009	-0.207843
H177	H	1.299643	-1.130282	-0.770927
H178	H	1.799643	-0.630282	-0.270927
H179	H	0.693137	-0.349909	-0.530602
H180	H	1.193137	0.150091	-0.030602
C181	C	1.265651	-0.253892	-0.939297
C182	C	1.765651	0.246108	-0.439297
C183	C	1.221080	-0.217353	-0.887025
C184	C	1.721080	0.282647	-0.387025
C185	C	1.276320	-0.184389	-0.846062
C186	C	1.776320	0.315611	-0.346062
H187	H	1.295480	-0.236107	-0.979046
H188	H	1.795480	0.263893	-0.479046
H189	H	1.303523	-0.274105	-0.907204
H190	H	1.803523	0.225895	-0.407204
H191	H	1.183222	-0.197143	-0.919115
H192	H	1.683222	0.302857	-0.419115
H193	H	1.191253	-0.235124	-0.847261
H194	H	1.691253	0.264876	-0.347261
H195	H	1.314192	-0.204602	-0.813969
H196	H	1.814192	0.295398	-0.313969
H197	H	1.306146	-0.166607	-0.885816
H198	H	1.806146	0.333393	-0.385816
H199	H	1.246087	-0.159597	-0.810585
H200	H	1.746087	0.340403	-0.310585
H201	H	1.272815	-0.608299	-0.562859
H202	H	1.772815	-0.108299	-0.062859
C203	C	1.337057	-0.757348	-0.634090
C204	C	1.837057	-0.257348	-0.134090
C205	C	1.381230	-0.795870	-0.683080
C206	C	1.881230	-0.295870	-0.183080
C207	C	1.431704	-0.772014	-0.739112
C208	C	1.931704	-0.272014	-0.239112
H209	H	1.374982	-0.736299	-0.604247
H210	H	1.874982	-0.236299	-0.104247
H211	H	1.303398	-0.736090	-0.668723
H212	H	1.803398	-0.236090	-0.168723
H213	H	1.414887	-0.817120	-0.648451
H214	H	1.914887	-0.317120	-0.148451
H215	H	1.343326	-0.816921	-0.712941
H216	H	1.843326	-0.316921	-0.212941
H217	H	1.398045	-0.750755	-0.773745
H218	H	1.898045	-0.250755	-0.273745
H219	H	1.469625	-0.750965	-0.709262
H220	H	1.969625	-0.250965	-0.209262
H221	H	1.461676	-0.798146	-0.772364
H222	H	1.961676	-0.298146	-0.272364
H223	H	1.323381	-0.862807	-0.618854
H224	H	1.823381	-0.362807	-0.118854
H225	H	1.089997	-1.098578	-0.360081
H226	H	1.589997	-0.598578	0.139919
C227	C	1.286561	-1.005025	-0.578198
C228	C	1.786561	-0.505025	-0.078198
C229	C	1.236731	-0.973702	-0.629048
C230	C	1.736731	-0.473702	-0.129048
C231	C	1.287022	-0.949654	-0.685018
C232	C	1.787022	-0.449654	-0.185018
H233	H	1.316632	-1.031035	-0.611585
H234	H	1.816632	-0.531035	-0.111585
H235	H	1.324399	-0.983941	-0.548278
H236	H	1.824399	-0.483941	-0.048278
H237	H	1.198908	-0.994785	-0.658966
H238	H	1.698908	-0.494785	-0.158966
H239	H	1.206661	-0.947683	-0.595685
H240	H	1.706661	-0.447683	-0.095685
H241	H	1.324860	-0.928570	-0.655098
H242	H	1.824860	-0.428570	-0.155098
H243	H	1.317091	-0.975668	-0.718398
H244	H	1.817091	-0.475668	-0.218398
H245	H	1.253221	-0.928395	-0.719521
H246	H	1.753221	-0.428395	-0.219521
H247	H	1.089937	-0.999525	-0.360061
H248	H	1.589937	-0.499525	0.139939
H249	H	1.039397	-0.844057	-0.304108
H250	H	1.539397	-0.344057	0.195892
H251	H	1.039348	-0.745005	-0.304089
H252	H	1.539348	-0.245005	0.195911
H253	H	1.089757	-0.596228	-0.359925
H254	H	1.589757	-0.096228	0.140075
H255	H	1.089715	-0.497160	-0.359898
H256	H	1.589715	0.002840	0.140102
