data_functionalizedCrystal
_audit_creation_method	'MofGen! by Chris Wilmer'
_symmetry_space_group_name_H-M	'P1'
_symmetry_Int_Tables_number	1
_symmetry_cell_setting	triclinic
loop_
_symmetry_equiv_pos_as_xyz
  x,y,z
_cell_length_a	10.654563
_cell_length_b	10.654550
_cell_length_c	9.730223
_cell_angle_alpha	90.004253
_cell_angle_beta	89.999031
_cell_angle_gamma	95.512281
loop_
_atom_site_label
_atom_site_type_symbol
_atom_site_fract_x
_atom_site_fract_y
_atom_site_fract_z
O1	O	1.667829	-0.176480	-0.114216
O2	O	1.302353	-0.193268	-0.114235
O3	O	1.493494	-0.002135	-0.114217
O4	O	1.476688	-0.367613	-0.114235
O5	O	1.493482	-0.002130	0.114363
O6	O	1.302340	-0.193263	0.114345
O7	O	1.667817	-0.176475	0.114363
Zn8	Zn	1.485077	-0.184868	0.150646
Zn9	Zn	1.485093	-0.184875	-0.150518
O10	O	1.476676	-0.367608	0.114345
C11	C	1.255549	-0.192029	0.000052
C12	C	1.116106	-0.188331	0.000045
C13	C	1.050593	-0.186599	-0.124548
C14	C	0.919569	-0.183145	-0.124536
C15	C	0.919586	-0.183148	0.124674
C16	C	1.050606	-0.186612	0.124661
C17	C	0.731528	-0.251862	-0.274220
C18	C	0.666012	-0.250109	-0.398821
C19	C	0.717504	-0.177769	-0.508832
C20	C	0.834513	-0.107151	-0.494248
C21	C	0.900023	-0.108893	-0.369645
C22	C	0.848530	-0.181262	-0.259639
C23	C	1.238651	-0.117884	0.274336
C24	C	1.304165	-0.119617	0.398940
C25	C	1.252676	-0.191949	0.508963
C26	C	1.135665	-0.262548	0.494392
C27	C	1.070151	-0.260815	0.369788
C28	C	1.121648	-0.188485	0.259765
C29	C	1.492254	0.044665	0.000072
C30	C	1.488562	0.184109	0.000070
C31	C	1.714621	-0.177714	0.000073
C32	C	1.854063	-0.181413	0.000071
C33	C	1.477916	-0.414409	0.000053
C34	C	1.481608	-0.553852	0.000046
N35	N	1.485075	-0.184863	0.356183
C36	C	1.601103	0.263589	0.000075
C37	C	1.597626	0.394610	0.000058
C38	C	1.369058	0.366658	0.000037
C39	C	1.372536	0.235639	0.000044
N40	N	1.485105	-0.184871	-0.356054
C41	C	1.569741	-0.100265	0.428117
C42	C	1.569754	-0.100266	0.572000
C43	C	1.400429	-0.269472	0.572002
C44	C	1.400412	-0.269465	0.428121
H45	H	0.876424	-0.048238	-0.583830
Br46	Br	0.628588	-0.175392	-0.677931
H47	H	0.995291	-0.051400	-0.357772
Br48	Br	1.684638	0.014554	0.330490
Br49	Br	1.758565	0.193658	0.000112
H50	H	1.280590	-0.058988	0.184747
Br51	Br	1.684656	0.014556	0.669622
Br52	Br	0.507223	-0.345949	-0.418616
H53	H	1.689269	0.459318	0.000060
H54	H	1.093734	-0.321436	0.583986
H55	H	1.274594	0.408630	0.000018
H56	H	1.280886	0.170923	0.000035
Br57	Br	0.911337	-0.356612	0.350019
H58	H	1.331500	-0.338355	0.630589
H59	H	1.331460	-0.338355	0.369549
H60	H	1.103919	-0.188006	-0.226018
H61	H	0.689598	-0.310785	-0.184654
H62	H	1.306026	-0.193345	0.610425
Br63	Br	0.830684	-0.180813	0.293786
H64	H	1.399447	-0.062134	0.410794
