data_functionalizedCrystal
_audit_creation_method	'MofGen! by Chris Wilmer'
_symmetry_space_group_name_H-M	'P1'
_symmetry_Int_Tables_number	1
_symmetry_cell_setting	triclinic
loop_
_symmetry_equiv_pos_as_xyz
  x,y,z
_cell_length_a	12.594517
_cell_length_b	21.295417
_cell_length_c	12.594509
_cell_angle_alpha	89.963755
_cell_angle_beta	89.977786
_cell_angle_gamma	90.029939
loop_
_atom_site_label
_atom_site_type_symbol
_atom_site_fract_x
_atom_site_fract_y
_atom_site_fract_z
Zn1	Zn	1.627160	-0.250600	-0.601826
Zn2	Zn	1.627006	-0.355878	-0.423822
Zn3	Zn	1.449164	-0.250626	-0.423852
Zn4	Zn	1.449101	-0.355834	-0.601750
O5	O	1.538108	-0.303235	-0.512813
O6	O	1.776085	-0.264573	-0.578233
O7	O	1.603377	-0.341946	-0.274880
O8	O	1.472866	-0.162533	-0.447505
O9	O	1.775972	-0.341921	-0.447455
O10	O	1.603639	-0.162514	-0.578262
O11	O	1.472717	-0.264618	-0.274902
O12	O	1.300210	-0.264574	-0.447431
O13	O	1.472759	-0.341845	-0.750706
O14	O	1.300164	-0.341870	-0.578132
O15	O	1.603578	-0.264530	-0.750762
O16	O	1.603316	-0.443962	-0.447381
O17	O	1.472610	-0.443929	-0.578103
C18	C	1.261567	-0.303221	-0.512777
C19	C	1.143261	-0.303230	-0.512787
C20	C	1.003239	-0.261143	-0.441861
C21	C	1.074104	-0.245805	-0.538991
C22	C	1.073968	-0.318539	-0.415668
C23	C	1.003341	-0.287888	-0.610046
C24	C	1.003199	-0.360648	-0.486657
C25	C	1.074032	-0.345333	-0.583854
C26	C	1.537968	-0.466786	-0.512754
C27	C	1.538006	-0.536754	-0.512764
C28	C	1.606125	-0.569617	-0.444767
C29	C	1.606175	-0.635360	-0.444791
C30	C	1.538087	-0.668237	-0.512801
C31	C	1.469963	-0.635366	-0.580811
C32	C	1.469923	-0.569625	-0.580793
N33	N	1.444976	-0.771502	-0.520903
N34	N	1.445018	-0.833953	-0.520914
C35	C	1.538206	-0.866311	-0.512862
N36	N	1.631353	-0.833859	-0.504777
N37	N	1.631311	-0.771402	-0.504760
C38	C	1.538123	-0.739522	-0.512829
C39	C	1.606385	-0.970460	-0.444887
C40	C	1.606436	-1.036203	-0.444918
C41	C	1.470215	-1.036209	-0.580933
C42	C	1.470173	-0.970466	-0.580907
C43	C	1.538256	-0.937596	-0.512878
C44	C	1.815729	-0.303249	-0.512849
C45	C	1.934034	-0.303255	-0.512864
C46	C	1.538179	-0.303179	-0.790434
C47	C	1.538209	-0.303156	-0.908739
C48	C	1.538277	-0.139044	-0.512895
C49	C	1.538349	-0.069076	-0.512930
C50	C	1.467079	-0.345184	-0.977962
C51	C	1.564193	-0.360565	-1.048750
C52	C	1.441171	-0.287737	-1.048750
C53	C	1.635374	-0.318567	-0.977969
C54	C	1.512287	-0.245712	-0.977963
C55	C	1.609468	-0.261072	-1.048719
C56	C	1.538098	-0.303244	-0.236272
C57	C	1.538274	-0.303090	-0.117967
H58	H	1.104995	-0.331477	-0.333502
H59	H	1.414781	-1.062977	-0.636313
H60	H	1.661565	-0.542856	-0.389376
C61	C	0.961082	-0.426210	-0.456709
H62	H	0.985218	-0.437017	-0.387619
H63	H	0.986373	-0.456222	-0.506413
H64	H	0.885661	-0.425832	-0.457592
H65	H	1.490297	-0.197176	-0.946846
C66	C	1.115770	-0.393426	-0.665012
H67	H	1.091457	-0.382456	-0.733967
H68	H	1.090419	-0.434083	-0.647012
H69	H	1.191194	-0.393397	-0.664140
H70	H	1.414699	-0.943708	-0.636273
C71	C	1.681105	-0.671519	-0.369991
H72	H	1.671381	-0.715380	-0.379752
H73	H	1.665559	-0.660788	-0.298459
H74	H	1.752611	-0.660702	-0.385634
H75	H	1.669717	-0.225502	-1.079591
C76	C	1.395066	-0.671528	-0.655618
H77	H	1.404838	-0.715388	-0.645883
H78	H	1.410596	-0.660714	-0.727145
H79	H	1.323550	-0.660797	-0.639964
H80	H	1.414451	-0.542867	-0.636166
C81	C	1.681357	-1.072356	-0.370106
H82	H	1.671636	-1.116217	-0.379863
H83	H	1.665794	-1.061622	-0.298579
H84	H	1.752865	-1.061539	-0.385735
C85	C	1.681283	-0.934299	-0.370071
H86	H	1.721873	-0.963290	-0.329588
H87	H	1.640580	-0.908698	-0.323646
H88	H	1.727621	-0.908610	-0.410832
C89	C	1.330278	-0.270152	-1.090750
H90	H	1.279808	-0.300078	-1.066509
H91	H	1.331251	-0.269877	-1.166167
H92	H	1.311351	-0.229655	-1.065461
C93	C	1.385885	-0.393268	-0.935983
H94	H	1.404504	-0.434040	-0.960222
H95	H	1.317104	-0.382738	-0.961258
H96	H	1.385976	-0.392698	-0.860560
C97	C	1.593859	-0.426149	-1.090766
H98	H	1.543229	-0.455986	-1.066546
H99	H	1.662327	-0.437369	-1.065491
H100	H	1.594296	-0.425553	-1.166189
C101	C	1.746317	-0.336195	-0.936153
H102	H	1.745612	-0.336122	-0.860723
H103	H	1.796871	-0.306488	-0.960960
H104	H	1.764907	-0.376850	-0.960963
C105	C	1.116188	-0.180226	-0.568899
H106	H	1.091955	-0.150361	-0.518409
H107	H	1.090967	-0.169068	-0.637431
H108	H	1.191610	-0.180790	-0.569282
C109	C	0.961234	-0.213014	-0.360898
H110	H	0.985514	-0.172246	-0.379671
H111	H	0.986452	-0.223479	-0.292054
H112	H	0.885811	-0.213619	-0.361042
C113	C	0.961613	-0.270329	-0.721075
H114	H	0.886183	-0.270423	-0.720415
H115	H	0.986418	-0.300046	-0.771524
H116	H	0.986480	-0.229674	-0.739771
