data_functionalizedCrystal
_audit_creation_method	'MofGen! by Chris Wilmer'
_symmetry_space_group_name_H-M	'P1'
_symmetry_Int_Tables_number	1
_symmetry_cell_setting	triclinic
loop_
_symmetry_equiv_pos_as_xyz
  x,y,z
_cell_length_a	25.639242
_cell_length_b	25.639240
_cell_length_c	13.032268
_cell_angle_alpha	97.135339
_cell_angle_beta	97.154830
_cell_angle_gamma	90.027658
loop_
_atom_site_label
_atom_site_type_symbol
_atom_site_fract_x
_atom_site_fract_y
_atom_site_fract_z
Zn1	Zn	0.761703	-0.245750	-0.590985
Zn2	Zn	0.772738	-0.322090	-0.416219
Zn3	Zn	0.685380	-0.234664	-0.416242
Zn4	Zn	0.674240	-0.333142	-0.590873
O5	O	0.723515	-0.283912	-0.503580
O6	O	0.836329	-0.255892	-0.567839
O7	O	0.770430	-0.301228	-0.269999
O8	O	0.695548	-0.162973	-0.439479
O9	O	0.844437	-0.311978	-0.439439
O10	O	0.751622	-0.171118	-0.567861
O11	O	0.706248	-0.236997	-0.270016
O12	O	0.610739	-0.247713	-0.439371
O13	O	0.676562	-0.330814	-0.737112
O14	O	0.602555	-0.320064	-0.567671
O15	O	0.740820	-0.266608	-0.737194
O16	O	0.759628	-0.396718	-0.439331
O17	O	0.687262	-0.404837	-0.567649
C18	C	0.587677	-0.283885	-0.503512
C19	C	0.529563	-0.283888	-0.503508
C20	C	0.282611	-0.246190	-0.436889
C21	C	0.337216	-0.246184	-0.436876
O22	O	0.369062	-0.214097	-0.380176
N23	N	0.360286	-0.283898	-0.503560
C24	C	0.328747	-0.321616	-0.570270
O25	O	0.353384	-0.353694	-0.626989
C26	C	0.274143	-0.321619	-0.570287
C27	C	0.251076	-0.283907	-0.503591
C28	C	0.259544	-0.208480	-0.370200
C29	C	0.204942	-0.208486	-0.370212
C30	C	0.173408	-0.246203	-0.436914
C31	C	0.196475	-0.283913	-0.503603
C32	C	0.242605	-0.359335	-0.637001
C33	C	0.187997	-0.359335	-0.637014
C34	C	0.164931	-0.321622	-0.570318
C35	C	0.110339	-0.321636	-0.570318
N36	N	0.087269	-0.283922	-0.503633
C37	C	0.118804	-0.246206	-0.436932
C38	C	0.443421	-0.321607	-0.570228
C39	C	0.498024	-0.321607	-0.570206
C40	C	0.506489	-0.246174	-0.436814
C41	C	0.451884	-0.246177	-0.436832
C42	C	0.420350	-0.283893	-0.503544
C43	C	0.004137	-0.246222	-0.436961
C44	C	-0.050470	-0.246233	-0.436976
C45	C	-0.058930	-0.321664	-0.570372
C46	C	-0.004328	-0.321655	-0.570354
C47	C	0.027204	-0.283930	-0.503645
O48	O	0.078460	-0.353705	-0.626992
O49	O	0.094159	-0.214129	-0.380231
C50	C	0.723446	-0.419749	-0.503498
C51	C	0.723463	-0.477863	-0.503498
C52	C	0.752722	-0.842442	-0.570549
C53	C	0.752736	-0.897047	-0.570571
O54	O	0.777530	-0.928863	-0.627496
N55	N	0.723581	-0.920157	-0.503681
C56	C	0.694406	-0.888659	-0.436773
O57	O	0.669609	-0.913330	-0.379881
C58	C	0.694390	-0.834054	-0.436758
C59	C	0.723551	-0.810947	-0.503645
C60	C	0.781880	-0.819334	-0.637431
C61	C	0.781866	-0.764732	-0.637409
C62	C	0.752695	-0.733238	-0.570504
C63	C	0.723537	-0.756345	-0.503622
C64	C	0.665212	-0.802557	-0.369856
C65	C	0.665198	-0.747950	-0.369848
C66	C	0.694359	-0.724843	-0.436734
C67	C	0.694352	-0.670249	-0.436694
N68	N	0.723507	-0.647139	-0.503584
C69	C	0.752678	-0.678633	-0.570489
C70	C	0.694443	-1.003332	-0.436812
C71	C	0.694462	-1.057935	-0.436821
C72	C	0.752791	-1.066319	-0.570620
C73	C	0.752774	-1.011715	-0.570605
C74	C	0.723598	-0.980222	-0.503701
C75	C	0.752648	-0.563965	-0.570435
C76	C	0.752634	-0.509357	-0.570403
C77	C	0.694303	-0.500978	-0.436608
C78	C	0.694320	-0.555580	-0.436636
C79	C	0.723493	-0.587073	-0.503557
O80	O	0.669569	-0.638401	-0.379801
O81	O	0.777466	-0.653956	-0.627381
C82	C	0.859884	-0.283939	-0.503649
C83	C	0.917996	-0.283950	-0.503678
C84	C	0.706218	-0.301180	-0.776127
C85	C	0.698847	-0.308539	-0.892271
C86	C	0.723597	-0.147545	-0.503685
C87	C	0.723632	-0.089434	-0.503730
C88	C	0.727354	-0.280052	-0.944092
C89	C	0.719736	-0.287657	-1.064132
C90	C	0.740775	-0.266672	-0.232093
C91	C	0.748248	-0.259166	-0.115950
H92	H	0.285213	-0.177763	-0.315883
H93	H	0.670723	-1.076743	-0.382344
C94	C	0.021047	-0.363140	-0.643711
H95	H	-0.005557	-0.385602	-0.683440
H96	H	0.044878	-0.383349	-0.603653
H97	H	0.039465	-0.346058	-0.689320
C98	C	0.784876	-1.100971	-0.644221
H99	H	0.780703	-1.136800	-0.634652
H100	H	0.820976	-1.091038	-0.629007
H101	H	0.772734	-1.096458	-0.714413
C102	C	0.658259	-0.349096	-0.952381
H103	H	0.658467	-0.348890	-1.025176
H104	H	0.624258	-0.340319	-0.934537
H105	H	0.667020	-0.383104	-0.934523
H106	H	0.776400	-0.589601	-0.624936
H107	H	-0.084614	-0.352374	-0.624675
H108	H	-0.069248	-0.215522	-0.382662
C109	C	0.523396	-0.363100	-0.643546
H110	H	0.560434	-0.357703	-0.633983
H111	H	0.510007	-0.359962	-0.713789
H112	H	0.515405	-0.397238	-0.628095
H113	H	0.757398	-0.250031	-0.899588
H114	H	0.261376	-0.390045	-0.691312
C115	C	0.038814	-0.204727	-0.363581
H116	H	0.017250	-0.182274	-0.323864
H117	H	0.057590	-0.184509	-0.403628
H118	H	0.062992	-0.221801	-0.317962
H119	H	0.186167	-0.177776	-0.315901
H120	H	0.433107	-0.215466	-0.382526
H121	H	0.776519	-0.992905	-0.625070
C122	C	0.813973	-0.853972	-0.711026
H123	H	0.809811	-0.889804	-0.701471
H124	H	0.850070	-0.844028	-0.695797
H125	H	0.801834	-0.849456	-0.781218
H126	H	0.532174	-0.215462	-0.382504
C127	C	0.788840	-0.218610	-1.055846
H128	H	0.788638	-0.218820	-0.983051
H129	H	0.780087	-0.184603	-1.073706
H130	H	0.822842	-0.227394	-1.073692
H131	H	0.417749	-0.352324	-0.624552
C132	C	0.662354	-0.968692	-0.363199
H133	H	0.644999	-0.990280	-0.323363
H134	H	0.637015	-0.949926	-0.403105
H135	H	0.685258	-0.944507	-0.317701
H136	H	0.162324	-0.390047	-0.691344
C137	C	0.679146	-0.328216	-1.124238
H138	H	0.679355	-0.328010	-1.197034
H139	H	0.645145	-0.319440	-1.106394
H140	H	0.687907	-0.362224	-1.106380
H141	H	0.776382	-0.490546	-0.624870
H142	H	0.670554	-0.475326	-0.382132
C143	C	0.813941	-0.739321	-0.710988
H144	H	0.831311	-0.765905	-0.750837
H145	H	0.839268	-0.715484	-0.671064
H146	H	0.791028	-0.720907	-0.756477
C147	C	0.633131	-0.827964	-0.296288
H148	H	0.615752	-0.801380	-0.256456
H149	H	0.656034	-0.846382	-0.250798
H150	H	0.607802	-0.851799	-0.336228
H151	H	0.641437	-0.722310	-0.315368
H152	H	0.670579	-0.574394	-0.382163
