data_functionalizedCrystal
_audit_creation_method	'MofGen! by Chris Wilmer'
_symmetry_space_group_name_H-M	'P1'
_symmetry_Int_Tables_number	1
_symmetry_cell_setting	triclinic
loop_
_symmetry_equiv_pos_as_xyz
  x,y,z
_cell_length_a	18.101398
_cell_length_b	12.594516
_cell_length_c	18.101389
_cell_angle_alpha	90.014195
_cell_angle_beta	90.024327
_cell_angle_gamma	90.007083
loop_
_atom_site_label
_atom_site_type_symbol
_atom_site_fract_x
_atom_site_fract_y
_atom_site_fract_z
Zn1	Zn	1.132220	-0.423988	0.418861
Zn2	Zn	1.132158	-0.601956	0.295028
Zn3	Zn	1.008379	-0.423977	0.295022
Zn4	Zn	1.008372	-0.601910	0.418817
O5	O	1.070282	-0.512958	0.356932
O6	O	1.235845	-0.447620	0.402455
O7	O	1.115715	-0.578361	0.191394
O8	O	1.024836	-0.275033	0.311465
O9	O	1.235799	-0.578372	0.311476
O10	O	1.115822	-0.275041	0.402449
O11	O	1.024776	-0.447601	0.191390
O12	O	0.904745	-0.447557	0.311422
O13	O	1.024823	-0.578294	0.522455
O14	O	0.904740	-0.578283	0.402374
O15	O	1.115814	-0.447575	0.522488
O16	O	1.115708	-0.750896	0.311433
O17	O	1.024763	-0.750862	0.402380
C18	C	0.877872	-0.512915	0.356893
C19	C	0.795558	-0.512922	0.356894
C20	C	0.496467	-0.512988	0.356956
C21	C	0.527771	-0.430327	0.300011
C22	C	0.613389	-0.430549	0.299768
C23	C	0.644849	-0.512954	0.356925
C24	C	0.613757	-0.625071	0.335607
C25	C	0.528112	-0.624611	0.335211
C26	C	0.528075	-0.484507	0.435354
C27	C	0.613725	-0.482010	0.434926
C28	C	0.728709	-0.512942	0.356909
C29	C	0.412607	-0.513008	0.356971
C30	C	1.070248	-0.789499	0.356919
C31	C	1.070301	-0.907804	0.356938
C32	C	1.119824	-0.977037	0.307525
C33	C	1.137919	-1.047759	0.375121
C34	C	1.052298	-1.047881	0.289385
C35	C	1.088431	-0.976968	0.424569
C36	C	1.002779	-0.977084	0.338788
C37	C	1.020849	-1.047774	0.406431
C38	C	1.263444	-0.513002	0.356971
C39	C	1.345758	-0.513021	0.356988
C40	C	1.070325	-0.512931	0.550094
C41	C	1.070343	-0.512919	0.632408
C42	C	1.070337	-0.235337	0.356961
C43	C	1.070360	-0.117032	0.356973
C44	C	1.070282	-0.512908	0.164521
C45	C	1.070407	-0.512619	0.082208
C46	C	1.070386	-0.512720	0.931499
C47	C	1.012940	-0.594703	0.900153
C48	C	1.013095	-0.595083	0.814535
C49	C	1.070364	-0.512819	0.783116
C50	C	1.148397	-0.543275	0.814224
C51	C	1.148077	-0.543813	0.899869
C52	C	1.050479	-0.400099	0.899917
C53	C	1.048743	-0.400749	0.814267
C54	C	1.070357	-0.512873	0.699257
C55	C	1.070399	-0.512668	1.015359
H56	H	0.634410	-0.347409	0.313131
C57	C	1.158164	-0.972441	0.180597
C58	C	1.176364	-0.935100	0.251164
H59	H	1.193074	-0.946555	0.145806
H60	H	1.110201	-0.948236	0.167578
H61	H	1.158887	-1.047859	0.180547
H62	H	1.175636	-0.859682	0.251215
H63	H	1.224340	-0.959299	0.264186
H64	H	1.195046	-1.078805	0.390492
C65	C	1.208132	-0.466445	1.005225
C66	C	1.207826	-0.466723	0.927871
H67	H	1.245018	-0.418854	1.022508
H68	H	1.218422	-0.535951	1.022784
H69	H	1.161163	-0.444324	1.022843
H70	H	1.254793	-0.488852	0.910253
H71	H	1.197540	-0.397202	0.910305
H72	H	0.506484	-0.404176	0.454738
H73	H	0.955232	-0.576024	0.793502
H74	H	0.945668	-0.946015	0.323397
H75	H	1.037048	-1.079030	0.232242
C76	C	1.121844	-1.020895	0.549252
C77	C	1.109113	-0.935108	0.501734
H78	H	1.134609	-0.995048	0.596889
H79	H	1.161163	-1.062901	0.530477
H80	H	1.078388	-1.062905	0.552625
H81	H	1.152571	-0.893101	0.498357
H82	H	1.069791	-0.893084	0.520514
H83	H	0.954903	-0.575839	0.920738
H84	H	1.025955	-0.677672	0.921683
C85	C	0.454379	-0.321226	0.380266
C86	C	0.499993	-0.317739	0.317857
H87	H	0.437230	-0.251715	0.391284
H88	H	0.481577	-0.348012	0.421090
H89	H	0.413386	-0.366303	0.370740
H90	H	0.540990	-0.272668	0.327385
H91	H	0.472794	-0.290939	0.277024
H92	H	0.633847	-0.449376	0.241676
C93	C	0.617682	-0.685275	0.461392
C94	C	0.641271	-0.710447	0.389839
H95	H	0.634674	-0.737980	0.494872
H96	H	0.565255	-0.682663	0.462544
H97	H	0.637133	-0.618117	0.475289
H98	H	0.621816	-0.777602	0.375940
H99	H	0.693709	-0.713071	0.388685
C100	C	0.460152	-0.513400	0.547472
C101	C	0.500746	-0.565774	0.492638
H102	H	0.443282	-0.563574	0.582833
H103	H	0.418965	-0.478784	0.525629
H104	H	0.490686	-0.462335	0.571150
H105	H	0.470211	-0.616835	0.468956
H106	H	0.541939	-0.600408	0.514483
C107	C	0.580473	-0.303432	0.467341
C108	C	0.641155	-0.370624	0.456621
H109	H	0.597411	-0.234665	0.480726
H110	H	0.550183	-0.330999	0.505640
H111	H	0.552677	-0.299052	0.422921
H112	H	0.668947	-0.375011	0.501043
H113	H	0.671456	-0.343051	0.418320
C114	C	0.964411	-1.200624	0.462061
C115	C	0.964346	-1.089452	0.462922
H116	H	0.929528	-1.226353	0.496935
H117	H	1.012248	-1.225886	0.474561
H118	H	0.951489	-1.225026	0.414105
H119	H	0.977274	-1.065049	0.510877
H120	H	0.916499	-1.064179	0.450427
C121	C	0.562064	-0.676969	0.212280
C122	C	0.501099	-0.657209	0.257840
H123	H	0.545388	-0.697085	0.164512
H124	H	0.590858	-0.732675	0.232817
H125	H	0.591285	-0.614538	0.208602
H126	H	0.471880	-0.719642	0.261523
H127	H	0.472292	-0.601498	0.237298
C128	C	1.041469	-0.775178	0.847468
C129	C	1.030900	-0.707755	0.786883
H130	H	1.052474	-0.844735	0.830395
H131	H	0.997770	-0.776901	0.876471
H132	H	1.081341	-0.749630	0.876617
H133	H	0.991024	-0.733299	0.757736
H134	H	1.074604	-0.706036	0.757867
H135	H	0.506226	-0.448941	0.242257
C136	C	0.457277	-0.784407	0.349906
C137	C	0.500156	-0.710574	0.388753
H138	H	0.440019	-0.837474	0.382960
H139	H	0.486418	-0.816492	0.312421
H140	H	0.416305	-0.749326	0.328000
H141	H	0.541131	-0.745654	0.410655
H142	H	0.471014	-0.678486	0.426251
C143	C	1.136483	-0.264794	0.845132
C144	C	1.101098	-0.313899	0.785403
H145	H	1.168805	-0.211174	0.827312
H146	H	1.164073	-0.316143	0.871882
H147	H	1.100567	-0.233748	0.876702
H148	H	1.137014	-0.344953	0.753835
H149	H	1.073507	-0.262542	0.758640
C150	C	1.184650	-0.720427	0.865877
C151	C	1.170847	-0.654953	0.926857
H152	H	1.198702	-0.789043	0.882538
H153	H	1.223385	-0.690834	0.837103
H154	H	1.141217	-0.725820	0.836641
H155	H	1.214282	-0.649554	0.956090
H156	H	1.132109	-0.684553	0.955643
C157	C	1.210419	-0.467700	0.709463
C158	C	1.207739	-0.465211	0.786752
H159	H	1.247057	-0.419511	0.692504
H160	H	1.163683	-0.447821	0.690014
H161	H	1.222348	-0.537456	0.693456
H162	H	1.195804	-0.395457	0.802759
H163	H	1.254485	-0.485084	0.806207
C164	C	0.945378	-0.440295	0.975796
C165	C	0.974999	-0.362634	0.929056
H166	H	0.898778	-0.417173	0.993784
H167	H	0.977941	-0.451706	1.016180
H168	H	0.939315	-0.504672	0.949117
H169	H	0.981068	-0.298259	0.955737
H170	H	0.942429	-0.351211	0.888666
C171	C	0.952413	-0.269709	0.814871
C172	C	0.971221	-0.369734	0.786821
H173	H	0.904552	-0.250570	0.797928
H174	H	0.987328	-0.218650	0.798387
H175	H	0.952592	-0.272080	0.867324
H176	H	0.971048	-0.367362	0.734368
H177	H	0.936297	-0.420806	0.803301
H178	H	0.635178	-0.649646	0.278913
H179	H	0.635143	-0.537830	0.479628
H180	H	1.165562	-0.624728	0.792786
H181	H	1.092320	-0.339017	0.920190
