data_functionalizedCrystal
_audit_creation_method	'MofGen! by Chris Wilmer'
_symmetry_space_group_name_H-M	'P1'
_symmetry_Int_Tables_number	1
_symmetry_cell_setting	triclinic
loop_
_symmetry_equiv_pos_as_xyz
  x,y,z
_cell_length_a	23.532407
_cell_length_b	11.026607
_cell_length_c	9.482900
_cell_angle_alpha	101.363848
_cell_angle_beta	99.270833
_cell_angle_gamma	84.282653
loop_
_atom_site_label
_atom_site_type_symbol
_atom_site_fract_x
_atom_site_fract_y
_atom_site_fract_z
O1	O	0.231212	-1.626299	-0.120952
O2	O	0.204090	-1.273319	-0.120948
O3	O	0.135841	-1.460449	-0.120924
O4	O	0.299462	-1.439169	-0.120976
O5	O	0.149775	-1.422438	0.120864
O6	O	0.218025	-1.235308	0.120840
O7	O	0.245146	-1.588288	0.120835
Cu8	Cu	0.232858	-1.408327	0.142915
Cu9	Cu	0.216379	-1.453280	-0.143027
O10	O	0.313396	-1.401158	0.120811
C11	C	0.121535	-1.440901	-0.000026
C12	C	0.058147	-1.439269	-0.000015
C13	C	0.206054	-1.209163	-0.000053
C14	C	0.191139	-1.074628	-0.000050
C15	C	0.243183	-1.652445	-0.000063
C16	C	0.258098	-1.786981	-0.000075
C17	C	-0.330388	-1.539801	-0.000096
C18	C	-0.389948	-1.538288	-0.000107
O19	O	-0.416896	-1.631479	-0.000162
N20	N	-0.424275	-1.427037	-0.000104
C21	C	-0.399040	-1.317293	-0.000106
O22	O	-0.433707	-1.222527	-0.000106
C23	C	-0.339482	-1.318809	-0.000105
C24	C	-0.305157	-1.430065	-0.000093
C25	C	-0.296064	-1.651048	-0.000085
C26	C	-0.236507	-1.652560	-0.000072
C27	C	-0.211276	-1.542824	-0.000068
C28	C	-0.245601	-1.431576	-0.000079
C29	C	-0.314249	-1.209068	-0.000117
C30	C	-0.254686	-1.210593	-0.000117
C31	C	-0.220361	-1.321849	-0.000105
C32	C	-0.160813	-1.323351	-0.000062
N33	N	-0.126486	-1.434603	-0.000065
C34	C	-0.151718	-1.544339	-0.000068
C35	C	-0.524117	-1.314120	-0.000109
C36	C	-0.583674	-1.312602	-0.000100
C37	C	-0.574578	-1.533598	-0.000104
C38	C	-0.515019	-1.535113	-0.000103
C39	C	-0.489790	-1.425371	-0.000112
C40	C	-0.026646	-1.547504	-0.000038
C41	C	0.032916	-1.549005	-0.000018
C42	C	0.023814	-1.328011	-0.000022
C43	C	-0.035742	-1.326508	-0.000034
C44	C	-0.060970	-1.436266	-0.000047
O45	O	-0.133827	-1.230210	-0.000013
O46	O	-0.117045	-1.639093	-0.000087
C47	C	0.327702	-1.420707	-0.000090
C48	C	0.391089	-1.422340	-0.000110
N49	N	0.244449	-1.376719	0.344031
C50	C	0.232323	-1.000328	-0.000064
C51	C	0.216908	-0.861279	-0.000061
N52	N	0.204785	-1.484898	-0.344143
C53	C	0.219794	-1.443948	0.416239
C54	C	0.229443	-1.417658	0.583653
H55	H	0.060862	-1.639606	-0.000004
H56	H	0.170231	-0.821959	-0.000083
O57	O	-0.051201	-1.654010	0.000150
C58	C	-0.105915	-1.760910	0.125459
C59	C	-0.078145	-1.640214	0.125398
H60	H	-0.127696	-1.749805	0.226725
H61	H	-0.139428	-1.781657	0.024336
H62	H	-0.071138	-1.840661	0.125400
H63	H	-0.112882	-1.560386	0.125507
H64	H	-0.044620	-1.619574	0.226511
O65	O	0.186012	-1.535712	0.342176
C66	C	0.091620	-1.614771	0.295298
C67	C	0.129805	-1.510747	0.379254
H68	H	0.046172	-1.594637	0.325268
H69	H	0.089806	-1.619580	0.173472
H70	H	0.110630	-1.707164	0.325078
H71	H	0.110824	-1.418299	0.349596
H72	H	0.131618	-1.506047	0.501059
O73	O	-0.347653	-1.101099	-0.000337
C74	C	-0.427345	-0.990792	-0.125696
C75	C	-0.389570	-1.113155	-0.125601
H76	H	-0.461236	-1.000489	-0.226976
H77	H	-0.449679	-0.968611	-0.024586
H78	H	-0.399054	-0.912649	-0.125635
H79	H	-0.417820	-1.191375	-0.125713
H80	H	-0.367231	-1.135228	-0.226701
O81	O	0.313747	-0.834098	-0.000182
C82	C	0.379856	-1.015629	-0.000168
C83	C	0.316811	-0.962435	-0.000065
H84	H	0.382356	-1.119392	-0.000042
H85	H	0.396118	-0.999403	-0.101399
H86	H	0.407776	-0.967441	0.100976
H87	H	0.288846	-1.010589	-0.101140
H88	H	0.300596	-0.978644	0.101234
H89	H	0.257694	-1.340628	0.645767
H90	H	0.144465	-1.035303	-0.000072
H91	H	0.176529	-1.561919	0.593742
H92	H	-0.208565	-1.743157	-0.000068
O93	O	-0.320471	-1.757756	-0.000019
C94	C	-0.305146	-1.977119	-0.000082
C95	C	-0.277436	-1.856352	-0.000139
H96	H	-0.270368	-2.056870	-0.000209
H97	H	-0.326953	-1.966112	0.101134
H98	H	-0.338647	-1.997793	-0.101242
H99	H	-0.243913	-1.835608	0.100953
H100	H	-0.255667	-1.867419	-0.101421
O101	O	0.278156	-1.284912	0.418352
C102	C	0.318458	-1.174918	0.652973
C103	C	0.280282	-1.278947	0.568992
H104	H	0.320179	-1.170044	0.774780
H105	H	0.363940	-1.195081	0.623227
H106	H	0.299483	-1.082546	0.623071
H107	H	0.299205	-1.371362	0.598849
H108	H	0.234804	-1.258676	0.598746
H109	H	-0.487075	-1.625708	-0.000094
O110	O	-0.599039	-1.640312	-0.000314
C111	C	-0.616741	-1.848389	-0.125644
C112	C	-0.589000	-1.727629	-0.125570
H113	H	-0.608645	-1.919007	-0.226917
H114	H	-0.596957	-1.887373	-0.024528
H115	H	-0.665199	-1.828147	-0.125583
H116	H	-0.540541	-1.747767	-0.125682
H117	H	-0.608828	-1.688679	-0.226677
H118	H	-0.611615	-1.222002	-0.000084
H119	H	-0.503579	-1.224747	-0.000104
O120	O	0.048317	-1.221346	0.000230
C121	C	0.065958	-1.013200	0.125411
C122	C	0.038194	-1.133932	0.125342
H123	H	0.057773	-0.942486	0.226537
H124	H	0.114431	-1.033315	0.125506
H125	H	0.046187	-0.974393	0.024167
H126	H	0.057918	-1.172802	0.226569
H127	H	-0.010279	-1.113744	0.125171
H128	H	-0.234148	-1.121226	-0.000126
H129	H	0.278994	-1.039658	-0.000071
H130	H	-0.063688	-1.235908	-0.000003
