data_functionalizedCrystal
_audit_creation_method	'MofGen! by Chris Wilmer'
_symmetry_space_group_name_H-M	'P1'
_symmetry_Int_Tables_number	1
_symmetry_cell_setting	triclinic
loop_
_symmetry_equiv_pos_as_xyz
  x,y,z
_cell_length_a	19.288864
_cell_length_b	23.532357
_cell_length_c	22.010155
_cell_angle_alpha	90.016389
_cell_angle_beta	90.006397
_cell_angle_gamma	82.982267
loop_
_atom_site_label
_atom_site_type_symbol
_atom_site_fract_x
_atom_site_fract_y
_atom_site_fract_z
O1	O	0.921101	0.071052	0.050727
O2	O	1.421101	0.571052	0.550727
O3	O	0.718808	0.080637	0.050687
O4	O	1.218808	0.580637	0.550687
O5	O	0.826073	-0.007077	0.050696
O6	O	1.326073	0.492923	0.550696
O7	O	0.813836	0.158766	0.050718
O8	O	1.313836	0.658766	0.550718
O9	O	0.826089	-0.007092	-0.050355
O10	O	1.326089	0.492908	0.449645
O11	O	0.718825	0.080621	-0.050364
O12	O	1.218825	0.580621	0.449636
O13	O	0.921117	0.071037	-0.050323
O14	O	1.421117	0.571037	0.449677
Cu15	Cu	0.819973	0.075828	-0.059570
Cu16	Cu	1.319973	0.575828	0.440430
Cu17	Cu	0.819953	0.075846	0.059934
Cu18	Cu	1.319953	0.575846	0.559934
O19	O	0.813853	0.158750	-0.050332
O20	O	1.313853	0.658750	0.449668
C21	C	0.692941	0.080320	0.000156
C22	C	1.192941	0.580320	0.500156
C23	C	0.615841	0.079395	0.000140
C24	C	1.115841	0.579395	0.500140
C25	C	0.825775	-0.028301	0.000169
C26	C	1.325775	0.471699	0.500169
C27	C	0.824855	-0.091522	0.000163
C28	C	1.324855	0.408478	0.500163
C29	C	0.570975	0.130861	0.000157
C30	C	1.070975	0.630861	0.500157
C31	C	0.498530	0.129991	0.000163
C32	C	0.998530	0.629991	0.500163
C33	C	0.470956	0.077652	0.000165
C34	C	0.970956	0.577652	0.500165
C35	C	0.515832	0.026180	0.000145
C36	C	1.015832	0.526180	0.500145
C37	C	0.588274	0.027051	0.000133
C38	C	1.088274	0.527051	0.500133
C39	C	0.362824	0.036514	0.035583
C40	C	0.862824	0.536514	0.535583
C41	C	0.290382	0.035645	0.035599
C42	C	0.790382	0.535645	0.535599
C43	C	0.247519	0.074963	0.000202
C44	C	0.747519	0.574963	0.500202
C45	C	0.277105	0.115161	-0.035204
C46	C	0.777105	0.615161	0.464796
C47	C	0.349547	0.116032	-0.035217
C48	C	0.849547	0.616032	0.464783
C49	C	0.392405	0.076702	0.000179
C50	C	0.892405	0.576702	0.500179
C51	C	0.124100	0.125490	0.000225
C52	C	0.624100	0.625490	0.500225
C53	C	0.051655	0.124618	0.000228
C54	C	0.551655	0.624618	0.500228
C55	C	0.068958	0.020805	0.000216
C56	C	0.568958	0.520805	0.500216
C57	C	0.141401	0.021678	0.000207
C58	C	0.641401	0.521678	0.500207
C59	C	0.168968	0.074022	0.000214
C60	C	0.668968	0.574022	0.500214
C61	C	0.819069	-0.483537	0.055277
C62	C	1.319069	0.016463	0.555277
C63	C	0.818194	-0.542938	0.055280
C64	C	1.318194	-0.042938	0.555280
O65	O	0.817710	-0.573648	0.102126
O66	O	1.317710	-0.073648	0.602126
N67	N	0.817769	-0.572659	0.000198
N68	N	1.317769	-0.072659	0.500198
C69	C	0.818212	-0.542974	-0.054891
C70	C	1.318212	-0.042974	0.445109
O71	O	0.817770	-0.573708	-0.101742
O72	O	1.317770	-0.073708	0.398258
C73	C	0.819082	-0.483573	-0.054893
C74	C	1.319082	0.016427	0.445107
C75	C	0.819514	-0.453857	0.000192
C76	C	1.319514	0.046143	0.500192
C77	C	0.819500	-0.453820	0.110358
C78	C	1.319500	0.046180	0.610358
C79	C	0.820376	-0.394423	0.110354
C80	C	1.320376	0.105577	0.610354
C81	C	0.820821	-0.364743	0.055270
C82	C	1.320821	0.135257	0.555270
C83	C	0.820390	-0.394460	0.000189
C84	C	1.320390	0.105540	0.500189
C85	C	0.819520	-0.453889	-0.109981
C86	C	1.319520	0.046111	0.390019
C87	C	0.820389	-0.394484	-0.109979
C88	C	1.320389	0.105516	0.390021
C89	C	0.820821	-0.364768	-0.054894
C90	C	1.320821	0.135232	0.445106
C91	C	0.821711	-0.305382	-0.054899
C92	C	1.321711	0.194618	0.445101
N93	N	0.822136	-0.275662	0.000183
N94	N	1.322136	0.224338	0.500183
C95	C	0.821690	-0.305342	0.055267
C96	C	1.321690	0.194658	0.555267
C97	C	0.816385	-0.667719	-0.054881
C98	C	1.316385	-0.167719	0.445119
C99	C	0.815520	-0.727119	-0.054879
C100	C	1.315520	-0.227119	0.445121
C101	C	0.815500	-0.727079	0.055292
C102	C	1.315500	-0.227079	0.555292
C103	C	0.816370	-0.667679	0.055290
C104	C	1.316370	-0.167679	0.555290
C105	C	0.816809	-0.637999	0.000201
C106	C	1.316809	-0.137999	0.500201
C107	C	0.823531	-0.180604	0.055256
C108	C	1.323531	0.319396	0.555256
C109	C	0.824410	-0.121202	0.055247
C110	C	1.324410	0.378798	0.555247
C111	C	0.824426	-0.121247	-0.054923
C112	C	1.324426	0.378753	0.445077
C113	C	0.823550	-0.180644	-0.054915
C114	C	1.323550	0.319356	0.445085
C115	C	0.823101	-0.210321	0.000179
C116	C	1.323101	0.289679	0.500179
O117	O	0.822192	-0.274634	-0.101721
O118	O	1.322192	0.225366	0.398279
O119	O	0.822124	-0.274600	0.102110
O120	O	1.322124	0.225400	0.602110
C121	C	0.946984	0.071353	0.000209
C122	C	1.446984	0.571353	0.500209
C123	C	1.024085	0.072279	0.000229
C124	C	1.524085	0.572279	0.500229
C125	C	0.814151	0.179975	0.000196
C126	C	1.314151	0.679975	0.500196
C127	C	0.815071	0.243196	0.000206
C128	C	1.315071	0.743196	0.500206
N129	N	0.819992	0.075815	-0.143623
N130	N	1.319992	0.575815	0.356377
N131	N	0.819940	0.075855	0.143986
N132	N	1.319940	0.575855	0.643986
C133	C	0.867568	0.037073	0.563770
C134	C	1.367568	0.537073	1.063770
C135	C	0.867573	0.037070	0.627377
C136	C	1.367573	0.537070	1.127377
O137	O	0.908059	0.004119	0.660272
O138	O	1.408059	0.504119	1.160272
N139	N	0.819987	0.075828	0.659193
N140	N	1.319987	0.575828	1.159193
C141	C	0.772398	0.114595	0.627398
C142	C	1.272398	0.614595	1.127398
O143	O	0.731924	0.147561	0.660301
O144	O	1.231924	0.647561	1.160301
C145	C	0.772397	0.114599	0.563792
C146	C	1.272397	0.614599	1.063792
C147	C	0.819981	0.075835	0.531979
C148	C	1.319981	0.575835	1.031979
C149	C	0.915149	-0.001688	0.531957
C150	C	1.415149	0.498312	1.031957
C151	C	0.915143	-0.001686	0.468353
C152	C	1.415143	0.498314	0.968353
C153	C	0.867556	0.037077	0.436563
C154	C	1.367556	0.537077	0.936563
C155	C	0.819975	0.075837	0.468376
C156	C	1.319975	0.575837	0.968376
C157	C	0.724812	0.153368	0.531998
C158	C	1.224812	0.653368	1.031998
C159	C	0.724815	0.153370	0.468388
C160	C	1.224815	0.653370	0.968388
C161	C	0.772399	0.114606	0.436575
C162	C	1.272399	0.614606	0.936575
C163	C	0.772383	0.114602	0.372982
C164	C	1.272383	0.614602	0.872982
N165	N	0.819968	0.075844	0.341166
N166	N	1.319968	0.575844	0.841166
C167	C	0.867555	0.037082	0.372957
C168	C	1.367555	0.537082	0.872957
C169	C	0.772405	0.114582	0.760976
C170	C	1.272405	0.614582	1.260976
C171	C	0.772402	0.114575	0.824581
C172	C	1.272402	0.614575	1.324581
C173	C	0.867578	0.037052	0.824556
C174	C	1.367578	0.537052	1.324556
C175	C	0.867577	0.037056	0.760949
C176	C	1.367577	0.537056	1.260949
C177	C	0.819991	0.075825	0.729160
C178	C	1.319991	0.575825	1.229160
C179	C	0.867538	0.037088	0.239385
C180	C	1.367538	0.537088	0.739385
C181	C	0.867526	0.037092	0.175776
C182	C	1.367526	0.537092	0.675776
C183	C	0.772353	0.114617	0.175808
C184	C	1.272353	0.614617	0.675808
C185	C	0.772363	0.114612	0.239411
C186	C	1.272363	0.614612	0.739411
C187	C	0.819961	0.075845	0.271198
C188	C	1.319961	0.575845	0.771198
O189	O	0.731920	0.147538	0.340047
O190	O	1.231920	0.647538	0.840047
O191	O	0.908029	0.004126	0.340046
O192	O	1.408029	0.504126	0.840046
H193	H	0.593414	0.173483	0.000164
H194	H	1.093414	0.673483	0.500164
N195	N	0.450131	0.185505	0.000183
N196	N	0.950131	0.685505	0.500183
H197	H	0.458970	0.208349	0.037647
H198	H	0.958970	0.708349	0.537647
H199	H	0.400076	0.176962	0.000169
H200	H	0.900076	0.676962	0.500169
N201	N	0.918860	-0.004713	0.141466
N202	N	1.418860	0.495287	0.641466
H203	H	0.911256	-0.045141	0.152522
H204	H	1.411256	0.454859	0.652522
H205	H	0.968055	0.001880	0.152560
H206	H	1.468055	0.501880	0.652560
N207	N	0.409049	-0.005896	0.073767
N208	N	0.909049	0.494104	0.573767
H209	H	0.459430	0.000753	0.068385
H210	H	0.959430	0.500753	0.568385
H211	H	0.403056	-0.046102	0.060529
H212	H	0.903056	0.453898	0.560529
H213	H	0.815179	-0.751311	-0.099735
H214	H	1.315179	-0.251311	0.400265
H215	H	0.733649	0.146151	0.735096
H216	H	1.233649	0.646151	1.235096
H217	H	0.953892	-0.033249	0.442455
H218	H	1.453892	0.466751	0.942455
H219	H	0.816720	-0.643487	0.100145
H220	H	1.316720	-0.143487	0.600145
N221	N	0.819030	-0.485826	0.169777
N222	N	1.319030	0.014174	0.669777
H223	H	0.818416	-0.527967	0.161432
H224	H	1.318416	-0.027967	0.661432
H225	H	0.776116	-0.470703	0.193825
H226	H	1.276116	0.029297	0.693825
N227	N	0.815020	-0.759097	0.114707
N228	N	1.315020	-0.259097	0.614707
H229	H	0.814401	-0.801236	0.106346
H230	H	1.314401	-0.301236	0.606346
H231	H	0.772102	-0.743978	0.138753
H232	H	1.272102	-0.243978	0.638753
H233	H	0.686065	0.184934	0.557891
H234	H	1.186065	0.684934	1.057891
H235	H	0.906298	0.005522	0.265259
H236	H	1.406298	0.505522	0.765259
H237	H	0.733609	0.146172	0.265313
H238	H	1.233609	0.646172	0.765313
H239	H	0.824763	-0.097010	0.100106
H240	H	1.324763	0.402990	0.600106
H241	H	0.816744	-0.643558	-0.099743
H242	H	1.316744	-0.143558	0.400257
N243	N	0.966480	-0.043498	0.566239
N244	N	1.466480	0.456502	1.066239
H245	H	0.996617	-0.068047	0.536425
H246	H	1.496617	0.431953	1.036425
H247	H	0.940137	-0.068673	0.592615
H248	H	1.440137	0.431327	1.092615
H249	H	0.242207	0.147177	-0.064028
H250	H	0.742207	0.647177	0.435972
N251	N	0.824896	-0.089226	-0.114333
N252	N	1.324896	0.410774	0.385667
H253	H	0.824489	-0.117061	-0.149231
H254	H	1.324489	0.382939	0.350769
H255	H	0.868322	-0.069310	-0.116728
H256	H	1.368322	0.430690	0.383272
H257	H	0.906324	0.005492	0.735051
H258	H	1.406324	0.505492	1.235051
N259	N	0.258474	-0.007710	0.073782
N260	N	0.758474	0.492290	0.573782
H261	H	0.224944	0.012845	0.104068
H262	H	0.724944	0.512845	0.604068
H263	H	0.296660	-0.032479	0.096157
H264	H	0.796660	0.467521	0.596157
N265	N	0.381460	0.159381	-0.073403
N266	N	0.881460	0.659381	0.426597
H267	H	0.343319	0.184159	-0.095827
H268	H	0.843319	0.684159	0.404173
H269	H	0.414999	0.138777	-0.103648
H270	H	0.914999	0.638777	0.396352
N271	N	0.673489	0.195185	0.434101
N272	N	1.173489	0.695185	0.934101
H273	H	0.643348	0.219738	0.463910
H274	H	1.143348	0.719738	0.963910
H275	H	0.642993	0.173395	0.407702
H276	H	1.142993	0.673395	0.907702
N277	N	0.918905	-0.004759	0.858850
N278	N	1.418905	0.495241	1.358850
H279	H	0.911682	0.001124	0.903971
H280	H	1.411682	0.501124	1.403971
H281	H	0.968104	0.001795	0.847741
H282	H	1.468104	0.501795	1.347741
N283	N	0.636669	-0.028462	0.000124
N284	N	1.136669	0.471538	0.500124
H285	H	0.686744	-0.019968	0.000119
H286	H	1.186744	0.480032	0.500119
H287	H	0.627775	-0.051287	-0.037337
H288	H	1.127775	0.448713	0.462663
H289	H	0.733648	0.146135	0.850479
H290	H	1.233648	0.646135	1.350479
H291	H	0.819170	-0.478074	-0.154838
H292	H	1.319170	0.021926	0.345162
N293	N	0.721036	0.156424	0.141507
N294	N	1.221036	0.656424	0.641507
H295	H	0.728655	0.196850	0.152589
H296	H	1.228655	0.696850	0.652589
H297	H	0.671834	0.149847	0.152577
H298	H	1.171834	0.649847	0.652577
H299	H	0.146545	0.168111	0.000222
H300	H	0.646545	0.668111	0.500222
N301	N	0.003280	0.180142	0.000209
N302	N	0.503280	0.680142	0.500209
H303	H	0.012110	0.203005	0.037662
H304	H	0.512110	0.703005	0.537662
H305	H	-0.046782	0.171621	0.000179
H306	H	0.453218	0.671621	0.500179
N307	N	0.039227	-0.035647	0.000211
N308	N	0.539227	0.464353	0.500211
H309	H	-0.013473	-0.028391	0.000220
H310	H	0.486527	0.471609	0.500220
H311	H	0.055678	-0.058157	0.037667
H312	H	0.555678	0.441843	0.537667
H313	H	0.823161	-0.204760	0.100119
H314	H	1.323161	0.295240	0.600119
H315	H	0.820725	-0.370233	0.155211
H316	H	1.320725	0.129767	0.655211
N317	N	0.820866	-0.362469	-0.169395
N318	N	1.320866	0.137531	0.330605
H319	H	0.777653	-0.368084	-0.193483
H320	H	1.277653	0.131916	0.306517
H321	H	0.863809	-0.377563	-0.193421
H322	H	1.363809	0.122437	0.306579
N323	N	0.189798	-0.033832	0.000189
N324	N	0.689798	0.466168	0.500189
H325	H	0.161340	-0.067121	0.000191
H326	H	0.661340	0.432879	0.500191
H327	H	0.220246	-0.035728	0.037643
H328	H	0.720246	0.464272	0.537643
H329	H	0.823205	-0.204841	-0.099770
H330	H	1.323205	0.295159	0.400230
H331	H	0.493376	-0.016435	0.000156
H332	H	0.993376	0.483565	0.500156
