data_functionalizedCrystal
_audit_creation_method	'MofGen! by Chris Wilmer'
_symmetry_space_group_name_H-M	'P1'
_symmetry_Int_Tables_number	1
_symmetry_cell_setting	triclinic
loop_
_symmetry_equiv_pos_as_xyz
  x,y,z
_cell_length_a	11.792241
_cell_length_b	11.792254
_cell_length_c	9.798715
_cell_angle_alpha	90.000223
_cell_angle_beta	90.006712
_cell_angle_gamma	84.196007
loop_
_atom_site_label
_atom_site_type_symbol
_atom_site_fract_x
_atom_site_fract_y
_atom_site_fract_z
O1	O	0.155640	1.506893	0.113490
O2	O	0.488973	1.840226	0.446824
O3	O	0.822307	2.173560	0.780157
O4	O	0.171658	1.176554	0.113493
O5	O	0.504991	1.509887	0.446827
O6	O	0.838325	1.843220	0.780160
O7	O	-0.001521	1.349740	0.113482
O8	O	0.331812	1.683073	0.446816
O9	O	0.665146	2.016406	0.780149
O10	O	0.328819	1.333707	0.113502
O11	O	0.662152	1.667040	0.446835
O12	O	0.995486	2.000374	0.780168
O13	O	-0.001534	1.349739	-0.113500
O14	O	0.331799	1.683073	0.219833
O15	O	0.665133	2.016406	0.553167
O16	O	0.171645	1.176553	-0.113489
O17	O	0.504978	1.509887	0.219845
O18	O	0.838312	1.843220	0.553178
O19	O	0.155627	1.506892	-0.113492
O20	O	0.488960	1.840226	0.219842
O21	O	0.822294	2.173559	0.553175
Zn22	Zn	0.163634	1.341723	-0.149529
Zn23	Zn	0.496967	1.675056	0.183805
Zn24	Zn	0.830301	2.008389	0.517138
Zn25	Zn	0.163651	1.341723	0.149530
Zn26	Zn	0.496984	1.675057	0.482864
Zn27	Zn	0.830318	2.008390	0.816197
O28	O	0.328806	1.333706	-0.113481
O29	O	0.662140	1.667040	0.219853
O30	O	0.995473	2.000373	0.553186
C31	C	0.170642	1.134263	0.000003
C32	C	0.503976	1.467596	0.333336
C33	C	0.837309	1.800929	0.666669
C34	C	0.167622	1.008250	0.000004
C35	C	0.500956	1.341583	0.333337
C36	C	0.834289	1.674916	0.666670
C37	C	0.165168	0.905913	0.000009
C38	C	0.498502	1.239247	0.333343
C39	C	0.831835	1.572580	0.666676
C40	C	0.162100	0.777527	0.000010
C41	C	0.495433	1.110860	0.333343
C42	C	0.828767	1.444193	0.666677
C43	C	-0.043819	1.348732	-0.000008
C44	C	0.289515	1.682066	0.333325
C45	C	0.622848	2.015399	0.666658
C46	C	-0.169832	1.345718	-0.000007
C47	C	0.163501	1.679051	0.333326
C48	C	0.496834	2.012385	0.666660
C49	C	-0.400545	1.340175	0.000016
C50	C	-0.067212	1.673508	0.333349
C51	C	0.266122	2.006842	0.666683
C52	C	-0.272160	1.343255	0.000003
C53	C	0.061174	1.676588	0.333337
C54	C	0.394507	2.009921	0.666670
C55	C	0.371104	1.334714	0.000013
C56	C	0.704437	1.668047	0.333346
C57	C	1.037770	2.001380	0.666680
C58	C	0.497118	1.337728	0.000021
C59	C	0.830451	1.671061	0.333354
C60	C	1.163784	2.004395	0.666687
C61	C	0.156643	1.549183	0.000002
C62	C	0.489976	1.882517	0.333335
C63	C	0.823309	2.215850	0.666669
C64	C	0.159663	1.675196	0.000010
C65	C	0.492996	2.008530	0.333343
C66	C	0.826329	2.341863	0.666677
N67	N	0.163654	1.341724	0.353630
N68	N	0.496988	1.675058	0.686963
N69	N	0.830321	2.008391	1.020297
N70	N	0.163622	1.341731	-0.353628
N71	N	0.496955	1.675064	-0.020295
N72	N	0.830288	2.008397	0.313038
C73	C	0.090779	1.414599	0.421402
C74	C	0.424112	1.747932	0.754735
C75	C	0.757446	2.081266	1.088069
C76	C	0.090761	1.414603	0.578565
C77	C	0.424094	1.747936	0.911898
C78	C	0.757427	2.081270	1.245231
H79	H	0.028365	1.476990	0.636846
H80	H	0.361698	1.810323	0.970179
H81	H	0.695031	2.143656	1.303513
N82	N	0.246266	1.259073	0.569188
N83	N	0.579599	1.592407	0.902521
N84	N	0.912933	1.925740	1.235855
H85	H	0.296763	1.302808	0.509914
H86	H	0.630096	1.636142	0.843248
H87	H	0.963429	1.969475	1.176581
H88	H	0.294808	1.210462	0.636125
H89	H	0.628142	1.543795	0.969458
H90	H	0.961475	1.877129	1.302791
N91	N	0.008154	1.497252	0.344156
N92	N	0.341487	1.830585	0.677489
N93	N	0.674821	2.163918	1.010822
H94	H	0.019881	1.485535	0.242833
H95	H	0.353215	1.818868	0.576166
H96	H	0.686548	2.152202	0.909500
H97	H	-0.072472	1.483647	0.369032
H98	H	0.260861	1.816980	0.702366
H99	H	0.594194	2.150313	1.035699
N100	N	0.246278	1.259080	0.430890
N101	N	0.579611	1.592413	0.764223
N102	N	0.912945	1.925747	1.097557
H103	H	0.232704	1.178423	0.406092
H104	H	0.566037	1.511756	0.739426
H105	H	0.899371	1.845089	1.072759
H106	H	0.326906	1.272741	0.406093
H107	H	0.660239	1.606074	0.739426
H108	H	0.993573	1.939407	1.072760
