data_functionalizedCrystal
_audit_creation_method	'MofGen! by Chris Wilmer'
_symmetry_space_group_name_H-M	'P1'
_symmetry_Int_Tables_number	1
_symmetry_cell_setting	triclinic
loop_
_symmetry_equiv_pos_as_xyz
  x,y,z
_cell_length_a	11.792254
_cell_length_b	11.792241
_cell_length_c	10.868271
_cell_angle_alpha	89.999844
_cell_angle_beta	89.998414
_cell_angle_gamma	84.196007
loop_
_atom_site_label
_atom_site_type_symbol
_atom_site_fract_x
_atom_site_fract_y
_atom_site_fract_z
O1	O	0.155561	1.506916	-0.102203
O2	O	0.655561	2.006916	0.397797
O3	O	0.171594	1.176576	-0.102232
O4	O	0.671594	1.676576	0.397768
O5	O	-0.001592	1.349755	-0.102208
O6	O	0.498408	1.849755	0.397792
O7	O	0.328747	1.333737	-0.102227
O8	O	0.828747	1.833737	0.397773
O9	O	-0.001586	1.349739	0.102436
O10	O	0.498414	1.849739	0.602436
O11	O	0.171600	1.176560	0.102413
O12	O	0.671600	1.676560	0.602413
O13	O	0.155567	1.506900	0.102441
O14	O	0.655567	2.006900	0.602441
Zn15	Zn	0.163584	1.341728	0.134919
Zn16	Zn	0.663584	1.841728	0.634919
Zn17	Zn	0.163577	1.341748	-0.134709
Zn18	Zn	0.663577	1.841748	0.365291
O19	O	0.328753	1.333721	0.102418
O20	O	0.828753	1.833721	0.602418
C21	C	-0.043880	1.348738	0.000114
C22	C	0.456120	1.848738	0.500114
C23	C	-0.169893	1.345718	0.000112
C24	C	0.330107	1.845718	0.500112
C25	C	0.170590	1.134277	0.000087
C26	C	0.670590	1.634277	0.500087
C27	C	0.167576	1.008263	0.000076
C28	C	0.667576	1.508263	0.500076
C29	C	-0.272229	1.343264	0.000108
C30	C	0.227771	1.843264	0.500108
C31	C	-0.400616	1.340196	0.000096
C32	C	0.099384	1.840196	0.500096
C33	C	0.162033	0.777551	0.000112
C34	C	0.662033	1.277551	0.500112
C35	C	0.165112	0.905936	0.000092
C36	C	0.665112	1.405936	0.500092
C37	C	0.371041	1.334738	0.000093
C38	C	0.871041	1.834738	0.500093
C39	C	0.497054	1.337758	0.000086
C40	C	0.997054	1.837758	0.500086
C41	C	0.156571	1.549199	0.000120
C42	C	0.656571	2.049199	0.500120
C43	C	0.159586	1.675213	0.000123
C44	C	0.659586	2.175213	0.500123
N45	N	0.163589	1.341722	0.318933
N46	N	0.663589	1.841722	0.818933
N47	N	0.163564	1.341763	-0.318724
N48	N	0.663564	1.841763	0.181276
C49	C	0.163589	1.341731	0.430270
C50	C	0.663589	1.841731	0.930270
C51	C	0.163579	1.341745	0.569948
C52	C	0.663579	1.841745	1.069948
