data_functionalizedCrystal
_audit_creation_method	'MofGen! by Chris Wilmer'
_symmetry_space_group_name_H-M	'P1'
_symmetry_Int_Tables_number	1
_symmetry_cell_setting	triclinic
loop_
_symmetry_equiv_pos_as_xyz
  x,y,z
_cell_length_a	10.908937
_cell_length_b	11.026607
_cell_length_c	14.048226
_cell_angle_alpha	89.996210
_cell_angle_beta	89.991348
_cell_angle_gamma	84.335986
loop_
_atom_site_label
_atom_site_type_symbol
_atom_site_fract_x
_atom_site_fract_y
_atom_site_fract_z
O1	O	1.662452	-0.179057	-0.079190
O2	O	1.309520	-0.088520	-0.079185
O3	O	1.456735	-0.304539	-0.079183
O4	O	1.515236	0.036962	-0.079191
O5	O	1.456710	-0.304545	0.079138
O6	O	1.309495	-0.088526	0.079137
O7	O	1.662427	-0.179063	0.079132
Zn8	Zn	1.485957	-0.133795	0.104271
Zn9	Zn	1.485990	-0.133788	-0.104324
O10	O	1.515211	0.036956	0.079130
C11	C	1.263622	-0.080062	-0.000023
C12	C	1.126895	-0.054865	-0.000021
C13	C	0.915317	-0.120775	-0.000037
C14	C	1.056631	-0.146820	-0.000024
C15	C	1.445930	-0.347575	-0.000024
C16	C	1.413757	-0.475796	-0.000026
C17	C	1.502592	-0.567529	-0.000029
C18	C	1.469342	-0.700053	-0.000032
C19	C	1.708325	-0.187521	-0.000032
C20	C	1.845052	-0.212718	-0.000040
C21	C	1.526016	0.079992	-0.000031
C22	C	1.558189	0.208213	-0.000035
N23	N	1.485943	-0.133803	0.246632
N24	N	1.486011	-0.133791	-0.246685
C25	C	1.551164	-0.229429	0.296450
C26	C	1.551172	-0.229431	0.396108
C27	C	1.485966	-0.133802	0.445945
C28	C	1.420737	-0.038171	0.396120
C29	C	1.420722	-0.038174	0.296464
C30	C	1.420774	-0.038170	0.603834
C31	C	1.420790	-0.038165	0.703497
C32	C	1.551224	-0.229427	0.703478
C33	C	1.551209	-0.229430	0.603822
C34	C	1.485982	-0.133797	0.554004
H35	H	0.889514	-0.310715	-0.000040
H36	H	1.603262	-0.547952	-0.000025
H37	H	1.604312	-0.307294	0.563245
H38	H	1.082440	0.043139	-0.000030
H39	H	1.604268	-0.307297	0.255880
H40	H	1.368665	-0.719623	-0.000037
Br41	Br	1.725994	-0.759184	-0.000045
Br42	Br	1.245961	-0.508410	-0.000038
H43	H	1.604333	-0.307294	0.744046
H44	H	1.367691	0.039705	0.744069
H45	H	1.367654	0.039702	0.563275
H46	H	1.367638	0.039689	0.436703
H47	H	0.870855	-0.022779	-0.000049
H48	H	1.604278	-0.307298	0.436670
Br49	Br	1.332195	0.091604	0.228853
H50	H	1.101088	-0.244824	-0.000024
