data_functionalizedCrystal
_audit_creation_method	'MofGen! by Chris Wilmer'
_symmetry_space_group_name_H-M	'P1'
_symmetry_Int_Tables_number	1
_symmetry_cell_setting	triclinic
loop_
_symmetry_equiv_pos_as_xyz
  x,y,z
_cell_length_a	14.853558
_cell_length_b	14.853567
_cell_length_c	15.455313
_cell_angle_alpha	92.672621
_cell_angle_beta	87.315599
_cell_angle_gamma	83.633032
loop_
_atom_site_label
_atom_site_type_symbol
_atom_site_fract_x
_atom_site_fract_y
_atom_site_fract_z
O1	O	1.200316	0.113727	-0.072113
O2	O	0.937855	0.127757	-0.072116
O3	O	1.076096	-0.010488	-0.072117
O4	O	1.062075	0.251972	-0.072112
O5	O	1.068191	-0.002616	0.072145
O6	O	0.929950	0.135630	0.072146
O7	O	1.192410	0.121600	0.072149
Cu8	Cu	1.060458	0.129333	0.085320
Cu9	Cu	1.069807	0.120023	-0.085287
O10	O	1.054169	0.259845	0.072150
C11	C	0.900314	0.131059	0.000014
C12	C	0.800230	0.129158	0.000013
C13	C	0.757519	0.123975	-0.078628
C14	C	0.748898	0.132548	0.078652
C15	C	0.654865	0.130758	0.078654
C16	C	0.612154	0.125575	0.000013
C17	C	0.663477	0.122182	-0.078629
C18	C	0.603536	0.134141	0.157294
C19	C	0.509497	0.132350	0.157299
C20	C	0.466783	0.127173	0.078657
C21	C	0.518112	0.123781	0.000012
C22	C	0.475401	0.118598	-0.078628
C23	C	0.526727	0.115213	-0.157274
C24	C	0.620763	0.117005	-0.157270
C25	C	0.372747	0.125381	0.078653
C26	C	0.381359	0.116805	-0.078629
C27	C	1.071508	-0.040141	0.000011
C28	C	1.069605	-0.140225	0.000004
C29	C	0.979438	-0.552755	0.000019
C30	C	1.143672	-0.574041	0.000021
C31	C	1.145462	-0.480008	0.000016
C32	C	1.064239	-0.422343	0.000014
C33	C	0.981226	-0.458712	0.000017
C34	C	1.228473	-0.443631	0.000022
C35	C	1.230267	-0.349592	0.000018
C36	C	1.149043	-0.291926	0.000010
C37	C	1.066027	-0.328301	0.000012
C38	C	0.984804	-0.270636	0.000009
C39	C	0.901787	-0.307009	0.000005
C40	C	0.900002	-0.401046	0.000008
C41	C	1.150828	-0.197889	0.000006
C42	C	0.986592	-0.176594	0.000007
C43	C	1.229952	0.118297	0.000017
C44	C	1.330036	0.120198	0.000013
C45	C	1.058757	0.289497	0.000020
C46	C	1.060661	0.389581	0.000022
N47	N	1.053889	0.135881	0.205316
N48	N	1.076383	0.113468	-0.205282
C49	C	1.112639	0.077172	0.250709
C50	C	1.107680	0.082132	0.341517
C51	C	1.043974	0.145807	0.386930
C52	C	0.985218	0.204519	0.341530
C53	C	0.990173	0.199554	0.250723
C54	C	1.022583	0.167215	0.658511
C55	C	1.017633	0.172177	0.749324
C56	C	1.140095	0.049788	0.749305
C57	C	1.145049	0.044832	0.658497
C58	C	1.086289	0.103541	0.613105
N59	N	1.038905	0.150881	0.479750
N60	N	1.091355	0.098463	0.520286
H61	H	0.799312	0.121223	-0.142659
O62	O	1.206957	-0.017105	0.614521
C63	C	1.327933	-0.137939	0.624088
C64	C	1.257849	-0.067856	0.673999
H65	H	1.369111	-0.178977	0.672155
H66	H	1.291323	-0.185432	0.581611
H67	H	1.375295	-0.101241	0.581538
H68	H	1.210467	-0.104477	0.716596
H69	H	1.294518	-0.020366	0.716422
H70	H	1.297864	-0.319986	0.000020
O71	O	0.323001	0.128551	0.155094
C72	C	0.296945	0.057246	0.289486
C73	C	0.353364	0.053556	0.202952
H74	H	0.321460	-0.003390	0.328196
H75	H	0.305155	0.122712	0.328337
H76	H	0.222398	0.055121	0.275956
H77	H	0.427932	0.055645	0.216404
H78	H	0.345077	-0.011905	0.164128
O79	O	1.164728	0.024979	0.385512
C80	C	1.215846	-0.130163	0.413328
C81	C	1.151199	-0.065539	0.363438
H82	H	1.204917	-0.203360	0.395514
H83	H	1.289055	-0.119322	0.395434
H84	H	1.201382	-0.115639	0.486027
H85	H	1.165582	-0.080023	0.290728
H86	H	1.078011	-0.076393	0.381404
H87	H	0.783680	0.136761	0.142678
O88	O	0.955656	0.234052	0.793305
C89	C	0.834729	0.354937	0.783746
C90	C	0.904857	0.284901	0.733830
H91	H	0.793652	0.396081	0.735683
H92	H	0.787277	0.318288	0.826248
H93	H	0.871392	0.402337	0.826273
H94	H	0.868271	0.237483	0.691257
H95	H	0.952305	0.321610	0.691384
O96	O	0.459757	0.135528	0.233748
C97	C	0.433710	0.064240	0.368151
C98	C	0.490123	0.060538	0.281612
H99	H	0.458227	0.003607	0.406865
H100	H	0.441926	0.129709	0.406994
H101	H	0.359161	0.062115	0.354628
H102	H	0.564692	0.062626	0.295056
H103	H	0.481830	-0.004926	0.242796
O104	O	0.965644	0.224289	0.614334
C105	C	0.952201	0.341833	0.511864
C106	C	1.016787	0.277220	0.561826
H107	H	0.993524	0.384658	0.469412
H108	H	0.909443	0.300564	0.469303
H109	H	0.905811	0.388156	0.559944
H110	H	1.063234	0.230883	0.513807
H111	H	1.059482	0.318545	0.604400
H112	H	1.164519	0.025325	0.213740
O113	O	0.923290	0.266254	0.385738
C114	C	0.794569	0.290824	0.488250
C115	C	0.864659	0.220812	0.438255
H116	H	0.747136	0.254111	0.530707
H117	H	0.831174	0.338248	0.530808
H118	H	0.753469	0.331951	0.440191
H119	H	0.905780	0.179623	0.486251
H120	H	0.827999	0.173451	0.395684
O121	O	0.645162	0.139215	0.233603
C122	C	0.786222	0.145735	0.303301
C123	C	0.739190	0.140004	0.216817
H124	H	0.862253	0.146356	0.289760
H125	H	0.757494	0.210555	0.342099
H126	H	0.773737	0.084466	0.342078
H127	H	0.751657	0.201226	0.177971
H128	H	0.767924	0.075147	0.178085
H129	H	0.835655	-0.260046	0.000009
O130	O	1.307431	-0.499561	-0.000092
C131	C	1.451324	-0.550666	-0.074855
C132	C	1.361951	-0.487256	-0.074821
H133	H	1.495420	-0.540753	-0.135276
H134	H	1.488929	-0.534131	-0.014521
H135	H	1.435755	-0.624112	-0.074817
H136	H	1.377440	-0.413789	-0.074889
H137	H	1.324372	-0.503869	-0.135150
H138	H	0.832414	-0.430670	0.000006
H139	H	0.942332	0.247361	0.213765
O140	O	1.222583	-0.630005	0.000177
C141	C	1.358344	-0.672853	0.074883
C142	C	1.268989	-0.609427	0.074829
H143	H	1.395897	-0.656226	0.135224
H144	H	1.342859	-0.746326	0.074944
H145	H	1.402457	-0.662919	0.014480
H146	H	1.224832	-0.619280	0.135222
H147	H	1.284540	-0.535977	0.074723
O148	O	0.907604	-0.120708	0.000041
C149	C	0.744519	-0.109523	-0.000022
C150	C	0.833903	-0.172914	-0.000040
H151	H	0.684910	-0.151707	-0.000106
H152	H	0.737874	-0.061685	0.060366
H153	H	0.744611	-0.068241	-0.060381
H154	H	0.833873	-0.214255	0.060278
H155	H	0.840513	-0.220693	-0.060468
H156	H	0.346590	0.112590	-0.142669
H157	H	1.218419	-0.168278	0.000015
O158	O	0.485085	0.110218	-0.233587
C159	C	0.344034	0.103591	-0.303276
C160	C	0.391079	0.109271	-0.216795
H161	H	0.268025	0.102804	-0.289730
H162	H	0.356392	0.164888	-0.342064
H163	H	0.372876	0.038805	-0.342064
H164	H	0.362266	0.174018	-0.177937
H165	H	0.378725	0.047929	-0.178073
O166	O	0.670762	0.113676	-0.233583
C167	C	0.819448	0.112679	-0.303280
C168	C	0.762932	0.116439	-0.216796
H169	H	0.893976	0.114931	-0.289738
H170	H	0.811327	0.047155	-0.342075
H171	H	0.794862	0.173239	-0.342059
H172	H	0.787481	0.055925	-0.177947
H173	H	0.771056	0.182001	-0.178067
H174	H	1.187933	0.001989	0.786272
H175	H	0.911848	-0.582374	0.000012
