data_functionalizedCrystal
_audit_creation_method	'MofGen! by Chris Wilmer'
_symmetry_space_group_name_H-M	'P1'
_symmetry_Int_Tables_number	1
_symmetry_cell_setting	triclinic
loop_
_symmetry_equiv_pos_as_xyz
  x,y,z
_cell_length_a	19.805407
_cell_length_b	19.805404
_cell_length_c	19.805399
_cell_angle_alpha	89.972890
_cell_angle_beta	90.021064
_cell_angle_gamma	89.971422
loop_
_atom_site_label
_atom_site_type_symbol
_atom_site_fract_x
_atom_site_fract_y
_atom_site_fract_z
Zn1	Zn	-1.034721	-0.269497	-0.382749
Zn2	Zn	-1.034629	-0.382686	-0.269561
Zn3	Zn	-0.921535	-0.269514	-0.269570
Zn4	Zn	-0.921493	-0.382648	-0.382705
O5	O	-0.978094	-0.326086	-0.326146
O6	O	-1.129425	-0.284521	-0.367749
O7	O	-1.019607	-0.367696	-0.174846
O8	O	-0.936606	-0.174795	-0.284606
O9	O	-1.129358	-0.367680	-0.284590
O10	O	-1.019763	-0.174783	-0.367757
O11	O	-0.936517	-0.284549	-0.174853
O12	O	-0.826813	-0.284512	-0.284564
O13	O	-0.936533	-0.367615	-0.477428
O14	O	-0.826782	-0.367631	-0.367683
O15	O	-1.019721	-0.284484	-0.477460
O16	O	-1.019565	-0.477397	-0.284548
O17	O	-0.936444	-0.477369	-0.367675
C18	C	-0.802238	-0.326070	-0.326120
C19	C	-0.727006	-0.326079	-0.326125
C20	C	-0.978009	-0.501942	-0.326120
C21	C	-0.978034	-0.577174	-0.326132
C22	C	-0.691664	-0.369424	-0.369334
C23	C	-0.620975	-0.369424	-0.369342
C24	C	-0.585631	-0.326082	-0.326136
C25	C	-0.620979	-0.282733	-0.282925
C26	C	-0.691666	-0.282730	-0.282921
C27	C	-0.335905	-0.282743	-0.282940
C28	C	-0.265213	-0.282750	-0.282946
C29	C	-0.265215	-0.369437	-0.369361
C30	C	-0.335902	-0.369434	-0.369357
C31	C	-0.371244	-0.326082	-0.326148
C32	C	-0.447892	-0.326082	-0.326141
C33	C	-0.508984	-0.326085	-0.326139
C34	C	-0.154637	-0.326098	-0.326167
C35	C	-0.229869	-0.326092	-0.326159
C36	C	-1.021542	-1.038957	-0.282957
C37	C	-1.021510	-0.968269	-0.282944
C38	C	-0.978183	-0.932936	-0.326182
C39	C	-0.934880	-0.968295	-0.369432
C40	C	-0.934909	-1.038982	-0.369441
C41	C	-0.934763	-0.683222	-0.369395
C42	C	-0.934739	-0.612530	-0.369383
C43	C	-1.021364	-0.612508	-0.282898
C44	C	-1.021392	-0.683195	-0.282907
C45	C	-0.978087	-0.718548	-0.326154
C46	C	-0.978121	-0.795197	-0.326166
C47	C	-0.978152	-0.856289	-0.326173
C48	C	-0.978132	-0.326043	-0.502689
C49	C	-0.978149	-0.326025	-0.577921
C50	C	-0.978199	-0.149543	-0.326187
C51	C	-0.978244	-0.074311	-0.326205
C52	C	-1.021466	-0.282737	-0.613283
C53	C	-1.021473	-0.282717	-0.683972
C54	C	-0.978165	-0.325990	-0.719297
C55	C	-0.934844	-0.369280	-0.683930
C56	C	-0.934834	-0.369296	-0.613243
C57	C	-0.934882	-0.369217	-0.969004
C58	C	-0.934896	-0.369200	-1.039696
C59	C	-1.021521	-0.282638	-1.039732
C60	C	-1.021511	-0.282654	-0.969045
C61	C	-0.978187	-0.325942	-0.933684
C62	C	-0.978179	-0.325961	-0.857036
C63	C	-0.978176	-0.325974	-0.795944
C64	C	-0.978096	-0.326080	-0.150290
C65	C	-0.978211	-0.325907	-0.075059
H66	H	-0.720436	-0.404720	-0.404515
H67	H	-1.056795	-0.247389	-1.068531
H68	H	-1.056676	-0.711960	-0.247700
C69	C	-0.374780	-0.417118	-0.416871
H70	H	-0.421941	-0.410916	-0.410673
H71	H	-0.363226	-0.407284	-0.462370
H72	H	-0.363166	-0.462582	-0.406871
C73	C	-1.069137	-0.235118	-0.722870
H74	H	-1.062941	-0.241304	-0.770028
H75	H	-1.114601	-0.245047	-0.711287
H76	H	-1.059269	-0.189635	-0.711300
C77	C	-0.887225	-0.929434	-0.416998
H78	H	-0.861439	-0.960616	-0.442753
H79	H	-0.913091	-0.901820	-0.446510
H80	H	-0.857734	-0.901899	-0.391074
H81	H	-0.592196	-0.247440	-0.247749
C82	C	-0.887075	-0.573661	-0.416944
H83	H	-0.893268	-0.526500	-0.410748
H84	H	-0.841609	-0.585289	-0.406993
H85	H	-0.896959	-0.585209	-0.462435
H86	H	-0.899496	-0.711998	-0.404603
H87	H	-0.720441	-0.247431	-0.247739
H88	H	-0.899580	-0.404511	-0.712698
C89	C	-1.068989	-0.573618	-0.235316
H90	H	-1.062762	-0.526459	-0.241494
H91	H	-1.114465	-0.585153	-0.245265
H92	H	-1.059108	-0.585245	-0.189830
H93	H	-0.899655	-1.067767	-0.404661
C94	C	-1.069101	-0.235133	-0.574431
H95	H	-1.094894	-0.209344	-0.605619
H96	H	-1.098575	-0.261028	-0.546854
H97	H	-1.043216	-0.205643	-0.546861
C98	C	-1.069146	-0.235052	-0.930191
H99	H	-1.094941	-0.209262	-0.961376
H100	H	-1.098618	-0.260949	-0.902614
H101	H	-1.043260	-0.205563	-0.902620
C102	C	-1.069199	-1.077820	-0.235395
H103	H	-1.063021	-1.124983	-0.241596
H104	H	-1.059315	-1.066271	-0.189907
H105	H	-1.114669	-1.066188	-0.245346
C106	C	-1.069142	-0.929382	-0.235376
H107	H	-1.094956	-0.960549	-0.209633
H108	H	-1.043262	-0.901848	-0.205853
H109	H	-1.098606	-0.901765	-0.261300
H110	H	-0.592202	-0.404720	-0.404527
C111	C	-0.887251	-0.416797	-1.078553
H112	H	-0.861442	-0.442575	-1.047370
H113	H	-0.913127	-0.446286	-1.106126
H114	H	-0.857782	-0.390887	-1.106127
H115	H	-0.236438	-0.247452	-0.247762
C116	C	-0.226337	-0.417116	-0.416897
H117	H	-0.179176	-0.410908	-0.410719
H118	H	-0.237896	-0.462580	-0.406909
H119	H	-0.237949	-0.407266	-0.462393
H120	H	-0.899615	-0.404475	-0.940221
C121	C	-0.374772	-0.235070	-0.235401
H122	H	-0.343597	-0.209267	-0.209664
H123	H	-0.402375	-0.205607	-0.261334
H124	H	-0.402319	-0.260932	-0.205861
H125	H	-0.899554	-0.404539	-0.584452
