data_functionalizedCrystal
_audit_creation_method	'MofGen! by Chris Wilmer'
_symmetry_space_group_name_H-M	'P1'
_symmetry_Int_Tables_number	1
_symmetry_cell_setting	triclinic
loop_
_symmetry_equiv_pos_as_xyz
  x,y,z
_cell_length_a	12.759401
_cell_length_b	12.759400
_cell_length_c	12.759393
_cell_angle_alpha	90.030490
_cell_angle_beta	90.020938
_cell_angle_gamma	90.016209
loop_
_atom_site_label
_atom_site_type_symbol
_atom_site_fract_x
_atom_site_fract_y
_atom_site_fract_z
Zn1	Zn	1.606266	-0.418173	0.594020
Zn2	Zn	1.606158	-0.593888	0.418340
Zn3	Zn	1.430565	-0.418229	0.418355
Zn4	Zn	1.430557	-0.593815	0.593978
O5	O	1.518387	-0.506026	0.506173
O6	O	1.753273	-0.441489	0.570727
O7	O	1.582823	-0.570641	0.271321
O8	O	1.453921	-0.271200	0.441682
O9	O	1.753193	-0.570587	0.441656
O10	O	1.583008	-0.271159	0.570742
O11	O	1.453816	-0.441584	0.271332
O12	O	1.283543	-0.441513	0.441640
O13	O	1.453908	-0.570461	0.741004
O14	O	1.283537	-0.570516	0.570669
O15	O	1.583000	-0.441418	0.741036
O16	O	1.582815	-0.740900	0.441615
O17	O	1.453802	-0.740846	0.570655
C18	C	1.245419	-0.506013	0.506152
C19	C	1.128643	-0.506033	0.506168
C20	C	1.518324	-0.778994	0.506151
C21	C	1.518394	-0.895770	0.506177
C22	C	1.073805	-0.573307	0.573248
C23	C	0.964081	-0.573311	0.573269
C24	C	0.964042	-0.438764	0.439122
C25	C	1.073764	-0.438756	0.439107
C26	C	1.585645	-0.950625	0.439060
C27	C	1.585710	-1.060349	0.439093
C28	C	1.451262	-1.060353	0.573362
C29	C	1.451204	-0.950631	0.573334
C30	C	1.652835	-0.895764	0.371904
C31	C	1.720091	-0.950619	0.304781
C32	C	1.720156	-1.060343	0.304813
C33	C	1.652964	-1.115212	0.371969
C34	C	1.792420	-0.506040	0.506195
C35	C	1.909197	-0.506046	0.506204
C36	C	1.518465	-0.505925	0.780207
C37	C	1.518499	-0.505882	0.896984
C38	C	1.518478	-0.231993	0.506218
C39	C	1.518517	-0.115216	0.506238
C40	C	1.518369	-0.506051	0.233206
C41	C	1.518539	-0.505798	0.116430
C42	C	1.585722	-0.438679	0.951864
C43	C	1.585740	-0.438633	1.061588
C44	C	1.451308	-0.573004	1.061542
C45	C	1.451285	-0.573044	0.951820
H46	H	0.919437	-0.628090	0.627893
H47	H	1.640449	-0.383989	0.907219
H48	H	0.919346	-0.383991	0.384521
O49	O	1.126953	-0.638683	0.638496
C50	C	1.055017	-0.698077	0.697689
H51	H	0.976815	-0.655053	0.701408
H52	H	1.043312	-0.777826	0.659082
C53	C	1.193939	-0.766188	0.804909
C54	C	1.097892	-0.713341	0.809483
H55	H	1.220387	-0.775608	0.873867
H56	H	1.242405	-0.726176	0.765027
H57	H	1.184172	-0.832640	0.772732
H58	H	1.107662	-0.646886	0.841647
H59	H	1.049429	-0.753342	0.849373
H60	H	1.774803	-0.905940	0.250111
O61	O	1.126877	-0.373369	0.373841
C62	C	1.054915	-0.313979	0.314666
H63	H	0.976689	-0.357011	0.310959
H64	H	1.043281	-0.234234	0.353281
C65	C	1.193769	-0.245845	0.207425
C66	C	1.097693	-0.298702	0.202865
H67	H	1.220158	-0.236416	0.138462
H68	H	1.242253	-0.285854	0.247295
H69	H	1.184062	-0.179396	0.239609
H70	H	1.107404	-0.365154	0.170694
H71	H	1.049212	-0.258703	0.162987
H72	H	1.640479	-0.383908	1.106266
H73	H	1.396587	-0.627687	1.106203
O74	O	1.785521	-1.113469	0.239519
C75	C	1.844828	-1.041514	0.180263
H76	H	1.801751	-0.963341	0.176569
H77	H	1.924596	-1.029745	0.218799
C78	C	1.912954	-1.180426	0.073007
C79	C	1.860042	-1.084415	0.068462
H80	H	1.922344	-1.206890	0.004044
H81	H	1.873002	-1.228905	0.112930
H82	H	1.979422	-1.170606	0.105125
H83	H	1.793571	-1.094239	0.036357
H84	H	1.899984	-1.035939	0.028530
H85	H	1.652787	-0.806421	0.371867
H86	H	1.653031	-1.204557	0.371998
O87	O	1.386025	-1.113812	0.638487
C88	C	1.400515	-1.222418	0.624136
H89	H	1.434975	-1.237437	0.543091
H90	H	1.456448	-1.253463	0.686511
C91	C	1.251915	-1.260386	0.733223
C92	C	1.294230	-1.278832	0.633678
H93	H	1.186355	-1.295186	0.739113
H94	H	1.242154	-1.187216	0.742895
H95	H	1.298535	-1.286256	0.785191
H96	H	1.247617	-1.252950	0.581713
H97	H	1.303981	-1.351999	0.623997
H98	H	1.396536	-0.627768	0.907136
H99	H	1.396442	-0.905968	0.627988
