data_functionalizedCrystal
_audit_creation_method	'MofGen! by Chris Wilmer'
_symmetry_space_group_name_H-M	'P1'
_symmetry_Int_Tables_number	1
_symmetry_cell_setting	triclinic
loop_
_symmetry_equiv_pos_as_xyz
  x,y,z
_cell_length_a	14.519709
_cell_length_b	10.654545
_cell_length_c	12.996460
_cell_angle_alpha	89.994208
_cell_angle_beta	89.998766
_cell_angle_gamma	84.081612
loop_
_atom_site_label
_atom_site_type_symbol
_atom_site_fract_x
_atom_site_fract_y
_atom_site_fract_z
O1	O	0.129506	1.666603	-0.085559
O2	O	0.629506	2.166603	0.414441
O3	O	0.141852	1.301005	-0.085564
O4	O	0.641852	1.801005	0.414436
O5	O	0.001491	1.493498	-0.085552
O6	O	0.501491	1.993498	0.414448
O7	O	0.269867	1.474111	-0.085571
O8	O	0.769867	1.974111	0.414429
O9	O	0.001499	1.493473	0.085582
O10	O	0.501499	1.993473	0.585582
O11	O	0.141860	1.300981	0.085570
O12	O	0.641860	1.800981	0.585570
O13	O	0.129514	1.666578	0.085575
O14	O	0.629514	2.166578	0.585575
Cu15	Cu	0.135688	1.483777	0.101198
Cu16	Cu	0.635688	1.983777	0.601198
Cu17	Cu	0.135678	1.483807	-0.101187
Cu18	Cu	0.635678	1.983807	0.398813
O19	O	0.269875	1.474086	0.085563
O20	O	0.769875	1.974086	0.585563
C21	C	0.140950	1.254204	0.000003
C22	C	0.640950	1.754204	0.500003
C23	C	0.138241	1.114786	0.000001
C24	C	0.638241	1.614786	0.500001
C25	C	0.136970	1.049280	0.093287
C26	C	0.636970	1.549280	0.593287
C27	C	0.134409	0.918286	0.093287
C28	C	0.634409	1.418286	0.593287
C29	C	0.134394	0.918313	-0.093292
C30	C	0.634394	1.418313	0.406708
C31	C	0.136948	1.049307	-0.093291
C32	C	0.636948	1.549307	0.406709
C33	C	-0.032870	1.492582	0.000015
C34	C	0.467130	1.992582	0.500015
C35	C	-0.135265	1.489874	0.000016
C36	C	0.364735	1.989874	0.500016
C37	C	-0.510212	1.479907	-0.000011
C38	C	-0.010212	1.979907	0.499989
C39	C	-0.405890	1.482675	-0.000003
C40	C	0.094110	1.982675	0.499997
C41	C	-0.322742	1.484890	0.000003
C42	C	0.177258	1.984890	0.500003
C43	C	-0.218413	1.487659	0.000009
C44	C	0.281587	1.987659	0.500009
C45	C	0.304236	1.475002	-0.000006
C46	C	0.804236	1.975002	0.499994
C47	C	0.406631	1.477710	-0.000014
C48	C	0.906631	1.977710	0.499986
C49	C	0.130416	1.713380	0.000006
C50	C	0.630416	2.213380	0.500006
C51	C	0.133125	1.852798	0.000001
C52	C	0.633125	2.352798	0.500001
N53	N	0.135694	1.483766	0.243545
N54	N	0.635694	1.983766	0.743545
N55	N	0.135665	1.483828	-0.243534
N56	N	0.635665	1.983828	0.256466
C57	C	0.135696	1.483772	0.336651
C58	C	0.635696	1.983772	0.836651
C59	C	0.135690	1.483783	0.453457
C60	C	0.635690	1.983783	0.953457
C61	C	0.135680	1.483799	0.546555
C62	C	0.635680	1.983799	1.046555
C63	C	0.135675	1.483812	0.663367
C64	C	0.635675	1.983812	1.163367
H65	H	0.138022	1.102590	0.169252
H66	H	0.638022	1.602590	0.669252
C67	C	0.132997	0.846283	-0.195908
C68	C	0.632997	1.346283	0.304092
H69	H	0.134116	0.904062	-0.251466
H70	H	0.634116	1.404062	0.248534
H71	H	0.185690	0.785729	-0.199781
H72	H	0.685690	1.285729	0.300219
H73	H	0.078313	0.804638	-0.199792
H74	H	0.578313	1.304638	0.300208
C75	C	0.133017	0.846233	0.195902
C76	C	0.633017	1.346233	0.695902
H77	H	0.134159	0.903994	0.251459
H78	H	0.634159	1.403994	0.751459
H79	H	0.078336	0.804595	0.199791
H80	H	0.578336	1.304595	0.699791
H81	H	0.185712	0.785670	0.199770
H82	H	0.685712	1.285670	0.699770
C83	C	0.138350	1.121368	-0.195911
C84	C	0.638350	1.621368	0.304089
H85	H	0.137228	1.063609	-0.251472
H86	H	0.637228	1.563609	0.248528
H87	H	0.085662	1.181932	-0.199782
H88	H	0.585662	1.681932	0.300218
H89	H	0.193038	1.163004	-0.199789
H90	H	0.693038	1.663004	0.300211
