data_functionalizedCrystal
_audit_creation_method	'MofGen! by Chris Wilmer'
_symmetry_space_group_name_H-M	'P1'
_symmetry_Int_Tables_number	1
_symmetry_cell_setting	triclinic
loop_
_symmetry_equiv_pos_as_xyz
  x,y,z
_cell_length_a	27.732064
_cell_length_b	26.809956
_cell_length_c	14.971486
_cell_angle_alpha	90.004748
_cell_angle_beta	83.131776
_cell_angle_gamma	90.008415
loop_
_atom_site_label
_atom_site_type_symbol
_atom_site_fract_x
_atom_site_fract_y
_atom_site_fract_z
O1	O	0.641422	0.041391	0.106496
O2	O	1.141422	0.541391	0.606496
O3	O	0.500704	0.041411	0.122663
O4	O	1.000704	0.541411	0.622663
O5	O	0.574834	0.041397	-0.015680
O6	O	1.074834	0.541397	0.484320
O7	O	0.567291	0.041405	0.244839
O8	O	1.067291	0.541405	0.744839
O9	O	0.574811	-0.041562	-0.015680
O10	O	1.074811	0.458438	0.484320
O11	O	0.500681	-0.041548	0.122663
O12	O	1.000681	0.458452	0.622663
O13	O	0.641399	-0.041568	0.106496
O14	O	1.141399	0.458432	0.606496
Zn15	Zn	0.571036	-0.054730	0.114579
Zn16	Zn	1.071036	0.445270	0.614579
Zn17	Zn	0.571066	0.054573	0.114579
Zn18	Zn	1.071066	0.554573	0.614579
O19	O	0.567268	-0.041554	0.244839
O20	O	1.067268	0.458446	0.744839
C21	C	0.482684	-0.000066	0.122321
C22	C	0.982684	0.499934	0.622321
C23	C	0.429025	-0.000058	0.121292
C24	C	0.929025	0.499942	0.621292
N25	N	0.571019	-0.129326	0.114579
N26	N	1.071019	0.370674	0.614579
C27	C	0.051543	-0.000089	0.032536
C28	C	0.551543	0.499911	0.532536
C29	C	0.253220	-0.000076	0.036322
C30	C	0.753220	0.499924	0.536322
O31	O	0.284155	-0.000097	-0.032551
O32	O	0.784155	0.499903	0.467449
N33	N	0.272726	-0.000071	0.118357
N34	N	0.772726	0.499929	0.618357
C35	C	0.241809	-0.000073	0.199450
C36	C	0.741809	0.499927	0.699450
O37	O	0.263028	-0.000074	0.269313
O38	O	0.763028	0.499926	0.769313
C39	C	0.040133	-0.000089	0.195663
C40	C	0.540133	0.499911	0.695663
C41	C	0.020630	-0.000089	0.113623
C42	C	0.520630	0.499911	0.613623
C43	C	0.032039	-0.000089	-0.049498
C44	C	0.532039	0.499911	0.450502
C45	C	-0.018378	-0.000090	-0.050443
C46	C	0.481622	0.499910	0.449557
C47	C	-0.049290	-0.000090	0.030644
C48	C	0.450710	0.499910	0.530644
C49	C	-0.029787	-0.000090	0.112678
C50	C	0.470213	0.499910	0.612678
C51	C	0.009217	-0.000095	0.276756
C52	C	0.509217	0.499905	0.776756
C53	C	-0.041205	-0.000100	0.275802
C54	C	0.458795	0.499900	0.775802
C55	C	-0.060708	-0.000100	0.193762
C56	C	0.439292	0.499900	0.693762
C57	C	-0.111116	-0.000091	0.192820
C58	C	0.388884	0.499909	0.692820
N59	N	-0.130622	-0.000095	0.110785
N60	N	0.369378	0.499905	0.610785
C61	C	-0.099709	-0.000095	0.029697
C62	C	0.400291	0.499905	0.529697
C63	C	0.347693	-0.000063	0.201433
C64	C	0.847693	0.499937	0.701433
C65	C	0.398112	-0.000058	0.202380
C66	C	0.898112	0.499942	0.702380
C67	C	0.409519	-0.000062	0.039251
C68	C	0.909519	0.499938	0.539251
C69	C	0.359099	-0.000064	0.038305
C70	C	0.859099	0.499936	0.538305
C71	C	0.328187	-0.000068	0.119398
C72	C	0.828187	0.499932	0.619398
C73	C	-0.205588	-0.000096	0.027717
C74	C	0.294412	0.499904	0.527717
C75	C	-0.256009	-0.000094	0.026779
C76	C	0.243991	0.499906	0.526779
C77	C	-0.267412	-0.000093	0.189907
C78	C	0.232588	0.499907	0.689907
C79	C	-0.216995	-0.000092	0.190846
C80	C	0.283005	0.499908	0.690846
C81	C	-0.186084	-0.000095	0.109744
C82	C	0.313916	0.499905	0.609744
O83	O	-0.142080	-0.000075	0.261655
O84	O	0.357920	0.499925	0.761655
O85	O	-0.120937	-0.000105	-0.040155
O86	O	0.379063	0.499895	0.459845
C87	C	0.101959	-0.000088	0.033481
C88	C	0.601959	0.499912	0.533481
C89	C	0.121463	-0.000088	0.115515
C90	C	0.621463	0.499912	0.615515
C91	C	0.090550	-0.000088	0.196602
C92	C	0.590550	0.499912	0.696602
C93	C	0.171882	-0.000083	0.116462
C94	C	0.671882	0.499917	0.616462
C95	C	0.202794	-0.000083	0.035374
C96	C	0.702794	0.499917	0.535374
C97	C	0.183288	-0.000088	-0.046661
C98	C	0.683288	0.499912	0.453339
C99	C	0.132872	-0.000088	-0.047606
C100	C	0.632872	0.499912	0.452394
C101	C	0.110056	-0.000084	0.278637
C102	C	0.610056	0.499916	0.778637
C103	C	0.160473	-0.000082	0.279576
C104	C	0.660473	0.499918	0.779576
C105	C	0.191386	-0.000082	0.198488
C106	C	0.691386	0.499918	0.698488
C107	C	0.600405	-0.473954	0.168448
C108	C	1.100405	0.026046	0.668448
C109	C	0.600421	-0.682832	0.168447
C110	C	1.100421	-0.182832	0.668447
O111	O	0.625393	-0.709838	0.214239
O112	O	1.125393	-0.209838	0.714239
N113	N	0.571078	-0.708953	0.114570
N114	N	1.071078	-0.208953	0.614570
C115	C	0.541731	-0.682851	0.060685
C116	C	1.041731	-0.182851	0.560685
O117	O	0.516777	-0.709861	0.014852
O118	O	1.016777	-0.209861	0.514852
C119	C	0.541719	-0.473974	0.060682
C120	C	1.041719	0.026026	0.560682
C121	C	0.571060	-0.447856	0.114569
C122	C	1.071060	0.052144	0.614569
C123	C	0.629744	-0.447836	0.222331
C124	C	1.129744	0.052164	0.722331
C125	C	0.629738	-0.395620	0.222334
C126	C	1.129738	0.104380	0.722334
C127	C	0.600393	-0.369522	0.168455
C128	C	1.100393	0.130478	0.668455
C129	C	0.571054	-0.395640	0.114573
C130	C	1.071054	0.104360	0.614573
C131	C	0.512375	-0.447873	0.006792
C132	C	1.012375	0.052127	0.506792
C133	C	0.512375	-0.395650	0.006794
C134	C	1.012375	0.104350	0.506794
C135	C	0.541716	-0.369532	0.060682
C136	C	1.041716	0.130468	0.560682
C137	C	0.541702	-0.317325	0.060697
C138	C	1.041702	0.182675	0.560697
N139	N	0.571045	-0.291204	0.114574
N140	N	1.071045	0.208796	0.614574
C141	C	0.600390	-0.317303	0.168453
C142	C	1.100390	0.182697	0.668453
C143	C	0.541739	-0.792514	0.060692
C144	C	1.041739	-0.292514	0.560692
C145	C	0.541742	-0.844733	0.060694
C146	C	1.041742	-0.344733	0.560694
C147	C	0.600432	-0.844711	0.168455
C148	C	1.100432	-0.344711	0.668455
C149	C	0.600427	-0.792491	0.168457
C150	C	1.100427	-0.292491	0.668457
C151	C	0.571082	-0.766393	0.114569
C152	C	1.071082	-0.266393	0.614569
C153	C	0.600375	-0.207645	0.168457
C154	C	1.100375	0.292355	0.668457
C155	C	0.600365	-0.155424	0.168458
C156	C	1.100365	0.344576	0.668458
C157	C	0.541676	-0.155451	0.060693
C158	C	1.041676	0.344549	0.560693
C159	C	0.541684	-0.207667	0.060695
C160	C	1.041684	0.292333	0.560695
C161	C	0.571038	-0.233763	0.114579
C162	C	1.071038	0.266237	0.614579
O163	O	0.516747	-0.290287	0.014921
O164	O	1.016747	0.209713	0.514921
O165	O	0.625349	-0.290284	0.214264
O166	O	1.125349	0.209716	0.714264
C167	C	0.600411	-0.526171	0.168445
C168	C	1.100411	-0.026171	0.668445
C169	C	0.571072	-0.552289	0.114562
C170	C	1.071072	-0.052289	0.614562
C171	C	0.541727	-0.526190	0.060683
C172	C	1.041727	-0.026190	0.560683
C173	C	0.571075	-0.604508	0.114564
C174	C	1.071075	-0.104508	0.614564
C175	C	0.600420	-0.630606	0.168443
C176	C	1.100420	-0.130606	0.668443
C177	C	0.629763	-0.604485	0.222321
C178	C	1.129763	-0.104485	0.722321
C179	C	0.629757	-0.552269	0.222324
C180	C	1.129757	-0.052269	0.722324
C181	C	0.512384	-0.552311	0.006806
C182	C	1.012384	-0.052311	0.506806
C183	C	0.512392	-0.604527	0.006808
C184	C	1.012392	-0.104527	0.506808
C185	C	0.541737	-0.630625	0.060687
C186	C	1.041737	-0.130625	0.560687
C187	C	0.659418	-0.000090	0.106838
C188	C	1.159418	0.499910	0.606838
C189	C	0.713078	-0.000095	0.107866
C190	C	1.213078	0.499905	0.607866
C191	C	0.574486	-0.000082	-0.048999
C192	C	1.074486	0.499918	0.451001
C193	C	0.573475	-0.000082	-0.148280
C194	C	1.073475	0.499918	0.351720
N195	N	0.571087	0.129169	0.114573
N196	N	1.071087	0.629169	0.614573
C197	C	0.617024	-0.000088	-0.206189
C198	C	1.117024	0.499912	0.293811
C199	C	0.616071	-0.000083	-0.299474
C200	C	1.116071	0.499917	0.200526
C201	C	0.571569	-0.000075	-0.334848
C202	C	1.071569	0.499925	0.165152
C203	C	0.528016	-0.000067	-0.276932
C204	C	1.028016	0.499933	0.223068
C205	C	0.528969	-0.000068	-0.183649
C206	C	1.028969	0.499932	0.316351
C207	C	0.526032	-0.000065	-0.471363
C208	C	1.026032	0.499935	0.028637
C209	C	0.525078	-0.000064	-0.564652
C210	C	1.025078	0.499936	-0.064652
C211	C	0.613134	-0.000080	-0.587188
C212	C	1.113134	0.499920	-0.087188
C213	C	0.614088	-0.000081	-0.493905
C214	C	1.114088	0.499919	0.006095
C215	C	0.570534	-0.000074	-0.435995
C216	C	1.070534	0.499926	0.064005
C217	C	0.567617	-0.000073	0.278158
C218	C	1.067617	0.499927	0.778158
C219	C	0.568628	-0.000071	0.377439
C220	C	1.068628	0.499929	0.877439
H221	H	-0.271886	-0.000093	-0.040031
H222	H	0.228114	0.499907	0.459969
H223	H	0.322528	-0.000066	0.267473
H224	H	0.822528	0.499934	0.767473
F225	F	0.510497	-0.764745	0.003346
F226	F	1.010497	-0.264745	0.503346
F227	F	0.510506	-0.872524	0.003352
F228	F	1.010506	-0.372524	0.503352
H229	H	0.624277	-0.228886	0.212334
H230	H	1.124277	0.271114	0.712334
H231	H	0.488494	-0.625788	-0.037071
H232	H	0.988494	-0.125788	0.462929
F233	F	-0.300321	-0.000091	0.276202
F234	F	0.199679	0.499909	0.776202
H235	H	0.648597	-0.000084	-0.634343
H236	H	1.148597	0.499916	-0.134343
F237	F	0.510452	-0.235464	0.003351
F238	F	1.010452	0.264536	0.503351
H239	H	0.434697	-0.000060	-0.026774
H240	H	0.934697	0.499940	0.473226
H241	H	0.624258	-0.134161	0.212344
H242	H	1.124258	0.365839	0.712344
H243	H	-0.066372	-0.000106	0.341840
H244	H	0.433628	0.499894	0.841840
F245	F	0.481145	-0.475658	-0.050563
F246	F	0.981145	0.024342	0.449437
F247	F	0.481143	-0.524542	-0.050532
F248	F	0.981143	-0.024542	0.449468
F249	F	0.477713	-0.000056	-0.602298
F250	F	0.977713	0.499944	-0.102298
F251	F	0.664391	-0.000102	-0.168551
F252	F	1.164391	0.499898	0.331449
F253	F	0.479677	-0.000056	-0.409733
F254	F	0.979677	0.499944	0.090267
F255	F	0.077162	-0.000083	0.364947
F256	F	0.577162	0.499917	0.864947
H257	H	0.653649	-0.531009	0.266205
H258	H	1.153649	-0.031009	0.766205
H259	H	-0.201115	-0.000092	0.257650
H260	H	0.298885	0.499908	0.757650
F261	F	0.510445	-0.127666	0.003357
F262	F	1.010445	0.372334	0.503357
F263	F	0.661453	-0.000089	-0.456259
F264	F	1.161453	0.499911	0.043741
F265	F	-0.172697	-0.000099	-0.058601
F266	F	0.327303	0.499901	0.441399
F267	F	0.112122	-0.000086	-0.134925
F268	F	0.612122	0.499914	0.365075
H269	H	0.491781	-0.000057	-0.305740
H270	H	0.991781	0.499943	0.194260
H271	H	0.651534	-0.000090	-0.346620
H272	H	1.151534	0.499910	0.153380
H273	H	0.413987	-0.000051	0.269185
H274	H	0.913987	0.499949	0.769185
H275	H	0.488479	-0.374404	-0.037090
H276	H	0.988479	0.125596	0.462910
H277	H	0.493506	-0.000063	-0.136500
H278	H	0.993506	0.499937	0.363500
H279	H	-0.034252	-0.000092	-0.117249
H280	H	0.465748	0.499908	0.382751
F281	F	0.064932	-0.000090	-0.135810
F282	F	0.564932	0.499910	0.364190
F283	F	0.216197	-0.000085	-0.132960
F284	F	0.716197	0.499915	0.367040
H285	H	0.025087	-0.000093	0.343562
H286	H	0.525087	0.499907	0.843562
H287	H	0.653644	-0.469080	0.266206
H288	H	1.153644	0.030920	0.766206
F289	F	0.338348	-0.000065	-0.049012
F290	F	0.838348	0.499935	0.450988
F291	F	0.660961	-0.367830	0.279700
F292	F	1.160961	0.132170	0.779700
H293	H	0.624319	-0.771229	0.212338
H294	H	1.124319	-0.271229	0.712338
F295	F	0.181223	-0.000079	0.366901
F296	F	0.681223	0.499921	0.866901
F297	F	0.631665	-0.872495	0.225796
F298	F	1.131665	-0.372495	0.725796
H299	H	0.653655	-0.625744	0.266195
H300	H	1.153655	-0.125744	0.766195
