data_functionalizedCrystal
_audit_creation_method	'MofGen! by Chris Wilmer'
_symmetry_space_group_name_H-M	'P1'
_symmetry_Int_Tables_number	1
_symmetry_cell_setting	triclinic
loop_
_symmetry_equiv_pos_as_xyz
  x,y,z
_cell_length_a	21.295411
_cell_length_b	19.077236
_cell_length_c	19.076808
_cell_angle_alpha	94.519737
_cell_angle_beta	87.682372
_cell_angle_gamma	87.673423
loop_
_atom_site_label
_atom_site_type_symbol
_atom_site_fract_x
_atom_site_fract_y
_atom_site_fract_z
Zn1	Zn	-0.385773	1.066501	-0.237544
Zn2	Zn	-0.276093	1.061666	-0.355424
Zn3	Zn	-0.276105	0.948600	-0.242271
Zn4	Zn	-0.376914	0.943841	-0.360128
O5	O	-0.328721	1.005152	-0.298842
O6	O	-0.374927	1.164512	-0.249234
O7	O	-0.188003	1.046636	-0.340423
O8	O	-0.294365	0.968255	-0.142987
O9	O	-0.294345	1.160960	-0.335840
O10	O	-0.374939	1.054877	-0.139515
O11	O	-0.188012	0.963567	-0.257290
O12	O	-0.285775	0.849316	-0.261852
O13	O	-0.466180	0.960144	-0.343858
O14	O	-0.359839	0.845820	-0.348441
O15	O	-0.472689	1.050262	-0.253796
O16	O	-0.285754	1.042021	-0.454704
O17	O	-0.359827	0.955455	-0.458161
C18	C	-0.321847	0.821989	-0.306170
C19	C	-0.318921	0.743630	-0.309323
C20	C	-0.359559	0.708664	-0.265784
C21	C	-0.356804	0.635038	-0.268743
C22	C	-0.313413	0.596378	-0.315243
C23	C	-0.272770	0.631349	-0.358784
C24	C	-0.275522	0.704975	-0.355821
C25	C	-0.300673	0.375985	-0.328928
C26	C	-0.297925	0.302355	-0.331888
C27	C	-0.381959	0.306048	-0.241846
C28	C	-0.384710	0.379674	-0.238891
C29	C	-0.344065	0.414639	-0.282428
N30	N	-0.310597	0.521120	-0.318270
N31	N	-0.346878	0.489896	-0.279398
C32	C	-0.492914	1.005211	-0.298825
C33	C	-0.562884	1.005236	-0.298817
C34	C	-0.599140	1.052159	-0.251920
C35	C	-0.664884	1.052159	-0.251889
C36	C	-0.694368	1.005244	-0.298768
C37	C	-0.658103	0.958312	-0.345669
C38	C	-0.592361	0.958309	-0.345694
N39	N	-0.795077	0.997332	-0.360659
N40	N	-0.857529	0.997340	-0.360633
C41	C	-0.892446	1.005251	-0.298697
N42	N	-0.862551	1.013168	-0.236785
N43	N	-0.800093	1.013164	-0.236811
C44	C	-0.765654	1.005242	-0.298747
C45	C	-0.999990	1.052177	-0.251763
C46	C	-1.065734	1.052172	-0.251731
C47	C	-1.058952	0.958328	-0.345517
C48	C	-0.993208	0.958330	-0.345542
C49	C	-0.963731	1.005257	-0.298666
C50	C	-0.165170	1.005136	-0.298806
C51	C	-0.095214	1.005255	-0.298610
C52	C	-0.321842	0.997716	-0.482012
C53	C	-0.318923	0.994600	-0.560371
C54	C	-0.335623	1.189031	-0.291485
C55	C	-0.338563	1.267389	-0.288350
C56	C	-0.359533	1.038201	-0.595317
C57	C	-0.356791	1.035270	-0.668943
C58	C	-0.313435	0.988740	-0.707622
C59	C	-0.272823	0.945134	-0.672672
C60	C	-0.275569	0.948063	-0.599047
C61	C	-0.300725	0.975147	-0.928018
C62	C	-0.297981	0.972224	-1.001648
C63	C	-0.381949	1.062359	-0.997914
C64	C	-0.384688	1.065286	-0.924288
C65	C	-0.344079	1.021677	-0.889344
N66	N	-0.310630	0.985745	-0.782880
N67	N	-0.346888	1.024670	-0.814087
C68	C	-0.335642	1.012636	-0.114955
C69	C	-0.338591	1.015825	-0.036593
H70	H	-0.262590	0.270880	-0.369759
H71	H	-0.267577	0.404444	-0.364380
H72	H	-0.262675	0.934331	-1.033138
N73	N	-0.228522	0.897629	-0.712185
N74	N	-0.170923	0.902680	-0.703796
H75	H	-0.139630	0.869135	-0.731704
N76	N	-0.403890	0.748139	-0.218284
N77	N	-0.440170	0.716907	-0.179413
H78	H	-0.471479	0.744784	-0.145862
N79	N	-0.398304	0.599333	-0.224245
N80	N	-0.437035	0.633859	-0.182720
H81	H	-0.466340	0.608644	-0.151284
N82	N	-0.228446	0.591873	-0.406292
N83	N	-0.192166	0.623104	-0.445163
H84	H	-0.160862	0.595225	-0.478718
N85	N	-0.429023	0.419158	-0.191376
N86	N	-0.410164	0.462045	-0.144759
H87	H	-0.441462	0.489930	-0.111201
N88	N	-0.569022	1.100075	-0.204030
N89	N	-0.510323	1.100063	-0.204051
H90	H	-0.489049	1.133901	-0.170227
N91	N	-0.701920	1.100091	-0.203974
N92	N	-0.675593	1.141982	-0.162121
H93	H	-0.701747	1.175834	-0.128279
H94	H	-1.082957	0.920122	-0.383680
N95	N	-0.969866	1.100103	-0.203885
N96	N	-0.933952	1.144017	-0.226906
H97	H	-0.912678	1.177866	-0.193092
N98	N	-0.956178	0.910395	-0.393453
N99	N	-0.982508	0.868506	-0.435304
H100	H	-0.956356	0.834648	-0.469143
H101	H	-0.419992	1.103174	-0.892797
H102	H	-0.415012	1.097862	-1.026374
H103	H	-0.415049	0.277572	-0.206399
H104	H	-1.095254	1.090381	-0.213538
H105	H	-0.394835	1.076093	-0.563829
H106	H	-0.242430	0.733443	-0.391274
N107	N	-0.398281	1.079807	-0.704628
N108	N	-0.436988	1.121349	-0.670086
H109	H	-0.466295	1.152805	-0.695287
N110	N	-0.688227	0.910389	-0.393546
N111	N	-0.746925	0.910399	-0.393519
H112	H	-0.768201	0.876549	-0.427331
N113	N	-0.555331	0.910369	-0.393603
N114	N	-0.581660	0.868478	-0.435452
H115	H	-0.555507	0.834620	-0.469290
N116	N	-0.259240	0.930599	-0.892340
N117	N	-0.220533	0.889061	-0.926886
H118	H	-0.191232	0.857596	-0.901687
N119	N	-0.234086	0.903516	-0.563359
N120	N	-0.195380	0.861973	-0.597900
H121	H	-0.166083	0.830507	-0.572697
