data_functionalizedCrystal
_audit_creation_method	'MofGen! by Chris Wilmer'
_symmetry_space_group_name_H-M	'P1'
_symmetry_Int_Tables_number	1
_symmetry_cell_setting	triclinic
loop_
_symmetry_equiv_pos_as_xyz
  x,y,z
_cell_length_a	17.639054
_cell_length_b	16.120444
_cell_length_c	17.640968
_cell_angle_alpha	82.193498
_cell_angle_beta	70.330395
_cell_angle_gamma	104.623673
loop_
_atom_site_label
_atom_site_type_symbol
_atom_site_fract_x
_atom_site_fract_y
_atom_site_fract_z
Zn1	Zn	1.358916	0.110393	-0.716962
Zn2	Zn	1.323938	-0.064391	-0.586087
Zn3	Zn	1.190359	0.039722	-0.554036
Zn4	Zn	1.214022	-0.064319	-0.695957
O5	O	1.271808	0.005351	-0.638260
O6	O	1.470817	0.116753	-0.721805
O7	O	1.281677	-0.080186	-0.467670
O8	O	1.217454	0.165786	-0.571026
O9	O	1.445119	-0.011660	-0.625652
O10	O	1.341292	0.217707	-0.690726
O11	O	1.183537	-0.003695	-0.444122
O12	O	1.076956	-0.003625	-0.550659
O13	O	1.257783	-0.011537	-0.812909
O14	O	1.094341	-0.080063	-0.654927
O15	O	1.364236	0.116823	-0.828341
O16	O	1.304622	-0.181070	-0.605284
O17	O	1.223867	-0.181017	-0.686005
C18	C	1.055431	-0.049505	-0.597036
C19	C	0.962867	-0.072989	-0.579420
C20	C	1.263043	-0.211289	-0.646865
C21	C	1.259375	-0.303943	-0.650588
C22	C	0.819008	-0.172877	-0.504451
C23	C	0.905988	-0.150803	-0.521010
C24	C	0.932782	-0.017219	-0.621299
C25	C	0.845804	-0.039284	-0.604753
C26	C	0.788923	-0.117113	-0.546327
C27	C	0.815718	0.016480	-0.646628
C28	C	0.728747	-0.005581	-0.630079
C29	C	0.671861	-0.083406	-0.571654
C30	C	0.701951	-0.139175	-0.529778
C31	C	0.872599	0.094312	-0.705049
C32	C	0.842514	0.150076	-0.746925
C33	C	0.755542	0.128012	-0.730380
C34	C	0.698656	0.050187	-0.671956
C35	C	0.725451	0.183780	-0.772257
C36	C	0.638479	0.161719	-0.755708
C37	C	0.611684	0.028126	-0.655407
C38	C	1.291078	-0.514834	-0.619161
C39	C	1.252695	-0.473570	-0.657397
C40	C	1.256413	-0.379181	-0.653608
C41	C	1.287361	-0.609232	-0.622950
C42	C	1.489031	0.060422	-0.679646
C43	C	1.581599	0.083890	-0.697282
C44	C	1.317551	0.060534	-0.851055
C45	C	1.337044	0.084050	-0.941735
C46	C	1.280635	0.222849	-0.629644
C47	C	1.284396	0.315533	-0.625972
C48	C	1.124062	-0.172760	-1.199804
C49	C	1.142397	-0.150648	-1.285015
C50	C	1.253237	-0.016999	-1.301072
C51	C	1.234909	-0.039097	-1.215860
C52	C	1.170321	-0.116979	-1.165233
C53	C	1.281168	0.016684	-1.181289
C54	C	1.262844	-0.005415	-1.096086
C55	C	1.198262	-0.083295	-1.045453
C56	C	1.151998	-0.139078	-1.080029
C57	C	1.345759	0.094563	-1.231919
C58	C	1.392018	0.150344	-1.197348
C59	C	1.373691	0.128248	-1.112142
C60	C	1.309108	0.050368	-1.061510
C61	C	1.419955	0.184031	-1.077566
C62	C	1.401631	0.161932	-0.992363
C63	C	1.290785	0.028269	-0.976306
C64	C	1.226294	-0.049545	-0.426301
C65	C	1.206972	-0.072784	-0.335642
H66	H	0.565369	-0.035256	-0.607838
H67	H	0.888837	0.213446	-0.794493
Br68	Br	0.597642	0.237404	-0.812532
H69	H	1.326727	-0.479277	-0.583582
Br70	Br	1.203119	-0.077422	-0.907587
Br71	Br	1.193269	-0.532839	-0.716700
H72	H	1.183347	-0.101289	-0.976076
Br73	Br	1.464416	0.237631	-0.945441
Br74	Br	1.340892	0.088692	-1.369788
H75	H	1.444608	0.213754	-1.238581
H76	H	0.771774	0.247153	-0.819821
Br77	Br	1.064333	-0.244769	-1.011310
Br78	Br	0.741810	-0.278524	-0.425185
H79	H	1.071450	-0.236164	-1.158575
Br80	Br	0.946817	-0.226500	-0.464183
Br81	Br	0.990632	0.124263	-0.727495
H82	H	1.104722	-0.196078	-1.313158
H83	H	0.601041	-0.101357	-0.558169
Br84	Br	0.624753	-0.244821	-0.450512
Br85	Br	1.507617	0.289715	-1.146287
H86	H	0.979105	0.046151	-0.668867
H87	H	1.360678	0.112552	-1.301298
