data_functionalizedCrystal
_audit_creation_method	'MofGen! by Chris Wilmer'
_symmetry_space_group_name_H-M	'P1'
_symmetry_Int_Tables_number	1
_symmetry_cell_setting	triclinic
loop_
_symmetry_equiv_pos_as_xyz
  x,y,z
_cell_length_a	23.196402
_cell_length_b	14.395555
_cell_length_c	23.196401
_cell_angle_alpha	90.015017
_cell_angle_beta	60.007332
_cell_angle_gamma	60.003910
loop_
_atom_site_label
_atom_site_type_symbol
_atom_site_fract_x
_atom_site_fract_y
_atom_site_fract_z
Zr1	Zr	0.630952	0.894988	-0.075601
O2	O	0.751219	0.746641	-0.167653
O3	O	0.510690	0.940450	-0.047386
O4	O	0.630953	0.940423	-0.167651
O5	O	0.630955	0.746705	0.047484
O6	O	0.630948	1.093298	-0.167646
O7	O	0.630956	0.746668	-0.047387
O8	O	0.415820	1.093345	0.047487
O9	O	0.846083	0.746657	-0.167650
O10	O	0.560151	1.073944	-0.035344
O11	O	0.560153	0.959883	0.035453
O12	O	0.701747	0.959852	-0.106144
O13	O	0.701749	0.845791	-0.035347
Zr14	Zr	0.630943	1.138863	0.075716
Zr15	Zr	0.630946	1.138804	-0.075593
Zr16	Zr	0.630950	0.895046	0.075708
Zr17	Zr	0.782250	0.895012	-0.075596
Zr18	Zr	0.479646	1.138838	0.075710
O19	O	0.751206	1.093400	0.047500
O20	O	0.751209	1.093317	-0.167642
O21	O	0.751216	0.746724	0.047488
O22	O	0.510677	1.287209	0.167768
O23	O	0.510680	1.287126	-0.047374
O24	O	0.510686	0.940533	0.167756
O25	O	0.630941	1.287146	-0.047370
O26	O	0.630943	1.093427	0.167766
O27	O	0.630947	0.940553	0.167761
O28	O	0.630940	1.287182	0.047502
O29	O	0.846078	0.940458	-0.167643
O30	O	0.415818	1.093392	0.167758
O31	O	0.415812	1.287193	0.167764
O32	O	0.415814	1.287147	0.047494
O33	O	0.846081	0.746703	-0.047379
O34	O	0.846076	0.940505	-0.047373
O35	O	0.560149	1.073999	0.106259
O36	O	0.560147	1.188060	0.035461
O37	O	0.701743	1.073967	-0.035339
O38	O	0.701745	0.959906	0.035459
C39	C	0.441698	1.016894	0.000050
C40	C	0.377468	1.016884	0.000048
C41	C	0.295037	1.101125	0.052311
C42	C	0.234676	1.101132	0.052318
C43	C	0.256753	1.016908	0.000050
C44	C	0.339198	0.932652	-0.052218
C45	C	0.399556	0.932640	-0.052219
C46	C	0.201167	0.990660	-0.063743
C47	C	0.140808	0.990680	-0.063742
C48	C	0.070591	1.016939	0.000053
C49	C	0.060730	1.043202	0.063851
C50	C	0.121088	1.043190	0.063850
C51	C	0.191310	1.016911	0.000045
C52	C	-0.077294	1.101193	0.052327
C53	C	-0.137654	1.101193	0.052334
C54	C	-0.033129	0.932717	-0.052207
C55	C	0.027228	0.932713	-0.052208
C56	C	0.005140	1.016956	0.000058
C57	C	0.630956	0.711948	0.000047
C58	C	0.630959	0.608441	0.000044
C59	C	0.708164	0.485644	-0.038553
C60	C	0.669570	0.454792	-0.066529
C61	C	0.669550	0.454871	0.028014
C62	C	0.592365	0.578952	-0.027971
C63	C	0.592356	0.579028	0.066609
C64	C	0.553706	0.548249	0.038650
C65	C	0.820198	1.016956	0.000064
C66	C	0.884427	1.016966	0.000067
C67	C	0.630951	1.016852	-0.189207
C68	C	0.630952	1.016827	-0.253442
C69	C	0.630939	1.321902	0.000067
C70	C	0.630936	1.425409	0.000071
C71	C	0.704861	0.957278	-0.320572
C72	C	0.704862	0.957307	-0.380927
C73	C	0.630950	1.016870	-0.374148
C74	C	0.557030	1.076432	-0.307006
C75	C	0.557031	1.076411	-0.246653
C76	C	0.574324	1.008401	-0.441468
C77	C	0.574326	1.008414	-0.501821
C78	C	0.630944	1.016942	-0.560296
C79	C	0.687573	1.025433	-0.558416
C80	C	0.687574	1.025412	-0.498063
C81	C	0.630940	1.016900	-0.439587
C82	C	0.704859	0.957421	-0.692872
C83	C	0.704857	0.957458	-0.753227
C84	C	0.557023	1.076576	-0.679304
C85	C	0.557027	1.076546	-0.618951
C86	C	0.630948	1.016963	-0.625740
C87	C	0.630945	1.016998	0.189322
C88	C	0.630944	1.017023	0.253556
C89	C	0.441689	1.321872	0.000060
C90	C	0.377457	1.425368	0.000061
C91	C	0.441695	1.016967	0.189314
C92	C	0.377464	1.016982	0.253547
C93	C	0.441687	1.321945	0.189325
C94	C	0.377453	1.425465	0.253560
C95	C	0.820209	0.711906	-0.189210
C96	C	0.884443	0.608385	-0.253446
C97	C	0.820206	0.711979	0.000054
C98	C	0.884439	0.608483	0.000053
C99	C	0.820201	1.016883	-0.189200
C100	C	0.884431	1.016869	-0.253432
C101	C	0.347295	1.414403	-0.036904
C102	C	0.286950	1.511640	-0.036917
C103	C	0.256764	1.619839	0.000039
C104	C	0.286932	1.630801	0.037006
C105	C	0.347280	1.533566	0.037015
C106	C	0.347299	1.076555	0.320677
C107	C	0.286956	1.076565	0.381036
C108	C	0.256775	1.017006	0.374263
C109	C	0.286947	0.957425	0.307126
C110	C	0.347293	0.957410	0.246768
C111	C	0.347287	1.533629	0.246770
C112	C	0.286941	1.630907	0.307121
C113	C	0.256758	1.620019	0.374260
C114	C	0.286930	1.511844	0.381049
C115	C	0.347279	1.414569	0.320699
C116	C	0.914616	0.500221	-0.246656
C117	C	0.974980	0.402943	-0.307006
C118	C	1.005167	0.413831	-0.374146
C119	C	0.974991	0.522006	-0.380935
C120	C	0.914632	0.619281	-0.320585
C121	C	0.914607	0.619447	0.037012
C122	C	0.974969	0.522211	0.037009
C123	C	1.005157	0.414011	0.000050
C124	C	0.974986	0.403049	-0.036914
C125	C	0.914630	0.500284	-0.036914
C126	C	0.914593	1.076439	-0.246637
C127	C	0.974936	1.076448	-0.306984
C128	C	1.005121	1.016879	-0.374126
C129	C	0.974954	0.957307	-0.380920
C130	C	0.914607	0.957305	-0.320574
H131	H	0.113057	1.064571	0.115797
H132	H	0.371846	0.908901	0.192110
H133	H	0.733679	1.032372	-0.606029
H134	H	0.262397	1.125087	0.435695
H135	H	0.371853	1.542515	0.192107
C136	C	1.008156	0.283966	-0.299526
H137	H	0.981519	0.291423	-0.250896
H138	H	1.065132	0.243545	-0.321521
H139	H	0.998265	0.243539	-0.321538
C140	C	0.363483	0.840010	-0.109712
H141	H	0.315730	0.852089	-0.102231
H142	H	0.394843	0.767307	-0.107547
H143	H	0.394851	0.843493	-0.154833
C144	C	0.380442	1.545641	0.077689
H145	H	0.353811	1.624009	0.099701
H146	H	0.437421	1.510180	0.045803
H147	H	0.370535	1.510202	0.112670
H148	H	0.207638	1.017027	0.423415
C149	C	0.253737	1.749886	0.299644
H150	H	0.213473	1.806269	0.345199
H151	H	0.230193	1.758370	0.274571
H152	H	0.297059	1.758426	0.274559
H153	H	0.371865	1.125056	0.326205
C154	C	0.881447	0.891754	-0.328054
H155	H	0.841182	0.900279	-0.282501
H156	H	0.924789	0.813409	-0.353137
H157	H	0.857901	0.921149	-0.353132
H158	H	0.999492	1.124957	-0.301438
H159	H	0.765053	0.908765	-0.326106
H160	H	1.054315	0.334614	-0.423281
H161	H	1.054260	1.016889	-0.423258
C162	C	0.190370	1.727029	0.440639
H163	H	0.176725	1.793003	0.426973
H164	H	0.210141	1.727065	0.467949
H165	H	0.143275	1.727047	0.467938
C166	C	0.253742	0.891920	0.299681
H167	H	0.280350	0.856427	0.251056
H168	H	0.196763	0.943333	0.321697
H169	H	0.263641	0.835572	0.321689
H170	H	0.999576	0.530857	-0.435607
C171	C	0.253716	1.499883	0.454904
H172	H	0.213447	1.573314	0.489868
H173	H	0.297029	1.459484	0.460214
H174	H	0.230159	1.459487	0.460199
H175	H	0.496842	1.125033	-0.564290
C176	C	0.713640	0.382618	0.059962
H177	H	0.676923	0.375912	0.100587
H178	H	0.732534	0.418269	0.072920
H179	H	0.758663	0.309081	0.026084
C180	C	1.008190	0.284030	-0.077560
H181	H	0.981585	0.291414	-0.099578
H182	H	0.998299	0.243638	-0.045654
H183	H	1.065172	0.243614	-0.112535
H184	H	0.559754	0.632559	0.122879
C185	C	0.713646	0.382458	-0.142555
H186	H	0.676917	0.375742	-0.146446
H187	H	0.758667	0.308941	-0.153697
H188	H	0.732537	0.418079	-0.174425
H189	H	0.496843	1.124905	-0.191991
C190	C	0.548323	0.651003	-0.060005
H191	H	0.548626	0.716752	-0.059842
H192	H	0.493625	0.673405	-0.032790
H193	H	0.575565	0.607301	-0.107156
C194	C	0.380446	1.295595	0.328177
H195	H	0.353816	1.303054	0.376807
H196	H	0.437425	1.255160	0.306173
H197	H	0.370540	1.255181	0.306175
H198	H	-0.015153	0.864139	-0.094764
H199	H	0.890042	0.491335	-0.191993
H200	H	0.890065	0.707350	-0.326122
H201	H	0.890033	0.707539	0.067113
H202	H	0.999524	0.531158	0.067112
H203	H	0.167548	1.169732	0.094879
C204	C	1.071545	0.307063	0.000058
H205	H	1.085179	0.329099	0.027370
H206	H	1.118638	0.263050	-0.047025
H207	H	1.051763	0.263070	0.019852
C208	C	0.881441	0.488210	-0.077562
H209	H	0.908061	0.409842	-0.099564
H210	H	0.891322	0.523655	-0.112537
H211	H	0.824461	0.523663	-0.045654
H212	H	0.890025	1.124947	-0.191972
C213	C	0.786164	0.891798	-0.454780
H214	H	0.775574	0.900351	-0.489751
H215	H	0.816533	0.813444	-0.460091
H216	H	0.816536	0.921204	-0.460063
C217	C	0.270739	1.193779	0.109808
H218	H	0.212997	1.243945	0.140939
H219	H	0.292116	1.235367	0.088341
H220	H	0.292107	1.159180	0.135626
C221	C	-0.016504	1.072098	0.134032
H222	H	-0.013735	1.087748	0.172026
H223	H	-0.020234	1.009384	0.133311
H224	H	-0.063199	1.137017	0.140061
C225	C	-0.101580	1.193846	0.109819
H226	H	-0.053827	1.181784	0.102328
H227	H	-0.132946	1.190371	0.154939
H228	H	-0.132943	1.266549	0.107649
C229	C	-0.228332	1.193864	0.109826
H230	H	-0.232837	1.244037	0.140947
H231	H	-0.254058	1.159291	0.135647
H232	H	-0.254041	1.235456	0.088349
H233	H	0.999540	0.908807	-0.435595
C234	C	0.749852	1.034769	-0.495991
H235	H	0.783570	1.039860	-0.539455
H236	H	0.782600	0.969354	-0.488831
H237	H	0.721801	1.100890	-0.458410
C238	C	0.117905	0.840058	-0.109706
H239	H	0.122411	0.789902	-0.140838
H240	H	0.143624	0.798460	-0.088240
H241	H	0.143621	0.874652	-0.135522
H242	H	0.258343	0.969266	-0.115697
C243	C	0.490235	0.839978	-0.109715
H244	H	0.494742	0.789818	-0.140846
H245	H	0.515953	0.798384	-0.088248
H246	H	0.515951	0.874571	-0.135533
C247	C	0.151669	0.961747	-0.133917
H248	H	0.105667	0.965514	-0.124781
H249	H	0.199497	0.887132	-0.163489
H250	H	0.156535	1.014752	-0.156771
H251	H	0.773447	0.460199	-0.071244
C252	C	0.465447	0.582896	0.082747
H253	H	0.438154	0.626193	0.062781
H254	H	0.437826	0.627327	0.129821
H255	H	0.465916	0.516530	0.082830
H256	H	0.765050	0.908905	-0.698401
C257	C	0.512041	0.999070	-0.503890
H258	H	0.520156	1.000288	-0.548211
H259	H	0.458383	1.061337	-0.467164
H260	H	0.519172	0.929800	-0.497581
H261	H	0.765046	0.908970	-0.807889
H262	H	0.496842	1.125074	-0.673783
H263	H	0.528219	1.001448	-0.393859
H264	H	0.496850	1.124930	-0.301490
H265	H	0.371872	1.326311	-0.067008
H266	H	0.207624	1.699005	0.000027
C267	C	0.253767	1.499561	-0.077574
H268	H	0.280380	1.421194	-0.099569
H269	H	0.263661	1.534994	-0.112555
H270	H	0.196786	1.535029	-0.045670
C271	C	0.253715	1.749823	0.077662
H272	H	0.213448	1.806154	0.072365
H273	H	0.297028	1.758378	0.059423
H274	H	0.230157	1.758374	0.126289
