data_functionalizedCrystal
_audit_creation_method	'MofGen! by Chris Wilmer'
_symmetry_space_group_name_H-M	'P1'
_symmetry_Int_Tables_number	1
_symmetry_cell_setting	triclinic
loop_
_symmetry_equiv_pos_as_xyz
  x,y,z
_cell_length_a	25.639239
_cell_length_b	19.077142
_cell_length_c	19.076919
_cell_angle_alpha	89.925643
_cell_angle_beta	92.268407
_cell_angle_gamma	92.265911
loop_
_atom_site_label
_atom_site_type_symbol
_atom_site_fract_x
_atom_site_fract_y
_atom_site_fract_z
Zn1	Zn	-0.252951	-1.058185	-0.440433
Zn2	Zn	-0.337016	-1.062797	-0.322920
Zn3	Zn	-0.245946	-0.945405	-0.318223
Zn4	Zn	-0.336700	-0.940619	-0.435668
O5	O	-0.293153	-1.001752	-0.379311
O6	O	-0.267167	-1.157128	-0.428804
O7	O	-0.322137	-1.051158	-0.223966
O8	O	-0.173713	-0.960439	-0.334463
O9	O	-0.328929	-1.160516	-0.342468
O10	O	-0.178860	-1.043298	-0.424250
O11	O	-0.255228	-0.964911	-0.220515
O12	O	-0.254920	-0.846440	-0.329843
O13	O	-0.328390	-0.952281	-0.534631
O14	O	-0.321597	-0.842923	-0.416129
O15	O	-0.266860	-1.038657	-0.538132
O16	O	-0.410137	-1.046517	-0.337847
O17	O	-0.409904	-0.956753	-0.420683
C18	C	-0.287464	-0.819186	-0.371960
C19	C	-0.285044	-0.741082	-0.368832
C20	C	-0.318670	-0.702580	-0.412216
C21	C	-0.316388	-0.629193	-0.409280
C22	C	-0.280483	-0.594311	-0.362956
C23	C	-0.246854	-0.632819	-0.319570
C24	C	-0.249133	-0.706204	-0.322510
C25	C	-0.269937	-0.375027	-0.349357
C26	C	-0.267661	-0.301637	-0.346419
C27	C	-0.337195	-0.298017	-0.436130
C28	C	-0.339473	-0.371403	-0.439063
C29	C	-0.305842	-0.409905	-0.395680
N30	N	-0.278152	-0.519298	-0.359952
N31	N	-0.308172	-0.484916	-0.398687
C32	C	-0.428991	-1.001635	-0.379274
C33	C	-0.487106	-1.001648	-0.379284
C34	C	-0.847588	-1.048606	-0.336260
C35	C	-0.902193	-1.048633	-0.336270
O36	O	-0.930525	-1.088437	-0.299649
N37	N	-0.929398	-1.001873	-0.379362
C38	C	-0.901994	-0.955089	-0.422452
O39	O	-0.930148	-0.915319	-0.459107
C40	C	-0.847390	-0.955066	-0.422445
C41	C	-0.820188	-1.001824	-0.379345
C42	C	-0.820385	-1.095360	-0.293163
C43	C	-0.765784	-1.095332	-0.293152
C44	C	-0.738384	-1.048550	-0.336237
C45	C	-0.765586	-1.001796	-0.379333
C46	C	-0.819988	-0.908286	-0.465538
C47	C	-0.765380	-0.908267	-0.465528
C48	C	-0.738178	-0.955025	-0.422427
C49	C	-0.683585	-0.954986	-0.422407
N50	N	-0.656380	-1.001745	-0.379315
C51	C	-0.683780	-1.048527	-0.336230
C52	C	-1.016667	-0.955141	-0.422465
C53	C	-1.071270	-0.955160	-0.422470
C54	C	-1.071465	-1.048705	-0.336288
C55	C	-1.016861	-1.048682	-0.336281
C56	C	-0.989462	-1.001901	-0.379373
C57	C	-0.569112	-1.048464	-0.336209
C58	C	-0.514506	-1.048430	-0.336199
C59	C	-0.514316	-0.954888	-0.422383
C60	C	-0.568918	-0.954920	-0.422390
C61	C	-0.596315	-1.001713	-0.379301
O62	O	-0.655218	-0.915204	-0.459012
O63	O	-0.655620	-1.088296	-0.299588
C64	C	-0.156786	-1.001888	-0.379364
C65	C	-0.098674	-1.001946	-0.379387
C66	C	-0.298371	-0.994421	-0.562590
C67	C	-0.300594	-0.991296	-0.640693
C68	C	-0.298862	-0.185031	-0.386683
C69	C	-0.301287	-0.263135	-0.389803
C70	C	-0.269605	-1.034797	-0.679210
C71	C	-0.271692	-1.031853	-0.752595
C72	C	-0.304771	-0.985412	-0.787463
C73	C	-0.335761	-0.941906	-0.748941
C74	C	-0.333671	-0.944847	-0.675557
C75	C	-0.314454	-0.971790	-1.006743
C76	C	-0.316543	-0.968854	-1.080133
C77	C	-0.252472	-1.058801	-1.083782
C78	C	-0.250388	-1.061741	-1.010396
C79	C	-0.281376	-1.018233	-0.971880
N80	N	-0.306906	-0.982403	-0.862475
N81	N	-0.279238	-1.021238	-0.896870
C82	C	-0.287920	-1.009095	-0.196746
C83	C	-0.285553	-1.012355	-0.118649
H84	H	-0.343771	-0.597847	-0.444608
H85	H	-0.358900	-0.909417	-0.644197
H86	H	-0.238417	-0.273238	-0.308700
H87	H	-0.347909	-0.730975	-0.449936
H88	H	-0.491998	-0.916797	-0.457460
H89	H	-0.343481	-0.931033	-1.108520
H90	H	-0.242556	-0.406367	-0.314025
H91	H	-0.339695	-0.936373	-0.975393
H92	H	-0.362693	-0.904089	-0.777336
H93	H	-0.223453	-1.099561	-0.982012
H94	H	-0.364575	-0.266661	-0.471452
H95	H	-0.368712	-0.399799	-0.476784
H96	H	-0.217617	-0.604412	-0.281854
H97	H	-0.227243	-1.094222	-1.115149
H98	H	-0.221749	-0.737552	-0.287185
H99	H	-0.591413	-1.086570	-0.301123
H100	H	-0.492359	-1.086506	-0.301099
H101	H	-1.093413	-0.917079	-0.457559
H102	H	-0.743639	-1.133408	-0.258058
H103	H	-0.842127	-0.870207	-0.500632
H104	H	-0.842688	-1.133460	-0.258078
H105	H	-1.093784	-1.086800	-0.301208
H106	H	-0.994362	-0.917041	-0.457554
H107	H	-0.994716	-1.086757	-0.301185
H108	H	-0.743075	-0.870173	-0.500621
H109	H	-0.591067	-0.916848	-0.457489
H110	H	-0.242670	-1.072618	-0.650826
H111	H	-0.246459	-1.067278	-0.783952
