data_functionalizedCrystal
_audit_creation_method	'MofGen! by Chris Wilmer'
_symmetry_space_group_name_H-M	'P1'
_symmetry_Int_Tables_number	1
_symmetry_cell_setting	triclinic
loop_
_symmetry_equiv_pos_as_xyz
  x,y,z
_cell_length_a	10.723024
_cell_length_b	10.723024
_cell_length_c	9.198806
_cell_angle_alpha	90.001361
_cell_angle_beta	89.996604
_cell_angle_gamma	95.532131
loop_
_atom_site_label
_atom_site_type_symbol
_atom_site_fract_x
_atom_site_fract_y
_atom_site_fract_z
O1	O	-1.657187	0.175025	0.120876
O2	O	-1.294035	0.191778	0.120880
O3	O	-1.483988	0.001825	0.120876
O4	O	-1.467234	0.364978	0.120880
O5	O	-1.483974	0.001824	-0.120909
O6	O	-1.294021	0.191777	-0.120905
O7	O	-1.657173	0.175023	-0.120909
Cu8	Cu	-1.475596	0.183400	-0.142984
Cu9	Cu	-1.475612	0.183402	0.142955
O10	O	-1.467220	0.364976	-0.120905
C11	C	-1.247528	0.190558	-0.000012
C12	C	-1.108974	0.186911	-0.000010
C13	C	-1.482762	-0.044675	-0.000014
C14	C	-1.479114	-0.183229	-0.000006
C15	C	-1.703680	0.176243	-0.000014
C16	C	-1.842234	0.179891	-0.000006
C17	C	-1.468447	0.411477	-0.000012
C18	C	-1.472094	0.550031	-0.000010
C19	C	-1.033991	0.293198	-0.000008
C20	C	-0.890788	0.289431	-0.000006
N21	N	-1.475593	0.183398	-0.344098
C22	C	-1.585401	0.741788	-0.000009
C23	C	-1.581634	0.598585	-0.000011
C24	C	-1.555546	0.103469	-0.583701
C25	C	-1.555529	0.103471	-0.416288
N26	N	-1.475625	0.183394	0.344069
H27	H	-1.075814	0.386984	-0.000015
O28	O	-1.697186	0.791875	-0.000073
C29	C	-1.802864	0.980270	0.000020
C30	C	-1.676178	0.923718	0.000059
H31	H	-1.785923	1.086872	0.000157
H32	H	-1.858237	0.947979	-0.101193
H33	H	-1.858228	0.947810	0.101180
H34	H	-1.620712	0.956152	-0.101033
H35	H	-1.620900	0.956004	0.101338
O36	O	-1.059300	0.074911	-0.000072
C37	C	-1.100329	-0.150022	0.000021
C38	C	-1.156746	-0.023266	0.000056
H39	H	-1.179087	-0.229432	0.000156
H40	H	-1.040098	-0.157314	-0.101189
H41	H	-1.040021	-0.157153	0.101185
H42	H	-1.217111	-0.016049	-0.101038
H43	H	-1.216905	-0.016029	0.101333
O44	O	-1.637130	0.021654	-0.657619
C45	C	-1.708227	-0.194653	-0.704546
C46	C	-1.615785	-0.102130	-0.620720
H47	H	-1.690984	-0.294753	-0.674768
H48	H	-1.808373	-0.177650	-0.674667
H49	H	-1.693703	-0.180041	-0.826357
H50	H	-1.630195	-0.116687	-0.498889
H51	H	-1.515672	-0.119156	-0.650720
H52	H	-1.623948	0.035039	-0.354173
O53	O	-1.690275	0.521855	0.000183
C54	C	-1.883255	0.457969	0.125491
C55	C	-1.760276	0.544960	0.125435
H56	H	-1.939874	0.476599	0.226761
H57	H	-1.940042	0.476650	0.024374
H58	H	-1.860846	0.356180	0.125418
H59	H	-1.782572	0.646779	0.125559
H60	H	-1.703525	0.526170	0.226542
O61	O	-0.814057	0.398072	-0.000195
C62	C	-0.750159	0.591047	-0.125495
C63	C	-0.837151	0.468068	-0.125446
H64	H	-0.768781	0.647661	-0.226764
H65	H	-0.768848	0.647838	-0.024377
H66	H	-0.648370	0.568636	-0.125421
H67	H	-0.938969	0.490366	-0.125571
H68	H	-0.818354	0.411313	-0.226555
O69	O	-1.367298	0.766743	0.000190
C70	C	-1.231783	0.635769	0.125501
C71	C	-1.358473	0.692313	0.125441
H72	H	-1.224596	0.575602	0.226771
H73	H	-1.224553	0.575414	0.024384
H74	H	-1.152364	0.714518	0.125431
H75	H	-1.437965	0.613646	0.125562
H76	H	-1.365593	0.752701	0.226549
O77	O	-1.363497	0.626829	-0.000263
C78	C	-1.170441	0.690609	-0.125469
C79	C	-1.293391	0.603572	-0.125383
H80	H	-1.113714	0.671818	-0.226602
H81	H	-1.192747	0.792431	-0.125562
H82	H	-1.113800	0.671950	-0.024234
H83	H	-1.350092	0.622119	-0.226601
H84	H	-1.270997	0.501778	-0.125214
O85	O	-1.393903	0.264866	-0.418341
C86	C	-1.223816	0.289777	-0.590331
C87	C	-1.316277	0.197379	-0.506353
H88	H	-1.161014	0.235249	-0.661485
H89	H	-1.278239	0.352516	-0.661680
H90	H	-1.163685	0.349981	-0.509903
H91	H	-1.376431	0.137092	-0.586675
H92	H	-1.261778	0.134726	-0.434982
O93	O	-1.394150	0.265088	-0.581700
C94	C	-1.369216	0.435196	-0.409749
C95	C	-1.461626	0.342726	-0.493692
H96	H	-1.423734	0.498007	-0.338597
H97	H	-1.306471	0.380780	-0.338400
H98	H	-1.309020	0.495315	-0.490199
H99	H	-1.521905	0.282583	-0.413347
H100	H	-1.524286	0.397218	-0.565062
H101	H	-0.906659	0.088896	0.000001
