data_functionalizedCrystal
_audit_creation_method	'MofGen! by Chris Wilmer'
_symmetry_space_group_name_H-M	'P1'
_symmetry_Int_Tables_number	1
_symmetry_cell_setting	triclinic
loop_
_symmetry_equiv_pos_as_xyz
  x,y,z
_cell_length_a	6.817900
_cell_length_b	15.300992
_cell_length_c	16.305550
_cell_angle_alpha	95.166545
_cell_angle_beta	103.455250
_cell_angle_gamma	104.175078
loop_
_atom_site_label
_atom_site_type_symbol
_atom_site_fract_x
_atom_site_fract_y
_atom_site_fract_z
V1	V	-4.029797	-0.125520	-0.263287
O2	O	-4.013693	0.005249	-0.258014
O3	O	-3.984717	-0.248132	-0.261738
O4	O	-3.981158	-0.123933	-0.378001
O5	O	-4.017276	-0.119810	-0.140946
V6	V	-4.513025	-0.109838	-0.248623
O7	O	-4.291701	-0.159920	-0.295453
O8	O	-4.701319	-0.075438	-0.216458
O9	O	-4.334899	0.012774	-0.250173
O10	O	-4.646526	-0.240606	-0.253897
O11	O	-4.642943	-0.115548	-0.370965
O12	O	-4.338458	-0.111425	-0.133910
C13	C	-3.830533	-0.278011	-0.257649
C14	C	-3.874959	-0.378250	-0.257147
C15	C	-3.855351	-0.412241	-0.179629
C16	C	-3.897115	-0.506427	-0.179161
C17	C	-3.958472	-0.566620	-0.256210
C18	C	-3.978087	-0.532623	-0.333734
C19	C	-3.936338	-0.438439	-0.334202
C20	C	-4.065097	-0.728931	-0.332752
C21	C	-4.106845	-0.823122	-0.332284
C22	C	-4.025874	-0.796920	-0.177711
C23	C	-3.984125	-0.702736	-0.178179
C24	C	-4.003739	-0.668745	-0.255703
C25	C	-3.825992	-0.119582	-0.405953
C26	C	-3.867530	-0.119095	-0.499734
C27	C	-4.018564	-0.117211	-0.840476
C28	C	-3.782358	-0.111616	-0.799536
C29	C	-3.739189	-0.112495	-0.702043
C30	C	-3.943633	-0.118145	-0.671430
C31	C	-4.113185	-0.207199	-0.722238
C32	C	-4.155034	-0.206696	-0.819786
C33	C	-4.070978	-0.034464	-0.794464
C34	C	-4.023029	-0.033759	-0.696620
C35	C	-3.901298	-0.118677	-0.575893
C36	C	-4.060908	-0.116686	-0.936014
C37	C	-4.152425	0.042649	-0.254259
C38	C	-4.087237	0.142887	-0.254767
C39	C	-4.156966	-0.115779	-0.105953
C40	C	-4.094666	-0.116261	-0.012171
H41	H	-3.610880	-0.048465	-0.666889
Cl42	Cl	-3.778203	-0.336579	-0.082761
H43	H	-4.081105	-0.701261	-0.395881
H44	H	-3.977668	0.033012	-0.807694
H45	H	-3.900118	0.032111	-0.662107
Cl46	Cl	-3.872482	-0.549156	-0.081706
H47	H	-4.156802	-0.872129	-0.395025
Cl48	Cl	-4.030347	-0.303943	-0.696480
Cl49	Cl	-3.615680	-0.012202	-0.818278
H50	H	-3.952328	-0.410766	-0.397325
H51	H	-3.738949	-0.171066	-0.831169
H52	H	-4.170285	-0.032651	-0.675270
Cl53	Cl	-4.336771	-0.039564	-0.835878
Cl54	Cl	-3.639277	-0.205347	-0.677071
H55	H	-4.028061	-0.581640	-0.396469
Cl56	Cl	-3.906973	-0.627065	-0.081315
H57	H	-4.009897	-0.824599	-0.114588
Cl58	Cl	-4.101966	-0.303409	-0.866893
Cl59	Cl	-4.423753	-0.218736	-0.863029
H60	H	-4.266549	-0.214555	-0.703340
