data_functionalizedCrystal
_audit_creation_method	'MofGen! by Chris Wilmer'
_symmetry_space_group_name_H-M	'P1'
_symmetry_Int_Tables_number	1
_symmetry_cell_setting	triclinic
loop_
_symmetry_equiv_pos_as_xyz
  x,y,z
_cell_length_a	11.792254
_cell_length_b	10.654550
_cell_length_c	9.730223
_cell_angle_alpha	89.998521
_cell_angle_beta	89.996764
_cell_angle_gamma	84.341763
loop_
_atom_site_label
_atom_site_type_symbol
_atom_site_fract_x
_atom_site_fract_y
_atom_site_fract_z
O1	O	1.507296	0.172211	-0.114279
O2	O	1.176998	0.189935	-0.114281
O3	O	1.349741	-0.001688	-0.114281
O4	O	1.334553	0.363833	-0.114279
O5	O	1.349730	-0.001693	0.114299
O6	O	1.176987	0.189929	0.114299
O7	O	1.507285	0.172206	0.114301
Zn8	Zn	1.342134	0.181067	0.150592
Zn9	Zn	1.342149	0.181073	-0.150572
O10	O	1.334542	0.363828	0.114301
C11	C	1.134699	0.188815	0.000008
C12	C	1.008678	0.185474	0.000007
C13	C	1.348620	-0.048485	0.000006
C14	C	1.345284	-0.187919	-0.000004
C15	C	1.340575	-0.384444	-0.124592
C16	C	1.343722	-0.253432	-0.124601
C17	C	1.343711	-0.253426	0.124610
C18	C	1.340572	-0.384436	0.124616
C19	C	0.906335	0.182758	0.000001
C20	C	0.777941	0.179363	0.000000
C21	C	1.549584	0.173325	0.000008
C22	C	1.675605	0.176666	0.000000
C23	C	1.335662	0.410625	0.000011
C24	C	1.338999	0.550059	0.000011
N25	N	1.342132	0.181061	0.356128
N26	N	1.342159	0.181069	-0.356109
C27	C	1.418649	0.096247	0.428054
C28	C	1.418661	0.096247	0.571937
C29	C	1.265634	0.265887	0.571955
C30	C	1.265618	0.265880	0.428075
H31	H	1.339293	-0.437774	-0.226054
Br32	Br	1.161800	0.380997	0.669602
H33	H	1.339292	-0.437766	0.226090
Br34	Br	1.161758	0.380983	0.330450
Br35	Br	1.522504	-0.018868	0.669548
H36	H	1.345007	-0.200110	-0.226066
Br37	Br	1.345841	-0.164518	0.293708
H38	H	1.480950	0.027180	0.369478
