data_functionalizedCrystal
_audit_creation_method	'MofGen! by Chris Wilmer'
_symmetry_space_group_name_H-M	'P1'
_symmetry_Int_Tables_number	1
_symmetry_cell_setting	triclinic
loop_
_symmetry_equiv_pos_as_xyz
  x,y,z
_cell_length_a	14.908558
_cell_length_b	16.625545
_cell_length_c	14.908854
_cell_angle_alpha	86.671394
_cell_angle_beta	89.796050
_cell_angle_gamma	86.720757
loop_
_atom_site_label
_atom_site_type_symbol
_atom_site_fract_x
_atom_site_fract_y
_atom_site_fract_z
Zn1	Zn	1.345282	-0.360186	-0.587578
Zn2	Zn	1.353843	-0.503231	-0.437212
Zn3	Zn	1.203592	-0.361099	-0.428573
Zn4	Zn	1.194877	-0.487659	-0.578868
O5	O	1.274399	-0.428044	-0.508058
O6	O	1.472244	-0.385297	-0.574892
O7	O	1.341142	-0.491276	-0.310238
O8	O	1.222452	-0.248147	-0.449695
O9	O	1.478534	-0.490391	-0.464418
O10	O	1.326551	-0.247477	-0.566515
O11	O	1.230753	-0.386852	-0.303891
O12	O	1.076610	-0.371752	-0.441250
O13	O	1.207599	-0.463850	-0.705852
O14	O	1.070207	-0.464735	-0.551671
O15	O	1.318101	-0.370197	-0.712250
O16	O	1.332692	-0.613996	-0.455973
O17	O	1.215900	-0.602555	-0.560048
C18	C	1.040783	-0.416654	-0.494578
C19	C	0.940840	-0.411799	-0.488833
C20	C	1.274303	-0.637532	-0.508024
C21	C	1.274342	-0.727154	-0.508044
C22	C	0.803277	-0.356465	-0.423340
C23	C	0.897183	-0.361022	-0.428734
C24	C	0.890586	-0.458020	-0.543544
C25	C	0.796680	-0.453462	-0.538149
C26	C	0.753029	-0.402684	-0.478044
C27	C	0.659122	-0.398131	-0.472646
C28	C	0.652527	-0.495124	-0.587460
C29	C	0.746432	-0.499682	-0.592854
C30	C	1.274376	-0.799937	-0.508064
C31	C	1.274427	-0.891247	-0.508087
C32	C	1.274473	-0.964025	-0.508101
C33	C	1.274523	-1.055340	-0.508122
C34	C	1.508926	-0.439479	-0.521590
C35	C	1.608868	-0.444352	-0.527357
C36	C	1.260923	-0.415184	-0.742589
C37	C	1.255180	-0.409704	-0.842532
C38	C	1.274518	-0.217738	-0.508113
C39	C	1.274569	-0.128119	-0.508136
C40	C	1.359358	-0.508142	-1.036948
C41	C	1.353965	-0.502996	-1.130854
C42	C	1.239007	-0.394262	-1.124252
C43	C	1.244400	-0.399409	-1.030346
C44	C	1.304576	-0.456351	-0.986697
C45	C	1.309964	-0.461501	-0.892790
C46	C	1.195011	-0.352764	-0.886189
C47	C	1.189618	-0.347618	-0.980095
C48	C	1.287874	-0.440798	-0.274442
C49	C	1.293791	-0.446059	-0.174509
H50	H	0.623584	-0.356785	-0.423706
N51	N	0.937677	-0.512785	-0.608363
H52	H	0.917666	-0.496038	-0.671697
H53	H	1.004777	-0.508629	-0.603397
N54	N	0.756190	-0.301711	-0.358507
H55	H	0.802272	-0.273125	-0.324666
H56	H	0.715139	-0.260544	-0.392940
H57	H	0.611605	-0.532760	-0.632004
H58	H	0.781986	-0.541022	-0.641792
H59	H	0.938091	-0.323383	-0.384191
N60	N	1.374862	-0.522918	-0.845710
H61	H	1.408747	-0.554943	-0.891799
H62	H	1.418727	-0.494260	-0.809156
N63	N	1.424249	-0.569564	-0.989866
H64	H	1.458130	-0.601595	-1.035953
H65	H	1.468119	-0.540911	-0.953312
H66	H	1.398575	-0.545169	-1.171765
H67	H	1.190019	-0.347898	-1.159807
H68	H	1.140626	-0.301255	-1.015647
H69	H	1.150402	-0.310592	-0.845265
