data_functionalizedCrystal
_audit_creation_method	'MofGen! by Chris Wilmer'
_symmetry_space_group_name_H-M	'P1'
_symmetry_Int_Tables_number	1
_symmetry_cell_setting	triclinic
loop_
_symmetry_equiv_pos_as_xyz
  x,y,z
_cell_length_a	12.759395
_cell_length_b	12.594516
_cell_length_c	12.594509
_cell_angle_alpha	89.973452
_cell_angle_beta	90.017549
_cell_angle_gamma	89.973424
loop_
_atom_site_label
_atom_site_type_symbol
_atom_site_fract_x
_atom_site_fract_y
_atom_site_fract_z
Zn1	Zn	1.606161	0.423715	0.601765
Zn2	Zn	2.106161	0.923715	1.101765
Zn3	Zn	1.606021	0.601725	0.423792
Zn4	Zn	2.106021	1.101725	0.923792
Zn5	Zn	1.430465	0.423760	0.423806
Zn6	Zn	1.930465	0.923760	0.923806
Zn7	Zn	1.430415	0.601651	0.601734
Zn8	Zn	1.930415	1.101651	1.101734
O9	O	1.518266	0.512713	0.512774
O10	O	2.018266	1.012713	1.012774
O11	O	1.753164	0.447340	0.578164
O12	O	2.253164	0.947340	1.078164
O13	O	1.582695	0.578167	0.274848
O14	O	2.082695	1.078167	0.774848
O15	O	1.453852	0.274808	0.447431
O16	O	1.953852	0.774808	0.947431
O17	O	1.753061	0.578123	0.447408
O18	O	2.253061	1.078123	0.947408
O19	O	1.582935	0.274775	0.578178
O20	O	2.082935	0.774775	1.078178
O21	O	1.453715	0.447418	0.274858
O22	O	1.953715	0.947418	0.774858
O23	O	1.283438	0.447346	0.447401
O24	O	1.783438	0.947346	0.947401
O25	O	1.453766	0.577997	0.750684
O26	O	1.953766	1.077997	1.250684
O27	O	1.283401	0.578042	0.578124
O28	O	1.783401	1.078042	1.078124
O29	O	1.582886	0.447268	0.750707
O30	O	2.082886	0.947268	1.250707
O31	O	1.582647	0.750661	0.447377
O32	O	2.082647	1.250661	0.947377
O33	O	1.453630	0.750607	0.578110
O34	O	1.953630	1.250607	1.078110
C35	C	1.245298	0.512691	0.512761
C36	C	1.745298	1.012691	1.012761
C37	C	1.128521	0.512708	0.512781
C38	C	1.628521	1.012708	1.012781
C39	C	1.128610	0.376743	0.649157
C40	C	1.628610	0.876743	1.149157
C41	C	1.073793	0.308774	0.717354
C42	C	1.573793	0.808774	1.217354
C43	C	0.964071	0.308793	0.717367
C44	C	1.464071	0.808793	1.217367
C45	C	0.909164	0.376786	0.649174
C46	C	1.409164	0.876786	1.149174
C47	C	0.963981	0.444756	0.580977
C48	C	1.463981	0.944756	1.080977
C49	C	1.073705	0.444732	0.580974
C50	C	1.573705	0.944732	1.080974
C51	C	0.963892	0.580713	0.444597
C52	C	1.463892	1.080713	0.944597
C53	C	1.073614	0.580701	0.444587
C54	C	1.573614	1.080701	0.944587
C55	C	0.908985	0.648707	0.376404
C56	C	1.408985	1.148707	0.876404
C57	C	0.963802	0.716683	0.308211
C58	C	1.463802	1.216683	0.808211
C59	C	1.073530	0.716662	0.308201
C60	C	1.573530	1.216662	0.808201
C61	C	1.128431	0.648671	0.376391
C62	C	1.628431	1.148671	0.876391
C63	C	1.518146	0.789254	0.512762
C64	C	2.018146	1.289254	1.012762
C65	C	1.518191	0.907559	0.512792
C66	C	2.018191	1.407559	1.012792
C67	C	1.447999	0.976821	0.583848
C68	C	1.947999	1.476821	1.083848
C69	C	1.422388	1.047687	0.486726
C70	C	1.922388	1.547687	0.986726
C71	C	1.543859	1.047493	0.609930
C72	C	2.043859	1.547493	1.109930
C73	C	1.492529	0.976866	0.415619
C74	C	1.992529	1.476866	0.915619
C75	C	1.614045	0.976666	0.538888
C76	C	2.114045	1.476666	1.038888
C77	C	1.588470	1.047499	0.441700
C78	C	2.088470	1.547499	0.941700
C79	C	1.792299	0.512735	0.512788
C80	C	2.292299	1.012735	1.012788
C81	C	1.909076	0.512744	0.512794
C82	C	2.409076	1.012744	1.012794
C83	C	1.518336	0.512619	0.790395
C84	C	2.018336	1.012619	1.290395
C85	C	1.518366	0.512580	0.908701
C86	C	2.018366	1.012580	1.408701
C87	C	1.518368	1.235092	0.512808
C88	C	2.018368	1.735092	1.012808
C89	C	1.518294	1.116786	0.512819
C90	C	2.018294	1.616786	1.012819
C91	C	1.518256	0.512729	0.236233
C92	C	2.018256	1.012729	0.736233
C93	C	1.518430	0.512469	0.117928
C94	C	2.018430	1.012469	0.617928
C95	C	1.448160	0.583643	0.977941
C96	C	1.948160	1.083643	1.477941
C97	C	1.544020	0.609649	1.048726
C98	C	2.044020	1.109649	1.548726
C99	C	1.422580	0.486509	1.048715
C100	C	1.922580	0.986509	1.548715
C101	C	1.614277	0.538637	0.977927
C102	C	2.114277	1.038637	1.477927
C103	C	1.492772	0.415452	0.977910
C104	C	1.992772	0.915452	1.477910
C105	C	1.588699	0.441421	1.048663
C106	C	2.088699	0.941421	1.548663
H107	H	0.919087	0.772033	0.252689
H108	H	1.419087	1.272033	0.752689
F109	F	0.792388	0.376791	0.649180
F110	F	1.292388	0.876791	1.149180
F111	F	0.792209	0.648721	0.376415
F112	F	1.292209	1.148721	0.876415
F113	F	1.316493	1.088459	0.457879
F114	F	1.816493	1.588459	0.957879
H115	H	1.565703	0.691741	1.079832
H116	H	2.065703	1.191741	1.579832
H117	H	1.695332	0.560735	0.946963
H118	H	2.195332	1.060735	1.446963
F119	F	1.464086	0.936488	0.308228
F120	F	1.964086	1.436488	0.808228
H121	H	1.695039	0.945450	0.560985
H122	H	2.195039	1.445450	1.060985
F123	F	1.666117	1.087808	0.363086
F124	F	2.166117	1.587808	0.863086
H125	H	1.118155	0.772008	0.252663
H126	H	1.618155	1.272008	0.752663
H127	H	1.217772	0.648642	0.376384
H128	H	1.717772	1.148642	0.876384
H129	H	1.565528	1.078517	0.692067
H130	H	2.065528	1.578517	1.192067
H131	H	1.388835	0.643832	0.946889
H132	H	1.888835	1.143832	1.446889
H133	H	1.648166	0.381278	1.079519
H134	H	2.148166	0.881278	1.579519
F135	F	1.370299	0.936255	0.662276
F136	F	1.870299	1.436255	1.162276
H137	H	1.341548	0.464505	1.079810
H138	H	1.841548	0.964505	1.579810
F139	F	1.245385	0.376730	0.649160
F140	F	1.745385	0.876730	1.149160
F141	F	1.132236	0.236413	0.789925
F142	F	1.632236	0.736413	1.289925
F143	F	1.464396	0.308182	0.937219
F144	F	1.964396	0.808182	1.437219
H145	H	0.919440	0.253440	0.772893
H146	H	1.419440	0.753440	1.272893
