data_functionalizedCrystal
_audit_creation_method	'MofGen! by Chris Wilmer'
_symmetry_space_group_name_H-M	'P1'
_symmetry_Int_Tables_number	1
_symmetry_cell_setting	triclinic
loop_
_symmetry_equiv_pos_as_xyz
  x,y,z
_cell_length_a	16.974818
_cell_length_b	16.992695
_cell_length_c	13.930277
_cell_angle_alpha	89.998101
_cell_angle_beta	86.347952
_cell_angle_gamma	92.974585
loop_
_atom_site_label
_atom_site_type_symbol
_atom_site_fract_x
_atom_site_fract_y
_atom_site_fract_z
O1	O	1.055455	-0.099942	-0.002199
O2	O	1.555455	0.400058	0.497801
O3	O	0.826054	-0.112667	0.015633
O4	O	1.326054	0.387333	0.515633
O5	O	0.939835	0.007837	0.006781
O6	O	1.439835	0.507837	0.506781
O7	O	0.941674	-0.220446	0.006653
O8	O	1.441674	0.279554	0.506653
O9	O	0.939823	0.007834	-0.152880
O10	O	1.439823	0.507834	0.347120
O11	O	0.826042	-0.112670	-0.144028
O12	O	1.326042	0.387330	0.355972
O13	O	1.055443	-0.099946	-0.161859
O14	O	1.555443	0.400054	0.338141
Zn15	Zn	0.940741	-0.106309	-0.178293
Zn16	Zn	1.440741	0.393691	0.321707
Zn17	Zn	0.940756	-0.106304	0.032067
Zn18	Zn	1.440756	0.393696	0.532067
O19	O	0.941662	-0.220450	-0.153008
O20	O	1.441662	0.279550	0.346992
C21	C	0.796559	-0.112184	-0.061906
C22	C	1.296559	0.387816	0.438094
C23	C	0.708692	-0.110731	-0.055076
C24	C	1.208692	0.389269	0.444924
C25	C	0.937463	0.037045	-0.072866
C26	C	1.437463	0.537045	0.427134
C27	C	0.930403	0.124082	-0.072317
C28	C	1.430403	0.624082	0.427683
C29	C	1.084938	-0.100429	-0.084319
C30	C	1.584938	0.399571	0.415681
C31	C	1.172805	-0.101882	-0.091142
C32	C	1.672805	0.398118	0.408858
N33	N	0.940736	-0.106311	-0.321859
N34	N	1.440736	0.393689	0.178141
C35	C	1.214088	-0.102564	-0.007318
C36	C	1.714088	0.397436	0.492682
C37	C	1.296649	-0.103923	-0.013732
C38	C	1.796649	0.396077	0.486268
C39	C	1.337927	-0.104606	-0.103972
C40	C	1.837927	0.395394	0.396028
C41	C	1.296639	-0.103921	-0.187803
C42	C	1.796639	0.396079	0.312197
C43	C	1.214079	-0.102557	-0.181388
C44	C	1.714079	0.397443	0.318612
C45	C	1.584844	-0.108682	-0.132492
C46	C	2.084844	0.391318	0.367508
C47	C	1.667409	-0.110049	-0.138901
C48	C	2.167409	0.389951	0.361099
C49	C	1.667414	-0.110049	0.035171
C50	C	2.167414	0.389951	0.535171
C51	C	1.584852	-0.108689	0.041579
C52	C	2.084852	0.391311	0.541579
C53	C	1.543572	-0.108001	-0.042252
C54	C	2.043572	0.391999	0.457748
N55	N	1.422318	-0.105997	-0.110531
N56	N	1.922318	0.394003	0.389469
N57	N	1.459183	-0.106603	-0.035693
N58	N	1.959183	0.393397	0.464307
C59	C	0.944034	-0.249658	-0.073359
C60	C	1.444034	0.250342	0.426641
C61	C	0.951094	-0.336695	-0.073902
C62	C	1.451094	0.163305	0.426098
C63	C	0.998518	0.174395	-0.077612
C64	C	1.498518	0.674395	0.422388
C65	C	0.991880	0.256174	-0.077087
C66	C	1.491880	0.756174	0.422913
C67	C	0.917127	0.287639	-0.071273
C68	C	1.417127	0.787639	0.428727
C69	C	0.849007	0.237320	-0.065974
C70	C	1.349007	0.737320	0.434026
C71	C	0.855645	0.155542	-0.066493
C72	C	1.355645	0.655542	0.433507
C73	C	0.889612	0.531208	-0.069121
C74	C	1.389612	1.031208	0.430879
C75	C	0.882979	0.612992	-0.068606
C76	C	1.382979	1.112992	0.431394
C77	C	1.025853	0.631841	-0.079717
C78	C	1.525853	1.131841	0.420283
C79	C	1.032485	0.550061	-0.080241
C80	C	1.532485	1.050061	0.419759
C81	C	0.964365	0.499749	-0.074937
C82	C	1.464365	0.999749	0.425063
N83	N	0.910340	0.371231	-0.070739
N84	N	1.410340	0.871231	0.429261
N85	N	0.971153	0.416159	-0.075464
N86	N	1.471153	0.916159	0.424536
C87	C	0.890346	-0.159654	-0.368202
C88	C	1.390346	0.340346	0.131798
C89	C	0.991131	-0.052965	-0.376021
C90	C	1.491131	0.447035	0.123979
C91	C	0.991139	-0.052962	-0.476518
C92	C	1.491139	0.447038	0.023482
C93	C	0.940749	-0.106305	-0.522861
C94	C	1.440749	0.393695	-0.022861
C95	C	0.890350	-0.159651	-0.468708
C96	C	1.390350	0.340349	0.031292
C97	C	1.041531	0.000389	-0.530678
C98	C	1.541531	0.500389	-0.030678
C99	C	1.041541	0.000394	-0.631181
C100	C	1.541541	0.500394	-0.131181
C101	C	0.991154	-0.052953	-0.677526
C102	C	1.491154	0.447047	-0.177526
C103	C	0.940754	-0.106302	-0.623366
C104	C	1.440754	0.393698	-0.123366
C105	C	0.890364	-0.159645	-0.669709
C106	C	1.390364	0.340355	-0.169709
C107	C	0.839967	-0.212998	-0.615552
C108	C	1.339967	0.287002	-0.115552
C109	C	0.839963	-0.212998	-0.515053
C110	C	1.339963	0.287002	-0.015053
C111	C	0.991157	-0.052952	-0.778025
C112	C	1.491157	0.447048	-0.278025
C113	C	0.890368	-0.159641	-0.770215
C114	C	1.390368	0.340359	-0.270215
N115	N	0.940767	-0.106295	0.175632
N116	N	1.440767	0.393705	0.675632
H117	H	1.180485	-0.102013	0.066166
H118	H	1.680485	0.397987	0.566166
H119	H	0.800178	0.114577	-0.062180
H120	H	1.300178	0.614577	0.437820
H121	H	1.032154	-0.009531	-0.338285
H122	H	1.532154	0.490469	0.161715
F123	F	0.836715	-0.216437	-0.310567
F124	F	1.336715	0.283563	0.189433
H125	H	1.180468	-0.102010	-0.249647
H126	H	1.680468	0.397990	0.250353
F127	F	1.078082	0.140915	-0.083809
F128	F	1.578082	0.640915	0.416191
H129	H	0.849337	-0.203083	-0.807941
H130	H	1.349337	0.296917	-0.307941
F131	F	1.064378	0.309718	-0.082725
F132	F	1.564378	0.809718	0.417275
F133	F	1.711354	-0.110777	0.124384
F134	F	2.211354	0.389223	0.624384
F135	F	1.540920	-0.107966	-0.221713
F136	F	2.040920	0.392034	0.278287
F137	F	0.817112	0.477672	-0.063474
F138	F	1.317112	0.977672	0.436526
F139	F	1.112048	0.516580	-0.086404
F140	F	1.612048	1.016580	0.413596
H141	H	1.701015	-0.110610	-0.212389
H142	H	2.201015	0.389390	0.287611
F143	F	1.340572	-0.104646	-0.283844
F144	F	1.840572	0.395354	0.216156
H145	H	1.032186	-0.009510	-0.822115
H146	H	1.532186	0.490490	-0.322115
H147	H	1.082577	0.043836	-0.675270
H148	H	1.582577	0.543836	-0.175270
H149	H	1.082554	0.043823	-0.492942
H150	H	1.582554	0.543823	0.007058
H151	H	1.081313	0.672814	-0.084034
H152	H	1.581313	1.172814	0.415966
F153	F	0.769448	0.270810	-0.059776
F154	F	1.269448	0.770810	0.440224
H155	H	0.798935	-0.256427	-0.653296
H156	H	1.298935	0.243573	-0.153296
F157	F	1.340581	-0.104645	0.075486
F158	F	1.840581	0.395355	0.575486
F159	F	0.786330	-0.269775	-0.457411
F160	F	1.286330	0.230225	0.042589
H161	H	0.822102	0.638607	-0.063887
H162	H	1.322102	1.138607	0.436113
H163	H	1.551250	-0.108132	0.115062
H164	H	2.051250	0.391868	0.615062
