data_functionalizedCrystal
_audit_creation_method	'MofGen! by Chris Wilmer'
_symmetry_space_group_name_H-M	'P1'
_symmetry_Int_Tables_number	1
_symmetry_cell_setting	triclinic
loop_
_symmetry_equiv_pos_as_xyz
  x,y,z
_cell_length_a	19.851628
_cell_length_b	12.970454
_cell_length_c	12.970454
_cell_angle_alpha	120.000713
_cell_angle_beta	89.997528
_cell_angle_gamma	59.998287
loop_
_atom_site_label
_atom_site_type_symbol
_atom_site_fract_x
_atom_site_fract_y
_atom_site_fract_z
Zr1	Zr	0.648979	1.128403	0.135184
O2	O	0.541415	1.343513	0.299829
O3	O	0.681953	0.913307	0.084711
O4	O	0.681957	1.128397	0.299802
O5	O	0.541409	1.128424	-0.084928
O6	O	0.792818	1.128377	0.299781
O7	O	0.541412	1.128423	0.084738
O8	O	0.792813	0.743621	-0.084977
O9	O	0.541415	1.513180	0.299830
O10	O	0.778751	1.001760	0.063170
O11	O	0.696015	1.001775	-0.063434
O12	O	0.696018	1.255016	0.189807
O13	O	0.613282	1.255031	0.063202
Zr14	Zr	0.825787	1.128373	-0.135447
Zr15	Zr	0.825791	1.128372	0.135151
Zr16	Zr	0.648975	1.128405	-0.135414
Zr17	Zr	0.648979	1.399003	0.135186
Zr18	Zr	0.825787	0.857773	-0.135448
O19	O	0.792813	1.343470	-0.084974
O20	O	0.792818	1.343467	0.299782
O21	O	0.541409	1.343515	-0.084927
O22	O	0.933351	0.913264	-0.300092
O23	O	0.933357	0.913262	0.084664
O24	O	0.681948	0.913309	-0.300045
O25	O	0.933357	1.128353	0.084665
O26	O	0.792810	1.128380	-0.300065
O27	O	0.681948	1.128400	-0.300044
O28	O	0.933355	1.128354	-0.085001
O29	O	0.681957	1.513155	0.299804
O30	O	0.792810	0.743622	-0.300067
O31	O	0.933351	0.743597	-0.300093
O32	O	0.933354	0.743595	-0.085003
O33	O	0.541412	1.513181	0.084740
O34	O	0.681954	1.513156	0.084714
O35	O	0.778748	1.001761	-0.190070
O36	O	0.861485	1.001746	-0.063465
O37	O	0.778752	1.255001	0.063172
O38	O	0.696015	1.255017	-0.063433
C39	C	0.737383	0.789909	-0.000133
C40	C	0.737383	0.675032	-0.000134
C41	C	0.516219	1.128428	-0.000090
C42	C	0.441157	1.128442	-0.000076
C43	C	0.214703	1.266495	0.068929
C44	C	0.192342	1.197470	0.118959
C45	C	0.303751	1.128404	-0.000112
C46	C	0.192371	1.197438	-0.050119
C47	C	0.171019	1.128378	-0.000147
C48	C	0.282379	1.059378	0.049987
C49	C	0.282405	1.059366	-0.119157
C50	C	0.260097	0.990240	-0.069157
C51	C	0.380213	1.128423	-0.000090
C52	C	0.094561	1.128348	-0.000167
C53	C	0.958548	1.128349	-0.000173
C54	C	1.033609	1.128335	-0.000187
C55	C	0.737388	1.128386	0.338346
C56	C	0.737390	1.128386	0.453222
C57	C	0.737383	1.466868	-0.000130
C58	C	0.737383	1.581744	-0.000129
C59	C	0.737381	1.128390	0.661391
C60	C	0.737387	1.128390	0.546515
C61	C	0.958548	0.789869	-0.000174
C62	C	1.033609	0.674979	-0.000189
C63	C	0.737378	0.789911	-0.338611
C64	C	0.737376	0.675035	-0.453487
C65	C	0.958543	0.789871	-0.338652
C66	C	1.033602	0.674982	-0.453542
C67	C	0.516224	1.466905	0.338389
C68	C	0.441164	1.581795	0.453280
C69	C	0.516219	1.466907	-0.000089
C70	C	0.441157	1.581798	-0.000074
C71	C	0.737388	1.466866	0.338348
C72	C	0.737390	1.581742	0.453224
C73	C	1.025673	0.621033	0.065918
C74	C	1.096194	0.513096	0.065930
C75	C	1.174650	0.459100	-0.000174
C76	C	1.182585	0.513057	-0.066283
C77	C	1.112065	0.620999	-0.066286
C78	C	1.112046	0.621020	-0.441410
C79	C	1.182579	0.513084	-0.549352
C80	C	1.174667	0.459105	-0.669424
C81	C	1.096214	0.513077	-0.681555
C82	C	1.025683	0.621018	-0.573614
C83	C	0.362720	1.635770	0.441147
C84	C	0.292187	1.743739	0.549089
C85	C	0.300100	1.797725	0.669162
C86	C	0.378552	1.743745	0.681292
C87	C	0.449083	1.635785	0.573351
C88	C	0.449094	1.635755	-0.066170
C89	C	0.378572	1.743722	-0.066151
C90	C	0.300116	1.797721	-0.000044
C91	C	0.292181	1.743759	0.066060
C92	C	0.362702	1.635802	0.066048
H93	H	0.153534	1.255832	0.219621
O94	O	1.258862	0.460386	-0.130479
C95	C	1.319394	0.353569	-0.116269
H96	H	1.291890	0.306403	-0.091906
H97	H	1.341459	0.405198	-0.037142
C98	C	1.426644	0.288787	-0.270468
C99	C	1.392865	0.230848	-0.240555
H100	H	1.471967	0.213089	-0.347130
H101	H	1.385864	0.360755	-0.280039
H102	H	1.445025	0.331810	-0.204519
H103	H	1.374476	0.187843	-0.306496
H104	H	1.433644	0.158869	-0.230998
H105	H	0.242700	1.885627	-0.000045
H106	H	0.321211	1.001054	-0.219797
O107	O	0.386378	1.795920	0.797840
C108	C	0.470738	1.725028	0.785422
H109	H	0.508374	1.680718	0.689191
H110	H	0.491494	1.631147	0.794056
C111	C	0.437787	1.888687	1.008380
C112	C	0.484011	1.834275	0.890191
H113	H	0.445975	1.956072	1.073009
H114	H	0.380951	1.936445	1.016748
H115	H	0.455088	1.810440	1.015557
H116	H	0.466702	1.912519	0.883009
H117	H	0.540844	1.786532	0.881824
H118	H	0.512954	1.591840	0.583245
O119	O	1.258828	0.460417	-0.537724
C120	C	1.302218	0.309166	-0.596193
H121	H	1.275296	0.263376	-0.669759
H122	H	1.296356	0.288564	-0.521985
C123	C	1.426963	0.289877	-0.570577
C124	C	1.393903	0.233634	-0.660939
H125	H	1.483520	0.243284	-0.610511
H126	H	1.397731	0.391778	-0.531181
H127	H	1.422071	0.272704	-0.508743
H128	H	1.398786	0.250823	-0.722761
H129	H	1.423139	0.131733	-0.700348
H130	H	1.118538	0.664909	-0.120126
O131	O	0.215985	1.796344	0.130463
C132	C	0.206930	1.858755	0.259487
H133	H	0.251586	1.891150	0.282905
H134	H	0.220923	1.776026	0.280618
C135	C	0.062965	1.955137	0.311484
C136	C	0.117808	1.994935	0.340249
H137	H	0.007990	2.039135	0.361303
H138	H	0.069066	1.913085	0.224557
H139	H	0.074637	1.886194	0.329093
H140	H	0.106142	2.063862	0.322624
H141	H	0.111703	2.037002	0.427174
O142	O	1.119891	0.673226	-0.324874
C143	C	1.204259	0.602355	-0.337338
H144	H	1.241869	0.558002	-0.433608
H145	H	1.225037	0.508507	-0.328645
C146	C	1.171352	0.766104	-0.114413
C147	C	1.217544	0.711639	-0.232649
H148	H	1.179548	0.833512	-0.049833
H149	H	1.114511	0.813848	-0.106014
H150	H	1.188672	0.687885	-0.107187
H151	H	1.200217	0.789854	-0.239880
H152	H	1.274383	0.663910	-0.241047
H153	H	0.356262	1.591820	0.343387
H154	H	0.356228	1.591873	0.119868
H155	H	0.321074	1.001056	0.092381
O156	O	0.949440	0.673396	-0.585248
C157	C	0.906072	0.646976	-0.526807
H158	H	0.932993	0.633556	-0.453237
H159	H	0.911960	0.543170	-0.601032
C160	C	0.781317	0.792953	-0.552440
C161	C	0.814377	0.776482	-0.462074
H162	H	0.724755	0.872834	-0.512514
H163	H	0.810535	0.810749	-0.591818
H164	H	0.786231	0.706439	-0.614288
H165	H	0.809472	0.862987	-0.400237
H166	H	0.785157	0.758704	-0.422684
H167	H	0.278703	0.873382	-0.127544
H168	H	1.232105	0.371212	-0.757306
O169	O	1.088427	0.460615	-0.798127
C170	C	1.044947	0.398135	-0.811986
H171	H	1.006011	0.446904	-0.714823
H172	H	1.090634	0.275194	-0.863569
C173	C	1.036154	0.370182	-1.008032
C174	C	0.988326	0.430090	-0.888694
H175	H	1.001230	0.389886	-1.055354
H176	H	1.065450	0.412270	-0.998699
H177	H	1.074224	0.267735	-1.051002
H178	H	0.950265	0.532536	-0.845721
H179	H	0.959023	0.388019	-0.898022
O180	O	0.525258	1.583287	-0.130573
C181	C	0.534303	1.520831	-0.259598
H182	H	0.470815	1.569609	-0.270399
H183	H	0.568008	1.397889	-0.312638
C184	C	0.662391	1.492885	-0.301035
C185	C	0.584414	1.552803	-0.314299
H186	H	0.693305	1.512599	-0.334780
H187	H	0.656300	1.534957	-0.214110
H188	H	0.690468	1.390436	-0.345235
H189	H	0.556335	1.655251	-0.270087
H190	H	0.590502	1.510749	-0.401219
O191	O	0.216047	1.795946	0.537064
C192	C	0.224197	1.725149	0.407936
H193	H	0.287135	1.615738	0.350388
H194	H	0.218426	1.795915	0.376111
C195	C	0.078575	1.834400	0.458293
C196	C	0.155875	1.700013	0.387612
H197	H	0.036429	1.818899	0.445755
H198	H	0.073083	1.882102	0.545289
H199	H	0.073777	1.893357	0.431765
H200	H	0.160675	1.641065	0.414152
H201	H	0.161366	1.652300	0.300619
H202	H	0.196252	1.383258	0.127399
H203	H	0.153569	1.255828	-0.092397
H204	H	0.961796	0.664995	0.119763
H205	H	0.242662	1.885632	0.757043
H206	H	1.232066	0.371206	-0.000162
H207	H	1.089717	0.469178	0.119763
H208	H	0.385049	1.787639	-0.119986
