data_functionalizedCrystal
_audit_creation_method	'MofGen! by Chris Wilmer'
_symmetry_space_group_name_H-M	'P1'
_symmetry_Int_Tables_number	1
_symmetry_cell_setting	triclinic
loop_
_symmetry_equiv_pos_as_xyz
  x,y,z
_cell_length_a	8.559649
_cell_length_b	6.394989
_cell_length_c	7.681481
_cell_angle_alpha	95.906187
_cell_angle_beta	94.913240
_cell_angle_gamma	101.861812
loop_
_atom_site_label
_atom_site_type_symbol
_atom_site_fract_x
_atom_site_fract_y
_atom_site_fract_z
O1	O	2.104046	0.048509	-0.146402
O2	O	2.604046	0.548509	0.353598
O3	O	1.641007	-0.059017	-0.146408
O4	O	2.141007	0.440983	0.353592
O5	O	1.879099	0.299864	-0.146406
O6	O	2.379099	0.799864	0.353594
O7	O	1.865954	-0.310373	-0.146404
O8	O	2.365954	0.189627	0.353596
O9	O	1.908402	0.344125	0.146452
O10	O	2.408402	0.844125	0.646452
O11	O	1.670310	-0.014756	0.146450
O12	O	2.170310	0.485244	0.646450
O13	O	2.133349	0.092770	0.146456
O14	O	2.633349	0.592770	0.646456
Zn15	Zn	1.906482	0.046035	0.192951
Zn16	Zn	2.406482	0.546035	0.692951
Zn17	Zn	1.867874	-0.012282	-0.192902
Zn18	Zn	2.367874	0.487718	0.307098
O19	O	1.895257	-0.266111	0.146454
O20	O	2.395257	0.233889	0.646454
C21	C	1.596293	-0.045035	0.000021
C22	C	2.096293	0.454965	0.500021
C23	C	1.419401	-0.069291	0.000018
C24	C	1.919401	0.430709	0.500018
C25	C	2.178063	0.078787	0.000024
C26	C	2.678063	0.578787	0.500024
C27	C	2.354954	0.103041	0.000015
C28	C	2.854954	0.603041	0.500015
C29	C	1.891151	0.399398	0.000016
C30	C	2.391151	0.899398	0.500016
C31	C	1.883208	0.634359	0.000015
C32	C	2.383208	1.134359	0.500015
N33	N	1.932843	0.085837	0.456285
N34	N	2.432843	0.585837	0.956285
N35	N	1.841525	-0.052066	-0.456237
N36	N	2.341525	0.447934	0.043763
H37	H	1.339239	-0.235400	0.000009
H38	H	1.839239	0.264600	0.500009
H39	H	1.748308	-0.192824	0.468566
H40	H	2.248308	0.307176	0.968566
H41	H	2.026079	0.226592	0.531491
H42	H	2.526079	0.726592	1.031491
H43	H	1.435105	0.269137	0.000005
H44	H	1.935105	0.769137	0.500005
