data_functionalizedCrystal
_audit_creation_method	'MofGen! by Chris Wilmer'
_symmetry_space_group_name_H-M	'P1'
_symmetry_Int_Tables_number	1
_symmetry_cell_setting	triclinic
loop_
_symmetry_equiv_pos_as_xyz
  x,y,z
_cell_length_a	12.594516
_cell_length_b	13.897449
_cell_length_c	13.897441
_cell_angle_alpha	90.020733
_cell_angle_beta	89.973623
_cell_angle_gamma	89.982668
loop_
_atom_site_label
_atom_site_type_symbol
_atom_site_fract_x
_atom_site_fract_y
_atom_site_fract_z
Zn1	Zn	-0.423672	-1.474714	-0.545409
Zn2	Zn	-0.173672	-1.224714	-0.295409
Zn3	Zn	0.076328	-0.974714	-0.045409
Zn4	Zn	0.326328	-0.724714	0.204591
Zn5	Zn	-0.601683	-1.474612	-0.384123
Zn6	Zn	-0.351683	-1.224612	-0.134123
Zn7	Zn	-0.101683	-0.974612	0.115877
Zn8	Zn	0.148317	-0.724612	0.365877
Zn9	Zn	-0.423722	-1.313403	-0.384128
Zn10	Zn	-0.173722	-1.063403	-0.134128
Zn11	Zn	0.076278	-0.813403	0.115872
Zn12	Zn	0.326278	-0.563403	0.365872
Zn13	Zn	-0.601613	-1.313389	-0.545375
Zn14	Zn	-0.351613	-1.063389	-0.295375
Zn15	Zn	-0.101613	-0.813389	-0.045375
Zn16	Zn	0.148387	-0.563389	0.204625
O17	O	-0.512672	-1.394029	-0.464759
O18	O	-0.262672	-1.144029	-0.214759
O19	O	-0.012672	-0.894029	0.035241
O20	O	0.237328	-0.644029	0.285241
O21	O	-0.447293	-1.609682	-0.524027
O22	O	-0.197293	-1.359682	-0.274027
O23	O	0.052707	-1.109682	-0.024027
O24	O	0.302707	-0.859682	0.225973
O25	O	-0.578126	-1.453191	-0.249142
O26	O	-0.328126	-1.203191	0.000858
O27	O	-0.078126	-0.953191	0.250858
O28	O	0.171874	-0.703191	0.500858
O29	O	-0.274770	-1.334849	-0.405539
O30	O	-0.024770	-1.084849	-0.155539
O31	O	0.225230	-0.834849	0.094461
O32	O	0.475230	-0.584849	0.344461
O33	O	-0.578077	-1.609607	-0.405530
O34	O	-0.328077	-1.359607	-0.155530
O35	O	-0.078077	-1.109607	0.094470
O36	O	0.171923	-0.859607	0.344470
O37	O	-0.274733	-1.453364	-0.524032
O38	O	-0.024733	-1.203364	-0.274032
O39	O	0.225267	-0.953364	-0.024032
O40	O	0.475267	-0.703364	0.225968
O41	O	-0.447380	-1.334751	-0.249145
O42	O	-0.197380	-1.084751	0.000855
O43	O	0.052620	-0.834751	0.250855
O44	O	0.302620	-0.584751	0.500855
O45	O	-0.447312	-1.178419	-0.405506
O46	O	-0.197312	-0.928419	-0.155506
O47	O	0.052688	-0.678419	0.094494
O48	O	0.302688	-0.428419	0.344494
O49	O	-0.577958	-1.334826	-0.680362
O50	O	-0.327958	-1.084826	-0.430362
O51	O	-0.077958	-0.834826	-0.180362
O52	O	0.172042	-0.584826	0.069638
O53	O	-0.578007	-1.178409	-0.523973
O54	O	-0.328007	-0.928409	-0.273973
O55	O	-0.078007	-0.678409	-0.023973
O56	O	0.171993	-0.428409	0.226027
O57	O	-0.447226	-1.453350	-0.680387
O58	O	-0.197226	-1.203350	-0.430387
O59	O	0.052774	-0.953350	-0.180387
O60	O	0.302774	-0.703350	0.069613
O61	O	-0.750619	-1.453177	-0.405497
O62	O	-0.500619	-1.203177	-0.155497
O63	O	-0.250619	-0.953177	0.094503
O64	O	-0.000619	-0.703177	0.344503
O65	O	-0.750568	-1.334728	-0.523968
O66	O	-0.500568	-1.084728	-0.273968
O67	O	-0.250568	-0.834728	-0.023968
O68	O	-0.000568	-0.584728	0.226032
C69	C	-0.789213	-1.393966	-0.464749
C70	C	-0.539213	-1.143966	-0.214749
C71	C	-0.289213	-0.893966	0.035251
C72	C	-0.039213	-0.643966	0.285251
C73	C	-0.907519	-1.394027	-0.464778
C74	C	-0.657519	-1.144027	-0.214778
C75	C	-0.407519	-0.894027	0.035222
C76	C	-0.157519	-0.644027	0.285222
C77	C	-0.512658	-1.143415	-0.464737
C78	C	-0.262658	-0.893415	-0.214737
C79	C	-0.012658	-0.643415	0.035263
C80	C	0.237342	-0.393415	0.285263
C81	C	-0.512678	-1.036201	-0.464750
C82	C	-0.262678	-0.786201	-0.214750
C83	C	-0.012678	-0.536201	0.035250
C84	C	0.237322	-0.286201	0.285250
C85	C	-0.512578	-1.394098	-0.716352
C86	C	-0.262578	-1.144098	-0.466352
C87	C	-0.012578	-0.894098	-0.216352
C88	C	0.237422	-0.644098	0.033648
C89	C	-0.512538	-1.394127	-0.823566
C90	C	-0.262538	-1.144127	-0.573566
C91	C	-0.012538	-0.894127	-0.323566
C92	C	0.237462	-0.644127	-0.073566
C93	C	-0.976783	-1.329596	-0.529169
C94	C	-0.726783	-1.079596	-0.279169
C95	C	-0.476783	-0.829596	-0.029169
C96	C	-0.226783	-0.579596	0.220831
C97	C	-1.047649	-1.306093	-0.441152
C98	C	-0.797649	-1.056093	-0.191152
C99	C	-0.547649	-0.806093	0.058848
C100	C	-0.297649	-0.556093	0.308848
C101	C	-1.047452	-1.417619	-0.552810
C102	C	-0.797452	-1.167619	-0.302810
C103	C	-0.547452	-0.917619	-0.052810
C104	C	-0.297452	-0.667619	0.197190
C105	C	-0.976827	-1.370477	-0.376714
C106	C	-0.726827	-1.120477	-0.126714
C107	C	-0.476827	-0.870477	0.123286
C108	C	-0.226827	-0.620477	0.373286
C109	C	-0.976623	-1.482044	-0.488431
C110	C	-0.726623	-1.232044	-0.238431
C111	C	-0.476623	-0.982044	0.011569
C112	C	-0.226623	-0.732044	0.261569
C113	C	-1.047457	-1.458574	-0.400353
C114	C	-0.797457	-1.208574	-0.150353
C115	C	-0.547457	-0.958574	0.099647
C116	C	-0.297457	-0.708574	0.349647
C117	C	-0.235052	-1.394119	-0.464789
C118	C	0.014948	-1.144119	-0.214789
C119	C	0.264948	-0.894119	0.035211
C120	C	0.514948	-0.644119	0.285211
C121	C	-0.116746	-1.394157	-0.464802
C122	C	0.133254	-1.144157	-0.214802
C123	C	0.383254	-0.894157	0.035198
C124	C	0.633254	-0.644157	0.285198
C125	C	-0.512687	-1.645622	-0.464781
C126	C	-0.262687	-1.395622	-0.214781
C127	C	-0.012687	-1.145622	0.035219
C128	C	0.237313	-0.895622	0.285219
C129	C	-0.512694	-1.752836	-0.464791
C130	C	-0.262694	-1.502836	-0.214791
C131	C	-0.012694	-1.252836	0.035209
C132	C	0.237306	-1.002836	0.285209
C133	C	-0.512682	-0.839906	-0.464776
C134	C	-0.262682	-0.589906	-0.214776
C135	C	-0.012682	-0.339906	0.035224
C136	C	0.237318	-0.089906	0.285224
C137	C	-0.512676	-0.949139	-0.464759
C138	C	-0.262676	-0.699139	-0.214759
C139	C	-0.012676	-0.449139	0.035241
C140	C	0.237324	-0.199139	0.285241
C141	C	-0.512466	-1.394153	-1.019861
C142	C	-0.262466	-1.144153	-0.769861
C143	C	-0.012466	-0.894153	-0.519861
C144	C	0.237534	-0.644153	-0.269861
C145	C	-0.512509	-1.394136	-0.910629
C146	C	-0.262509	-1.144136	-0.660629
C147	C	-0.012509	-0.894136	-0.410629
C148	C	0.237491	-0.644136	-0.160629
C149	C	-0.512689	-1.394017	-0.214145
C150	C	-0.262689	-1.144017	0.035855
C151	C	-0.012689	-0.894017	0.285855
C152	C	0.237311	-0.644017	0.535855
C153	C	-0.512430	-1.394174	-0.106931
C154	C	-0.262430	-1.144174	0.143069
C155	C	-0.012430	-0.894174	0.393069
C156	C	0.237570	-0.644174	0.643069
H157	H	-1.078870	-1.231719	-0.421166
H158	H	-0.828870	-0.981719	-0.171166
H159	H	-0.578870	-0.731719	0.078834
H160	H	-0.328870	-0.481719	0.328834
H161	H	-0.945932	-1.350490	-0.302256
H162	H	-0.695932	-1.100490	-0.052256
H163	H	-0.445932	-0.850490	0.197744
H164	H	-0.195932	-0.600490	0.447744
H165	H	-0.945405	-1.556401	-0.508459
H166	H	-0.695405	-1.306401	-0.258459
H167	H	-0.445405	-1.056401	-0.008459
H168	H	-0.195405	-0.806401	0.241541
O169	O	-1.088309	-1.530824	-0.328158
O170	O	-0.838309	-1.280824	-0.078158
O171	O	-0.588309	-1.030824	0.171842
O172	O	-0.338309	-0.780824	0.421842
H173	H	-1.136723	-1.585904	-0.365820
H174	H	-0.886723	-1.335904	-0.115820
H175	H	-0.636723	-1.085904	0.134180
H176	H	-0.386723	-0.835904	0.384180
O177	O	-1.088543	-1.443989	-0.651408
O178	O	-0.838543	-1.193989	-0.401408
O179	O	-0.588543	-0.943989	-0.151408
O180	O	-0.338543	-0.693989	0.098592
H181	H	-1.060236	-1.390335	-0.704702
H182	H	-0.810236	-1.140335	-0.454702
H183	H	-0.560236	-0.890335	-0.204702
H184	H	-0.310236	-0.640335	0.045298
O185	O	-0.935665	-1.257300	-0.601196
O186	O	-0.685665	-1.007300	-0.351196
O187	O	-0.435665	-0.757300	-0.101196
O188	O	-0.185665	-0.507300	0.148804
H189	H	-0.847543	-1.258370	-0.601028
H190	H	-0.597543	-1.008370	-0.351028
H191	H	-0.347543	-0.758370	-0.101028
H192	H	-0.097543	-0.508370	0.148972
