data_functionalizedCrystal
_audit_creation_method	'MofGen! by Chris Wilmer'
_symmetry_space_group_name_H-M	'P1'
_symmetry_Int_Tables_number	1
_symmetry_cell_setting	triclinic
loop_
_symmetry_equiv_pos_as_xyz
  x,y,z
_cell_length_a	8.140239
_cell_length_b	9.065218
_cell_length_c	23.532416
_cell_angle_alpha	83.934100
_cell_angle_beta	90.001056
_cell_angle_gamma	90.004899
loop_
_atom_site_label
_atom_site_type_symbol
_atom_site_fract_x
_atom_site_fract_y
_atom_site_fract_z
O1	O	-0.136687	-1.956290	-0.083497
O2	O	-0.136671	-1.526668	-0.090346
O3	O	-0.136679	-1.754428	-0.004086
O4	O	-0.136679	-1.728531	-0.169758
O5	O	0.136548	-1.754415	-0.004085
O6	O	0.136556	-1.526656	-0.090345
O7	O	0.136540	-1.956278	-0.083496
Zn8	Zn	0.179929	-1.741465	-0.086921
Zn9	Zn	-0.180060	-1.741481	-0.086922
O10	O	0.136548	-1.728518	-0.169757
C11	C	-0.000056	-1.471708	-0.089687
C12	C	-0.000050	-1.307962	-0.087719
N13	N	0.425611	-1.741464	-0.086919
N14	N	-0.425742	-1.741493	-0.086919
C15	C	-0.000069	-1.011238	-0.084155
C16	C	-0.000055	-1.174984	-0.086123
C17	C	-0.000069	-1.753760	0.017136
C18	C	-0.000079	-1.751771	0.080367
C19	C	-0.149013	-1.743320	0.353673
C20	C	-0.149016	-1.745167	0.294259
O21	O	-0.275676	-1.746179	0.263527
N22	N	-0.000078	-1.746074	0.264551
C23	C	0.148871	-1.745149	0.294260
O24	O	0.275554	-1.746092	0.263536
C25	C	0.148872	-1.743313	0.353673
C26	C	-0.000075	-1.742391	0.383378
C27	C	-0.297949	-1.742399	0.383377
C28	C	-0.297946	-1.740549	0.442787
C29	C	-0.149008	-1.739620	0.472492
C30	C	-0.000072	-1.740541	0.442787
C31	C	0.297820	-1.742399	0.383382
C32	C	0.297808	-1.740564	0.442799
C33	C	0.148860	-1.739641	0.472503
C34	C	0.148868	-1.737763	0.531901
N35	N	-0.000069	-1.736855	0.561609
C36	C	-0.149007	-1.737784	0.531904
C37	C	0.148859	-1.749008	0.169489
C38	C	0.148860	-1.750834	0.110077
C39	C	-0.149028	-1.750854	0.110080
C40	C	-0.149027	-1.749018	0.169493
C41	C	-0.000079	-1.748101	0.199197
C42	C	-0.148990	-1.733898	0.656668
C43	C	-0.148974	-1.732042	0.716083
C44	C	0.148913	-1.732031	0.716075
C45	C	0.148898	-1.733879	0.656665
C46	C	-0.000067	-1.734817	0.626964
O47	O	0.275464	-1.736755	0.562672
O48	O	-0.275669	-1.736861	0.562637
C49	C	-0.000058	-1.729171	0.809021
C50	C	-0.000036	-1.731114	0.745787
H51	H	-0.270291	-1.734664	0.632493
H52	H	0.270183	-1.734571	0.632476
H53	H	-0.270270	-1.731286	0.740265
H54	H	-0.419234	-1.739809	0.466967
H55	H	0.270175	-1.731268	0.740271
H56	H	-0.270301	-1.751605	0.085883
H57	H	-0.419239	-1.743160	0.359198
H58	H	-0.270313	-1.748264	0.193674
H59	H	0.270148	-1.751557	0.085895
H60	H	0.270158	-1.748249	0.193670
H61	H	0.419102	-1.739818	0.466981
H62	H	0.419109	-1.743166	0.359207
