data_functionalizedCrystal
_audit_creation_method	'MofGen! by Chris Wilmer'
_symmetry_space_group_name_H-M	'P1'
_symmetry_Int_Tables_number	1
_symmetry_cell_setting	triclinic
loop_
_symmetry_equiv_pos_as_xyz
  x,y,z
_cell_length_a	13.033286
_cell_length_b	14.908178
_cell_length_c	13.032268
_cell_angle_alpha	93.450130
_cell_angle_beta	105.163409
_cell_angle_gamma	86.543831
loop_
_atom_site_label
_atom_site_type_symbol
_atom_site_fract_x
_atom_site_fract_y
_atom_site_fract_z
Zn1	Zn	1.513991	-0.564513	-0.360388
Zn2	Zn	2.013991	-0.064513	0.139612
Zn3	Zn	1.528608	-0.696675	-0.174946
Zn4	Zn	2.028608	-0.196675	0.325054
Zn5	Zn	1.360928	-0.531011	-0.207387
Zn6	Zn	1.860928	-0.031011	0.292613
Zn7	Zn	1.328524	-0.696640	-0.375102
Zn8	Zn	1.828524	-0.196640	0.124898
O9	O	1.433013	-0.622210	-0.279456
O10	O	1.933013	-0.122210	0.220544
O11	O	1.663723	-0.596080	-0.316055
O12	O	2.163723	-0.096080	0.183945
O13	O	1.526043	-0.660693	-0.031452
O14	O	2.026043	-0.160693	0.468548
O15	O	1.388676	-0.410829	-0.235102
O16	O	1.888676	0.089171	0.264898
O17	O	1.674462	-0.693178	-0.179811
O18	O	2.174462	-0.193178	0.320189
O19	O	1.501131	-0.435443	-0.347512
O20	O	2.001131	0.064557	0.152488
O21	O	1.402849	-0.538981	-0.055286
O22	O	1.902849	-0.038981	0.444714
O23	O	1.208836	-0.538947	-0.249369
O24	O	1.708836	-0.038947	0.250631
O25	O	1.333449	-0.693119	-0.520948
O26	O	1.833449	-0.193119	-0.020948
O27	O	1.185030	-0.660634	-0.372589
O28	O	1.685030	-0.160634	0.127411
O29	O	1.469710	-0.596046	-0.510138
O30	O	1.969710	-0.096046	-0.010138
O31	O	1.494622	-0.821296	-0.194078
O32	O	1.994622	-0.321296	0.305922
O33	O	1.347622	-0.821271	-0.341132
O34	O	1.847622	-0.321271	0.158868
C35	C	1.158612	-0.596152	-0.316096
C36	C	1.658612	-0.096152	0.183904
C37	C	1.041217	-0.585028	-0.331795
C38	C	1.541217	-0.085028	0.168205
C39	C	0.994211	-0.628018	-0.271289
C40	C	1.494211	-0.128018	0.228711
C41	C	0.872878	-0.616522	-0.287513
C42	C	1.372878	-0.116522	0.212487
C43	C	1.419217	-0.853603	-0.265700
C44	C	1.919217	-0.353603	0.234300
C45	C	1.413408	-0.952606	-0.259838
C46	C	1.913408	-0.452606	0.240162
C47	C	1.519468	-1.164128	-0.366033
C48	C	2.019468	-0.664128	0.133967
C49	C	1.514013	-1.257151	-0.360528
C50	C	2.014013	-0.757151	0.139472
C51	C	1.397036	-1.231677	-0.243330
C52	C	1.897036	-0.731677	0.256670
C53	C	1.402491	-1.138654	-0.248835
C54	C	1.902491	-0.638654	0.251165
C55	C	1.463711	-1.104883	-0.310187
C56	C	1.963711	-0.604883	0.189813
C57	C	1.469172	-1.011858	-0.315686
C58	C	1.969172	-0.511858	0.184314
C59	C	1.352189	-0.986386	-0.198494
C60	C	1.852189	-0.486386	0.301506
C61	C	1.346734	-1.079409	-0.192989
C62	C	1.846734	-0.579409	0.307011
C63	C	1.708485	-0.648370	-0.242673
C64	C	2.208485	-0.148370	0.257327
C65	C	1.825875	-0.659518	-0.226998
C66	C	2.325875	-0.159518	0.273002
C67	C	1.396334	-0.648316	-0.554937
C68	C	1.896334	-0.148316	-0.054937
C69	C	1.380704	-0.659440	-0.672330
C70	C	1.880704	-0.159440	-0.172330
C71	C	1.446887	-0.389918	-0.293284
C72	C	1.946887	0.110082	0.206716
C73	C	1.452800	-0.290930	-0.299177
C74	C	1.952800	0.209070	0.200823
C75	C	1.441156	-0.616370	-0.719319
C76	C	1.941156	-0.116370	-0.219319
C77	C	1.425003	-0.627867	-0.840651
C78	C	1.925003	-0.127867	-0.340651
C79	C	1.469613	-0.596147	-0.005042
C80	C	1.969613	-0.096147	0.494958
C81	C	1.485462	-0.584791	0.112363
C82	C	1.985462	-0.084791	0.612363
H83	H	1.043793	-0.673337	-0.207480
H84	H	1.543793	-0.173337	0.292520
F85	F	0.808078	-0.557291	-0.370932
F86	F	1.308078	-0.057291	0.129068
F87	F	1.568757	-0.525474	-0.822820
F88	F	2.068757	-0.025474	-0.322820
H89	H	1.504865	-0.570981	-0.669723
H90	H	2.004865	-0.070981	-0.169723
H91	H	1.361279	-0.673249	-0.890246
H92	H	1.861279	-0.173249	-0.390246
H93	H	1.316985	-0.704819	-0.721928
H94	H	1.816985	-0.204819	-0.221928
F95	F	1.281575	-1.115361	-0.127705
F96	F	1.781575	-0.615361	0.372295
F97	F	0.890671	-0.718760	-0.143589
F98	F	1.390671	-0.218760	0.356411
H99	H	1.569324	-1.136632	-0.415980
H100	H	2.069324	-0.636632	0.084020
H101	H	1.559410	-1.305386	-0.406009
H102	H	2.059410	-0.805386	0.093991
F103	F	0.976413	-0.525801	-0.415210
F104	F	1.476413	-0.025801	0.084790
F105	F	1.331863	-1.267635	-0.178064
F106	F	1.831863	-0.767635	0.321936
F107	F	1.534330	-0.975918	-0.380978
F108	F	2.034330	-0.475918	0.119022
H109	H	1.306791	-0.938138	-0.153017
H110	H	1.806791	-0.438138	0.346983
