data_functionalizedCrystal
_audit_creation_method	'MofGen! by Chris Wilmer'
_symmetry_space_group_name_H-M	'P1'
_symmetry_Int_Tables_number	1
_symmetry_cell_setting	triclinic
loop_
_symmetry_equiv_pos_as_xyz
  x,y,z
_cell_length_a	17.038272
_cell_length_b	17.038272
_cell_length_c	7.540329
_cell_angle_alpha	89.996089
_cell_angle_beta	90.002667
_cell_angle_gamma	91.111556
loop_
_atom_site_label
_atom_site_type_symbol
_atom_site_fract_x
_atom_site_fract_y
_atom_site_fract_z
O1	O	1.048753	0.170536	-0.147262
O2	O	1.382086	0.503869	0.186071
O3	O	1.715420	0.837202	0.519405
O4	O	0.820941	0.167828	-0.147314
O5	O	1.154275	0.501161	0.186019
O6	O	1.487608	0.834494	0.519352
O7	O	0.933493	0.055276	-0.147274
O8	O	1.266826	0.388609	0.186059
O9	O	1.600160	0.721942	0.519392
O10	O	0.936201	0.283087	-0.147302
O11	O	1.269534	0.616421	0.186031
O12	O	1.602868	0.949754	0.519365
O13	O	0.933486	0.055274	0.147691
O14	O	1.266819	0.388607	0.481024
O15	O	1.600153	0.721941	0.814357
O16	O	0.820934	0.167826	0.147651
O17	O	1.154267	0.501159	0.480984
O18	O	1.487601	0.834492	0.814317
O19	O	1.048746	0.170534	0.147703
O20	O	1.382079	0.503867	0.481036
O21	O	1.715412	0.837200	0.814370
Cu22	Cu	0.934839	0.169179	0.174610
Cu23	Cu	1.268173	0.502513	0.507943
Cu24	Cu	1.601506	0.835846	0.841276
Cu25	Cu	0.934848	0.169182	-0.174221
Cu26	Cu	1.268181	0.502515	0.159113
Cu27	Cu	1.601514	0.835848	0.492446
O28	O	0.936194	0.283085	0.147663
O29	O	1.269527	0.616419	0.480996
O30	O	1.602860	0.949752	0.814330
C31	C	0.791645	0.165364	0.000162
C32	C	1.124978	0.498697	0.333495
C33	C	1.458312	0.832030	0.666828
C34	C	0.704361	0.158016	0.000142
C35	C	1.037695	0.491349	0.333475
C36	C	1.371028	0.824682	0.666809
C37	C	0.931027	0.025982	0.000207
C38	C	1.264360	0.359315	0.333541
C39	C	1.597693	0.692649	0.666874
C40	C	0.923679	-0.061301	0.000205
C41	C	1.257012	0.272032	0.333538
C42	C	1.590345	0.605365	0.666872
C43	C	0.658752	0.225479	0.000135
C44	C	0.992086	0.558813	0.333469
C45	C	1.325419	0.892146	0.666802
C46	C	0.576740	0.218570	0.000161
C47	C	0.910074	0.551904	0.333494
C48	C	1.243407	0.885237	0.666827
C49	C	0.540339	0.144197	0.000180
C50	C	0.873672	0.477530	0.333513
C51	C	1.207006	0.810864	0.666847
C52	C	0.585954	0.076728	0.000192
C53	C	0.919288	0.410062	0.333525
C54	C	1.252621	0.743395	0.666859
C55	C	0.667965	0.083638	0.000180
C56	C	1.001298	0.416971	0.333513
C57	C	1.334631	0.750305	0.666846
C58	C	0.292951	0.119787	0.000230
C59	C	0.626285	0.453120	0.333564
C60	C	0.959618	0.786453	0.666897
C61	C	0.210935	0.112882	0.000238
C62	C	0.544268	0.446215	0.333571
C63	C	0.877601	0.779549	0.666904
C64	C	0.201726	0.254725	0.000210
C65	C	0.535060	0.588058	0.333543
C66	C	0.868393	0.921391	0.666876
C67	C	0.283739	0.261628	0.000186
C68	C	0.617072	0.594961	0.333520
C69	C	0.950405	0.928294	0.666853
C70	C	0.329347	0.194159	0.000208
C71	C	0.662680	0.527492	0.333541
C72	C	0.996013	0.860826	0.666874
C73	C	0.456510	0.137133	0.000200
C74	C	0.789843	0.470467	0.333534
C75	C	1.123177	0.803800	0.666867
C76	C	0.413174	0.201224	0.000200
C77	C	0.746508	0.534557	0.333533
C78	C	1.079841	0.867890	0.666867
C79	C	0.991142	-0.106911	0.000222
C80	C	1.324476	0.226423	0.333556
C81	C	1.657809	0.559756	0.666889
C82	C	0.984233	-0.188923	0.000204
C83	C	1.317567	0.144411	0.333537
C84	C	1.650900	0.477744	0.666871
C85	C	0.909860	-0.225324	0.000181
C86	C	1.243193	0.108010	0.333514
C87	C	1.576527	0.441343	0.666848
C88	C	0.842391	-0.179708	0.000158
C89	C	1.175725	0.153625	0.333492
C90	C	1.509058	0.486958	0.666825
C91	C	0.849301	-0.097698	0.000164
C92	C	1.182634	0.235635	0.333497
C93	C	1.515968	0.568969	0.666831
C94	C	0.885449	-0.472712	0.000151
C95	C	1.218783	-0.139378	0.333484
C96	C	1.552116	0.193955	0.666818
C97	C	0.878545	-0.554728	0.000151
C98	C	1.211878	-0.221395	0.333484
C99	C	1.545211	0.111939	0.666817
C100	C	1.020387	-0.563937	0.000193
C101	C	1.353721	-0.230603	0.333526
C102	C	1.687054	0.102730	0.666860
C103	C	1.027291	-0.481924	0.000209
C104	C	1.360624	-0.148591	0.333543
C105	C	1.693957	0.184742	0.666876
C106	C	0.959822	-0.436316	0.000177
C107	C	1.293155	-0.102983	0.333511
C108	C	1.626489	0.230351	0.666844
C109	C	0.902796	-0.309153	0.000168
C110	C	1.236130	0.024180	0.333501
C111	C	1.569463	0.357514	0.666834
C112	C	0.966886	-0.352488	0.000178
C113	C	1.300220	-0.019155	0.333511
C114	C	1.633553	0.314178	0.666845
C115	C	1.078042	0.172997	0.000223
C116	C	1.411375	0.506331	0.333556
C117	C	1.744709	0.839664	0.666890
C118	C	1.165326	0.180346	0.000231
C119	C	1.498659	0.513679	0.333564
C120	C	1.831992	0.847012	0.666898
C121	C	0.938660	0.312379	0.000177
C122	C	1.271994	0.645712	0.333511
C123	C	1.605327	0.979046	0.666844
C124	C	0.946008	0.399663	0.000168
C125	C	1.279342	0.732996	0.333501
C126	C	1.612675	1.066329	0.666835
N127	N	0.934839	0.169178	0.419958
N128	N	1.268172	0.502511	0.753291
N129	N	1.601505	0.835844	1.086625
N130	N	0.934854	0.169178	-0.419569
N131	N	1.268187	0.502511	-0.086236
N132	N	1.601521	0.835844	0.247097
H133	H	0.688384	0.286042	0.000118
H134	H	1.021717	0.619375	0.333452
H135	H	1.355050	0.952709	0.666785
Br136	Br	0.462577	0.302156	0.000185
Br137	Br	0.795910	0.635489	0.333519
Br138	Br	1.129244	0.968822	0.666852
H139	H	0.794365	-0.060564	0.000150
H140	H	1.127698	0.272770	0.333483
H141	H	1.461031	0.606103	0.666816
Br142	Br	1.092082	-0.057517	0.000279
Br143	Br	1.425416	0.275816	0.333613
Br144	Br	1.758749	0.609149	0.666946
Br145	Br	0.729865	-0.007923	0.000204
Br146	Br	1.063198	0.325410	0.333538
Br147	Br	1.396531	0.658743	0.666871
Br148	Br	0.333134	0.362567	0.000140
Br149	Br	0.666468	0.695900	0.333473
Br150	Br	0.999801	1.029233	0.666807
H151	H	1.039170	-0.226054	0.000222
H152	H	1.372503	0.107279	0.333555
H153	H	1.705836	0.440612	0.666889
H154	H	0.330076	0.064848	0.000249
H155	H	0.663409	0.398182	0.333583
H156	H	0.996742	0.731515	0.666916
H157	H	1.087853	-0.452293	0.000228
H158	H	1.421186	-0.118959	0.333562
H159	H	1.754520	0.214374	0.666895
H160	H	0.164583	0.309653	0.000196
H161	H	0.497917	0.642987	0.333529
H162	H	0.831250	0.976320	0.666862
H163	H	0.817978	-0.584363	0.000161
H164	H	1.151311	-0.251030	0.333494
H165	H	1.484645	0.082304	0.666827
H166	H	0.539608	0.273507	0.000153
H167	H	0.872942	0.606840	0.333487
H168	H	1.206275	0.940173	0.666820
H169	H	0.842241	-0.338800	0.000153
H170	H	1.175574	-0.005467	0.333486
H171	H	1.508908	0.327867	0.666820
Br172	Br	0.161534	0.011940	0.000302
Br173	Br	0.494867	0.345273	0.333635
Br174	Br	0.828200	0.678607	0.666969
H175	H	0.830511	-0.435587	0.000126
H176	H	1.163844	-0.102254	0.333459
H177	H	1.497178	0.231080	0.666792
Br178	Br	0.536554	-0.024208	0.000236
Br179	Br	0.869887	0.309125	0.333569
Br180	Br	1.203221	0.642458	0.666903
H181	H	1.075316	-0.601079	0.000216
H182	H	1.408650	-0.267746	0.333549
H183	H	1.741983	0.065587	0.666882
Br184	Br	0.407102	0.036200	0.000224
Br185	Br	0.740435	0.369534	0.333558
Br186	Br	1.073768	0.702867	0.666891
H187	H	0.781835	-0.209353	0.000129
H188	H	1.115168	0.123981	0.333462
H189	H	1.448501	0.457314	0.666795
Br190	Br	1.067819	-0.303086	0.000194
Br191	Br	1.401152	0.030247	0.333527
Br192	Br	1.734485	0.363581	0.666860
