data_functionalizedCrystal
_audit_creation_method	'MofGen! by Chris Wilmer'
_symmetry_space_group_name_H-M	'P1'
_symmetry_Int_Tables_number	1
_symmetry_cell_setting	triclinic
loop_
_symmetry_equiv_pos_as_xyz
  x,y,z
_cell_length_a	16.992694
_cell_length_b	9.565339
_cell_length_c	16.974813
_cell_angle_alpha	93.654329
_cell_angle_beta	87.024634
_cell_angle_gamma	89.998174
loop_
_atom_site_label
_atom_site_type_symbol
_atom_site_fract_x
_atom_site_fract_y
_atom_site_fract_z
O1	O	1.040210	0.135048	0.167643
O2	O	0.811927	0.134881	0.165803
O3	O	0.932433	0.121980	0.052022
O4	O	0.919705	0.147950	0.281424
O5	O	0.932423	-0.110539	0.052029
O6	O	0.811917	-0.097638	0.165810
O7	O	1.040201	-0.097471	0.167650
Zn8	Zn	0.926058	-0.134472	0.166731
Zn9	Zn	0.926070	0.171882	0.166722
O10	O	0.919695	-0.084570	0.281431
C11	C	0.782712	0.018359	0.163441
C12	C	0.695676	0.017576	0.156381
N13	N	0.926055	-0.343551	0.166737
C14	C	0.645362	0.025286	0.224497
C15	C	0.563582	0.024515	0.217859
C16	C	0.532118	0.016045	0.143105
C17	C	0.582439	0.008330	0.074984
C18	C	0.664216	0.009091	0.081623
C19	C	0.288550	0.012892	0.115590
C20	C	0.206766	0.012136	0.108957
C21	C	0.187915	0.028319	0.251832
C22	C	0.269696	0.029088	0.258464
C23	C	0.320009	0.021366	0.190343
N24	N	0.448527	0.015261	0.136318
N25	N	0.403599	0.022139	0.197131
C26	C	0.870308	-0.428790	0.219338
C27	C	0.941142	-0.519738	0.239156
C28	C	0.855252	-0.530157	0.146927
C29	C	0.996924	-0.432443	0.186594
C30	C	0.910987	-0.442857	0.094330
C31	C	0.981872	-0.533767	0.114122
C32	C	1.069416	0.019054	0.170012
C33	C	1.156452	0.019846	0.177072
C34	C	0.931944	0.002385	0.022537
C35	C	0.930491	-0.007552	-0.065331
N36	N	0.926079	0.380960	0.166710
C37	C	0.929816	0.114525	-0.106611
C38	C	0.928447	0.105184	-0.189172
C39	C	0.927758	-0.026236	-0.230452
C40	C	0.928431	-0.148322	-0.189167
C41	C	0.929795	-0.138979	-0.106607
C42	C	0.923673	-0.067769	-0.477370
C43	C	0.922312	-0.077103	-0.559936
C44	C	0.922326	0.176404	-0.559936
C45	C	0.923694	0.185735	-0.477374
C46	C	0.924363	0.063649	-0.436096
N47	N	0.926361	-0.035787	-0.314843
N48	N	0.925755	0.073202	-0.351706
C49	C	0.920184	0.035028	0.310916
C50	C	0.921636	0.044974	0.398784
H51	H	0.522619	0.030795	0.273326
C52	C	0.679965	0.034605	0.306727
H53	H	0.638284	0.039073	0.346342
H54	H	0.711471	0.116322	0.312285
H55	H	0.711477	-0.045858	0.312288
C56	C	0.547830	-0.000985	-0.007243
H57	H	0.491920	-0.000319	-0.001443
H58	H	0.565108	-0.085267	-0.035506
H59	H	0.565104	0.076912	-0.035507
C60	C	0.927707	0.239464	-0.234581
H61	H	0.926787	0.215083	-0.289662
H62	H	0.973634	0.292707	-0.224194
H63	H	0.882230	0.293441	-0.217907
H64	H	0.146942	0.034603	0.307291
H65	H	0.295307	0.036002	0.319336
C66	C	0.719562	0.000624	0.006696
H67	H	0.689112	-0.004515	-0.038776
H68	H	0.751862	-0.080498	0.006317
H69	H	0.751848	0.081682	0.006316
H70	H	0.329506	0.006603	0.060121
C71	C	0.924442	0.330297	-0.431971
H72	H	0.923836	0.401666	-0.468381
H73	H	0.970671	0.338853	-0.402903
H74	H	0.879267	0.339565	-0.396626
C75	C	0.172157	0.002815	0.026724
H76	H	0.213834	-0.001686	-0.012896
H77	H	0.140646	0.083270	0.021161
H78	H	0.140649	-0.078909	0.021173
C79	C	0.924422	-0.202058	-0.431974
H80	H	0.923828	-0.281661	-0.468387
H81	H	0.879257	-0.203334	-0.396625
H82	H	0.970661	-0.204042	-0.402912
C83	C	0.806685	-0.366757	0.279487
H84	H	0.817533	-0.392876	0.330901
H85	H	0.756479	-0.401577	0.265931
H86	H	0.806807	-0.267532	0.278748
C87	C	0.930537	-0.273259	-0.061195
H88	H	0.931440	-0.248874	-0.006113
H89	H	0.976009	-0.327241	-0.077863
H90	H	0.884605	-0.326497	-0.071585
C91	C	0.958377	-0.565745	0.321855
H92	H	0.918712	-0.529668	0.359179
H93	H	1.008300	-0.530828	0.336286
H94	H	0.958732	-0.665135	0.321124
H95	H	0.930381	0.221541	-0.073007
C96	C	1.077842	-0.374796	0.209320
H97	H	1.077330	-0.275491	0.209220
H98	H	1.117468	-0.411606	0.172185
H99	H	1.088638	-0.401706	0.260591
C100	C	0.774354	-0.588039	0.124299
H101	H	0.780638	-0.647959	0.077561
H102	H	0.740344	-0.512509	0.115315
H103	H	0.752177	-0.639382	0.166065
H104	H	1.029077	-0.579410	0.069628
H105	H	0.898204	-0.408783	0.033127
H106	H	0.921780	0.275799	-0.593554
C107	C	0.921545	-0.221670	-0.605342
H108	H	0.922130	-0.293043	-0.568934
H109	H	0.966711	-0.230956	-0.640690
H110	H	0.875308	-0.230202	-0.634407
C111	C	0.927676	-0.292880	-0.234573
H112	H	0.926776	-0.280963	-0.289655
H113	H	0.882200	-0.343070	-0.217903
H114	H	0.973603	-0.343786	-0.224180
