data_functionalizedCrystal
_audit_creation_method	'MofGen! by Chris Wilmer'
_symmetry_space_group_name_H-M	'P1'
_symmetry_Int_Tables_number	1
_symmetry_cell_setting	triclinic
loop_
_symmetry_equiv_pos_as_xyz
  x,y,z
_cell_length_a	14.446369
_cell_length_b	19.902436
_cell_length_c	19.902436
_cell_angle_alpha	90.004623
_cell_angle_beta	60.007122
_cell_angle_gamma	59.994502
loop_
_atom_site_label
_atom_site_type_symbol
_atom_site_fract_x
_atom_site_fract_y
_atom_site_fract_z
Zr1	Zr	1.013120	0.647289	-0.088109
O2	O	1.206238	0.539991	-0.195395
O3	O	0.820001	0.680186	-0.055221
O4	O	1.013097	0.680180	-0.195386
O5	O	1.013160	0.539996	0.055335
O6	O	1.013079	0.790758	-0.195377
O7	O	1.013142	0.539997	-0.055230
O8	O	0.667666	0.790769	0.055353
O9	O	1.358574	0.539986	-0.195394
O10	O	0.899420	0.776734	-0.041186
O11	O	0.899447	0.694211	0.041321
O12	O	1.126792	0.694204	-0.123705
O13	O	1.126819	0.611680	-0.041198
Zr14	Zr	1.013120	0.823649	0.088245
Zr15	Zr	1.013091	0.823649	-0.088094
Zr16	Zr	1.013148	0.647289	0.088231
Zr17	Zr	1.256077	0.647281	-0.088107
Zr18	Zr	0.770162	0.823657	0.088243
O19	O	1.206238	0.790752	0.055357
O20	O	1.206198	0.790752	-0.195375
O21	O	1.206279	0.539990	0.055337
O22	O	0.820001	0.930947	0.195532
O23	O	0.819960	0.930947	-0.055200
O24	O	0.820042	0.680185	0.195512
O25	O	1.013079	0.930941	-0.055199
O26	O	1.013142	0.790758	0.195522
O27	O	1.013160	0.680179	0.195513
O28	O	1.013097	0.930941	0.055367
O29	O	1.358551	0.680169	-0.195383
O30	O	0.667688	0.790769	0.195519
O31	O	0.667666	0.930952	0.195531
O32	O	0.667643	0.930952	0.055364
O33	O	1.358596	0.539986	-0.055228
O34	O	1.358574	0.680169	-0.055216
O35	O	0.899447	0.776734	0.123842
O36	O	0.899420	0.859258	0.041334
O37	O	1.126792	0.776727	-0.041184
O38	O	1.126819	0.694203	0.041323
C39	C	0.709217	0.735478	0.000066
C40	C	0.606075	0.735482	0.000065
C41	C	0.459743	0.787264	-0.052227
C42	C	0.566667	0.787557	-0.052004
C43	C	0.479226	0.773449	0.089726
C44	C	0.371847	0.773827	0.089443
C45	C	0.546823	0.645659	-0.036569
C46	C	0.655296	0.645803	-0.038387
C47	C	1.013155	0.514869	0.000050
C48	C	1.013168	0.439999	0.000044
C49	C	1.013103	0.167997	0.000076
C50	C	1.156534	0.144426	-0.051729
C51	C	1.156624	0.222264	-0.052016
C52	C	1.013136	0.302940	0.000060
C53	C	0.941895	0.300531	-0.037898
C54	C	0.942812	0.222304	-0.038281
C55	C	0.939887	0.223291	0.089863
C56	C	0.942583	0.300212	0.089725
C57	C	1.013147	0.379207	0.000052
C58	C	1.013088	0.091732	0.000082
C59	C	1.317022	0.735459	0.000071
C60	C	1.420164	0.735456	0.000072
C61	C	1.013084	0.735469	-0.220506
C62	C	1.013072	0.735469	-0.295367
C63	C	1.013084	0.956069	0.000086
C64	C	1.013072	1.030939	0.000092
C65	C	1.013136	0.735468	-0.567415
C66	C	0.869705	0.787778	-0.486870
C67	C	0.869615	0.787552	-0.408967
C68	C	1.013103	0.735469	-0.432448
C69	C	1.084344	0.645799	-0.486575
C70	C	1.083427	0.646085	-0.564136
C71	C	1.086352	0.772106	-0.565266
C72	C	1.083657	0.773921	-0.486388
C73	C	1.013092	0.735465	-0.356174
C74	C	1.013151	0.735467	-0.643691
C75	C	1.013155	0.735469	0.220642
C76	C	1.013168	0.735469	0.295503
C77	C	0.709181	0.956078	0.000084
C78	C	0.606027	1.030951	0.000089
C79	C	0.709253	0.735478	0.220640
C80	C	0.606123	0.735482	0.295500
C81	C	0.709217	0.956078	0.220658
C82	C	0.606075	1.030951	0.295524
C83	C	1.317022	0.514860	-0.220521
C84	C	1.420164	0.439987	-0.295387
C85	C	1.317058	0.514859	0.000053
C86	C	1.420212	0.439987	0.000048
C87	C	1.316986	0.735460	-0.220503
C88	C	1.420116	0.735456	-0.295363
C89	C	0.557585	1.023036	-0.042991
C90	C	0.460675	1.093380	-0.043003
C91	C	0.412201	1.171639	0.000071
C92	C	0.460653	1.179553	0.043152
C93	C	0.557569	1.109209	0.043158
C94	C	0.557693	0.778560	0.373737
C95	C	0.460805	0.778559	0.444083
C96	C	0.412343	0.735486	0.436189
C97	C	0.460783	0.692402	0.357943
C98	C	0.557676	0.692398	0.287600
C99	C	0.557625	1.109196	0.287614
C100	C	0.460726	1.179554	0.357951
C101	C	0.412272	1.171665	0.436199
C102	C	0.460732	1.093412	0.444107
C103	C	0.557636	1.023056	0.373770
C104	C	1.468626	0.361742	-0.287477
C105	C	1.565555	0.291384	-0.357815
C106	C	1.614014	0.299273	-0.436062
C107	C	1.565548	0.377526	-0.443970
C108	C	1.468627	0.447882	-0.373633
C109	C	1.468664	0.447902	0.043120
C110	C	1.565602	0.377558	0.043112
C111	C	1.614078	0.299299	0.000036
C112	C	1.565622	0.291385	-0.043042
C113	C	1.468693	0.361728	-0.043038
C114	C	1.468547	0.778539	-0.287443
C115	C	1.565435	0.778552	-0.357775
C116	C	1.613897	0.735477	-0.436027
C117	C	1.565457	0.692394	-0.443945
C118	C	1.468564	0.692386	-0.373614
H119	H	0.656007	0.762098	-0.118028
H120	H	1.692795	0.735490	-0.493288
O121	O	1.416438	0.353179	-0.089495
H122	H	1.340897	0.415235	-0.082267
H123	H	1.429176	0.355302	-0.223771
O124	O	0.517034	0.875302	-0.018335
H125	H	0.593323	0.875819	-0.018066
O126	O	0.697863	0.590368	0.006826
H127	H	0.732003	0.527605	-0.021877
O128	O	0.408508	0.645950	0.349427
H129	H	0.364347	0.670851	0.315276
O130	O	1.416272	0.825011	-0.203048
H131	H	1.466225	0.854977	-0.209370
O132	O	0.609790	1.117759	0.089640
H133	H	0.685328	1.055702	0.082414
O134	O	0.795527	0.875019	-0.356757
H135	H	0.795374	0.874946	-0.300932
H136	H	1.604865	0.813634	-0.351312
O137	O	0.408442	1.084913	0.528507
H138	H	0.427023	1.114912	0.562622
O139	O	0.307665	1.247502	0.000059
H140	H	0.344848	1.284646	-0.026899
O141	O	0.408453	1.263950	0.349413
H142	H	0.458412	1.257608	0.283185
H143	H	0.813377	0.762142	-0.369931
O144	O	1.230747	0.091565	-0.138940
H145	H	1.263378	0.122758	-0.182041
H146	H	1.604930	0.657324	-0.507666
O147	O	1.231108	0.219912	-0.139746
H148	H	1.183176	0.218428	-0.168705
O149	O	1.226308	0.721881	-0.640473
H150	H	1.293515	0.695840	-0.621070
H151	H	0.421237	1.086921	-0.078084
O152	O	1.617819	0.386023	-0.528371
H153	H	1.661979	0.420172	-0.535539
O154	O	1.416411	0.532301	0.089579
H155	H	1.309513	0.566420	0.137201
H156	H	0.281087	0.839905	0.118776
O157	O	1.222810	0.591651	-0.639700
H158	H	1.268997	0.528021	-0.637701
O159	O	0.514004	0.594283	0.013638
H160	H	0.572080	0.571537	0.039669
O161	O	1.617839	0.386102	0.089588
H162	H	1.567819	0.452339	0.119554
H163	H	0.597139	0.813636	0.380180
O164	O	1.617812	0.206988	-0.349277
H165	H	1.599234	0.172872	-0.379277
H166	H	1.693004	0.242027	0.000040
O167	O	0.509089	0.753700	-0.139915
H168	H	0.505922	0.699739	-0.147161
O169	O	0.340969	0.874479	-0.018889
H170	H	0.253871	0.881090	0.034771
O171	O	1.416333	0.645912	-0.382155
H172	H	1.497705	0.579704	-0.416314
O173	O	0.332135	0.727102	0.143886
H174	H	0.389635	0.704340	0.170303
H175	H	0.440663	0.838901	0.119265
O176	O	0.508691	0.725881	0.143591
H177	H	0.614314	0.674555	0.106941
O178	O	0.408547	0.825045	0.528470
H179	H	0.458507	0.855009	0.522134
O180	O	1.617912	0.206975	-0.089501
H181	H	1.693442	0.159398	-0.082255
O182	O	1.416342	0.532276	-0.382169
H183	H	1.466316	0.525933	-0.448397
H184	H	0.421172	1.243281	0.078221
H185	H	1.692933	0.241978	-0.493328
H186	H	0.597072	0.959348	0.380222
H187	H	0.745781	0.617439	-0.104443
O188	O	0.599250	0.603648	-0.122709
H189	H	0.523826	0.600458	-0.121362
H190	H	1.212803	0.220984	-0.026753
H191	H	0.597051	0.959320	-0.078077
H192	H	0.597096	0.657322	0.223898
O193	O	1.231128	0.092528	-0.018187
H194	H	1.180593	0.127607	0.046601
O195	O	1.009873	0.173881	-0.125798
H196	H	0.955807	0.212331	-0.150741
O197	O	0.803427	0.247924	0.008457
H198	H	0.735665	0.316081	0.031227
H199	H	0.597062	1.115635	0.223907
O200	O	0.802152	0.375797	0.009658
H201	H	0.781947	0.415817	0.060975
H202	H	0.813698	0.762599	-0.486123
O203	O	1.007412	0.302572	-0.124588
H204	H	1.090700	0.305298	-0.140795
H205	H	0.333447	0.735496	0.493474
H206	H	0.333367	1.228960	0.493465
H207	H	0.985792	0.186977	0.121571
H208	H	0.837900	0.357675	0.131573
O209	O	1.011351	0.299737	0.127307
H210	H	1.095429	0.301440	0.082321
H211	H	0.813399	0.853980	-0.485167
H212	H	1.032816	0.616754	-0.563945
O213	O	0.799928	0.249686	0.141241
H214	H	0.782533	0.223572	0.103065
H215	H	1.034883	0.616260	-0.449123
O216	O	1.224064	0.591902	-0.512707
H217	H	1.244260	0.628545	-0.487338
H218	H	1.040440	0.837141	-0.568248
H219	H	1.188337	0.739782	-0.504910
O220	O	1.014856	0.861432	-0.436951
H221	H	0.930766	0.877480	-0.374222
