data_functionalizedCrystal
_audit_creation_method	'MofGen! by Chris Wilmer'
_symmetry_space_group_name_H-M	'P1'
_symmetry_Int_Tables_number	1
_symmetry_cell_setting	triclinic
loop_
_symmetry_equiv_pos_as_xyz
  x,y,z
_cell_length_a	10.540539
_cell_length_b	14.519709
_cell_length_c	13.596369
_cell_angle_alpha	89.999709
_cell_angle_beta	89.996161
_cell_angle_gamma	95.897182
loop_
_atom_site_label
_atom_site_type_symbol
_atom_site_fract_x
_atom_site_fract_y
_atom_site_fract_z
O1	O	0.166400	-1.224765	-0.081658
O2	O	0.185995	-0.956394	-0.081688
O3	O	-0.008572	-1.096702	-0.081671
O4	O	0.360966	-1.084457	-0.081675
O5	O	-0.008582	-1.096688	0.081912
O6	O	0.185985	-0.956380	0.081895
O7	O	0.166389	-1.224751	0.081924
Zn8	Zn	0.176185	-1.090563	0.107882
Zn9	Zn	0.176199	-1.090582	-0.107646
O10	O	0.360956	-1.084442	0.081908
C11	C	0.185077	-0.922022	0.000100
C12	C	0.182340	-0.819626	0.000088
C13	C	-0.055870	-1.095777	0.000118
C14	C	-0.196790	-1.093029	0.000113
C15	C	0.167308	-1.259123	0.000135
C16	C	0.170044	-1.361519	0.000140
C17	C	-0.379142	-0.987750	-0.000266
C18	C	-0.232553	-0.990535	0.000102
C19	C	-0.258957	-1.142346	0.093532
C20	C	-0.405466	-1.138848	0.093610
C21	C	-0.405994	-1.140949	-0.092414
C22	C	-0.259022	-1.141893	-0.093649
C23	C	0.408255	-1.085368	0.000116
C24	C	0.549175	-1.088115	0.000115
N25	N	0.176175	-1.090557	0.254974
C26	C	0.172265	-0.444676	0.000133
C27	C	0.175063	-0.548999	0.000120
C28	C	0.177303	-0.632148	0.000110
C29	C	0.180101	-0.736477	0.000099
N30	N	0.176199	-1.090595	-0.254737
C31	C	0.176200	-1.090580	0.656265
C32	C	0.176198	-1.090571	0.544613
C33	C	0.176189	-1.090569	0.455623
C34	C	0.176184	-1.090559	0.343964
H35	H	-0.189549	-0.951729	-0.066865
O36	O	-0.442348	-1.090545	0.186091
H37	H	-0.355579	-1.069896	0.230335
O38	O	-0.227955	-1.240879	-0.101115
H39	H	-0.317726	-1.288082	-0.100193
O40	O	-0.418608	-0.934327	0.087966
H41	H	-0.367464	-0.863588	0.086982
H42	H	-0.216013	-1.108076	0.163044
O43	O	-0.230353	-1.242045	0.098160
H44	H	-0.269165	-1.279239	0.031628
H45	H	-0.437204	-1.107782	-0.163219
O46	O	-0.416497	-0.934117	-0.088994
H47	H	-0.391370	-0.970466	-0.156985
O48	O	-0.470019	-1.236481	0.099259
H49	H	-0.396551	-1.285982	0.101930
O50	O	-0.204307	-1.094171	-0.185202
H51	H	-0.133080	-1.035896	-0.164028
O52	O	-0.469554	-1.239009	-0.093252
H53	H	-0.532775	-1.250109	-0.028125
H54	H	-0.190402	-0.951446	0.067172
