data_functionalizedCrystal
_audit_creation_method	'MofGen! by Chris Wilmer'
_symmetry_space_group_name_H-M	'P1'
_symmetry_Int_Tables_number	1
_symmetry_cell_setting	triclinic
loop_
_symmetry_equiv_pos_as_xyz
  x,y,z
_cell_length_a	27.732064
_cell_length_b	27.732048
_cell_length_c	10.268362
_cell_angle_alpha	89.989776
_cell_angle_beta	90.003047
_cell_angle_gamma	82.646040
loop_
_atom_site_label
_atom_site_type_symbol
_atom_site_fract_x
_atom_site_fract_y
_atom_site_fract_z
O1	O	0.640922	0.057556	-0.108082
O2	O	0.500130	0.066293	-0.108137
O3	O	0.574898	-0.008472	-0.108083
O4	O	0.566153	0.132321	-0.108136
O5	O	0.574892	-0.008475	0.108518
O6	O	0.500123	0.066290	0.108463
O7	O	0.640915	0.057553	0.108519
Cu8	Cu	0.570519	0.061921	0.128268
Cu9	Cu	0.570526	0.061924	-0.127887
O10	O	0.566147	0.132318	0.108465
C11	C	0.482120	0.066106	0.000156
C12	C	0.428465	0.065551	0.000136
C13	C	0.051392	0.017583	0.000228
C14	C	0.253053	0.019630	0.000194
O15	O	0.284305	-0.017591	0.000256
N16	N	0.272180	0.063964	0.000171
C17	C	0.240889	0.107790	0.000166
O18	O	0.261785	0.145546	0.000159
C19	C	0.039230	0.105743	0.000210
C20	C	0.020105	0.061406	0.000219
C21	C	0.032267	-0.026750	0.000239
C22	C	-0.018145	-0.027261	0.000241
C23	C	-0.049432	0.016561	0.000232
C24	C	-0.030307	0.060895	0.000221
C25	C	0.007940	0.149568	0.000214
C26	C	-0.042478	0.149053	0.000228
C27	C	-0.061602	0.104716	0.000238
C28	C	-0.112006	0.104206	0.000213
N29	N	-0.131134	0.059872	0.000236
C30	C	-0.099846	0.016049	0.000245
C31	C	0.346763	0.108861	0.000140
C32	C	0.397178	0.109373	0.000127
C33	C	0.409338	0.021213	0.000157
C34	C	0.358923	0.020701	0.000161
C35	C	0.327636	0.064527	0.000163
C36	C	-0.205716	0.014979	0.000247
C37	C	-0.256133	0.014472	0.000243
C38	C	-0.268289	0.102632	0.000220
C39	C	-0.217876	0.103140	0.000217
C40	C	-0.186590	0.059309	0.000235
O41	O	-0.143287	0.141407	0.000165
O42	O	-0.120752	-0.021701	0.000280
C43	C	0.101805	0.018094	0.000227
C44	C	0.120930	0.062428	0.000216
C45	C	0.089642	0.106250	0.000207
C46	C	0.171344	0.062940	0.000203
C47	C	0.202631	0.019117	0.000212
C48	C	0.183504	-0.025217	0.000234
C49	C	0.133092	-0.025728	0.000236
C50	C	0.108770	0.150585	0.000184
C51	C	0.159183	0.151092	0.000181
C52	C	0.190470	0.107270	0.000191
C53	C	0.574712	-0.026481	0.000221
C54	C	0.574159	-0.080136	0.000231
C55	C	0.614862	-0.418948	0.000181
C56	C	0.612811	-0.620608	0.000162
O57	O	0.650032	-0.651862	0.000119
N58	N	0.568476	-0.639735	0.000145
C59	C	0.524651	-0.608442	0.000125
O60	O	0.486895	-0.629338	0.000098
C61	C	0.526703	-0.406784	0.000135
C62	C	0.571040	-0.387660	0.000164
C63	C	0.659196	-0.399824	0.000209
C64	C	0.659709	-0.349412	0.000220
C65	C	0.615887	-0.318124	0.000204
C66	C	0.571553	-0.337248	0.000176
C67	C	0.482878	-0.375493	0.000105
C68	C	0.483395	-0.325075	0.000105
C69	C	0.527733	-0.305952	0.000134
C70	C	0.528243	-0.255548	0.000172
N71	N	0.572578	-0.236422	0.000188
C72	C	0.616400	-0.267710	0.000204
C73	C	0.523577	-0.714317	0.000123
C74	C	0.523064	-0.764731	0.000123
C75	C	0.611225	-0.776893	0.000157
C76	C	0.611737	-0.726478	0.000166
C77	C	0.567912	-0.695190	0.000139
C78	C	0.617472	-0.161841	0.000230
C79	C	0.617981	-0.111424	0.000247
C80	C	0.529821	-0.099266	0.000207
C81	C	0.529312	-0.149679	0.000196
C82	C	0.573142	-0.180965	0.000204
O83	O	0.491043	-0.224267	0.000199
O84	O	0.654151	-0.246805	0.000203
C85	C	0.614350	-0.469360	0.000169
C86	C	0.570016	-0.488484	0.000141
C87	C	0.526194	-0.457196	0.000124
C88	C	0.569503	-0.538899	0.000141
C89	C	0.613325	-0.570187	0.000157
C90	C	0.657660	-0.551060	0.000173
C91	C	0.658172	-0.500648	0.000185
C92	C	0.481859	-0.476323	0.000108
C93	C	0.481351	-0.526735	0.000098
C94	C	0.525172	-0.558023	0.000114
C95	C	0.658925	0.057739	0.000222
C96	C	0.712580	0.058295	0.000234
C97	C	0.566333	0.150326	0.000158
C98	C	0.566886	0.203981	0.000139
N99	N	0.570517	0.061918	0.308434
N100	N	0.570532	0.061923	-0.308053
C101	C	0.570524	0.061923	0.574105
C102	C	0.570518	0.061922	0.426267
H103	H	0.117526	-0.061832	0.000244
H104	H	0.646906	-0.802377	0.000170
H105	H	-0.202304	0.139243	0.000208
Cl106	Cl	0.421214	0.165113	0.000088
Cl107	Cl	0.467323	-0.788765	0.000111
Cl108	Cl	0.468477	-0.674990	0.000090
Cl109	Cl	0.427136	-0.399521	0.000060
Cl110	Cl	0.222846	-0.080307	0.000242
H111	H	0.447706	-0.299603	0.000081
Cl112	Cl	0.307438	0.163962	0.000131
H113	H	0.023502	0.185672	0.000200
H114	H	0.434821	-0.014469	0.000160
H115	H	-0.271701	-0.021634	0.000247
Cl116	Cl	0.071592	-0.081849	0.000252
Cl117	Cl	0.473573	-0.173720	0.000184
H118	H	0.694276	-0.485083	0.000208
H119	H	-0.293772	0.138311	0.000206
Cl120	Cl	0.069444	0.205682	0.000166
Cl121	Cl	0.474733	-0.059923	0.000184
Cl122	Cl	0.712749	-0.590404	0.000199
Cl123	Cl	0.183218	0.206836	0.000161
Cl124	Cl	0.425606	-0.550769	0.000067
Cl125	Cl	0.673724	-0.087387	0.000282
H126	H	-0.180248	-0.020712	0.000261
Cl127	Cl	0.334886	-0.035039	0.000180
H128	H	-0.067950	0.184742	0.000236
H129	H	0.446173	-0.450852	0.000092
H130	H	-0.033711	-0.063365	0.000254
Cl131	Cl	0.672573	-0.201165	0.000242
H132	H	0.694884	-0.425295	0.000217
Cl133	Cl	0.667478	-0.702443	0.000201
Cl134	Cl	0.715451	-0.325380	0.000220
