data_functionalizedCrystal
_audit_creation_method	'MofGen! by Chris Wilmer'
_symmetry_space_group_name_H-M	'P1'
_symmetry_Int_Tables_number	1
_symmetry_cell_setting	triclinic
loop_
_symmetry_equiv_pos_as_xyz
  x,y,z
_cell_length_a	13.032831
_cell_length_b	16.625546
_cell_length_c	13.032268
_cell_angle_alpha	82.855386
_cell_angle_beta	89.113023
_cell_angle_gamma	82.826778
loop_
_atom_site_label
_atom_site_type_symbol
_atom_site_fract_x
_atom_site_fract_y
_atom_site_fract_z
Zn1	Zn	1.498429	-0.544521	0.780776
Zn2	Zn	1.520160	-0.664651	0.608784
Zn3	Zn	1.348291	-0.510838	0.587021
Zn4	Zn	1.326409	-0.660292	0.758909
O5	O	1.423322	-0.595075	0.683873
O6	O	1.645231	-0.576377	0.776220
O7	O	1.515614	-0.631976	0.461981
O8	O	1.368270	-0.402484	0.612767
O9	O	1.661197	-0.664636	0.649858
O10	O	1.478576	-0.427231	0.755118
O11	O	1.389342	-0.518970	0.445992
O12	O	1.201469	-0.514743	0.591563
O13	O	1.330976	-0.657206	0.905725
O14	O	1.185392	-0.624546	0.717849
O15	O	1.457358	-0.572150	0.921791
O16	O	1.494396	-0.776895	0.628654
O17	O	1.352048	-0.773692	0.738951
C18	C	1.156114	-0.565517	0.649972
C19	C	1.041798	-0.552893	0.635494
C20	C	0.982917	-0.601664	0.691429
C21	C	0.864766	-0.588618	0.676466
C22	C	1.423230	-0.804552	0.683817
C23	C	1.423281	-0.894180	0.683840
C24	C	1.423447	-1.222385	0.683970
C25	C	1.423397	-1.131068	0.683936
C26	C	1.423363	-1.058285	0.683904
C27	C	1.423315	-0.966963	0.683872
C28	C	1.691574	-0.624750	0.717906
C29	C	1.805887	-0.637396	0.732409
C30	C	1.389302	-0.617949	0.952117
C31	C	1.374805	-0.627696	1.066427
C32	C	1.423440	-0.384786	0.683954
C33	C	1.423490	-0.295173	0.683989
C34	C	1.457270	-0.572239	0.416679
C35	C	1.471966	-0.562287	0.302395
C36	C	1.430873	-0.589958	1.125339
C37	C	1.415890	-0.600031	1.243485
H38	H	0.827708	-0.537199	0.617501
Br39	Br	1.570483	-0.496012	1.240697
Br40	Br	1.276298	-0.693972	1.128133
H41	H	1.019978	-0.653074	0.750398
H42	H	1.489963	-0.550187	1.088309
H43	H	1.356786	-0.639795	1.280509
Br44	Br	0.867636	-0.723081	0.830718
H45	H	1.004736	-0.501477	0.576533
