data_functionalizedCrystal
_audit_creation_method	'MofGen! by Chris Wilmer'
_symmetry_space_group_name_H-M	'P1'
_symmetry_Int_Tables_number	1
_symmetry_cell_setting	triclinic
loop_
_symmetry_equiv_pos_as_xyz
  x,y,z
_cell_length_a	6.817900
_cell_length_b	16.255661
_cell_length_c	9.170285
_cell_angle_alpha	85.726016
_cell_angle_beta	112.460155
_cell_angle_gamma	103.488922
loop_
_atom_site_label
_atom_site_type_symbol
_atom_site_fract_x
_atom_site_fract_y
_atom_site_fract_z
V1	V	-4.063550	-0.247666	-0.217014
O2	O	-4.012640	-0.259530	0.009132
O3	O	-4.051096	-0.230027	-0.429055
O4	O	-4.014642	-0.362956	-0.214244
O5	O	-4.049346	-0.125681	-0.207166
V6	V	-4.542586	-0.235012	-0.189897
O7	O	-4.334651	-0.275422	-0.276497
O8	O	-4.721682	-0.207256	-0.130414
O9	O	-4.331834	-0.252651	0.022144
O10	O	-4.710893	-0.223148	-0.416043
O11	O	-4.674186	-0.356997	-0.199745
O12	O	-4.368288	-0.119722	-0.192666
C13	C	-3.904858	-0.222005	-0.480728
C14	C	-3.975958	-0.208352	-0.654079
C15	C	-3.858356	-0.391568	-0.206714
C16	C	-3.899889	-0.485714	-0.205853
C17	C	-3.808700	-0.709301	-0.195565
C18	C	-3.987654	-0.768862	-0.328339
C19	C	-3.976000	-0.658083	-0.204238
C20	C	-3.871078	-0.766273	-0.069945
C21	C	-4.049502	-0.824584	-0.202671
C22	C	-4.154456	-0.716406	-0.337130
C23	C	-4.037798	-0.713810	-0.078619
C24	C	-4.216895	-0.773349	-0.211430
C25	C	-3.933652	-0.562166	-0.205142
C26	C	-4.091868	-0.920499	-0.201779
C27	C	-4.141415	-0.260670	0.073810
C28	C	-4.049553	-0.274328	0.247158
C29	C	-4.187917	-0.091104	-0.200202
C30	C	-4.125620	0.003041	-0.201055
H31	H	-3.966902	-0.793064	-0.433916
C32	C	-3.964739	-0.119084	-0.717958
C33	C	-4.095025	-0.079847	-0.672239
C34	C	-4.084722	0.002389	-0.731035
H35	H	-4.015739	-0.121351	-0.829858
H36	H	-3.818358	-0.087641	-0.676925
H37	H	-4.241375	-0.111281	-0.713279
H38	H	-4.044054	-0.077557	-0.560348
H39	H	-3.938341	0.033832	-0.690002
H40	H	-4.135720	0.000114	-0.842934
H41	H	-4.173101	0.029025	-0.700012
C42	C	-4.060915	-0.363487	-0.688457
C43	C	-3.985769	-0.359735	-0.523546
C44	C	-3.996230	-0.441853	-0.464172
H45	H	-3.972592	-0.390322	-0.719133
H46	H	-4.207332	-0.394901	-0.729353
H47	H	-3.839375	-0.328335	-0.482665
H48	H	-4.074071	-0.332916	-0.492827
H49	H	-4.142647	-0.473266	-0.505069
H50	H	-3.907907	-0.468681	-0.494859
H51	H	-3.945265	-0.439319	-0.352276
H52	H	-3.635836	-0.681308	-0.189030
C53	C	-3.712004	-0.795788	0.080493
C54	C	-3.754580	-0.884317	0.079976
C55	C	-3.608055	-0.911532	0.218515
H56	H	-3.728303	-0.776186	0.169352
H57	H	-3.567418	-0.773808	0.085945
H58	H	-3.899131	-0.906288	0.074540
H59	H	-3.738266	-0.903941	-0.008852
H60	H	-3.463468	-0.889552	0.223967
H61	H	-3.624365	-0.891924	0.307363
H62	H	-3.636909	-0.971600	0.218176
C63	C	-4.313408	-0.687033	-0.487801
C64	C	-4.272235	-0.598527	-0.486928
C65	C	-4.418586	-0.571437	-0.625709
H66	H	-4.458119	-0.709419	-0.493912
H67	H	-4.295871	-0.706296	-0.576432
H68	H	-4.289791	-0.579272	-0.398321
H69	H	-4.127552	-0.576119	-0.480842
H70	H	-4.401049	-0.590700	-0.714340
H71	H	-4.563288	-0.593829	-0.631808
H72	H	-4.390658	-0.511384	-0.625142
H73	H	-4.389912	-0.801192	-0.218173
H74	H	-4.058470	-0.689585	0.026963
