data_functionalizedCrystal
_audit_creation_method	'MofGen! by Chris Wilmer'
_symmetry_space_group_name_H-M	'P1'
_symmetry_Int_Tables_number	1
_symmetry_cell_setting	triclinic
loop_
_symmetry_equiv_pos_as_xyz
  x,y,z
_cell_length_a	16.625547
_cell_length_b	16.625545
_cell_length_c	12.827885
_cell_angle_alpha	89.966975
_cell_angle_beta	89.974319
_cell_angle_gamma	90.025495
loop_
_atom_site_label
_atom_site_type_symbol
_atom_site_fract_x
_atom_site_fract_y
_atom_site_fract_z
Zn1	Zn	1.232670	-0.320962	-0.591000
Zn2	Zn	1.566003	0.012371	-0.257667
Zn3	Zn	1.899337	0.345704	0.075667
Zn4	Zn	1.232564	-0.455817	-0.416251
Zn5	Zn	1.565897	-0.122484	-0.082918
Zn6	Zn	1.899231	0.210850	0.250416
Zn7	Zn	1.097830	-0.321002	-0.416255
Zn8	Zn	1.431163	0.012331	-0.082921
Zn9	Zn	1.764496	0.345665	0.250412
Zn10	Zn	1.097795	-0.455757	-0.590932
Zn11	Zn	1.431128	-0.122423	-0.257599
Zn12	Zn	1.764462	0.210910	0.075735
O13	O	1.165215	-0.388384	-0.503609
O14	O	1.498548	-0.055051	-0.170276
O15	O	1.831881	0.278282	0.163057
O16	O	1.345488	-0.338860	-0.567846
O17	O	1.678822	-0.005527	-0.234513
O18	O	2.012155	0.327807	0.098821
O19	O	1.214661	-0.437975	-0.270015
O20	O	1.547995	-0.104642	0.063318
O21	O	1.881328	0.228691	0.396651
O22	O	1.115776	-0.208164	-0.439465
O23	O	1.449109	0.125169	-0.106132
O24	O	1.782442	0.458502	0.227202
O25	O	1.345410	-0.437937	-0.439459
O26	O	1.678744	-0.104604	-0.106125
O27	O	2.012077	0.228730	0.227208
O28	O	1.214842	-0.208135	-0.567850
O29	O	1.548175	0.125198	-0.234516
O30	O	1.881509	0.458531	0.098817
O31	O	1.115673	-0.338927	-0.270018
O32	O	1.449006	-0.005594	0.063315
O33	O	1.782339	0.327739	0.396649
O34	O	0.984993	-0.338869	-0.439399
O35	O	1.318326	-0.005535	-0.106066
O36	O	1.651659	0.327798	0.227268
O37	O	1.115716	-0.437834	-0.737177
O38	O	1.449050	-0.104501	-0.403844
O39	O	1.782383	0.228833	-0.070510
O40	O	0.984967	-0.437872	-0.567734
O41	O	1.318301	-0.104539	-0.234400
O42	O	1.651634	0.228794	0.098933
O43	O	1.214808	-0.338801	-0.737227
O44	O	1.548142	-0.005468	-0.403894
O45	O	1.881475	0.327865	-0.070560
O46	O	1.214628	-0.568641	-0.439393
O47	O	1.547961	-0.235308	-0.106059
O48	O	1.881294	0.098025	0.227274
O49	O	1.115613	-0.568597	-0.567730
O50	O	1.448947	-0.235264	-0.234397
O51	O	1.782280	0.098070	0.098937
C52	C	0.955724	-0.388369	-0.503560
C53	C	1.289057	-0.055036	-0.170227
C54	C	1.622391	0.278298	0.163107
C55	C	0.866103	-0.388382	-0.503564
C56	C	1.199436	-0.055048	-0.170230
C57	C	1.532769	0.278285	0.163103
C58	C	1.165127	-0.597875	-0.503576
C59	C	1.498460	-0.264542	-0.170243
C60	C	1.831794	0.068791	0.163090
C61	C	1.165163	-0.687496	-0.503597
C62	C	1.498497	-0.354163	-0.170264
C63	C	1.831830	-0.020830	0.163069
C64	C	0.793320	-0.388383	-0.503577
C65	C	1.126654	-0.055050	-0.170243
C66	C	1.459987	0.278284	0.163090
C67	C	0.702012	-0.388387	-0.503603
C68	C	1.035345	-0.055054	-0.170269
C69	C	1.368679	0.278279	0.163064
C70	C	0.629235	-0.388395	-0.503629
C71	C	0.962569	-0.055061	-0.170296
C72	C	1.295902	0.278272	0.163037
C73	C	0.537921	-0.388400	-0.503654
C74	C	0.871254	-0.055067	-0.170321
C75	C	1.204588	0.278266	0.163012
C76	C	1.165195	-0.760279	-0.503618
C77	C	1.498528	-0.426946	-0.170285
C78	C	1.831861	-0.093612	0.163049
C79	C	1.165242	-0.851587	-0.503641
C80	C	1.498575	-0.518254	-0.170308
C81	C	1.831908	-0.184921	0.163026
C82	C	1.165284	-0.924364	-0.503654
C83	C	1.498617	-0.591030	-0.170321
C84	C	1.831950	-0.257697	0.163012
C85	C	1.165330	-1.015678	-0.503676
C86	C	1.498663	-0.682345	-0.170342
C87	C	1.831996	-0.349011	0.162991
C88	C	1.375524	-0.388401	-0.503659
C89	C	1.708857	-0.055067	-0.170326
C90	C	2.042190	0.278266	0.163007
C91	C	1.465145	-0.388408	-0.503681
C92	C	1.798478	-0.055074	-0.170348
C93	C	2.131811	0.278259	0.162986
C94	C	1.165270	-0.388306	-0.776180
C95	C	1.498604	-0.054973	-0.442846
C96	C	1.831937	0.278360	-0.109513
C97	C	1.165294	-0.388273	-0.892333
C98	C	1.498627	-0.054940	-0.559000
C99	C	1.831961	0.278394	-0.225666
C100	C	1.165325	-0.178076	-0.503665
C101	C	1.498658	0.155258	-0.170332
C102	C	1.831991	0.488591	0.163001
C103	C	1.165371	-0.088454	-0.503689
C104	C	1.498705	0.244879	-0.170356
C105	C	1.832038	0.578212	0.162978
C106	C	1.116276	-0.437258	-0.944093
C107	C	1.449609	-0.103924	-0.610760
C108	C	1.782942	0.229409	-0.277426
C109	C	1.116299	-0.437224	-1.064143
C110	C	1.449632	-0.103891	-0.730810
C111	C	1.782966	0.229442	-0.397477
C112	C	1.165206	-0.388404	-0.232099
C113	C	1.498539	-0.055071	0.101234
C114	C	1.831872	0.278263	0.434567
C115	C	1.165338	-0.388210	-0.115947
C116	C	1.498672	-0.054877	0.217387
C117	C	1.832005	0.278456	0.550720
H118	H	1.074295	-0.479223	-0.899530
H119	H	1.407629	-0.145889	-0.566196
H120	H	1.740962	0.187444	-0.232863
H121	H	1.207280	-0.346314	-0.936896
H122	H	1.540614	-0.012980	-0.603563
H123	H	1.873947	0.320353	-0.270229
N124	N	1.063648	-0.489826	-1.119990
N125	N	1.396981	-0.156493	-0.786657
N126	N	1.730315	0.176841	-0.453324
N127	N	1.063738	-0.489722	-1.217432
N128	N	1.397072	-0.156388	-0.884099
N129	N	1.730405	0.176945	-0.550766
H130	H	1.026551	-0.526872	-1.256878
H131	H	1.359885	-0.193539	-0.923545
H132	H	1.693218	0.139794	-0.590212
H133	H	1.207303	-0.346267	-1.071441
H134	H	1.540636	-0.012934	-0.738108
H135	H	1.873970	0.320400	-0.404774
