data_functionalizedCrystal
_audit_creation_method	'MofGen! by Chris Wilmer'
_symmetry_space_group_name_H-M	'P1'
_symmetry_Int_Tables_number	1
_symmetry_cell_setting	triclinic
loop_
_symmetry_equiv_pos_as_xyz
  x,y,z
_cell_length_a	14.044191
_cell_length_b	12.503572
_cell_length_c	12.837942
_cell_angle_alpha	93.896304
_cell_angle_beta	85.989642
_cell_angle_gamma	93.837835
loop_
_atom_site_label
_atom_site_type_symbol
_atom_site_fract_x
_atom_site_fract_y
_atom_site_fract_z
O1	O	1.285438	0.089266	-0.246522
O2	O	1.008647	0.089280	-0.237420
O3	O	1.140905	0.089267	-0.090501
O4	O	1.153180	0.089280	-0.393441
O5	O	1.130960	-0.089374	-0.101570
O6	O	0.998702	-0.089361	-0.248489
O7	O	1.275493	-0.089375	-0.257592
Cu8	Cu	1.136190	-0.105679	-0.254051
Cu9	Cu	1.147951	0.105585	-0.240960
O10	O	1.143236	-0.089361	-0.404510
C11	C	0.968001	-0.000039	-0.238972
C12	C	0.861702	-0.000034	-0.227095
C13	C	0.617062	-0.000042	-0.289617
C14	C	0.667084	-0.000043	-0.205398
C15	C	0.775380	-0.000038	-0.217473
C16	C	0.508757	-0.000047	-0.277544
N17	N	1.127925	-0.254270	-0.263258
C18	C	1.115767	-0.473385	-0.276811
C19	C	1.168377	-0.526717	-0.218196
C20	C	1.161612	-0.648639	-0.225737
C21	C	1.122531	-0.351451	-0.269271
C22	C	1.316140	-0.000053	-0.256039
C23	C	1.422439	-0.000051	-0.267916
C24	C	1.131786	-0.000053	-0.057031
C25	C	1.119418	-0.000050	0.059190
N26	N	1.156222	0.254176	-0.231746
C27	C	1.152355	-0.000039	-0.437980
C28	C	1.164723	-0.000035	-0.554201
C29	C	1.268099	-0.000035	0.286397
C30	C	1.256483	-0.000033	0.395597
C31	C	1.084572	-0.000036	0.386793
C32	C	1.096188	-0.000038	0.277593
C33	C	1.187954	-0.000039	0.227399
C34	C	1.199569	-0.000049	0.118196
C35	C	1.027659	-0.000044	0.109395
C36	C	1.016043	-0.000042	0.218595
H37	H	1.218499	-0.480809	-0.162351
H38	H	1.065650	-0.519287	-0.332654
H39	H	1.274289	-0.000055	0.077329
O40	O	0.663048	0.000163	-0.386414
C41	C	0.725824	0.092675	-0.392646
H42	H	0.700816	0.157330	-0.331873
H43	H	0.726347	0.123744	-0.474151
H44	H	0.801071	0.071760	-0.376953
O45	O	1.357305	0.000010	0.237800
C46	C	1.425552	-0.000019	0.313290
H47	H	1.393958	0.033801	0.391937
H48	H	1.491909	0.051845	0.288027
H49	H	1.445978	-0.085723	0.320947
O50	O	0.621123	0.000152	-0.108568
C51	C	0.568635	0.092661	-0.090867
H52	H	0.600828	0.157320	-0.143633
H53	H	0.571578	0.123726	-0.005514
H54	H	0.491059	0.071742	-0.109139
H55	H	1.321746	-0.000026	0.443630
O56	O	0.995503	-0.000079	0.435725
C57	C	1.002445	-0.000042	0.544761
H58	H	1.072849	-0.033860	0.561360
H59	H	0.940254	-0.051903	0.580250
H60	H	0.999844	0.085664	0.580842
H61	H	0.941330	-0.000037	0.259479
H62	H	0.962399	-0.000056	0.061346
