data_functionalizedCrystal
_audit_creation_method	'MofGen! by Chris Wilmer'
_symmetry_space_group_name_H-M	'P1'
_symmetry_Int_Tables_number	1
_symmetry_cell_setting	triclinic
loop_
_symmetry_equiv_pos_as_xyz
  x,y,z
_cell_length_a	27.732046
_cell_length_b	9.482900
_cell_length_c	11.026607
_cell_angle_alpha	78.599815
_cell_angle_beta	95.613997
_cell_angle_gamma	99.205072
loop_
_atom_site_label
_atom_site_type_symbol
_atom_site_fract_x
_atom_site_fract_y
_atom_site_fract_z
O1	O	-0.659760	-0.120680	-0.125070
O2	O	-0.520942	-0.120727	-0.146984
O3	O	-0.578845	-0.120702	0.040410
O4	O	-0.601856	-0.120704	-0.312464
O5	O	-0.567097	0.121086	0.002195
O6	O	-0.509193	0.121061	-0.185199
O7	O	-0.648012	0.121108	-0.163285
Cu8	Cu	-0.577530	0.143162	-0.177732
Cu9	Cu	-0.591424	-0.142780	-0.132537
O10	O	-0.590108	0.121083	-0.350679
C11	C	-0.497019	0.000161	-0.165631
C12	C	-0.443241	0.000143	-0.164243
N13	N	-0.567761	0.344277	-0.209518
C14	C	-0.568726	0.000189	0.066434
C15	C	-0.556072	0.000179	0.200912
C16	C	-0.113604	0.000195	-0.266273
C17	C	0.088518	0.000202	-0.261137
O18	O	0.111382	0.000263	-0.354434
N19	N	0.117642	0.000199	-0.150018
C20	C	0.096232	0.000205	-0.040178
O21	O	0.125642	0.000218	0.054451
C22	C	-0.105889	0.000208	-0.045317
C23	C	-0.135011	0.000196	-0.156440
C24	C	-0.142726	0.000184	-0.377388
C25	C	-0.193254	0.000174	-0.378669
C26	C	-0.214660	0.000175	-0.268836
C27	C	-0.185538	0.000186	-0.157722
C28	C	-0.127297	0.000224	0.064521
C29	C	-0.177830	0.000229	0.063226
C30	C	-0.206952	0.000216	-0.047898
C31	C	-0.257473	0.000178	-0.049171
N32	N	-0.286596	0.000180	-0.160289
C33	C	-0.265190	0.000179	-0.270122
C34	C	0.202348	0.000200	-0.037487
C35	C	0.252878	0.000196	-0.036201
C36	C	0.245161	0.000196	-0.257161
C37	C	0.194630	0.000189	-0.258444
C38	C	0.173225	0.000202	-0.148605
C39	C	-0.371302	0.000157	-0.272805
C40	C	-0.421834	0.000142	-0.274076
C41	C	-0.414112	0.000150	-0.053118
C42	C	-0.363585	0.000158	-0.051845
C43	C	-0.342181	0.000166	-0.161699
O44	O	-0.280368	0.000133	0.044074
O45	O	-0.294606	0.000198	-0.364742
C46	C	-0.063076	0.000204	-0.264992
C47	C	-0.033955	0.000215	-0.153877
C48	C	-0.055361	0.000216	-0.044044
C49	C	0.016575	0.000212	-0.152591
C50	C	0.037982	0.000211	-0.262424
C51	C	0.008858	0.000213	-0.373543
C52	C	-0.041670	0.000203	-0.374825
C53	C	-0.026238	0.000214	0.067075
C54	C	0.024290	0.000222	0.068347
C55	C	0.045696	0.000221	-0.041486
C56	C	0.328065	0.000209	-0.144641
C57	C	0.274285	0.000195	-0.146034
N58	N	-0.601195	-0.343896	-0.100741
C59	C	-0.588538	0.416486	-0.141907
C60	C	-0.580415	0.583900	-0.168363
C61	C	-0.600227	0.000189	-0.376703
C62	C	-0.612882	0.000189	-0.511179
C63	C	-0.591013	0.000189	0.275372
C64	C	-0.577935	0.000179	0.414362
H65	H	-0.445544	0.000131	-0.364570
H66	H	-0.556609	0.646014	-0.245835
C67	C	-0.347766	0.000159	-0.393649
N68	N	-0.330039	0.000149	-0.484668
C69	C	-0.437668	0.000168	0.067690
N70	N	-0.455412	0.000197	0.158680
C71	C	-0.535603	0.428193	-0.314176
N72	N	-0.511380	0.491397	-0.393007
C73	C	-0.644507	0.000218	0.222486
N74	N	-0.684800	0.000245	0.182654
C75	C	-0.633356	0.572197	0.003921
N76	N	-0.657581	0.508996	0.082749
C77	C	-0.524438	0.000163	0.467240
N78	N	-0.484145	0.000155	0.507070
C79	C	-0.666379	0.000209	0.435945
N80	N	-0.706673	0.000226	0.396118
H81	H	0.262599	0.000196	-0.346592
H82	H	-0.516476	0.000156	0.240064
H83	H	-0.216961	0.000164	-0.469157
H84	H	-0.065377	0.000195	-0.465313
C85	C	0.056319	0.000244	0.190599
N86	N	0.080443	0.000278	0.282674
C87	C	-0.119187	0.000188	-0.498225
N88	N	-0.101462	0.000183	-0.589246
C89	C	0.178810	0.000203	0.083355
N90	N	0.161082	0.000198	0.174375
C91	C	0.162601	0.000191	-0.380689
N92	N	0.138479	0.000199	-0.472771
C93	C	-0.095272	0.000266	0.186763
N94	N	-0.071151	0.000310	0.278841
H95	H	-0.195255	0.000240	0.152672
H96	H	-0.339873	0.000147	0.038644
C97	C	0.032415	0.000217	-0.494360
N98	N	0.050162	0.000230	-0.585356
H99	H	-0.043661	0.000218	0.156515
C100	C	-0.620685	0.332570	-0.037224
N101	N	-0.644895	0.269366	0.041631
H102	H	0.276584	0.000184	0.054290
