data_functionalizedCrystal
_audit_creation_method	'MofGen! by Chris Wilmer'
_symmetry_space_group_name_H-M	'P1'
_symmetry_Int_Tables_number	1
_symmetry_cell_setting	triclinic
loop_
_symmetry_equiv_pos_as_xyz
  x,y,z
_cell_length_a	18.215407
_cell_length_b	13.897448
_cell_length_c	18.215399
_cell_angle_alpha	89.976259
_cell_angle_beta	90.019833
_cell_angle_gamma	89.979983
loop_
_atom_site_label
_atom_site_type_symbol
_atom_site_fract_x
_atom_site_fract_y
_atom_site_fract_z
Zn1	Zn	1.125099	0.384013	0.416137
Zn2	Zn	1.125019	0.545323	0.293080
Zn3	Zn	1.002032	0.384045	0.293085
Zn4	Zn	1.002009	0.545269	0.416105
O5	O	1.063540	0.464663	0.354602
O6	O	1.228073	0.405421	0.399825
O7	O	1.108680	0.523965	0.190096
O8	O	1.018400	0.249059	0.309423
O9	O	1.228014	0.523934	0.309416
O10	O	1.108817	0.249036	0.399830
O11	O	1.018322	0.405474	0.190100
O12	O	0.899044	0.405422	0.309392
O13	O	1.018361	0.523843	0.519094
O14	O	0.899028	0.523873	0.399775
O15	O	1.108795	0.405369	0.519117
O16	O	1.108658	0.680297	0.309384
O17	O	1.018283	0.680258	0.399770
C18	C	0.872333	0.464646	0.354581
C19	C	0.790535	0.464662	0.354589
C20	C	1.063480	0.715277	0.354589
C21	C	1.063521	0.822491	0.354608
C22	C	0.602351	0.526437	0.401592
C23	C	0.525492	0.526440	0.401601
C24	C	0.525480	0.402906	0.307628
C25	C	0.602338	0.402899	0.307623
C26	C	0.640771	0.464670	0.354604
C27	C	0.487055	0.464680	0.354618
C28	C	0.403721	0.464683	0.354628
C29	C	0.724110	0.464666	0.354595
C30	C	1.063594	1.018786	0.354661
C31	C	1.063551	0.909553	0.354634
C32	C	1.255493	0.464680	0.354623
C33	C	1.337291	0.464687	0.354633
C34	C	1.063585	0.464596	0.546555
C35	C	1.063604	0.464568	0.628354
C36	C	1.063614	1.213070	0.354639
C37	C	1.063629	1.105856	0.354677
C38	C	1.063537	0.464659	0.163396
C39	C	1.063661	0.464416	0.081597
C40	C	1.110709	0.402821	0.816561
C41	C	1.110718	0.402792	0.893420
C42	C	1.016550	0.526166	0.893384
C43	C	1.016538	0.526188	0.816527
C44	C	1.063622	0.464517	0.778117
C45	C	1.063643	0.464466	0.931834
C46	C	1.063652	0.464436	1.015167
C47	C	1.063612	0.464546	0.694778
H48	H	0.633641	0.576732	0.439849
H49	H	0.494214	0.576735	0.439865
Br50	Br	0.473316	0.319079	0.243870
Br51	Br	1.174631	0.319065	0.945592
H52	H	0.978188	0.576428	0.785225
H53	H	0.633620	0.352595	0.269359
H54	H	1.149046	0.352601	0.785291
H55	H	0.978217	0.576378	0.924666
