data_functionalizedCrystal
_audit_creation_method	'MofGen! by Chris Wilmer'
_symmetry_space_group_name_H-M	'P1'
_symmetry_Int_Tables_number	1
_symmetry_cell_setting	triclinic
loop_
_symmetry_equiv_pos_as_xyz
  x,y,z
_cell_length_a	12.827893
_cell_length_b	16.959453
_cell_length_c	12.827885
_cell_angle_alpha	89.966028
_cell_angle_beta	89.980538
_cell_angle_gamma	90.020148
loop_
_atom_site_label
_atom_site_type_symbol
_atom_site_fract_x
_atom_site_fract_y
_atom_site_fract_z
Zn1	Zn	1.597638	-0.314640	-0.590818
Zn2	Zn	2.097638	0.185360	-0.090818
Zn3	Zn	1.597518	-0.446839	-0.416066
Zn4	Zn	2.097518	0.053161	0.083934
Zn5	Zn	1.422879	-0.314679	-0.416092
Zn6	Zn	1.922879	0.185321	0.083908
Zn7	Zn	1.422851	-0.446781	-0.590766
Zn8	Zn	1.922851	0.053219	-0.090766
O9	O	1.510221	-0.380735	-0.503435
O10	O	2.010221	0.119265	-0.003435
O11	O	1.743858	-0.332185	-0.567648
O12	O	2.243858	0.167815	-0.067648
O13	O	1.574313	-0.429348	-0.269833
O14	O	2.074313	0.070652	0.230167
O15	O	1.446123	-0.204063	-0.439303
O16	O	1.946123	0.295937	0.060697
O17	O	1.743770	-0.429311	-0.439258
O18	O	2.243770	0.070689	0.060742
O19	O	1.574518	-0.204034	-0.567673
O20	O	2.074518	0.295966	-0.067673
O21	O	1.446007	-0.332251	-0.269852
O22	O	1.946007	0.167749	0.230148
O23	O	1.276639	-0.332194	-0.439252
O24	O	1.776639	0.167806	0.060748
O25	O	1.446075	-0.429211	-0.737009
O26	O	1.946075	0.070789	-0.237009
O27	O	1.276619	-0.429249	-0.567584
O28	O	1.776619	0.070751	-0.067584
O29	O	1.574491	-0.332128	-0.737047
O30	O	2.074491	0.167872	-0.237047
O31	O	1.574286	-0.557442	-0.439207
O32	O	2.074286	-0.057442	0.060793
O33	O	1.445959	-0.557399	-0.567559
O34	O	1.945959	-0.057399	-0.067559
C35	C	1.238712	-0.380720	-0.503416
C36	C	1.738712	0.119280	-0.003416
C37	C	1.122558	-0.380733	-0.503432
C38	C	1.622558	0.119267	-0.003432
C39	C	1.070817	-0.332757	-0.567062
C40	C	1.570817	0.167243	-0.067062
C41	C	0.950767	-0.332769	-0.567080
C42	C	1.450767	0.167231	-0.067080
C43	C	1.510134	-0.586101	-0.503397
C44	C	2.010134	-0.086101	-0.003397
C45	C	1.510193	-0.673957	-0.503416
C46	C	2.010193	-0.173957	-0.003416
C47	C	1.577162	-1.045360	-0.570404
C48	C	2.077162	-0.545360	-0.070404
C49	C	1.443573	-1.045506	-0.436622
C50	C	1.943573	-0.545506	0.063378
C51	C	1.443534	-0.962961	-0.436598
C52	C	1.943534	-0.462961	0.063402
C53	C	1.510309	-0.921610	-0.503479
C54	C	2.010309	-0.421610	-0.003479
C55	C	1.577123	-0.962806	-0.570384
C56	C	2.077123	-0.462806	-0.070384
C57	C	1.376713	-0.921759	-0.369701
C58	C	1.876713	-0.421759	0.130299
C59	C	1.376671	-0.839208	-0.369675
C60	C	1.876671	-0.339208	0.130325
C61	C	1.443453	-0.797856	-0.436552
C62	C	1.943453	-0.297856	0.063448
C63	C	1.510270	-0.839057	-0.503459
C64	C	2.010270	-0.339057	-0.003459
C65	C	1.577046	-0.797707	-0.570341
C66	C	2.077046	-0.297707	-0.070341
C67	C	1.643869	-0.838906	-0.637243
C68	C	2.143869	-0.338906	-0.137243
C69	C	1.643905	-0.921454	-0.637261
C70	C	2.143905	-0.421454	-0.137261
C71	C	1.443417	-0.715308	-0.436534
C72	C	1.943417	-0.215308	0.063466
C73	C	1.577007	-0.715153	-0.570321
C74	C	2.077007	-0.215153	-0.070321
C75	C	1.782792	-0.380750	-0.503456
C76	C	2.282792	0.119250	-0.003456
C77	C	1.898945	-0.380756	-0.503465
C78	C	2.398945	0.119244	-0.003465
C79	C	1.510293	-0.380659	-0.776006
C80	C	2.010293	0.119341	-0.276006
C81	C	1.510324	-0.380626	-0.892159
C82	C	2.010324	0.119374	-0.392159
C83	C	1.510337	-0.174566	-0.503497
C84	C	2.010337	0.325434	-0.003497
C85	C	1.510387	-0.086710	-0.503523
C86	C	2.010387	0.413290	-0.003523
C87	C	1.446854	-0.332570	-0.943953
C88	C	1.946854	0.167430	-0.443953
C89	C	1.446885	-0.332535	-1.064004
C90	C	1.946885	0.167465	-0.564004
C91	C	1.510210	-0.380753	-0.231926
C92	C	2.010210	0.119247	0.268074
C93	C	1.510382	-0.380563	-0.115773
C94	C	2.010382	0.119437	0.384227
H95	H	1.115397	-0.291671	-0.621521
H96	H	1.615397	0.208329	-0.121521
H97	H	1.077979	-0.421814	-0.448967
H98	H	1.577979	0.078186	0.051033
F99	F	0.957094	-0.434451	-0.432260
F100	F	1.457094	0.065549	0.067740
H101	H	1.392550	-0.291389	-1.108545
H102	H	1.892550	0.208611	-0.608545
F103	F	0.892611	-0.279084	-0.638293
F104	F	1.392611	0.220916	-0.138293
H105	H	1.564727	-0.421705	-1.071238
H106	H	2.064727	0.078295	-0.571238
F107	F	1.648085	-0.671152	-0.641502
F108	F	2.148085	-0.171152	-0.141502
F109	F	1.714926	-0.794889	-0.708429
F110	F	2.214926	-0.294889	-0.208429
F111	F	1.715013	-0.965307	-0.708461
F112	F	2.215013	-0.465307	-0.208461
F113	F	1.581376	-0.434376	-0.950362
F114	F	2.081376	0.065624	-0.450362
H115	H	1.631571	-1.078908	-0.624872
H116	H	2.131571	-0.578908	-0.124872
H117	H	1.322346	-0.955432	-0.315253
H118	H	1.822346	-0.455432	0.184747
F119	F	1.305550	-0.795368	-0.298475
F120	F	1.805550	-0.295368	0.201525
F121	F	1.372497	-1.089516	-0.365459
F122	F	1.872497	-0.589516	0.134541
H123	H	1.389005	-0.681767	-0.382068
H124	H	1.889005	-0.181767	0.117932
H125	H	1.392489	-0.291456	-0.899419
H126	H	1.892489	0.208544	-0.399419
