data_functionalizedCrystal
_audit_creation_method	'MofGen! by Chris Wilmer'
_symmetry_space_group_name_H-M	'P1'
_symmetry_Int_Tables_number	1
_symmetry_cell_setting	triclinic
loop_
_symmetry_equiv_pos_as_xyz
  x,y,z
_cell_length_a	18.101398
_cell_length_b	18.101397
_cell_length_c	18.101389
_cell_angle_alpha	90.021047
_cell_angle_beta	90.024802
_cell_angle_gamma	90.018196
loop_
_atom_site_label
_atom_site_type_symbol
_atom_site_fract_x
_atom_site_fract_y
_atom_site_fract_z
Zn1	Zn	1.132176	-0.294952	0.418835
Zn2	Zn	1.132095	-0.418778	0.294987
Zn3	Zn	1.008335	-0.294950	0.294995
Zn4	Zn	1.008308	-0.418751	0.418775
O5	O	1.070228	-0.356858	0.356898
O6	O	1.235798	-0.311390	0.402428
O7	O	1.115655	-0.402362	0.191355
O8	O	1.024807	-0.191317	0.311450
O9	O	1.235738	-0.402364	0.311438
O10	O	1.115793	-0.191319	0.402435
O11	O	1.024729	-0.311386	0.191361
O12	O	0.904698	-0.311360	0.311393
O13	O	1.024763	-0.402319	0.522416
O14	O	0.904679	-0.402317	0.402333
O15	O	1.115767	-0.311364	0.522460
O16	O	1.115629	-0.522407	0.311380
O17	O	1.024684	-0.522388	0.402326
C18	C	0.877818	-0.356836	0.356858
C19	C	0.795504	-0.356844	0.356858
C20	C	1.070165	-0.549268	0.356862
C21	C	1.070206	-0.631582	0.356871
C22	C	0.644795	-0.356860	0.356891
C23	C	0.613429	-0.299550	0.299769
C24	C	0.527811	-0.299335	0.299957
C25	C	0.496413	-0.356874	0.356923
C26	C	0.527549	-0.336055	0.435059
C27	C	0.613194	-0.335631	0.434710
C28	C	0.613206	-0.435137	0.336566
C29	C	0.527555	-0.434724	0.334864
C30	C	0.412553	-0.356884	0.356945
C31	C	0.728655	-0.356848	0.356874
C32	C	1.070300	-0.930673	0.356939
C33	C	1.127361	-0.899329	0.299565
C34	C	1.127559	-0.813711	0.299714
C35	C	1.070253	-0.782291	0.356905
C36	C	1.091409	-0.813312	0.434968
C37	C	1.091851	-0.898957	0.434655
C38	C	0.991931	-0.899176	0.336926
C39	C	0.992318	-0.813526	0.335184
C40	C	1.070226	-0.698431	0.356890
C41	C	1.070330	-1.014533	0.356959
C42	C	1.263390	-0.356880	0.356939
C43	C	1.345704	-0.356890	0.356956
C44	C	1.070271	-0.356839	0.550060
C45	C	1.070289	-0.356831	0.632374
C46	C	1.070312	-0.163696	0.356950
C47	C	1.070348	-0.081382	0.356972
C48	C	1.070228	-0.356823	0.164487
C49	C	1.070354	-0.356622	0.082174
C50	C	1.070333	-0.356692	0.931465
C51	C	1.012878	-0.413736	0.900112
C52	C	1.013033	-0.414001	0.814494
C53	C	1.070311	-0.356761	0.783083
C54	C	1.148340	-0.377948	0.814188
C55	C	1.148020	-0.378323	0.899833
C56	C	1.050437	-0.278334	0.899893
C57	C	1.048701	-0.278786	0.814242
C58	C	1.070303	-0.356799	0.699223
C59	C	1.070345	-0.356656	1.015325
H60	H	0.506756	-0.312322	0.242030
H61	H	1.192280	-0.338578	0.920575
H62	H	0.947517	-0.792145	0.373911
C63	C	1.205360	-0.928326	0.317248
C64	C	1.217415	-0.980292	0.383500
C65	C	1.295414	-1.009289	0.401186
C66	C	1.361357	-0.986320	0.352620
C67	C	1.349303	-0.934352	0.286364
C68	C	1.271305	-0.905355	0.268677
H69	H	1.168598	-0.997297	0.419455
H70	H	1.304336	-1.047759	0.450234
H71	H	1.419096	-1.007785	0.365712
H72	H	1.398120	-0.917347	0.250408
H73	H	1.262383	-0.866884	0.219630
H74	H	1.114323	-0.792739	0.241831
C75	C	0.640211	-0.258347	0.457913
C76	C	0.583857	-0.197445	0.476630
C77	C	0.610870	-0.120159	0.499830
C78	C	0.694236	-0.103774	0.504314
C79	C	0.750595	-0.164677	0.485596
C80	C	0.723583	-0.241963	0.462396
H81	H	0.522139	-0.209573	0.473311
H82	H	0.569148	-0.075074	0.513686
H83	H	0.714233	-0.046562	0.521489
H84	H	0.812313	-0.152549	0.488915
H85	H	0.765304	-0.287048	0.448540
C86	C	1.171520	-0.454511	0.785227
C87	C	1.179050	-0.467864	0.701545
C88	C	1.202226	-0.544429	0.672586
C89	C	1.217870	-0.607641	0.727308
C90	C	1.210340	-0.594289	0.810994
C91	C	1.187165	-0.517724	0.839954
H92	H	1.167469	-0.421070	0.661033
H93	H	1.207800	-0.554312	0.610636
H94	H	1.235026	-0.664318	0.705870
H95	H	1.221922	-0.641084	0.851507
H96	H	1.181591	-0.507841	0.901904
C97	C	0.974902	-0.252257	0.929047
C98	C	0.969295	-0.180501	0.974422
C99	C	0.893758	-0.154434	1.003577
C100	C	0.823827	-0.200124	0.987357
C101	C	0.829432	-0.271884	0.941980
C102	C	0.904969	-0.297951	0.912825
H103	H	1.021064	-0.146675	0.986431
H104	H	0.889610	-0.101312	1.037168
H105	H	0.767910	-0.180828	1.008940
H106	H	0.777663	-0.305710	0.929971
H107	H	0.909118	-0.351073	0.879234
H108	H	0.954842	-0.400614	0.920698
H109	H	1.192298	-0.337705	0.793844
C110	C	0.970754	-0.786146	0.257578
C111	C	0.955875	-0.842171	0.195280
C112	C	0.934311	-0.814786	0.117675
C113	C	0.927625	-0.731377	0.102368
C114	C	0.942505	-0.675347	0.164668
C115	C	0.964069	-0.702731	0.242273
H116	H	0.960824	-0.903920	0.206610
H117	H	0.923297	-0.856264	0.071556
H118	H	0.911662	-0.711105	0.044920
H119	H	0.937556	-0.613597	0.153338
H120	H	0.975084	-0.661253	0.288391
C121	C	1.036987	-0.785815	0.494277
C122	C	0.991434	-0.841726	0.539379
C123	C	0.937011	-0.814228	0.598687
C124	C	0.928140	-0.730818	0.612892
C125	C	0.973694	-0.674902	0.567788
C126	C	1.028118	-0.702400	0.508481
H127	H	0.998000	-0.903476	0.528865
H128	H	0.903289	-0.855621	0.632075
H129	H	0.887853	-0.710462	0.656795
H130	H	0.967129	-0.613153	0.578303
H131	H	1.061840	-0.661007	0.475092
H132	H	1.148052	-0.791809	0.452206
C133	C	1.109706	-0.927205	0.221132
C134	C	1.158490	-0.903515	0.155611
C135	C	1.140831	-0.931392	0.077176
C136	C	1.074387	-0.982960	0.064262
C137	C	1.025599	-1.006653	0.129785
C138	C	1.043258	-0.978775	0.208220
H139	H	1.207680	-0.865339	0.165169
H140	H	1.176948	-0.913853	0.028672
H141	H	1.061315	-1.003596	0.006199
H142	H	0.976409	-1.044829	0.120227
H143	H	1.007141	-0.996315	0.256725
C144	C	1.030442	-0.491725	0.929184
C145	C	1.096671	-0.503786	0.981219
C146	C	1.114238	-0.581774	1.010292
C147	C	1.065576	-0.647700	0.987331
C148	C	0.999343	-0.635640	0.935293
C149	C	0.981776	-0.557653	0.906220
H150	H	1.132697	-0.454982	0.998219
H151	H	1.163269	-0.590700	1.048814
H152	H	1.078580	-0.705431	1.008852
H153	H	0.963317	-0.684445	0.918293
H154	H	0.932746	-0.548726	0.867698
H155	H	0.506118	-0.279480	0.452541
C156	C	0.498679	-0.495464	0.386939
C157	C	0.453216	-0.560250	0.355670
C158	C	0.424337	-0.620987	0.407751
C159	C	0.440922	-0.616938	0.491102
C160	C	0.486388	-0.552149	0.522376
C161	C	0.515266	-0.491412	0.470294
H162	H	0.440937	-0.563250	0.293964
H163	H	0.390680	-0.668948	0.384600
H164	H	0.419544	-0.661899	0.529656
H165	H	0.498667	-0.549150	0.584081
H166	H	0.548923	-0.443452	0.493445
H167	H	0.634771	-0.454151	0.280540
H168	H	1.185610	-0.793172	0.312956
C169	C	0.641241	-0.389586	0.494199
C170	C	0.690070	-0.455635	0.472094
C171	C	0.718115	-0.509583	0.531585
C172	C	0.697330	-0.497481	0.613182
C173	C	0.648498	-0.431429	0.635291
C174	C	0.620454	-0.377481	0.575799
H175	H	0.705458	-0.464596	0.411688
H176	H	0.754263	-0.558479	0.515218
H177	H	0.718091	-0.537416	0.657221
H178	H	0.633110	-0.422468	0.695697
H179	H	0.584305	-0.328585	0.592166
C180	C	1.169238	-0.925879	0.457548
C181	C	1.237244	-0.904091	0.411338
C182	C	1.314634	-0.931008	0.434229
C183	C	1.324018	-0.979713	0.503330
C184	C	1.256010	-1.001504	0.549544
C185	C	1.178620	-0.974587	0.526653
H186	H	1.230299	-0.868034	0.360182
H187	H	1.364978	-0.914877	0.400019
H188	H	1.381306	-0.999639	0.520275
H189	H	1.262954	-1.037561	0.600700
H190	H	1.128276	-0.990718	0.560863
C191	C	0.500047	-0.455954	0.257186
C192	C	0.449546	-0.402874	0.213966
C193	C	0.422028	-0.424105	0.136290
C194	C	0.445012	-0.498416	0.101835
C195	C	0.495516	-0.551500	0.145056
C196	C	0.523033	-0.530269	0.222731
H197	H	0.432529	-0.347861	0.239471
H198	H	0.384642	-0.384808	0.104296
H199	H	0.424642	-0.514132	0.044335
H200	H	0.512532	-0.606513	0.119551
H201	H	0.560420	-0.569566	0.254726
H202	H	1.164885	-0.435604	0.919814
C203	C	1.038158	-0.926977	0.494383
C204	C	0.972027	-0.975892	0.472580
C205	C	0.918344	-1.003911	0.532313
C206	C	0.930792	-0.983015	0.613848
C207	C	0.996926	-0.934097	0.635655
C208	C	1.050609	-0.906078	0.575922
H209	H	0.962809	-0.991364	0.412219
H210	H	0.869387	-1.040124	0.516169
H211	H	0.891052	-1.003756	0.658066
H212	H	1.006143	-0.918626	0.696016
H213	H	1.099566	-0.869865	0.592065
H214	H	0.633488	-0.477831	0.378171
C215	C	0.971127	-0.257195	0.786777
C216	C	0.927586	-0.310094	0.736294
C217	C	0.850012	-0.288505	0.708825
C218	C	0.815979	-0.214018	0.731840
C219	C	0.859521	-0.161114	0.782326
C220	C	0.937095	-0.182703	0.809794
H221	H	0.952779	-0.365238	0.719255
H222	H	0.817780	-0.327669	0.671452
H223	H	0.758554	-0.198037	0.711506
H224	H	0.834328	-0.105970	0.799365
H225	H	0.969327	-0.143539	0.847167
H226	H	1.087493	-0.234029	0.792860
H227	H	0.949417	-0.919447	0.378714
C228	C	1.030816	-0.492456	0.786812
C229	C	1.044924	-0.555062	0.842637
C230	C	1.062710	-0.633520	0.814956
C231	C	1.066388	-0.649372	0.731450
C232	C	1.052280	-0.586764	0.675620
C233	C	1.034493	-0.508306	0.703302
H234	H	1.042202	-0.543328	0.904457
H235	H	1.073154	-0.679866	0.856285
H236	H	1.079555	-0.707451	0.710959
H237	H	1.055002	-0.598498	0.613800
H238	H	1.024049	-0.461960	0.661972
C239	C	0.934865	-0.396087	0.786083
C240	C	0.898154	-0.322108	0.806466
C241	C	0.819980	-0.304195	0.778064
C242	C	0.778518	-0.360262	0.729279
C243	C	0.815229	-0.434246	0.708894
C244	C	0.893402	-0.452159	0.737296
H245	H	0.928847	-0.280600	0.842582
H246	H	0.792805	-0.249427	0.793155
H247	H	0.720649	-0.347002	0.708254
H248	H	0.784535	-0.475755	0.672778
H249	H	0.920578	-0.506927	0.722205
C250	C	1.106965	-0.220914	0.927287
C251	C	1.170864	-0.244960	0.978050
C252	C	1.227395	-0.187548	1.005448
C253	C	1.220026	-0.106089	0.982083
C254	C	1.156123	-0.082039	0.931318
C255	C	1.099593	-0.139451	0.903920
H256	H	1.176322	-0.305264	0.995348
H257	H	1.274700	-0.205352	1.043028
H258	H	1.261873	-0.063589	1.002365
H259	H	1.150666	-0.021735	0.914019
H260	H	1.052288	-0.121647	0.866340
H261	H	0.633972	-0.312389	0.241649
H262	H	0.507338	-0.241336	0.313451
C263	C	0.642515	-0.221634	0.317766
C264	C	0.726210	-0.206358	0.317618
C265	C	0.755296	-0.128442	0.335620
C266	C	0.700689	-0.065803	0.353770
C267	C	0.616989	-0.081077	0.353919
C268	C	0.587902	-0.158992	0.335917
H269	H	0.766638	-0.252729	0.304182
H270	H	0.817257	-0.117136	0.335510
H271	H	0.722220	-0.008125	0.367096
H272	H	0.576561	-0.034706	0.367355
H273	H	0.525942	-0.170299	0.336027
H274	H	0.507216	-0.376526	0.478798
H275	H	0.972685	-0.920826	0.280989
