data_functionalizedCrystal
_audit_creation_method	'MofGen! by Chris Wilmer'
_symmetry_space_group_name_H-M	'P1'
_symmetry_Int_Tables_number	1
_symmetry_cell_setting	triclinic
loop_
_symmetry_equiv_pos_as_xyz
  x,y,z
_cell_length_a	6.817900
_cell_length_b	13.694001
_cell_length_c	14.858572
_cell_angle_alpha	79.272738
_cell_angle_beta	104.524003
_cell_angle_gamma	106.288079
loop_
_atom_site_label
_atom_site_type_symbol
_atom_site_fract_x
_atom_site_fract_y
_atom_site_fract_z
V1	V	-4.032528	-0.140829	-0.254135
O2	O	-4.025864	0.006111	-0.285995
O3	O	-3.978300	-0.278610	-0.217102
O4	O	-3.989245	-0.138951	-0.381074
O5	O	-4.014843	-0.134514	-0.120888
V6	V	-4.516248	-0.123219	-0.242485
O7	O	-4.293354	-0.179458	-0.279690
O8	O	-4.705619	-0.084591	-0.216930
O9	O	-4.347269	0.014561	-0.279518
O10	O	-4.640309	-0.270160	-0.210625
O11	O	-4.651330	-0.129534	-0.375732
O12	O	-4.336324	-0.125098	-0.115545
C13	C	-3.821717	-0.312189	-0.203986
C14	C	-3.858700	-0.424828	-0.174553
C15	C	-4.135122	-0.800972	-0.417337
C16	C	-4.100390	-0.695143	-0.444995
C17	C	-4.039966	-0.627559	-0.377387
C18	C	-4.014277	-0.665814	-0.282116
C19	C	-4.049028	-0.771654	-0.254456
C20	C	-3.953872	-0.598241	-0.214506
C21	C	-3.928184	-0.636496	-0.119235
C22	C	-3.962931	-0.742326	-0.091579
C23	C	-4.023355	-0.809910	-0.159188
C24	C	-3.919121	-0.492401	-0.242166
C25	C	-3.833027	-0.463084	-0.079285
C26	C	-3.867759	-0.568912	-0.051627
C27	C	-3.835678	-0.134039	-0.413148
C28	C	-3.881535	-0.133415	-0.516690
C29	C	-4.049370	-0.131134	-0.895838
C30	C	-4.002665	-0.131769	-0.790347
C31	C	-3.965454	-0.132275	-0.706267
C32	C	-3.918746	-0.132908	-0.600770
C33	C	-4.167194	0.048135	-0.292630
C34	C	-4.109449	0.160773	-0.322069
C35	C	-4.153233	-0.130013	-0.083466
C36	C	-4.086615	-0.130632	0.020075
H37	H	-3.783830	-0.408056	-0.024232
N38	N	-4.060844	-0.924058	-0.129356
H39	H	-3.962292	-0.951796	-0.152408
H40	H	-4.209991	-0.958730	-0.156940
N41	N	-4.200293	-0.873849	-0.490259
H42	H	-4.336892	-0.865347	-0.532932
H43	H	-4.218300	-0.946669	-0.458219
N44	N	-4.002477	-0.513416	-0.407223
H45	H	-3.853372	-0.478658	-0.379654
H46	H	-4.101136	-0.485756	-0.384172
H47	H	-3.942035	-0.773470	-0.014005
N48	N	-4.128089	-0.653882	-0.547742
H49	H	-4.171631	-0.712752	-0.586375
H50	H	-3.991714	-0.607094	-0.560503
H51	H	-3.846850	-0.600075	0.025944
H52	H	-3.940054	-0.461265	-0.319736
