data_functionalizedCrystal
_audit_creation_method	'MofGen! by Chris Wilmer'
_symmetry_space_group_name_H-M	'P1'
_symmetry_Int_Tables_number	1
_symmetry_cell_setting	triclinic
loop_
_symmetry_equiv_pos_as_xyz
  x,y,z
_cell_length_a	12.827893
_cell_length_b	19.121063
_cell_length_c	12.827885
_cell_angle_alpha	92.403967
_cell_angle_beta	89.980918
_cell_angle_gamma	92.469061
loop_
_atom_site_label
_atom_site_type_symbol
_atom_site_fract_x
_atom_site_fract_y
_atom_site_fract_z
Zn1	Zn	1.579836	-0.279576	-0.608533
Zn2	Zn	2.079836	0.220424	-0.108533
Zn3	Zn	1.572237	-0.397043	-0.441226
Zn4	Zn	2.072237	0.102957	0.058774
Zn5	Zn	1.405075	-0.279610	-0.433810
Zn6	Zn	1.905075	0.220390	0.066190
Zn7	Zn	1.397573	-0.396991	-0.615924
Zn8	Zn	1.897573	0.103009	-0.115924
O9	O	1.488680	-0.338305	-0.524873
O10	O	1.988680	0.161695	-0.024873
O11	O	1.725063	-0.295165	-0.586351
O12	O	2.225063	0.204835	-0.086351
O13	O	1.550022	-0.381501	-0.294009
O14	O	2.050022	0.118499	0.205991
O15	O	1.434577	-0.181322	-0.450791
O16	O	1.934577	0.318678	0.049209
O17	O	1.719480	-0.381468	-0.463431
O18	O	2.219480	0.118532	0.036569
O19	O	1.562973	-0.181296	-0.579159
O20	O	2.062973	0.318704	-0.079159
O21	O	1.427209	-0.295224	-0.288560
O22	O	1.927209	0.204776	0.211440
O23	O	1.257844	-0.295174	-0.457957
O24	O	1.757844	0.204826	0.042043
O25	O	1.421791	-0.381379	-0.761177
O26	O	1.921791	0.118621	-0.261177
O27	O	1.252332	-0.381413	-0.591755
O28	O	1.752332	0.118587	-0.091755
O29	O	1.555699	-0.295115	-0.755748
O30	O	2.055699	0.204885	-0.255748
O31	O	1.542747	-0.495320	-0.470597
O32	O	2.042747	0.004680	0.029403
O33	O	1.414422	-0.495282	-0.598946
O34	O	1.914422	0.004718	-0.098946
C35	C	1.217171	-0.338292	-0.524854
C36	C	1.717171	0.161708	-0.024854
C37	C	1.101017	-0.338303	-0.524871
C38	C	1.601017	0.161697	-0.024871
C39	C	0.926483	-0.381054	-0.591001
C40	C	1.426483	0.118946	-0.091001
C41	C	1.046534	-0.381044	-0.590985
C42	C	1.546534	0.118956	-0.090985
C43	C	1.476974	-0.520785	-0.536401
C44	C	1.976974	-0.020785	-0.036401
C45	C	1.472062	-0.598850	-0.541368
C46	C	1.972062	-0.098850	-0.041368
C47	C	1.536618	-0.635522	-0.476932
C48	C	2.036618	-0.135522	0.023068
C49	C	1.532005	-0.708873	-0.481609
C50	C	2.032005	-0.208873	0.018391
C51	C	1.462829	-0.745551	-0.550718
C52	C	1.962829	-0.245551	-0.050718
C53	C	1.398270	-0.708874	-0.615161
C54	C	1.898270	-0.208874	-0.115161
C55	C	1.402890	-0.635524	-0.610488
C56	C	1.902890	-0.135524	-0.110488
C57	C	1.445540	-0.967020	-0.568172
C58	C	1.945540	-0.467020	-0.068172
C59	C	1.440923	-1.040375	-0.572837
C60	C	1.940923	-0.540375	-0.072837
C61	C	1.574660	-1.040369	-0.439286
C62	C	2.074660	-0.540369	0.060714
C63	C	1.579269	-0.967018	-0.434615
C64	C	2.079269	-0.467018	0.065385
C65	C	1.514714	-0.930347	-0.499062
C66	C	2.014714	-0.430347	0.000938
C67	C	1.458109	-0.820528	-0.555498
C68	C	1.958109	-0.320528	-0.055498
C69	C	1.519440	-0.855372	-0.494287
C70	C	2.019440	-0.355372	0.005713
C71	C	1.761249	-0.338318	-0.524894
C72	C	2.261249	0.161682	-0.024894
C73	C	1.877402	-0.338324	-0.524903
C74	C	2.377402	0.161676	-0.024903
C75	C	1.488755	-0.338237	-0.797439
C76	C	1.988755	0.161763	-0.297439
C77	C	1.488787	-0.338209	-0.913591
C78	C	1.988787	0.161791	-0.413591
C79	C	1.500460	-0.155112	-0.513323
C80	C	2.000460	0.344888	-0.013323
C81	C	1.505480	-0.077047	-0.508401
C82	C	2.005480	0.422953	-0.008401
C83	C	1.555057	-0.295514	-0.962688
C84	C	2.055057	0.204486	-0.462688
C85	C	1.555092	-0.295483	-1.082737
C86	C	2.055092	0.204517	-0.582737
C87	C	1.488668	-0.338321	-0.253364
C88	C	1.988668	0.161679	0.246636
C89	C	1.488851	-0.338152	-0.137201
C90	C	1.988851	0.161848	0.362799
H91	H	1.058805	-0.301716	-0.468283
H92	H	1.558805	0.198284	0.031717
N93	N	0.936191	-0.292418	-0.453907
N94	N	1.436191	0.207582	0.046093
N95	N	0.999997	-0.247727	-0.488012
N96	N	1.499997	0.252273	0.011988
H97	H	1.041517	-0.215303	-0.437871
H98	H	1.541517	0.284697	0.062129
H99	H	0.879626	-0.417648	-0.647599
H100	H	1.379626	0.082352	-0.147599
H101	H	1.088753	-0.417623	-0.647579
H102	H	1.588753	0.082377	-0.147579
H103	H	1.592944	-0.605664	-0.420652
H104	H	2.092944	-0.105664	0.079348
H105	H	1.584573	-0.738729	-0.429138
H106	H	2.084573	-0.238729	0.070862
N107	N	1.590082	-0.817911	-0.423678
N108	N	2.090082	-0.317911	0.076322
N109	N	1.582671	-0.826154	-0.327769
N110	N	2.082671	-0.326154	0.172231
H111	H	1.632558	-0.799692	-0.277896
H112	H	2.132558	-0.299692	0.222104
H113	H	1.635597	-0.937156	-0.378342
H114	H	2.135597	-0.437156	0.121658
H115	H	1.401784	-0.850399	-0.611764
H116	H	1.901784	-0.350399	-0.111764
H117	H	1.627218	-1.070234	-0.386819
H118	H	2.127218	-0.570234	0.113181
N119	N	1.370244	-1.077831	-0.643432
N120	N	1.870244	-0.577831	-0.143432
N121	N	1.312607	-1.045082	-0.700963
N122	N	1.812607	-0.545082	-0.200963
H123	H	1.262688	-1.071535	-0.750814
H124	H	1.762688	-0.571535	-0.250814
N125	N	1.379594	-0.929579	-0.634007
N126	N	1.879594	-0.429579	-0.134007
N127	N	1.317834	-0.962338	-0.695702
N128	N	1.817834	-0.462338	-0.195702
H129	H	1.271255	-0.935893	-0.742202
H130	H	1.771255	-0.435893	-0.242202
H131	H	1.611763	-0.258982	-0.915847
H132	H	2.111763	0.241018	-0.415847
N133	N	1.327608	-0.746349	-0.685741
N134	N	1.827608	-0.246349	-0.185741
N135	N	1.258458	-0.787335	-0.651520
N136	N	1.758458	-0.287335	-0.151520
H137	H	1.208548	-0.813803	-0.701366
H138	H	1.708548	-0.313803	-0.201366
N139	N	1.417653	-0.384001	-1.084236
N140	N	1.917653	0.115999	-0.584236
N141	N	1.321518	-0.379337	-1.096044
N142	N	1.821518	0.120663	-0.596044
H143	H	1.271232	-0.411716	-1.058631
H144	H	1.771232	0.088284	-0.558631
N145	N	1.336947	-0.598073	-0.676322
N146	N	1.836947	-0.098073	-0.176322
N147	N	1.275189	-0.630827	-0.738025
N148	N	1.775189	-0.130827	-0.238025
H149	H	1.228617	-0.604379	-0.784527
H150	H	1.728617	-0.104379	-0.284527
N151	N	1.626271	-0.249636	-1.135725
N152	N	2.126271	0.250364	-0.635725
N153	N	1.626202	-0.249678	-1.233169
N154	N	2.126202	0.250322	-0.733169
H155	H	1.676475	-0.217297	-1.270596
H156	H	2.176475	0.282703	-0.770596
N157	N	1.417635	-0.384042	-0.972326
N158	N	1.917635	0.115958	-0.472326
N159	N	1.355329	-0.424181	-0.926228
N160	N	1.855329	0.075819	-0.426228
H161	H	1.305072	-0.456552	-0.967706
H162	H	1.805072	0.043448	-0.467706
