data_functionalizedCrystal
_audit_creation_method	'MofGen! by Chris Wilmer'
_symmetry_space_group_name_H-M	'P1'
_symmetry_Int_Tables_number	1
_symmetry_cell_setting	triclinic
loop_
_symmetry_equiv_pos_as_xyz
  x,y,z
_cell_length_a	42.795324
_cell_length_b	42.779590
_cell_length_c	42.784893
_cell_angle_alpha	119.999958
_cell_angle_beta	89.999502
_cell_angle_gamma	120.012002
loop_
_atom_site_label
_atom_site_type_symbol
_atom_site_fract_x
_atom_site_fract_y
_atom_site_fract_z
O1	O	0.214288	-0.275767	-0.009302
O2	O	0.168865	-0.211747	0.009251
O3	O	0.168848	-0.275766	-0.054754
O4	O	0.214305	-0.211749	0.054703
O5	O	0.220834	-0.223766	-0.054750
O6	O	0.220851	-0.159748	0.009256
O7	O	0.266274	-0.223767	-0.009298
Zn8	Zn	0.251816	-0.183501	-0.000020
Zn9	Zn	0.183323	-0.252013	-0.000027
O10	O	0.266291	-0.159749	0.054707
C11	C	0.079112	0.005332	0.028111
C12	C	0.098001	-0.013389	0.028378
C13	C	0.022515	-0.051278	0.028115
C14	C	0.041490	-0.069913	0.028382
C15	C	0.079101	-0.051276	0.028117
C16	C	0.041502	-0.013390	0.028377
C17	C	0.113690	0.131594	0.017853
C18	C	0.131508	0.167354	0.014952
C19	C	0.168778	0.185293	0.013497
C20	C	0.188096	0.224062	0.010345
C21	C	0.188230	0.167471	0.014946
C22	C	0.170415	0.131717	0.017851
C23	C	0.133143	0.113778	0.019304
C24	C	0.170748	-0.096092	0.017875
C25	C	0.188679	-0.116808	0.014980
C26	C	0.169338	-0.155545	0.013527
C27	C	0.188774	-0.178013	0.010383
C28	C	0.132063	-0.173563	0.014974
C29	C	0.114135	-0.152845	0.017876
C30	C	0.133481	-0.114107	0.019324
C31	C	-0.113950	-0.096099	0.017868
C32	C	-0.152599	-0.116819	0.014967
C33	C	-0.171992	-0.155557	0.013515
C34	C	-0.213898	-0.178026	0.010367
C35	C	-0.152736	-0.173573	0.014962
C36	C	-0.114089	-0.152853	0.017862
C37	C	-0.094697	-0.114113	0.019318
C38	C	0.113826	0.075006	0.022451
C39	C	0.098429	0.044102	0.024961
C40	C	-0.019389	-0.073744	0.024969
C41	C	-0.052791	-0.091650	0.022463
C42	C	0.098540	-0.073741	0.024972
C43	C	0.114037	-0.091646	0.022467
O44	O	-0.337150	-0.223779	-0.009306
O45	O	-0.227709	-0.159761	0.009240
O46	O	-0.291712	-0.223787	-0.054762
O47	O	-0.273148	-0.159752	0.054696
O48	O	-0.291723	-0.275780	-0.054757
O49	O	-0.227720	-0.211754	0.009245
O50	O	-0.337161	-0.275772	-0.009301
Zn51	Zn	-0.282442	-0.252018	-0.000027
Zn52	Zn	-0.282428	-0.183515	-0.000034
O53	O	-0.273158	-0.211745	0.054701
C54	C	0.079020	-0.384495	-0.361620
C55	C	0.041403	-0.422387	-0.380519
C56	C	0.079020	-0.384496	-0.305021
C57	C	0.041403	-0.422387	-0.324007
C58	C	0.022420	-0.441111	-0.361624
C59	C	0.097917	-0.365858	-0.324003
C60	C	0.170704	-0.282540	-0.396173
C61	C	0.188645	-0.261696	-0.413986
C62	C	0.169305	-0.279587	-0.451262
C63	C	0.188754	-0.256985	-0.470575
C64	C	0.132024	-0.318325	-0.470726
C65	C	0.114087	-0.339168	-0.452914
C66	C	0.133429	-0.321274	-0.415636
C67	C	-0.114068	-0.567387	-0.453312
C68	C	-0.152719	-0.603152	-0.471255
C69	C	-0.172111	-0.621093	-0.451918
C70	C	-0.214020	-0.659866	-0.471366
C71	C	-0.152845	-0.603268	-0.414636
C72	C	-0.114193	-0.567510	-0.396697
C73	C	-0.094807	-0.549569	-0.416039
C74	C	0.170703	-0.282540	-0.168527
C75	C	0.188643	-0.261694	-0.129872
C76	C	0.169303	-0.279584	-0.110483
C77	C	0.188752	-0.256982	-0.068571
C78	C	0.132023	-0.318318	-0.129750
C79	C	0.114085	-0.339162	-0.168404
C80	C	0.133430	-0.321271	-0.187790
C81	C	0.113975	-0.343877	-0.396325
C82	C	0.098470	-0.361893	-0.380931
C83	C	0.098470	-0.361893	-0.263110
C84	C	0.113975	-0.343877	-0.229703
C85	C	-0.019490	-0.479884	-0.381076
C86	C	-0.052896	-0.510792	-0.396582
C87	C	0.356010	-0.440874	-0.028197
C88	C	0.393621	-0.422150	-0.028460
C89	C	0.356026	-0.384258	-0.028191
C90	C	0.393638	-0.365620	-0.028454
C91	C	0.412610	-0.384259	-0.028192
C92	C	0.337123	-0.422149	-0.028459
C93	C	0.264318	-0.567153	-0.017962
C94	C	0.246372	-0.602918	-0.015069
C95	C	0.265702	-0.620859	-0.013616
C96	C	0.246248	-0.659634	-0.010471
C97	C	0.302978	-0.603035	-0.015061
C98	C	0.320918	-0.567276	-0.017959
C99	C	0.301587	-0.549335	-0.019410
C100	C	0.549075	-0.339439	-0.017942
C101	C	0.587723	-0.318722	-0.015043
C102	C	0.607121	-0.279980	-0.013583
C103	C	0.649026	-0.257510	-0.010435
C104	C	0.587865	-0.261960	-0.015027
C105	C	0.549217	-0.282680	-0.017933
C106	C	0.529825	-0.321422	-0.019388
C107	C	0.264384	-0.339434	-0.017940
C108	C	0.246456	-0.318712	-0.015035
C109	C	0.265802	-0.279970	-0.013577
C110	C	0.246366	-0.257499	-0.010426
C111	C	0.303076	-0.261951	-0.015020
C112	C	0.321002	-0.282673	-0.017923
C113	C	0.301651	-0.321417	-0.019386
C114	C	0.321046	-0.510557	-0.022550
C115	C	0.336555	-0.479648	-0.025054
C116	C	0.336589	-0.361790	-0.025042
C117	C	0.321094	-0.343882	-0.022533
C118	C	0.454516	-0.361792	-0.025043
C119	C	0.487918	-0.343885	-0.022535
O120	O	0.266145	0.327673	-0.009342
O121	O	0.220686	0.236755	0.009214
O122	O	0.220680	0.236741	-0.054792
O123	O	0.266150	0.327687	0.054665
O124	O	0.168708	0.236740	-0.054793
O125	O	0.168714	0.236754	0.009213
O126	O	0.214173	0.327672	-0.009343
Zn127	Zn	0.183192	0.282213	-0.000065
Zn128	Zn	0.251667	0.282214	-0.000063
O129	O	0.214178	0.327686	0.054663
O130	O	-0.337289	-0.763491	-0.496919
O131	O	-0.227839	-0.672559	-0.451462
O132	O	-0.291823	-0.672558	-0.451460
O133	O	-0.273306	-0.763492	-0.496921
O134	O	-0.291824	-0.672559	-0.503445
O135	O	-0.227841	-0.672560	-0.503447
O136	O	-0.337290	-0.763492	-0.548904
Zn137	Zn	-0.282566	-0.718026	-0.534429
Zn138	Zn	-0.282564	-0.718025	-0.465937
O139	O	-0.273307	-0.763493	-0.548906
O140	O	0.214310	-0.211744	-0.548617
O141	O	0.168849	-0.275765	-0.503172
O142	O	0.168867	-0.211745	-0.503165
O143	O	0.214291	-0.275764	-0.548624
O144	O	0.220852	-0.159746	-0.451176
O145	O	0.220833	-0.223766	-0.451183
O146	O	0.266294	-0.159746	-0.496628
Zn147	Zn	0.251818	-0.183500	-0.465651
Zn148	Zn	0.183325	-0.252010	-0.534149
O149	O	0.266276	-0.223766	-0.496635
C150	C	0.412477	0.005353	0.361577
C151	C	0.393494	-0.013370	0.380472
C152	C	0.355877	-0.051262	0.304974
C153	C	0.336979	-0.069900	0.323956
C154	C	0.355877	-0.051261	0.361573
C155	C	0.393493	-0.013371	0.323960
C156	C	0.548964	0.131630	0.396146
C157	C	0.587616	0.167395	0.413963
C158	C	0.607006	0.185335	0.451239
C159	C	0.648917	0.224109	0.470557
C160	C	0.587740	0.167511	0.470699
C161	C	0.549090	0.131753	0.452884
C162	C	0.529702	0.113812	0.415606
C163	C	0.321313	-0.096082	0.453249
C164	C	0.303498	-0.116799	0.471188
C165	C	0.266223	-0.155540	0.451847
C166	C	0.246905	-0.178010	0.471291
C167	C	0.246762	-0.173560	0.414565
C168	C	0.264574	-0.152839	0.396630
C169	C	0.301854	-0.114098	0.415976
C170	C	0.321310	-0.096084	0.168484
C171	C	0.303496	-0.116806	0.129829
C172	C	0.266220	-0.155546	0.110436
C173	C	0.246903	-0.178017	0.068524
C174	C	0.246761	-0.173566	0.129699
C175	C	0.264577	-0.152844	0.168353
C176	C	0.301852	-0.114100	0.187743
C177	C	0.487792	0.075035	0.396290
C178	C	0.454386	0.044127	0.380893
C179	C	0.336561	-0.073729	0.263063
C180	C	0.321165	-0.091637	0.229656
C181	C	0.336562	-0.073728	0.381020
C182	C	0.321167	-0.091635	0.396523
C183	C	-0.310622	-0.440908	-0.361624
C184	C	-0.310882	-0.422188	-0.380524
C185	C	-0.310612	-0.384291	-0.305026
C186	C	-0.310872	-0.365658	-0.324013
C187	C	-0.310610	-0.384299	-0.361629
C188	C	-0.310883	-0.422180	-0.324007
C189	C	-0.300402	-0.567174	-0.396174
C190	C	-0.297512	-0.602937	-0.413986
C191	C	-0.296060	-0.620881	-0.451262
C192	C	-0.292920	-0.659653	-0.470575
C193	C	-0.297502	-0.603061	-0.470726
C194	C	-0.300397	-0.567304	-0.452916
C195	C	-0.301847	-0.549361	-0.415638
C196	C	-0.300354	-0.339495	-0.453317
C197	C	-0.297452	-0.318782	-0.471260
C198	C	-0.295989	-0.280043	-0.451923
C199	C	-0.292838	-0.257577	-0.471372
C200	C	-0.297432	-0.262020	-0.414643
C201	C	-0.300340	-0.282736	-0.396703
C202	C	-0.301799	-0.321475	-0.416044
C203	C	-0.300361	-0.339454	-0.168533
C204	C	-0.297457	-0.318730	-0.129878
C205	C	-0.295995	-0.279991	-0.110491
C206	C	-0.292844	-0.257517	-0.068578
C207	C	-0.297435	-0.261976	-0.129758
C208	C	-0.300338	-0.282700	-0.168411
C209	C	-0.301805	-0.321443	-0.187797
C210	C	-0.304982	-0.510586	-0.396327
C211	C	-0.307483	-0.479679	-0.380934
C212	C	-0.307462	-0.361820	-0.263116
C213	C	-0.304953	-0.343910	-0.229709
C214	C	-0.307459	-0.361837	-0.381081
C215	C	-0.304948	-0.343934	-0.396587
C216	C	-0.254260	-0.050989	0.361568
C217	C	-0.253988	-0.013100	0.380462
C218	C	-0.254259	-0.050997	0.304965
C219	C	-0.253987	-0.013108	0.323946
C220	C	-0.254249	0.005619	0.361562
C221	C	-0.253998	-0.069630	0.323951
C222	C	-0.264525	-0.152928	0.396140
C223	C	-0.267427	-0.173767	0.413957
C224	C	-0.268878	-0.155873	0.451233
C225	C	-0.272031	-0.178470	0.470551
C226	C	-0.267425	-0.117137	0.470691
C227	C	-0.264519	-0.096299	0.452876
C228	C	-0.263069	-0.114196	0.415598
C229	C	-0.264471	0.131893	0.453234
C230	C	-0.267361	0.167657	0.471172
C231	C	-0.268813	0.185592	0.451830
C232	C	-0.271952	0.224364	0.471273
C233	C	-0.267370	0.167764	0.414549
C234	C	-0.264473	0.132008	0.396615
C235	C	-0.263026	0.114072	0.415962
C236	C	-0.264520	-0.152961	0.168477
C237	C	-0.267425	-0.173811	0.129822
C238	C	-0.268875	-0.155925	0.110429
C239	C	-0.272026	-0.178531	0.068517
C240	C	-0.267424	-0.117193	0.129691
C241	C	-0.264521	-0.096346	0.168344
C242	C	-0.263065	-0.114232	0.187735
C243	C	-0.259921	-0.091599	0.396282
C244	C	-0.257411	-0.073586	0.380884
C245	C	-0.257408	-0.073603	0.263055
C246	C	-0.259918	-0.091622	0.229647
C247	C	-0.257388	0.044391	0.381009
C248	C	-0.259889	0.075297	0.396510
C249	C	0.022478	-0.051362	-0.361660
C250	C	0.041451	-0.070002	-0.380558
C251	C	0.079081	0.005260	-0.305060
C252	C	0.097967	-0.013466	-0.324043
C253	C	0.079063	-0.051362	-0.361660
C254	C	0.041468	-0.013467	-0.324044
C255	C	-0.113988	-0.096187	-0.396223
C256	C	-0.152637	-0.116906	-0.414038
C257	C	-0.172033	-0.155651	-0.451314
C258	C	-0.213941	-0.178123	-0.470630
C259	C	-0.152778	-0.173673	-0.470775
C260	C	-0.114131	-0.152950	-0.452962
C261	C	-0.094736	-0.114205	-0.415684
C262	C	0.113586	-0.153326	-0.453339
C263	C	0.131390	-0.174172	-0.471279
C264	C	0.168660	-0.156282	-0.451940
C265	C	0.187965	-0.178882	-0.471386
C266	C	0.188127	-0.117540	-0.414659
C267	C	0.170327	-0.096692	-0.396722
C268	C	0.133052	-0.114591	-0.416067
C269	C	0.113673	0.131553	-0.168569
C270	C	0.131493	0.167320	-0.129914
C271	C	0.168765	0.185263	-0.110524
C272	C	0.188088	0.224042	-0.068611
C273	C	0.188214	0.167436	-0.129788
C274	C	0.170392	0.131669	-0.168441
C275	C	0.133122	0.113733	-0.187830
C276	C	-0.052831	-0.091740	-0.396370
C277	C	-0.019427	-0.073831	-0.380974
C278	C	0.098402	0.044039	-0.263149
C279	C	0.113803	0.074951	-0.229742
C280	C	0.098365	-0.073966	-0.381109
C281	C	0.113751	-0.091984	-0.396613
O282	O	-0.273124	-0.159827	-0.496921
O283	O	-0.291693	-0.223838	-0.451465
O284	O	-0.227688	-0.159834	-0.451470
O285	O	-0.337129	-0.223831	-0.496916
O286	O	-0.227714	-0.211845	-0.503460
O287	O	-0.291719	-0.275849	-0.503455
O288	O	-0.273150	-0.211838	-0.548911
Zn289	Zn	-0.282439	-0.252102	-0.534437
Zn290	Zn	-0.282404	-0.183575	-0.465939
O291	O	-0.337155	-0.275842	-0.548906
C292	C	0.356042	0.615789	0.361531
C293	C	0.393655	0.634429	0.380429
C294	C	0.356024	0.559167	0.304931
C295	C	0.393637	0.577893	0.323915
C296	C	0.412627	0.615789	0.361531
C297	C	0.337138	0.577893	0.323915
C298	C	0.264400	0.660614	0.396093
C299	C	0.246470	0.681333	0.413908
C300	C	0.265818	0.720078	0.451184
C301	C	0.246382	0.742551	0.470499
C302	C	0.303094	0.738100	0.470645
C303	C	0.321019	0.717377	0.452832
C304	C	0.301670	0.678632	0.415554
C305	C	0.549111	0.717753	0.453212
C306	C	0.587760	0.738598	0.471152
C307	C	0.607141	0.720708	0.451813
C308	C	0.649046	0.743309	0.471259
C309	C	0.587868	0.681966	0.414532
C310	C	0.549219	0.661118	0.396595
C311	C	0.529843	0.679018	0.415939
C312	C	0.264327	0.432873	0.168440
C313	C	0.246381	0.397107	0.129785
C314	C	0.265711	0.379164	0.110395
C315	C	0.246256	0.340385	0.068483
C316	C	0.302986	0.396991	0.129660
C317	C	0.320930	0.432757	0.168313
C318	C	0.301595	0.450694	0.187701
C319	C	0.321110	0.656167	0.396240
C320	C	0.336605	0.638258	0.380845
C321	C	0.336568	0.520388	0.263021
C322	C	0.321057	0.489476	0.229614
C323	C	0.454533	0.638393	0.380981
C324	C	0.487936	0.656411	0.396485
H325	H	0.186256	0.117211	0.019032
H326	H	0.533406	0.117245	0.468731
H327	H	0.351368	0.732053	0.468679
H328	H	-0.168311	-0.102230	-0.398191
H329	H	-0.268546	0.182372	0.398803
O330	O	0.606277	0.184713	0.395046
C331	C	0.609309	0.219784	0.364134
C332	C	0.588134	0.200171	0.385541
H333	H	0.594654	0.232295	0.356450
H334	H	0.608705	0.193196	0.336854
H335	H	0.640266	0.248410	0.383276
H336	H	0.557169	0.171550	0.366431
H337	H	0.588769	0.226786	0.412825
H338	H	0.026270	0.002282	0.028804
H339	H	0.026246	-0.100399	0.028812
O340	O	0.224847	-0.224055	-0.111095
C341	C	0.277584	-0.166866	-0.051608
C342	C	0.236577	-0.209482	-0.072823
H343	H	0.287083	-0.155077	-0.020664
H344	H	0.278275	-0.140166	-0.052167
H345	H	0.297763	-0.173827	-0.066301
H346	H	0.216374	-0.202564	-0.058147
H347	H	0.235917	-0.236169	-0.072267
H348	H	0.116316	-0.205101	0.013796
O349	O	-0.263093	0.114731	0.360396
C350	C	-0.263385	0.118625	0.306134
C351	C	-0.264958	0.138228	0.347148
H352	H	-0.264884	0.137620	0.295414
H353	H	-0.288612	0.082350	0.286535
H354	H	-0.235463	0.121413	0.306102
H355	H	-0.292863	0.135472	0.347218
H356	H	-0.239712	0.174495	0.366730
H357	H	-0.296246	-0.230480	-0.398900
O358	O	-0.171557	-0.211294	-0.506990
C359	C	-0.167626	-0.265426	-0.561375
C360	C	-0.146311	-0.222811	-0.520365
H361	H	-0.147226	-0.274755	-0.572198
H362	H	-0.178672	-0.259751	-0.580923
H363	H	-0.192773	-0.293340	-0.561353
H364	H	-0.121149	-0.194877	-0.520350
H365	H	-0.135294	-0.228522	-0.500835
H366	H	0.186457	-0.267967	-0.365821
O367	O	0.357518	-0.058440	0.472102
C368	C	0.411919	-0.004341	0.530149
C369	C	0.370916	-0.046965	0.508847
H370	H	0.422767	0.004944	0.559858
H371	H	0.411932	0.023610	0.532963
H372	H	0.431424	-0.010042	0.513379
H373	H	0.351388	-0.041307	0.525598
H374	H	0.370934	-0.074902	0.506028
O375	O	-0.095401	-0.170445	-0.471805
C376	C	-0.060585	-0.200824	-0.472530
C377	C	-0.081779	-0.181007	-0.451147
H378	H	-0.049573	-0.209377	-0.455840
H379	H	-0.035432	-0.175735	-0.475362
H380	H	-0.081086	-0.232062	-0.502236
H381	H	-0.061308	-0.149774	-0.421430
H382	H	-0.106937	-0.206125	-0.448345
H383	H	-0.301583	-0.552569	-0.365822
O384	O	0.113287	-0.335633	-0.506925
C385	C	0.115837	-0.328633	-0.559521
C386	C	0.137099	-0.308976	-0.518519
H387	H	0.135083	-0.307095	-0.568909
H388	H	0.088595	-0.329866	-0.560254
H389	H	0.108098	-0.363513	-0.579764
H390	H	0.144864	-0.274089	-0.498251
H391	H	0.164324	-0.307776	-0.517816
O392	O	0.606636	0.184978	0.506898
C393	C	0.666231	0.240136	0.559497
C394	C	0.644881	0.220393	0.518496
H395	H	0.697154	0.268779	0.568889
H396	H	0.665724	0.213613	0.560227
H397	H	0.651610	0.252650	0.579740
H398	H	0.659485	0.207882	0.498229
H399	H	0.645385	0.246931	0.517797
O400	O	-0.311462	-0.440927	-0.305858
C401	C	-0.345183	-0.505886	-0.305746
C402	C	-0.344581	-0.484711	-0.326336
H403	H	-0.371953	-0.541292	-0.322299
H404	H	-0.345350	-0.486011	-0.275550
H405	H	-0.318673	-0.506039	-0.304160
H406	H	-0.371086	-0.484554	-0.327952
H407	H	-0.344394	-0.504593	-0.356520
O408	O	0.606765	-0.224316	-0.013592
C409	C	0.666360	-0.167254	-0.009138
C410	C	0.645004	-0.209879	-0.010753
H411	H	0.697278	-0.155574	-0.006850
H412	H	0.665868	-0.140497	0.016879
H413	H	0.651733	-0.174154	-0.036277
H414	H	0.659614	-0.203022	0.016367
H415	H	0.645493	-0.236622	-0.036787
O416	O	0.245622	0.622942	0.359904
C417	C	0.220888	0.545786	0.318964
C418	C	0.242163	0.588419	0.359963
H419	H	0.218078	0.517862	0.318999
H420	H	0.237631	0.551443	0.299425
H421	H	0.191177	0.536486	0.308119
H422	H	0.271875	0.597744	0.370843
H423	H	0.225391	0.582739	0.379477
H424	H	0.248730	-0.167518	0.184034
O425	O	0.224850	-0.224060	-0.395018
C426	C	0.279121	-0.170104	-0.336868
C427	C	0.238117	-0.212724	-0.358302
H428	H	0.289863	-0.160931	-0.307182
H429	H	0.279185	-0.142101	-0.333993
H430	H	0.298683	-0.175747	-0.353575
H431	H	0.218532	-0.207125	-0.341613
H432	H	0.238084	-0.240713	-0.361180
H433	H	0.533181	0.117027	0.365794
O434	O	0.189190	-0.059044	-0.360521
C435	C	0.186900	-0.001842	-0.307793
C436	C	0.165497	-0.044471	-0.348794
H437	H	0.167751	0.009949	-0.298296
H438	H	0.214149	0.024852	-0.307120
H439	H	0.194639	-0.008786	-0.287597
H440	H	0.157731	-0.037570	-0.369014
H441	H	0.138264	-0.071151	-0.349436
H442	H	0.408867	0.562219	0.308672
H443	H	-0.098510	-0.553001	-0.366344
O444	O	-0.268785	0.184900	0.507374
C445	C	-0.268472	0.181020	0.561643
C446	C	-0.266859	0.161447	0.520644
H447	H	-0.266907	0.162073	0.572387
H448	H	-0.296408	0.178196	0.561689
H449	H	-0.243264	0.217307	0.581218
H450	H	-0.292047	0.125155	0.501046
H451	H	-0.238907	0.164306	0.520629
H452	H	0.351659	-0.064533	0.184271
O453	O	-0.268860	-0.099829	0.506889
C454	C	-0.273321	-0.106827	0.559485
C455	C	-0.271705	-0.126482	0.518487
H456	H	-0.275614	-0.128363	0.568877
H457	H	-0.299333	-0.105600	0.560210
H458	H	-0.246184	-0.071945	0.579731
H459	H	-0.298824	-0.161372	0.498217
H460	H	-0.245677	-0.127676	0.517792
H461	H	0.219028	-0.102135	0.013802
H462	H	-0.263337	-0.064808	0.184025
H463	H	0.319345	-0.102125	0.501541
H464	H	0.116274	-0.332884	-0.113961
O465	O	0.411803	0.670836	0.417287
C466	C	0.407602	0.724605	0.471745
C467	C	0.387001	0.683372	0.430009
H468	H	0.387555	0.734748	0.482046
H469	H	0.434272	0.752866	0.473482
H470	H	0.416223	0.716708	0.490617
H471	H	0.378353	0.691226	0.411113
H472	H	0.360347	0.655123	0.428303
O473	O	0.411723	0.005389	0.305839
C474	C	0.469688	0.064091	0.310068
C475	C	0.449086	0.042899	0.330637
H476	H	0.499902	0.094416	0.330105
H477	H	0.453199	0.074393	0.301488
H478	H	0.471220	0.039131	0.283369
H479	H	0.447549	0.067836	0.357349
H480	H	0.465582	0.032588	0.339188
H481	H	0.026162	-0.438052	-0.308764
H482	H	0.128905	0.002286	0.028809
H483	H	0.318829	-0.230404	-0.013832
O484	O	0.300254	0.559120	0.305707
C485	C	0.235196	0.494164	0.274518
C486	C	0.276951	0.515368	0.295125
H487	H	0.216343	0.458790	0.265963
H488	H	0.233418	0.493930	0.247808
H489	H	0.224912	0.514088	0.294554
H490	H	0.287261	0.495461	0.275119
H491	H	0.278705	0.515608	0.321840
O492	O	-0.301788	-0.377135	-0.472166
C493	C	-0.301480	-0.431235	-0.530207
C494	C	-0.299862	-0.388613	-0.508911
H495	H	-0.299916	-0.440523	-0.559917
H496	H	-0.329418	-0.459187	-0.533021
H497	H	-0.276274	-0.425530	-0.513435
H498	H	-0.325049	-0.394275	-0.525665
H499	H	-0.271908	-0.360676	-0.506093
O500	O	-0.253424	0.005656	0.305819
C501	C	-0.219671	0.070603	0.305690
C502	C	-0.220266	0.049411	0.326261
H503	H	-0.192861	0.105979	0.322204
H504	H	-0.246145	0.070827	0.304135
H505	H	-0.219555	0.050675	0.275482
H506	H	-0.220369	0.069321	0.356478
H507	H	-0.193793	0.049180	0.327785
O508	O	0.189305	0.114356	-0.187100
C509	C	0.220220	0.079305	-0.190116
C510	C	0.198813	0.098907	-0.168945
H511	H	0.227906	0.066800	-0.175452
H512	H	0.247495	0.105897	-0.189516
H513	H	0.201081	0.050675	-0.221076
H514	H	0.217921	0.127531	-0.137977
H515	H	0.171534	0.072288	-0.169577
H516	H	0.218476	-0.102970	-0.398914
O517	O	-0.268820	-0.099864	0.110802
C518	C	-0.273316	-0.106899	0.051193
C519	C	-0.271728	-0.126564	0.072540
H520	H	-0.275675	-0.128482	0.020252
H521	H	-0.246168	-0.072032	0.065778
H522	H	-0.299310	-0.105640	0.051743
H523	H	-0.245751	-0.127854	0.071997
H524	H	-0.298894	-0.161419	0.057948
O525	O	0.210163	-0.620292	-0.013673
C526	C	0.157449	-0.675310	-0.009180
C527	C	0.198452	-0.655685	-0.010769
H528	H	0.147971	-0.703922	-0.006824
H529	H	0.137226	-0.687820	-0.036330
H530	H	0.156804	-0.648690	0.016819
H531	H	0.199134	-0.682281	-0.036750
H532	H	0.218656	-0.643163	0.016399
O533	O	0.210560	-0.211202	0.395825
C534	C	0.157960	-0.268262	0.398371
C535	C	0.198963	-0.225639	0.419635
H536	H	0.148569	-0.279942	0.417615
H537	H	0.157217	-0.295020	0.371120
H538	H	0.137728	-0.261359	0.390642
H539	H	0.219219	-0.232499	0.427390
H540	H	0.199675	-0.198894	0.446870
H541	H	0.351267	-0.552767	-0.019137
O542	O	0.321825	0.379627	0.110879
C543	C	0.379854	0.383271	0.114844
C544	C	0.358567	0.402982	0.136155
H545	H	0.409560	0.402139	0.135273
H546	H	0.382666	0.386073	0.089711
H547	H	0.363080	0.346982	0.103777
H548	H	0.375322	0.439277	0.147247
H549	H	0.355750	0.400146	0.161270
H550	H	0.218564	0.182049	-0.113999
O551	O	0.077912	-0.170336	0.019234
C552	C	0.012713	-0.200724	-0.010412
C553	C	0.053721	-0.180911	-0.011988
H554	H	-0.006858	-0.209288	-0.035656
H555	H	0.012652	-0.175629	0.017505
H556	H	0.001982	-0.231956	-0.011929
H557	H	0.064477	-0.149685	-0.010487
H558	H	0.053758	-0.206035	-0.039903
H559	H	-0.296277	-0.333458	-0.501613
O560	O	-0.296054	-0.620242	-0.395099
C561	C	-0.259881	-0.636321	-0.370164
C562	C	-0.261488	-0.616720	-0.391568
H563	H	-0.231934	-0.633472	-0.367296
H564	H	-0.285080	-0.672612	-0.386852
H565	H	-0.261433	-0.617360	-0.340472
H566	H	-0.259925	-0.635647	-0.421261
H567	H	-0.236292	-0.580426	-0.374851
O568	O	0.112663	0.184740	0.013613
C569	C	0.111999	0.249263	0.043231
C570	C	0.133368	0.229621	0.044796
H571	H	0.128734	0.285555	0.068435
H572	H	0.082303	0.230345	0.044793
H573	H	0.109151	0.246436	0.015286
H574	H	0.136245	0.232444	0.072736
H575	H	0.163051	0.248543	0.043213
O576	O	0.077492	0.114237	0.019281
C577	C	0.023106	0.117880	0.018962
C578	C	0.064101	0.137586	0.017351
H579	H	0.012264	0.136743	0.017394
H580	H	0.023103	0.120693	0.046902
H581	H	0.003589	0.081587	-0.006248
H582	H	0.083641	0.173884	0.042541
H583	H	0.064073	0.134738	-0.010606
H584	H	-0.311314	-0.437866	-0.411432
H585	H	0.083734	-0.370708	-0.468764
H586	H	-0.098412	-0.167525	0.019042
O587	O	0.210166	0.379831	0.111135
C588	C	0.155921	0.383730	0.115334
C589	C	0.196932	0.403333	0.136503
H590	H	0.145212	0.402729	0.135832
H591	H	0.136321	0.347456	0.104296
H592	H	0.155881	0.386510	0.090189
H593	H	0.197009	0.400585	0.161662
H594	H	0.216515	0.439598	0.147513
O595	O	0.357161	0.450138	0.187027
C596	C	0.422356	0.514648	0.221900
C597	C	0.381343	0.495016	0.200709
H598	H	0.441918	0.550936	0.232975
H599	H	0.433121	0.495716	0.201416
H600	H	0.422385	0.511829	0.247023
H601	H	0.381282	0.497830	0.175587
H602	H	0.370595	0.513951	0.221218
O603	O	-0.301721	-0.265161	-0.360485
C604	C	-0.301417	-0.206691	-0.306229
C605	C	-0.299844	-0.226543	-0.347242
H606	H	-0.299908	-0.175470	-0.295513
H607	H	-0.276196	-0.198125	-0.286626
H608	H	-0.329343	-0.231804	-0.306194
H609	H	-0.271934	-0.201451	-0.347313
H610	H	-0.325084	-0.235119	-0.366827
H611	H	0.408852	-0.437823	-0.028887
O612	O	0.112553	0.184595	-0.111263
C613	C	0.054407	0.180691	-0.115462
C614	C	0.075816	0.161091	-0.136631
H615	H	0.024698	0.161691	-0.135960
H616	H	0.071078	0.216965	-0.104422
H617	H	0.051586	0.177909	-0.090318
H618	H	0.078641	0.163841	-0.161790
H619	H	0.059136	0.124825	-0.147642
H620	H	0.083237	-0.167902	-0.469093
O621	O	0.112418	-0.211813	-0.507484
C622	C	0.054267	-0.265777	-0.561754
C623	C	0.075707	-0.223151	-0.520752
H624	H	0.024586	-0.274952	-0.572497
H625	H	0.051391	-0.293776	-0.561806
H626	H	0.070968	-0.260142	-0.581326
H627	H	0.059025	-0.228743	-0.501156
H628	H	0.078588	-0.195166	-0.520730
O629	O	0.530465	0.623444	0.360410
C630	C	0.478160	0.546243	0.319389
C631	C	0.499368	0.588874	0.360389
H632	H	0.453010	0.518284	0.319358
H633	H	0.498625	0.536997	0.308636
H634	H	0.467130	0.551898	0.299814
H635	H	0.510400	0.583252	0.379994
H636	H	0.478889	0.598106	0.371112
O637	O	0.606660	0.664569	0.395687
C638	C	0.627308	0.643365	0.340699
C639	C	0.606009	0.663065	0.361997
H640	H	0.626796	0.642151	0.313460
H641	H	0.612689	0.608482	0.332953
H642	H	0.658235	0.664910	0.359933
H643	H	0.575081	0.641554	0.342784
H644	H	0.620658	0.697954	0.369749
H645	H	0.306072	-0.100390	0.308712
O646	O	0.357188	-0.265246	-0.019383
C647	C	0.398185	-0.276508	-0.055565
C648	C	0.357188	-0.296302	-0.053957
H649	H	0.398197	-0.301604	-0.083520
H650	H	0.417773	-0.267998	-0.030368
H651	H	0.408931	-0.245251	-0.054007
H652	H	0.346407	-0.327571	-0.055527
H653	H	0.337625	-0.304780	-0.079151
O654	O	-0.171624	-0.211193	0.013568
C655	C	-0.231225	-0.268277	0.009084
C656	C	-0.209880	-0.225673	0.010666
H657	H	-0.262160	-0.280002	0.006729
H658	H	-0.216639	-0.261390	0.036235
H659	H	-0.230681	-0.294999	-0.016914
H660	H	-0.210417	-0.198931	0.036647
H661	H	-0.224472	-0.232596	-0.016503
O662	O	0.245615	-0.170349	0.360437
C663	C	0.190508	-0.191676	0.318654
C664	C	0.211935	-0.171849	0.359657
H665	H	0.163277	-0.192887	0.318012
H666	H	0.182743	-0.226572	0.298436
H667	H	0.209659	-0.170215	0.309162
H668	H	0.192805	-0.193275	0.369185
H669	H	0.219705	-0.136948	0.379850
O670	O	-0.095287	-0.550033	-0.472163
C671	C	-0.099244	-0.553685	-0.530210
C672	C	-0.120559	-0.573388	-0.508910
H673	H	-0.119669	-0.572553	-0.559921
H674	H	-0.074122	-0.556498	-0.533021
H675	H	-0.088164	-0.517394	-0.513442
H676	H	-0.131663	-0.609684	-0.525660
H677	H	-0.145662	-0.570541	-0.506095
O678	O	0.077476	0.114086	-0.187464
C679	C	0.024877	0.058918	-0.247061
C680	C	0.065874	0.078666	-0.225709
H681	H	0.015481	0.030271	-0.277984
H682	H	0.024147	0.085437	-0.246563
H683	H	0.004640	0.046407	-0.232430
H684	H	0.086135	0.091174	-0.240324
H685	H	0.066572	0.052133	-0.226204
H686	H	-0.301509	-0.268028	-0.184095
O687	O	0.210269	0.663782	0.394943
C688	C	0.155994	0.605282	0.336795
C689	C	0.196993	0.625117	0.358226
H690	H	0.145245	0.574012	0.307109
H691	H	0.155943	0.630353	0.333921
H692	H	0.136431	0.596782	0.353504
H693	H	0.216580	0.633616	0.341536
H694	H	0.197014	0.600034	0.361105
O695	O	0.134856	0.005286	-0.305872
C696	C	0.199912	0.070249	-0.274644
C697	C	0.158155	0.049067	-0.295221
H698	H	0.218760	0.105652	-0.266019
H699	H	0.210231	0.050372	-0.294682
H700	H	0.201653	0.070411	-0.247969
H701	H	0.156382	0.048902	-0.321894
H702	H	0.147855	0.068950	-0.275156
H703	H	-0.253588	-0.100125	0.308711
O704	O	0.321839	0.775749	0.506843
C705	C	0.319311	0.832821	0.559438
C706	C	0.298039	0.790189	0.518438
H707	H	0.300075	0.844503	0.568828
H708	H	0.346558	0.859573	0.560167
H709	H	0.327042	0.825929	0.579684
H710	H	0.290282	0.797038	0.498169
H711	H	0.270809	0.763451	0.517741
O712	O	0.210545	-0.211190	0.110812
C713	C	0.157960	-0.268282	0.051204
C714	C	0.198970	-0.225671	0.072548
H715	H	0.148593	-0.280008	0.020262
H716	H	0.137697	-0.261403	0.065789
H717	H	0.157242	-0.295000	0.051754
H718	H	0.199725	-0.198934	0.072005
H719	H	0.219216	-0.232586	0.057957
O720	O	0.530342	0.735184	0.472063
C721	C	0.534320	0.793568	0.530107
C722	C	0.555621	0.773871	0.508808
H723	H	0.554750	0.824855	0.559817
H724	H	0.509190	0.768439	0.532922
H725	H	0.523253	0.802008	0.513337
H726	H	0.566712	0.765432	0.525561
H727	H	0.580732	0.799012	0.505990
H728	H	-0.296322	-0.617675	-0.501076
O729	O	-0.311393	-0.329299	-0.305786
C730	C	-0.312112	-0.275548	-0.247826
C731	C	-0.311529	-0.316726	-0.268423
H732	H	-0.312215	-0.265364	-0.217612
H733	H	-0.338902	-0.283472	-0.264327
H734	H	-0.285621	-0.247302	-0.246284
H735	H	-0.338002	-0.344990	-0.269970
H736	H	-0.284722	-0.308765	-0.251914
H737	H	-0.168275	-0.102147	0.013788
H738	H	-0.098163	-0.064556	0.019052
O739	O	0.023270	-0.441016	-0.417386
C740	C	0.027510	-0.437544	-0.471862
C741	C	0.048088	-0.416396	-0.430110
H742	H	0.047570	-0.417653	-0.482165
H743	H	0.000837	-0.437719	-0.473630
H744	H	0.018896	-0.472941	-0.490711
H745	H	0.056728	-0.380991	-0.411236
H746	H	0.074745	-0.416256	-0.428372
O747	O	0.606534	0.776223	0.507367
C748	C	0.666034	0.833453	0.560080
C749	C	0.644817	0.790839	0.519071
H750	H	0.696992	0.845289	0.569553
H751	H	0.651396	0.826531	0.580307
H752	H	0.665426	0.860108	0.560732
H753	H	0.645419	0.764164	0.518382
H754	H	0.659462	0.797798	0.498862
H755	H	0.248582	0.447477	0.184224
O756	O	0.134785	-0.329476	-0.305869
C757	C	0.189225	-0.275676	-0.310066
C758	C	0.147484	-0.316894	-0.330657
H759	H	0.199502	-0.265485	-0.330096
H760	H	0.208122	-0.283555	-0.301467
H761	H	0.190943	-0.247452	-0.283377
H762	H	0.145730	-0.345137	-0.357359
H763	H	0.128605	-0.308979	-0.339227
O764	O	-0.296079	-0.336299	-0.111225
C765	C	-0.296390	-0.394767	-0.115418
C766	C	-0.297960	-0.374921	-0.136590
H767	H	-0.297901	-0.425991	-0.135915
H768	H	-0.321611	-0.403326	-0.104380
H769	H	-0.268464	-0.369652	-0.090274
H770	H	-0.325869	-0.400014	-0.161750
H771	H	-0.272719	-0.366351	-0.147601
H772	H	0.603398	-0.333395	-0.013865
O773	O	0.224424	0.184937	0.013511
C774	C	0.277018	0.240091	0.009057
C775	C	0.236024	0.220349	0.010670
H776	H	0.286412	0.268731	0.006767
H777	H	0.277744	0.213566	-0.016958
H778	H	0.297259	0.252609	0.036198
H779	H	0.215759	0.207833	-0.016453
H780	H	0.235329	0.246888	0.036702
O781	O	-0.171434	-0.620526	-0.507488
C782	C	-0.206327	-0.685026	-0.572690
C783	C	-0.185133	-0.665406	-0.531677
H784	H	-0.217415	-0.721317	-0.592257
H785	H	-0.185844	-0.666095	-0.583461
H786	H	-0.231437	-0.682196	-0.572708
H787	H	-0.160024	-0.668233	-0.531626
H788	H	-0.205642	-0.684342	-0.520923
H789	H	0.408734	0.002307	0.411383
O790	O	0.245637	-0.377080	-0.019378
C791	C	0.248170	-0.434143	-0.023833
C792	C	0.269438	-0.391518	-0.022218
H793	H	0.267407	-0.445824	-0.026122
H794	H	0.220920	-0.460899	-0.049849
H795	H	0.240444	-0.427242	0.003307
H796	H	0.277190	-0.398377	-0.049340
H797	H	0.296671	-0.364776	0.003815
O798	O	0.023326	-0.106368	-0.417435
C799	C	0.027547	-0.160117	-0.471894
C800	C	0.048119	-0.118929	-0.430136
H801	H	0.047579	-0.170290	-0.482173
H802	H	0.018962	-0.152209	-0.490777
H803	H	0.000854	-0.188364	-0.473638
H804	H	0.074824	-0.090664	-0.428356
H805	H	0.056675	-0.126872	-0.411273
H806	H	0.186456	-0.267968	-0.184309
O807	O	-0.171618	-0.620649	-0.395800
C808	C	-0.167673	-0.616962	-0.337736
C809	C	-0.146362	-0.597247	-0.359030
H810	H	-0.147265	-0.598044	-0.308000
H811	H	-0.178732	-0.653245	-0.354460
H812	H	-0.192810	-0.614175	-0.334976
H813	H	-0.121210	-0.600003	-0.361795
H814	H	-0.135331	-0.560973	-0.342296
O815	O	0.322446	-0.099233	0.111179
C816	C	0.380606	-0.040759	0.115382
C817	C	0.359186	-0.060610	0.136549
H818	H	0.410316	-0.009534	0.135881
H819	H	0.363945	-0.032200	0.104342
H820	H	0.383421	-0.065871	0.090238
H821	H	0.356365	-0.035519	0.161708
H822	H	0.375856	-0.069180	0.147560
O823	O	-0.263130	-0.058688	0.471823
C824	C	-0.263415	-0.004707	0.529981
C825	C	-0.264998	-0.047307	0.508564
H826	H	-0.264917	0.004513	0.559693
H827	H	-0.288636	-0.010341	0.513310
H828	H	-0.235489	0.023264	0.532803
H829	H	-0.292908	-0.075298	0.505737
H830	H	-0.239758	-0.041637	0.525243
O831	O	-0.301851	-0.377129	-0.187399
C832	C	-0.338025	-0.454272	-0.239842
C833	C	-0.336393	-0.411641	-0.218505
H834	H	-0.365946	-0.482184	-0.265000
H835	H	-0.336519	-0.463624	-0.219456
H836	H	-0.312799	-0.448557	-0.250880
H837	H	-0.361614	-0.417323	-0.207465
H838	H	-0.337880	-0.402302	-0.238905
H839	H	-0.301572	-0.552800	-0.468766
O840	O	0.189563	-0.058497	0.019233
C841	C	0.220354	-0.024475	-0.012785
C842	C	0.199061	-0.067078	-0.014366
H843	H	0.228033	-0.031400	-0.039950
H844	H	0.247627	0.002268	0.013205
H845	H	0.201140	-0.012757	-0.010449
H846	H	0.218245	-0.078835	-0.016717
H847	H	0.171784	-0.093793	-0.040352
O848	O	0.077876	-0.376792	-0.187064
C849	C	0.023597	-0.430733	-0.182856
C850	C	0.064607	-0.388124	-0.161681
H851	H	0.012853	-0.439904	-0.162341
H852	H	0.023521	-0.458744	-0.207986
H853	H	0.004043	-0.425077	-0.193915
H854	H	0.084184	-0.393737	-0.150598
H855	H	0.064652	-0.360128	-0.136570
H856	H	-0.296243	-0.230430	-0.113970
H857	H	0.408882	-0.335128	-0.028875
H858	H	0.216107	-0.333385	-0.013858
O859	O	0.300253	-0.440906	-0.028981
C860	C	0.245793	-0.499601	-0.029696
C861	C	0.287542	-0.478414	-0.029118
H862	H	0.235506	-0.529925	-0.029800
H863	H	0.226911	-0.509902	-0.056488
H864	H	0.244062	-0.474636	-0.003200
H865	H	0.289309	-0.503355	-0.055597
H866	H	0.306404	-0.468103	-0.002310
O867	O	0.023247	0.005185	-0.305921
C868	C	-0.034705	0.001676	-0.310144
C869	C	-0.014114	-0.019484	-0.330716
H870	H	-0.064918	-0.018265	-0.330179
H871	H	-0.018208	0.037059	-0.301562
H872	H	-0.036241	0.001884	-0.283445
H873	H	-0.012573	-0.019724	-0.357428
H874	H	-0.030619	-0.054857	-0.339269
H875	H	0.248573	-0.552549	-0.019145
H876	H	0.318712	-0.617647	-0.013880
O877	O	-0.253511	0.005522	0.417324
C878	C	-0.252780	0.002034	0.471792
C879	C	-0.253320	-0.019099	0.430050
H880	H	-0.252618	-0.017857	0.482096
H881	H	-0.279288	0.002194	0.473538
H882	H	-0.226006	0.037436	0.490654
H883	H	-0.280076	-0.054508	0.411163
H884	H	-0.226795	-0.019224	0.428334
H885	H	-0.098200	-0.064639	-0.365871
H886	H	-0.268611	-0.205306	0.398111
O887	O	0.530290	-0.377081	-0.019373
C888	C	0.534233	-0.431181	-0.019062
C889	C	0.555553	-0.388557	-0.017447
H890	H	0.554651	-0.440468	-0.017497
H891	H	0.509101	-0.459133	-0.047002
H892	H	0.523167	-0.425481	0.006149
H893	H	0.566643	-0.394214	-0.042638
H894	H	0.580666	-0.360621	0.010509
H895	H	0.533542	-0.268006	-0.019109
H896	H	-0.268611	-0.205351	0.114140
H897	H	-0.263337	-0.167528	0.184263
H898	H	-0.263344	-0.167504	0.365788
H899	H	-0.263292	0.117294	0.468989
