data_functionalizedCrystal
_audit_creation_method	'MofGen! by Chris Wilmer'
_symmetry_space_group_name_H-M	'P1'
_symmetry_Int_Tables_number	1
_symmetry_cell_setting	triclinic
loop_
_symmetry_equiv_pos_as_xyz
  x,y,z
_cell_length_a	16.625539
_cell_length_b	19.805407
_cell_length_c	19.805405
_cell_angle_alpha	89.973590
_cell_angle_beta	89.970033
_cell_angle_gamma	90.018020
loop_
_atom_site_label
_atom_site_type_symbol
_atom_site_fract_x
_atom_site_fract_y
_atom_site_fract_z
Zn1	Zn	-0.455910	-1.034725	-0.269474
Zn2	Zn	-0.321069	-1.034643	-0.382664
Zn3	Zn	-0.321089	-0.921543	-0.269494
Zn4	Zn	-0.455857	-0.921503	-0.382627
O5	O	-0.388481	-0.978104	-0.326065
O6	O	-0.438038	-1.129431	-0.284497
O7	O	-0.208239	-1.019622	-0.367676
O8	O	-0.339003	-0.936608	-0.174775
O9	O	-0.338970	-1.129371	-0.367656
O10	O	-0.438056	-1.019762	-0.174760
O11	O	-0.208254	-0.936528	-0.284531
O12	O	-0.338952	-0.826821	-0.284494
O13	O	-0.568696	-0.936540	-0.367593
O14	O	-0.437965	-0.826792	-0.367612
O15	O	-0.568736	-1.019724	-0.284460
O16	O	-0.338919	-1.019584	-0.477376
O17	O	-0.437946	-0.936461	-0.477348
C18	C	-0.388442	-0.978028	-0.501921
C19	C	-0.388453	-0.978057	-0.577153
C20	C	-0.388455	-0.802248	-0.326052
C21	C	-0.388463	-0.727016	-0.326063
C22	C	-0.598790	-0.978137	-0.326020
C23	C	-0.688411	-0.978151	-0.326001
C24	C	-0.761194	-0.978162	-0.325986
C25	C	-0.852502	-0.978178	-0.325961
C26	C	-0.925279	-0.978194	-0.325937
C27	C	-1.016593	-0.978211	-0.325913
C28	C	-0.178990	-0.978110	-0.326061
C29	C	-0.089370	-0.978227	-0.325889
C30	C	-0.388508	-1.154646	-0.326078
C31	C	-0.388519	-1.229878	-0.326084
C32	C	-0.439936	-0.691674	-0.369407
C33	C	-0.439947	-0.620986	-0.369409
C34	C	-0.388481	-0.585640	-0.326068
C35	C	-0.337006	-0.620987	-0.282719
C36	C	-0.336999	-0.691674	-0.282715
C37	C	-0.337033	-0.335913	-0.282734
C38	C	-0.337042	-0.265221	-0.282742
C39	C	-0.439981	-0.265225	-0.369428
C40	C	-0.439974	-0.335912	-0.369424
C41	C	-0.388502	-0.371253	-0.326072
C42	C	-0.388492	-0.447901	-0.326070
C43	C	-0.388487	-0.508993	-0.326073
C44	C	-0.336943	-1.021381	-0.612489
C45	C	-0.336961	-1.021410	-0.683177
C46	C	-0.388485	-0.978110	-0.718529
C47	C	-0.440000	-0.934784	-0.683188
C48	C	-0.439986	-0.934759	-0.612500
C49	C	-0.440060	-0.934884	-0.968261
C50	C	-0.440069	-0.934911	-1.038953
C51	C	-0.337035	-1.021535	-1.038938
C52	C	-0.337020	-1.021510	-0.968251
C53	C	-0.388538	-0.978186	-0.932916
C54	C	-0.388520	-0.978157	-0.856267
C55	C	-0.388500	-0.978136	-0.795176
C56	C	-0.388538	-0.978199	-0.149522
C57	C	-0.388562	-0.978239	-0.074290
H58	H	-0.481843	-0.720447	-0.404703
H59	H	-0.295115	-0.364679	-0.247439
H60	H	-0.482032	-0.899652	-1.067734
H61	H	-0.481895	-0.236443	-0.404724
H62	H	-0.295015	-1.056688	-0.711945
H63	H	-0.294982	-1.056638	-0.583711
H64	H	-0.481931	-0.899481	-0.583731
H65	H	-0.482006	-0.899607	-0.939497
H66	H	-0.295062	-1.056766	-0.939470
H67	H	-0.295132	-0.236445	-0.247445
H68	H	-0.481880	-0.364687	-0.404718
H69	H	-0.295105	-0.592203	-0.247427
H70	H	-0.295089	-0.720448	-0.247415
H71	H	-0.295089	-1.056813	-1.067716
H72	H	-0.481861	-0.592214	-0.404705
H73	H	-0.481956	-0.899532	-0.711976
