data_functionalizedCrystal
_audit_creation_method	'MofGen! by Chris Wilmer'
_symmetry_space_group_name_H-M	'P1'
_symmetry_Int_Tables_number	1
_symmetry_cell_setting	triclinic
loop_
_symmetry_equiv_pos_as_xyz
  x,y,z
_cell_length_a	16.992694
_cell_length_b	9.565339
_cell_length_c	16.974813
_cell_angle_alpha	93.654329
_cell_angle_beta	87.024634
_cell_angle_gamma	89.998174
loop_
_atom_site_label
_atom_site_type_symbol
_atom_site_fract_x
_atom_site_fract_y
_atom_site_fract_z
O1	O	1.040210	0.135048	0.167643
O2	O	1.540210	0.635048	0.667643
O3	O	0.811927	0.134881	0.165803
O4	O	1.311927	0.634881	0.665803
O5	O	0.932433	0.121980	0.052022
O6	O	1.432433	0.621980	0.552022
O7	O	0.919705	0.147950	0.281424
O8	O	1.419705	0.647950	0.781424
O9	O	0.932423	-0.110539	0.052029
O10	O	1.432423	0.389461	0.552029
O11	O	0.811917	-0.097638	0.165810
O12	O	1.311917	0.402362	0.665810
O13	O	1.040201	-0.097471	0.167650
O14	O	1.540201	0.402529	0.667650
Zn15	Zn	0.926058	-0.134472	0.166731
Zn16	Zn	1.426058	0.365528	0.666731
Zn17	Zn	0.926070	0.171882	0.166722
Zn18	Zn	1.426070	0.671882	0.666722
O19	O	0.919695	-0.084570	0.281431
O20	O	1.419695	0.415430	0.781431
C21	C	0.782712	0.018359	0.163441
C22	C	1.282712	0.518359	0.663441
C23	C	0.695676	0.017576	0.156381
C24	C	1.195676	0.517576	0.656381
N25	N	0.926055	-0.343551	0.166737
N26	N	1.426055	0.156449	0.666737
C27	C	0.645362	0.025286	0.224497
C28	C	1.145362	0.525286	0.724497
C29	C	0.563582	0.024515	0.217859
C30	C	1.063582	0.524515	0.717859
C31	C	0.532118	0.016045	0.143105
C32	C	1.032118	0.516045	0.643105
C33	C	0.582439	0.008330	0.074984
C34	C	1.082439	0.508330	0.574984
C35	C	0.664216	0.009091	0.081623
C36	C	1.164216	0.509091	0.581623
C37	C	0.288550	0.012892	0.115590
C38	C	0.788550	0.512892	0.615590
C39	C	0.206766	0.012136	0.108957
C40	C	0.706766	0.512136	0.608957
C41	C	0.187915	0.028319	0.251832
C42	C	0.687915	0.528319	0.751832
C43	C	0.269696	0.029088	0.258464
C44	C	0.769696	0.529088	0.758464
C45	C	0.320009	0.021366	0.190343
C46	C	0.820009	0.521366	0.690343
N47	N	0.448527	0.015261	0.136318
N48	N	0.948527	0.515261	0.636318
N49	N	0.403599	0.022139	0.197131
N50	N	0.903599	0.522139	0.697131
C51	C	0.870308	-0.428790	0.219338
C52	C	1.370308	0.071210	0.719338
C53	C	0.941142	-0.519738	0.239156
C54	C	1.441142	-0.019738	0.739156
C55	C	0.855252	-0.530157	0.146927
C56	C	1.355252	-0.030157	0.646927
C57	C	0.996924	-0.432443	0.186594
C58	C	1.496924	0.067557	0.686594
C59	C	0.910987	-0.442857	0.094330
C60	C	1.410987	0.057143	0.594330
C61	C	0.981872	-0.533767	0.114122
C62	C	1.481872	-0.033767	0.614122
C63	C	1.069416	0.019054	0.170012
C64	C	1.569416	0.519054	0.670012
C65	C	1.156452	0.019846	0.177072
C66	C	1.656452	0.519846	0.677072
C67	C	0.931944	0.002385	0.022537
C68	C	1.431944	0.502385	0.522537
C69	C	0.930491	-0.007552	-0.065331
C70	C	1.430491	0.492448	0.434669
N71	N	0.926079	0.380960	0.166710
N72	N	1.426079	0.880960	0.666710
C73	C	0.929816	0.114525	-0.106611
C74	C	1.429816	0.614525	0.393389
C75	C	0.928447	0.105184	-0.189172
C76	C	1.428447	0.605184	0.310828
C77	C	0.927758	-0.026236	-0.230452
C78	C	1.427758	0.473764	0.269548
C79	C	0.928431	-0.148322	-0.189167
C80	C	1.428431	0.351678	0.310833
C81	C	0.929795	-0.138979	-0.106607
C82	C	1.429795	0.361021	0.393393
C83	C	0.923673	-0.067769	-0.477370
C84	C	1.423673	0.432231	0.022630
C85	C	0.922312	-0.077103	-0.559936
C86	C	1.422312	0.422897	-0.059936
C87	C	0.922326	0.176404	-0.559936
C88	C	1.422326	0.676404	-0.059936
C89	C	0.923694	0.185735	-0.477374
C90	C	1.423694	0.685735	0.022626
C91	C	0.924363	0.063649	-0.436096
C92	C	1.424363	0.563649	0.063904
N93	N	0.926361	-0.035787	-0.314843
N94	N	1.426361	0.464213	0.185157
N95	N	0.925755	0.073202	-0.351706
N96	N	1.425755	0.573202	0.148294
C97	C	0.920184	0.035028	0.310916
C98	C	1.420184	0.535028	0.810916
C99	C	0.921636	0.044974	0.398784
C100	C	1.421636	0.544974	0.898784
H101	H	0.522619	0.030795	0.273326
H102	H	1.022619	0.530795	0.773326
C103	C	0.930537	-0.273259	-0.061195
C104	C	1.430537	0.226741	0.438805
H105	H	0.931440	-0.248874	-0.006113
H106	H	1.431440	0.251126	0.493887
H107	H	0.976009	-0.327241	-0.077863
H108	H	1.476009	0.172759	0.422137
H109	H	0.884605	-0.326497	-0.071585
H110	H	1.384605	0.173503	0.428415
C111	C	1.045633	-0.595435	0.054011
C112	C	1.545633	-0.095435	0.554011
H113	H	1.021605	-0.654498	0.015102
H114	H	1.521605	-0.154498	0.515102
H115	H	1.082152	-0.648355	0.080552
H116	H	1.582152	-0.148355	0.580552
H117	H	1.072473	-0.521487	0.029284
H118	H	1.572473	-0.021487	0.529284
H119	H	0.181152	0.005240	0.048080
H120	H	0.681152	0.505240	0.548080
H121	H	0.930381	0.221541	-0.073007
H122	H	1.430381	0.721541	0.426993
C123	C	0.927690	0.239469	-0.234576
C124	C	1.427690	0.739469	0.265424
H125	H	0.928300	0.319074	-0.198167
H126	H	1.428300	0.819074	0.301833
H127	H	0.881454	0.241447	-0.263633
H128	H	1.381454	0.741447	0.236367
H129	H	0.972857	0.240743	-0.269930
H130	H	1.472857	0.740743	0.230070
H131	H	0.795364	-0.573005	0.130184
H132	H	1.295364	-0.073005	0.630184
H133	H	0.556814	0.001413	0.014118
H134	H	1.056814	0.501413	0.514118
H135	H	0.924256	0.292751	-0.443770
H136	H	1.424256	0.792751	0.056230
C137	C	1.077842	-0.374796	0.209320
C138	C	1.577842	0.125204	0.709320
H139	H	1.077330	-0.275491	0.209220
H140	H	1.577330	0.224509	0.709220
H141	H	1.117468	-0.411606	0.172185
H142	H	1.617468	0.088394	0.672185
H143	H	1.088638	-0.401706	0.260591
H144	H	1.588638	0.098294	0.760591
H145	H	0.823208	-0.382886	0.263866
H146	H	1.323208	0.117114	0.763866
H147	H	0.953903	-0.553777	0.300378
H148	H	1.453903	-0.053777	0.800378
C149	C	0.343884	0.004408	0.040660
C150	C	0.843884	0.504408	0.540660
H151	H	0.313430	-0.000731	-0.004809
H152	H	0.813430	0.499269	0.495191
H153	H	0.376181	-0.076718	0.040281
H154	H	0.876181	0.423282	0.540281
H155	H	0.376174	0.085462	0.040275
H156	H	0.876174	0.585462	0.540275
H157	H	0.898204	-0.408783	0.033127
H158	H	1.398204	0.091217	0.533127
C159	C	0.304300	0.038385	0.340693
C160	C	0.804300	0.538385	0.840693
H161	H	0.262622	0.042852	0.380311
H162	H	0.762622	0.542852	0.880311
H163	H	0.335809	0.120099	0.346254
H164	H	0.835809	0.620099	0.846254
H165	H	0.335811	-0.042082	0.346249
H166	H	0.835811	0.457918	0.846249
H167	H	0.921780	0.275799	-0.593554
H168	H	1.421780	0.775799	-0.093554
C169	C	0.132570	0.036795	0.326757
C170	C	0.632570	0.536795	0.826757
H171	H	0.079360	0.035117	0.312100
H172	H	0.579360	0.535117	0.812100
H173	H	0.142094	0.121324	0.357197
H174	H	0.642094	0.621324	0.857197
H175	H	0.142106	-0.040856	0.357195
H176	H	0.642106	0.459144	0.857195
C177	C	0.719562	0.000624	0.006696
C178	C	1.219562	0.500624	0.506696
H179	H	0.689112	-0.004515	-0.038776
H180	H	1.189112	0.495485	0.461224
H181	H	0.751862	-0.080498	0.006317
H182	H	1.251862	0.419502	0.506317
H183	H	0.751848	0.081682	0.006316
H184	H	1.251848	0.581682	0.506316
C185	C	0.921545	-0.221670	-0.605342
C186	C	1.421545	0.278330	-0.105342
H187	H	0.922130	-0.293043	-0.568934
H188	H	1.422130	0.206957	-0.068934
H189	H	0.966711	-0.230956	-0.640690
H190	H	1.466711	0.269044	-0.140690
H191	H	0.875308	-0.230202	-0.634407
H192	H	1.375308	0.269798	-0.134407
C193	C	0.924422	-0.202058	-0.431974
C194	C	1.424422	0.297942	0.068026
H195	H	0.923828	-0.281661	-0.468387
H196	H	1.423828	0.218339	0.031613
H197	H	0.879257	-0.203334	-0.396625
H198	H	1.379257	0.296666	0.103375
H199	H	0.970661	-0.204042	-0.402912
H200	H	1.470661	0.295958	0.097088
C201	C	0.927670	-0.292884	-0.234568
C202	C	1.427670	0.207116	0.265432
H203	H	0.928260	-0.364250	-0.198156
H204	H	1.428260	0.135750	0.301844
H205	H	0.972836	-0.302167	-0.269917
H206	H	1.472836	0.197833	0.230083
H207	H	0.881433	-0.301428	-0.263632
H208	H	1.381433	0.198572	0.236368
C209	C	0.679965	0.034605	0.306727
C210	C	1.179965	0.534605	0.806727
H211	H	0.638284	0.039073	0.346342
H212	H	1.138284	0.539073	0.846342
H213	H	0.711471	0.116322	0.312285
H214	H	1.211471	0.616322	0.812285
H215	H	0.711477	-0.045858	0.312288
H216	H	1.211477	0.454142	0.812288
