data_functionalizedCrystal
_audit_creation_method	'MofGen! by Chris Wilmer'
_symmetry_space_group_name_H-M	'P1'
_symmetry_Int_Tables_number	1
_symmetry_cell_setting	triclinic
loop_
_symmetry_equiv_pos_as_xyz
  x,y,z
_cell_length_a	27.732048
_cell_length_b	22.010155
_cell_length_c	23.532357
_cell_angle_alpha	90.017067
_cell_angle_beta	82.735474
_cell_angle_gamma	89.987713
loop_
_atom_site_label
_atom_site_type_symbol
_atom_site_fract_x
_atom_site_fract_y
_atom_site_fract_z
O1	O	0.641012	0.050454	0.067775
O2	O	1.141012	0.550454	0.567775
O3	O	0.500233	0.050473	0.078079
O4	O	1.000233	0.550473	0.578079
O5	O	0.574881	0.050451	-0.010016
O6	O	1.074881	0.550451	0.489984
O7	O	0.566365	0.050477	0.155869
O8	O	1.066365	0.550477	0.655869
O9	O	0.574892	-0.050600	-0.010033
O10	O	1.074892	0.449400	0.489967
O11	O	0.500244	-0.050577	0.078062
O12	O	1.000244	0.449423	0.578062
O13	O	0.641023	-0.050596	0.067758
O14	O	1.141023	0.449404	0.567758
Cu15	Cu	0.570635	-0.059813	0.072909
Cu16	Cu	1.070635	0.440187	0.572909
Cu17	Cu	0.570622	0.059690	0.072928
Cu18	Cu	1.070622	0.559690	0.572928
O19	O	0.566376	-0.050574	0.155853
O20	O	1.066376	0.449426	0.655853
C21	C	0.482231	-0.000049	0.077854
C22	C	0.982231	0.499951	0.577854
C23	C	0.428576	-0.000043	0.077203
C24	C	0.928576	0.499957	0.577203
N25	N	0.570647	-0.143866	0.072895
N26	N	1.070647	0.356134	0.572895
C27	C	0.574673	-0.000076	-0.031241
C28	C	1.074673	0.499924	0.468759
C29	C	0.574033	-0.000082	-0.094458
C30	C	1.074033	0.499918	0.405542
C31	C	0.089827	-0.000061	0.125161
C32	C	0.589827	0.499939	0.625161
C33	C	-0.111836	-0.000067	0.122744
C34	C	0.388164	0.499933	0.622744
O35	O	-0.143031	-0.000087	0.166598
O36	O	0.356969	0.499913	0.666598
N37	N	-0.131032	-0.000074	0.070508
N38	N	0.368968	0.499926	0.570508
C39	C	-0.099809	-0.000084	0.018871
C40	C	0.400191	0.499916	0.518871
O41	O	-0.120764	-0.000096	-0.025614
O42	O	0.379236	0.499904	0.474386
C43	C	0.101853	-0.000082	0.021289
C44	C	0.601853	0.499918	0.521289
C45	C	0.121046	-0.000069	0.073529
C46	C	0.621046	0.499931	0.573529
C47	C	0.109021	-0.000049	0.177397
C48	C	0.609021	0.499951	0.677397
C49	C	0.159434	-0.000044	0.178000
C50	C	0.659434	0.499956	0.678000
C51	C	0.190653	-0.000052	0.126368
C52	C	0.690653	0.499948	0.626368
C53	C	0.171459	-0.000064	0.074132
C54	C	0.671459	0.499936	0.574132
C55	C	0.133075	-0.000097	-0.030347
C56	C	0.633075	0.499903	0.469653
C57	C	0.183493	-0.000098	-0.029738
C58	C	0.683493	0.499902	0.470262
C59	C	0.202686	-0.000084	0.022502
C60	C	0.702686	0.499916	0.522502
C61	C	0.253091	-0.000068	0.023104
C62	C	0.753091	0.499932	0.523104
N63	N	0.272287	-0.000060	0.075340
N64	N	0.772287	0.499940	0.575340
C65	C	0.241068	-0.000053	0.126972
C66	C	0.741068	0.499947	0.626972
C67	C	-0.205685	-0.000084	0.017606
C68	C	0.294315	0.499916	0.517606
C69	C	-0.256100	-0.000083	0.017002
C70	C	0.243900	0.499917	0.517002
C71	C	-0.268124	-0.000067	0.120875
C72	C	0.231876	0.499933	0.620875
C73	C	-0.217707	-0.000063	0.121479
C74	C	0.282293	0.499937	0.621479
C75	C	-0.186489	-0.000076	0.069843
C76	C	0.313511	0.499924	0.569843
C77	C	0.346939	-0.000042	0.128236
C78	C	0.846939	0.499958	0.628236
C79	C	0.397357	-0.000035	0.128835
C80	C	0.897357	0.499965	0.628835
C81	C	0.409376	-0.000054	0.024962
C82	C	0.909376	0.499946	0.524962
C83	C	0.358962	-0.000058	0.024363
C84	C	0.858962	0.499942	0.524363
C85	C	0.327745	-0.000054	0.076004
C86	C	0.827745	0.499946	0.576004
O87	O	0.284314	-0.000055	-0.020727
O88	O	0.784314	0.499945	0.479273
O89	O	0.262032	-0.000054	0.171452
O90	O	0.762032	0.499946	0.671452
C91	C	0.039414	-0.000066	0.124557
C92	C	0.539414	0.499934	0.624557
C93	C	0.020221	-0.000079	0.072321
C94	C	0.520221	0.499921	0.572321
C95	C	0.051440	-0.000087	0.020689
C96	C	0.551440	0.499913	0.520689
C97	C	-0.030195	-0.000078	0.071717
C98	C	0.469805	0.499922	0.571717
C99	C	-0.061414	-0.000070	0.123349
C100	C	0.438586	0.499930	0.623349
C101	C	-0.042218	-0.000063	0.175586
C102	C	0.457782	0.499937	0.675586
C103	C	0.008195	-0.000058	0.176189
C104	C	0.508195	0.499942	0.676189
C105	C	0.032244	-0.000094	-0.031547
C106	C	0.532244	0.499906	0.468453
C107	C	-0.018170	-0.000098	-0.032147
C108	C	0.481830	0.499902	0.467853
C109	C	-0.049389	-0.000090	0.019486
C110	C	0.450611	0.499910	0.519486
C111	C	0.659025	-0.000072	0.067983
C112	C	1.159025	0.499928	0.567983
C113	C	0.712681	-0.000075	0.068634
C114	C	1.212681	0.499925	0.568634
N115	N	0.570613	0.143743	0.072938
N116	N	1.070613	0.643743	0.572938
C117	C	0.537514	0.436365	0.111861
C118	C	1.037514	0.936365	0.611861
C119	C	0.537512	0.372757	0.111865
C120	C	1.037512	0.872757	0.611865
O121	O	0.509360	0.339875	0.144987
O122	O	1.009360	0.839875	0.644987
N123	N	0.570625	0.340927	0.072934
N124	N	1.070625	0.840927	0.572934
C125	C	0.603745	0.372708	0.034000
C126	C	1.103745	0.872708	0.534000
O127	O	0.631910	0.339793	0.000888
O128	O	1.131910	0.839793	0.500888
C129	C	0.603749	0.436314	0.034000
C130	C	1.103749	0.936314	0.534000
C131	C	0.570631	0.468141	0.072929
C132	C	1.070631	0.968141	0.572929
C133	C	0.504399	0.468192	0.150787
C134	C	1.004399	0.968192	0.650787
C135	C	0.504401	0.531795	0.150782
C136	C	1.004401	1.031795	0.650782
C137	C	0.537517	0.563571	0.111851
C138	C	1.037517	1.063571	0.611851
C139	C	0.570632	0.531744	0.072924
C140	C	1.070632	1.031744	0.572924
C141	C	0.636871	0.468094	-0.004931
C142	C	1.136871	0.968094	0.495069
C143	C	0.636873	0.531705	-0.004928
C144	C	1.136873	1.031705	0.495072
C145	C	0.603754	0.563531	0.034001
C146	C	1.103754	1.063531	0.534001
C147	C	0.603751	0.627124	0.033988
C148	C	1.103751	1.127124	0.533988
N149	N	0.570638	0.658954	0.072918
N150	N	1.070638	1.158954	0.572918
C151	C	0.537521	0.627178	0.111850
C152	C	1.037521	1.127178	0.611850
C153	C	0.603734	0.239130	0.034006
C154	C	1.103734	0.739130	0.534006
C155	C	0.603728	0.175525	0.034004
C156	C	1.103728	0.675525	0.534004
C157	C	0.537496	0.175579	0.111869
C158	C	1.037496	0.675579	0.611869
C159	C	0.537500	0.239185	0.111868
C160	C	1.037500	0.739185	0.611868
C161	C	0.570622	0.270960	0.072937
C162	C	1.070622	0.770960	0.572937
C163	C	0.537527	0.760749	0.111836
C164	C	1.037527	1.260749	0.611836
C165	C	0.537531	0.824358	0.111826
C166	C	1.037531	1.324358	0.611826
C167	C	0.603765	0.824298	0.033963
C168	C	1.103765	1.324298	0.533963
C169	C	0.603760	0.760695	0.033971
C170	C	1.103760	1.260695	0.533971
C171	C	0.570639	0.728922	0.072912
C172	C	1.070639	1.228922	0.572912
O173	O	0.631890	0.660047	0.000884
O174	O	1.131890	1.160047	0.500884
O175	O	0.509365	0.660100	0.144962
O176	O	1.009365	1.160100	0.644962
C177	C	0.570006	0.055034	-0.486452
C178	C	1.070006	0.555034	0.013548
C179	C	0.569398	0.055037	-0.545850
C180	C	1.069398	0.555037	-0.045850
O181	O	0.569061	0.101883	-0.576558
O182	O	1.069061	0.601883	-0.076558
N183	N	0.569102	-0.000044	-0.575569
N184	N	1.069102	0.499956	-0.075569
C185	C	0.569410	-0.055133	-0.545887
C186	C	1.069410	0.444867	-0.045887
O187	O	0.569102	-0.101984	-0.576619
O188	O	1.069102	0.398016	-0.076619
C189	C	0.570015	-0.055136	-0.486489
C190	C	1.070015	0.444864	0.013511
C191	C	0.570316	-0.000051	-0.456773
C192	C	1.070316	0.499949	0.043227
C193	C	0.570307	0.110115	-0.456736
C194	C	1.070307	0.610115	0.043264
C195	C	0.570916	0.110111	-0.397342
C196	C	1.070916	0.610111	0.102658
C197	C	0.571226	0.055026	-0.367664
C198	C	1.071226	0.555026	0.132336
C199	C	0.570925	-0.000055	-0.397380
C200	C	1.070925	0.499945	0.102620
C201	C	0.570319	-0.110224	-0.456807
C202	C	1.070319	0.389776	0.043193
C203	C	0.570924	-0.110223	-0.397405
C204	C	1.070924	0.389777	0.102595
C205	C	0.571225	-0.055137	-0.367690
C206	C	1.071225	0.444863	0.132310
C207	C	0.571844	-0.055143	-0.308307
C208	C	1.071844	0.444857	0.191693
N209	N	0.572140	-0.000061	-0.278588
N210	N	1.072140	0.499939	0.221412
C211	C	0.571831	0.055023	-0.308266
C212	C	1.071831	0.555023	0.191734
C213	C	0.568138	-0.055123	-0.670626
C214	C	1.068138	0.444877	-0.170626
C215	C	0.567536	-0.055121	-0.730023
C216	C	1.067536	0.444879	-0.230023
C217	C	0.567523	0.055050	-0.729981
C218	C	1.067523	0.555050	-0.229981
C219	C	0.568128	0.055047	-0.670584
C220	C	1.068128	0.555047	-0.170584
C221	C	0.568434	-0.000041	-0.640906
C222	C	1.068434	0.499959	-0.140906
C223	C	0.573112	0.055011	-0.183535
C224	C	1.073112	0.555011	0.316465
C225	C	0.573723	0.055003	-0.124136
C226	C	1.073723	0.555003	0.375864
C227	C	0.573734	-0.055168	-0.124182
C228	C	1.073734	0.444832	0.375818
C229	C	0.573124	-0.055160	-0.183576
C230	C	1.073124	0.444840	0.316424
C231	C	0.572812	-0.000065	-0.213251
C232	C	1.072812	0.499935	0.286749
O233	O	0.572179	-0.101965	-0.277561
O234	O	1.072179	0.398035	0.222439
O235	O	0.572133	0.101867	-0.277525
O236	O	1.072133	0.601867	0.222475
C237	C	0.566583	-0.000045	0.177077
C238	C	1.066583	0.499955	0.677077
C239	C	0.567224	-0.000036	0.240294
C240	C	1.067224	0.499964	0.740294
H241	H	0.321527	-0.000041	0.170287
H242	H	0.821527	0.499959	0.670287
O243	O	0.567169	0.114464	-0.761998
O244	O	1.067169	0.614464	-0.261998
H245	H	0.567475	0.152770	-0.731358
H246	H	1.067475	0.652770	-0.231358
H247	H	0.630726	0.850181	0.002264
H248	H	1.130726	1.350181	0.502264
O249	O	-0.197007	-0.000053	0.177822
O250	O	0.302993	0.499947	0.677822
H251	H	-0.174317	-0.041239	0.180575
H252	H	0.325683	0.458761	0.680575
H253	H	0.663846	0.557573	-0.036630
H254	H	1.163846	1.057573	0.463370
O255	O	0.572769	0.114435	-0.215533
O256	O	1.072769	0.614435	0.284467
H257	H	0.605835	0.140841	-0.209496
H258	H	1.105835	0.640841	0.290504
H259	H	-0.293551	-0.000061	0.162916
H260	H	0.206449	0.499939	0.662916
H261	H	0.571166	-0.155083	-0.373244
H262	H	1.071166	0.344917	0.126756
H263	H	0.630691	0.149616	0.002298
H264	H	1.130691	0.649616	0.502298
O265	O	0.501805	0.726483	0.153835
O266	O	1.001805	1.226483	0.653835
H267	H	0.521964	0.697514	0.181409
H268	H	1.021964	1.197514	0.681409
H269	H	0.567298	-0.099977	-0.754213
H270	H	1.067298	0.400023	-0.254213
H271	H	-0.271722	-0.000084	-0.025537
H272	H	0.228278	0.499916	0.474463
O273	O	0.574047	0.114419	-0.092085
O274	O	1.074047	0.614419	0.407915
H275	H	0.541375	0.117055	-0.059649
H276	H	1.041375	0.617055	0.440351
H277	H	0.208910	-0.000109	-0.071787
H278	H	0.708910	0.499891	0.428213
O279	O	0.571228	0.169524	-0.365292
O280	O	1.071228	0.669524	0.134708
H281	H	0.570903	0.207823	-0.395915
H282	H	1.070903	0.707823	0.104085
O283	O	-0.038869	-0.000118	-0.088495
O284	O	0.461131	0.499882	0.411505
H285	H	-0.008686	-0.000131	-0.124293
H286	H	0.491314	0.499869	0.375707
H287	H	0.572884	-0.100014	-0.207772
H288	H	1.072884	0.399986	0.292228
H289	H	0.570053	0.154974	-0.480893
H290	H	1.070053	0.654974	0.019107
H291	H	0.477431	0.442325	0.182493
H292	H	0.977431	0.942325	0.682493
O293	O	0.574067	-0.114580	-0.092167
O294	O	1.074067	0.385420	0.407833
H295	H	0.574535	-0.105322	-0.045873
H296	H	1.074535	0.394678	0.454127
H297	H	0.057658	-0.000102	-0.073594
H298	H	0.557658	0.499898	0.426406
H299	H	0.083607	-0.000044	0.219444
H300	H	0.583607	0.499956	0.719444
H301	H	0.023817	-0.000048	0.218729
H302	H	0.523817	0.499952	0.718729
H303	H	0.477434	0.557705	0.182483
H304	H	0.977434	1.057705	0.682483
H305	H	0.630723	0.734781	0.002266
H306	H	1.130723	1.234781	0.502266
H307	H	-0.180270	-0.000094	-0.024444
H308	H	0.319730	0.499906	0.475556
O309	O	-0.075895	-0.000055	0.231276
O310	O	0.424105	0.499945	0.731276
H311	H	-0.069091	-0.041236	0.256290
H312	H	0.430909	0.458764	0.756290
H313	H	0.343335	-0.000060	-0.018175
H314	H	0.843335	0.499940	0.481825
H315	H	0.412980	-0.000023	0.171377
H316	H	0.912980	0.499977	0.671377
O317	O	0.112381	-0.000124	-0.086692
O318	O	0.612381	0.499876	0.413308
H319	H	0.142566	-0.000141	-0.122487
H320	H	0.642566	0.499859	0.377513
H321	H	0.434803	-0.000058	-0.017075
H322	H	0.934803	0.499942	0.482925
H323	H	0.510560	0.850270	0.143527
H324	H	1.010560	1.350270	0.643527
O325	O	0.501785	0.273512	0.153860
O326	O	1.001785	0.773512	0.653860
H327	H	0.478760	0.240724	0.180931
H328	H	0.978760	0.740724	0.680931
H329	H	0.568372	0.099903	-0.646393
H330	H	1.068372	0.599903	-0.146393
O331	O	0.501780	0.141301	0.153868
O332	O	1.001780	0.641301	0.653868
H333	H	0.507348	0.091725	0.147330
H334	H	1.007348	0.591725	0.647330
H335	H	0.630705	0.264998	0.002299
H336	H	1.130705	0.764998	0.502299
O337	O	0.180133	-0.000048	0.234345
O338	O	0.680133	0.499952	0.734345
H339	H	0.149948	-0.000053	0.270141
H340	H	0.649948	0.499947	0.770141
H341	H	0.663839	0.442189	-0.036630
H342	H	1.163839	0.942189	0.463370
O343	O	0.568480	-0.114543	-0.638618
O344	O	1.068480	0.385457	-0.138618
H345	H	0.568179	-0.152840	-0.669268
H346	H	1.068179	0.347160	-0.169268
H347	H	0.570075	-0.155081	-0.480991
H348	H	1.070075	0.344919	0.019009
