data_functionalizedCrystal
_audit_creation_method	'MofGen! by Chris Wilmer'
_symmetry_space_group_name_H-M	'P1'
_symmetry_Int_Tables_number	1
_symmetry_cell_setting	triclinic
loop_
_symmetry_equiv_pos_as_xyz
  x,y,z
_cell_length_a	19.121063
_cell_length_b	16.120490
_cell_length_c	16.120297
_cell_angle_alpha	90.129683
_cell_angle_beta	95.179432
_cell_angle_gamma	89.683840
loop_
_atom_site_label
_atom_site_type_symbol
_atom_site_fract_x
_atom_site_fract_y
_atom_site_fract_z
Zn1	Zn	-0.355804	1.228536	-0.551560
Zn2	Zn	-0.022471	1.561869	-0.218226
Zn3	Zn	0.310862	1.895202	0.115107
Zn4	Zn	-0.467588	1.229545	-0.417851
Zn5	Zn	-0.134255	1.562879	-0.084517
Zn6	Zn	0.199079	1.896212	0.248816
Zn7	Zn	-0.343933	1.097156	-0.404913
Zn8	Zn	-0.010599	1.430490	-0.071579
Zn9	Zn	0.322734	1.763823	0.261754
Zn10	Zn	-0.466935	1.083536	-0.549792
Zn11	Zn	-0.133601	1.416869	-0.216459
Zn12	Zn	0.199732	1.750202	0.116874
O13	O	-0.408565	1.159693	-0.481029
O14	O	-0.075232	1.493027	-0.147695
O15	O	0.258102	1.826360	0.185638
O16	O	-0.375875	1.344758	-0.539977
O17	O	-0.042541	1.678091	-0.206644
O18	O	0.290792	2.011425	0.126690
O19	O	-0.446490	1.218106	-0.299544
O20	O	-0.113156	1.551440	0.033789
O21	O	0.220177	1.884773	0.367123
O22	O	-0.247249	1.119862	-0.419691
O23	O	0.086084	1.453195	-0.086358
O24	O	0.419418	1.786529	0.246976
O25	O	-0.458001	1.345500	-0.441742
O26	O	-0.124668	1.678833	-0.108408
O27	O	0.208665	2.012166	0.224925
O28	O	-0.255971	1.216386	-0.527432
O29	O	0.077362	1.549719	-0.194098
O30	O	0.410695	1.883053	0.139235
O31	O	-0.355641	1.120841	-0.290039
O32	O	-0.022308	1.454174	0.043295
O33	O	0.311026	1.787508	0.376628
O34	O	-0.355007	0.979261	-0.417977
O35	O	-0.021674	1.312595	-0.084644
O36	O	0.311659	1.645928	0.248690
O37	O	-0.456888	1.096647	-0.666617
O38	O	-0.123554	1.429981	-0.333284
O39	O	0.209779	1.763314	0.000050
O40	O	-0.445376	0.969254	-0.524419
O41	O	-0.112043	1.302587	-0.191086
O42	O	0.221290	1.635921	0.142247
O43	O	-0.375241	1.203178	-0.667915
O44	O	-0.041908	1.536512	-0.334582
O45	O	0.291426	1.869845	-0.001249
O46	O	-0.565760	1.204899	-0.440028
O47	O	-0.232426	1.538232	-0.106694
O48	O	0.100907	1.871566	0.226639
O49	O	-0.565280	1.097626	-0.536965
O50	O	-0.231946	1.430960	-0.203631
O51	O	0.101387	1.764293	0.129702
C52	C	-0.398833	0.944157	-0.469603
C53	C	-0.065500	1.277491	-0.136270
C54	C	0.267833	1.610824	0.197064
C55	C	-0.394688	0.851948	-0.464736
C56	C	-0.061354	1.185281	-0.131402
C57	C	0.271979	1.518615	0.201931
C58	C	-0.430063	0.637106	-0.506278
C59	C	-0.096730	0.970439	-0.172945
C60	C	0.236604	1.303773	0.160389
C61	C	-0.387125	0.683125	-0.455848
C62	C	-0.053792	1.016459	-0.122515
C63	C	0.279541	1.349792	0.210819
C64	C	-0.391334	0.777067	-0.460795
C65	C	-0.058001	1.110400	-0.127461
C66	C	0.275332	1.443734	0.205872
C67	C	-0.425855	0.543156	-0.501333
C68	C	-0.092522	0.876489	-0.167999
C69	C	0.240812	1.209822	0.165334
C70	C	-0.590999	1.149916	-0.489728
C71	C	-0.257665	1.483249	-0.156394
C72	C	0.075668	1.816582	0.176939
C73	C	-0.669049	1.145807	-0.493481
C74	C	-0.335716	1.479140	-0.160148
C75	C	-0.002383	1.812474	0.173186
C76	C	-0.705948	1.199767	-0.444821
C77	C	-0.372614	1.533100	-0.111488
C78	C	-0.039281	1.866434	0.221846
C79	C	-0.779285	1.195908	-0.448356
C80	C	-0.445952	1.529241	-0.115023
C81	C	-0.112618	1.862574	0.218311
C82	C	-0.815722	1.138084	-0.500548
C83	C	-0.482388	1.471417	-0.167214
C84	C	-0.149055	1.804750	0.166119
C85	C	-0.778818	1.084121	-0.549213
C86	C	-0.445485	1.417455	-0.215880
C87	C	-0.112152	1.750788	0.117453
C88	C	-0.705483	1.087985	-0.545682
C89	C	-0.372149	1.421319	-0.212349
C90	C	-0.038816	1.754652	0.120985
C91	C	-1.037136	1.123625	-0.513736
C92	C	-0.703803	1.456958	-0.180403
C93	C	-0.370470	1.790291	0.152930
C94	C	-1.110477	1.119763	-0.517262
C95	C	-0.777143	1.453096	-0.183929
C96	C	-0.443810	1.786430	0.149404
C97	C	-1.110938	1.231551	-0.416406
C98	C	-0.777605	1.564884	-0.083072
C99	C	-0.444272	1.898217	0.250261
C100	C	-1.037601	1.235406	-0.412875
C101	C	-0.704268	1.568739	-0.079542
C102	C	-0.370935	1.902073	0.253791
C103	C	-1.000704	1.181447	-0.461544
C104	C	-0.667371	1.514780	-0.128211
C105	C	-0.334038	1.848114	0.205122
C106	C	-0.890684	1.134136	-0.504160
C107	C	-0.557351	1.467469	-0.170827
C108	C	-0.224017	1.800802	0.162506
C109	C	-0.925744	1.185399	-0.457935
C110	C	-0.592410	1.518733	-0.124602
C111	C	-0.259077	1.852066	0.208731
C112	C	-0.225420	1.169531	-0.472315
C113	C	0.107913	1.502864	-0.138982
C114	C	0.441246	1.836197	0.194351
C115	C	-0.147375	1.173723	-0.468602
C116	C	0.185958	1.507056	-0.135269
C117	C	0.519291	1.840390	0.198065
C118	C	-0.417316	1.148281	-0.698342
C119	C	-0.083982	1.481614	-0.365009
C120	C	0.249351	1.814948	-0.031675
C121	C	-0.421045	1.143418	-0.790948
C122	C	-0.087712	1.476751	-0.457615
C123	C	0.245622	1.810084	-0.124281
C124	C	-0.418335	1.376071	-0.492500
C125	C	-0.085002	1.709404	-0.159166
C126	C	0.248332	2.042737	0.174167
C127	C	-0.422499	1.468278	-0.497388
C128	C	-0.089165	1.801611	-0.164055
C129	C	0.244168	2.134945	0.169279
C130	C	-0.427836	1.134509	-0.960498
C131	C	-0.094503	1.467842	-0.627164
C132	C	0.238830	1.801176	-0.293831
C133	C	-0.389090	1.185052	-1.002410
C134	C	-0.055757	1.518386	-0.669077
C135	C	0.277576	1.851719	-0.335744
C136	C	-0.392869	1.180095	-1.096754
C137	C	-0.059536	1.513429	-0.763420
C138	C	0.273797	1.846762	-0.430087
C139	C	-0.424058	1.139465	-0.866146
C140	C	-0.090725	1.472798	-0.532812
C141	C	0.242608	1.806131	-0.199479
C142	C	-0.399800	1.171112	-0.264561
C143	C	-0.066466	1.504445	0.068772
C144	C	0.266867	1.837778	0.402106
C145	C	-0.395880	1.176146	-0.171955
C146	C	-0.062547	1.509479	0.161379
C147	C	0.270787	1.842813	0.494712
H148	H	-0.676285	1.246850	-0.402317
H149	H	-0.342952	1.580183	-0.068984
H150	H	-0.009619	1.913516	0.264349
Cl151	Cl	-0.483432	1.061961	-1.014489
Cl152	Cl	-0.150099	1.395295	-0.681155
Cl153	Cl	0.183234	1.728628	-0.347822
H154	H	-0.353080	1.232046	-0.967439
H155	H	-0.019747	1.565379	-0.634105
H156	H	0.313586	1.898712	-0.300772
H157	H	-0.347205	0.651971	-0.408959
H158	H	-0.013871	0.985305	-0.075625
H159	H	0.319462	1.318638	0.257708
H160	H	-0.675441	1.044047	-0.585307
H161	H	-0.342107	1.377380	-0.251974
H162	H	-0.008774	1.710713	0.081359
H163	H	-0.469981	0.668258	-0.553163
H164	H	-0.136648	1.001591	-0.219830
H165	H	0.196685	1.334925	0.113504
Cl166	Cl	-0.825669	1.263749	-0.387183
Cl167	Cl	-0.492336	1.597082	-0.053850
Cl168	Cl	-0.159002	1.930415	0.279484
Cl169	Cl	-1.157327	1.299386	-0.355232
Cl170	Cl	-0.823994	1.632719	-0.021899
Cl171	Cl	-0.490661	1.966052	0.311435
Cl172	Cl	-1.156281	1.047055	-0.582868
Cl173	Cl	-0.822948	1.380388	-0.249535
Cl174	Cl	-0.489615	1.713721	0.083799
Cl175	Cl	-0.991801	1.308113	-0.347273
Cl176	Cl	-0.658468	1.641446	-0.013940
Cl177	Cl	-0.325134	1.974780	0.319394
Cl178	Cl	-0.824625	1.011433	-0.614831
Cl179	Cl	-0.491292	1.344766	-0.281498
Cl180	Cl	-0.157959	1.678099	0.051836
Cl181	Cl	-0.990761	1.055788	-0.574919
Cl182	Cl	-0.657428	1.389121	-0.241586
Cl183	Cl	-0.324094	1.722455	0.091747
Cl184	Cl	-0.879937	1.258093	-0.392329
Cl185	Cl	-0.546603	1.591426	-0.058996
Cl186	Cl	-0.213270	1.924759	0.274338
H187	H	-0.920359	1.087054	-0.546653
H188	H	-0.587026	1.420387	-0.213320
H189	H	-0.253692	1.753720	0.120014
