data_functionalizedCrystal
_audit_creation_method	'MofGen! by Chris Wilmer'
_symmetry_space_group_name_H-M	'P1'
_symmetry_Int_Tables_number	1
_symmetry_cell_setting	triclinic
loop_
_symmetry_equiv_pos_as_xyz
  x,y,z
_cell_length_a	10.489716
_cell_length_b	10.489746
_cell_length_c	14.586319
_cell_angle_alpha	89.995899
_cell_angle_beta	89.996864
_cell_angle_gamma	84.535218
loop_
_atom_site_label
_atom_site_type_symbol
_atom_site_fract_x
_atom_site_fract_y
_atom_site_fract_z
O1	O	1.694074	0.179817	-0.076234
O2	O	2.194074	0.679817	0.423766
O3	O	1.322874	0.196742	-0.076237
O4	O	1.822874	0.696742	0.423763
O5	O	1.516917	0.002681	-0.076229
O6	O	2.016917	0.502681	0.423771
O7	O	1.500031	0.373878	-0.076242
O8	O	2.000031	0.873878	0.423758
O9	O	1.516903	0.002678	0.076252
O10	O	2.016903	0.502678	0.576252
O11	O	1.322861	0.196739	0.076243
O12	O	1.822861	0.696739	0.576243
O13	O	1.694060	0.179814	0.076247
O14	O	2.194060	0.679814	0.576247
Cu15	Cu	1.508459	0.188276	0.090168
Cu16	Cu	2.008459	0.688276	0.590168
Cu17	Cu	1.508475	0.188280	-0.090158
Cu18	Cu	2.008475	0.688280	0.409842
O19	O	1.500017	0.373875	0.076238
O20	O	2.000017	0.873875	0.576238
C21	C	1.275335	0.195469	0.000003
C22	C	1.775335	0.695469	0.500003
C23	C	1.133704	0.191664	0.000002
C24	C	1.633704	0.691664	0.500002
C25	C	1.036032	0.310669	-0.000005
C26	C	1.536032	0.810669	0.499995
C27	C	0.958679	0.247783	0.075182
C28	C	1.458679	0.747783	0.575182
C29	C	0.958699	0.247758	-0.075152
C30	C	1.458699	0.747758	0.424848
C31	C	1.058216	0.128828	0.075251
C32	C	1.558216	0.628828	0.575251
C33	C	1.058241	0.128821	-0.075151
C34	C	1.558241	0.628821	0.424849
C35	C	0.980936	0.065848	0.000055
C36	C	1.480936	0.565848	0.500055
C37	C	1.515633	-0.044852	0.000012
C38	C	2.015633	0.455148	0.500012
C39	C	1.511813	-0.186480	0.000011
C40	C	2.011813	0.313520	0.500011
C41	C	1.386089	-0.339327	-0.000002
C42	C	1.886089	0.160673	0.499998
C43	C	1.448953	-0.261939	-0.075180
C44	C	1.948953	0.238061	0.424820
C45	C	1.448969	-0.261983	0.075154
C46	C	1.948969	0.238017	0.575154
C47	C	1.567936	-0.361441	-0.075250
C48	C	2.067936	0.138559	0.424750
C49	C	1.567934	-0.361490	0.075152
C50	C	2.067934	0.138510	0.575152
C51	C	1.630885	-0.284151	-0.000045
C52	C	2.130885	0.215849	0.499955
C53	C	1.741599	0.181087	0.000005
C54	C	2.241599	0.681087	0.500005
C55	C	1.883230	0.184892	0.000000
C56	C	2.383230	0.684892	0.500000
C57	C	1.501301	0.421408	-0.000004
C58	C	2.001301	0.921408	0.499996
C59	C	1.505121	0.563037	-0.000009
C60	C	2.005121	1.063037	0.499991
N61	N	1.508457	0.188273	0.217000
N62	N	2.008457	0.688273	0.717000
N63	N	1.508487	0.188273	-0.216990
N64	N	2.008487	0.688273	0.283010
C65	C	1.594408	0.102372	0.452010
C66	C	2.094408	0.602372	0.952010
C67	C	1.594412	0.102369	0.547991
C68	C	2.094412	0.602369	1.047991
C69	C	1.422527	0.274178	0.547993
C70	C	1.922527	0.774178	1.047993
C71	C	1.422518	0.274174	0.452014
C72	C	1.922518	0.774174	0.952014
C73	C	1.508466	0.188273	0.404024
C74	C	2.008466	0.688273	0.904024
C75	C	1.508478	0.188274	0.595985
C76	C	2.008478	0.688274	1.095985
C77	C	1.508482	0.188271	0.700052
C78	C	2.008482	0.688271	1.200052
C79	C	1.508461	0.188273	0.299951
C80	C	2.008461	0.688273	0.799951
H81	H	1.101525	0.078620	0.138879
H82	H	1.601525	0.578620	0.638879
H83	H	1.352527	0.344125	0.412941
H84	H	1.852527	0.844125	0.912941
Cl85	Cl	1.645472	-0.428260	-0.173492
Cl86	Cl	2.145472	0.071740	0.326508
H87	H	1.664392	0.032420	0.587058
H88	H	2.164392	0.532420	1.087058
H89	H	1.398691	-0.218535	0.138712
H90	H	1.898691	0.281465	0.638712
H91	H	1.618133	-0.404995	0.138715
H92	H	2.118133	0.095005	0.638715
Cl93	Cl	0.891534	0.325339	0.173314
Cl94	Cl	1.391534	0.825339	0.673314
Cl95	Cl	1.371386	-0.194810	-0.173315
Cl96	Cl	1.871386	0.305190	0.326685
H97	H	1.734466	-0.259686	-0.000085
H98	H	2.234466	0.240314	0.499915
H99	H	0.915222	0.298020	-0.138707
H100	H	1.415222	0.798020	0.361293
Cl101	Cl	1.226292	-0.377487	-0.000116
Cl102	Cl	1.726292	0.122513	0.499884
H103	H	1.664390	0.032424	0.412940
H104	H	2.164390	0.532424	0.912940
Cl105	Cl	0.943199	-0.094084	0.000128
Cl106	Cl	1.443199	0.405916	0.500128
H107	H	1.101742	0.078624	-0.138714
H108	H	1.601742	0.578624	0.361286
H109	H	1.352552	0.344119	0.587075
H110	H	1.852552	0.844119	1.087075
H111	H	1.060704	0.414184	0.000061
H112	H	1.560704	0.914184	0.500061
