data_functionalizedCrystal
_audit_creation_method	'MofGen! by Chris Wilmer'
_symmetry_space_group_name_H-M	'P1'
_symmetry_Int_Tables_number	1
_symmetry_cell_setting	triclinic
loop_
_symmetry_equiv_pos_as_xyz
  x,y,z
_cell_length_a	6.817900
_cell_length_b	10.912946
_cell_length_c	16.987314
_cell_angle_alpha	81.885999
_cell_angle_beta	88.092726
_cell_angle_gamma	107.496056
loop_
_atom_site_label
_atom_site_type_symbol
_atom_site_fract_x
_atom_site_fract_y
_atom_site_fract_z
V1	V	-3.921697	-0.180816	0.245867
O2	O	-3.890327	0.005548	0.241189
O3	O	-3.894018	-0.355507	0.244182
O4	O	-3.818311	-0.179412	0.353099
O5	O	-3.966558	-0.171765	0.131519
V6	V	-4.409765	-0.158362	0.232190
O7	O	-4.172986	-0.230071	0.275867
O8	O	-4.608674	-0.109107	0.202189
O9	O	-4.214238	0.016329	0.233874
O10	O	-4.558532	-0.344726	0.236868
O11	O	-4.482301	-0.167412	0.346538
O12	O	-4.289945	-0.159765	0.124958
C13	C	-3.649266	-0.173422	0.379236
C14	C	-3.646157	-0.173431	0.466899
C15	C	-3.745839	-0.398049	0.240303
C16	C	-3.804128	-0.540870	0.239641
C17	C	-3.423095	-0.165081	0.586659
C18	C	-3.426391	-0.165605	0.495525
C19	C	-3.803656	-0.300701	0.514220
C20	C	-3.799065	-0.300712	0.605405
C21	C	-3.703648	-0.055120	0.582066
C22	C	-3.702115	-0.053384	0.490608
C23	C	-4.025761	0.058865	0.237752
C24	C	-3.946707	0.201685	0.238419
C25	C	-4.044425	0.412665	0.234927
C26	C	-4.126696	0.264201	0.233920
C27	C	-3.786348	0.271821	0.165384
C28	C	-3.705401	0.420484	0.165996
C29	C	-3.753109	0.380303	0.316749
C30	C	-3.839676	0.231582	0.316954
C31	C	-3.637557	-0.173342	0.712578
C32	C	-3.640601	-0.173363	0.624917
C33	C	-4.122319	-0.165757	0.098817
C34	C	-4.104338	-0.165747	0.009506
V35	V	-3.900254	-0.180779	0.857421
O36	O	-3.937104	-0.171727	0.971729
O37	O	-3.804522	-0.179366	0.746159
O38	O	-3.871329	-0.355447	0.888749
O39	O	-3.869835	0.005572	0.828152
V40	V	-4.386910	-0.158420	0.885672
O41	O	-4.153008	-0.230080	0.845660
O42	O	-4.583797	-0.109206	0.914532
O43	O	-4.259711	-0.159790	0.988456
O44	O	-4.467311	-0.167494	0.775823
O45	O	-4.534581	-0.344794	0.919400
O46	O	-4.192904	0.016290	0.845865
C47	C	-3.722776	-0.397949	0.894468
C48	C	-3.779995	-0.540765	0.922446
C49	C	-4.005214	0.058865	0.827357
C50	C	-3.927259	0.201687	0.798597
C51	C	-3.987745	-0.614465	0.939689
C52	C	-4.041536	-0.748654	0.965990
C53	C	-3.887575	-0.809141	0.975041
C54	C	-3.679807	-0.735430	0.957799
C55	C	-3.626018	-0.601243	0.931504
C56	C	-3.717217	0.262212	0.775719
C57	C	-3.643938	0.396410	0.748705
C58	C	-3.780706	0.470080	0.744564
C59	C	-3.990766	0.409546	0.767447
C60	C	-4.064039	0.275352	0.794465
H61	H	-3.306094	-0.074108	0.462788
F62	F	-3.702692	0.612902	0.715805
H63	H	-4.113137	-0.565236	0.932319
F64	F	-3.404898	-0.522820	0.913150
H65	H	-3.377522	-0.251167	0.480293
H66	H	-3.554465	-0.784700	0.965173
F67	F	-4.287599	0.210949	0.818806
H68	H	-3.586662	0.040729	0.458474
F69	F	-4.235546	0.240754	0.160261
H70	H	-3.605821	0.202248	0.779090
F71	F	-3.746304	-0.417670	0.642525
H72	H	-3.472893	0.445676	0.730075
H73	H	-4.102106	0.469548	0.764071
H74	H	-3.300581	-0.073508	0.598217
H75	H	-3.372724	-0.250023	0.616113
H76	H	-3.708471	0.187416	0.324819
H77	H	-4.087145	0.467511	0.179300
H78	H	-3.960870	-0.312053	0.631571
F79	F	-3.476346	0.461040	0.166285
H80	H	-3.650392	0.231378	0.165902
F81	F	-4.017168	-0.314221	0.491117
H82	H	-3.594881	0.040925	0.594563
F83	F	-3.755017	-0.417233	0.493678
F84	F	-3.912589	-0.061539	0.614832
F85	F	-3.907654	-0.051105	0.464520
H86	H	-3.859940	0.252369	0.107269
H87	H	-3.931401	-0.918406	0.996453
F88	F	-4.284479	0.201690	0.302192
F89	F	-3.839813	0.412635	0.389940
F90	F	-4.150890	0.444558	0.303620
H91	H	-4.210720	-0.808651	0.980023
F92	F	-3.751668	0.489181	0.090102
H93	H	-3.954627	0.184307	0.371032
H94	H	-3.579047	0.409449	0.320929
