data_functionalizedCrystal
_audit_creation_method	'MofGen! by Chris Wilmer'
_symmetry_space_group_name_H-M	'P1'
_symmetry_Int_Tables_number	1
_symmetry_cell_setting	triclinic
loop_
_symmetry_equiv_pos_as_xyz
  x,y,z
_cell_length_a	17.077404
_cell_length_b	18.215405
_cell_length_c	17.077396
_cell_angle_alpha	90.031591
_cell_angle_beta	90.019501
_cell_angle_gamma	90.025110
loop_
_atom_site_label
_atom_site_type_symbol
_atom_site_fract_x
_atom_site_fract_y
_atom_site_fract_z
Zn1	Zn	1.200044	-0.292980	0.443826
Zn2	Zn	1.533377	0.040353	0.777159
Zn3	Zn	1.866710	0.373687	1.110492
Zn4	Zn	1.199946	-0.416053	0.312553
Zn5	Zn	1.533280	-0.082720	0.645886
Zn6	Zn	1.866613	0.250613	0.979219
Zn7	Zn	1.068776	-0.293006	0.312574
Zn8	Zn	1.402109	0.040328	0.645907
Zn9	Zn	1.735442	0.373661	0.979240
Zn10	Zn	1.068739	-0.416010	0.443776
Zn11	Zn	1.402072	-0.082676	0.777110
Zn12	Zn	1.735406	0.250657	1.110443
O13	O	1.134376	-0.354512	0.378182
O14	O	1.467709	-0.021179	0.711515
O15	O	1.801043	0.312155	1.044849
O16	O	1.309878	-0.309313	0.426424
O17	O	1.643211	0.024020	0.759757
O18	O	1.976544	0.357353	1.093091
O19	O	1.182521	-0.399760	0.202708
O20	O	1.515854	-0.066427	0.536042
O21	O	1.849187	0.266907	0.869375
O22	O	1.086245	-0.190018	0.330014
O23	O	1.419578	0.143315	0.663347
O24	O	1.752911	0.476649	0.996681
O25	O	1.309806	-0.399735	0.329978
O26	O	1.643139	-0.066402	0.663312
O27	O	1.976473	0.266932	0.996645
O28	O	1.182687	-0.189999	0.426444
O29	O	1.516020	0.143334	0.759778
O30	O	1.849353	0.476668	1.093111
O31	O	1.086150	-0.309357	0.202724
O32	O	1.419483	0.023976	0.536057
O33	O	1.752817	0.357309	0.869391
O34	O	0.958924	-0.309315	0.329966
O35	O	1.292257	0.024018	0.663299
O36	O	1.625590	0.357352	0.996633
O37	O	1.086182	-0.399660	0.553630
O38	O	1.419516	-0.066327	0.886963
O39	O	1.752849	0.267006	1.220296
O40	O	0.958897	-0.399685	0.426360
O41	O	1.292230	-0.066352	0.759693
O42	O	1.625564	0.266981	1.093027
O43	O	1.182651	-0.309271	0.553666
O44	O	1.515985	0.024062	0.886999
O45	O	1.849318	0.357396	1.220333
O46	O	1.182485	-0.519032	0.329930
O47	O	1.515819	-0.185699	0.663263
O48	O	1.849152	0.147635	0.996597
O49	O	1.086088	-0.519000	0.426340
O50	O	1.419421	-0.185666	0.759673
O51	O	1.752754	0.147667	1.093006
C52	C	0.930428	-0.354499	0.378160
C53	C	1.263762	-0.021165	0.711494
C54	C	1.597095	0.312168	1.044827
C55	C	0.843178	-0.354511	0.378170
C56	C	1.176512	-0.021178	0.711503
C57	C	1.509845	0.312156	1.044836
C58	C	1.134293	-0.545718	0.378144
C59	C	1.467627	-0.212385	0.711478
C60	C	1.800960	0.120948	1.044811
C61	C	1.134330	-0.627517	0.378154
C62	C	1.467663	-0.294184	0.711488
C63	C	1.800996	0.039149	1.044821
C64	C	0.802195	-0.401638	0.428282
C65	C	1.135528	-0.068304	0.761615
C66	C	1.468861	0.265029	1.094948
C67	C	0.720214	-0.401639	0.428294
C68	C	1.053548	-0.068306	0.761627
C69	C	1.386881	0.265027	1.094961
C70	C	0.679219	-0.354517	0.378190
C71	C	1.012552	-0.021184	0.711524
C72	C	1.345886	0.312149	1.044857
C73	C	0.720208	-0.307385	0.328076
C74	C	1.053542	0.025948	0.661410
C75	C	1.386875	0.359282	0.994743
C76	C	0.802187	-0.307380	0.328068
C77	C	1.135521	0.025953	0.661402
C78	C	1.468854	0.359286	0.994735
C79	C	0.549338	-0.307400	0.328095
C80	C	0.882672	0.025934	0.661429
C81	C	1.216005	0.359267	0.994762
C82	C	0.467354	-0.307405	0.328102
C83	C	0.800687	0.025928	0.661435
C84	C	1.134020	0.359262	0.994769
C85	C	0.467365	-0.401659	0.428321
C86	C	0.800699	-0.068325	0.761654
C87	C	1.134032	0.265008	1.094988
C88	C	0.549344	-0.401654	0.428313
C89	C	0.882678	-0.068321	0.761646
C90	C	1.216011	0.265013	1.094980
C91	C	0.590328	-0.354522	0.378198
C92	C	0.923661	-0.021189	0.711531
C93	C	1.256995	0.312144	1.044864
C94	C	1.184642	-0.815703	0.328046
C95	C	1.517975	-0.482370	0.661380
C96	C	1.851308	-0.149037	0.994713
C97	C	1.184677	-0.892562	0.328065
C98	C	1.518010	-0.559229	0.661399
C99	C	1.851343	-0.225896	0.994732
C100	C	1.084211	-0.892569	0.428374
C101	C	1.417544	-0.559235	0.761707
C102	C	1.750878	-0.225902	1.095041
C103	C	1.084180	-0.815711	0.428359
C104	C	1.417514	-0.482378	0.761692
C105	C	1.750847	-0.149045	1.095025
C106	C	1.134395	-0.777281	0.378190
C107	C	1.467728	-0.443947	0.711524
C108	C	1.801061	-0.110614	1.044857
C109	C	1.134460	-0.930997	0.378225
C110	C	1.467794	-0.597663	0.711558
C111	C	1.801127	-0.264330	1.044892
C112	C	1.134498	-1.014330	0.378246
C113	C	1.467831	-0.680997	0.711579
C114	C	1.801165	-0.347664	1.044912
C115	C	1.134358	-0.693942	0.378170
C116	C	1.467691	-0.360609	0.711503
C117	C	1.801025	-0.027275	1.044837
C118	C	1.339120	-0.354526	0.378204
C119	C	1.672454	-0.021193	0.711538
C120	C	2.005787	0.312141	1.044871
C121	C	1.426370	-0.354532	0.378214
C122	C	1.759703	-0.021199	0.711547
C123	C	2.093037	0.312135	1.044880
C124	C	1.134424	-0.354458	0.582926
C125	C	1.467757	-0.021125	0.916260
C126	C	1.801090	0.312209	1.249593
C127	C	1.134444	-0.354435	0.670176
C128	C	1.467777	-0.021101	1.003510
C129	C	1.801111	0.312232	1.336843
C130	C	1.134481	-0.162559	0.378237
C131	C	1.467814	0.170774	0.711570
C132	C	1.801147	0.504107	1.044904
C133	C	1.134525	-0.080760	0.378261
C134	C	1.467859	0.252573	0.711594
C135	C	1.801192	0.585906	1.044927
C136	C	1.134374	-0.354513	0.174234
C137	C	1.467707	-0.021180	0.507568
C138	C	1.801041	0.312154	0.840901
C139	C	1.134506	-0.354329	0.086985
C140	C	1.467839	-0.020996	0.420318
C141	C	1.801172	0.312338	0.753652
C142	C	1.184677	-0.307365	0.711187
C143	C	1.518010	0.025968	1.044520
C144	C	1.851344	0.359302	1.377853
C145	C	1.184687	-0.307341	0.793167
C146	C	1.518020	0.025993	1.126501
C147	C	1.851353	0.359326	1.459834
C148	C	1.134466	-0.354390	0.834136
C149	C	1.467799	-0.021057	1.167469
C150	C	1.801133	0.312277	1.500802
C151	C	1.084227	-0.401462	0.793120
C152	C	1.417561	-0.068129	1.126453
C153	C	1.750894	0.265205	1.459786
C154	C	1.084214	-0.401482	0.711141
C155	C	1.417548	-0.068149	1.044474
C156	C	1.750881	0.265185	1.377807
C157	C	1.084259	-0.401418	0.963990
C158	C	1.417592	-0.068084	1.297323
C159	C	1.750926	0.265249	1.630656
C160	C	1.084273	-0.401399	1.045974
C161	C	1.417606	-0.068065	1.379308
C162	C	1.750939	0.265268	1.712641
C163	C	1.184731	-0.307276	1.046016
C164	C	1.518064	0.026057	1.379350
C165	C	1.851398	0.359391	1.712683
C166	C	1.184718	-0.307296	0.964037
C167	C	1.518051	0.026037	1.297371
C168	C	1.851385	0.359370	1.630704
C169	C	1.134480	-0.354369	0.923027
C170	C	1.467814	-0.021036	1.256360
C171	C	1.801147	0.312297	1.589694
H172	H	0.835567	-0.440013	0.469079
H173	H	1.168901	-0.106679	0.802413
H174	H	1.502234	0.226654	1.135746
H175	H	0.582705	-0.269014	0.287293
H176	H	0.916038	0.064320	0.620626
H177	H	1.249371	0.397653	0.953960
H178	H	1.225593	-0.269013	0.826554
H179	H	1.558927	0.064320	1.159888
H180	H	1.892260	0.397653	1.493221
H181	H	0.686823	-0.269014	0.287284
H182	H	1.020157	0.064319	0.620618
H183	H	1.353490	0.397652	0.953951
H184	H	0.582721	-0.440029	0.469108
H185	H	0.916054	-0.106696	0.802441
H186	H	1.249387	0.226638	1.135774
F187	F	1.238085	-0.774805	0.274654
F188	F	1.571418	-0.441472	0.607987
F189	F	1.904752	-0.108139	0.941321
F190	F	1.030771	-0.933476	0.481762
F191	F	1.364105	-0.600142	0.815096
F192	F	1.697438	-0.266809	1.148429
F193	F	0.676600	-0.451798	0.481630
F194	F	1.009933	-0.118465	0.814964
F195	F	1.343267	0.214869	1.148297
H196	H	0.433993	-0.440032	0.469129
H197	H	0.767326	-0.106699	0.802462
H198	H	1.100659	0.226634	1.135796
H199	H	0.433978	-0.269025	0.287312
H200	H	0.767311	0.064308	0.620646
H201	H	1.100644	0.397641	0.953979
F202	F	0.845805	-0.257220	0.274734
F203	F	1.179138	0.076113	0.608067
F204	F	1.512471	0.409447	0.941401
H205	H	1.043377	-0.439709	1.079329
H206	H	1.376710	-0.106375	1.412662
H207	H	1.710044	0.226958	1.745996
F208	F	1.030701	-0.774817	0.481735
F209	F	1.364035	-0.441483	0.815068
F210	F	1.697368	-0.108150	1.148402
F211	F	1.238199	-0.257178	1.089663
F212	F	1.571532	0.076156	1.422997
F213	F	1.904866	0.409489	1.756330
H214	H	1.043338	-0.439738	0.930602
H215	H	1.376671	-0.106405	1.263935
H216	H	1.710004	0.226929	1.597268
H217	H	1.225594	-0.923843	0.287234
H218	H	1.558927	-0.590509	0.620568
H219	H	1.892261	-0.257176	0.953901
H220	H	1.043334	-0.439768	0.826483
H221	H	1.376667	-0.106434	1.159816
H222	H	1.710001	0.226899	1.493150
H223	H	1.225575	-0.269054	0.677836
H224	H	1.558908	0.064279	1.011169
H225	H	1.892242	0.397613	1.344503
F226	F	1.030747	-0.451578	0.667495
F227	F	1.364081	-0.118245	1.000828
F228	F	1.697414	0.215088	1.334161
F229	F	1.238173	-0.257225	0.920437
F230	F	1.571506	0.076108	1.253770
F231	F	1.904840	0.409441	1.587104
