data_functionalizedCrystal
_audit_creation_method	'MofGen! by Chris Wilmer'
_symmetry_space_group_name_H-M	'P1'
_symmetry_Int_Tables_number	1
_symmetry_cell_setting	triclinic
loop_
_symmetry_equiv_pos_as_xyz
  x,y,z
_cell_length_a	21.295417
_cell_length_b	14.908941
_cell_length_c	14.908294
_cell_angle_alpha	83.630300
_cell_angle_beta	93.260730
_cell_angle_gamma	86.669616
loop_
_atom_site_label
_atom_site_type_symbol
_atom_site_fract_x
_atom_site_fract_y
_atom_site_fract_z
Zn1	Zn	-0.213456	-1.354181	-0.432056
Zn2	Zn	-0.312290	-1.362796	-0.280691
Zn3	Zn	-0.213482	-1.211556	-0.289431
Zn4	Zn	-0.325138	-1.202763	-0.440717
O5	O	-0.266092	-1.282824	-0.360724
O6	O	-0.221179	-1.481988	-0.404696
O7	O	-0.293817	-1.350018	-0.155190
O8	O	-0.125387	-1.230550	-0.308384
O9	O	-0.293792	-1.488316	-0.293489
O10	O	-0.125368	-1.335337	-0.413170
O11	O	-0.221223	-1.238903	-0.161611
O12	O	-0.233681	-1.083726	-0.316781
O13	O	-0.315689	-1.215564	-0.566228
O14	O	-0.315715	-1.077265	-0.427930
O15	O	-0.233637	-1.326810	-0.559866
O16	O	-0.402086	-1.341492	-0.301886
O17	O	-0.411525	-1.223916	-0.419456
C18	C	-0.276096	-1.047653	-0.374244
C19	C	-0.280391	-0.947045	-0.380050
C20	C	-0.202928	-0.764657	-0.275381
C21	C	-0.206962	-0.670127	-0.280833
C22	C	-0.292496	-0.663453	-0.396400
C23	C	-0.288462	-0.757983	-0.390948
C24	C	-0.243676	-0.808582	-0.330438
C25	C	-0.239639	-0.903114	-0.324991
C26	C	-0.325176	-0.896438	-0.440553
C27	C	-0.329210	-0.801908	-0.446004
C28	C	-0.429646	-1.282708	-0.360681
C29	C	-0.499613	-1.282740	-0.360688
C30	C	-0.527544	-1.344009	-0.299525
C31	C	-0.593286	-1.344050	-0.299543
C32	C	-0.631094	-1.282806	-0.360715
C33	C	-0.603156	-1.221532	-0.421889
C34	C	-0.537415	-1.221499	-0.421875
N35	N	-0.738026	-1.203227	-0.372167
N36	N	-0.800476	-1.203261	-0.372175
C37	C	-0.829167	-1.282905	-0.360761
N38	N	-0.793047	-1.362515	-0.349321
N39	N	-0.730591	-1.362480	-0.349309
C40	C	-0.702379	-1.282836	-0.360737
C41	C	-0.928382	-1.344224	-0.299615
C42	C	-0.994125	-1.344267	-0.299639
C43	C	-1.003994	-1.221741	-0.421980
C44	C	-0.938252	-1.221706	-0.421960
C45	C	-0.900450	-1.282947	-0.360773
C46	C	-0.101898	-1.282964	-0.360786
C47	C	-0.031929	-1.283023	-0.360812
C48	C	-0.276093	-1.269245	-0.596807
C49	C	-0.280356	-1.263459	-0.697411
C50	C	-0.256043	-0.518913	-0.347145
C51	C	-0.251744	-0.619521	-0.341341
C52	C	-0.329076	-1.197385	-0.842523
C53	C	-0.325076	-1.202820	-0.747996
C54	C	-0.239631	-1.318664	-0.741360
C55	C	-0.243632	-1.313229	-0.835887
C56	C	-0.288356	-1.252588	-0.886465
C57	C	-0.292358	-1.247158	-0.980993
C58	C	-0.206912	-1.362997	-0.974356
C59	C	-0.202912	-1.368432	-0.879830
C60	C	-0.256081	-1.296402	-0.125556
C61	C	-0.251634	-1.302364	-0.024942
H62	H	-0.358353	-0.932211	-0.485389
C63	C	-0.190437	-1.385358	-0.685711
C64	C	-0.119737	-1.377282	-0.699146
C65	C	-0.070542	-1.443975	-0.643494
C66	C	-0.092047	-1.518743	-0.574406
C67	C	-0.162750	-1.526822	-0.560967
C68	C	-0.211945	-1.460129	-0.616620
H69	H	-0.103815	-1.321931	-0.750292
H70	H	-0.018203	-1.437994	-0.653443
H71	H	-0.055630	-1.568113	-0.533209
H72	H	-0.178672	-1.582173	-0.509821
H73	H	-0.264284	-1.466110	-0.606671
C74	C	-0.162137	-0.621808	-0.220273
C75	C	-0.189101	-0.560884	-0.152890
C76	C	-0.144274	-0.512565	-0.092326
C77	C	-0.072485	-0.525171	-0.099145
C78	C	-0.045518	-0.586099	-0.166530
C79	C	-0.090344	-0.634417	-0.227094
H80	H	-0.242247	-0.551549	-0.147839
H81	H	-0.164238	-0.467462	-0.042442
H82	H	-0.039302	-0.489403	-0.054312
H83	H	0.007629	-0.595433	-0.171581
H84	H	-0.070381	-0.679520	-0.276978
C85	C	-0.378472	-0.746246	-0.512565
C86	C	-0.377242	-0.753348	-0.614723
C87	C	-0.426504	-0.697689	-0.681287
C88	C	-0.476995	-0.634929	-0.645695
C89	C	-0.478227	-0.627824	-0.543533
C90	C	-0.428965	-0.683483	-0.476968
H91	H	-0.339864	-0.799810	-0.641075
H92	H	-0.425592	-0.702949	-0.756915
H93	H	-0.513462	-0.593727	-0.694971
H94	H	-0.515605	-0.581363	-0.517181
H95	H	-0.429877	-0.678223	-0.401341
C96	C	-0.644742	-1.154163	-0.489178
C97	C	-0.717054	-1.154193	-0.489194
C98	C	-0.758640	-1.086825	-0.556490
C99	C	-0.727913	-1.019426	-0.623771
C100	C	-0.655597	-1.019393	-0.623759
C101	C	-0.614011	-1.086762	-0.556462
H102	H	-0.739803	-1.204088	-0.439386
H103	H	-0.812173	-1.086849	-0.556499
H104	H	-0.758697	-0.969556	-0.673588
H105	H	-0.632848	-0.969499	-0.673567
H106	H	-0.560478	-1.086737	-0.556453
H107	H	-0.166497	-1.417802	-0.838636
C108	C	-0.341762	-0.607789	-0.462953
C109	C	-0.340541	-0.614882	-0.565112
C110	C	-0.389809	-0.559220	-0.631665
C111	C	-0.440297	-0.496465	-0.596059
C112	C	-0.441520	-0.489369	-0.493894
C113	C	-0.392252	-0.545031	-0.427341
H114	H	-0.303165	-0.661339	-0.591475
H115	H	-0.388903	-0.564472	-0.707295
H116	H	-0.476768	-0.455260	-0.645325
H117	H	-0.478896	-0.442912	-0.467531
H118	H	-0.393158	-0.539778	-0.351711
H119	H	-0.203168	-0.944310	-0.275726
C120	C	-0.485966	-1.411381	-0.232226
C121	C	-0.490998	-1.410001	-0.129747
C122	C	-0.449419	-1.477376	-0.062448
C123	C	-0.402808	-1.546131	-0.097629
C124	C	-0.397774	-1.547513	-0.200113
C125	C	-0.439353	-1.480139	-0.267412
H126	H	-0.525504	-1.359103	-0.103700
H127	H	-0.453146	-1.476352	0.013417
H128	H	-0.372028	-1.596005	-0.047811
H129	H	-0.363268	-1.598412	-0.226161
H130	H	-0.435626	-1.481163	-0.343278
C131	C	-0.624020	-1.411442	-0.232252
C132	C	-0.582440	-1.478800	-0.164947
C133	C	-0.613172	-1.546188	-0.097654
C134	C	-0.685484	-1.546218	-0.097665
C135	C	-0.727068	-1.478857	-0.164973
C136	C	-0.696336	-1.411470	-0.232267
H137	H	-0.528906	-1.478780	-0.164936
H138	H	-0.582388	-1.596053	-0.047828
H139	H	-0.708233	-1.596102	-0.047851
H140	H	-0.780602	-1.478877	-0.164984
H141	H	-0.727120	-1.361605	-0.282092
H142	H	-0.514674	-1.171605	-0.471682
C143	C	-0.378272	-1.130693	-0.898170
C144	C	-0.428769	-1.166154	-0.960884
C145	C	-0.477967	-1.099464	-1.016534
C146	C	-0.476668	-0.997314	-1.009469
C147	C	-0.426169	-0.961848	-0.946753
C148	C	-0.376971	-1.028538	-0.891103
H149	H	-0.429733	-1.241776	-0.966116
H150	H	-0.515350	-1.125718	-1.062961
H151	H	-0.513088	-0.947946	-1.050665
H152	H	-0.425206	-0.886226	-0.941521
H153	H	-0.339589	-1.002283	-0.844677
H154	H	-0.897602	-1.394093	-0.249795
C155	C	-1.045575	-1.154368	-0.489269
C156	C	-1.117887	-1.154399	-0.489287
C157	C	-1.159472	-1.087026	-0.556579
C158	C	-1.128744	-1.019621	-0.623853
C159	C	-1.056428	-1.019588	-0.623838
C160	C	-1.014844	-1.086961	-0.556545
H161	H	-1.140637	-1.204298	-0.439484
H162	H	-1.213005	-1.087051	-0.556590
H163	H	-1.159528	-0.969748	-0.673667
H164	H	-1.033678	-0.969689	-0.673640
H165	H	-0.961310	-1.086936	-0.556534
H166	H	-1.016864	-1.394165	-0.249835
C167	C	-0.907525	-1.154300	-0.489236
C168	C	-0.920696	-1.051842	-0.487684
C169	C	-0.889971	-0.984436	-0.554967
C170	C	-0.846075	-1.019488	-0.623801
C171	C	-0.832902	-1.121951	-0.625356
C172	C	-0.863627	-1.189357	-0.558073
H173	H	-0.953193	-1.025890	-0.436726
H174	H	-0.899723	-0.908586	-0.553816
H175	H	-0.823330	-0.969590	-0.673608
H176	H	-0.800405	-1.147903	-0.676314
H177	H	-0.853875	-1.265208	-0.559224
H178	H	-0.166454	-0.805855	-0.226122
H179	H	-0.328776	-1.197783	-1.022173
H180	H	-0.358230	-1.157862	-0.712222
H181	H	-0.173755	-1.407949	-1.010144
