data_functionalizedCrystal
_audit_creation_method	'MofGen! by Chris Wilmer'
_symmetry_space_group_name_H-M	'P1'
_symmetry_Int_Tables_number	1
_symmetry_cell_setting	triclinic
loop_
_symmetry_equiv_pos_as_xyz
  x,y,z
_cell_length_a	17.640280
_cell_length_b	18.215407
_cell_length_c	18.215399
_cell_angle_alpha	89.980167
_cell_angle_beta	78.775397
_cell_angle_gamma	78.800709
loop_
_atom_site_label
_atom_site_type_symbol
_atom_site_fract_x
_atom_site_fract_y
_atom_site_fract_z
Zn1	Zn	-0.314661	1.184366	-0.356963
Zn2	Zn	-0.446838	1.209181	-0.209048
Zn3	Zn	-0.314687	1.061303	-0.233905
Zn4	Zn	-0.446794	1.086163	-0.332082
O5	O	-0.380745	1.135253	-0.282999
O6	O	-0.332202	1.290643	-0.337352
O7	O	-0.429337	1.189546	-0.109356
O8	O	-0.204079	1.056838	-0.271045
O9	O	-0.429312	1.308875	-0.228680
O10	O	-0.204060	1.147252	-0.361454
O11	O	-0.332246	1.080901	-0.127618
O12	O	-0.332203	0.961615	-0.246918
O13	O	-0.429237	1.099208	-0.438372
O14	O	-0.429262	0.979879	-0.319048
O15	O	-0.332159	1.171357	-0.456652
O16	O	-0.557436	1.213652	-0.204553
O17	O	-0.557404	1.123271	-0.294945
C18	C	-0.380731	0.944044	-0.282981
C19	C	-0.380745	0.862248	-0.282987
C20	C	-0.431363	0.683598	-0.320471
C21	C	-0.431365	0.606740	-0.320479
C22	C	-0.330142	0.587662	-0.245542
C23	C	-0.330136	0.664519	-0.245538
C24	C	-0.380751	0.712485	-0.283000
C25	C	-0.380759	0.558771	-0.283013
C26	C	-0.380761	0.475438	-0.283022
C27	C	-0.380748	0.795824	-0.282993
C28	C	-0.586099	1.173871	-0.244368
C29	C	-0.673950	1.190460	-0.227866
C30	C	-0.962935	1.009534	-0.408631
C31	C	-1.045484	1.025123	-0.393101
C32	C	-1.045452	1.119295	-0.299071
C33	C	-0.962901	1.103717	-0.314596
C34	C	-0.921649	1.048835	-0.369375
C35	C	-0.921615	1.143018	-0.275340
C36	C	-0.839071	1.127438	-0.290861
C37	C	-0.797813	1.072557	-0.345636
C38	C	-0.839105	1.033255	-0.384896
C39	C	-0.962869	1.197896	-0.220557
C40	C	-0.921583	1.237196	-0.181301
C41	C	-0.839038	1.221620	-0.196825
C42	C	-0.797780	1.166739	-0.251601
C43	C	-0.797746	1.260922	-0.157566
C44	C	-0.715202	1.245342	-0.173086
C45	C	-0.715236	1.151159	-0.267122
C46	C	-0.174589	1.096504	-0.321798
C47	C	-0.086738	1.079991	-0.338331
C48	C	-0.380690	1.135288	-0.474963
C49	C	-0.380667	1.135302	-0.556766
C50	C	-0.380759	1.327209	-0.283018
C51	C	-0.380765	1.409009	-0.283027
C52	C	-0.330072	1.172878	-0.754489
C53	C	-0.330049	1.172883	-0.831352
C54	C	-0.431141	1.097755	-0.812304
C55	C	-0.431159	1.097747	-0.735444
C56	C	-0.380626	1.135313	-0.706537
C57	C	-0.380584	1.135326	-0.860261
C58	C	-0.380560	1.135330	-0.943600
C59	C	-0.380649	1.135307	-0.623194
C60	C	-0.380742	1.135250	-0.091794
C61	C	-0.380543	1.135336	-0.010033
H62	H	-0.288934	0.548599	-0.215039
H63	H	-0.730600	1.059867	-0.358267
H64	H	-0.288916	0.688037	-0.215026
H65	H	-0.472326	1.067151	-0.696400
H66	H	-1.030082	1.210581	-0.207924
H67	H	-0.472285	1.067172	-0.835849
H68	H	-0.831346	1.305601	-0.112959
H69	H	-0.955182	1.281879	-0.136698
H70	H	-0.472575	0.722651	-0.350978
H71	H	-0.472577	0.583224	-0.350993
H72	H	-0.681646	1.106474	-0.311735
H73	H	-0.805515	0.988570	-0.429509
H74	H	-0.929345	0.964849	-0.453244
H75	H	-0.681587	1.277344	-0.141120
H76	H	-1.079096	0.993124	-0.425081
H77	H	-1.079051	1.163978	-0.254467
H78	H	-0.288922	1.203465	-0.730956
H79	H	-0.288881	1.203471	-0.870391
