data_functionalizedCrystal
_audit_creation_method	'MofGen! by Chris Wilmer'
_symmetry_space_group_name_H-M	'P1'
_symmetry_Int_Tables_number	1
_symmetry_cell_setting	triclinic
loop_
_symmetry_equiv_pos_as_xyz
  x,y,z
_cell_length_a	18.215407
_cell_length_b	12.827892
_cell_length_c	18.215399
_cell_angle_alpha	89.976162
_cell_angle_beta	89.980167
_cell_angle_gamma	90.015840
loop_
_atom_site_label
_atom_site_type_symbol
_atom_site_fract_x
_atom_site_fract_y
_atom_site_fract_z
Zn1	Zn	1.125121	-0.416031	-0.416137
Zn2	Zn	1.125049	-0.590790	-0.293079
Zn3	Zn	1.002053	-0.416065	-0.293084
Zn4	Zn	1.002039	-0.590732	-0.416104
O5	O	1.063566	-0.503405	-0.354601
O6	O	1.228095	-0.439223	-0.399825
O7	O	1.108710	-0.567651	-0.190096
O8	O	1.018414	-0.269825	-0.309423
O9	O	1.228043	-0.567618	-0.309415
O10	O	1.108831	-0.269800	-0.399829
O11	O	1.018345	-0.439282	-0.190099
O12	O	0.899067	-0.439225	-0.309392
O13	O	1.018390	-0.567519	-0.519093
O14	O	0.899057	-0.567552	-0.399774
O15	O	1.108818	-0.439167	-0.519117
O16	O	1.108696	-0.737019	-0.309383
O17	O	1.018321	-0.736976	-0.399769
C18	C	0.872359	-0.503387	-0.354580
C19	C	0.790560	-0.503405	-0.354589
C20	C	1.063520	-0.774915	-0.354588
C21	C	1.063567	-0.891068	-0.354607
C22	C	0.602380	-0.570329	-0.401592
C23	C	0.525522	-0.570333	-0.401601
C24	C	0.525503	-0.436499	-0.307627
C25	C	0.602360	-0.436491	-0.307622
C26	C	0.640797	-0.503413	-0.354603
C27	C	0.487081	-0.503424	-0.354617
C28	C	0.403747	-0.503427	-0.354627
C29	C	0.724136	-0.503408	-0.354595
C30	C	1.108341	-0.942839	-0.309931
C31	C	1.108391	-1.062889	-0.309950
C32	C	1.255518	-0.503424	-0.354623
C33	C	1.337317	-0.503432	-0.354632
C34	C	1.063610	-0.503333	-0.546554
C35	C	1.063629	-0.503302	-0.628353
C36	C	1.063632	-0.230835	-0.354630
C37	C	1.063660	-0.114682	-0.354643
C38	C	1.110732	-0.436407	-0.816561
C39	C	1.110741	-0.436376	-0.893420
C40	C	1.016579	-0.570036	-0.893383
C41	C	1.016567	-0.570060	-0.816526
C42	C	1.063648	-0.503247	-0.778117
C43	C	1.063668	-0.503192	-0.931833
C44	C	1.063678	-0.503160	-1.015167
C45	C	1.063638	-0.503278	-0.694778
C46	C	1.063563	-0.503401	-0.163395
C47	C	1.063687	-0.503138	-0.081597
H48	H	0.633674	-0.624818	-0.439849
O49	O	1.156534	-0.371647	-0.779215
C50	C	1.204038	-0.431150	-0.734743
H51	H	1.208577	-0.513448	-0.757893
H52	H	1.181272	-0.434769	-0.676490
C53	C	1.274975	-0.279009	-0.705149
C54	C	1.280555	-0.380086	-0.733586
H55	H	1.322174	-0.247509	-0.704431
H56	H	1.242970	-0.238919	-0.735108
H57	H	1.256001	-0.282038	-0.656607
H58	H	1.299520	-0.377054	-0.782129
H59	H	1.312565	-0.420174	-0.703634
O60	O	1.153923	-0.889649	-0.264203
C61	C	1.111984	-0.826586	-0.216677
H62	H	1.054060	-0.859621	-0.212062
H63	H	1.109347	-0.743891	-0.239471
C64	C	1.219122	-0.784210	-0.145875
C65	C	1.147980	-0.824789	-0.140201
H66	H	1.241327	-0.783097	-0.098701
H67	H	1.247378	-0.826693	-0.177895
H68	H	1.216915	-0.715301	-0.164873
H69	H	1.150188	-0.893702	-0.121212
H70	H	1.119725	-0.782318	-0.108175
O71	O	0.970889	-0.635086	-0.930616
C72	C	0.986960	-0.739246	-0.911837
H73	H	1.015239	-0.741430	-0.856037
H74	H	1.024797	-0.774431	-0.955094
C75	C	0.880469	-0.799865	-0.976799
C76	C	0.915197	-0.802547	-0.908262
H77	H	0.836203	-0.838914	-0.974597
H78	H	0.869643	-0.729691	-0.989454
H79	H	0.912008	-0.829184	-1.012840
H80	H	0.883662	-0.773217	-0.872225
H81	H	0.926016	-0.872718	-0.895602
O82	O	1.156444	-0.371303	-0.930681
C83	C	1.140370	-0.267156	-0.911919
H84	H	1.112070	-0.265012	-0.856110
H85	H	1.102549	-0.231936	-0.955171
C86	C	1.246886	-0.206495	-0.976929
C87	C	1.212134	-0.203862	-0.908382
H88	H	1.291152	-0.167450	-0.974750
H89	H	1.257715	-0.276660	-0.989573
H90	H	1.215361	-0.177147	-1.012966
H91	H	1.243654	-0.233221	-0.872349
H92	H	1.201312	-0.133700	-0.895732
H93	H	1.146721	-1.107412	-0.271699
O94	O	0.970930	-0.635046	-0.779095
C95	C	1.012810	-0.702571	-0.734649
H96	H	1.068588	-0.665721	-0.723155
H97	H	1.020882	-0.780008	-0.764257
C98	C	0.903798	-0.766767	-0.675748
C99	C	0.972303	-0.721503	-0.661625
H100	H	0.878811	-0.778450	-0.630704
H101	H	0.875582	-0.721277	-0.705694
H102	H	0.910534	-0.831292	-0.700423
H103	H	0.965566	-0.656973	-0.636958
H104	H	1.000517	-0.766982	-0.631673
H105	H	0.494246	-0.624822	-0.439864
H106	H	1.025323	-1.070167	-0.392891
H107	H	0.494198	-0.382016	-0.269375
O108	O	0.639569	-0.371452	-0.261904
C109	C	0.589164	-0.312376	-0.220447
H110	H	0.534370	-0.355177	-0.217849
H111	H	0.581013	-0.233058	-0.247491
C112	C	0.686435	-0.244602	-0.145331
C113	C	0.619137	-0.297176	-0.142135
H114	H	0.704924	-0.235221	-0.097025
H115	H	0.720394	-0.284399	-0.173263
H116	H	0.679633	-0.178509	-0.167871
H117	H	0.625941	-0.363272	-0.119604
H118	H	0.585179	-0.257389	-0.114197
H119	H	1.025275	-0.935621	-0.392873
