data_functionalizedCrystal
_audit_creation_method	'MofGen! by Chris Wilmer'
_symmetry_space_group_name_H-M	'P1'
_symmetry_Int_Tables_number	1
_symmetry_cell_setting	triclinic
loop_
_symmetry_equiv_pos_as_xyz
  x,y,z
_cell_length_a	10.489716
_cell_length_b	15.944551
_cell_length_c	8.965430
_cell_angle_alpha	89.999468
_cell_angle_beta	89.996523
_cell_angle_gamma	84.013937
loop_
_atom_site_label
_atom_site_type_symbol
_atom_site_fract_x
_atom_site_fract_y
_atom_site_fract_z
O1	O	1.692430	0.118402	-0.124031
O2	O	1.321076	0.129548	-0.124037
O3	O	1.516894	0.001760	-0.124020
O4	O	1.496612	0.246189	-0.124047
O5	O	1.516877	0.001769	0.124059
O6	O	1.321059	0.129556	0.124042
O7	O	1.692414	0.118411	0.124048
Cu8	Cu	1.506735	0.123984	0.146697
Cu9	Cu	1.506754	0.123974	-0.146685
O10	O	1.496596	0.246198	0.124031
C11	C	1.273547	0.128714	0.000002
C12	C	1.131951	0.126209	0.000000
C13	C	1.033191	0.204572	-0.000012
C14	C	0.956410	0.163168	0.122315
C15	C	0.956434	0.163141	-0.122271
C16	C	1.057036	0.084837	0.122428
C17	C	1.057064	0.084822	-0.122268
C18	C	0.980334	0.043360	0.000089
C19	C	1.516044	-0.029534	0.000019
C20	C	1.513519	-0.122795	0.000020
C21	C	1.386109	-0.338411	-0.000002
C22	C	1.445266	-0.399071	0.122316
C23	C	1.508953	-0.293548	0.000009
C24	C	1.445311	-0.399063	-0.122270
C25	C	1.504533	-0.458487	-0.000009
C26	C	1.568144	-0.352981	0.122428
C27	C	1.568172	-0.352966	-0.122268
C28	C	1.627418	-0.413609	0.000081
C29	C	1.511496	-0.198531	0.000020
C30	C	1.501999	-0.553504	-0.000010
C31	C	1.739942	0.119244	0.000006
C32	C	1.881539	0.121749	-0.000002
C33	C	1.497446	0.277493	-0.000012
C34	C	1.499970	0.370754	-0.000022
N35	N	1.506731	0.123991	0.353046
N36	N	1.506769	0.123961	-0.353035
C37	C	1.416143	0.183068	0.450344
C38	C	1.531406	0.200058	0.549757
C39	C	1.391517	0.107009	0.549760
C40	C	1.622051	0.141018	0.450270
C41	C	1.482086	0.047936	0.450264
C42	C	1.597432	0.064893	0.549632
H43	H	0.912498	0.196233	-0.225674
H44	H	1.101025	0.051763	-0.225682
C45	C	1.765286	-0.457593	0.000180
N46	N	1.869125	-0.490724	0.000264
C47	C	1.638313	-0.325354	-0.261978
N48	N	1.691134	-0.304555	-0.367220
C49	C	1.638264	-0.325555	0.262290
N50	N	1.691072	-0.304895	0.367636
C51	C	1.248362	-0.294226	0.000162
N52	N	1.144615	-0.260944	0.000296
H53	H	1.719522	0.155446	0.406753
H54	H	1.461179	-0.016349	0.406527
H55	H	1.393344	-0.419453	-0.225688
C56	C	1.312754	0.250623	0.391430
N57	N	1.234889	0.301508	0.347051
C58	C	1.065263	0.296653	0.000140
N59	N	1.089424	0.366007	0.000264
H60	H	1.393301	-0.419486	0.225726
H61	H	1.294067	0.092659	0.593465
H62	H	0.912463	0.196251	0.225724
C63	C	1.559594	0.286929	0.608814
N64	N	1.580815	0.352362	0.653295
C65	C	1.701058	-0.002613	0.608184
N66	N	1.779114	-0.053454	0.652295
C67	C	0.948592	-0.048791	0.000199
N68	N	0.924679	-0.118197	0.000290
C69	C	1.116158	0.040187	0.262290
N70	N	1.160691	0.006561	0.367636
