data_functionalizedCrystal
_audit_creation_method	'MofGen! by Chris Wilmer'
_symmetry_space_group_name_H-M	'P1'
_symmetry_Int_Tables_number	1
_symmetry_cell_setting	triclinic
loop_
_symmetry_equiv_pos_as_xyz
  x,y,z
_cell_length_a	17.699083
_cell_length_b	10.654541
_cell_length_c	16.776229
_cell_angle_alpha	89.993604
_cell_angle_beta	89.998886
_cell_angle_gamma	83.883472
loop_
_atom_site_label
_atom_site_type_symbol
_atom_site_fract_x
_atom_site_fract_y
_atom_site_fract_z
O1	O	1.005087	0.158809	-0.066176
O2	O	1.505087	0.658809	0.433824
O3	O	0.784840	0.179470	-0.066202
O4	O	1.284840	0.679470	0.433798
O5	O	0.900029	-0.013689	-0.066184
O6	O	1.400029	0.486311	0.433816
O7	O	0.889899	0.351968	-0.066194
O8	O	1.389899	0.851968	0.433806
O9	O	0.900013	-0.013700	0.066393
O10	O	1.400013	0.486300	0.566393
O11	O	0.784825	0.179458	0.066374
O12	O	1.284825	0.679458	0.566374
O13	O	1.005072	0.158797	0.066400
O14	O	1.505072	0.658797	0.566400
Zn15	Zn	0.894946	0.169126	0.087437
Zn16	Zn	1.394946	0.669126	0.587437
Zn17	Zn	0.894966	0.169142	-0.087238
Zn18	Zn	1.394966	0.669142	0.412762
O19	O	0.889883	0.351956	0.066382
O20	O	1.389883	0.851956	0.566382
C21	C	0.756631	0.178724	0.000083
C22	C	1.256631	0.678724	0.500083
C23	C	0.672599	0.176503	0.000073
C24	C	1.172599	0.676503	0.500073
C25	C	0.624698	0.289883	0.000070
C26	C	1.124698	0.789883	0.500070
C27	C	0.545741	0.287789	0.000080
C28	C	1.045741	0.787789	0.500080
C29	C	0.514687	0.172313	0.000088
C30	C	1.014687	0.672313	0.500088
C31	C	0.562594	0.058924	0.000094
C32	C	1.062594	0.558924	0.500094
C33	C	0.641549	0.061020	0.000089
C34	C	1.141549	0.561020	0.500089
C35	C	0.244177	0.050470	0.000114
C36	C	0.744177	0.550470	0.500114
C37	C	0.165216	0.048383	0.000116
C38	C	0.665216	0.548383	0.500116
C39	C	0.148369	0.277239	0.000105
C40	C	0.648369	0.777239	0.500105
C41	C	0.227324	0.279335	0.000100
C42	C	0.727324	0.779335	0.500100
C43	C	0.275224	0.165946	0.000110
C44	C	0.775224	0.665946	0.500110
C45	C	0.360838	0.168219	0.000100
C46	C	0.860838	0.668219	0.500100
C47	C	0.429075	0.170039	0.000092
C48	C	0.929075	0.670039	0.500092
C49	C	0.899277	-0.060480	0.000104
C50	C	1.399277	0.439520	0.500104
C51	C	0.897053	-0.199884	0.000103
C52	C	1.397053	0.300116	0.500103
C53	C	1.034792	-0.230266	0.000129
C54	C	1.534792	0.269734	0.500129
C55	C	1.102614	-0.310947	0.000144
C56	C	1.602614	0.189053	0.500144
C57	C	1.100519	-0.441929	0.000141
C58	C	1.600519	0.058071	0.500141
C59	C	1.030596	-0.492230	0.000121
C60	C	1.530596	0.007770	0.500121
C61	C	0.962775	-0.411549	0.000106
C62	C	1.462775	0.088451	0.500106
C63	C	0.964876	-0.280566	0.000111
C64	C	1.464876	0.219434	0.500111
C65	C	0.825037	-0.381167	0.000074
C66	C	1.325037	0.118833	0.500074
C67	C	0.827130	-0.250185	0.000083
C68	C	1.327130	0.249815	0.500083
C69	C	0.755114	-0.431468	0.000054
C70	C	1.255114	0.068532	0.500054
C71	C	0.687291	-0.350786	0.000045
C72	C	1.187291	0.149214	0.500045
C73	C	0.689388	-0.219798	0.000049
C74	C	1.189388	0.280202	0.500049
C75	C	0.759308	-0.169504	0.000068
C76	C	1.259308	0.330496	0.500068
C77	C	1.033281	0.159543	0.000114
C78	C	1.533281	0.659543	0.500114
C79	C	1.117313	0.161764	0.000118
C80	C	1.617313	0.661764	0.500118
C81	C	0.890634	0.398747	0.000093
C82	C	1.390634	0.898747	0.500093
C83	C	0.892859	0.538151	0.000089
C84	C	1.392859	1.038151	0.500089
N85	N	0.894937	0.169115	0.206648
N86	N	1.394937	0.669115	0.706648
N87	N	0.894981	0.169143	-0.206450
N88	N	1.394981	0.669143	0.293550
C89	C	0.945959	0.083619	0.248373
C90	C	1.445959	0.583619	0.748373
C91	C	0.945963	0.083618	0.331826
C92	C	1.445963	0.583618	0.831826
C93	C	0.894949	0.169119	0.373551
C94	C	1.394949	0.669119	0.873551
C95	C	0.843922	0.254619	0.331820
C96	C	1.343922	0.754619	0.831820
C97	C	0.843915	0.254613	0.248369
C98	C	1.343915	0.754613	0.748369
C99	C	0.843950	0.254644	0.668367
C100	C	1.343950	0.754644	1.168367
C101	C	0.843962	0.254646	0.751824
C102	C	1.343962	0.754646	1.251824
C103	C	0.945998	0.083648	0.751823
C104	C	1.445998	0.583648	1.251823
C105	C	0.945990	0.083642	0.668373
C106	C	1.445990	0.583642	1.168373
C107	C	0.894961	0.169137	0.626649
C108	C	1.394961	0.669137	1.126649
C109	C	0.894956	0.169136	0.536161
C110	C	1.394956	0.669136	1.036161
C111	C	0.894957	0.169128	0.464038
C112	C	1.394957	0.669128	0.964038
H113	H	0.283168	-0.041858	0.000122
H114	H	0.783168	0.458142	0.500122
C115	C	0.761622	-0.025423	0.000071
C116	C	1.261622	0.474577	0.500071
N117	N	0.763368	0.083100	0.000070
N118	N	1.263368	0.583100	0.500070
C119	C	1.028296	-0.636314	0.000115
C120	C	1.528296	-0.136314	0.500115
N121	N	1.026563	-0.744840	0.000113
N122	N	1.526563	-0.244840	0.500113
C123	C	1.037103	-0.086184	0.000139
C124	C	1.537103	0.413816	0.500139
N125	N	1.038845	0.022339	0.000145
N126	N	1.538845	0.522339	0.500145
C127	C	1.002072	-0.010465	0.377720
C128	C	1.502072	0.489535	0.877720
N129	N	1.044329	-0.081343	0.412286
N130	N	1.544329	0.418657	0.912286
C131	C	0.528431	-0.068101	0.000104
C132	C	1.028431	0.431899	0.500104
N133	N	0.502701	-0.163779	0.000108
N134	N	1.002701	0.336221	0.500108
H135	H	0.252604	0.373367	0.000090
H136	H	0.752604	0.873367	0.500090
H137	H	0.680549	-0.031306	0.000091
H138	H	1.180549	0.468694	0.500091
C139	C	0.787835	0.348701	0.797720
C140	C	1.287835	0.848701	1.297720
N141	N	0.745562	0.419538	0.832289
N142	N	1.245562	0.919538	1.332289
H143	H	0.753413	-0.538121	0.000047
H144	H	1.253413	-0.038121	0.500047
H145	H	1.159544	-0.269977	0.000167
H146	H	1.659544	0.230023	0.500167
C147	C	0.131059	-0.078656	0.000134
C148	C	0.631059	0.421344	0.500134
N149	N	0.105331	-0.174336	0.000150
N150	N	0.605331	0.325664	0.500150
C151	C	0.610383	-0.406127	0.000028
C152	C	1.110383	0.093873	0.500028
N153	N	0.552455	-0.447815	0.000019
N154	N	1.052455	0.052185	0.500019
C155	C	0.787915	0.348853	0.622482
C156	C	1.287915	0.848853	1.122482
N157	N	0.745743	0.419875	0.587918
N158	N	1.245743	0.919875	1.087918
C159	C	1.002079	-0.010442	0.202483
C160	C	1.502079	0.489558	0.702483
N161	N	1.044348	-0.081296	0.167921
N162	N	1.544348	0.418704	0.667921
H163	H	1.155746	-0.507621	0.000147
H164	H	1.655746	-0.007621	0.500147
C165	C	0.787799	0.348660	0.377721
C166	C	1.287799	0.848660	0.877721
N167	N	0.745525	0.419494	0.412293
N168	N	1.245525	0.919494	0.912293
C169	C	1.002108	-0.010419	0.622479
C170	C	1.502108	0.489581	1.122479
N171	N	1.044374	-0.081272	0.587914
N172	N	1.544374	0.418728	1.087914
H173	H	0.634159	-0.154113	0.000034
H174	H	1.134159	0.345887	0.500034
C175	C	0.787793	0.348675	0.202472
C176	C	1.287793	0.848675	0.702472
N177	N	0.745521	0.419527	0.167903
N178	N	1.245521	0.919527	0.667903
C179	C	0.493053	0.412516	0.000091
C180	C	0.993053	0.912516	0.500091
N181	N	0.453369	0.506467	0.000105
N182	N	0.953369	1.006467	0.500105
H183	H	0.649976	0.383917	0.000063
H184	H	1.149976	0.883917	0.500063
C185	C	1.002125	-0.010410	0.797727
C186	C	1.502125	0.489590	1.297727
N187	N	1.044399	-0.081251	0.832300
N188	N	1.544399	0.418749	1.332300
H189	H	0.109359	0.369565	0.000101
H190	H	0.609359	0.869565	0.500101
