data_functionalizedCrystal
_audit_creation_method	'MofGen! by Chris Wilmer'
_symmetry_space_group_name_H-M	'P1'
_symmetry_Int_Tables_number	1
_symmetry_cell_setting	triclinic
loop_
_symmetry_equiv_pos_as_xyz
  x,y,z
_cell_length_a	15.995343
_cell_length_b	15.995343
_cell_length_c	10.868271
_cell_angle_alpha	89.990143
_cell_angle_beta	90.000003
_cell_angle_gamma	83.489184
loop_
_atom_site_label
_atom_site_type_symbol
_atom_site_fract_x
_atom_site_fract_y
_atom_site_fract_z
O1	O	1.110986	0.107896	-0.102212
O2	O	1.444320	0.441230	0.231121
O3	O	1.777653	0.774563	0.564455
O4	O	0.867210	0.121231	-0.102243
O5	O	1.200543	0.454564	0.231090
O6	O	1.533876	0.787897	0.564424
O7	O	0.995765	-0.007325	-0.102204
O8	O	1.329099	0.326009	0.231130
O9	O	1.662432	0.659342	0.564463
O10	O	0.982431	0.236452	-0.102251
O11	O	1.315764	0.569785	0.231082
O12	O	1.649098	0.903118	0.564415
O13	O	0.995755	-0.007330	0.102441
O14	O	1.329088	0.326004	0.435774
O15	O	1.662421	0.659337	0.769108
O16	O	0.867199	0.121226	0.102402
O17	O	1.200533	0.454559	0.435735
O18	O	1.533866	0.787892	0.769068
O19	O	1.110976	0.107891	0.102433
O20	O	1.444309	0.441225	0.435766
O21	O	1.777642	0.774558	0.769099
Zn22	Zn	0.989086	0.114558	0.134909
Zn23	Zn	1.322419	0.447891	0.468242
Zn24	Zn	1.655752	0.781224	0.801576
Zn25	Zn	0.989100	0.114564	-0.134719
Zn26	Zn	1.322433	0.447898	0.198614
Zn27	Zn	1.655766	0.781231	0.531947
O28	O	0.982420	0.236447	0.102393
O29	O	1.315754	0.569780	0.435727
O30	O	1.649087	0.903114	0.769060
C31	C	0.836010	0.120678	0.000076
C32	C	1.169343	0.454011	0.333409
C33	C	1.502676	0.787345	0.666742
C34	C	0.743059	0.119029	0.000065
C35	C	1.076392	0.452362	0.333398
C36	C	1.409726	0.785696	0.666731
C37	C	0.572873	0.116035	0.000082
C38	C	0.906206	0.449369	0.333415
C39	C	1.239539	0.782702	0.666748
C40	C	0.549530	0.023238	0.000099
C41	C	0.882863	0.356571	0.333433
C42	C	1.216196	0.689905	0.666766
C43	C	0.452852	0.021492	0.000571
C44	C	0.786185	0.354825	0.333905
C45	C	1.119518	0.688159	0.667238
C46	C	0.405313	0.113087	0.000097
C47	C	0.738646	0.446420	0.333430
C48	C	1.071980	0.779753	0.666764
C49	C	0.434397	0.159744	0.116718
C50	C	0.767730	0.493077	0.450051
C51	C	1.101064	0.826411	0.783384
C52	C	0.531190	0.160845	0.116808
C53	C	0.864523	0.494178	0.450142
C54	C	1.197856	0.827511	0.783475
C55	C	0.531112	0.162209	-0.115919
C56	C	0.864445	0.495542	0.217414
C57	C	1.197779	0.828876	0.550747
C58	C	0.434617	0.158783	-0.117444
C59	C	0.767951	0.492117	0.215889
C60	C	1.101284	0.825450	0.549222
C61	C	0.310615	0.111425	0.000110
C62	C	0.643948	0.444759	0.333443
C63	C	0.977281	0.778092	0.666777
C64	C	0.667571	0.117700	0.000077
C65	C	1.000904	0.451033	0.333411
C66	C	1.334237	0.784366	0.666744
C67	C	0.995210	-0.038522	0.000122
C68	C	1.328543	0.294811	0.333455
C69	C	1.661877	0.628145	0.666788
C70	C	0.993561	-0.131473	0.000131
C71	C	1.326894	0.201861	0.333465
C72	C	1.660227	0.535194	0.666798
C73	C	0.990567	-0.301659	0.000103
C74	C	1.323900	0.031674	0.333436
C75	C	1.657234	0.365008	0.666769
C76	C	0.897770	-0.325002	0.000088
C77	C	1.231103	0.008331	0.333422
C78	C	1.564436	0.341665	0.666755
C79	C	0.896024	-0.421680	-0.000390
C80	C	1.229357	-0.088347	0.332943
C81	C	1.562690	0.244987	0.666277
C82	C	0.987619	-0.469219	0.000076
C83	C	1.320952	-0.135885	0.333409
C84	C	1.654285	0.197448	0.666743
C85	C	1.034285	-0.440118	-0.116545
C86	C	1.367618	-0.106785	0.216788
C87	C	1.700951	0.226548	0.550122
C88	C	1.035385	-0.343326	-0.116629
C89	C	1.368719	-0.009993	0.216704
C90	C	1.702052	0.323341	0.550038
C91	C	1.036732	-0.343436	0.116099
C92	C	1.370065	-0.010102	0.449432
C93	C	1.703398	0.323231	0.782765
C94	C	1.033306	-0.439931	0.117617
C95	C	1.366639	-0.106598	0.450951
C96	C	1.699973	0.226736	0.784284
C97	C	0.985957	-0.563917	0.000057
C98	C	1.319290	-0.230584	0.333390
C99	C	1.652624	0.102750	0.666724
C100	C	0.992231	-0.206961	0.000114
C101	C	1.325565	0.126372	0.333447
C102	C	1.658898	0.459705	0.666780
C103	C	1.142176	0.108444	0.000111
C104	C	1.475509	0.441777	0.333445
C105	C	1.808843	0.775111	0.666778
C106	C	1.235127	0.110093	0.000114
C107	C	1.568460	0.443427	0.333448
C108	C	1.901793	0.776760	0.666781
C109	C	0.982976	0.267644	0.000065
C110	C	1.316309	0.600977	0.333399
C111	C	1.649642	0.934311	0.666732
C112	C	0.984625	0.360595	0.000048
C113	C	1.317958	0.693928	0.333381
C114	C	1.651292	1.027262	0.666714
N115	N	0.989082	0.114553	0.318923
N116	N	1.322416	0.447886	0.652256
N117	N	1.655749	0.781219	0.985590
N118	N	0.989110	0.114563	-0.318733
N119	N	1.322443	0.447896	0.014600
N120	N	1.655776	0.781229	0.347933
C121	C	0.989095	0.114563	0.569929
C122	C	1.322429	0.447896	0.903262
C123	C	1.655762	0.781229	1.236596
C124	C	0.989085	0.114560	0.430252
C125	C	1.322419	0.447893	0.763585
C126	C	1.655752	0.781226	1.096918
H127	H	0.578511	-0.012147	0.083618
H128	H	0.911844	0.321186	0.416951
H129	H	1.245177	0.654519	0.750285
H130	H	0.862391	-0.296010	-0.083427
H131	H	1.195724	0.037324	0.249907
H132	H	1.529058	0.370657	0.583240
H133	H	1.007449	-0.315173	0.204526
H134	H	1.340783	0.018161	0.537859
H135	H	1.674116	0.351494	0.871192
H136	H	1.105034	-0.329418	0.117240
H137	H	1.438367	0.003916	0.450574
H138	H	1.771701	0.337249	0.783907
H139	H	0.999323	-0.458497	0.203896
H140	H	1.332656	-0.125164	0.537229
H141	H	1.665990	0.208169	0.870562
H142	H	0.859486	-0.440705	0.083184
H143	H	1.192820	-0.107371	0.416517
H144	H	1.526153	0.225962	0.749851
H145	H	0.577542	-0.012729	-0.083517
H146	H	0.910876	0.320604	0.249816
H147	H	1.244209	0.653938	0.583150
H148	H	0.433838	-0.015031	-0.083009
H149	H	0.767171	0.318302	0.250324
H150	H	1.100504	0.651636	0.583657
H151	H	0.434412	-0.014864	0.084673
H152	H	0.767745	0.318469	0.418006
H153	H	1.101078	0.651803	0.751339
H154	H	0.559387	0.132933	-0.204343
H155	H	0.892721	0.466267	0.128990
H156	H	1.226054	0.799600	0.462324
H157	H	1.101696	-0.471966	-0.120547
H158	H	1.435029	-0.138633	0.212786
H159	H	1.768362	0.194701	0.546119
H160	H	0.545123	0.230513	-0.117057
H161	H	0.878457	0.563847	0.216276
H162	H	1.211790	0.897180	0.549610
H163	H	0.861796	-0.297000	0.083708
H164	H	1.195130	0.036333	0.417041
H165	H	1.528463	0.369666	0.750374
H166	H	0.416065	0.124806	-0.203722
H167	H	0.749398	0.458139	0.129611
H168	H	1.082732	0.791472	0.462945
H169	H	0.859678	-0.440109	-0.084494
H170	H	1.193011	-0.106775	0.248840
H171	H	1.526344	0.226558	0.582173
H172	H	1.100142	-0.472881	0.125019
H173	H	1.433476	-0.139548	0.458352
H174	H	1.766809	0.193785	0.791686
H175	H	1.003454	-0.316532	-0.204146
H176	H	1.336787	0.016802	0.129188
H177	H	1.670120	0.350135	0.462521
H178	H	0.557972	0.128906	0.204329
H179	H	0.891305	0.462239	0.537662
H180	H	1.224638	0.795573	0.870995
H181	H	0.545761	0.228895	0.121782
H182	H	0.879094	0.562228	0.455116
H183	H	1.212428	0.895562	0.788449
H184	H	0.414302	0.127727	0.203849
H185	H	0.747635	0.461060	0.537183
H186	H	1.080968	0.794394	0.870516
H187	H	0.402549	0.227155	0.120714
H188	H	0.735882	0.560488	0.454048
H189	H	1.069216	0.893821	0.787381
H190	H	0.401659	0.225616	-0.124861
H191	H	0.734992	0.558950	0.208472
H192	H	1.068325	0.892283	0.541806
H193	H	1.002274	-0.460200	-0.203676
H194	H	1.335607	-0.126867	0.129657
H195	H	1.668940	0.206466	0.462990
H196	H	1.103437	-0.328754	-0.121591
H197	H	1.436770	0.004580	0.211742
H198	H	1.770103	0.337913	0.545076
