data_functionalizedCrystal
_audit_creation_method	'MofGen! by Chris Wilmer'
_symmetry_space_group_name_H-M	'P1'
_symmetry_Int_Tables_number	1
_symmetry_cell_setting	triclinic
loop_
_symmetry_equiv_pos_as_xyz
  x,y,z
_cell_length_a	17.019383
_cell_length_b	17.019294
_cell_length_c	16.098538
_cell_angle_alpha	88.846036
_cell_angle_beta	83.394151
_cell_angle_gamma	83.133350
loop_
_atom_site_label
_atom_site_type_symbol
_atom_site_fract_x
_atom_site_fract_y
_atom_site_fract_z
O1	O	1.054286	0.092839	-0.151449
O2	O	1.554286	0.592839	0.348551
O3	O	0.823816	0.106434	-0.135913
O4	O	1.323816	0.606434	0.364087
O5	O	0.945061	-0.014807	-0.135901
O6	O	1.445061	0.485193	0.364099
O7	O	0.933041	0.214080	-0.151462
O8	O	1.433041	0.714080	0.348538
O9	O	0.937978	-0.007752	0.002614
O10	O	1.437978	0.492248	0.502614
O11	O	0.816733	0.113488	0.002601
O12	O	1.316733	0.613488	0.502601
O13	O	1.047203	0.099894	-0.012935
O14	O	1.547203	0.599894	0.487065
Zn15	Zn	0.930844	0.107811	0.016825
Zn16	Zn	1.430844	0.607811	0.516825
Zn17	Zn	0.940175	0.098516	-0.165673
Zn18	Zn	1.440175	0.598516	0.334327
O19	O	0.925958	0.221134	-0.012948
O20	O	1.425958	0.721134	0.487052
C21	C	0.790777	0.109582	-0.064516
C22	C	1.290777	0.609582	0.435484
C23	C	0.702884	0.108445	-0.058138
C24	C	1.202884	0.608445	0.441862
C25	C	0.665445	0.104068	-0.130639
C26	C	1.165445	0.604068	0.369361
C27	C	0.582858	0.103012	-0.124635
C28	C	1.082858	0.603012	0.375365
C29	C	0.537712	0.106329	-0.046127
C30	C	1.037712	0.606329	0.453873
C31	C	0.575156	0.110709	0.026379
C32	C	1.075156	0.610709	0.526379
C33	C	0.657741	0.111770	0.020374
C34	C	1.157741	0.611770	0.520374
C35	C	0.288165	0.103323	-0.024217
C36	C	0.788165	0.603323	0.475783
C37	C	0.205575	0.102260	-0.018217
C38	C	0.705575	0.602260	0.481783
C39	C	0.213282	0.094564	-0.169231
C40	C	0.713282	0.594564	0.330769
C41	C	0.295868	0.095621	-0.175230
C42	C	0.795868	0.595621	0.324770
C43	C	0.333305	0.100005	-0.102723
C44	C	0.833305	0.600005	0.397277
C45	C	0.453295	0.105248	-0.039988
C46	C	0.953295	0.605248	0.460012
C47	C	0.417720	0.101092	-0.108864
C48	C	0.917720	0.601092	0.391136
C49	C	0.940924	-0.040559	-0.064502
C50	C	1.440924	0.459441	0.435498
C51	C	0.939141	-0.127803	-0.058120
C52	C	1.439141	0.372197	0.441880
C53	C	0.942165	-0.172631	-0.130625
C54	C	1.442165	0.327369	0.369375
C55	C	0.940484	-0.254605	-0.124625
C56	C	1.440484	0.245395	0.375375
C57	C	0.935784	-0.291750	-0.046120
C58	C	1.435784	0.208250	0.453880
C59	C	0.932757	-0.246915	0.026391
C60	C	1.432757	0.253085	0.526391
C61	C	0.934432	-0.164942	0.020391
C62	C	1.434432	0.335058	0.520391
C63	C	0.930527	-0.539063	-0.024226
C64	C	1.430527	-0.039063	0.475774
C65	C	0.928854	-0.621042	-0.018231
C66	C	1.428854	-0.121042	0.481769
C67	C	0.936580	-0.628726	-0.169248
C68	C	1.436580	-0.128726	0.330752
C69	C	0.938260	-0.546752	-0.175241
C70	C	1.438260	-0.046752	0.324759
C71	C	0.935229	-0.501924	-0.102730
C72	C	1.435229	-0.001924	0.397270
C73	C	0.934068	-0.375540	-0.039985
C74	C	1.434068	0.124460	0.460015
C75	C	0.936939	-0.418134	-0.108865
C76	C	1.436939	0.081866	0.391135
C77	C	1.080242	0.096745	-0.084334
C78	C	1.580242	0.596745	0.415666
C79	C	1.168135	0.097882	-0.090718
C80	C	1.668135	0.597882	0.409282
C81	C	0.930095	0.246886	-0.084349
C82	C	1.430095	0.746886	0.415651
C83	C	0.931879	0.334130	-0.090736
C84	C	1.431879	0.834130	0.409264
N85	N	0.924481	0.114154	0.141375
N86	N	1.424481	0.614154	0.641375
N87	N	0.946545	0.092167	-0.290223
N88	N	1.446545	0.592167	0.209777
C89	C	0.975961	0.062713	0.184963
C90	C	1.475961	0.562713	0.684963
C91	C	0.971517	0.067157	0.272151
C92	C	1.471517	0.567157	0.772151
C93	C	0.915597	0.123048	0.315750
C94	C	1.415597	0.623048	0.815750
C95	C	0.864111	0.174491	0.272156
C96	C	1.364111	0.674491	0.772156
C97	C	0.868552	0.170042	0.184970
C98	C	1.368552	0.670042	0.684970
C99	C	0.899499	0.139162	0.578997
C100	C	1.399499	0.639162	1.078997
C101	C	0.895064	0.143608	0.666189
C102	C	1.395064	0.643608	1.166189
C103	C	1.002470	0.036273	0.666178
C104	C	1.502470	0.536273	1.166178
C105	C	1.006909	0.031832	0.578990
C106	C	1.506909	0.531832	1.078990
C107	C	0.955420	0.083273	0.535404
C108	C	1.455420	0.583273	1.035404
C109	C	0.911055	0.127594	0.404870
C110	C	1.411055	0.627594	0.904870
C111	C	0.959959	0.078723	0.446286
C112	C	1.459959	0.578723	0.946286
H113	H	0.332622	0.092914	-0.239158
H114	H	0.832622	0.592914	0.260842
C115	C	0.947335	-0.131779	-0.216982
C116	C	1.447335	0.368221	0.283018
H117	H	0.948888	-0.170219	-0.259302
H118	H	1.448888	0.329781	0.240698
H119	H	0.994272	-0.106170	-0.225323
H120	H	1.494272	0.393830	0.274677
H121	H	0.902018	-0.093752	-0.219601
H122	H	1.402018	0.406248	0.280399
C123	C	0.715102	0.100419	-0.216996
C124	C	1.215102	0.600419	0.283004
H125	H	0.769650	0.101671	-0.210191
H126	H	1.269650	0.601671	0.289809
H127	H	0.697232	0.144498	-0.249900
H128	H	1.197232	0.644498	0.250100
H129	H	0.709065	0.052827	-0.244169
H130	H	1.209065	0.552827	0.255831
H131	H	0.552378	0.099448	-0.183673
H132	H	1.052378	0.599448	0.316327
H133	H	0.865525	0.173102	0.440375
H134	H	1.365525	0.673102	0.940375
H135	H	0.168816	0.104983	0.045715
H136	H	0.668816	0.604983	0.545715
H137	H	0.925023	-0.651282	0.045701
H138	H	1.425023	-0.151282	0.545701
H139	H	0.928074	-0.502575	0.034817
H140	H	1.428074	-0.002575	0.534817
H141	H	0.182791	0.090996	-0.228262
H142	H	0.682791	0.590996	0.271738
C143	C	0.942110	-0.377281	-0.195218
C144	C	1.442110	0.122719	0.304782
H145	H	0.943669	-0.415716	-0.237545
H146	H	1.443669	0.084284	0.262455
H147	H	0.989047	-0.351670	-0.203548
H148	H	1.489047	0.148330	0.296452
H149	H	0.896793	-0.339254	-0.197837
H150	H	1.396793	0.160746	0.302163
H151	H	1.005487	0.033214	0.410786
H152	H	1.505487	0.533214	0.910786
C153	C	0.329334	0.108155	0.055536
C154	C	0.829334	0.608155	0.555536
H155	H	0.290617	0.109974	0.103150
H156	H	0.790617	0.609974	0.603150
H157	H	0.355466	0.154566	0.053461
H158	H	0.855466	0.654566	0.553461
H159	H	0.367312	0.062897	0.059209
H160	H	0.867312	0.562897	0.559209
C161	C	0.939904	-0.678036	-0.249002
C162	C	1.439904	-0.178036	0.250998
H163	H	0.938226	-0.732176	-0.234188
H164	H	1.438226	-0.232176	0.265812
H165	H	0.987887	-0.672392	-0.283872
H166	H	1.487887	-0.172392	0.216128
H167	H	0.895633	-0.659968	-0.278144
H168	H	1.395633	-0.159968	0.221856
C169	C	0.525502	0.114326	0.112737
C170	C	1.025502	0.614326	0.612737
H171	H	0.470958	0.113049	0.105933
H172	H	0.970958	0.613049	0.605933
H173	H	0.531525	0.161903	0.139937
H174	H	1.031525	0.661903	0.639937
H175	H	0.543388	0.070230	0.145618
H176	H	1.043388	0.570230	0.645618
C177	C	1.059094	-0.020313	0.714125
C178	C	1.559094	0.479687	1.214125
H179	H	1.048438	-0.009666	0.772295
H180	H	1.548438	0.490334	1.272295
H181	H	1.112681	-0.012729	0.695440
H182	H	1.612681	0.487271	1.195440
H183	H	1.051084	-0.073463	0.704230
H184	H	1.551084	0.426537	1.204230
H185	H	0.688222	0.115338	0.079412
H186	H	1.188222	0.615338	0.579412
C187	C	0.802601	0.235970	0.320112
C188	C	1.302601	0.735970	0.820112
H189	H	0.807335	0.231259	0.378279
H190	H	1.307335	0.731259	0.878279
H191	H	0.750470	0.226926	0.310223
H192	H	1.250470	0.726926	0.810223
H193	H	0.812064	0.287662	0.301424
H194	H	1.312064	0.787662	0.801424
C195	C	0.928902	-0.416400	0.046368
C196	C	1.428902	0.083600	0.546368
H197	H	0.927337	-0.377963	0.088695
H198	H	1.427337	0.122037	0.588695
H199	H	0.974210	-0.454431	0.048985
H200	H	1.474210	0.045569	0.548985
H201	H	0.881956	-0.442003	0.054702
H202	H	1.381956	0.057997	0.554702
H203	H	1.052444	-0.013678	0.543494
H204	H	1.552444	0.486322	1.043494
C205	C	0.833507	0.205048	0.714152
C206	C	1.333507	0.705048	1.214152
H207	H	0.803461	0.235031	0.675710
H208	H	1.303461	0.735031	1.175710
H209	H	0.860293	0.239403	0.743790
H210	H	1.360293	0.739403	1.243790
H211	H	0.798769	0.178596	0.752540
H212	H	1.298769	0.678596	1.252540
H213	H	0.454481	0.098396	-0.172785
H214	H	0.954481	0.598396	0.327215
H215	H	1.013436	0.025270	0.307640
H216	H	1.513436	0.525270	0.807640
H217	H	0.416528	0.107946	0.023933
H218	H	0.916528	0.607946	0.523933
C219	C	1.037473	0.001232	0.137012
C220	C	1.537473	0.501232	0.637012
H221	H	1.067490	-0.028772	0.175463
H222	H	1.567490	0.471228	0.675463
H223	H	1.072233	0.027631	0.098603
H224	H	1.572233	0.527631	0.598603
H225	H	1.010638	-0.033106	0.107400
H226	H	1.510638	0.466894	0.607400
H227	H	0.942950	-0.291101	-0.183667
H228	H	1.442950	0.208899	0.316333
C229	C	0.842871	0.195751	0.531062
C230	C	1.342871	0.695751	1.031062
H231	H	0.808939	0.229679	0.569516
H232	H	1.308939	0.729679	1.069516
H233	H	0.811574	0.165883	0.501447
H234	H	1.311574	0.665883	1.001447
H235	H	0.873168	0.226619	0.492655
H236	H	1.373168	0.726619	0.992655
H237	H	0.826630	0.211930	0.149481
H238	H	1.326630	0.711930	0.649481
H239	H	0.942088	-0.516514	-0.239169
H240	H	1.442088	-0.016514	0.260831
H241	H	0.928925	-0.277164	0.090312
H242	H	1.428925	0.222836	0.590312
H243	H	0.931958	-0.128442	0.079433
H244	H	1.431958	0.371558	0.579433
