data_functionalizedCrystal
_audit_creation_method	'MofGen! by Chris Wilmer'
_symmetry_space_group_name_H-M	'P1'
_symmetry_Int_Tables_number	1
_symmetry_cell_setting	triclinic
loop_
_symmetry_equiv_pos_as_xyz
  x,y,z
_cell_length_a	14.971486
_cell_length_b	14.048226
_cell_length_c	14.971494
_cell_angle_alpha	90.004714
_cell_angle_beta	83.615843
_cell_angle_gamma	90.001501
loop_
_atom_site_label
_atom_site_type_symbol
_atom_site_fract_x
_atom_site_fract_y
_atom_site_fract_z
O1	O	1.186951	0.079047	0.116564
O2	O	0.926551	0.079073	0.130523
O3	O	1.063726	0.079057	-0.006656
O4	O	1.049775	0.079063	0.253743
O5	O	1.063710	-0.079264	-0.006664
O6	O	0.926534	-0.079248	0.130515
O7	O	1.186934	-0.079274	0.116556
Zn8	Zn	1.056732	-0.104398	0.123534
Zn9	Zn	1.056753	0.104197	0.123545
O10	O	1.049759	-0.079258	0.253735
C11	C	0.893218	-0.000084	0.129895
C12	C	0.793921	-0.000075	0.128024
N13	N	1.056723	-0.246759	0.123526
C14	C	0.736698	-0.000074	0.208613
C15	C	0.643398	-0.000088	0.206850
C16	C	0.607323	-0.000096	0.124497
C17	C	0.664554	-0.000100	0.043902
C18	C	0.757851	-0.000092	0.045666
C19	C	0.470091	-0.000113	0.040231
C20	C	0.376787	-0.000118	0.038466
C21	C	0.355638	-0.000109	0.201415
C22	C	0.448936	-0.000102	0.203179
C23	C	0.506160	-0.000103	0.122583
C24	C	1.117484	-0.296584	0.062809
C25	C	1.117490	-0.396241	0.062808
C26	C	1.056739	-0.446072	0.123530
C27	C	0.995972	-0.396240	0.184251
C28	C	0.995962	-0.296584	0.184246
C29	C	0.995998	-0.603955	0.184257
C30	C	0.996008	-0.703617	0.184263
C31	C	1.117525	-0.703611	0.062819
C32	C	1.117515	-0.603956	0.062815
C33	C	1.056749	-0.554131	0.123537
C34	C	1.220267	-0.000114	0.117184
C35	C	1.319564	-0.000118	0.119055
C36	C	1.063093	-0.000102	-0.039985
C37	C	1.061219	-0.000097	-0.139281
N38	N	1.056769	0.246558	0.123546
C39	C	1.060350	0.086205	-0.185922
C40	C	1.058583	0.086206	-0.279221
C41	C	1.057693	-0.000096	-0.325879
C42	C	1.058559	-0.086404	-0.279231
C43	C	1.060319	-0.086405	-0.185933
C44	C	1.054893	-0.086398	-0.473695
C45	C	1.053135	-0.086398	-0.566999
C46	C	1.053158	0.086213	-0.566982
C47	C	1.054917	0.086213	-0.473684
C48	C	1.055786	-0.000096	-0.427043
C49	C	1.050392	-0.000097	0.287064
C50	C	1.052266	-0.000095	0.386360
H51	H	0.766062	-0.000067	0.275674
C52	C	1.184365	-0.758421	-0.003979
N53	N	1.234709	-0.799708	-0.054288
C54	C	0.533036	-0.000111	-0.048429
N55	N	0.580445	-0.000103	-0.115207
C56	C	1.055852	-0.181343	-0.422393
N57	N	1.056580	-0.252854	-0.383753
H58	H	1.166957	-0.256018	0.013365
H59	H	0.946484	-0.256018	0.233688
C60	C	1.061329	0.181145	-0.134607
N61	N	1.062063	0.252658	-0.095958
C62	C	1.052197	0.181155	-0.618288
N63	N	1.051476	0.252661	-0.656935
H64	H	0.635174	-0.000120	-0.023152
H65	H	1.166987	-0.563383	0.013375
C66	C	1.184309	-0.451044	-0.004008
N67	N	1.234633	-0.492321	-0.054345
C68	C	0.929174	-0.758429	0.251055
N69	N	0.878832	-0.799714	0.301363
H70	H	0.946513	-0.563390	0.233701
H71	H	0.804442	-0.000092	-0.019958
H72	H	0.946503	-0.436818	0.233689
H73	H	1.057829	-0.156673	-0.317227
H74	H	0.478304	-0.000086	0.270238
C75	C	1.057710	0.181146	-0.330531
N76	N	1.057080	0.252658	-0.369182
C77	C	1.052149	-0.181334	-0.618320
N78	N	1.051404	-0.252841	-0.656975
C79	C	0.580456	-0.000105	0.295504
N80	N	0.533049	-0.000125	0.362283
H81	H	1.055649	0.156488	-0.435698
C82	C	0.292690	-0.000113	0.290071
N83	N	0.245274	-0.000112	0.356844
H84	H	1.061014	-0.156681	-0.147958
H85	H	0.347418	-0.000126	-0.028593
