data_functionalizedCrystal
_audit_creation_method	'MofGen! by Chris Wilmer'
_symmetry_space_group_name_H-M	'P1'
_symmetry_Int_Tables_number	1
_symmetry_cell_setting	triclinic
loop_
_symmetry_equiv_pos_as_xyz
  x,y,z
_cell_length_a	12.811438
_cell_length_b	27.732048
_cell_length_c	11.295483
_cell_angle_alpha	94.055952
_cell_angle_beta	91.289945
_cell_angle_gamma	83.348002
loop_
_atom_site_label
_atom_site_type_symbol
_atom_site_fract_x
_atom_site_fract_y
_atom_site_fract_z
O1	O	1.387944	0.066776	0.050868
O2	O	1.084605	0.072781	0.018102
O3	O	1.245694	-0.000532	0.035525
O4	O	1.226855	0.140090	0.033445
O5	O	1.231545	0.005897	0.232046
O6	O	1.070457	0.079210	0.214622
O7	O	1.373795	0.073206	0.247389
Cu8	Cu	1.220834	0.076795	0.248949
Cu9	Cu	1.237566	0.069192	0.016541
O10	O	1.212706	0.146519	0.229965
C11	C	1.038735	0.075462	0.112172
C12	C	0.923136	0.073864	0.099686
C13	C	0.767912	0.068109	-0.025022
C14	C	0.876529	0.069609	-0.013301
C15	C	0.861118	0.076619	0.200958
C16	C	0.752502	0.075118	0.189237
C17	C	0.705903	0.070864	0.076243
C18	C	0.597283	0.069368	0.064522
C19	C	0.581875	0.076374	0.278780
C20	C	0.690492	0.077874	0.290502
C21	C	1.238224	-0.015328	0.133746
C22	C	1.237032	-0.068993	0.133627
C23	C	1.324733	-0.407018	0.143039
C24	C	1.320315	-0.608718	0.142546
O25	O	1.400511	-0.639251	0.151156
N26	N	1.224795	-0.628705	0.132229
C27	C	1.130373	-0.598263	0.122027
O28	O	1.049027	-0.619892	0.113228
C29	C	1.134793	-0.396564	0.122512
C30	C	1.230318	-0.376580	0.132842
C31	C	1.420250	-0.387033	0.153367
C32	C	1.421353	-0.336611	0.153496
C33	C	1.326939	-0.306173	0.143299
C34	C	1.231421	-0.326158	0.132972
C35	C	1.040372	-0.366124	0.112302
C36	C	1.041486	-0.315697	0.112421
C37	C	1.137011	-0.295713	0.122751
C38	C	1.138109	-0.245298	0.122904
N39	N	1.233629	-0.225311	0.133221
C40	C	1.328044	-0.255749	0.143418
C41	C	1.128059	-0.704158	0.121775
C42	C	1.126954	-0.754583	0.121656
C43	C	1.316897	-0.765034	0.142172
C44	C	1.318000	-0.714608	0.142300
C45	C	1.223579	-0.684172	0.132092
C46	C	1.330353	-0.149858	0.143691
C47	C	1.331447	-0.099431	0.143825
C48	C	1.141506	-0.088984	0.123302
C49	C	1.140410	-0.139407	0.123174
C50	C	1.234843	-0.169843	0.133366
O51	O	1.057957	-0.214737	0.114285
O52	O	1.409380	-0.234112	0.152189
C53	C	1.323630	-0.457440	0.142910
C54	C	1.228112	-0.477425	0.132582
C55	C	1.133697	-0.446987	0.122385
C56	C	1.227007	-0.527849	0.132463
C57	C	1.321422	-0.558287	0.142660
C58	C	1.416942	-0.538300	0.152977
C59	C	1.418044	-0.487878	0.153107
C60	C	1.038177	-0.466974	0.112068
C61	C	1.037082	-0.517397	0.111940
C62	C	1.131497	-0.547834	0.122138
C63	C	1.419666	0.070525	0.153316
C64	C	1.535265	0.072122	0.165794
C65	C	1.220177	0.161315	0.131742
C66	C	1.221369	0.214980	0.131853
N67	N	1.209073	0.082142	0.412414
N68	N	1.249336	0.063840	-0.146922
C69	C	1.333999	0.025319	0.675215
C70	C	1.325118	0.029364	0.798918
C71	C	1.182427	0.094274	0.783525
C72	C	1.191308	0.090229	0.659822
C73	C	1.267097	0.055751	0.605672
C74	C	1.275982	0.051709	0.481967
C75	C	1.133286	0.116617	0.466575
C76	C	1.124406	0.120661	0.590278
H77	H	0.927014	0.067366	-0.095761
Br78	Br	1.548403	-0.428333	0.167207
Br79	Br	1.545074	-0.579618	0.166826
H80	H	1.337696	0.023637	0.437879
Br81	Br	0.924379	0.082389	0.354295
Br82	Br	0.704662	0.062346	-0.178366
Br83	Br	0.534040	0.063598	-0.088824
Br84	Br	1.415913	-0.011941	0.893297
H85	H	1.395716	-0.002751	0.631126
Br86	Br	1.021548	0.167448	0.663775
H87	H	1.120714	0.122342	0.827630
Br88	Br	1.458512	-0.191157	0.157521
H89	H	1.409238	-0.083163	0.152240
Br90	Br	1.042496	0.157923	0.372185
H91	H	0.531374	0.078620	0.361238
Br92	Br	0.753743	0.083646	0.443843
Br93	Br	0.907427	-0.544511	0.097930
H94	H	1.499140	-0.320345	0.161903
Br95	Br	1.447645	-0.687493	0.156321
H96	H	1.393773	-0.789825	0.150476
H97	H	1.064635	-0.064193	0.115004
H98	H	1.049166	-0.770848	0.113265
H99	H	1.051166	-0.679380	0.113462
Br100	Br	0.910723	-0.393232	0.098278
Br101	Br	0.913336	-0.274392	0.098561
H102	H	1.062623	-0.155678	0.114796
H103	H	1.495831	-0.471612	0.161518
H104	H	0.961292	-0.442196	0.103761
