data_functionalizedCrystal
_audit_creation_method	'MofGen! by Chris Wilmer'
_symmetry_space_group_name_H-M	'P1'
_symmetry_Int_Tables_number	1
_symmetry_cell_setting	triclinic
loop_
_symmetry_equiv_pos_as_xyz
  x,y,z
_cell_length_a	12.759401
_cell_length_b	12.827892
_cell_length_c	12.759393
_cell_angle_alpha	90.029782
_cell_angle_beta	90.020938
_cell_angle_gamma	90.016917
loop_
_atom_site_label
_atom_site_type_symbol
_atom_site_fract_x
_atom_site_fract_y
_atom_site_fract_z
Zn1	Zn	1.606261	-0.415940	0.594025
Zn2	Zn	2.106261	0.084060	1.094025
Zn3	Zn	1.606150	-0.590717	0.418348
Zn4	Zn	2.106150	-0.090717	0.918348
Zn5	Zn	1.430560	-0.415996	0.418361
Zn6	Zn	1.930560	0.084004	0.918361
Zn7	Zn	1.430550	-0.590644	0.593985
Zn8	Zn	1.930550	-0.090644	1.093985
O9	O	1.518380	-0.503324	0.506180
O10	O	2.018380	-0.003324	1.006180
O11	O	1.753268	-0.439132	0.570733
O12	O	2.253268	0.060868	1.070733
O13	O	1.582816	-0.567594	0.271328
O14	O	2.082816	-0.067594	0.771328
O15	O	1.453918	-0.269752	0.441685
O16	O	1.953918	0.230248	0.941685
O17	O	1.753186	-0.567540	0.441663
O18	O	2.253186	-0.067540	0.941663
O19	O	1.583005	-0.269711	0.570745
O20	O	2.083005	0.230289	1.070745
O21	O	1.453810	-0.439227	0.271338
O22	O	1.953810	0.060773	0.771338
O23	O	1.283538	-0.439156	0.441646
O24	O	1.783538	0.060844	0.941646
O25	O	1.453900	-0.567416	0.741011
O26	O	1.953900	-0.067416	1.241011
O27	O	1.283530	-0.567469	0.570676
O28	O	1.783530	-0.067469	1.070676
O29	O	1.582995	-0.439061	0.741041
O30	O	2.082995	0.060939	1.241041
O31	O	1.582806	-0.736944	0.441624
O32	O	2.082806	-0.236944	0.941624
O33	O	1.453793	-0.736890	0.570664
O34	O	1.953793	-0.236890	1.070664
C35	C	1.245413	-0.503312	0.506159
C36	C	1.745413	-0.003312	1.006159
C37	C	1.128636	-0.503331	0.506175
C38	C	1.628636	-0.003331	1.006175
C39	C	1.073798	-0.570246	0.573255
C40	C	1.573798	-0.070246	1.073255
C41	C	0.964074	-0.570250	0.573276
C42	C	1.464074	-0.070250	1.073276
C43	C	0.964036	-0.436422	0.439127
C44	C	1.464036	0.063578	0.939127
C45	C	1.073758	-0.436413	0.439112
C46	C	1.573758	0.063587	0.939112
C47	C	1.518315	-0.774834	0.506161
C48	C	2.018315	-0.274834	1.006161
C49	C	1.518383	-0.890987	0.506188
C50	C	2.018383	-0.390987	1.006188
C51	C	1.582298	-0.942764	0.442406
C52	C	2.082298	-0.442764	0.942406
C53	C	1.582370	-1.062814	0.442433
C54	C	2.082370	-0.562814	0.942433
C55	C	1.792414	-0.503338	0.506201
C56	C	2.292414	-0.003338	1.006201
C57	C	1.909190	-0.503344	0.506210
C58	C	2.409190	-0.003344	1.006210
C59	C	1.518459	-0.503224	0.780213
C60	C	2.018459	-0.003224	1.280213
C61	C	1.518492	-0.503181	0.896990
C62	C	2.018492	-0.003181	1.396990
C63	C	1.518475	-0.230754	0.506221
C64	C	2.018475	0.269246	1.006221
C65	C	1.518515	-0.114601	0.506239
C66	C	2.018515	0.385399	1.006239
C67	C	1.518363	-0.503349	0.233212
C68	C	2.018363	-0.003349	0.733212
C69	C	1.518533	-0.503097	0.116436
C70	C	2.018533	-0.003097	0.616436
C71	C	1.585717	-0.436336	0.951869
C72	C	2.085717	0.063664	1.451869
C73	C	1.585735	-0.436291	1.061593
C74	C	2.085735	0.063709	1.561593
C75	C	1.451301	-0.569945	1.061549
C76	C	1.951301	-0.069945	1.561549
C77	C	1.451278	-0.569984	0.951827
C78	C	1.951278	-0.069984	1.451827
H79	H	0.919341	-0.381941	0.384525
H80	H	1.419341	0.118059	0.884525
H81	H	1.637087	-1.107341	0.387824
H82	H	2.137087	-0.607341	0.887824
O83	O	1.446013	-1.055632	0.578565
O84	O	1.946013	-0.555632	1.078565
H85	H	1.399241	-1.111836	0.625299
H86	H	1.899241	-0.611836	1.125299
H87	H	1.463720	-0.935536	0.560818
H88	H	1.963720	-0.435536	1.060818
O89	O	1.658200	-0.364281	0.892718
O90	O	2.158200	0.135719	1.392718
H91	H	1.704941	-0.317786	0.949317
H92	H	2.204941	0.182214	1.449317
O93	O	0.904923	-0.642537	0.645509
O94	O	1.404923	-0.142537	1.145509
H95	H	0.961520	-0.689111	0.692089
H96	H	1.461520	-0.189111	1.192089
H97	H	1.396529	-0.624416	0.907143
H98	H	1.896529	-0.124416	1.407143
H99	H	1.640474	-0.381858	1.106271
H100	H	2.140474	0.118142	1.606271
O101	O	1.378808	-0.641997	1.120693
O102	O	1.878808	-0.141997	1.620693
H103	H	1.390122	-0.630747	1.206211
H104	H	1.890122	-0.130747	1.706211
H105	H	1.118476	-0.624732	0.627864
H106	H	1.618476	-0.124732	1.127864
O107	O	1.132918	-0.364254	0.366742
O108	O	1.632918	0.135746	0.866742
H109	H	1.076327	-0.317739	0.320095
H110	H	1.576327	0.182261	0.820095
O111	O	1.654740	-0.883770	0.370063
O112	O	2.154740	-0.383770	0.870063
H113	H	1.643322	-0.798735	0.381402
H114	H	2.143322	-0.298735	0.881402
