data_functionalizedCrystal
_audit_creation_method	'MofGen! by Chris Wilmer'
_symmetry_space_group_name_H-M	'P1'
_symmetry_Int_Tables_number	1
_symmetry_cell_setting	triclinic
loop_
_symmetry_equiv_pos_as_xyz
  x,y,z
_cell_length_a	16.992694
_cell_length_b	16.053789
_cell_length_c	17.699083
_cell_angle_alpha	87.106298
_cell_angle_beta	93.024381
_cell_angle_gamma	92.715794
loop_
_atom_site_label
_atom_site_type_symbol
_atom_site_fract_x
_atom_site_fract_y
_atom_site_fract_z
O1	O	1.043024	0.069328	-0.163487
O2	O	1.543024	0.569328	0.336513
O3	O	0.814743	0.069352	-0.161727
O4	O	1.314743	0.569352	0.338273
O5	O	0.935333	0.069332	-0.052819
O6	O	1.435333	0.569332	0.447181
O7	O	0.922435	0.069348	-0.272395
O8	O	1.422435	0.569348	0.227605
O9	O	0.929437	-0.069527	-0.046767
O10	O	1.429437	0.430473	0.453233
O11	O	0.808847	-0.069507	-0.155675
O12	O	1.308847	0.430493	0.344325
O13	O	1.037128	-0.069531	-0.157435
O14	O	1.537128	0.430469	0.342565
Zn15	Zn	0.922051	-0.091566	-0.155594
Zn16	Zn	1.422051	0.408434	0.344406
Zn17	Zn	0.929820	0.091387	-0.163568
Zn18	Zn	1.429820	0.591387	0.336432
O19	O	0.916538	-0.069511	-0.266343
O20	O	1.416538	0.430489	0.233657
C21	C	0.782587	-0.000074	-0.156437
C22	C	1.282587	0.499926	0.343563
C23	C	0.695556	-0.000065	-0.149680
C24	C	1.195556	0.499935	0.350320
N25	N	0.916755	-0.216426	-0.150152
N26	N	1.416755	0.283574	0.349848
C27	C	0.962362	-0.260119	-0.197052
C28	C	1.462362	0.239881	0.302948
C29	C	0.958667	-0.347525	-0.193240
C30	C	1.458667	0.152475	0.306760
C31	C	0.909361	-0.391239	-0.142533
C32	C	1.409361	0.108761	0.357467
C33	C	0.863753	-0.347540	-0.095628
C34	C	1.363753	0.152460	0.404372
C35	C	0.867452	-0.260135	-0.099436
C36	C	1.367452	0.239865	0.400564
C37	C	0.893213	-0.652649	-0.125908
C38	C	1.393213	-0.152649	0.374092
C39	C	0.889516	-0.740060	-0.122105
C40	C	1.389516	-0.240060	0.377895
C41	C	0.984432	-0.740039	-0.219716
C42	C	1.484432	-0.240039	0.280284
C43	C	0.988123	-0.652632	-0.223523
C44	C	1.488123	-0.152632	0.276477
C45	C	0.942518	-0.608942	-0.176616
C46	C	1.442518	-0.108942	0.323384
N47	N	0.905582	-0.480582	-0.138638
N48	N	1.405582	0.019418	0.361362
N49	N	0.946302	-0.519599	-0.180508
N50	N	1.446302	-0.019599	0.319492
C51	C	0.645192	-0.000061	-0.214878
C52	C	1.145192	0.499939	0.285122
C53	C	0.563417	-0.000073	-0.208524
C54	C	1.063417	0.499927	0.291476
C55	C	0.532008	-0.000083	-0.136971
C56	C	1.032008	0.499917	0.363029
C57	C	0.582379	-0.000090	-0.071769
C58	C	1.082379	0.499910	0.428231
C59	C	0.664152	-0.000084	-0.078123
C60	C	1.164152	0.499916	0.421877
C61	C	0.288459	-0.000107	-0.110634
C62	C	0.788459	0.499893	0.389366
C63	C	0.206680	-0.000111	-0.104285
C64	C	0.706680	0.499889	0.395715
C65	C	0.187723	-0.000095	-0.241041
C66	C	0.687723	0.499905	0.258959
C67	C	0.269499	-0.000084	-0.247389
C68	C	0.769499	0.499916	0.252611
C69	C	0.319863	-0.000095	-0.182186
C70	C	0.819863	0.499905	0.317814
N71	N	0.448421	-0.000093	-0.130475
N72	N	0.948421	0.499907	0.369525
N73	N	0.403448	-0.000092	-0.188683
N74	N	0.903448	0.499908	0.311317
C75	C	1.069284	-0.000103	-0.162726
C76	C	1.569284	0.499897	0.337274
C77	C	1.156315	-0.000107	-0.169483
C78	C	1.656315	0.499893	0.330517
C79	C	0.931923	-0.000098	-0.021567
C80	C	1.431923	0.499902	0.478433
C81	C	0.930536	-0.000098	0.062537
C82	C	1.430536	0.499902	0.562537
N83	N	0.935123	0.216248	-0.169005
N84	N	1.435123	0.716248	0.330995
C85	C	0.919949	-0.000079	-0.297595
C86	C	1.419949	0.499921	0.202405
C87	C	0.921336	-0.000074	-0.381700
C88	C	1.421336	0.499926	0.118300
C89	C	1.001320	-0.000106	0.106751
C90	C	1.501320	0.499894	0.606751
C91	C	1.000012	-0.000099	0.185776
C92	C	1.500012	0.499901	0.685776
C93	C	0.927920	-0.000089	0.220585
C94	C	1.427920	0.499911	0.720585
C95	C	0.857131	-0.000077	0.176364
C96	C	1.357131	0.499923	0.676364
C97	C	0.858440	-0.000079	0.097341
C98	C	1.358440	0.499921	0.597341
C99	C	0.851854	-0.000070	0.495056
C100	C	1.351854	0.499930	0.995056
C101	C	0.850551	-0.000071	0.574085
C102	C	1.350551	0.499929	1.074085
C103	C	0.993427	-0.000090	0.583490
C104	C	1.493427	0.499910	1.083490
C105	C	0.994735	-0.000092	0.504467
C106	C	1.494735	0.499908	1.004467
C107	C	0.923946	-0.000076	0.460254
C108	C	1.423946	0.499924	0.960254
C109	C	0.925365	-0.000082	0.374566
C110	C	1.425365	0.499918	0.874566
C111	C	0.926501	-0.000088	0.306271
C112	C	1.426501	0.499912	0.806271
H113	H	0.995807	-0.383096	-0.231430
H114	H	1.495807	0.116904	0.268570
C115	C	0.815886	-0.481532	-0.046488
C116	C	1.315886	0.018468	0.453512
C117	C	0.809551	-0.395585	-0.039890
C118	C	1.309551	0.104415	0.460110
H119	H	0.782417	-0.511188	-0.012081
H120	H	1.282417	-0.011188	0.487919
H121	H	0.868935	-0.495883	-0.035098
H122	H	1.368935	0.004117	0.464902
H123	H	0.800587	-0.495813	-0.096761
H124	H	1.300587	0.004187	0.403239
H125	H	0.824856	-0.381303	0.010382
H126	H	1.324856	0.118697	0.510382
H127	H	0.756490	-0.381228	-0.051275
H128	H	1.256490	0.118772	0.448725
C129	C	0.731908	-0.071436	0.195782
C130	C	1.231908	0.428564	0.695782
C131	C	0.777883	-0.000063	0.214620
C132	C	1.277883	0.499937	0.714620
H133	H	0.682981	-0.071424	0.219394
H134	H	1.182981	0.428576	0.719394
H135	H	0.758987	-0.119855	0.212784
H136	H	1.258987	0.380145	0.712784
H137	H	0.722566	-0.071426	0.142388
H138	H	1.222566	0.428574	0.642388
H139	H	0.787230	-0.000076	0.268013
H140	H	1.287230	0.499924	0.768013
H141	H	0.750798	0.048368	0.197622
H142	H	1.250798	0.548368	0.697622
C143	C	0.780055	0.071316	-0.000098
C144	C	1.280055	0.571316	0.499902
C145	C	0.780632	-0.000069	0.048738
C146	C	1.280632	0.499931	0.548738
H147	H	0.732016	0.071326	-0.030099
H148	H	1.232016	0.571326	0.469901
H149	H	0.823172	0.071304	-0.032133
H150	H	1.323172	0.571304	0.467867
H151	H	0.784573	0.119732	0.028822
H152	H	1.284573	0.619732	0.528822
H153	H	0.776120	-0.048485	0.019817
H154	H	1.276120	0.451515	0.519817
H155	H	0.737503	-0.000064	0.080776
H156	H	1.237503	0.499936	0.580776
C157	C	1.119948	0.071282	0.485036
C158	C	1.619948	0.571282	0.985036
C159	C	1.073980	-0.000099	0.466205
C160	C	1.573980	0.499901	0.966205
H161	H	1.168869	0.071280	0.461411
H162	H	1.668869	0.571280	0.961411
H163	H	1.129299	0.071274	0.538421
H164	H	1.629299	0.571274	1.038421
H165	H	1.092854	0.119701	0.468036
H166	H	1.592854	0.619701	0.968036
H167	H	1.101071	-0.048518	0.483211
H168	H	1.601071	0.451482	0.983211
H169	H	1.064631	-0.000099	0.412809
H170	H	1.564631	0.499901	0.912809
C171	C	1.055815	-0.268887	-0.293147
C172	C	1.555815	0.231113	0.206853
C173	C	1.016562	-0.212073	-0.252791
C174	C	1.516562	0.287927	0.247209
H175	H	1.089282	-0.239225	-0.327554
H176	H	1.589282	0.260775	0.172446
H177	H	1.018234	-0.302974	-0.320469
H178	H	1.518234	0.197026	0.179531
H179	H	1.086563	-0.302981	-0.258786
H180	H	1.586563	0.197019	0.241214
H181	H	0.985810	-0.177983	-0.287152
H182	H	1.485810	0.322017	0.212848
H183	H	1.054149	-0.177971	-0.225467
H184	H	1.554149	0.322029	0.274533
C185	C	1.081584	-0.661395	-0.319615
C186	C	1.581584	-0.161395	0.180385
C187	C	1.042329	-0.604586	-0.279257
C188	C	1.542329	-0.104586	0.220743
H189	H	1.115051	-0.631731	-0.354020
H190	H	1.615051	-0.131731	0.145980
H191	H	1.044004	-0.695482	-0.346940
H192	H	1.544004	-0.195482	0.153060
H193	H	1.112331	-0.695491	-0.285255
H194	H	1.612331	-0.195491	0.214745
H195	H	1.011577	-0.570494	-0.313617
H196	H	1.511577	-0.070494	0.186383
H197	H	1.079914	-0.570484	-0.251931
H198	H	1.579914	-0.070484	0.248069
C199	C	0.708519	0.071297	0.033369
C200	C	1.208519	0.571297	0.533369
C201	C	0.719519	-0.000082	-0.006458
C202	C	1.219519	0.499918	0.493542
H203	H	0.742704	0.071297	0.077610
H204	H	1.242704	0.571297	0.577610
H205	H	0.655330	0.071287	0.047394
H206	H	1.155330	0.571287	0.547394
H207	H	0.720076	0.119718	0.002114
H208	H	1.220076	0.619718	0.502114
H209	H	0.707957	-0.048502	0.024795
H210	H	1.207957	0.451498	0.524795
H211	H	0.772720	-0.000078	-0.020481
H212	H	1.272720	0.499922	0.479519
H213	H	0.830313	-0.224562	-0.061246
H214	H	1.330313	0.275438	0.438754
C215	C	0.790409	-0.000048	0.369748
C216	C	1.290409	0.499952	0.869748
C217	C	0.774045	-0.000054	0.446462
C218	C	1.274045	0.499946	0.946462
H219	H	0.742370	-0.000032	0.339748
H220	H	1.242370	0.499968	0.839748
H221	H	0.817911	-0.048473	0.360843
H222	H	1.317911	0.451527	0.860843
H223	H	0.822036	0.048374	0.356627
H224	H	1.322036	0.548374	0.856627
H225	H	0.742423	-0.048479	0.459585
H226	H	1.242423	0.451521	0.959585
H227	H	0.746531	0.048376	0.455371
H228	H	1.246531	0.548376	0.955371
H229	H	0.556799	-0.000110	-0.013508
H230	H	1.056799	0.499890	0.486492
C231	C	0.386435	-0.000010	-0.317853
C232	C	0.886435	0.499990	0.182147
C233	C	0.304023	-0.000037	-0.326043
C234	C	0.804023	0.499963	0.173957
H235	H	0.407748	0.000038	-0.366412
H236	H	0.907748	0.500038	0.133588
H237	H	0.401688	-0.048444	-0.288719
H238	H	0.901688	0.451556	0.211281
H239	H	0.405761	0.048402	-0.292882
H240	H	0.905761	0.548402	0.207118
H241	H	0.284698	-0.048453	-0.351009
H242	H	0.784698	0.451547	0.148991
H243	H	0.288764	0.048402	-0.355189
H244	H	0.788764	0.548402	0.144811
C245	C	0.149404	0.071299	-0.358755
C246	C	0.649404	0.571299	0.141245
C247	C	0.132361	-0.000089	-0.312707
C248	C	0.632361	0.499911	0.187293
H249	H	0.115221	0.071301	-0.402998
H250	H	0.615221	0.571301	0.097002
H251	H	0.202593	0.071297	-0.372776
H252	H	0.702593	0.571297	0.127224
H253	H	0.141943	0.119713	-0.331721
H254	H	0.641943	0.619713	0.168279
H255	H	0.139827	-0.048504	-0.339740
H256	H	0.639827	0.451496	0.160260
H257	H	0.079159	-0.000095	-0.298687
H258	H	0.579159	0.499905	0.201313
H259	H	0.181111	-0.000118	-0.046015
H260	H	0.681111	0.499882	0.453985
C261	C	0.618231	-0.000056	-0.349415
C262	C	1.118231	0.499944	0.150585
C263	C	0.679712	-0.000052	-0.293532
C264	C	1.179712	0.499948	0.206468
H265	H	0.639542	-0.000057	-0.397972
H266	H	1.139542	0.499943	0.102028
H267	H	0.588782	0.048363	-0.346203
H268	H	1.088782	0.548363	0.153797
H269	H	0.584682	-0.048484	-0.341974
H270	H	1.084682	0.451516	0.158026
H271	H	0.713258	0.048381	-0.300969
H272	H	1.213258	0.548381	0.199031
H273	H	0.709174	-0.048475	-0.296746
H274	H	1.209174	0.451525	0.203254
H275	H	0.329456	-0.000117	-0.057541
H276	H	0.829456	0.499883	0.442459
H277	H	1.060025	-0.000120	0.078416
H278	H	1.560025	0.499880	0.578416
C279	C	1.141373	-0.000139	0.187136
C280	C	1.641373	0.499861	0.687136
C281	C	1.077820	-0.000118	0.234377
C282	C	1.577820	0.499882	0.734377
H283	H	1.189409	-0.000156	0.217142
H284	H	1.689409	0.499844	0.717142
H285	H	1.140973	0.048282	0.154007
H286	H	1.640973	0.548282	0.654007
H287	H	1.136841	-0.048565	0.158230
H288	H	1.636841	0.451435	0.658230
H289	H	1.082348	0.048312	0.263279
H290	H	1.582348	0.548312	0.763279
H291	H	1.078221	-0.048543	0.267519
H292	H	1.578221	0.451457	0.767519
H293	H	0.849361	-0.775649	-0.080813
H294	H	1.349361	-0.275649	0.419187
H295	H	0.522413	-0.000068	-0.261615
H296	H	1.022413	0.499932	0.238385
C297	C	1.085709	-0.838318	-0.226597
C298	C	1.585709	-0.338318	0.273403
C299	C	1.034568	-0.788065	-0.271268
C300	C	1.534568	-0.288065	0.228732
H301	H	1.116666	-0.867962	-0.258424
H302	H	1.616666	-0.367962	0.241576
H303	H	1.055813	-0.876858	-0.195863
H304	H	1.555813	-0.376858	0.304137
H305	H	1.119339	-0.804212	-0.195217
H306	H	1.619339	-0.304212	0.304783
H307	H	1.000934	-0.822172	-0.302644
H308	H	1.500934	-0.322172	0.197356
H309	H	1.064467	-0.749521	-0.302015
H310	H	1.564467	-0.249521	0.197985
H311	H	1.051066	-0.000099	0.619498
H312	H	1.551066	0.499901	1.119498
C313	C	0.799014	-0.661461	-0.029051
C314	C	1.299014	-0.161461	0.470949
C315	C	0.843076	-0.604631	-0.074355
C316	C	1.343076	-0.104631	0.425645
H317	H	0.768056	-0.631813	0.002773
H318	H	1.268056	-0.131813	0.502773
H319	H	0.833711	-0.695551	0.001241
H320	H	1.333711	-0.195551	0.501241
H321	H	0.765382	-0.695552	-0.060444
H322	H	1.265382	-0.195552	0.439556
H323	H	0.876712	-0.570545	-0.042962
H324	H	1.376712	-0.070545	0.457038
H325	H	0.808376	-0.570527	-0.104649
H326	H	1.308376	-0.070527	0.395351
C327	C	0.731402	0.071346	0.587292
C328	C	1.231402	0.571346	1.087292
C329	C	0.771303	-0.000049	0.612350
C330	C	1.271303	0.499951	1.112350
H331	H	0.682483	0.071360	0.610920
H332	H	1.182483	0.571360	1.110920
H333	H	0.722047	0.071342	0.533908
H334	H	1.222047	0.571342	1.033908
H335	H	0.762613	0.119755	0.600066
H336	H	1.262613	0.619755	1.100066
H337	H	0.740094	-0.048459	0.599570
H338	H	1.240094	0.451541	1.099570
H339	H	0.780655	-0.000053	0.665745
H340	H	1.280655	0.499947	1.165745
