data_functionalizedCrystal
_audit_creation_method	'MofGen! by Chris Wilmer'
_symmetry_space_group_name_H-M	'P1'
_symmetry_Int_Tables_number	1
_symmetry_cell_setting	triclinic
loop_
_symmetry_equiv_pos_as_xyz
  x,y,z
_cell_length_a	17.699083
_cell_length_b	14.853559
_cell_length_c	16.176319
_cell_angle_alpha	89.995393
_cell_angle_beta	89.998611
_cell_angle_gamma	83.457234
loop_
_atom_site_label
_atom_site_type_symbol
_atom_site_fract_x
_atom_site_fract_y
_atom_site_fract_z
O1	O	1.004372	0.114009	-0.068627
O2	O	1.504372	0.614009	0.431373
O3	O	0.784031	0.128842	-0.068653
O4	O	1.284031	0.628842	0.431347
O5	O	0.900091	-0.009827	-0.068638
O6	O	1.400091	0.490173	0.431362
O7	O	0.888313	0.252677	-0.068641
O8	O	1.388313	0.752677	0.431359
O9	O	0.900075	-0.009836	0.068855
O10	O	1.400075	0.490164	0.568855
O11	O	0.784015	0.128833	0.068840
O12	O	1.284015	0.628833	0.568840
O13	O	1.004356	0.114000	0.068867
O14	O	1.504356	0.614000	0.568867
Cu15	Cu	0.894184	0.121416	0.081407
Cu16	Cu	1.394184	0.621416	0.581407
Cu17	Cu	0.894203	0.121426	-0.081194
Cu18	Cu	1.394203	0.621426	0.418806
O19	O	0.888297	0.252668	0.068852
O20	O	1.388297	0.752668	0.568852
C21	C	0.755825	0.128306	0.000090
C22	C	1.255825	0.628306	0.500090
C23	C	0.671803	0.126711	0.000080
C24	C	1.171803	0.626711	0.500080
C25	C	0.623391	0.208107	0.000079
C26	C	1.123391	0.708107	0.500079
C27	C	0.544444	0.206603	0.000090
C28	C	1.044444	0.706603	0.500090
C29	C	0.513910	0.123703	0.000095
C30	C	1.013910	0.623703	0.500095
C31	C	0.562328	0.042301	0.000098
C32	C	1.062328	0.542301	0.500098
C33	C	0.641274	0.043806	0.000094
C34	C	1.141274	0.543806	0.500094
C35	C	0.243949	0.036232	0.000119
C36	C	0.743949	0.536232	0.500119
C37	C	0.164998	0.034734	0.000121
C38	C	0.664998	0.534734	0.500121
C39	C	0.147120	0.199029	0.000115
C40	C	0.647120	0.699029	0.500115
C41	C	0.226065	0.200534	0.000110
C42	C	0.726065	0.700534	0.500110
C43	C	0.274476	0.119133	0.000118
C44	C	0.774476	0.619133	0.500118
C45	C	0.360080	0.120764	0.000108
C46	C	0.860080	0.620764	0.500108
C47	C	0.428308	0.122071	0.000099
C48	C	0.928308	0.622071	0.500099
C49	C	0.899550	-0.043418	0.000107
C50	C	1.399550	0.456582	0.500107
C51	C	0.897954	-0.143496	0.000102
C52	C	1.397954	0.356504	0.500102
C53	C	0.891193	-0.566642	-0.074847
C54	C	1.391193	-0.066642	0.425153
C55	C	0.891176	-0.566646	0.075054
C56	C	1.391176	-0.066646	0.575054
C57	C	0.892681	-0.472618	0.075055
C58	C	1.392681	0.027382	0.575055
C59	C	0.893442	-0.425598	0.000104
C60	C	1.393442	0.074402	0.500104
C61	C	0.892697	-0.472605	-0.074848
C62	C	1.392697	0.027395	0.425152
C63	C	0.893419	-0.425603	0.150005
C64	C	1.393419	0.074397	0.650005
C65	C	0.894924	-0.331569	0.150009
C66	C	1.394924	0.168431	0.650009
C67	C	0.895690	-0.284548	0.075057
C68	C	1.395690	0.215452	0.575057
C69	C	0.894945	-0.331561	0.000102
C70	C	1.394945	0.168439	0.500102
C71	C	0.895706	-0.284540	-0.074849
C72	C	1.395706	0.215460	0.425151
C73	C	0.894967	-0.331553	-0.149804
C74	C	1.394967	0.168447	0.350196
C75	C	0.893463	-0.425583	-0.149800
C76	C	1.393463	0.074417	0.350200
C77	C	0.897194	-0.190517	0.075053
C78	C	1.397194	0.309483	0.575053
C79	C	0.897209	-0.190503	-0.074850
C80	C	1.397209	0.309497	0.425150
C81	C	1.032562	0.114536	0.000122
C82	C	1.532562	0.614536	0.500122
C83	C	1.116584	0.116130	0.000126
C84	C	1.616584	0.616130	0.500126
C85	C	0.888837	0.286260	0.000105
C86	C	1.388837	0.786260	0.500105
C87	C	0.890433	0.386338	0.000104
C88	C	1.390433	0.886338	0.500104
N89	N	0.894176	0.121408	0.195773
N90	N	1.394176	0.621408	0.695773
N91	N	0.894217	0.121427	-0.195559
N92	N	1.394217	0.621427	0.304441
C93	C	0.945583	0.060030	0.239043
C94	C	1.445583	0.560030	0.739043
C95	C	0.945587	0.060029	0.325591
C96	C	1.445587	0.560029	0.825591
C97	C	0.894187	0.121411	0.368865
C98	C	1.394187	0.621411	0.868865
C99	C	0.842775	0.182791	0.325588
C100	C	1.342775	0.682791	0.825588
C101	C	0.842768	0.182787	0.239043
C102	C	1.342768	0.682787	0.739043
C103	C	0.842801	0.182808	0.674617
C104	C	1.342801	0.682808	1.174617
C105	C	0.842813	0.182809	0.761168
C106	C	1.342813	0.682809	1.261168
C107	C	0.945619	0.060050	0.761164
C108	C	1.445619	0.560050	1.261164
C109	C	0.945613	0.060046	0.674619
C110	C	1.445613	0.560046	1.174619
C111	C	0.894198	0.121423	0.631350
C112	C	1.394198	0.621423	1.131350
C113	C	0.894194	0.121422	0.537505
C114	C	1.394194	0.621422	1.037505
C115	C	0.894195	0.121417	0.462708
C116	C	1.394195	0.621417	0.962708
H117	H	0.140141	-0.032777	0.000127
H118	H	0.640141	0.467223	0.500127
H119	H	0.890595	-0.604924	-0.135874
H120	H	1.390595	-0.104924	0.364126
F121	F	0.788085	0.248131	0.628573
F122	F	1.288085	0.748131	1.128573
F123	F	1.000321	-0.005280	0.628566
F124	F	1.500321	0.494720	1.128566
H125	H	0.987441	0.010050	0.203815
H126	H	1.487441	0.510050	0.703815
F127	F	0.788067	0.248114	0.371645
F128	F	1.288067	0.748114	0.871645
H129	H	0.537461	-0.025197	0.000115
H130	H	1.037461	0.474803	0.500115
H131	H	0.648245	0.275613	0.000074
H132	H	1.148245	0.775613	0.500074
H133	H	0.897832	-0.152227	-0.135885
H134	H	1.397832	0.347773	0.364115
H135	H	0.680691	-0.022475	0.000094
H136	H	1.180691	0.477525	0.500094
H137	H	0.800955	0.232795	0.796401
H138	H	1.300955	0.732795	1.296401
H139	H	0.892860	-0.463869	-0.210825
H140	H	1.392860	0.036131	0.289175
H141	H	0.895581	-0.293255	-0.210829
H142	H	1.395581	0.206745	0.289171
H143	H	0.800907	0.232765	0.203813
H144	H	1.300907	0.732765	0.703813
H145	H	0.505030	0.272883	0.000088
H146	H	1.005030	0.772883	0.500088
F147	F	0.890355	-0.616689	0.154817
F148	F	1.390355	-0.116689	0.654817
H149	H	0.250921	0.268039	0.000102
H150	H	0.750921	0.768039	0.500102
F151	F	1.000298	-0.005296	0.371643
F152	F	1.500298	0.494704	0.871643
F153	F	0.892595	-0.475647	0.229767
F154	F	1.392595	0.024353	0.729767
H155	H	0.897778	-0.152241	0.136080
H156	H	1.397778	0.347759	0.636080
F157	F	0.095591	0.285665	0.000110
F158	F	0.595591	0.785665	0.500110
H159	H	0.283357	-0.030050	0.000126
H160	H	0.783357	0.469950	0.500126
F161	F	0.895707	-0.281543	0.229782
F162	F	1.395707	0.218457	0.729782
H163	H	0.987482	0.010071	0.796403
H164	H	1.487482	0.510071	1.296403
