data_functionalizedCrystal
_audit_creation_method	'MofGen! by Chris Wilmer'
_symmetry_space_group_name_H-M	'P1'
_symmetry_Int_Tables_number	1
_symmetry_cell_setting	triclinic
loop_
_symmetry_equiv_pos_as_xyz
  x,y,z
_cell_length_a	24.447405
_cell_length_b	24.446649
_cell_length_c	24.443239
_cell_angle_alpha	60.006064
_cell_angle_beta	60.011844
_cell_angle_gamma	59.992812
loop_
_atom_site_label
_atom_site_type_symbol
_atom_site_fract_x
_atom_site_fract_y
_atom_site_fract_z
O1	O	0.075907	-0.799232	0.668277
O2	O	0.575907	-0.299232	1.168277
O3	O	0.028634	-0.622262	0.538455
O4	O	0.528634	-0.122262	1.038455
O5	O	0.140702	-0.734230	0.538349
O6	O	0.640702	-0.234230	1.038349
O7	O	-0.036160	-0.687265	0.668384
O8	O	0.463840	-0.187265	1.168384
O9	O	0.177886	-0.697056	0.575424
O10	O	0.677886	-0.197056	1.075424
O11	O	0.065818	-0.585088	0.575530
O12	O	0.565818	-0.085088	1.075530
O13	O	0.113091	-0.762059	0.705353
O14	O	0.613091	-0.262059	1.205353
Cu15	Cu	0.092850	-0.670179	0.643827
Cu16	Cu	0.592850	-0.170179	1.143827
Cu17	Cu	0.048876	-0.714142	0.599981
Cu18	Cu	0.548876	-0.214142	1.099981
O19	O	0.001024	-0.650091	0.705459
O20	O	0.501024	-0.150091	1.205459
N21	N	0.123780	-0.639263	0.674669
N22	N	0.623780	-0.139263	1.174669
N23	N	0.017951	-0.745064	0.569139
N24	N	0.517951	-0.245064	1.069139
C25	C	0.170236	-0.489965	0.721065
C26	C	0.670236	0.010035	1.221065
C27	C	0.170249	-0.592837	0.721058
C28	C	0.670249	-0.092837	1.221058
C29	C	0.195989	-0.567121	0.746758
C30	C	0.695989	-0.067121	1.246758
C31	C	0.308182	-0.547773	0.687664
C32	C	0.808182	-0.047773	1.187664
C33	C	0.378316	-0.571143	0.664253
C34	C	0.878316	-0.071143	1.164253
C35	C	0.378353	-0.684626	0.707525
C36	C	0.878353	-0.184626	1.207525
C37	C	0.308220	-0.661254	0.730938
C38	C	0.808220	-0.161254	1.230938
C39	C	0.187125	-0.454882	0.652117
C40	C	0.687125	0.045118	1.152117
C41	C	0.163710	-0.384741	0.628763
C42	C	0.663710	0.115259	1.128763
C43	C	0.106523	-0.384772	0.743308
C44	C	0.606523	0.115228	1.243308
C45	C	0.129938	-0.454913	0.766662
C46	C	0.629938	0.045087	1.266662
C47	C	0.101291	-0.575906	0.738041
C48	C	0.601291	-0.075906	1.238041
C49	C	0.077897	-0.599283	0.714670
C50	C	0.577897	-0.099283	1.214670
C51	C	0.192412	-0.656523	0.657348
C52	C	0.692412	-0.156523	1.157348
C53	C	0.215809	-0.633146	0.680711
C54	C	0.715809	-0.133146	1.180711
C55	C	0.101393	-0.575928	0.859014
C56	C	0.601393	-0.075928	1.359014
C57	C	0.078071	-0.599328	0.929152
C58	C	0.578071	-0.099328	1.429152
C59	C	0.192636	-0.656582	0.929078
C60	C	0.692636	-0.156582	1.429078
C61	C	0.215955	-0.633184	0.858938
C62	C	0.715955	-0.133184	1.358938
C63	C	0.170332	-0.592855	0.823908
C64	C	0.670332	-0.092855	1.323908
C65	C	0.273137	-0.592827	0.721004
C66	C	0.773137	-0.092827	1.221004
C67	C	-0.131205	-0.791294	0.522327
C68	C	0.368795	-0.291294	1.022327
C69	C	-0.028388	-0.791420	0.522551
C70	C	0.471612	-0.291420	1.022551
C71	C	-0.054056	-0.817099	0.496741
C72	C	0.445944	-0.317099	0.996741
C73	C	-0.073479	-0.929255	0.555734
C74	C	0.426521	-0.429255	1.055734
C75	C	-0.050156	-0.999396	0.579142
C76	C	0.449844	-0.499396	1.079142
C77	C	0.063326	-0.999525	0.536064
C78	C	0.563326	-0.499525	1.036064
C79	C	0.040001	-0.929386	0.512654
C80	C	0.540001	-0.429386	1.012654
C81	C	-0.166365	-0.808188	0.591256
C82	C	0.333635	-0.308188	1.091256
C83	C	-0.236499	-0.784726	0.614512
C84	C	0.263501	-0.284726	1.114512
C85	C	-0.236309	-0.727482	0.499907
C86	C	0.263691	-0.227482	0.999907
C87	C	-0.166175	-0.750944	0.476651
C88	C	0.333825	-0.250944	0.976651
C89	C	-0.045285	-0.722468	0.505590
C90	C	0.454715	-0.222468	1.005590
C91	C	-0.021951	-0.699130	0.529061
C92	C	0.478049	-0.199130	1.029061
C93	C	0.035176	-0.813691	0.586439
C94	C	0.535176	-0.313691	1.086439
C95	C	0.011842	-0.837031	0.562976
C96	C	0.511842	-0.337031	1.062976
C97	C	-0.045097	-0.722476	0.384488
C98	C	0.454903	-0.222476	0.884488
C99	C	-0.021613	-0.699140	0.314350
C100	C	0.478387	-0.199140	0.814350
C101	C	0.035607	-0.813706	0.314419
C102	C	0.535607	-0.313706	0.814419
C103	C	0.012124	-0.837041	0.384558
C104	C	0.512124	-0.337041	0.884558
C105	C	-0.028229	-0.791425	0.419591
C106	C	0.471771	-0.291425	0.919591
C107	C	-0.028402	-0.894253	0.522492
C108	C	0.471598	-0.394253	1.022492
N109	N	0.412405	-0.639229	0.674505
N110	N	0.912405	-0.139229	1.174505
O111	O	0.626552	-0.645384	0.514503
O112	O	1.126552	-0.145384	1.014503
O113	O	0.626802	-0.775625	0.691288
O114	O	1.126802	-0.275625	1.191288
O115	O	0.626698	-0.775326	0.579168
O116	O	1.126698	-0.275326	1.079168
O117	O	0.626656	-0.645683	0.626623
O118	O	1.126656	-0.145683	1.126623
O119	O	0.515277	-0.738265	0.616407
O120	O	1.015277	-0.238265	1.116407
O121	O	0.515382	-0.738564	0.728527
O122	O	1.015382	-0.238564	1.228527
O123	O	0.515131	-0.608323	0.551742
O124	O	1.015131	-0.108323	1.051742
Cu125	Cu	0.505083	-0.670059	0.643535
Cu126	Cu	1.005083	-0.170059	1.143535
Cu127	Cu	0.636850	-0.713889	0.599495
Cu128	Cu	1.136850	-0.213889	1.099495
O129	O	0.515236	-0.608622	0.663862
O130	O	1.015236	-0.108622	1.163862
N131	N	0.729529	-0.744719	0.568518
N132	N	1.229529	-0.244719	1.068518
N133	N	0.123755	-0.350686	0.674680
N134	N	0.623755	0.149314	1.174680
O135	O	-0.036153	-0.136410	0.668391
O136	O	0.463847	0.363590	1.168391
O137	O	0.140633	-0.136380	0.538141
O138	O	0.640633	0.363620	1.038141
O139	O	0.028472	-0.136412	0.538488
O140	O	0.528472	0.363588	1.038488
O141	O	0.076007	-0.136377	0.668044
O142	O	0.576007	0.363623	1.168044
O143	O	0.065663	-0.247842	0.575621
O144	O	0.565663	0.252158	1.075621
O145	O	0.177823	-0.247810	0.575274
O146	O	0.677823	0.252190	1.075274
O147	O	0.001037	-0.247840	0.705524
O148	O	0.501037	0.252160	1.205524
Cu149	Cu	0.092826	-0.258000	0.643789
Cu150	Cu	0.592826	0.242000	1.143789
Cu151	Cu	0.048844	-0.126220	0.599875
Cu152	Cu	0.548844	0.373780	1.099875
O153	O	0.113198	-0.247808	0.705177
O154	O	0.613198	0.252192	1.205177
N155	N	0.017907	-0.033534	0.568986
N156	N	0.517907	0.466466	1.068986
N157	N	0.124013	-0.639306	0.963182
N158	N	0.624013	-0.139306	1.463182
O159	O	0.117754	-0.799195	1.177439
O160	O	0.617754	-0.299195	1.677439
O161	O	-0.012458	-0.622342	1.177485
O162	O	0.487542	-0.122342	1.677485
O163	O	-0.012155	-0.734480	1.177444
O164	O	0.487845	-0.234480	1.677444
O165	O	0.117450	-0.687057	1.177480
O166	O	0.617450	-0.187057	1.677480
O167	O	0.024954	-0.697317	1.066020
O168	O	0.524954	-0.197317	1.566020
O169	O	0.024650	-0.585179	1.066061
O170	O	0.524650	-0.085179	1.566061
O171	O	0.154862	-0.762032	1.066014
O172	O	0.654862	-0.262032	1.566014
Cu173	Cu	0.093145	-0.670212	1.055863
Cu174	Cu	0.593145	-0.170212	1.555863
Cu175	Cu	0.049259	-0.714162	1.187636
Cu176	Cu	0.549259	-0.214162	1.687636
O177	O	0.154559	-0.649894	1.066055
O178	O	0.654559	-0.149894	1.566055
N179	N	0.018389	-0.745075	1.280318
N180	N	0.518389	-0.245075	1.780318
C181	C	0.042795	-0.581375	0.539107
C182	C	0.542795	-0.081375	1.039107
C183	C	0.181576	-0.720034	0.538975
C184	C	0.681576	-0.220034	1.038975
C185	C	0.098930	-0.802946	0.704700
C186	C	0.598930	-0.302946	1.204700
C187	C	-0.039851	-0.664287	0.704832
C188	C	0.460149	-0.164287	1.204832
C189	C	0.571122	-0.775030	0.732180
C190	C	1.071122	-0.275030	1.232180
C191	C	0.570995	-0.774660	0.593332
C192	C	1.070995	-0.274660	1.093332
C193	C	0.570808	-0.608917	0.510851
C194	C	1.070808	-0.108917	1.010851
C195	C	0.570939	-0.609288	0.649698
C196	C	1.070939	-0.109288	1.149698
C197	C	0.181453	-0.191954	0.538725
C198	C	0.681453	0.308046	1.038725
C199	C	0.042602	-0.192131	0.539201
C200	C	0.542602	0.307869	1.039201
C201	C	-0.039829	-0.192128	0.704893
C202	C	0.460171	0.307872	1.204893
C203	C	0.099069	-0.192090	0.704464
C204	C	0.599069	0.307910	1.204464
C205	C	-0.011836	-0.581480	1.121779
C206	C	0.488164	-0.081480	1.621779
C207	C	-0.011453	-0.720342	1.121706
C208	C	0.488547	-0.220342	1.621706
C209	C	0.154240	-0.802894	1.121720
C210	C	0.654240	-0.302894	1.621720
C211	C	0.153865	-0.664024	1.121769
C212	C	0.653865	-0.164024	1.621769
H213	H	0.064236	-0.543084	0.830495
H214	H	0.564236	-0.043084	1.330495
O215	O	-0.093864	-1.033505	0.611548
O216	O	0.406136	-0.533505	1.111548
C217	C	-0.091177	-1.074041	0.676769
C218	C	0.408823	-0.574041	1.176769
H219	H	-0.040900	-1.084549	0.678333
H220	H	0.459100	-0.584549	1.178333
H221	H	-0.097071	-1.123365	0.691027
H222	H	0.402929	-0.623365	1.191027
H223	H	-0.133385	-1.046988	0.713685
H224	H	0.366615	-0.546988	1.213685
H225	H	0.032695	-0.530537	0.498334
H226	H	0.532695	-0.030537	0.998334
H227	H	-0.090599	-0.192138	0.745784
H228	H	0.409401	0.307862	1.245784
H229	H	0.032420	-0.192135	0.498498
H230	H	0.532420	0.307865	0.998498
O231	O	0.241954	-0.191663	0.489903
O232	O	0.741954	0.308337	0.989903
C233	C	0.292718	-0.249246	0.512524
C234	C	0.792718	0.250754	1.012524
H235	H	0.274485	-0.268704	0.569629
H236	H	0.774485	0.231296	1.069629
H237	H	0.339309	-0.236001	0.492888
H238	H	0.839309	0.263999	0.992888
H239	H	0.305410	-0.289594	0.493347
H240	H	0.805410	0.210406	0.993347
H241	H	0.195123	-0.853684	1.121698
H242	H	0.695123	-0.353684	1.621698
H243	H	0.571186	-0.815915	0.782955
H244	H	1.071186	-0.315915	1.282955
H245	H	-0.090650	-0.654278	0.745664
H246	H	0.409350	-0.154278	1.245664
O247	O	0.570955	-0.560637	0.661685
O248	O	1.070955	-0.060637	1.161685
C249	C	0.570848	-0.502798	0.604179
C250	C	1.070848	-0.002798	1.104179
H251	H	0.591905	-0.517414	0.558110
H252	H	1.091905	-0.017414	1.058110
H253	H	0.603183	-0.477821	0.598289
H254	H	1.103183	0.022179	1.098289
H255	H	0.517371	-0.466390	0.609636
H256	H	1.017371	0.033610	1.109636
O257	O	0.570597	-0.560070	0.450335
O258	O	1.070597	-0.060070	0.950335
C259	C	0.512865	-0.503642	0.459226
C260	C	1.012865	-0.003642	0.959226
H261	H	0.472587	-0.519828	0.508304
H262	H	0.972587	-0.019828	1.008304
H263	H	0.493434	-0.479663	0.415796
H264	H	0.993434	0.020337	0.915796
H265	H	0.525890	-0.465808	0.460767
H266	H	1.025890	0.034192	0.960767
H267	H	0.109248	-0.192079	0.745165
H268	H	0.609248	0.307921	1.245165
H269	H	-0.052152	-0.730472	1.121651
H270	H	0.447848	-0.230472	1.621651
O271	O	0.570895	-0.823188	0.581230
O272	O	1.070895	-0.323188	1.081230
C273	C	0.513162	-0.800136	0.565496
C274	C	1.013162	-0.300136	1.065496
H275	H	0.472820	-0.758554	0.587151
H276	H	0.972820	-0.258554	1.087151
H277	H	0.493838	-0.843306	0.587853
H278	H	0.993838	-0.343306	1.087853
H279	H	0.526145	-0.779909	0.508763
H280	H	1.026145	-0.279909	1.008763
O281	O	-0.060545	-0.520859	1.121824
O282	O	0.439455	-0.020859	1.621824
C283	C	-0.036425	-0.479164	1.121824
C284	C	0.463575	0.020836	1.621824
H285	H	0.006590	-0.511384	1.142916
H286	H	0.506590	-0.011384	1.642916
H287	H	-0.078524	-0.447068	1.154185
H288	H	0.421476	0.052932	1.654185
H289	H	-0.017838	-0.445325	1.068374
H290	H	0.482162	0.054675	1.568374
O291	O	0.202380	-0.651803	1.121742
O292	O	0.702380	-0.151803	1.621742
C293	C	0.177969	-0.585948	1.121778
C294	C	0.677969	-0.085948	1.621778
H295	H	0.134952	-0.554244	1.100691
H296	H	0.634952	-0.054244	1.600691
H297	H	0.219919	-0.563409	1.089431
H298	H	0.719919	-0.063409	1.589431
H299	H	0.159299	-0.586939	1.175239
H300	H	0.659299	-0.086939	1.675239
H301	H	0.021932	-0.585534	0.957726
H302	H	0.521932	-0.085534	1.457726
O303	O	0.242171	-0.732080	0.490279
O304	O	0.742171	-0.232080	0.990279
C305	C	0.254142	-0.786289	0.474796
C306	C	0.754142	-0.286289	0.974796
H307	H	0.222840	-0.818480	0.519102
H308	H	0.722840	-0.318480	1.019102
H309	H	0.309528	-0.817841	0.463920
H310	H	0.809528	-0.317841	0.963920
H311	H	0.239739	-0.766381	0.428848
H312	H	0.739739	-0.266381	0.928848
O313	O	0.237046	-0.695762	0.962997
O314	O	0.737046	-0.195762	1.462997
C315	C	0.302894	-0.705663	0.916968
C316	C	0.802894	-0.205663	1.416968
H317	H	0.302726	-0.697821	0.866984
H318	H	0.802726	-0.197821	1.366984
H319	H	0.336228	-0.758854	0.937203
H320	H	0.836228	-0.258854	1.437203
H321	H	0.322976	-0.668321	0.909498
H322	H	0.822976	-0.168321	1.409498
H323	H	0.272095	-0.646975	0.830359
H324	H	0.772095	-0.146975	1.330359
H325	H	0.064189	-0.543085	0.770891
H326	H	0.564189	-0.043085	1.270891
H327	H	0.021747	-0.585481	0.728482
H328	H	0.521747	-0.085481	1.228482
H329	H	0.229515	-0.689349	0.624505
H330	H	0.729515	-0.189349	1.124505
H331	H	0.271959	-0.646925	0.666876
H332	H	0.771959	-0.146925	1.166876
O333	O	0.412542	-0.751072	0.717088
O334	O	0.912542	-0.251072	1.217088
C335	C	0.481959	-0.762040	0.689290
C336	C	0.981959	-0.262040	1.189290
H337	H	0.491505	-0.713766	0.649088
H338	H	0.991505	-0.213766	1.149088
H339	H	0.508606	-0.803019	0.665977
H340	H	1.008606	-0.303019	1.165977
H341	H	0.501899	-0.778204	0.730326
H342	H	1.001899	-0.278204	1.230326
H343	H	0.279688	-0.697946	0.758086
H344	H	0.779688	-0.197946	1.258086
H345	H	0.406848	-0.534453	0.637104
H346	H	0.906848	-0.034453	1.137104
H347	H	0.279622	-0.492055	0.679573
H348	H	0.779622	0.007945	1.179573
O349	O	0.111074	-0.863640	0.753262
O350	O	0.611074	-0.363640	1.253262
C351	C	0.176920	-0.905188	0.728953
C352	C	0.676920	-0.405188	1.228953
H353	H	0.194583	-0.886929	0.671887
H354	H	0.694583	-0.386929	1.171887
H355	H	0.177835	-0.958893	0.749417
H356	H	0.677835	-0.458893	1.249417
H357	H	0.211585	-0.903342	0.745899
H358	H	0.711585	-0.403342	1.245899
H359	H	0.219934	-0.483420	0.614988
H360	H	0.719934	0.016580	1.114988
H361	H	0.177459	-0.356175	0.572617
H362	H	0.677459	0.143825	1.072617
H363	H	0.116177	-0.483478	0.822809
H364	H	0.616177	0.016522	1.322809
O365	O	0.067368	-0.350821	0.787690
O366	O	0.567368	0.149179	1.287690
C367	C	0.057508	-0.396828	0.853556
C368	C	0.557508	0.103172	1.353556
H369	H	0.065351	-0.446827	0.853431
H370	H	0.565351	0.053173	1.353431
H371	H	0.004332	-0.376578	0.886885
H372	H	0.504332	0.123422	1.386885
H373	H	0.094868	-0.404280	0.873615
H374	H	0.594868	0.095720	1.373615
O375	O	-0.038127	-0.632152	0.280289
O376	O	0.461873	-0.132152	0.780289
C377	C	-0.108365	-0.602960	0.297323
C378	C	0.391635	-0.102960	0.797323
H379	H	-0.130987	-0.642859	0.316551
H380	H	0.369013	-0.142859	0.816551
H381	H	-0.121715	-0.561611	0.251152
H382	H	0.378285	-0.061611	0.751152
H383	H	-0.129189	-0.580804	0.338039
H384	H	0.370811	-0.080804	0.838039
O385	O	-0.084190	-0.678141	0.418494
O386	O	0.415810	-0.178141	0.918494
C387	C	-0.048763	-0.637640	0.401423
C388	C	0.451237	-0.137640	0.901423
H389	H	0.007347	-0.664780	0.382223
H390	H	0.507347	-0.164780	0.882223
H391	H	-0.061361	-0.627033	0.447568
H392	H	0.438639	-0.127033	0.947568
H393	H	-0.063626	-0.588359	0.360675
H394	H	0.436374	-0.088359	0.860675
H395	H	0.068452	-0.850855	0.285902
H396	H	0.568452	-0.350855	0.785902
O397	O	0.028431	-0.904028	0.418627
O398	O	0.528431	-0.404028	0.918627
C399	C	0.004491	-0.933117	0.401394
C400	C	0.504491	-0.433117	0.901394
H401	H	-0.038709	-0.893144	0.382021
H402	H	0.461291	-0.393144	0.882021
H403	H	-0.013784	-0.974427	0.447499
H404	H	0.486216	-0.474427	0.947499
H405	H	0.046606	-0.955302	0.360728
H406	H	0.546606	-0.455302	0.860728
O407	O	-0.084463	-0.678132	0.466428
O408	O	0.415537	-0.178132	0.966428
C409	C	-0.143297	-0.637517	0.501767
C410	C	0.356703	-0.137517	1.001767
H411	H	-0.153134	-0.664581	0.557894
H412	H	0.346866	-0.164581	1.057894
H413	H	-0.187435	-0.626860	0.489118
H414	H	0.312565	-0.126860	0.989118
H415	H	-0.136899	-0.588267	0.486867
H416	H	0.363101	-0.088267	0.986867
H417	H	0.067938	-0.850836	0.619346
H418	H	0.567938	-0.350836	1.119346
O419	O	-0.038234	-0.632168	0.512562
O420	O	0.461766	-0.132168	1.012562
C421	C	0.020732	-0.615314	0.477354
C422	C	0.520732	-0.115314	0.977354
H423	H	0.064745	-0.661580	0.490094
H424	H	0.564745	-0.161580	0.990094
H425	H	0.014455	-0.574652	0.492300
H426	H	0.514455	-0.074652	0.992300
H427	H	0.030677	-0.596080	0.421199
H428	H	0.530677	-0.096080	0.921199
O429	O	0.028342	-0.904033	0.579483
O430	O	0.528342	-0.404033	1.079483
C431	C	0.068841	-0.939289	0.620208
C432	C	0.568841	-0.439289	1.120208
H433	H	0.094342	-0.905882	0.611328
H434	H	0.594342	-0.405882	1.111328
H435	H	0.108518	-0.986126	0.607110
H436	H	0.608518	-0.486126	1.107110
H437	H	0.036412	-0.954368	0.675115
H438	H	0.536412	-0.454368	1.175115
H439	H	0.119026	-1.028132	0.528057
H440	H	0.619026	-0.528132	1.028057
O441	O	0.083878	-0.895487	0.480402
O442	O	0.583878	-0.395487	0.980402
C443	C	0.149255	-0.941540	0.476729
C444	C	0.649255	-0.441540	0.976729
H445	H	0.146522	-0.991515	0.518157
H446	H	0.646522	-0.491515	1.018157
H447	H	0.178021	-0.921313	0.483155
H448	H	0.678021	-0.421313	0.983155
H449	H	0.176087	-0.949031	0.425908
H450	H	0.676087	-0.449031	0.925908
H451	H	-0.129177	-0.900656	0.563750
H452	H	0.370823	-0.400656	1.063750
H453	H	-0.265127	-0.798479	0.670643
H454	H	0.234873	-0.298479	1.170643
O455	O	-0.132497	-0.847351	0.635713
O456	O	0.367503	-0.347351	1.135713
C457	C	-0.178572	-0.857238	0.701541
C458	C	0.321428	-0.357238	1.201541
H459	H	-0.228534	-0.814906	0.701329
H460	H	0.271466	-0.314906	1.201329
H461	H	-0.158368	-0.857629	0.734910
H462	H	0.341632	-0.357629	1.234910
H463	H	-0.186071	-0.907174	0.721613
H464	H	0.313929	-0.407174	1.221613
H465	H	-0.264783	-0.694634	0.462714
H466	H	0.235217	-0.194634	0.962714
H467	H	-0.137547	-0.737181	0.420520
H468	H	0.362453	-0.237181	0.920520
