data_functionalizedCrystal
_audit_creation_method	'MofGen! by Chris Wilmer'
_symmetry_space_group_name_H-M	'P1'
_symmetry_Int_Tables_number	1
_symmetry_cell_setting	triclinic
loop_
_symmetry_equiv_pos_as_xyz
  x,y,z
_cell_length_a	10.489716
_cell_length_b	10.489741
_cell_length_c	15.455313
_cell_angle_alpha	92.692689
_cell_angle_beta	87.292090
_cell_angle_gamma	84.534155
loop_
_atom_site_label
_atom_site_type_symbol
_atom_site_fract_x
_atom_site_fract_y
_atom_site_fract_z
O1	O	1.699611	0.174291	-0.072123
O2	O	1.328412	0.191216	-0.072127
O3	O	1.522458	-0.002845	-0.072120
O4	O	1.505565	0.368352	-0.072130
O5	O	1.511361	0.008206	0.072142
O6	O	1.317315	0.202267	0.072135
O7	O	1.688514	0.185342	0.072138
Cu8	Cu	1.501901	0.194814	0.085309
Cu9	Cu	1.515025	0.181744	-0.085297
O10	O	1.494469	0.379403	0.072132
C11	C	1.275331	0.195470	0.000004
C12	C	1.133700	0.191665	0.000003
C13	C	1.036027	0.310669	-0.000003
C14	C	0.953209	0.253234	0.071132
C15	C	0.964156	0.242310	-0.071099
C16	C	1.052744	0.134284	0.071196
C17	C	1.063701	0.123373	-0.071099
C18	C	0.980931	0.065852	0.000053
C19	C	1.515633	-0.044851	0.000011
C20	C	1.511816	-0.186480	0.000009
C21	C	1.388351	-0.254610	0.000002
C22	C	1.441204	-0.341289	0.071131
C23	C	1.452173	-0.352159	-0.071100
C24	C	1.564715	-0.271289	0.071197
C25	C	1.575673	-0.282155	-0.071098
C26	C	1.628614	-0.368805	0.000048
C27	C	1.741595	0.181088	0.000006
C28	C	1.883226	0.184892	0.000001
C29	C	1.501293	0.421409	-0.000001
C30	C	1.505111	0.563037	-0.000005
N31	N	1.492681	0.204005	0.205304
N32	N	1.524256	0.172543	-0.205292
C33	C	1.575147	0.121592	0.250701
C34	C	1.568186	0.128555	0.341509
C35	C	1.478763	0.217938	0.386918
C36	C	1.396287	0.300355	0.341514
C37	C	1.403244	0.293385	0.250708
C38	C	1.448737	0.247989	0.658498
C39	C	1.441789	0.254956	0.749311
C40	C	1.613687	0.083154	0.749299
C41	C	1.620640	0.076197	0.658491
C42	C	1.538160	0.158609	0.613096
N43	N	1.471647	0.225060	0.479738
N44	N	1.545270	0.151479	0.520277
H45	H	0.905101	0.308077	0.131266
H46	H	1.404543	-0.387725	-0.131240
C47	C	1.652437	-0.246439	-0.152341
N48	N	1.710247	-0.219534	-0.213540
H49	H	0.956497	-0.037737	0.000097
C50	C	1.128713	0.049332	-0.152343
N51	N	1.177676	-0.006432	-0.213544
C52	C	1.673520	0.023262	0.200760
N53	N	1.747613	-0.050807	0.163146
C54	C	1.658876	0.037863	0.391441
N55	N	1.727175	-0.030463	0.429050
H56	H	1.730215	-0.418234	0.000089
H57	H	1.693455	0.003414	0.621521
C58	C	1.343409	0.353285	0.799259
N59	N	1.269313	0.427343	0.836880
H60	H	0.925298	0.287965	-0.131229
H61	H	1.381580	0.315095	0.621544
H62	H	1.286832	-0.204944	0.000072
H63	H	1.323471	0.373128	0.378492
H64	H	1.384337	-0.367689	0.131264
H65	H	1.336089	0.360492	0.213747
H66	H	1.612280	-0.235850	0.131398
C67	C	1.105000	0.072700	0.152527
N68	N	1.144361	0.026321	0.213786
H69	H	1.060691	0.414190	0.000061
H70	H	1.680837	0.016056	0.786268
