data_functionalizedCrystal
_audit_creation_method	'MofGen! by Chris Wilmer'
_symmetry_space_group_name_H-M	'P1'
_symmetry_Int_Tables_number	1
_symmetry_cell_setting	triclinic
loop_
_symmetry_equiv_pos_as_xyz
  x,y,z
_cell_length_a	20.453700
_cell_length_b	27.923496
_cell_length_c	11.102315
_cell_angle_alpha	84.491829
_cell_angle_beta	108.606275
_cell_angle_gamma	81.036054
loop_
_atom_site_label
_atom_site_type_symbol
_atom_site_fract_x
_atom_site_fract_y
_atom_site_fract_z
V1	V	1.354478	-0.067128	0.397061
O2	O	1.357627	0.003223	0.388676
O3	O	1.330978	-0.133101	0.395141
O4	O	1.346986	-0.066097	0.569871
O5	O	1.341508	-0.064245	0.212737
V6	V	1.515522	-0.058713	0.374918
O7	O	1.441850	-0.085587	0.445634
O8	O	1.578216	-0.040254	0.326345
O9	O	1.464620	0.007260	0.376839
O10	O	1.551505	-0.129064	0.383303
O11	O	1.567624	-0.061596	0.559243
O12	O	1.448612	-0.059744	0.202109
V13	V	1.687811	-0.067128	0.397061
O14	O	1.690961	0.003223	0.388676
O15	O	1.664311	-0.133101	0.395141
O16	O	1.680319	-0.066097	0.569871
O17	O	1.674842	-0.064245	0.212737
V18	V	1.848856	-0.058713	0.374918
O19	O	1.775183	-0.085587	0.445634
O20	O	1.911550	-0.040254	0.326345
O21	O	1.797954	0.007260	0.376839
O22	O	1.884839	-0.129064	0.383303
O23	O	1.900958	-0.061596	0.559243
O24	O	1.781945	-0.059744	0.202109
V25	V	2.021145	-0.067128	0.397061
O26	O	2.024294	0.003223	0.388676
O27	O	1.997645	-0.133101	0.395141
O28	O	2.013653	-0.066097	0.569871
O29	O	2.008175	-0.064245	0.212737
V30	V	2.182189	-0.058713	0.374918
O31	O	2.108516	-0.085587	0.445634
O32	O	2.244883	-0.040254	0.326345
O33	O	2.131287	0.007260	0.376839
O34	O	2.218172	-0.129064	0.383303
O35	O	2.234291	-0.061596	0.559243
O36	O	2.115279	-0.059744	0.202109
C37	C	1.277240	-0.149184	0.389082
C38	C	1.285179	-0.203117	0.388664
C39	C	1.395251	-0.540045	0.392579
C40	C	1.425135	-0.742754	0.391067
O41	O	1.480670	-0.771070	0.396345
N42	N	1.368122	-0.765629	0.384501
C43	C	1.303635	-0.737824	0.378321
O44	O	1.255830	-0.761932	0.372715
C45	C	1.273754	-0.535116	0.379843
C46	C	1.330769	-0.512244	0.386396
C47	C	1.452261	-0.517172	0.399133
C48	C	1.444789	-0.466498	0.399504
C49	C	1.380307	-0.438696	0.393321
C50	C	1.323297	-0.461569	0.386767
C51	C	1.209269	-0.507313	0.373673
C52	C	1.201804	-0.456633	0.374057
C53	C	1.258819	-0.433760	0.380610
C54	C	1.251342	-0.383093	0.380955
N55	N	1.308355	-0.360218	0.387521
C56	C	1.372837	-0.388020	0.393704
C57	C	1.319327	-0.844248	0.377520
C58	C	1.326797	-0.894925	0.377137
C59	C	1.448297	-0.899852	0.389885
C60	C	1.440825	-0.849174	0.390259
C61	C	1.376340	-0.821374	0.384086
C62	C	1.357140	-0.281599	0.394482
C63	C	1.349661	-0.230919	0.394847
C64	C	1.228164	-0.225997	0.382106
C65	C	1.235641	-0.276672	0.381734
C66	C	1.300135	-0.304472	0.387927
O67	O	1.195832	-0.354747	0.375694
O68	O	1.420637	-0.363904	0.399338
C69	C	1.402723	-0.590720	0.392208
C70	C	1.345713	-0.613593	0.385654
C71	C	1.281231	-0.585791	0.379471
C72	C	1.353183	-0.664269	0.385271
C73	C	1.417665	-0.692071	0.391454
C74	C	1.474678	-0.669196	0.398020
C75	C	1.467206	-0.618522	0.398391
C76	C	1.224218	-0.608666	0.372905
C77	C	1.231695	-0.659341	0.372533
C78	C	1.296178	-0.687143	0.378716
C79	C	1.297660	-0.063712	0.611966
C80	C	1.318580	-0.063306	0.753244
C81	C	1.406139	0.023340	0.382894
C82	C	1.391279	0.077273	0.383320
C83	C	1.385719	-0.062130	0.160007
C84	C	1.357878	-0.062535	0.018728
C85	C	1.610573	-0.149184	0.389082
C86	C	1.618512	-0.203117	0.388664
C87	C	1.440106	-0.068154	0.766271
C88	C	1.510695	-0.070389	0.839157
C89	C	1.530348	-0.070006	0.971899
C90	C	1.479404	-0.067387	1.031757
C91	C	1.408815	-0.065152	0.958871
C92	C	1.389170	-0.065537	0.826128
C93	C	1.287289	-0.060300	0.945842
C94	C	1.267636	-0.060686	0.813102
C95	C	1.236346	-0.057681	1.005700
C96	C	1.165756	-0.055450	0.932816
C97	C	1.146106	-0.055833	0.800067
C98	C	1.197047	-0.058452	0.740216
C99	C	1.630993	-0.063712	0.611966
C100	C	1.651913	-0.063306	0.753244
C101	C	1.739472	0.023340	0.382894
C102	C	1.724613	0.077273	0.383320
C103	C	1.719052	-0.062130	0.160007
C104	C	1.691212	-0.062535	0.018728
C105	C	1.943906	-0.149184	0.389082
C106	C	1.951846	-0.203117	0.388664
C107	C	1.964326	-0.063712	0.611966
C108	C	1.985246	-0.063306	0.753244
C109	C	2.072805	0.023340	0.382894
C110	C	2.057946	0.077273	0.383320
C111	C	2.052386	-0.062130	0.160007
C112	C	2.024545	-0.062535	0.018728
C113	C	1.682995	-0.230919	0.394847
C114	C	1.690467	-0.281597	0.394473
C115	C	1.633454	-0.304472	0.387908
C116	C	1.568967	-0.276667	0.381728
C117	C	1.561497	-0.225990	0.382111
C118	C	1.775126	0.105075	0.377141
C119	C	1.761169	0.155753	0.377520
C120	C	1.696700	0.178627	0.384089
C121	C	1.646182	0.150822	0.390265
C122	C	1.660137	0.100146	0.389876
C123	C	2.016328	-0.230919	0.394847
C124	C	2.023800	-0.281597	0.394473
C125	C	1.966787	-0.304472	0.387908
C126	C	1.902300	-0.276667	0.381728
C127	C	1.894831	-0.225990	0.382111
C128	C	2.108460	0.105075	0.377141
C129	C	2.094502	0.155753	0.377520
C130	C	2.030033	0.178627	0.384089
C131	C	1.979515	0.150822	0.390265
C132	C	1.993471	0.100146	0.389876
C133	C	1.670797	-0.152167	0.790634
C134	C	1.690065	-0.196405	0.875700
C135	C	1.709721	-0.196020	1.008441
C136	C	1.710112	-0.151392	1.056118
C137	C	1.690844	-0.107155	0.971053
C138	C	1.671186	-0.107544	0.838310
C139	C	1.671965	-0.018294	0.933663
C140	C	1.652304	-0.018678	0.800921
C141	C	1.672356	0.026333	0.981340
C142	C	1.653083	0.070572	0.896274
C143	C	1.633425	0.070185	0.763525
C144	C	1.633036	0.025559	0.715855
C145	C	2.004130	-0.152167	0.790634
C146	C	2.023398	-0.196405	0.875700
C147	C	2.043055	-0.196020	1.008441
C148	C	2.043445	-0.151392	1.056118
C149	C	2.024177	-0.107155	0.971053
C150	C	2.004519	-0.107544	0.838310
C151	C	2.005299	-0.018294	0.933663
C152	C	1.985637	-0.018678	0.800921
C153	C	2.005689	0.026333	0.981340
C154	C	1.986416	0.070572	0.896274
C155	C	1.966758	0.070185	0.763525
C156	C	1.966369	0.025559	0.715855
H157	H	1.409657	-0.304228	0.399526
H158	H	1.972879	-0.345736	0.387597
C159	C	1.839589	-0.301831	0.374494
H160	H	1.800112	-0.278019	0.370872
H161	H	1.828215	-0.317065	0.299566
H162	H	1.851751	-0.325930	0.448595
H163	H	1.491219	-0.447880	0.404849
C164	C	1.846042	0.079923	0.369904
H165	H	1.874118	0.103745	0.366263
H166	H	1.869808	0.055824	0.443992
H167	H	1.837950	0.064692	0.294964
H168	H	1.842320	-0.203357	0.377069
C169	C	1.566728	-0.073272	0.773312
H170	H	1.544918	-0.073185	0.683819
H171	H	1.588880	-0.045783	0.785789
H172	H	1.600951	-0.102633	0.809701
C173	C	1.816747	0.186328	0.370740
H174	H	1.857143	0.165443	0.366795
H175	H	1.797781	0.210631	0.296116
H176	H	1.829614	0.201766	0.445147
C177	C	2.014688	0.234370	0.384522
H178	H	1.969056	0.244016	0.389312
H179	H	2.048690	0.242309	0.456766
H180	H	2.016842	0.251175	0.307737
C181	C	2.150077	0.186330	0.370737
H182	H	2.132535	0.219789	0.371893
H183	H	2.191905	0.174604	0.442571
H184	H	2.160067	0.183467	0.293541
C185	C	1.653538	0.119655	0.948717
H186	H	1.639256	0.145947	0.879048
H187	H	1.621956	0.123215	0.995587
H188	H	1.699698	0.120088	1.003860
C189	C	2.179376	0.079923	0.369904
H190	H	2.207451	0.103745	0.366263
H191	H	2.203142	0.055824	0.443992
H192	H	2.171283	0.064692	0.294964
C193	C	1.611422	0.025132	0.569846
H194	H	1.613956	-0.007782	0.553640
H195	H	1.564620	0.043006	0.528738
H196	H	1.642370	0.039899	0.537086
C197	C	1.523195	-0.547746	0.405925
H198	H	1.556070	-0.526858	0.409873
H199	H	1.540418	-0.572051	0.480546
H200	H	1.516859	-0.563183	0.331516
C201	C	1.649167	-0.152589	0.644622
H202	H	1.637742	-0.119852	0.600788
H203	H	1.687072	-0.170640	0.625645
H204	H	1.609328	-0.167532	0.617348
C205	C	1.109728	-0.052570	0.998661
H206	H	1.131542	-0.052662	1.088155
H207	H	1.075499	-0.023214	0.962274
H208	H	1.087585	-0.080065	0.986195
H209	H	1.189216	-0.295296	0.376406
H210	H	1.500800	-0.922496	0.394906
H211	H	1.927024	0.169455	0.395612
H212	H	1.952335	0.077513	0.394920
C213	C	1.503541	-0.824019	0.397472
H214	H	1.543013	-0.847839	0.401104
H215	H	1.491382	-0.799921	0.323378
H216	H	1.514932	-0.808785	0.472408
H217	H	1.742979	-0.304229	0.399502
C218	C	1.257957	-0.057255	1.151710
H219	H	1.217508	-0.055370	1.176915
H220	H	1.290882	-0.086487	1.196107
H221	H	1.278804	-0.029637	1.172182
C222	C	1.689631	-0.245491	0.823252
H223	H	1.675158	-0.239386	0.732013
H224	H	1.735600	-0.265237	0.856845
H225	H	1.657854	-0.262128	0.848530
C226	C	1.641678	-0.360215	0.387483
H227	H	1.688248	-0.373493	0.392095
H228	H	1.632706	-0.375204	0.459550
H229	H	1.609162	-0.366338	0.310521
C230	C	1.612230	0.118847	0.669962
H231	H	1.615275	0.145478	0.717373
H232	H	1.643037	0.118993	0.621555
H233	H	1.565293	0.122097	0.613250
C234	C	1.730920	-0.244679	1.102016
H235	H	1.727871	-0.271313	1.054616
H236	H	1.777850	-0.247924	1.158733
H237	H	1.700105	-0.244823	1.150415
C238	C	1.146553	-0.532463	0.366480
H239	H	1.107088	-0.508642	0.362872
H240	H	1.135156	-0.547702	0.291563
H241	H	1.158719	-0.556556	0.440594
H242	H	2.021701	0.026643	1.089427
H243	H	2.059460	-0.151083	1.164206
H244	H	1.149294	-0.434001	0.369037
C245	C	1.731739	-0.150970	1.202131
H246	H	1.743157	-0.183707	1.245964
H247	H	1.771568	-0.136023	1.229411
H248	H	1.693824	-0.132923	1.221099
H249	H	1.688367	0.026643	1.089427
H250	H	1.619002	0.077513	0.394920
C251	C	1.607995	-0.072470	1.052078
H252	H	1.635522	-0.074089	0.997425
H253	H	1.612154	-0.044001	1.092189
H254	H	1.624215	-0.100851	1.116076
H255	H	1.175661	-0.203351	0.377065
H256	H	1.495410	-0.067069	1.139840
H257	H	1.513634	-0.599903	0.403727
C258	C	1.264078	-0.920080	0.369902
H259	H	1.277754	-0.954243	0.370546
H260	H	1.249662	-0.915192	0.441852
H261	H	1.226124	-0.906328	0.292823
H262	H	1.088623	-0.054002	0.740726
C263	C	1.982512	-0.152593	0.644624
H264	H	1.985044	-0.185505	0.628413
H265	H	1.935710	-0.134717	0.603524
H266	H	2.013459	-0.137825	0.611860
H267	H	2.023080	-0.232739	0.836866
C268	C	1.175433	-0.058874	0.594205
H269	H	1.126098	-0.057171	0.559367
H270	H	1.187395	-0.031435	0.554629
H271	H	1.199467	-0.088285	0.578541
H272	H	2.058745	-0.232042	1.077703
H273	H	1.986741	0.106903	0.935105
C274	C	1.945570	0.118846	0.669957
H275	H	1.933811	0.112227	0.584072
H276	H	1.906045	0.138721	0.679873
H277	H	1.983794	0.135607	0.688196
C278	C	1.412381	-0.205762	0.402060
H279	H	1.451856	-0.229582	0.405702
H280	H	1.400223	-0.181667	0.327962
H281	H	1.423766	-0.190526	0.476991
C282	C	1.248388	-0.813673	0.370715
H283	H	1.215507	-0.834558	0.366737
H284	H	1.254711	-0.798231	0.445105
H285	H	1.231174	-0.789372	0.296076
H286	H	1.950359	0.025240	0.607772
C287	C	1.681355	0.234370	0.384522
H288	H	1.635723	0.244016	0.389312
H289	H	1.715357	0.242309	0.456766
H290	H	1.683509	0.251175	0.307737
C291	C	1.545609	-0.699785	0.404833
H292	H	1.541889	-0.733242	0.403683
H293	H	1.557583	-0.688070	0.333009
H294	H	1.581115	-0.696924	0.482037
C295	C	2.079047	-0.205766	0.402067
H296	H	2.118518	-0.229588	0.405707
H297	H	2.066894	-0.181670	0.327972
H298	H	2.090436	-0.190532	0.477001
C299	C	1.168974	-0.684495	0.365327
H300	H	1.129505	-0.660676	0.361712
H301	H	1.157583	-0.699736	0.290413
H302	H	1.181140	-0.708588	0.439443
H303	H	1.729423	-0.212301	0.400186
H304	H	1.508987	-0.203357	0.377069
C305	C	1.506258	-0.301833	0.374494
H306	H	1.519947	-0.335994	0.375136
H307	H	1.491837	-0.296951	0.446441
H308	H	1.468304	-0.288084	0.297413
C309	C	1.418494	-0.068583	0.620263
H310	H	1.458941	-0.070462	0.595052
H311	H	1.397644	-0.096198	0.599792
H312	H	1.385570	-0.039348	0.575864
H313	H	1.171709	-0.586035	0.367871
H314	H	1.593690	0.169455	0.395612
H315	H	2.076312	-0.304229	0.399502
