data_functionalizedCrystal
_audit_creation_method	'MofGen! by Chris Wilmer'
_symmetry_space_group_name_H-M	'P1'
_symmetry_Int_Tables_number	1
_symmetry_cell_setting	triclinic
loop_
_symmetry_equiv_pos_as_xyz
  x,y,z
_cell_length_a	15.299448
_cell_length_b	15.297475
_cell_length_c	15.297327
_cell_angle_alpha	91.625546
_cell_angle_beta	88.404991
_cell_angle_gamma	110.793752
loop_
_atom_site_label
_atom_site_type_symbol
_atom_site_fract_x
_atom_site_fract_y
_atom_site_fract_z
Zn1	Zn	-0.839934	-1.444340	0.464129
Zn2	Zn	-0.708681	-1.392990	0.628820
Zn3	Zn	-0.657557	-1.261892	0.464103
Zn4	Zn	-0.831040	-1.270729	0.586397
O5	O	-0.759303	-1.342488	0.535862
O6	O	-0.847641	-1.565050	0.503741
O7	O	-0.574367	-1.350411	0.624714
O8	O	-0.664077	-1.303887	0.344002
O9	O	-0.751210	-1.527323	0.624739
O10	O	-0.798068	-1.437930	0.344021
O11	O	-0.536806	-1.254094	0.503697
O12	O	-0.655452	-1.135542	0.462561
O13	O	-0.959752	-1.318947	0.552434
O14	O	-0.782909	-1.142034	0.552410
O15	O	-0.966287	-1.446499	0.462604
O16	O	-0.742586	-1.358979	0.743297
O17	O	-0.832482	-1.269154	0.712129
C18	C	-0.712668	-1.105723	0.502880
C19	C	-0.692742	-1.004436	0.488787
C20	C	-0.792141	-1.309482	0.758856
C21	C	-0.806236	-1.295452	0.854260
C22	C	-0.997012	-1.389436	0.502790
C23	C	-1.098310	-1.409443	0.488697
C24	C	-1.149299	-1.485253	0.435304
C25	C	-1.244470	-1.504044	0.422050
C26	C	-1.288663	-1.447032	0.462193
C27	C	-1.237675	-1.371225	0.515593
C28	C	-1.142493	-1.352427	0.528842
C29	C	-1.281857	-1.314207	0.555732
C30	C	-1.230869	-1.238400	0.609131
C31	C	-1.135697	-1.219606	0.622378
C32	C	-1.091504	-1.276618	0.582235
C33	C	-1.377039	-1.333004	0.542482
C34	C	-1.370233	-1.200179	0.636021
C35	C	-1.275062	-1.181388	0.649274
C36	C	-0.522520	-1.295783	0.568751
C37	C	-0.421222	-1.275989	0.582628
C38	C	-0.806121	-1.580176	0.568975
C39	C	-0.826071	-1.681465	0.583085
C40	C	-0.901720	-0.732422	0.636590
C41	C	-0.920439	-0.827585	0.649837
C42	C	-0.863517	-0.871802	0.609576
C43	C	-0.787871	-0.820847	0.556065
C44	C	-0.769145	-0.725673	0.542822
C45	C	-0.730943	-0.865054	0.515807
C46	C	-0.655297	-0.814099	0.462297
C47	C	-0.636575	-0.718934	0.449055
C48	C	-0.693497	-0.674716	0.489317
C49	C	-0.749669	-0.960228	0.529051
C50	C	-0.617094	-0.953479	0.435282
C51	C	-0.598374	-0.858316	0.422035
C52	C	-0.726362	-1.375651	0.311999
C53	C	-0.712324	-1.389783	0.216602
C54	C	-0.658948	-1.443203	1.187982
C55	C	-0.645701	-1.456384	1.098345
C56	C	-0.685833	-1.416152	1.037319
C57	C	-0.739216	-1.362737	1.065939
C58	C	-0.752459	-1.349548	1.155585
C59	C	-0.779344	-1.322498	1.004923
C60	C	-0.832727	-1.269082	1.033543
C61	C	-0.845968	-1.255897	1.123180
C62	C	-0.805835	-1.296128	1.184206
C63	C	-0.766101	-1.335686	0.915277
C64	C	-0.859612	-1.242032	0.882881
C65	C	-0.872860	-1.228851	0.972518
H66	H	-1.418543	-1.394726	0.499002
H67	H	-0.811261	-1.001707	0.572619
H68	H	-1.366155	-1.462336	0.451398
H69	H	-1.285977	-1.565768	0.378574
H70	H	-0.889423	-1.212390	1.146479
H71	H	-0.892290	-1.209269	0.833193
H72	H	-0.916324	-1.185359	0.995833
H73	H	-0.675043	-1.426886	0.964334
H74	H	-0.574971	-0.677445	0.405493
H75	H	-0.570742	-0.989480	0.402499
H76	H	-0.982029	-0.869065	0.693408
H77	H	-0.626271	-1.475947	1.237675
H78	H	-1.113306	-1.531660	0.402620
H79	H	-1.094184	-1.157876	0.665857
H80	H	-1.014009	-1.261324	0.593026
H81	H	-1.233535	-1.119664	0.692752
H82	H	-0.602236	-1.499873	1.075046
H83	H	-1.406212	-1.153750	0.668702
H84	H	-0.878764	-0.949289	0.620364
H85	H	-0.948053	-0.696409	0.669371
H86	H	-0.678261	-0.597227	0.478532
H87	H	-0.536782	-0.816815	0.378466
H88	H	-0.722636	-1.379177	0.891983
H89	H	-0.816621	-1.285402	1.257197
