data_functionalizedCrystal
_audit_creation_method	'MofGen! by Chris Wilmer'
_symmetry_space_group_name_H-M	'P1'
_symmetry_Int_Tables_number	1
_symmetry_cell_setting	triclinic
loop_
_symmetry_equiv_pos_as_xyz
  x,y,z
_cell_length_a	11.026607
_cell_length_b	9.798715
_cell_length_c	10.723023
_cell_angle_alpha	89.998183
_cell_angle_beta	96.526782
_cell_angle_gamma	89.996711
loop_
_atom_site_label
_atom_site_type_symbol
_atom_site_fract_x
_atom_site_fract_y
_atom_site_fract_z
O1	O	1.614519	-0.113487	0.523503
O2	O	1.260717	-0.113489	0.463891
O3	O	1.445779	-0.113484	0.313882
O4	O	1.429456	-0.113493	0.673512
O5	O	1.445765	0.113499	0.313879
O6	O	1.260703	0.113493	0.463888
O7	O	1.614505	0.113495	0.523499
Zn8	Zn	1.437602	0.149532	0.493693
Zn9	Zn	1.437620	-0.149526	0.493698
O10	O	1.429442	0.113490	0.673508
C11	C	1.215407	0.000002	0.452892
C12	C	1.080420	0.000001	0.420109
C13	C	1.444585	0.000006	0.267125
C14	C	1.441031	0.000001	0.127803
N15	N	1.437598	0.353632	0.493691
C16	C	1.007368	-0.000003	0.510629
C17	C	0.867852	-0.000003	0.476748
C18	C	1.659814	0.000001	0.534498
C19	C	1.794801	-0.000007	0.567281
N20	N	1.437633	-0.353626	0.493692
C21	C	1.515301	0.421411	0.430355
C22	C	1.515320	0.578574	0.430355
C23	C	1.439440	0.117582	0.065682
C24	C	1.435767	0.117579	-0.078314
C25	C	1.430637	-0.000003	0.720266
C26	C	1.434190	-0.000007	0.859587
H27	H	1.048113	0.000003	0.613209
O28	O	1.358096	0.577006	0.558300
C29	C	1.237464	0.611819	0.511208
H30	H	1.237007	0.715601	0.463108
H31	H	1.178606	0.616573	0.591895
H32	H	1.199234	0.531437	0.440545
O33	O	1.358129	0.422987	0.558403
C34	C	1.285899	0.329452	0.617319
H35	H	1.283865	0.227559	0.565817
H36	H	1.189030	0.370863	0.614772
H37	H	1.326390	0.314299	0.719008
H38	H	1.581807	0.363091	0.376124
H39	H	1.440803	0.218249	0.119102
H40	H	1.581849	0.636861	0.376136
H41	H	1.434391	0.218244	-0.131738
O42	O	1.435627	-0.120037	-0.076597
C43	C	1.332411	-0.127327	-0.010402
H44	H	1.297890	-0.019862	0.005937
H45	H	1.358363	-0.179601	0.083836
H46	H	1.257517	-0.188413	-0.067450
O47	O	0.819060	-0.000063	0.354424
C48	C	0.690623	-0.000028	0.347827
H49	H	0.661783	-0.043000	0.438754
H50	H	0.650974	-0.065927	0.265507
H51	H	0.655255	0.108867	0.333883
O52	O	0.843188	0.000051	0.689734
C53	C	0.748173	0.000010	0.767318
H54	H	0.661675	0.042982	0.713033
H55	H	0.775444	0.065906	0.853571
H56	H	0.730570	-0.108887	0.798087
O57	O	1.439453	-0.120224	0.064283
C58	C	1.441603	-0.229551	0.149998
H59	H	1.482421	-0.193416	0.246815
H60	H	1.499542	-0.316050	0.117384
H61	H	1.344586	-0.267592	0.155105
O62	O	1.031767	-0.000240	0.297746
C63	C	0.959173	-0.117779	0.273414
H64	H	0.989801	-0.199944	0.345450
H65	H	0.969589	-0.157238	0.175188
H66	H	0.859433	-0.091200	0.279926
