data_functionalizedCrystal
_audit_creation_method	'MofGen! by Chris Wilmer'
_symmetry_space_group_name_H-M	'P1'
_symmetry_Int_Tables_number	1
_symmetry_cell_setting	triclinic
loop_
_symmetry_equiv_pos_as_xyz
  x,y,z
_cell_length_a	21.295412
_cell_length_b	16.120530
_cell_length_c	16.120484
_cell_angle_alpha	90.167327
_cell_angle_beta	87.129412
_cell_angle_gamma	92.913341
loop_
_atom_site_label
_atom_site_type_symbol
_atom_site_fract_x
_atom_site_fract_y
_atom_site_fract_z
Zn1	Zn	-0.419034	-1.254440	0.395622
Zn2	Zn	-0.085701	-0.921107	0.728955
Zn3	Zn	0.247633	-0.587773	1.062288
Zn4	Zn	-0.318813	-1.247291	0.534678
Zn5	Zn	0.014520	-0.913958	0.868011
Zn6	Zn	0.347853	-0.580625	1.201344
Zn7	Zn	-0.308192	-1.115389	0.388585
Zn8	Zn	0.025141	-0.782055	0.721918
Zn9	Zn	0.358474	-0.448722	1.055251
Zn10	Zn	-0.418458	-1.108292	0.527575
Zn11	Zn	-0.085125	-0.774959	0.860908
Zn12	Zn	0.248209	-0.441626	1.194241
O13	O	-0.366124	-1.181353	0.461615
O14	O	-0.032791	-0.848020	0.794948
O15	O	0.300542	-0.514686	1.128281
O16	O	-0.410425	-1.369857	0.419985
O17	O	-0.077092	-1.036524	0.753319
O18	O	0.256241	-0.703190	1.086652
O19	O	-0.229315	-1.229772	0.515326
O20	O	0.104018	-0.896439	0.848659
O21	O	0.437351	-0.563105	1.181993
O22	O	-0.318692	-1.139796	0.273155
O23	O	0.014641	-0.806462	0.606488
O24	O	0.347975	-0.473129	0.939822
O25	O	-0.336794	-1.364605	0.522149
O26	O	-0.003460	-1.031271	0.855483
O27	O	0.329873	-0.697938	1.188816
O28	O	-0.400127	-1.241956	0.278325
O29	O	-0.066793	-0.908623	0.611658
O30	O	0.266540	-0.575290	0.944991
O31	O	-0.221512	-1.132864	0.407992
O32	O	0.111821	-0.799530	0.741325
O33	O	0.445155	-0.466197	1.074659
O34	O	-0.318134	-0.998082	0.401104
O35	O	0.015200	-0.664749	0.734438
O36	O	0.348533	-0.331415	1.067771
O37	O	-0.506624	-1.127701	0.510043
O38	O	-0.173290	-0.794368	0.843376
O39	O	0.160043	-0.461035	1.176710
O40	O	-0.399145	-0.992869	0.503220
O41	O	-0.065812	-0.659535	0.836553
O42	O	0.267522	-0.326202	1.169886
O43	O	-0.507047	-1.235075	0.413098
O44	O	-0.173713	-0.901742	0.746431
O45	O	0.159620	-0.568409	1.079764
O46	O	-0.336235	-1.222891	0.650099
O47	O	-0.002902	-0.889558	0.983432
O48	O	0.330431	-0.556225	1.316766
O49	O	-0.409444	-1.120769	0.644880
O50	O	-0.076110	-0.787436	0.978214
O51	O	0.257223	-0.454103	1.311547
C52	C	-0.357425	-0.965303	0.450628
C53	C	-0.024091	-0.631970	0.783962
C54	C	0.309242	-0.298636	1.117295
C55	C	-0.353719	-0.872875	0.445948
C56	C	-0.020385	-0.539542	0.779282
C57	C	0.312948	-0.206208	1.112615
C58	C	-0.373944	-1.170307	0.677662
C59	C	-0.040611	-0.836974	1.010996
C60	C	0.292723	-0.503640	1.344329
C61	C	-0.377313	-1.165658	0.770092
C62	C	-0.043980	-0.832324	1.103426
C63	C	0.289353	-0.498991	1.436759
C64	C	-0.530314	-1.181394	0.461563
C65	C	-0.196981	-0.848061	0.794896
C66	C	0.136352	-0.514727	1.128230
C67	C	-0.600282	-1.181412	0.461541
C68	C	-0.266949	-0.848078	0.794874
C69	C	0.066384	-0.514745	1.128208
C70	C	-1.099960	-1.237407	0.410934
C71	C	-0.766627	-0.904074	0.744267
C72	C	-0.433294	-0.570740	1.077600
C73	C	-1.034218	-1.237399	0.410954
C74	C	-0.700885	-0.904066	0.744287
C75	C	-0.367551	-0.570733	1.077620
C76	C	-1.001121	-1.181489	0.461435
C77	C	-0.667788	-0.848156	0.794768
C78	C	-0.334454	-0.514823	1.128101
C79	C	-1.033772	-1.125597	0.511916
C80	C	-0.700439	-0.792263	0.845249
C81	C	-0.367106	-0.458930	1.178582
C82	C	-1.099513	-1.125611	0.511901
C83	C	-0.766180	-0.792278	0.845234
C84	C	-0.432847	-0.458945	1.178567
N85	N	-0.895199	-1.108350	0.464136
N86	N	-0.561866	-0.775017	0.797469
N87	N	-0.228532	-0.441684	1.130803
N88	N	-0.832747	-1.108339	0.464146
N89	N	-0.499414	-0.775006	0.797479
N90	N	-0.166081	-0.441672	1.130812
C91	C	-0.803046	-1.181443	0.461484
C92	C	-0.469713	-0.848110	0.794818
C93	C	-0.136380	-0.514776	1.128151
N94	N	-0.838155	-1.254561	0.458797
N95	N	-0.504822	-0.921228	0.792131
N96	N	-0.171488	-0.587894	1.125464
N97	N	-0.900612	-1.254572	0.458783
N98	N	-0.567279	-0.921238	0.792117
N99	N	-0.233946	-0.587905	1.125450
C100	C	-0.929835	-1.181468	0.461457
C101	C	-0.596502	-0.848134	0.794790
C102	C	-0.263169	-0.514801	1.128124
C103	C	-0.699118	-1.237328	0.411032
C104	C	-0.365785	-0.903994	0.744366
C105	C	-0.032451	-0.570661	1.077699
C106	C	-0.633375	-1.237321	0.411058
C107	C	-0.300042	-0.903988	0.744392
C108	C	0.033292	-0.570655	1.077725
C109	C	-0.632930	-1.125512	0.512016
C110	C	-0.299596	-0.792178	0.845349
C111	C	0.033737	-0.458845	1.178682
C112	C	-0.698672	-1.125525	0.511995
C113	C	-0.365339	-0.792192	0.845328
C114	C	-0.032005	-0.458858	1.178661
C115	C	-0.731762	-1.181432	0.461499
C116	C	-0.398429	-0.848099	0.794832
C117	C	-0.065095	-0.514766	1.128165
C118	C	-0.202573	-1.181363	0.461609
C119	C	0.130760	-0.848030	0.794942
C120	C	0.464094	-0.514696	1.128275
C121	C	-0.132603	-1.181519	0.461405
C122	C	0.200730	-0.848185	0.794738
C123	C	0.534063	-0.514852	1.128071
C124	C	-0.374859	-1.398247	0.472645
C125	C	-0.041525	-1.064913	0.805978
C126	C	0.291808	-0.731580	1.139311
C127	C	-0.378580	-1.490674	0.477345
C128	C	-0.045247	-1.157340	0.810678
C129	C	0.288086	-0.824007	1.144012
C130	C	-0.346957	-0.703648	0.437384
C131	C	-0.013624	-0.370315	0.770718
C132	C	0.319710	-0.036982	1.104051
C133	C	-0.385340	-0.659895	0.485906
C134	C	-0.052007	-0.326562	0.819240
C135	C	0.281327	0.006771	1.152573
C136	C	-0.381578	-0.565732	0.481141
C137	C	-0.048245	-0.232398	0.814475
C138	C	0.285089	0.100935	1.147808
C139	C	-0.350718	-0.797820	0.442148
C140	C	-0.017385	-0.464487	0.775482
C141	C	0.315948	-0.131154	1.108815
C142	C	-0.358289	-1.192465	0.244725
C143	C	-0.024956	-0.859132	0.578058
C144	C	0.308378	-0.525798	0.911391
C145	C	-0.354950	-1.197200	0.152299
C146	C	-0.021617	-0.863867	0.485632
C147	C	0.311717	-0.530533	0.818965
C148	C	-0.383478	-1.157174	0.939324
C149	C	-0.050145	-0.823840	1.272657
C150	C	0.283188	-0.490507	1.605990
C151	C	-0.348787	-1.205681	0.983073
C152	C	-0.015454	-0.872348	1.316406
C153	C	0.317880	-0.539015	1.649740
C154	C	-0.352217	-1.200961	1.077239
C155	C	-0.018884	-0.867628	1.410572
C156	C	0.314450	-0.534294	1.743906
C157	C	-0.380049	-1.161893	0.845149
C158	C	-0.046716	-0.828560	1.178482
C159	C	0.286618	-0.495226	1.511816
H160	H	-1.126898	-1.282934	0.369820
H161	H	-0.793565	-0.949601	0.703153
H162	H	-0.460232	-0.616268	1.036486
H163	H	-0.415751	-1.112103	0.972587
H164	H	-0.082418	-0.778770	1.305921
H165	H	0.250915	-0.445436	1.639254
H166	H	-0.311273	-0.670390	0.392269
H167	H	0.022060	-0.337056	0.725603
H168	H	0.355394	-0.003723	1.058936
C169	C	-0.734580	-1.064034	0.567508
C170	C	-0.401247	-0.730701	0.900841
C171	C	-0.067914	-0.397367	1.234174
N172	N	-0.761626	-1.017716	0.609323
N173	N	-0.428293	-0.684383	0.942656
N174	N	-0.094959	-0.351049	1.275990
C175	C	-0.998303	-1.298879	0.355425
C176	C	-0.664970	-0.965546	0.688759
C177	C	-0.331636	-0.632213	1.022092
N178	N	-0.971254	-1.345185	0.313599
N179	N	-0.637920	-1.011851	0.646932
N180	N	-0.304587	-0.678518	0.980266
H181	H	-1.006820	-1.080076	0.553019
H182	H	-0.673487	-0.746742	0.886353
H183	H	-0.340154	-0.413409	1.219686
C184	C	-0.433547	-0.704827	0.546867
C185	C	-0.100214	-0.371494	0.880200
C186	C	0.233120	-0.038160	1.213534
N187	N	-0.469853	-0.738673	0.592784
N188	N	-0.136519	-0.405340	0.926117
N189	N	0.196814	-0.072006	1.259450
H190	H	-0.726061	-1.282850	0.369915
H191	H	-0.392728	-0.949517	0.703248
H192	H	-0.059395	-0.616184	1.036582
C193	C	-0.305178	-1.266569	0.938134
C194	C	0.028155	-0.933235	1.271467
C195	C	0.361489	-0.599902	1.604800
N196	N	-0.272330	-1.312424	0.904281
N197	N	0.061003	-0.979090	1.237615
N198	N	0.394336	-0.645757	1.570948
H199	H	-1.126091	-1.080099	0.553001
H200	H	-0.792758	-0.746766	0.886335
H201	H	-0.459425	-0.413432	1.219668
H202	H	-0.606798	-1.282838	0.369961
H203	H	-0.273465	-0.949505	0.703295
H204	H	0.059868	-0.616171	1.036628
H205	H	-0.605983	-1.079991	0.553122
H206	H	-0.272650	-0.746658	0.886455
H207	H	0.060684	-0.413325	1.219788
