data_functionalizedCrystal
_audit_creation_method	'MofGen! by Chris Wilmer'
_symmetry_space_group_name_H-M	'P1'
_symmetry_Int_Tables_number	1
_symmetry_cell_setting	triclinic
loop_
_symmetry_equiv_pos_as_xyz
  x,y,z
_cell_length_a	10.489716
_cell_length_b	14.044220
_cell_length_c	12.503572
_cell_angle_alpha	86.150791
_cell_angle_beta	86.443252
_cell_angle_gamma	91.140993
loop_
_atom_site_label
_atom_site_type_symbol
_atom_site_fract_x
_atom_site_fract_y
_atom_site_fract_z
O1	O	1.700878	-0.139155	0.089316
O2	O	2.200878	0.360845	0.589316
O3	O	1.330954	-0.151742	0.089320
O4	O	1.830954	0.348258	0.589320
O5	O	1.510364	-0.007426	0.089308
O6	O	2.010364	0.492574	0.589308
O7	O	1.521468	-0.283471	0.089329
O8	O	2.021468	0.216529	0.589329
O9	O	1.523862	0.003441	-0.089335
O10	O	2.023862	0.503441	0.410665
O11	O	1.344452	-0.140875	-0.089322
O12	O	1.844452	0.359125	0.410678
O13	O	1.714375	-0.128288	-0.089327
O14	O	2.214375	0.371712	0.410673
Cu15	Cu	1.530646	-0.133589	-0.105636
Cu16	Cu	2.030646	0.366411	0.394364
Cu17	Cu	1.514684	-0.146441	0.105630
Cu18	Cu	2.014684	0.353559	0.605630
O19	O	1.534965	-0.272604	-0.089314
O20	O	2.034965	0.227396	0.410686
C21	C	1.290075	-0.145363	-0.000001
C22	C	1.790075	0.354637	0.499999
C23	C	1.148157	-0.142533	0.000001
C24	C	1.648157	0.357467	0.500001
C25	C	1.059459	-0.231033	0.000010
C26	C	1.559459	0.268967	0.500010
C27	C	0.984025	-0.178910	-0.088079
C28	C	1.484025	0.321090	0.411921
C29	C	0.970722	-0.189603	0.088049
C30	C	1.470722	0.310397	0.588049
C31	C	1.074598	-0.090443	-0.088161
C32	C	1.574598	0.409557	0.411839
C33	C	1.061296	-0.101154	0.088046
C34	C	1.561296	0.398846	0.588046
C35	C	0.985907	-0.048964	-0.000064
C36	C	1.485907	0.451036	0.499936
C37	C	1.512252	0.033355	-0.000014
C38	C	2.012252	0.533355	0.499986
C39	C	1.497753	0.138679	-0.000015
C40	C	1.997753	0.638679	0.499985
C41	C	1.755255	-0.134667	-0.000003
C42	C	2.255255	0.365333	0.499997
C43	C	1.897172	-0.137497	0.000002
C44	C	2.397172	0.362503	0.500002
N45	N	1.503457	-0.155473	0.254223
N46	N	2.003457	0.344527	0.754223
C47	C	1.533078	-0.313385	0.000010
C48	C	2.033078	0.186615	0.500010
C49	C	1.547577	-0.418709	0.000018
C50	C	2.047577	0.081291	0.500018
C51	C	1.471243	0.331519	0.000000
C52	C	1.971243	0.831519	0.500000
C53	C	1.574081	0.388457	0.000003
C54	C	2.074081	0.888457	0.500003
C55	C	1.559330	0.495759	0.000011
C56	C	2.059330	0.995759	0.500011
C57	C	1.485991	0.224206	-0.000008
C58	C	1.985991	0.724206	0.499992
N59	N	1.541883	-0.124550	-0.254229
N60	N	2.041883	0.375450	0.245771
C61	C	1.486930	-0.168759	0.473339
C62	C	1.986930	0.331241	0.973339
C63	C	1.558405	-0.111267	0.526661
C64	C	2.058405	0.388733	1.026661
C65	C	1.549209	-0.118659	0.648585
C66	C	2.049209	0.381341	1.148585
C67	C	1.496124	-0.161367	0.351404
C68	C	1.996124	0.338633	0.851404
H69	H	1.091941	-0.308009	-0.000066
H70	H	1.591941	0.191991	0.499934
Br71	Br	0.895184	-0.259447	0.212155
Br72	Br	1.395184	0.240553	0.712155
H73	H	1.372130	0.363358	0.000004
H74	H	1.872130	0.863358	0.500004
H75	H	1.418837	-0.223528	0.519252
H76	H	1.918837	0.276472	1.019252
H77	H	1.626501	-0.056493	0.480744
H78	H	2.126501	0.443507	0.980744
H79	H	0.949958	-0.211739	-0.162544
H80	H	1.449958	0.288261	0.337456
H81	H	1.119760	-0.048571	-0.162706
H82	H	1.619760	0.451429	0.337294
H83	H	0.953667	0.028076	-0.000121
H84	H	1.453667	0.528076	0.499879
Br85	Br	1.739290	0.335392	-0.000009
Br86	Br	2.239290	0.835392	0.499991
Br87	Br	1.118128	-0.046493	0.212167
Br88	Br	1.618128	0.453507	0.712167
