data_functionalizedCrystal
_audit_creation_method	'MofGen! by Chris Wilmer'
_symmetry_space_group_name_H-M	'P1'
_symmetry_Int_Tables_number	1
_symmetry_cell_setting	triclinic
loop_
_symmetry_equiv_pos_as_xyz
  x,y,z
_cell_length_a	16.959455
_cell_length_b	16.625546
_cell_length_c	16.959447
_cell_angle_alpha	89.967702
_cell_angle_beta	89.983056
_cell_angle_gamma	90.019415
loop_
_atom_site_label
_atom_site_type_symbol
_atom_site_fract_x
_atom_site_fract_y
_atom_site_fract_z
Zn1	Zn	1.208391	-0.321051	-0.446898
Zn2	Zn	1.208302	-0.455898	-0.314715
Zn3	Zn	1.076213	-0.321076	-0.314736
Zn4	Zn	1.076179	-0.455838	-0.446854
O5	O	1.142271	-0.388466	-0.380801
O6	O	1.318990	-0.338953	-0.429374
O7	O	1.190757	-0.438050	-0.204107
O8	O	1.093799	-0.208240	-0.332295
O9	O	1.318925	-0.438025	-0.332260
O10	O	1.190909	-0.208222	-0.429394
O11	O	1.093713	-0.338997	-0.204122
O12	O	0.965598	-0.338938	-0.332252
O13	O	1.093740	-0.437922	-0.557471
O14	O	0.965572	-0.437947	-0.429318
O15	O	1.190876	-0.338895	-0.557503
O16	O	1.190724	-0.568723	-0.332217
O17	O	1.093653	-0.568678	-0.429298
C18	C	0.936905	-0.388439	-0.380783
C19	C	0.849048	-0.388447	-0.380794
C20	C	0.477562	-0.336870	-0.330364
C21	C	0.477584	-0.440128	-0.431283
C22	C	0.560130	-0.440117	-0.431278
C23	C	0.601395	-0.388482	-0.380815
C24	C	0.560115	-0.336858	-0.330356
C25	C	0.601416	-0.491745	-0.481731
C26	C	0.683967	-0.491736	-0.481727
C27	C	0.725234	-0.440096	-0.431267
C28	C	0.683949	-0.388470	-0.380807
C29	C	0.725215	-0.336835	-0.330343
C30	C	0.683931	-0.285204	-0.279886
C31	C	0.601382	-0.285219	-0.279895
C32	C	0.807783	-0.440082	-0.431257
C33	C	0.807768	-0.336824	-0.330335
C34	C	1.142196	-0.597957	-0.380768
C35	C	1.142237	-0.687578	-0.380780
C36	C	1.142375	-1.015753	-0.380862
C37	C	1.142334	-0.924445	-0.380842
C38	C	1.142305	-0.851668	-0.380821
C39	C	1.142265	-0.760354	-0.380801
C40	C	1.348439	-0.388493	-0.380819
C41	C	1.436296	-0.388505	-0.380827
C42	C	1.142314	-0.388399	-0.586969
C43	C	1.142332	-0.388370	-0.674826
C44	C	1.142368	-0.178157	-0.380851
C45	C	1.142409	-0.088536	-0.380873
C46	C	1.091875	-0.336713	-1.046316
C47	C	1.192928	-0.439858	-1.046288
C48	C	1.192914	-0.439877	-0.963742
C49	C	1.142379	-0.388314	-0.922479
C50	C	1.091858	-0.336732	-0.963762
C51	C	1.243429	-0.491463	-0.922452
C52	C	1.243417	-0.491485	-0.839901
C53	C	1.192885	-0.439917	-0.798637
C54	C	1.142362	-0.388332	-0.839925
C55	C	1.091827	-0.336769	-0.798663
C56	C	1.041307	-0.285180	-0.839949
C57	C	1.041326	-0.285164	-0.922498
C58	C	1.192867	-0.439933	-0.716089
C59	C	1.091810	-0.336788	-0.716109
C60	C	1.142275	-0.388474	-0.175435
C61	C	1.142410	-0.388276	-0.087578
H62	H	0.443980	-0.482172	-0.472364
C63	C	0.853192	-0.496868	-0.486753
H64	H	0.816792	-0.527620	-0.516809
H65	H	0.885378	-0.531954	-0.456451
H66	H	0.885410	-0.466059	-0.521250
H67	H	0.841361	-0.294771	-0.289245
C68	C	0.729372	-0.548519	-0.537233
H69	H	0.692972	-0.579267	-0.567292
H70	H	0.761561	-0.583608	-0.506938
H71	H	0.761588	-0.517704	-0.571728
C72	C	0.729328	-0.228409	-0.224380
H73	H	0.784403	-0.235799	-0.231607
H74	H	0.715778	-0.240138	-0.171251
H75	H	0.715822	-0.174246	-0.236053
C76	C	0.556025	-0.548538	-0.537235
H77	H	0.500949	-0.541142	-0.530019
H78	H	0.569532	-0.602698	-0.525571
H79	H	0.569578	-0.536798	-0.590366
H80	H	1.050661	-0.294795	-0.682519
H81	H	1.000158	-0.243201	-0.806343
H82	H	1.284552	-0.533493	-0.806292
C83	C	0.985759	-0.228425	-0.967914
H84	H	0.993003	-0.235805	-1.022986
H85	H	0.997349	-0.174253	-0.954408
H86	H	0.932639	-0.240224	-0.954377
H87	H	1.050745	-0.294708	-1.079935
C88	C	1.299012	-0.548178	-0.967840
H89	H	1.291792	-0.540770	-1.022916
H90	H	1.287416	-0.602355	-0.954298
H91	H	1.352126	-0.536384	-0.954320
C92	C	1.248512	-0.496572	-1.091674
H93	H	1.241289	-0.489170	-1.146750
H94	H	1.236921	-0.550750	-1.078126
H95	H	1.301626	-0.484774	-1.078157
H96	H	0.443945	-0.294831	-0.289285
H97	H	1.234004	-0.481931	-0.682477
H98	H	0.567762	-0.243184	-0.238815
