data_functionalizedCrystal
_audit_creation_method	'MofGen! by Chris Wilmer'
_symmetry_space_group_name_H-M	'P1'
_symmetry_Int_Tables_number	1
_symmetry_cell_setting	triclinic
loop_
_symmetry_equiv_pos_as_xyz
  x,y,z
_cell_length_a	10.489741
_cell_length_b	26.210047
_cell_length_c	10.489711
_cell_angle_alpha	90.000779
_cell_angle_beta	84.533091
_cell_angle_gamma	90.013751
loop_
_atom_site_label
_atom_site_type_symbol
_atom_site_fract_x
_atom_site_fract_y
_atom_site_fract_z
O1	O	1.694057	0.042393	0.179968
O2	O	1.322859	0.042400	0.196861
O3	O	1.516924	0.042398	0.002814
O4	O	1.499992	0.042395	0.374014
O5	O	1.516863	-0.042460	0.002813
O6	O	1.322798	-0.042458	0.196860
O7	O	1.693995	-0.042465	0.179967
Cu8	Cu	1.508391	-0.050210	0.188413
Cu9	Cu	1.508464	0.050145	0.188414
O10	O	1.499930	-0.042463	0.374013
C11	C	1.275297	-0.000028	0.195584
C12	C	1.133668	-0.000025	0.191767
N13	N	1.508349	-0.120794	0.188412
C14	C	1.065541	-0.000029	0.068301
C15	C	0.973438	0.041809	0.126626
C16	C	0.973412	-0.041854	0.126654
C17	C	1.043431	0.041848	0.250143
C18	C	1.043413	-0.041853	0.250154
C19	C	0.951338	-0.000005	0.308568
C20	C	1.586514	-0.473310	0.266523
C21	C	1.586552	-0.686969	0.266522
O22	O	1.652981	-0.714592	0.332920
N23	N	1.508494	-0.713688	0.188402
C24	C	1.430427	-0.686989	0.110270
O25	O	1.364045	-0.714617	0.043814
C26	C	1.430397	-0.473331	0.110264
C27	C	1.508451	-0.446615	0.188399
C28	C	1.664562	-0.446594	0.344650
C29	C	1.664547	-0.393182	0.344655
C30	C	1.586483	-0.366487	0.266532
C31	C	1.508435	-0.393203	0.188404
C32	C	1.352338	-0.446633	0.032126
C33	C	1.352340	-0.393215	0.032129
C34	C	1.430393	-0.366499	0.110265
C35	C	1.430356	-0.313097	0.110285
N36	N	1.508414	-0.286378	0.188406
C37	C	1.586478	-0.313073	0.266529
C38	C	1.430447	-0.799162	0.110280
C39	C	1.430452	-0.852576	0.110283
C40	C	1.586579	-0.852552	0.266534
C41	C	1.586566	-0.799137	0.266537
C42	C	1.508505	-0.772443	0.188400
C43	C	1.586438	-0.200905	0.266533
C44	C	1.586412	-0.147489	0.266535
C45	C	1.430291	-0.147517	0.110279
C46	C	1.430312	-0.200929	0.110282
C47	C	1.508396	-0.227621	0.188413
O48	O	1.363972	-0.285440	0.043911
O49	O	1.652871	-0.285435	0.332954
C50	C	1.586529	-0.526721	0.266518
C51	C	1.508481	-0.553438	0.188390
C52	C	1.430418	-0.526742	0.110267
C53	C	1.508487	-0.606852	0.188393
C54	C	1.586550	-0.633547	0.266516
C55	C	1.664608	-0.606828	0.344637
C56	C	1.664593	-0.553417	0.344641
C57	C	1.352360	-0.553461	0.032147
C58	C	1.352381	-0.606873	0.032150
C59	C	1.430444	-0.633568	0.110273
C60	C	1.741558	-0.000036	0.181243
C61	C	1.883187	-0.000036	0.185060
C62	C	1.515623	-0.000030	-0.044719
C63	C	1.511821	-0.000025	-0.186350
N64	N	1.508516	0.120729	0.188406
C65	C	1.628525	-0.000033	-0.368737
C66	C	1.570199	-0.041871	-0.276593
C67	C	1.570229	0.041793	-0.276616
C68	C	1.446656	-0.041907	-0.346544
C69	C	1.446703	0.041794	-0.346577
C70	C	1.388288	-0.000055	-0.254461
C71	C	1.501232	-0.000034	0.421546
C72	C	1.505034	-0.000035	0.563178
H73	H	1.115242	0.000024	-0.033196
C74	C	0.932212	0.088930	0.056735
C75	C	0.990527	0.088734	-0.069012
C76	C	0.952572	0.132127	-0.133445
H77	H	0.957333	0.118679	0.099624
H78	H	0.841778	0.088743	0.055417
H79	H	1.080941	0.088925	-0.067688
H80	H	0.965413	0.058995	-0.111935
H81	H	0.862138	0.131941	-0.134763
H82	H	0.977695	0.161873	-0.090546
H83	H	0.992123	0.131998	-0.218774
H84	H	1.074279	0.077259	0.302344
H85	H	1.366878	-0.874324	0.046672
C86	C	1.763886	-0.000194	-0.434940
C87	C	1.827920	-0.044106	-0.399681
C88	C	1.952606	-0.044277	-0.460657
H89	H	1.808377	0.029193	-0.410044
H90	H	1.760534	0.000081	-0.525127
H91	H	1.831278	-0.044376	-0.309513
H92	H	1.783468	-0.073499	-0.424578
H93	H	1.949254	-0.044002	-0.550844
H94	H	1.997085	-0.014889	-0.435756
H95	H	1.996065	-0.074073	-0.436751
H96	H	0.901903	0.000017	0.410173
H97	H	1.288792	-0.531732	-0.031474
H98	H	1.728152	-0.531669	0.408267
H99	H	1.650123	-0.777388	0.330162
C100	C	1.639691	-0.089098	-0.235426
C101	C	1.575976	-0.132805	-0.272599
C102	C	1.639973	-0.176318	-0.234720
H103	H	1.640987	-0.088984	-0.145005
H104	H	1.725030	-0.089084	-0.274962
H105	H	1.490659	-0.132819	-0.233059
H106	H	1.574678	-0.132936	-0.363015
H107	H	1.725312	-0.176303	-0.274256
H108	H	1.641265	-0.176198	-0.144299
H109	H	1.596758	-0.205978	-0.259946
H110	H	1.394519	0.077168	-0.377596
H111	H	1.288773	-0.371484	-0.031501
C112	C	1.084744	-0.089080	0.319534
C113	C	1.049675	-0.132772	0.254460
C114	C	1.087748	-0.176291	0.318313
H115	H	1.044091	-0.089454	0.404411
H116	H	1.175027	-0.088592	0.322094
H117	H	0.959410	-0.133260	0.251914
H118	H	1.090325	-0.132415	0.169587
H119	H	1.178031	-0.175803	0.320873
H120	H	1.047092	-0.176660	0.403188
H121	H	1.063970	-0.205941	0.274163
H122	H	1.286696	-0.000076	-0.204995
C123	C	1.639753	0.088974	-0.235133
C124	C	1.556549	0.117919	-0.151558
C125	C	1.620564	0.161379	-0.113309
H126	H	1.667551	0.108862	-0.308248
H127	H	1.711815	0.078931	-0.192738
H128	H	1.484511	0.127963	-0.193954
H129	H	1.528747	0.098046	-0.078424
H130	H	1.692626	0.151335	-0.070914
H131	H	1.648360	0.181263	-0.186431
H132	H	1.564124	0.181021	-0.056591
C133	C	1.749493	-0.475597	0.429261
C134	C	1.835217	-0.506245	0.352780
C135	C	1.913484	-0.532960	0.430690
H136	H	1.697907	-0.496479	0.487485
H137	H	1.796043	-0.452044	0.475755
H138	H	1.788671	-0.529795	0.306307
H139	H	1.886831	-0.485375	0.294558
H140	H	1.960035	-0.509407	0.477183
H141	H	1.861888	-0.553839	0.488910
H142	H	1.971665	-0.553754	0.378808
H143	H	1.366730	-0.125772	0.046677
C144	C	0.932275	-0.089000	0.056774
C145	C	0.990651	-0.088800	-0.068949
C146	C	0.952803	-0.132223	-0.133365
H147	H	0.841864	-0.088869	0.055387
H148	H	0.957438	-0.118726	0.099741
H149	H	0.965481	-0.059082	-0.111905
H150	H	1.081061	-0.088939	-0.067600
H151	H	0.977966	-0.161949	-0.090397
H152	H	0.862393	-0.132088	-0.134742
H153	H	0.992415	-0.132096	-0.218670
H154	H	1.394421	-0.077318	-0.377354
H155	H	1.649972	-0.125739	0.330168
H156	H	1.650022	-0.222632	0.330154
H157	H	1.728111	-0.371435	0.408275
H158	H	1.366739	-0.222682	0.046674
C159	C	1.671555	-0.881476	0.351264
C160	C	1.799765	-0.868460	0.317336
C161	C	1.878084	-0.895091	0.395359
H162	H	1.660546	-0.917120	0.340142
H163	H	1.648733	-0.872716	0.438336
H164	H	1.822581	-0.877223	0.230285
H165	H	1.810815	-0.832820	0.328464
H166	H	1.855261	-0.886331	0.482431
H167	H	1.867063	-0.930734	0.384231
H168	H	1.965081	-0.886260	0.372358
H169	H	1.288780	-0.468376	-0.031502
C170	C	1.345541	-0.770276	0.025406
C171	C	1.277165	-0.805114	-0.042970
C172	C	1.198919	-0.778526	-0.121150
H173	H	1.397130	-0.749432	-0.032908
H174	H	1.287235	-0.749457	0.077080
H175	H	1.335463	-0.825924	-0.094640
H176	H	1.225551	-0.825960	0.015311
H177	H	1.140614	-0.757707	-0.069477
H178	H	1.250518	-0.757683	-0.179456
H179	H	1.152508	-0.802160	-0.167544
H180	H	1.728164	-0.628573	0.408254
H181	H	1.288808	-0.628621	-0.031475
