data_functionalizedCrystal
_audit_creation_method	'MofGen! by Chris Wilmer'
_symmetry_space_group_name_H-M	'P1'
_symmetry_Int_Tables_number	1
_symmetry_cell_setting	triclinic
loop_
_symmetry_equiv_pos_as_xyz
  x,y,z
_cell_length_a	21.295417
_cell_length_b	18.050591
_cell_length_c	18.050583
_cell_angle_alpha	90.022021
_cell_angle_beta	89.959541
_cell_angle_gamma	89.973488
loop_
_atom_site_label
_atom_site_type_symbol
_atom_site_fract_x
_atom_site_fract_y
_atom_site_fract_z
Zn1	Zn	-0.250631	-1.135289	-0.420010
Zn2	Zn	0.082702	-0.801955	-0.086677
Zn3	Zn	0.416036	-0.468622	0.246657
Zn4	Zn	-0.355917	-1.135192	-0.295811
Zn5	Zn	-0.022584	-0.801859	0.037523
Zn6	Zn	0.310749	-0.468525	0.370856
Zn7	Zn	-0.250659	-1.011106	-0.295821
Zn8	Zn	0.082675	-0.677772	0.037512
Zn9	Zn	0.416008	-0.344439	0.370846
Zn10	Zn	-0.355859	-1.011051	-0.419946
Zn11	Zn	-0.022526	-0.677718	-0.086613
Zn12	Zn	0.310808	-0.344384	0.246720
O13	O	-0.303267	-1.073159	-0.357897
O14	O	0.030067	-0.739826	-0.024564
O15	O	0.363400	-0.406493	0.308770
O16	O	-0.264610	-1.239201	-0.403557
O17	O	0.068723	-0.905867	-0.070224
O18	O	0.402056	-0.572534	0.263110
O19	O	-0.341991	-1.118714	-0.191887
O20	O	-0.008657	-0.785381	0.141446
O21	O	0.324676	-0.452048	0.474779
O22	O	-0.162566	-1.027642	-0.312326
O23	O	0.170768	-0.694309	0.021008
O24	O	0.504101	-0.360975	0.354341
O25	O	-0.341964	-1.239130	-0.312308
O26	O	-0.008631	-0.905796	0.021025
O27	O	0.324703	-0.572463	0.354358
O28	O	-0.162545	-1.118879	-0.403567
O29	O	0.170788	-0.785546	-0.070233
O30	O	0.504121	-0.452212	0.263100
O31	O	-0.264658	-1.027548	-0.191895
O32	O	0.068676	-0.694215	0.141438
O33	O	0.402009	-0.360882	0.474772
O34	O	-0.264601	-0.907174	-0.312264
O35	O	0.068732	-0.573840	0.021069
O36	O	0.402066	-0.240507	0.354403
O37	O	-0.341864	-1.027549	-0.523879
O38	O	-0.008531	-0.694216	-0.190546
O39	O	0.324802	-0.360882	0.142787
O40	O	-0.341891	-0.907134	-0.403458
O41	O	-0.008558	-0.573800	-0.070125
O42	O	0.324776	-0.240467	0.263208
O43	O	-0.264554	-1.118826	-0.523926
O44	O	0.068780	-0.785493	-0.190593
O45	O	0.402113	-0.452159	0.142741
O46	O	-0.443999	-1.118661	-0.312247
O47	O	-0.110666	-0.785328	0.021087
O48	O	0.222668	-0.451995	0.354420
O49	O	-0.443956	-1.027455	-0.403449
O50	O	-0.110623	-0.694122	-0.070115
O51	O	0.222710	-0.360789	0.263218
C52	C	-0.303243	-0.880207	-0.357856
C53	C	0.030090	-0.546874	-0.024523
C54	C	0.363423	-0.213541	0.308811
C55	C	-0.303248	-0.797662	-0.357856
C56	C	0.030085	-0.464328	-0.024523
C57	C	0.363418	-0.130995	0.308811
C58	C	-0.466818	-1.073062	-0.357856
C59	C	-0.133485	-0.739729	-0.024522
C60	C	0.199848	-0.406395	0.308811
C61	C	-0.536786	-1.073088	-0.357863
C62	C	-0.203453	-0.739755	-0.024530
C63	C	0.129880	-0.406422	0.308804
C64	C	-0.303199	-1.073192	-0.551603
C65	C	0.030134	-0.739859	-0.218269
C66	C	0.363467	-0.406526	0.115064
C67	C	-0.303171	-1.073206	-0.634148
C68	C	0.030163	-0.739873	-0.300815
C69	C	0.363496	-0.406540	0.032518
C70	C	-0.569654	-1.120621	-0.310423
C71	C	-0.236321	-0.787288	0.022910
C72	C	0.097012	-0.453955	0.356244
C73	C	-0.635397	-1.120656	-0.310440
C74	C	-0.302064	-0.787323	0.022894
C75	C	0.031270	-0.453990	0.356227
C76	C	-0.668269	-1.073145	-0.357889
C77	C	-0.334936	-0.739811	-0.024555
C78	C	-0.001602	-0.406478	0.308778
C79	C	-0.635393	-1.025608	-0.405338
C80	C	-0.302059	-0.692275	-0.072005
C81	C	0.031274	-0.358942	0.261329
C82	C	-0.569652	-1.025580	-0.405325
C83	C	-0.236318	-0.692247	-0.071992
C84	C	0.097015	-0.358913	0.261341
N85	N	-0.771530	-1.008178	-0.363536
N86	N	-0.438197	-0.674844	-0.030203
N87	N	-0.104863	-0.341511	0.303130
N88	N	-0.833981	-1.008207	-0.363544
N89	N	-0.500648	-0.674873	-0.030211
N90	N	-0.167315	-0.341540	0.303122
C91	C	-0.866344	-1.073228	-0.357931
C92	C	-0.533010	-0.739895	-0.024598
C93	C	-0.199677	-0.406561	0.308735
N94	N	-0.833895	-1.138221	-0.352296
N95	N	-0.500562	-0.804887	-0.018962
N96	N	-0.167228	-0.471554	0.314371
N97	N	-0.771438	-1.138191	-0.352284
N98	N	-0.438104	-0.804857	-0.018951
N99	N	-0.104771	-0.471524	0.314383
C100	C	-0.739554	-1.073170	-0.357908
C101	C	-0.406221	-0.739837	-0.024575
C102	C	-0.072888	-0.406504	0.308758
C103	C	-0.970497	-1.120803	-0.310507
C104	C	-0.637164	-0.787469	0.022827
C105	C	-0.303830	-0.454136	0.356160
C106	C	-1.036241	-1.120839	-0.310529
C107	C	-0.702907	-0.787505	0.022805
C108	C	-0.369574	-0.454172	0.356138
C109	C	-1.036235	-1.025784	-0.405423
C110	C	-0.702902	-0.692451	-0.072090
C111	C	-0.369569	-0.359117	0.261244
C112	C	-0.970493	-1.025755	-0.405405
C113	C	-0.637160	-0.692421	-0.072072
C114	C	-0.303826	-0.359088	0.261262
C115	C	-0.937628	-1.073263	-0.357943
C116	C	-0.604294	-0.739930	-0.024610
C117	C	-0.270961	-0.406596	0.308724
C118	C	-0.139076	-1.073277	-0.357955
C119	C	0.194257	-0.739944	-0.024621
C120	C	0.527590	-0.406611	0.308712
C121	C	-0.069108	-1.073328	-0.357979
C122	C	0.264225	-0.739994	-0.024646
C123	C	0.597558	-0.406661	0.308688
C124	C	-0.303291	-1.266865	-0.357939
C125	C	0.030043	-0.933532	-0.024605
C126	C	0.363376	-0.600198	0.308728
C127	C	-0.303301	-1.349411	-0.357956
C128	C	0.030033	-1.016077	-0.024623
C129	C	0.363366	-0.682744	0.308710
C130	C	-0.261169	-0.598211	-0.308379
C131	C	0.072164	-0.264878	0.024955
C132	C	0.405498	0.068456	0.358288
C133	C	-0.318588	-0.548788	-0.290098
C134	C	0.014746	-0.215455	0.043236
C135	C	0.348079	0.117878	0.376569
C136	C	-0.303267	-0.646531	-0.357889
C137	C	0.030066	-0.313198	-0.024556
C138	C	0.363399	0.020136	0.308777
C139	C	-0.245869	-0.548872	-0.376169
C140	C	0.087465	-0.215539	-0.042835
C141	C	0.420798	0.117794	0.290498
C142	C	-0.303281	-0.500546	-0.357921
C143	C	0.030053	-0.167213	-0.024587
C144	C	0.363386	0.166121	0.308746
C145	C	-0.360716	-0.598196	-0.339573
C146	C	-0.027383	-0.264862	-0.006240
C147	C	0.305951	0.068471	0.327094
C148	C	-0.287959	-0.598284	-0.425676
C149	C	0.045375	-0.264950	-0.092342
C150	C	0.378708	0.068383	0.240991
C151	C	-0.345417	-0.548883	-0.407420
C152	C	-0.012083	-0.215550	-0.074087
C153	C	0.321250	0.117783	0.259246
C154	C	-0.303259	-0.730629	-0.357870
C155	C	0.030074	-0.397296	-0.024536
C156	C	0.363408	-0.063963	0.308797
C157	C	-0.303296	-0.416450	-0.357940
C158	C	0.030038	-0.083116	-0.024607
C159	C	0.363371	0.250217	0.308726
C160	C	-0.261109	-1.122892	-0.833625
C161	C	0.072224	-0.789559	-0.500291
C162	C	0.405558	-0.456226	-0.166958
C163	C	-0.245698	-1.055159	-0.883014
C164	C	0.087635	-0.721826	-0.549680
C165	C	0.420968	-0.388493	-0.216347
C166	C	-0.303160	-1.073236	-0.785279
C167	C	0.030173	-0.739903	-0.451946
C168	C	0.363507	-0.406569	-0.118612
C169	C	-0.318531	-1.140996	-0.882972
C170	C	0.014803	-0.807663	-0.549638
C171	C	0.348136	-0.474330	-0.216305
C172	C	-0.303148	-1.073271	-0.931264
C173	C	0.030185	-0.739937	-0.597931
C174	C	0.363518	-0.406604	-0.264597
C175	C	-0.287720	-1.005467	-0.833581
C176	C	0.045614	-0.672134	-0.500247
C177	C	0.378947	-0.338800	-0.166914
C178	C	-0.360579	-1.091350	-0.833534
C179	C	-0.027245	-0.758016	-0.500201
C180	C	0.306088	-0.424683	-0.166868
C181	C	-0.345190	-1.023570	-0.882901
C182	C	-0.011857	-0.690237	-0.549568
C183	C	0.321477	-0.356903	-0.216234
C184	C	-0.303165	-1.073217	-0.701181
C185	C	0.030168	-0.739884	-0.367847
C186	C	0.363502	-0.406550	-0.034514
C187	C	-0.303143	-1.073282	-1.015361
C188	C	0.030190	-0.739949	-0.682027
C189	C	0.363523	-0.406615	-0.348694
C190	C	-0.303288	-1.073169	-0.164945
C191	C	0.030045	-0.739836	0.168388
C192	C	0.363379	-0.406503	0.501722
C193	C	-0.303139	-1.073299	-0.082399
C194	C	0.030194	-0.739966	0.250934
C195	C	0.363527	-0.406633	0.584267
H196	H	-0.542897	-1.159307	-0.271778
H197	H	-0.209564	-0.825974	0.061555
H198	H	0.123769	-0.492641	0.394888
H199	H	-0.331546	-0.527049	-0.232786
H200	H	0.001787	-0.193716	0.100548
H201	H	0.335121	0.139618	0.433881
H202	H	-0.409277	-0.619771	-0.324062
H203	H	-0.075944	-0.286438	0.009271
H204	H	0.257389	0.046895	0.342605
Br205	Br	-0.925890	-1.185274	-0.246093
Br206	Br	-0.592557	-0.851941	0.087240
Br207	Br	-0.259224	-0.518607	0.420573
H208	H	-1.063001	-1.159551	-0.271899
H209	H	-0.729668	-0.826217	0.061435
H210	H	-0.396334	-0.492884	0.394768
H211	H	-0.331535	-1.198285	-0.904670
H212	H	0.001798	-0.864952	-0.571336
H213	H	0.335132	-0.531619	-0.238003
H214	H	-0.381065	-0.527361	-0.449303
H215	H	-0.047731	-0.194028	-0.115970
H216	H	0.285602	0.139306	0.217364
H217	H	-0.380746	-0.981544	-0.904402
H218	H	-0.047413	-0.648210	-0.571068
H219	H	0.285921	-0.314877	-0.237735
H220	H	-0.274983	-0.620041	-0.482970
H221	H	0.058351	-0.286708	-0.149637
H222	H	0.391684	0.046626	0.183696
Br223	Br	-0.680014	-1.185170	-0.246052
Br224	Br	-0.346680	-0.851837	0.087281
Br225	Br	-0.013347	-0.518504	0.420614
Br226	Br	-1.080840	-0.961310	-0.469827
Br227	Br	-0.747507	-0.627977	-0.136494
Br228	Br	-0.414173	-0.294644	0.196839
Br229	Br	-0.164957	-0.512751	-0.401913
Br230	Br	0.168377	-0.179418	-0.068580
Br231	Br	0.501710	0.153916	0.264753
Br232	Br	-0.201894	-0.634313	-0.238523
Br233	Br	0.131440	-0.300980	0.094811
Br234	Br	0.464773	0.032354	0.428144
H235	H	-0.225525	-1.164816	-0.811985
H236	H	0.107808	-0.831483	-0.478652
H237	H	0.441141	-0.498150	-0.145318
H238	H	-0.409128	-1.106680	-0.811786
H239	H	-0.075795	-0.773347	-0.478453
H240	H	0.257539	-0.440013	-0.145119
H241	H	-0.274658	-0.948161	-0.811976
H242	H	0.058676	-0.614828	-0.478643
H243	H	0.392009	-0.281495	-0.145310
H244	H	-0.197136	-1.039849	-0.904748
H245	H	0.136198	-0.706516	-0.571414
H246	H	0.469531	-0.373183	-0.238081
H247	H	-0.662161	-0.986925	-0.443973
H248	H	-0.328828	-0.653592	-0.110639
H249	H	0.004505	-0.320259	0.222694
Br250	Br	-0.525042	-0.961067	-0.469714
Br251	Br	-0.191708	-0.627733	-0.136381
Br252	Br	0.141625	-0.294400	0.196952
H253	H	-0.943730	-0.987046	-0.444032
H254	H	-0.610397	-0.653712	-0.110699
H255	H	-0.277063	-0.320379	0.222634
