data_functionalizedCrystal
_audit_creation_method	'MofGen! by Chris Wilmer'
_symmetry_space_group_name_H-M	'P1'
_symmetry_Int_Tables_number	1
_symmetry_cell_setting	triclinic
loop_
_symmetry_equiv_pos_as_xyz
  x,y,z
_cell_length_a	8.597227
_cell_length_b	8.559649
_cell_length_c	7.088929
_cell_angle_alpha	95.344185
_cell_angle_beta	91.337881
_cell_angle_gamma	77.621968
loop_
_atom_site_label
_atom_site_type_symbol
_atom_site_fract_x
_atom_site_fract_y
_atom_site_fract_z
O1	O	-1.998356	-0.287518	-0.488205
O2	O	-1.498356	0.212482	0.011795
O3	O	-1.547641	-0.298261	-0.413953
O4	O	-1.047641	0.201739	0.086047
O5	O	-1.812707	-0.061581	-0.457618
O6	O	-1.312707	0.438419	0.042382
O7	O	-1.733290	-0.524197	-0.444539
O8	O	-1.233290	-0.024197	0.055461
O9	O	-1.848139	-0.029878	-0.145480
O10	O	-1.348139	0.470122	0.354520
O11	O	-1.583074	-0.266557	-0.101814
O12	O	-1.083074	0.233443	0.398186
O13	O	-2.033788	-0.255814	-0.176066
O14	O	-1.533788	0.244186	0.323934
Cu15	Cu	-1.811666	-0.258291	-0.110440
Cu16	Cu	-1.311666	0.241709	0.389560
Cu17	Cu	-1.769763	-0.295784	-0.479579
Cu18	Cu	-1.269763	0.204216	0.020421
O19	O	-1.768722	-0.492493	-0.132401
O20	O	-1.268722	0.007507	0.367599
C21	C	-1.508190	-0.279494	-0.248466
C22	C	-1.008190	0.220506	0.251534
C23	C	-1.337852	-0.270790	-0.220404
C24	C	-0.837852	0.229210	0.279596
C25	C	-1.836441	0.013604	-0.302544
C26	C	-1.336441	0.513604	0.197456
C27	C	-1.854355	0.190399	-0.305506
C28	C	-1.354355	0.690399	0.194494
C29	C	-1.073237	-0.274592	-0.341550
C30	C	-0.573237	0.225408	0.158450
C31	C	-1.243566	-0.283332	-0.369600
C32	C	-0.743566	0.216668	0.130400
C33	C	-1.744988	-0.567679	-0.287479
C34	C	-1.244988	-0.067679	0.212521
C35	C	-1.727073	-0.744475	-0.284530
C36	C	-1.227073	-0.244475	0.215470
N37	N	-1.841149	-0.231919	0.149191
N38	N	-1.341149	0.268081	0.649191
N39	N	-1.740294	-0.322143	-0.739213
N40	N	-1.240294	0.177857	-0.239213
H41	H	-1.288252	-0.253398	-0.071200
H42	H	-0.788252	0.246602	0.428800
H43	H	-1.604396	0.176027	-0.264313
H44	H	-1.104396	0.676027	0.235687
F45	F	-2.014719	0.294316	-0.331902
F46	F	-1.514719	0.794316	0.168098
H47	H	-1.293155	-0.300742	-0.518794
H48	H	-0.793155	0.199258	-0.018794
H49	H	-1.635770	-0.415641	0.196360
H50	H	-1.135770	0.084359	0.696360
F51	F	-1.977793	-0.109718	0.233406
F52	F	-1.477793	0.390282	0.733406
