data_functionalizedCrystal
_audit_creation_method	'MofGen! by Chris Wilmer'
_symmetry_space_group_name_H-M	'P1'
_symmetry_Int_Tables_number	1
_symmetry_cell_setting	triclinic
loop_
_symmetry_equiv_pos_as_xyz
  x,y,z
_cell_length_a	11.792241
_cell_length_b	17.038272
_cell_length_c	10.868271
_cell_angle_alpha	89.994627
_cell_angle_beta	89.999893
_cell_angle_gamma	87.652486
loop_
_atom_site_label
_atom_site_type_symbol
_atom_site_fract_x
_atom_site_fract_y
_atom_site_fract_z
O1	O	1.516303	0.107207	-0.102203
O2	O	1.186930	0.118256	-0.102232
O3	O	1.349659	-0.001093	-0.102208
O4	O	1.353574	0.226555	-0.102227
O5	O	1.349644	-0.001097	0.102436
O6	O	1.186915	0.118251	0.102412
O7	O	1.516288	0.107202	0.102441
Zn8	Zn	1.351599	0.112726	0.134919
Zn9	Zn	1.351618	0.112732	-0.134710
O10	O	1.353559	0.226551	0.102417
C11	C	1.144571	0.117559	0.000086
C12	C	1.018375	0.115482	0.000076
C13	C	0.787328	0.111662	0.000111
C14	C	0.915899	0.113785	0.000092
C15	C	1.346090	-0.030239	0.000114
C16	C	1.335466	-0.117079	0.000112
C17	C	1.433006	-0.166762	0.000122
C18	C	1.423017	-0.248357	0.000110
C19	C	1.315487	-0.280267	0.000096
C20	C	1.217940	-0.230577	0.000083
C21	C	1.227930	-0.148984	0.000086
C22	C	1.280194	-0.526181	0.000076
C23	C	1.270211	-0.607780	0.000076
C24	C	1.475289	-0.625554	0.000101
C25	C	1.485270	-0.543958	0.000112
C26	C	1.387723	-0.494276	0.000092
C27	C	1.305274	-0.363669	0.000087
C28	C	1.397937	-0.410875	0.000092
C29	C	1.558647	0.107899	0.000120
C30	C	1.684843	0.109976	0.000122
C31	C	1.357127	0.255697	0.000093
C32	C	1.367751	0.342537	0.000086
N33	N	1.351594	0.112721	0.318933
N34	N	1.351632	0.112731	-0.318724
C35	C	1.351612	0.112730	0.569939
C36	C	1.351599	0.112728	0.430261
H37	H	1.502445	-0.288806	0.000120
O38	O	1.537376	-0.135639	0.000189
C39	C	1.525283	-0.052968	0.000160
H40	H	1.438525	-0.034186	0.038899
H41	H	1.532984	-0.030228	-0.098018
C42	C	1.725426	-0.041823	0.032841
C43	C	1.618871	-0.018754	0.080430
H44	H	1.783158	-0.020717	0.082350
H45	H	1.733575	-0.097520	0.032855
H46	H	1.731827	-0.022872	-0.048973
H47	H	1.612466	-0.037713	0.162236
H48	H	1.610724	0.036941	0.080431
O49	O	1.589812	-0.513093	0.000075
C50	C	1.673764	-0.574443	0.000117
H51	H	1.636593	-0.629996	-0.038642
H52	H	1.704211	-0.585863	0.098301
C53	C	1.820206	-0.482755	-0.032506
C54	C	1.774554	-0.550985	-0.080121
H55	H	1.882381	-0.468285	-0.081995
H56	H	1.763647	-0.441422	-0.032530
H57	H	1.845569	-0.492282	0.049313
H58	H	1.749179	-0.541455	-0.161932
H59	H	1.831112	-0.592316	-0.080112
H60	H	1.485487	-0.384890	0.000076
H61	H	1.554706	-0.666014	0.000115
H62	H	1.148503	-0.108532	0.000078
O63	O	1.200885	-0.394763	-0.000079
C64	C	1.188972	-0.441404	-0.106085
H65	H	1.276506	-0.461332	-0.141421
H66	H	1.142214	-0.405570	-0.180300
C67	C	1.013366	-0.489361	-0.030497
C68	C	1.120877	-0.513843	-0.073891
H69	H	0.971358	-0.534044	-0.010641
H70	H	1.021389	-0.457936	0.040920
H71	H	0.974416	-0.459499	-0.092350
H72	H	1.159831	-0.543696	-0.012033
H73	H	1.112859	-0.545275	-0.145297
O74	O	1.165727	-0.638744	-0.000166
C75	C	1.105795	-0.613384	-0.106152
H76	H	1.168546	-0.596145	-0.180217
H77	H	1.047643	-0.560486	-0.082204
C78	C	0.957041	-0.701596	-0.063256
C79	C	1.034114	-0.680430	-0.154229
H80	H	0.912821	-0.742952	-0.092910
H81	H	0.997416	-0.718680	0.008151
H82	H	0.908593	-0.657509	-0.043308
H83	H	1.082570	-0.724514	-0.174164
H84	H	0.993746	-0.663355	-0.225641
H85	H	1.200764	-0.485738	0.000060
H86	H	1.130387	-0.256565	0.000064
