data_functionalizedCrystal
_audit_creation_method	'MofGen! by Chris Wilmer'
_symmetry_space_group_name_H-M	'P1'
_symmetry_Int_Tables_number	1
_symmetry_cell_setting	triclinic
loop_
_symmetry_equiv_pos_as_xyz
  x,y,z
_cell_length_a	10.723024
_cell_length_b	11.792241
_cell_length_c	9.198806
_cell_angle_alpha	89.996670
_cell_angle_beta	89.996352
_cell_angle_gamma	84.330643
loop_
_atom_site_label
_atom_site_type_symbol
_atom_site_fract_x
_atom_site_fract_y
_atom_site_fract_z
O1	O	1.656767	0.159192	-0.120884
O2	O	1.293574	0.174430	-0.120889
O3	O	1.483984	0.001660	-0.120876
O4	O	1.466357	0.331962	-0.120897
O5	O	1.483969	0.001659	0.120909
O6	O	1.293559	0.174430	0.120896
O7	O	1.656751	0.159192	0.120901
Cu8	Cu	1.475154	0.166811	0.142976
Cu9	Cu	1.475172	0.166811	-0.142963
O10	O	1.466341	0.331962	0.120889
C11	C	1.247070	0.173321	0.000003
C12	C	1.108524	0.170003	0.000002
C13	C	1.482869	-0.040634	0.000016
C14	C	1.479555	-0.166655	0.000015
C15	C	1.033286	0.266676	-0.000005
C16	C	0.890091	0.263249	-0.000007
C17	C	1.473461	-0.397380	-0.000010
C18	C	1.476847	-0.268988	0.000004
C19	C	1.703256	0.160301	0.000006
C20	C	1.841801	0.163619	-0.000002
C21	C	1.467456	0.374255	-0.000007
C22	C	1.470770	0.500276	-0.000015
N23	N	1.475150	0.166810	0.344090
N24	N	1.475185	0.166803	-0.344077
C25	C	1.555099	0.093948	0.416292
C26	C	1.555118	0.093944	0.583704
H27	H	1.074882	0.351978	-0.000002
O28	O	1.636619	0.019395	0.342225
C29	C	1.707870	-0.177429	0.295331
C30	C	1.615455	-0.093135	0.379291
H31	H	1.690810	-0.268427	0.325290
H32	H	1.693283	-0.164234	0.173507
H33	H	1.808006	-0.162018	0.325115
H34	H	1.515283	-0.108495	0.349629
H35	H	1.630151	-0.106350	0.501094
H36	H	1.623570	0.031569	0.645795
H37	H	1.406739	0.229190	0.593841
H38	H	0.825440	0.346009	-0.000019
O39	O	1.393452	0.241071	0.418351
C40	C	1.223330	0.264106	0.590345
C41	C	1.315803	0.179878	0.506366
H42	H	1.160509	0.214664	0.661502
H43	H	1.277774	0.321031	0.661692
H44	H	1.163188	0.318989	0.509919
H45	H	1.375968	0.124920	0.586687
H46	H	1.261284	0.123032	0.434998
H47	H	0.906445	0.080854	-0.000005
O48	O	1.058853	0.068261	-0.000252
C49	C	0.928087	-0.054943	-0.125465
C50	C	0.984273	0.060312	-0.125375
H51	H	0.867755	-0.061397	-0.226601
H52	H	1.006956	-0.127244	-0.125556
H53	H	0.867881	-0.061479	-0.024233
H54	H	1.044466	0.066960	-0.226591
H55	H	0.905344	0.132557	-0.125209
