data_functionalizedCrystal
_audit_creation_method	'MofGen! by Chris Wilmer'
_symmetry_space_group_name_H-M	'P1'
_symmetry_Int_Tables_number	1
_symmetry_cell_setting	triclinic
loop_
_symmetry_equiv_pos_as_xyz
  x,y,z
_cell_length_a	16.974829
_cell_length_b	10.723023
_cell_length_c	16.053802
_cell_angle_alpha	92.591082
_cell_angle_beta	83.771117
_cell_angle_gamma	83.931822
loop_
_atom_site_label
_atom_site_type_symbol
_atom_site_fract_x
_atom_site_fract_y
_atom_site_fract_z
O1	O	1.056716	0.148418	-0.140825
O2	O	1.556716	0.648418	0.359175
O3	O	0.825877	0.169846	-0.125230
O4	O	1.325877	0.669846	0.374770
O5	O	0.946621	-0.022552	-0.133384
O6	O	1.446621	0.477448	0.366616
O7	O	0.935972	0.340816	-0.132671
O8	O	1.435972	0.840816	0.367329
O9	O	0.939975	-0.012005	0.005924
O10	O	1.439975	0.487995	0.505924
O11	O	0.819231	0.180392	0.014078
O12	O	1.319231	0.680392	0.514078
O13	O	1.050070	0.158964	-0.001517
O14	O	1.550070	0.658964	0.498483
Zn15	Zn	0.933595	0.171353	0.028399
Zn16	Zn	1.433595	0.671353	0.528399
Zn17	Zn	0.942352	0.157457	-0.155145
Zn18	Zn	1.442352	0.657457	0.344855
O19	O	0.929326	0.351362	0.006637
O20	O	1.429326	0.851362	0.506637
C21	C	0.792996	0.174499	-0.053579
C22	C	1.292996	0.674499	0.446421
C23	C	0.704924	0.172635	-0.047629
C24	C	1.204924	0.672635	0.452371
C25	C	0.942523	-0.063763	-0.063678
C26	C	1.442523	0.436237	0.436322
C27	C	0.940205	-0.202270	-0.063524
C28	C	1.440205	0.297730	0.436476
C29	C	0.208776	0.162800	-0.005984
C30	C	0.708776	0.662800	0.494016
C31	C	0.291530	0.164551	-0.011577
C32	C	0.791530	0.664551	0.488423
C33	C	0.336530	0.159669	-0.090311
C34	C	0.836530	0.659669	0.409689
C35	C	0.298772	0.153047	-0.163457
C36	C	0.798772	0.653047	0.336543
C37	C	0.216019	0.151304	-0.157864
C38	C	0.716019	0.651304	0.342136
C39	C	0.584413	0.164270	-0.115182
C40	C	1.084413	0.664270	0.384818
C41	C	0.667171	0.166009	-0.120770
C42	C	1.167171	0.666009	0.379230
C43	C	0.659923	0.177516	0.031112
C44	C	1.159923	0.677516	0.531112
C45	C	0.577169	0.175766	0.036698
C46	C	1.077169	0.675766	0.536698
C47	C	0.539418	0.169151	-0.036448
C48	C	1.039418	0.669151	0.463552
N49	N	0.421118	0.161455	-0.096029
N50	N	0.921118	0.661455	0.403971
N51	N	0.454831	0.167374	-0.030729
N52	N	0.954831	0.667374	0.469271
C53	C	0.942615	-0.269479	-0.135621
C54	C	1.442615	0.230521	0.364379
C55	C	0.940219	-0.412634	-0.135464
C56	C	1.440219	0.087366	0.364536
C57	C	1.082951	0.154311	-0.073170
C58	C	1.582951	0.654311	0.426830
C59	C	1.171024	0.156175	-0.079125
C60	C	1.671024	0.656175	0.420875
C61	C	0.933424	0.392573	-0.063070
C62	C	1.433424	0.892573	0.436930
C63	C	0.935742	0.531080	-0.063230
C64	C	1.435742	1.031080	0.436770
N65	N	0.927625	0.180836	0.153662
N66	N	1.427625	0.680836	0.653662
N67	N	0.948329	0.147965	-0.280409
N68	N	1.448329	0.647965	0.219591
C69	C	0.979021	0.098999	0.193885
C70	C	1.479021	0.598999	0.693885
C71	C	0.974852	0.105644	0.281574
C72	C	1.474852	0.605644	0.781574
C73	C	0.919290	0.194132	0.329037
C74	C	1.419290	0.694132	0.829037
C75	C	0.867888	0.275973	0.288808
C76	C	1.367888	0.775973	0.788808
C77	C	0.872054	0.269321	0.201122
C78	C	1.372054	0.769321	0.701122
C79	C	0.901093	0.223153	0.591675
C80	C	1.401093	0.723153	1.091675
C81	C	0.896933	0.229801	0.679368
C82	C	1.396933	0.729801	1.179368
C83	C	1.003895	0.059470	0.672127
C84	C	1.503895	0.559470	1.172127
C85	C	1.008059	0.052831	0.584439
C86	C	1.508059	0.552831	1.084439
C87	C	0.956655	0.134667	0.544218
C88	C	1.456655	0.634667	1.044218
N89	N	0.915029	0.200929	0.418668
N90	N	1.415029	0.700929	0.918668
N91	N	0.960913	0.127863	0.454588
N92	N	1.460913	0.627863	0.954588
H93	H	0.172141	0.166782	0.058130
H94	H	0.672141	0.666782	0.558130
H95	H	1.053302	-0.019223	0.545796
H96	H	1.553302	0.480777	1.045796
C97	C	0.947803	-0.204043	-0.219170
C98	C	1.447803	0.295957	0.280830
N99	N	0.951714	-0.154759	-0.282101
N100	N	1.451714	0.345241	0.217899
H101	H	0.936363	-0.250711	-0.001683
H102	H	1.436363	0.249289	0.498317
C103	C	1.060430	-0.030553	0.716378
C104	C	1.560430	0.469447	1.216378
N105	N	1.103011	-0.098367	0.749708
N106	N	1.603011	0.401633	1.249708
H107	H	0.822645	0.348018	0.327458
H108	H	1.322645	0.848018	0.827458
C109	C	0.844650	0.313337	0.547437
C110	C	1.344650	0.813337	1.047437
N111	N	0.802171	0.381326	0.514111
N112	N	1.302171	0.881326	1.014111
H113	H	0.553686	0.158879	-0.174743
H114	H	1.053686	0.658879	0.325257
H115	H	0.540537	0.179715	0.100812
H116	H	1.040537	0.679715	0.600812
H117	H	0.830201	0.335960	0.168373
H118	H	1.330201	0.835960	0.668373
H119	H	0.690669	0.182905	0.090663
H120	H	1.190669	0.682905	0.590663
H121	H	0.703809	0.162043	-0.184888
H122	H	1.203809	0.662043	0.315112
C123	C	0.943000	-0.490684	-0.218854
C124	C	1.443000	0.009316	0.281146
N125	N	0.945094	-0.549474	-0.281666
N126	N	1.445094	-0.049474	0.218334
C127	C	0.835805	0.327146	0.731576
C128	C	1.335805	0.827146	1.231576
N129	N	0.789767	0.400463	0.770900
N130	N	1.289767	0.900463	1.270900
C131	C	1.040143	0.001653	0.141683
C132	C	1.540143	0.501653	0.641683
N133	N	1.086180	-0.071675	0.102367
N134	N	1.586180	0.428325	0.602367
H135	H	0.322264	0.169943	0.047983
H136	H	0.822264	0.669943	0.547983
C137	C	0.932959	-0.390877	0.020164
C138	C	1.432959	0.109123	0.520164
N139	N	0.930860	-0.332086	0.082977
N140	N	1.430860	0.167914	0.582977
H141	H	0.185283	0.145913	-0.217424
H142	H	0.685283	0.645913	0.282576
C143	C	1.031373	0.015586	0.325816
C144	C	1.531373	0.515586	0.825816
N145	N	1.073939	-0.052261	0.359139
N146	N	1.573939	0.447739	0.859139
H147	H	0.335418	0.149079	-0.227565
H148	H	0.835418	0.649079	0.272435
