data_functionalizedCrystal
_audit_creation_method	'MofGen! by Chris Wilmer'
_symmetry_space_group_name_H-M	'P1'
_symmetry_Int_Tables_number	1
_symmetry_cell_setting	triclinic
loop_
_symmetry_equiv_pos_as_xyz
  x,y,z
_cell_length_a	10.654541
_cell_length_b	11.792241
_cell_length_c	9.130307
_cell_angle_alpha	89.996545
_cell_angle_beta	89.999822
_cell_angle_gamma	84.338672
loop_
_atom_site_label
_atom_site_type_symbol
_atom_site_fract_x
_atom_site_fract_y
_atom_site_fract_z
O1	O	1.667388	0.159405	-0.121755
O2	O	1.301866	0.174596	-0.121768
O3	O	1.493497	0.001851	-0.121751
O4	O	1.475757	0.332151	-0.121772
O5	O	1.493491	0.001849	0.121848
O6	O	1.301859	0.174595	0.121831
O7	O	1.667382	0.159403	0.121844
Cu8	Cu	1.484620	0.166999	0.144080
Cu9	Cu	1.484627	0.167001	-0.144004
O10	O	1.475750	0.332149	0.121827
C11	C	1.255068	0.173481	0.000030
C12	C	1.115634	0.170145	0.000025
C13	C	1.087078	0.376710	-0.000006
C14	C	1.007297	0.478420	-0.000028
C15	C	0.876287	0.475279	-0.000029
C16	C	0.825059	0.370416	-0.000004
C17	C	0.904841	0.268706	0.000017
C18	C	1.035851	0.271858	0.000014
C19	C	0.933396	0.062144	0.000059
C20	C	1.064405	0.065282	0.000050
C21	C	0.882167	-0.042719	0.000084
C22	C	0.961949	-0.144432	0.000095
C23	C	1.092966	-0.141286	0.000095
C24	C	1.144187	-0.036428	0.000072
C25	C	1.492380	-0.040444	0.000048
C26	C	1.489044	-0.166465	0.000046
C27	C	1.482911	-0.397192	0.000022
C28	C	1.486319	-0.268799	0.000035
C29	C	1.714180	0.160519	0.000043
C30	C	1.853614	0.163854	0.000038
C31	C	1.476868	0.374443	0.000025
C32	C	1.480203	0.500465	0.000017
N33	N	1.484624	0.166997	0.346703
N34	N	1.484633	0.166994	-0.346627
C35	C	1.654383	0.014075	0.346708
C36	C	1.739271	-0.062382	0.423377
C37	C	1.739283	-0.062383	0.576710
C38	C	1.654396	0.014080	0.653378
C39	C	1.569509	0.090537	0.576709
C40	C	1.569508	0.090532	0.423372
C41	C	1.399746	0.243451	0.576704
C42	C	1.399737	0.243459	0.423370
C43	C	1.314859	0.319914	0.653372
C44	C	1.229975	0.396379	0.576702
C45	C	1.229967	0.396377	0.423360
C46	C	1.314849	0.319917	0.346701
H47	H	0.775491	-0.045269	0.000091
C48	C	0.945942	-0.321474	-0.125094
C49	C	0.905640	-0.259688	0.000122
H50	H	0.911181	-0.392632	-0.125072
H51	H	0.918596	-0.279556	-0.210030
H52	H	1.035385	-0.334153	-0.125085
H53	H	0.816197	-0.247001	0.000107
H54	H	0.932979	-0.301615	0.085080
H55	H	1.808383	-0.124640	0.360941
C56	C	1.811718	-0.258256	0.623953
C57	C	1.832585	-0.146429	0.660997
H58	H	1.869321	-0.310140	0.675985
H59	H	1.727831	-0.271278	0.649089
H60	H	1.823871	-0.269192	0.521661
H61	H	1.820422	-0.135490	0.763289
H62	H	1.916491	-0.133402	0.635871
C63	C	0.712382	0.591556	-0.125279
C64	C	0.788579	0.587076	-0.000053
H65	H	0.658229	0.660572	-0.125286
H66	H	0.764086	0.588495	-0.210208
H67	H	0.663137	0.528648	-0.125252
H68	H	0.837831	0.649980	-0.000085
H69	H	0.736868	0.590148	0.084898
H70	H	1.157918	-0.224112	0.000118
H71	H	1.654401	0.014065	0.778230
H72	H	0.718383	0.367868	0.000012
H73	H	1.314867	0.319905	0.778224
H74	H	1.160860	0.458624	0.639135
H75	H	1.160836	0.458634	0.360943
C76	C	1.340887	0.427069	0.127031
C77	C	1.314846	0.319913	0.178155
H78	H	1.340894	0.427059	0.022977
H79	H	1.278185	0.483535	0.161706
H80	H	1.421257	0.443277	0.161724
H81	H	1.234473	0.303710	0.143471
H82	H	1.377552	0.263431	0.143465
H83	H	1.193752	0.379277	-0.000038
H84	H	1.250860	-0.033857	0.000054
H85	H	1.049022	0.563797	-0.000044
C86	C	1.772851	0.037987	0.127057
C87	C	1.654380	0.014081	0.178161
H88	H	1.772851	0.037983	0.023002
H89	H	1.790502	0.110674	0.161738
H90	H	1.835545	-0.018497	0.161754
H91	H	1.591687	0.070570	0.143472
H92	H	1.636715	-0.058616	0.143465
