data_functionalizedCrystal
_audit_creation_method	'MofGen! by Chris Wilmer'
_symmetry_space_group_name_H-M	'P1'
_symmetry_Int_Tables_number	1
_symmetry_cell_setting	triclinic
loop_
_symmetry_equiv_pos_as_xyz
  x,y,z
_cell_length_a	9.798715
_cell_length_b	8.559649
_cell_length_c	8.559649
_cell_angle_alpha	69.778664
_cell_angle_beta	89.998585
_cell_angle_gamma	89.996721
loop_
_atom_site_label
_atom_site_type_symbol
_atom_site_fract_x
_atom_site_fract_y
_atom_site_fract_z
O1	O	0.113470	-2.126880	0.055038
O2	O	0.613470	-1.626880	0.555038
O3	O	0.113475	-1.651396	-0.028743
O4	O	0.613475	-1.151396	0.471257
O5	O	0.113470	-1.931029	0.250890
O6	O	0.613470	-1.431029	0.750890
O7	O	0.113474	-1.847247	-0.224595
O8	O	0.613474	-1.347247	0.275405
O9	O	-0.113512	-1.931010	0.250889
O10	O	0.386488	-1.431010	0.750889
O11	O	-0.113507	-1.651377	-0.028745
O12	O	0.386493	-1.151377	0.471255
O13	O	-0.113513	-2.126862	0.055037
O14	O	0.386487	-1.626862	0.555037
Zn15	Zn	-0.149548	-1.889117	0.013146
Zn16	Zn	0.350452	-1.389117	0.513146
Zn17	Zn	0.149511	-1.889141	0.013148
Zn18	Zn	0.649511	-1.389141	0.513148
O19	O	-0.113508	-1.847229	-0.224596
O20	O	0.386492	-1.347229	0.275404
C21	C	-0.000015	-1.591077	-0.035093
C22	C	0.499985	-1.091077	0.464907
C23	C	-0.000013	-1.411378	-0.053992
C24	C	0.499987	-0.911378	0.446008
C25	C	-0.000018	-1.937369	0.311198
C26	C	0.499982	-1.437369	0.811198
C27	C	-0.000011	-1.956268	0.490898
C28	C	0.499989	-1.456268	0.990898
N29	N	-0.353648	-1.889112	0.013147
N30	N	0.146352	-1.389112	0.513147
C31	C	-0.421427	-2.006582	0.131014
C32	C	0.078573	-1.506582	0.631014
C33	C	-0.578589	-2.006609	0.131023
C34	C	-0.078589	-1.506609	0.631023
N35	N	0.353610	-1.889160	0.013162
N36	N	0.853610	-1.389160	0.513162
C37	C	-0.000019	-2.187180	0.061387
C38	C	0.499981	-1.687180	0.561387
C39	C	-0.000012	-2.366879	0.080286
C40	C	0.499988	-1.866879	0.580286
C41	C	-0.000016	-1.840889	-0.284904
C42	C	0.499984	-1.340889	0.215096
C43	C	-0.000015	-1.821990	-0.464604
C44	C	0.499985	-1.321990	0.035396
H45	H	-0.363106	-2.107129	0.231925
H46	H	0.136894	-1.607129	0.731925
H47	H	-0.636876	-2.107185	0.231930
H48	H	-0.136876	-1.607185	0.731930
H49	H	-0.588112	-1.788589	-0.087760
H50	H	-0.088112	-1.288589	0.412240
H51	H	-0.411971	-1.788555	-0.087753
H52	H	0.088029	-1.288555	0.412247
H53	H	-0.000007	-1.466258	0.209705
H54	H	0.499993	-0.966258	0.709705
H55	H	-0.000005	-1.311990	-0.183420
H56	H	0.499995	-0.811990	0.316580
H57	H	-0.000023	-2.085696	0.590286
H58	H	0.499977	-1.585696	1.090286
H59	H	-0.000018	-1.692570	0.436018
H60	H	0.499982	-1.192570	0.936018
