data_functionalizedCrystal
_audit_creation_method	'MofGen! by Chris Wilmer'
_symmetry_space_group_name_H-M	'P1'
_symmetry_Int_Tables_number	1
_symmetry_cell_setting	triclinic
loop_
_symmetry_equiv_pos_as_xyz
  x,y,z
_cell_length_a	16.120490
_cell_length_b	12.759400
_cell_length_c	12.759393
_cell_angle_alpha	89.968436
_cell_angle_beta	87.082392
_cell_angle_gamma	87.107198
loop_
_atom_site_label
_atom_site_type_symbol
_atom_site_fract_x
_atom_site_fract_y
_atom_site_fract_z
Zn1	Zn	1.274631	-0.499844	-0.675387
Zn2	Zn	1.774631	0.000156	-0.175387
Zn3	Zn	1.274547	-0.675557	-0.499702
Zn4	Zn	1.774547	-0.175557	0.000298
Zn5	Zn	1.135207	-0.490968	-0.490822
Zn6	Zn	1.635207	0.009032	0.009178
Zn7	Zn	1.135198	-0.666551	-0.666443
Zn8	Zn	1.635198	-0.166551	-0.166443
O9	O	1.204896	-0.583230	-0.583088
O10	O	1.704896	-0.083230	-0.083088
O11	O	1.391287	-0.530636	-0.659541
O12	O	1.891287	-0.030636	-0.159541
O13	O	1.256032	-0.651126	-0.351501
O14	O	1.756032	-0.151126	0.148499
O15	O	1.153741	-0.345127	-0.515331
O16	O	1.653741	0.154873	-0.015331
O17	O	1.391226	-0.659732	-0.530466
O18	O	1.891226	-0.159732	-0.030466
O19	O	1.256175	-0.351648	-0.650930
O20	O	1.756175	0.148352	-0.150930
O21	O	1.153660	-0.515509	-0.344977
O22	O	1.653660	-0.015509	0.155023
O23	O	1.018539	-0.506776	-0.506659
O24	O	1.518539	-0.006776	-0.006659
O25	O	1.153726	-0.644382	-0.814653
O26	O	1.653726	-0.144382	-0.314653
O27	O	1.018532	-0.635776	-0.635688
O28	O	1.518532	-0.135776	-0.135688
O29	O	1.256166	-0.521903	-0.821224
O30	O	1.756166	-0.021903	-0.321224
O31	O	1.256024	-0.821381	-0.521794
O32	O	1.756024	-0.321381	-0.021794
O33	O	1.153645	-0.814764	-0.644298
O34	O	1.653645	-0.314764	-0.144298
C35	C	1.204847	-0.856194	-0.583063
C36	C	1.704847	-0.356194	-0.083063
C37	C	1.204902	-0.972974	-0.583093
C38	C	1.704902	-0.472974	-0.083093
C39	C	0.988285	-0.569336	-0.569240
C40	C	1.488285	-0.069336	-0.069240
C41	C	0.895618	-0.563417	-0.563341
C42	C	1.395618	-0.063417	-0.063341
C43	C	1.258270	-1.031251	-0.519383
C44	C	1.758270	-0.531251	-0.019383
C45	C	1.258321	-1.140978	-0.519418
C46	C	1.758321	-0.640978	-0.019418
C47	C	1.151629	-1.134142	-0.646876
C48	C	1.651629	-0.634142	-0.146876
C49	C	1.151583	-1.024417	-0.646846
C50	C	1.651583	-0.524417	-0.146846
C51	C	1.319865	-1.035198	-0.445792
C52	C	1.819865	-0.535198	0.054208
C53	C	1.319916	-1.144925	-0.445828
C54	C	1.819916	-0.644925	0.054172
C55	C	0.684684	-0.613922	-0.613691
C56	C	1.184684	-0.113922	-0.113691
C57	C	0.725959	-0.552621	-0.552568
C58	C	1.225959	-0.052621	-0.052568
C59	C	0.820366	-0.558630	-0.558564
C60	C	1.320366	-0.058630	-0.058564
C61	C	0.590269	-0.607915	-0.607697
C62	C	1.090269	-0.107915	-0.107697
C63	C	1.422353	-0.597179	-0.596991
C64	C	1.922353	-0.097179	-0.096991
C65	C	1.515020	-0.603123	-0.602916
C66	C	2.015020	-0.103123	-0.102916
C67	C	1.204955	-0.583128	-0.857126
C68	C	1.704955	-0.083128	-0.357126
C69	C	1.204979	-0.583084	-0.973904
C70	C	1.704979	-0.083084	-0.473904
C71	C	1.204969	-0.309201	-0.583138
C72	C	1.704969	0.190799	-0.083138
C73	C	1.204999	-0.192427	-0.583159
C74	C	1.704999	0.307573	-0.083159
C75	C	1.258328	-0.519303	-1.032189
C76	C	1.758328	-0.019303	-0.532189
C77	C	1.258347	-0.519267	-1.141915
C78	C	1.758347	-0.019267	-0.641915
C79	C	1.151669	-0.646800	-1.135059
C80	C	1.651669	-0.146800	-0.635059
C81	C	1.151645	-0.646831	-1.025336
C82	C	1.651645	-0.146831	-0.525336
C83	C	1.319920	-0.445676	-1.036148
C84	C	1.819920	0.054324	-0.536148
C85	C	1.319940	-0.445640	-1.145874
C86	C	1.819940	0.054360	-0.645874
C87	C	1.204886	-0.583259	-0.310120
C88	C	1.704886	-0.083259	0.189880
C89	C	1.205023	-0.583017	-0.193353
C90	C	1.705023	-0.083017	0.306647
H91	H	1.108134	-0.976970	-0.698733
H92	H	1.608134	-0.476970	-0.198733
H93	H	1.296753	-0.999770	-0.366990
H94	H	1.796753	-0.499770	0.133010
O95	O	1.401168	-1.195100	-0.489716
O96	O	1.901168	-0.695100	0.010284
H97	H	1.397855	-1.281766	-0.487945
H98	H	1.897855	-0.781766	0.012055
O99	O	1.094110	-1.189625	-0.715622
O100	O	1.594110	-0.689625	-0.215622
H101	H	1.103102	-1.275714	-0.704935
H102	H	1.603102	-0.775714	-0.204935
O103	O	1.094145	-0.715555	-1.190530
O104	O	1.594145	-0.215555	-0.690530
H105	H	1.103124	-0.704821	-1.276621
H106	H	1.603124	-0.204821	-0.776621
O107	O	1.297077	-1.183037	-0.336577
O108	O	1.797077	-0.683037	0.163423
H109	H	1.239854	-1.227761	-0.338121
H110	H	1.739854	-0.727761	0.161879
O111	O	1.297041	-0.336441	-0.995256
O112	O	1.797041	0.163559	-0.495256
H113	H	1.285848	-0.282939	-1.062254
H114	H	1.785848	0.217061	-0.562254
H115	H	1.108201	-0.698763	-0.977883
H116	H	1.608201	-0.198763	-0.477883
H117	H	1.296837	-0.366851	-1.178446
H118	H	1.796837	0.133149	-0.678446
O119	O	0.731790	-0.689417	-0.688964
O120	O	1.231790	-0.189417	-0.188964
H121	H	0.686993	-0.733398	-0.732824
H122	H	1.186993	-0.233398	-0.232824
H123	H	0.690394	-0.495627	-0.495736
H124	H	1.190394	0.004373	0.004264
H125	H	1.381239	-0.478772	-1.006029
H126	H	1.881239	0.021228	-0.506029
O127	O	1.405463	-0.479995	-1.190797
O128	O	1.905463	0.020005	-0.690797
H129	H	1.447315	-0.496854	-1.125771
H130	H	1.947315	0.003146	-0.625771
H131	H	1.384414	-1.009475	-0.471766
H132	H	1.884414	-0.509475	0.028234
