data_functionalizedCrystal
_audit_creation_method	'MofGen! by Chris Wilmer'
_symmetry_space_group_name_H-M	'P1'
_symmetry_Int_Tables_number	1
_symmetry_cell_setting	triclinic
loop_
_symmetry_equiv_pos_as_xyz
  x,y,z
_cell_length_a	16.625547
_cell_length_b	16.959453
_cell_length_c	16.959447
_cell_angle_alpha	89.968822
_cell_angle_beta	89.977696
_cell_angle_gamma	90.024758
loop_
_atom_site_label
_atom_site_type_symbol
_atom_site_fract_x
_atom_site_fract_y
_atom_site_fract_z
Zn1	Zn	1.232647	-0.314667	-0.447018
Zn2	Zn	1.232551	-0.446859	-0.314837
Zn3	Zn	1.097815	-0.314698	-0.314843
Zn4	Zn	1.097774	-0.446807	-0.446963
O5	O	1.165197	-0.380758	-0.380915
O6	O	1.345467	-0.332211	-0.429504
O7	O	1.214655	-0.429363	-0.204227
O8	O	1.115758	-0.204083	-0.332401
O9	O	1.345396	-0.429332	-0.332392
O10	O	1.214819	-0.204060	-0.429509
O11	O	1.115665	-0.332265	-0.204231
O12	O	0.984977	-0.332214	-0.332348
O13	O	1.115688	-0.429243	-0.557581
O14	O	0.984947	-0.429274	-0.429417
O15	O	1.214779	-0.332160	-0.557621
O16	O	1.214615	-0.557463	-0.332339
O17	O	1.115595	-0.557425	-0.429412
C18	C	0.955706	-0.380742	-0.380878
C19	C	0.866085	-0.380755	-0.380881
C20	C	1.165112	-0.586124	-0.380886
C21	C	1.165149	-0.673981	-0.380900
C22	C	1.113569	-0.715264	-0.431406
C23	C	1.216770	-0.715251	-0.330412
C24	C	1.216810	-0.797797	-0.330427
C25	C	1.165229	-0.839080	-0.380932
C26	C	1.113609	-0.797817	-0.431423
C27	C	1.268435	-0.839066	-0.279942
C28	C	1.268478	-0.921617	-0.279955
C29	C	1.216893	-0.962902	-0.330457
C30	C	1.165270	-0.921634	-0.380950
C31	C	1.113689	-0.962917	-0.431455
C32	C	1.062061	-0.921650	-0.481944
C33	C	1.062024	-0.839102	-0.481925
C34	C	1.216930	-1.045450	-0.330476
C35	C	1.113729	-1.045470	-0.431473
C36	C	0.793302	-0.380756	-0.380890
C37	C	0.701994	-0.380761	-0.380910
C38	C	0.629217	-0.380768	-0.380930
C39	C	0.537903	-0.380773	-0.380949
C40	C	1.375506	-0.380774	-0.380953
C41	C	1.465127	-0.380781	-0.380969
C42	C	1.165240	-0.380692	-0.587083
C43	C	1.165258	-0.380664	-0.674940
C44	C	1.165304	-0.174590	-0.380962
C45	C	1.165350	-0.086733	-0.380981
C46	C	1.113790	-0.330026	-1.046424
C47	C	1.216869	-0.431135	-1.046408
C48	C	1.216855	-0.431154	-0.963862
C49	C	1.165307	-0.380609	-0.922593
C50	C	1.113773	-0.330045	-0.963871
C51	C	1.268382	-0.481722	-0.922578
C52	C	1.268370	-0.481743	-0.840027
C53	C	1.216825	-0.431193	-0.798757
C54	C	1.165290	-0.380627	-0.840040
C55	C	1.113742	-0.330082	-0.798771
C56	C	1.062209	-0.279511	-0.840052
C57	C	1.062228	-0.279495	-0.922601
C58	C	1.216806	-0.431209	-0.716209
C59	C	1.113724	-0.330100	-0.716218
C60	C	1.165200	-0.380766	-0.175549
C61	C	1.165338	-0.380572	-0.087693
H62	H	1.071725	-1.079077	-0.472601
C63	C	1.057016	-0.274495	-0.670829
N64	N	1.014302	-0.232614	-0.636643
C65	C	1.005323	-0.967072	-0.537498
N66	N	0.962589	-1.001287	-0.579338
H67	H	1.310435	-0.805451	-0.238826
H68	H	1.310516	-0.955209	-0.238843
C69	C	1.057108	-0.274401	-1.091833
N70	N	1.014414	-0.232503	-1.126037
C71	C	1.273330	-0.486964	-1.091805
N72	N	1.315775	-0.529099	-1.126002
C73	C	1.005245	-0.793703	-0.537465
N74	N	0.962482	-0.759505	-0.579299
H75	H	1.310329	-0.522922	-0.806423
H76	H	1.071532	-0.681662	-0.472511
H77	H	1.258970	-1.079045	-0.289373
C78	C	1.324718	-0.537671	-0.967977
N79	N	1.367023	-0.579939	-1.002175
H80	H	1.258769	-0.472378	-0.682601
C81	C	1.005512	-0.223909	-0.794646
N82	N	0.962811	-0.182029	-0.760443
C83	C	1.005544	-0.223876	-0.968016
N84	N	0.962848	-0.181986	-1.002226
C85	C	1.273505	-0.669837	-0.274860
N86	N	1.316239	-0.635628	-0.233013
