data_functionalizedCrystal
_audit_creation_method	'MofGen! by Chris Wilmer'
_symmetry_space_group_name_H-M	'P1'
_symmetry_Int_Tables_number	1
_symmetry_cell_setting	triclinic
loop_
_symmetry_equiv_pos_as_xyz
  x,y,z
_cell_length_a	18.215407
_cell_length_b	19.121063
_cell_length_c	18.215399
_cell_angle_alpha	87.590596
_cell_angle_beta	90.019350
_cell_angle_gamma	92.469446
loop_
_atom_site_label
_atom_site_type_symbol
_atom_site_fract_x
_atom_site_fract_y
_atom_site_fract_z
Zn1	Zn	1.112556	-0.279610	0.428596
Zn2	Zn	1.107209	-0.397066	0.310772
Zn3	Zn	0.989488	-0.279634	0.305544
Zn4	Zn	0.984200	-0.397026	0.433795
O5	O	1.048363	-0.338334	0.369677
O6	O	1.214830	-0.295198	0.412978
O7	O	1.091569	-0.381515	0.207095
O8	O	1.010264	-0.181346	0.317504
O9	O	1.210902	-0.381492	0.326414
O10	O	1.100681	-0.181329	0.407909
O11	O	1.005080	-0.295238	0.203255
O12	O	0.885803	-0.295199	0.322545
O13	O	1.001251	-0.381424	0.536089
O14	O	0.881917	-0.381447	0.416770
O15	O	1.095553	-0.295159	0.532269
O16	O	1.086441	-0.495345	0.331455
O17	O	0.996066	-0.495316	0.421840
C18	C	0.857157	-0.338322	0.369655
C19	C	0.775358	-0.338334	0.369664
C20	C	0.585157	-0.383313	0.418671
C21	C	0.508298	-0.383316	0.418681
C22	C	0.512321	-0.293367	0.320699
C23	C	0.589178	-0.293362	0.320694
C24	C	0.625594	-0.338339	0.369679
C25	C	0.471878	-0.338346	0.369694
C26	C	0.388544	-0.338348	0.369703
C27	C	0.708933	-0.338336	0.369671
C28	C	1.040119	-0.520815	0.377795
C29	C	1.036660	-0.598881	0.381292
C30	C	1.082124	-0.635548	0.335916
C31	C	1.078875	-0.708900	0.339210
C32	C	1.030157	-0.745582	0.387877
C33	C	0.984691	-0.708909	0.433258
C34	C	0.987945	-0.635559	0.429967
C35	C	1.017982	-0.967052	0.400168
C36	C	1.014730	-1.040407	0.403453
C37	C	1.108916	-1.040392	0.309406
C38	C	1.112162	-0.967041	0.306117
C39	C	1.066698	-0.930375	0.351500
C40	C	1.026833	-0.820559	0.391243
C41	C	1.070026	-0.855399	0.348137
C42	C	1.240316	-0.338346	0.369699
C43	C	1.322114	-0.338352	0.369708
C44	C	1.048409	-0.338284	0.561628
C45	C	1.048428	-0.338263	0.643426
C46	C	1.056659	-0.155141	0.361543
C47	C	1.060195	-0.077075	0.358077
C48	C	1.048363	-0.338333	0.178471
C49	C	1.048495	-0.338156	0.096664
C50	C	1.097561	-0.293284	0.906493
C51	C	1.097552	-0.293303	0.829635
C52	C	0.999359	-0.383140	0.833603
C53	C	0.999373	-0.383124	0.910459
C54	C	1.048473	-0.338192	0.946902
C55	C	1.048450	-0.338227	0.793188
C56	C	1.048439	-0.338248	0.709855
C57	C	1.048485	-0.338172	1.030240
H58	H	1.121792	-0.605686	0.296283
H59	H	0.945027	-0.738782	0.472887
H60	H	0.959383	-0.419721	0.803921
H61	H	0.614805	-0.419935	0.458560
O62	O	1.145290	-0.249741	0.941980
C63	C	1.191034	-0.289719	0.988205
H64	H	1.162673	-0.342942	1.002077
H65	H	1.202200	-0.261099	1.040984
H66	H	1.245217	-0.297444	0.958937
H67	H	0.475377	-0.419937	0.458576
H68	H	0.622104	-0.256734	0.280798
O69	O	0.951614	-0.426772	0.949605
C70	C	0.908283	-0.466442	0.900961
H71	H	0.907021	-0.437687	0.844898
H72	H	0.849966	-0.473930	0.923494
H73	H	0.932820	-0.519785	0.895157
H74	H	1.151831	-0.937175	0.266488
H75	H	1.137525	-0.256735	0.796737
O76	O	1.123065	-0.744410	0.295055
C77	C	1.166771	-0.696304	0.251404
H78	H	1.138945	-0.644044	0.246486
H79	H	1.173711	-0.717530	0.194380
H80	H	1.222999	-0.688439	0.278049
H81	H	0.482661	-0.256750	0.280816
H82	H	1.145930	-1.070254	0.272458
H83	H	0.975067	-1.070272	0.443097
O84	O	0.973735	-0.931549	0.444270
C85	C	0.930047	-0.979658	0.487934
H86	H	0.925208	-1.031966	0.460134
H87	H	0.872993	-0.958510	0.494772
H88	H	0.956611	-0.987397	0.544204
O89	O	0.943708	-0.600047	0.474076
C90	C	0.900025	-0.648150	0.517751
H91	H	0.895167	-0.700458	0.489950
H92	H	0.842978	-0.626994	0.524608
H93	H	0.926605	-0.655897	0.574013
H94	H	1.109695	-0.825530	0.308516
H95	H	0.987166	-0.850434	0.430866
