data_functionalizedCrystal
_audit_creation_method	'MofGen! by Chris Wilmer'
_symmetry_space_group_name_H-M	'P1'
_symmetry_Int_Tables_number	1
_symmetry_cell_setting	triclinic
loop_
_symmetry_equiv_pos_as_xyz
  x,y,z
_cell_length_a	11.169417
_cell_length_b	18.050588
_cell_length_c	11.169409
_cell_angle_alpha	90.035796
_cell_angle_beta	90.019513
_cell_angle_gamma	90.030810
loop_
_atom_site_label
_atom_site_type_symbol
_atom_site_fract_x
_atom_site_fract_y
_atom_site_fract_z
Zn1	Zn	1.834802	-0.295575	0.678504
Zn2	Zn	2.084802	-0.045575	0.928504
Zn3	Zn	2.334802	0.204425	1.178504
Zn4	Zn	2.584802	0.454425	1.428504
Zn5	Zn	1.834624	-0.419790	0.477809
Zn6	Zn	2.084624	-0.169790	0.727809
Zn7	Zn	2.334624	0.080210	0.977809
Zn8	Zn	2.584624	0.330210	1.227809
Zn9	Zn	1.634088	-0.295621	0.477839
Zn10	Zn	1.884088	-0.045621	0.727839
Zn11	Zn	2.134088	0.204379	0.977839
Zn12	Zn	2.384088	0.454379	1.227839
Zn13	Zn	1.634028	-0.419730	0.678455
Zn14	Zn	1.884028	-0.169730	0.928455
Zn15	Zn	2.134028	0.080270	1.178455
Zn16	Zn	2.384028	0.330270	1.428455
O17	O	1.734386	-0.357679	0.578152
O18	O	1.984386	-0.107679	0.828152
O19	O	2.234386	0.142321	1.078152
O20	O	2.484386	0.392321	1.328152
O21	O	2.002728	-0.312058	0.651889
O22	O	2.252728	-0.062058	0.901889
O23	O	2.502728	0.187942	1.151889
O24	O	2.752728	0.437942	1.401889
O25	O	1.807973	-0.403363	0.309863
O26	O	2.057973	-0.153363	0.559863
O27	O	2.307973	0.096637	0.809863
O28	O	2.557973	0.346637	1.059863
O29	O	1.660813	-0.191690	0.504491
O30	O	1.910813	0.058310	0.754491
O31	O	2.160813	0.308310	1.004491
O32	O	2.410813	0.558310	1.254491
O33	O	2.002597	-0.403318	0.504439
O34	O	2.252597	-0.153318	0.754439
O35	O	2.502597	0.096682	1.004439
O36	O	2.752597	0.346682	1.254439
O37	O	1.808276	-0.191656	0.651919
O38	O	2.058276	0.058344	0.901919
O39	O	2.308276	0.308344	1.151919
O40	O	2.558276	0.558344	1.401919
O41	O	1.660640	-0.312136	0.309885
O42	O	1.910640	-0.062136	0.559885
O43	O	2.160640	0.187864	0.809885
O44	O	2.410640	0.437864	1.059885
O45	O	1.466130	-0.312078	0.504444
O46	O	1.716130	-0.062078	0.754444
O47	O	1.966130	0.187922	1.004444
O48	O	2.216130	0.437922	1.254444
O49	O	1.660711	-0.403216	0.846411
O50	O	1.910711	-0.153216	1.096411
O51	O	2.160711	0.096784	1.346411
O52	O	2.410711	0.346784	1.596411
O53	O	1.466086	-0.403261	0.651835
O54	O	1.716086	-0.153261	0.901835
O55	O	1.966086	0.096739	1.151835
O56	O	2.216086	0.346739	1.401835
O57	O	1.808218	-0.312000	0.846447
O58	O	2.058218	-0.062000	1.096447
O59	O	2.308218	0.188000	1.346447
O60	O	2.558218	0.438000	1.596447
O61	O	1.807915	-0.523706	0.504391
O62	O	2.057915	-0.273706	0.754391
O63	O	2.307915	-0.023706	1.004391
O64	O	2.557915	0.226294	1.254391
O65	O	1.660538	-0.523663	0.651805
O66	O	1.910538	-0.273663	0.901805
O67	O	2.160538	-0.023663	1.151805
O68	O	2.410538	0.226337	1.401805
C69	C	1.422561	-0.357669	0.578138
C70	C	1.672561	-0.107669	0.828138
C71	C	1.922561	0.142331	1.078138
C72	C	2.172561	0.392331	1.328138
C73	C	1.289161	-0.357682	0.578160
C74	C	1.539161	-0.107682	0.828160
C75	C	1.789161	0.142318	1.078160
C76	C	2.039161	0.392318	1.328160
C77	C	1.734233	-0.550631	0.578116
C78	C	1.984233	-0.300631	0.828116
C79	C	2.234233	-0.050631	1.078116
C80	C	2.484233	0.199369	1.328116
C81	C	1.734278	-0.633177	0.578140
C82	C	1.984278	-0.383177	0.828140
C83	C	2.234278	-0.133177	1.078140
C84	C	2.484278	0.116823	1.328140
C85	C	1.654261	-0.882005	0.658305
C86	C	1.904261	-0.632005	0.908305
C87	C	2.154261	-0.382005	1.158305
C88	C	2.404261	-0.132005	1.408305
C89	C	1.763699	-0.832531	0.687749
C90	C	2.013699	-0.582531	0.937749
C91	C	2.263699	-0.332531	1.187749
C92	C	2.513699	-0.082531	1.437749
C93	C	1.734527	-0.930297	0.578207
C94	C	1.984527	-0.680297	0.828207
C95	C	2.234527	-0.430297	1.078207
C96	C	2.484527	-0.180297	1.328207
C97	C	1.624972	-0.832690	0.548786
C98	C	1.874972	-0.582690	0.798786
C99	C	2.124972	-0.332690	1.048786
C100	C	2.374972	-0.082690	1.298786
C101	C	1.734399	-0.784312	0.578177
C102	C	1.984399	-0.534312	0.828177
C103	C	2.234399	-0.284312	1.078177
C104	C	2.484399	-0.034312	1.328177
C105	C	1.844025	-0.881909	0.607709
C106	C	2.094025	-0.631909	0.857709
C107	C	2.344025	-0.381909	1.107709
C108	C	2.594025	-0.131909	1.357709
C109	C	1.705223	-0.882073	0.468695
C110	C	1.955223	-0.632073	0.718695
C111	C	2.205223	-0.382073	0.968695
C112	C	2.455223	-0.132073	1.218695
C113	C	1.814737	-0.832621	0.498098
C114	C	2.064737	-0.582621	0.748098
C115	C	2.314737	-0.332621	0.998098
C116	C	2.564737	-0.082621	1.248098
C117	C	1.734600	-1.014395	0.578228
C118	C	1.984600	-0.764395	0.828228
C119	C	2.234600	-0.514395	1.078228
C120	C	2.484600	-0.264395	1.328228
C121	C	1.734339	-0.700215	0.578157
C122	C	1.984339	-0.450215	0.828157
C123	C	2.234339	-0.200215	1.078157
C124	C	2.484339	0.049785	1.328157
C125	C	2.047428	-0.357689	0.578166
C126	C	2.297428	-0.107689	0.828166
C127	C	2.547428	0.142311	1.078166
C128	C	2.797428	0.392311	1.328166
C129	C	2.180828	-0.357694	0.578172
C130	C	2.430828	-0.107694	0.828172
C131	C	2.680828	0.142306	1.078172
C132	C	2.930828	0.392306	1.328172
C133	C	1.734478	-0.357596	0.891194
C134	C	1.984478	-0.107596	1.141194
C135	C	2.234478	0.142404	1.391194
C136	C	2.484478	0.392404	1.641194
C137	C	1.734517	-0.357561	1.024594
C138	C	1.984517	-0.107561	1.274594
C139	C	2.234517	0.142439	1.524594
C140	C	2.484517	0.392439	1.774594
C141	C	1.734571	-0.163973	0.578214
C142	C	1.984571	0.086027	0.828214
C143	C	2.234571	0.336027	1.078214
C144	C	2.484571	0.586027	1.328214
C145	C	1.734650	-0.081427	0.578241
C146	C	1.984650	0.168573	0.828241
C147	C	2.234650	0.418573	1.078241
C148	C	2.484650	0.668573	1.328241
C149	C	1.734363	-0.357707	0.266327
C150	C	1.984363	-0.107707	0.516327
C151	C	2.234363	0.142293	0.766327
C152	C	2.484363	0.392293	1.016327
C153	C	1.734556	-0.357533	0.132927
C154	C	1.984556	-0.107533	0.382927
C155	C	2.234556	0.142467	0.632927
C156	C	2.484556	0.392467	0.882927
H157	H	1.586520	-0.903687	0.726105
H158	H	1.836520	-0.653687	0.976105
H159	H	2.086520	-0.403687	1.226105
H160	H	2.336520	-0.153687	1.476105
H161	H	1.936648	-0.903441	0.632688
H162	H	2.186648	-0.653441	0.882688
H163	H	2.436648	-0.403441	1.132688
H164	H	2.686648	-0.153441	1.382688
H165	H	1.788439	-0.810771	0.780349
H166	H	2.038439	-0.560771	1.030349
H167	H	2.288439	-0.310771	1.280349
H168	H	2.538439	-0.060771	1.530349
F169	F	1.503943	-0.804426	0.516275
F170	F	1.753943	-0.554426	0.766275
F171	F	2.003943	-0.304426	1.016275
F172	F	2.253943	-0.054426	1.266275
H173	H	1.882640	-0.811074	0.430349
H174	H	2.132640	-0.561074	0.680349
H175	H	2.382640	-0.311074	0.930349
H176	H	2.632640	-0.061074	1.180349
F177	F	1.672846	-0.910538	0.347694
F178	F	1.922846	-0.660538	0.597694
F179	F	2.172846	-0.410538	0.847694
F180	F	2.422846	-0.160538	1.097694
