data_functionalizedCrystal
_audit_creation_method	'MofGen! by Chris Wilmer'
_symmetry_space_group_name_H-M	'P1'
_symmetry_Int_Tables_number	1
_symmetry_cell_setting	triclinic
loop_
_symmetry_equiv_pos_as_xyz
  x,y,z
_cell_length_a	17.077404
_cell_length_b	21.295417
_cell_length_c	17.077396
_cell_angle_alpha	90.033192
_cell_angle_beta	90.019501
_cell_angle_gamma	90.030732
loop_
_atom_site_label
_atom_site_type_symbol
_atom_site_fract_x
_atom_site_fract_y
_atom_site_fract_z
Zn1	Zn	1.200013	-0.250605	0.443817
Zn2	Zn	1.700013	0.249395	0.943817
Zn3	Zn	1.199903	-0.355878	0.312540
Zn4	Zn	1.699903	0.144122	0.812540
Zn5	Zn	1.068745	-0.250628	0.312565
Zn6	Zn	1.568745	0.249372	0.812565
Zn7	Zn	1.068695	-0.355841	0.443764
Zn8	Zn	1.568695	0.144159	0.943764
O9	O	1.134339	-0.303238	0.378171
O10	O	1.634339	0.196762	0.878171
O11	O	1.309845	-0.264577	0.426415
O12	O	1.809845	0.235423	0.926415
O13	O	1.182479	-0.341942	0.202697
O14	O	1.682479	0.158058	0.702697
O15	O	1.086225	-0.162535	0.330008
O16	O	1.586225	0.337465	0.830008
O17	O	1.309764	-0.341920	0.329966
O18	O	1.809764	0.158080	0.829966
O19	O	1.182667	-0.162519	0.426439
O20	O	1.682667	0.337481	0.926439
O21	O	1.086118	-0.264614	0.202715
O22	O	1.586118	0.235386	0.702715
O23	O	0.958891	-0.264578	0.329957
O24	O	1.458891	0.235422	0.829957
O25	O	1.086140	-0.341857	0.553618
O26	O	1.586140	0.158143	1.053618
O27	O	0.958855	-0.341878	0.426348
O28	O	1.458855	0.158122	0.926348
O29	O	1.182619	-0.264540	0.553657
O30	O	1.682619	0.235460	1.053657
O31	O	1.182431	-0.443963	0.329915
O32	O	1.682431	0.056037	0.829915
O33	O	1.086033	-0.443935	0.426324
O34	O	1.586033	0.056065	0.926324
C35	C	0.930391	-0.303227	0.378150
C36	C	1.430391	0.196773	0.878150
C37	C	0.843141	-0.303237	0.378159
C38	C	1.343141	0.196763	0.878159
C39	C	0.802153	-0.343548	0.428270
C40	C	1.302153	0.156452	0.928270
C41	C	0.720172	-0.343549	0.428282
C42	C	1.220172	0.156451	0.928282
C43	C	0.679182	-0.303242	0.378180
C44	C	1.179182	0.196758	0.878180
C45	C	0.720176	-0.262927	0.328067
C46	C	1.220176	0.237073	0.828067
C47	C	0.802155	-0.262923	0.328059
C48	C	1.302155	0.237077	0.828059
C49	C	0.549306	-0.262940	0.328086
C50	C	1.049306	0.237060	0.828086
C51	C	0.467322	-0.262944	0.328093
C52	C	0.967322	0.237056	0.828093
C53	C	0.467323	-0.343566	0.428309
C54	C	0.967323	0.156434	0.928309
C55	C	0.549302	-0.343562	0.428301
C56	C	1.049302	0.156438	0.928301
C57	C	0.590291	-0.303247	0.378187
C58	C	1.090291	0.196753	0.878187
C59	C	1.134236	-0.466790	0.378128
C60	C	1.634236	0.033210	0.878128
C61	C	1.134264	-0.536758	0.378136
C62	C	1.634264	-0.036758	0.878136
C63	C	1.184503	-0.569618	0.327987
C64	C	1.684503	-0.069618	0.827987
C65	C	1.184539	-0.635360	0.328004
C66	C	1.684539	-0.135360	0.828004
C67	C	1.134323	-0.668240	0.378163
C68	C	1.634323	-0.168240	0.878163
C69	C	1.084081	-0.635372	0.428321
C70	C	1.584081	-0.135372	0.928321
C71	C	1.084051	-0.569631	0.428308
C72	C	1.584051	-0.069631	0.928308
N73	N	1.065655	-0.771506	0.384140
N74	N	1.565655	-0.271506	0.884140
N75	N	1.065685	-0.833958	0.384148
N76	N	1.565685	-0.333958	0.884148
C77	C	1.134411	-0.866315	0.378208
C78	C	1.634411	-0.366315	0.878208
N79	N	1.203107	-0.833862	0.372244
N80	N	1.703107	-0.333862	0.872244
N81	N	1.203076	-0.771405	0.372231
N82	N	1.703076	-0.271405	0.872231
C83	C	1.134351	-0.739526	0.378183
C84	C	1.634351	-0.239526	0.878183
C85	C	1.184694	-0.970461	0.328075
C86	C	1.684694	-0.470461	0.828075
C87	C	1.184732	-1.036204	0.328098
C88	C	1.684732	-0.536204	0.828098
C89	C	1.084267	-1.036215	0.428411
C90	C	1.584267	-0.536215	0.928411
C91	C	1.084236	-0.970473	0.428392
C92	C	1.584236	-0.470473	0.928392
C93	C	1.134449	-0.937599	0.378220
C94	C	1.634449	-0.437599	0.878220
C95	C	1.339083	-0.303250	0.378194
C96	C	1.839083	0.196750	0.878194
C97	C	1.426333	-0.303255	0.378203
C98	C	1.926333	0.196745	0.878203
C99	C	1.134386	-0.303192	0.582916
C100	C	1.634386	0.196808	1.082916
C101	C	1.134407	-0.303172	0.670166
C102	C	1.634407	0.196828	1.170166
C103	C	1.134464	-0.139048	0.378232
C104	C	1.634464	0.360952	0.878232
C105	C	1.134517	-0.069080	0.378258
C106	C	1.634517	0.430920	0.878258
C107	C	1.134337	-0.303239	0.174224
C108	C	1.634337	0.196761	0.674224
C109	C	1.134469	-0.303081	0.086974
C110	C	1.634469	0.196919	0.586974
C111	C	1.184645	-0.262910	0.711177
C112	C	1.684645	0.237090	1.211177
C113	C	1.184654	-0.262889	0.793158
C114	C	1.684654	0.237111	1.293158
C115	C	1.134429	-0.303134	0.834125
C116	C	1.634429	0.196866	1.334125
C117	C	1.084185	-0.343397	0.793108
C118	C	1.584185	0.156603	1.293108
C119	C	1.084172	-0.343415	0.711129
C120	C	1.584172	0.156585	1.211129
C121	C	1.084217	-0.343360	0.963978
C122	C	1.584217	0.156640	1.463978
C123	C	1.084231	-0.343343	1.045963
C124	C	1.584231	0.156657	1.545963
C125	C	1.184699	-0.262834	1.046007
C126	C	1.684699	0.237166	1.546007
C127	C	1.184686	-0.262851	0.964028
C128	C	1.684686	0.237149	1.464028
C129	C	1.134443	-0.303116	0.923016
C130	C	1.634443	0.196884	1.423016
H131	H	0.582674	-0.376386	0.469094
H132	H	1.082674	0.123614	0.969094
H133	H	0.686795	-0.230106	0.287276
H134	H	1.186795	0.269894	0.787276
H135	H	0.835521	-0.376372	0.469066
H136	H	1.335521	0.123628	0.969066
H137	H	1.225547	-0.230140	0.677828
H138	H	1.725547	0.269860	1.177828
H139	H	0.433949	-0.230115	0.287304
H140	H	0.933949	0.269885	0.787304
N141	N	1.030037	-0.935030	0.482474
N142	N	1.530037	-0.435030	0.982474
H143	H	0.993668	-0.907800	0.450532
H144	H	1.493668	-0.407800	0.950532
H145	H	1.061957	-0.907745	0.518866
H146	H	1.561957	-0.407745	1.018866
N147	N	0.846368	-0.219441	0.274017
N148	N	1.346368	0.280559	0.774017
H149	H	0.807963	-0.193907	0.242278
H150	H	1.307963	0.306093	0.742278
H151	H	0.880354	-0.245022	0.237627
H152	H	1.380354	0.254978	0.737627
H153	H	1.225583	-0.943694	0.287224
H154	H	1.725583	-0.443694	0.787224
N155	N	1.238918	-1.071647	0.274001
N156	N	1.738918	-0.571647	0.774001
H157	H	1.231322	-1.118283	0.281624
H158	H	1.731322	-0.618283	0.781624
H159	H	1.294969	-1.060106	0.286261
H160	H	1.794969	-0.560106	0.786261
H161	H	0.686803	-0.376375	0.469086
H162	H	1.186803	0.123625	0.969086
N163	N	1.030105	-1.071676	0.482506
N164	N	1.530105	-0.571676	0.982506
H165	H	0.974021	-1.060284	0.470259
H166	H	1.474021	-0.560284	0.970259
H167	H	1.042323	-1.060181	0.538581
H168	H	1.542323	-0.560181	1.038581
H169	H	0.433946	-0.376389	0.469116
H170	H	0.933946	0.123611	0.969116
H171	H	0.582677	-0.230106	0.287285
H172	H	1.082677	0.269894	0.787285
N173	N	1.238669	-0.534162	0.273886
N174	N	1.738669	-0.034162	0.773886
H175	H	1.270505	-0.564958	0.242123
H176	H	1.770505	-0.064958	0.742123
H177	H	1.274964	-0.506845	0.305876
H178	H	1.774964	-0.006845	0.805876
H179	H	1.043140	-0.542876	0.469146
H180	H	1.543140	-0.042876	0.969146
N181	N	1.238728	-0.670813	0.273915
N182	N	1.738728	-0.170813	0.773915
H183	H	1.270533	-0.640012	0.242130
H184	H	1.770533	-0.140012	0.742130
H185	H	1.206802	-0.698133	0.237568
H186	H	1.706802	-0.198133	0.737568
H187	H	1.043331	-0.376113	1.079316
H188	H	1.543331	0.123887	1.579316
H189	H	1.043291	-0.376138	0.930589
H190	H	1.543291	0.123862	1.430589
H191	H	1.225565	-0.230105	0.826546
H192	H	1.725565	0.269895	1.326546
H193	H	1.043288	-0.376163	0.826470
H194	H	1.543288	0.123837	1.326470
N195	N	1.029993	-0.386846	0.666893
N196	N	1.529993	0.113154	1.166893
H197	H	1.037604	-0.380749	0.608744
H198	H	1.537604	0.119251	1.108744
H199	H	0.973941	-0.377042	0.681217
H200	H	1.473941	0.122958	1.181217
N201	N	1.029921	-0.670831	0.482424
N202	N	1.529921	-0.170831	0.982424
H203	H	1.037561	-0.717465	0.474821
H204	H	1.537561	-0.217465	0.974821
H205	H	0.973861	-0.659386	0.470153
H206	H	1.473861	-0.159386	0.970153
H207	H	1.225588	-0.230084	0.930675
H208	H	1.725588	0.269916	1.430675
N209	N	1.238871	-0.219391	1.090238
N210	N	1.738871	0.280609	1.590238
H211	H	1.270686	-0.193898	1.051846
H212	H	1.770686	0.306102	1.551846
H213	H	1.275186	-0.245000	1.124258
H214	H	1.775186	0.255000	1.624258
