data_functionalizedCrystal
_audit_creation_method	'MofGen! by Chris Wilmer'
_symmetry_space_group_name_H-M	'P1'
_symmetry_Int_Tables_number	1
_symmetry_cell_setting	triclinic
loop_
_symmetry_equiv_pos_as_xyz
  x,y,z
_cell_length_a	12.837943
_cell_length_b	14.853567
_cell_length_c	11.295483
_cell_angle_alpha	94.104625
_cell_angle_beta	85.461227
_cell_angle_gamma	89.231935
loop_
_atom_site_label
_atom_site_type_symbol
_atom_site_fract_x
_atom_site_fract_y
_atom_site_fract_z
O1	O	1.382763	0.228927	-0.098984
O2	O	1.080941	0.217348	-0.098992
O3	O	1.239915	0.092592	-0.098991
O4	O	1.223790	0.353684	-0.098985
O5	O	1.225952	0.103530	0.099059
O6	O	1.066978	0.228287	0.099059
O7	O	1.368800	0.239866	0.099067
Cu8	Cu	1.216614	0.235075	0.117146
Cu9	Cu	1.233127	0.222139	-0.117072
O10	O	1.209827	0.364623	0.099066
C11	C	1.035334	0.218906	0.000032
C12	C	0.920240	0.207240	0.000029
C13	C	0.679482	0.347487	0.000049
C14	C	0.571341	0.336530	0.000047
C15	C	0.595813	0.174369	0.000030
C16	C	0.703954	0.185327	0.000032
C17	C	0.745785	0.271888	0.000040
C18	C	0.853929	0.282844	0.000034
C19	C	0.878399	0.120685	0.000026
C20	C	0.770257	0.109728	0.000023
C21	C	1.232203	0.064410	0.000030
C22	C	1.230014	-0.035860	0.000020
C23	C	1.126324	-0.457187	0.000040
C24	C	1.315188	-0.462449	0.000045
C25	C	1.317247	-0.368241	0.000038
C26	C	1.223843	-0.318502	0.000034
C27	C	1.128380	-0.362970	0.000037
C28	C	1.412707	-0.323764	0.000047
C29	C	1.414770	-0.229551	0.000042
C30	C	1.321366	-0.179810	0.000029
C31	C	1.225899	-0.224285	0.000030
C32	C	1.132495	-0.174546	0.000026
C33	C	1.037028	-0.219019	0.000019
C34	C	1.034976	-0.313230	0.000024
C35	C	1.323418	-0.085599	0.000024
C36	C	1.134551	-0.080329	0.000023
C37	C	1.414408	0.238308	0.000040
C38	C	1.529502	0.249974	0.000036
C39	C	1.217539	0.392804	0.000042
C40	C	1.219728	0.493073	0.000044
N41	N	1.205008	0.244174	0.281883
N42	N	1.244742	0.213033	-0.281808
C43	C	1.328293	0.147484	0.531173
C44	C	1.319529	0.154367	0.655836
C45	C	1.178712	0.264819	0.655876
C46	C	1.187475	0.257935	0.531212
C47	C	1.262270	0.199267	0.468865
C48	C	1.271038	0.192389	0.344199
C49	C	1.130216	0.302836	0.344241
C50	C	1.121452	0.309719	0.468904
H51	H	0.561728	0.103900	0.000122
H52	H	1.048597	-0.493402	0.000030
F53	F	0.724005	0.439610	0.000043
H54	H	0.887985	0.353327	0.000043
F55	F	1.041851	0.372152	0.535269
H56	H	1.076458	0.345004	0.293496
F57	F	0.933383	-0.360568	0.000013
H58	H	0.736183	0.039252	0.000031
F59	F	0.937624	-0.166071	0.000024
F60	F	0.500779	0.416994	0.000060
F61	F	1.407904	0.085054	0.464817
F62	F	1.512105	-0.376703	0.000074
H63	H	1.373291	0.112199	0.706564
F64	F	0.948972	0.040221	0.000001
F65	F	1.425012	-0.038270	0.000051
H66	H	1.058490	-0.039837	0.000014
H67	H	1.391232	-0.502951	0.000058
F68	F	1.516374	-0.182228	0.000034
H69	H	1.331942	0.144621	0.293437
H70	H	1.117809	0.312578	0.706655
