data_functionalizedCrystal
_audit_creation_method	'MofGen! by Chris Wilmer'
_symmetry_space_group_name_H-M	'P1'
_symmetry_Int_Tables_number	1
_symmetry_cell_setting	triclinic
loop_
_symmetry_equiv_pos_as_xyz
  x,y,z
_cell_length_a	18.050591
_cell_length_b	18.050589
_cell_length_c	18.050583
_cell_angle_alpha	90.031910
_cell_angle_beta	90.022021
_cell_angle_gamma	90.024227
loop_
_atom_site_label
_atom_site_type_symbol
_atom_site_fract_x
_atom_site_fract_y
_atom_site_fract_z
Zn1	Zn	1.135301	-0.295685	0.420054
Zn2	Zn	1.635301	0.204315	0.920054
Zn3	Zn	1.135209	-0.419898	0.295873
Zn4	Zn	1.635209	0.080102	0.795873
Zn5	Zn	1.011117	-0.295718	0.295865
Zn6	Zn	1.511117	0.204282	0.795865
Zn7	Zn	1.011068	-0.419829	0.420009
Zn8	Zn	1.511068	0.080171	0.920009
O9	O	1.073174	-0.357783	0.357950
O10	O	1.573174	0.142217	0.857950
O11	O	1.239213	-0.312178	0.403604
O12	O	1.739213	0.187822	0.903604
O13	O	1.118730	-0.403468	0.191948
O14	O	1.618730	0.096532	0.691948
O15	O	1.027650	-0.191789	0.312354
O16	O	1.527650	0.308211	0.812354
O17	O	1.239146	-0.403436	0.312369
O18	O	1.739146	0.096564	0.812369
O19	O	1.118887	-0.191765	0.403595
O20	O	1.618887	0.308235	0.903595
O21	O	1.027561	-0.312233	0.191942
O22	O	1.527561	0.187767	0.691942
O23	O	0.907186	-0.312166	0.312311
O24	O	1.407186	0.187834	0.812311
O25	O	1.027565	-0.403319	0.523940
O26	O	1.527565	0.096681	1.023940
O27	O	0.907150	-0.403350	0.403519
O28	O	1.407150	0.096650	0.903519
O29	O	1.118838	-0.312111	0.523973
O30	O	1.618838	0.187889	1.023973
O31	O	1.118682	-0.523814	0.312325
O32	O	1.618682	-0.023814	0.812325
O33	O	1.027476	-0.523763	0.403527
O34	O	1.527476	-0.023763	0.903527
C35	C	0.880222	-0.357755	0.357909
C36	C	1.380222	0.142245	0.857909
C37	C	0.797676	-0.357761	0.357909
C38	C	1.297676	0.142239	0.857909
C39	C	1.073084	-0.550735	0.357938
C40	C	1.573084	-0.050735	0.857938
C41	C	1.073114	-0.633281	0.357958
C42	C	1.573114	-0.133281	0.857958
C43	C	0.598223	-0.308118	0.308425
C44	C	1.098223	0.191882	0.808425
C45	C	0.548803	-0.375858	0.290154
C46	C	1.048803	0.124142	0.790154
C47	C	0.646545	-0.357784	0.357943
C48	C	1.146545	0.142216	0.857943
C49	C	0.548884	-0.290067	0.376212
C50	C	1.048884	0.209933	0.876212
C51	C	0.500560	-0.357799	0.357974
C52	C	1.000560	0.142201	0.857974
C53	C	0.598213	-0.425559	0.339637
C54	C	1.098213	0.074441	0.839637
C55	C	0.598297	-0.339723	0.425726
C56	C	1.098297	0.160277	0.925726
C57	C	0.548900	-0.407510	0.407481
C58	C	1.048900	0.092490	0.907481
C59	C	0.730644	-0.357774	0.357923
C60	C	1.230644	0.142226	0.857923
C61	C	0.416464	-0.357817	0.357994
C62	C	0.916464	0.142183	0.857994
C63	C	1.023565	-0.832731	0.407536
C64	C	1.523565	-0.332731	0.907536
C65	C	1.005465	-0.882180	0.339767
C66	C	1.505465	-0.382180	0.839767
C67	C	1.073187	-0.784411	0.357967
C68	C	1.573187	-0.284411	0.857967
C69	C	1.091322	-0.882044	0.425744
C70	C	1.591322	-0.382044	0.925744
C71	C	1.073256	-0.930396	0.357983
C72	C	1.573256	-0.430396	0.857983
C73	C	1.055052	-0.832773	0.290162
C74	C	1.555052	-0.332773	0.790162
C75	C	1.140940	-0.832632	0.376186
C76	C	1.640940	-0.332632	0.876186
C77	C	1.122867	-0.882059	0.308370
C78	C	1.622867	-0.382059	0.808370
C79	C	1.073145	-0.700313	0.357959
C80	C	1.573145	-0.200313	0.857959
C81	C	1.073297	-1.014493	0.357983
C82	C	1.573297	-0.514493	0.857983
C83	C	1.266879	-0.357811	0.357992
C84	C	1.766879	0.142189	0.857992
C85	C	1.349425	-0.357823	0.358010
C86	C	1.849425	0.142177	0.858010
C87	C	1.073207	-0.357703	0.551656
C88	C	1.573207	0.142297	1.051656
C89	C	1.073221	-0.357670	0.634202
C90	C	1.573221	0.142330	1.134202
C91	C	1.073284	-0.164077	0.357979
C92	C	1.573284	0.335923	0.857979
C93	C	1.073331	-0.081531	0.357991
C94	C	1.573331	0.418469	0.857991
C95	C	1.073184	-0.357808	0.164998
C96	C	1.573184	0.142192	0.664998
C97	C	1.073314	-0.357633	0.082453
C98	C	1.573314	0.142367	0.582453
C99	C	1.122905	-0.308047	0.833671
C100	C	1.622905	0.191953	1.333671
C101	C	1.055171	-0.289866	0.883057
C102	C	1.555171	0.210134	1.383057
C103	C	1.073250	-0.357657	0.785332
C104	C	1.573250	0.142343	1.285332
C105	C	1.141011	-0.375791	0.883028
C106	C	1.641011	0.124209	1.383028
C107	C	1.073285	-0.357643	0.931317
C108	C	1.573285	0.142357	1.431317
C109	C	1.005481	-0.339441	0.833631
C110	C	1.505481	0.160559	1.333631
C111	C	1.091367	-0.425397	0.833598
C112	C	1.591367	0.074603	1.333598
C113	C	1.023586	-0.407242	0.882962
C114	C	1.523586	0.092758	1.382962
C115	C	1.073231	-0.357663	0.701234
C116	C	1.573231	0.142337	1.201234
C117	C	1.073296	-0.357637	1.015414
C118	C	1.573296	0.142363	1.515414
H119	H	0.527065	-0.391146	0.232844
H120	H	1.027065	0.108854	0.732844
O121	O	0.929571	-0.319019	0.805022
O122	O	1.429571	0.180981	1.305022
H123	H	0.930161	-0.319155	0.743534
H124	H	1.430161	0.180845	1.243534
O125	O	1.111611	-0.910711	0.501659
O126	O	1.611611	-0.410711	1.001659
H127	H	1.070302	-0.890953	0.542686
H128	H	1.570302	-0.390953	1.042686
H129	H	1.164827	-0.266067	0.812025
H130	H	1.664827	0.233933	1.312025
H131	H	1.039674	-0.811219	0.232834
H132	H	1.539674	-0.311219	0.732834
H133	H	0.619791	-0.482850	0.324134
H134	H	1.119791	0.017150	0.824134
O135	O	1.111683	-0.501262	0.804792
O136	O	1.611683	-0.001262	1.304792
H137	H	1.071038	-0.542545	0.825399
H138	H	1.571038	-0.042545	1.325399
H139	H	0.527379	-0.449566	0.449370
H140	H	1.027379	0.050434	0.949370
H141	H	0.981562	-0.449190	0.904469
H142	H	1.481562	0.050810	1.404469
H143	H	1.198192	-0.810855	0.391613
H144	H	1.698192	-0.310855	0.891613
H145	H	0.620054	-0.324414	0.483019
H146	H	1.120054	0.175586	0.983019
H147	H	0.527176	-0.232801	0.391625
H148	H	1.027176	0.267199	0.891625
O149	O	0.967904	-0.804025	0.462981
O150	O	1.467904	-0.304025	0.962981
H151	H	0.911733	-0.823869	0.447682
H152	H	1.411733	-0.323869	0.947682
O153	O	0.929611	-0.911010	0.319350
O154	O	1.429611	-0.411010	0.819350
H155	H	0.888489	-0.891258	0.360567
H156	H	1.388489	-0.391258	0.860567
O157	O	0.626927	-0.252546	0.252902
O158	O	1.126927	0.247454	0.752902
H159	H	0.607105	-0.267727	0.196690
H160	H	1.107105	0.232273	0.696690
O161	O	1.216893	-0.396125	0.911775
O162	O	1.716893	0.103875	1.411775
H163	H	1.254811	-0.405744	0.864344
H164	H	1.754811	0.094256	1.364344
O165	O	1.178495	-0.910576	0.252797
O166	O	1.678495	-0.410576	0.752797
H167	H	1.163296	-0.890736	0.196621
H168	H	1.663296	-0.390736	0.696621
O169	O	1.034883	-0.213981	0.911843
O170	O	1.534883	0.286019	1.411843
H171	H	1.076165	-0.172902	0.892110
H172	H	1.576165	0.327098	1.392110
