data_functionalizedCrystal
_audit_creation_method	'MofGen! by Chris Wilmer'
_symmetry_space_group_name_H-M	'P1'
_symmetry_Int_Tables_number	1
_symmetry_cell_setting	triclinic
loop_
_symmetry_equiv_pos_as_xyz
  x,y,z
_cell_length_a	19.077068
_cell_length_b	19.077212
_cell_length_c	19.805399
_cell_angle_alpha	87.677406
_cell_angle_beta	92.269429
_cell_angle_gamma	94.708021
loop_
_atom_site_label
_atom_site_type_symbol
_atom_site_fract_x
_atom_site_fract_y
_atom_site_fract_z
Zn1	Zn	-0.237477	1.066453	-0.433184
Zn2	Zn	0.262523	1.566453	0.066816
Zn3	Zn	-0.355370	1.061626	-0.324358
Zn4	Zn	0.144630	1.561626	0.175642
Zn5	Zn	-0.242221	0.948563	-0.315626
Zn6	Zn	0.257779	1.448563	0.184374
Zn7	Zn	-0.360055	0.943789	-0.433122
Zn8	Zn	0.139945	1.443789	0.066878
O9	O	-0.298781	1.005108	-0.376573
O10	O	0.201219	1.505108	0.123427
O11	O	-0.249170	1.164465	-0.422428
O12	O	0.250830	1.664465	0.077572
O13	O	-0.340385	1.046606	-0.228483
O14	O	0.159615	1.546606	0.271517
O15	O	-0.142940	0.968220	-0.327591
O16	O	0.357060	1.468220	0.172409
O17	O	-0.335785	1.160918	-0.342474
O18	O	0.164215	1.660918	0.157526
O19	O	-0.139454	1.054833	-0.413961
O20	O	0.360546	1.554833	0.086039
O21	O	-0.257255	0.963539	-0.222068
O22	O	0.242745	1.463539	0.277932
O23	O	-0.261798	0.849278	-0.327532
O24	O	0.238202	1.349278	0.172468
O25	O	-0.343770	0.960083	-0.527847
O26	O	0.156230	1.460083	-0.027847
O27	O	-0.348370	0.845770	-0.413856
O28	O	0.151630	1.345770	0.086144
O29	O	-0.253713	1.050204	-0.527892
O30	O	0.246287	1.550204	-0.027892
O31	O	-0.454643	1.041976	-0.342415
O32	O	0.045357	1.541976	0.157585
O33	O	-0.458086	0.955402	-0.422324
O34	O	0.041914	1.455402	0.077676
C35	C	-0.306108	0.821944	-0.369740
C36	C	0.193892	1.321944	0.130260
C37	C	-0.309260	0.743586	-0.366834
C38	C	0.190740	1.243586	0.133166
C39	C	-0.331834	0.302310	-0.346021
C40	C	0.168166	0.802310	0.153979
C41	C	-0.328869	0.375937	-0.348746
C42	C	0.171131	0.875937	0.151254
C43	C	-0.282364	0.414596	-0.391810
C44	C	0.217636	0.914596	0.108190
C45	C	-0.238816	0.379625	-0.432145
C46	C	0.261184	0.879625	0.067855
C47	C	-0.241778	0.306000	-0.429416
C48	C	0.258222	0.806000	0.070584
C49	C	-0.268674	0.634990	-0.404441
C50	C	0.231326	1.134990	0.095559
C51	C	-0.265717	0.708620	-0.407168
C52	C	0.234283	1.208620	0.092832
C53	C	-0.355769	0.704927	-0.323768
C54	C	0.144231	1.204927	0.176232
C55	C	-0.358729	0.631300	-0.321045
C56	C	0.141271	1.131300	0.178955
C57	C	-0.315179	0.596336	-0.361378
C58	C	0.184821	1.096336	0.138622
N59	N	-0.279334	0.489854	-0.394598
N60	N	0.220666	0.989854	0.105402
N61	N	-0.318207	0.521079	-0.358586
N62	N	0.181793	1.021079	0.141414
C63	C	-0.481943	0.997666	-0.383326
C64	C	0.018057	1.497666	0.116674
C65	C	-0.560298	0.994547	-0.386240
C66	C	-0.060298	1.494547	0.113760
C67	C	-0.595293	1.038191	-0.346042
C68	C	-0.095293	1.538191	0.153958
C69	C	-0.668916	1.035262	-0.348787
C70	C	-0.168916	1.535262	0.151213
C71	C	-0.707543	0.988684	-0.391726
C72	C	-0.207543	1.488684	0.108274
C73	C	-0.672543	0.945038	-0.431929
C74	C	-0.172543	1.445038	0.068071
C75	C	-0.598922	0.947972	-0.429187
C76	C	-0.098922	1.447972	0.070813
C77	C	-0.927923	0.975077	-0.404387
C78	C	-0.427923	1.475077	0.095613
C79	C	-1.001550	0.972145	-0.407124
C80	C	-0.501550	1.472145	0.092876
C81	C	-0.997917	1.062370	-0.323983
C82	C	-0.497917	1.562370	0.176017
C83	C	-0.924294	1.065296	-0.321242
C84	C	-0.424294	1.565296	0.178758
C85	C	-0.889301	1.021653	-0.361447
C86	C	-0.389301	1.521653	0.138553
N87	N	-0.782797	0.985687	-0.394531
N88	N	-0.282797	1.485687	0.105469
N89	N	-0.814048	1.024654	-0.358645
N90	N	-0.314048	1.524654	0.141355
C91	C	-0.114902	1.012598	-0.369809
C92	C	0.385098	1.512598	0.130191
C93	C	-0.036544	1.015789	-0.366926
C94	C	0.463456	1.515789	0.133074
C95	C	-0.298735	1.005149	-0.553115
C96	C	0.201265	1.505149	-0.053115
C97	C	-0.298715	1.005167	-0.628347
C98	C	0.201285	1.505167	-0.128347
C99	C	-0.291425	1.188986	-0.383432
C100	C	0.208575	1.688986	0.116568
C101	C	-0.288291	1.267344	-0.386355
C102	C	0.211709	1.767344	0.113645
C103	C	-0.251820	1.052094	-0.663716
C104	C	0.248180	1.552094	-0.163716
C105	C	-0.251799	1.052102	-0.734404
C106	C	0.248201	1.552102	-0.234404
C107	C	-0.298678	1.005186	-0.769722
C108	C	0.201322	1.505186	-0.269722
C109	C	-0.345575	0.958254	-0.734348
C110	C	0.154425	1.458254	-0.234348
C111	C	-0.345592	0.958243	-0.663661
C112	C	0.154408	1.458243	-0.163661
C113	C	-0.345508	0.958296	-1.019421
C114	C	0.154492	1.458296	-0.519421
C115	C	-0.345489	0.958312	-1.090113
C116	C	0.154511	1.458312	-0.590113
C117	C	-0.251715	1.052155	-1.090163
C118	C	0.248285	1.552155	-0.590163
C119	C	-0.251732	1.052144	-1.019476
C120	C	0.248268	1.552144	-0.519476
C121	C	-0.298626	1.005210	-0.984109
C122	C	0.201374	1.505210	-0.484109
C123	C	-0.298647	1.005201	-0.907461
C124	C	0.201353	1.505201	-0.407461
C125	C	-0.298661	1.005198	-0.846369
C126	C	0.201339	1.505198	-0.346369
C127	C	-0.298774	1.005109	-0.200716
C128	C	0.201226	1.505109	0.299284
C129	C	-0.298590	1.005236	-0.125483
C130	C	0.201410	1.505236	0.374517
H131	H	-0.200948	0.411107	-0.467206
H132	H	0.299052	0.911107	0.032794
O133	O	-0.381993	0.260620	-0.299570
O134	O	0.118007	0.760620	0.200430
H135	H	-0.376744	0.203549	-0.304451
H136	H	0.123256	0.703549	0.195549
H137	H	-0.703999	0.907117	-0.466894
H138	H	-0.203999	1.407117	0.033106
O139	O	-0.194810	0.268282	-0.472915
O140	O	0.305190	0.768282	0.027085
H141	H	-0.227757	0.233467	-0.507219
H142	H	0.272243	0.733467	-0.007219
O143	O	-0.201129	1.102765	-1.128320
O144	O	0.298871	1.602765	-0.628320
H145	H	-0.211012	1.157602	-1.117277
H146	H	0.288988	1.657602	-0.617277
O147	O	-0.201172	1.102746	-0.981381
O148	O	0.298828	1.602746	-0.481381
H149	H	-0.168554	1.135376	-1.017851
H150	H	0.331446	1.635376	-0.517851
H151	H	-0.570430	0.912433	-0.461921
H152	H	-0.070430	1.412433	0.038079
O153	O	-0.553631	1.088432	-0.299731
O154	O	-0.053631	1.588432	0.200269
H155	H	-0.590336	1.118293	-0.272246
H156	H	-0.090336	1.618293	0.227754
O157	O	-0.890196	0.927983	-0.447734
O158	O	-0.390196	1.427983	0.052266
H159	H	-0.903803	0.939463	-0.501841
H160	H	-0.403803	1.439463	-0.001841
H161	H	-0.383742	0.920051	-0.763110
H162	H	0.116258	1.420051	-0.263110
O163	O	-0.706663	1.082330	-0.305427
O164	O	-0.206663	1.582330	0.194573
H165	H	-0.667434	1.115204	-0.275100
H166	H	-0.167434	1.615204	0.224900
H167	H	-1.026416	1.097903	-0.291251
H168	H	-0.526416	1.597903	0.208749
O169	O	-0.201258	1.102696	-0.625623
O170	O	0.298742	1.602696	-0.125623
H171	H	-0.168641	1.135324	-0.662095
H172	H	0.331359	1.635324	-0.162095
O173	O	-0.201224	1.102719	-0.772554
O174	O	0.298776	1.602719	-0.272554
H175	H	-0.168637	1.135348	-0.736120
H176	H	0.331363	1.635348	-0.236120
O177	O	-0.221704	0.597283	-0.447942
O178	O	0.278296	1.097283	0.052058
H179	H	-0.233305	0.610942	-0.502018
H180	H	0.266695	1.110942	-0.002018
O181	O	-0.882629	1.115527	-0.274924
O182	O	-0.382629	1.615527	0.225076
H183	H	-0.847590	1.152709	-0.305328
H184	H	-0.347590	1.652709	0.194672
H185	H	-0.364325	0.404403	-0.315901
H186	H	0.135675	0.904403	0.184099
H187	H	-0.227842	0.740094	-0.442235
H188	H	0.272158	1.240094	0.057765
O189	O	-0.396049	0.907643	-0.981275
O190	O	0.103951	1.407643	-0.481275
H191	H	-0.428634	0.875014	-1.017711
H192	H	0.071366	1.375014	-0.517711
O193	O	-1.043217	0.921911	-0.453445
O194	O	-0.543217	1.421911	0.046555
H195	H	-1.006516	0.892061	-0.480948
H196	H	-0.506516	1.392061	0.019052
H197	H	-0.396598	0.599829	-0.285978
H198	H	0.103402	1.099829	0.214022
H199	H	-0.383664	0.920104	-1.118867
H200	H	0.116336	1.420104	-0.618867
O201	O	-0.396162	0.907620	-0.625508
O202	O	0.103838	1.407620	-0.125508
H203	H	-0.428758	0.874998	-0.661941
H204	H	0.071242	1.374998	-0.161941
H205	H	-0.391224	0.733403	-0.290930
H206	H	0.108776	1.233403	0.209070
