data_functionalizedCrystal
_audit_creation_method	'MofGen! by Chris Wilmer'
_symmetry_space_group_name_H-M	'P1'
_symmetry_Int_Tables_number	1
_symmetry_cell_setting	triclinic
loop_
_symmetry_equiv_pos_as_xyz
  x,y,z
_cell_length_a	17.699083
_cell_length_b	10.723024
_cell_length_c	16.776229
_cell_angle_alpha	89.994545
_cell_angle_beta	89.998886
_cell_angle_gamma	83.875442
loop_
_atom_site_label
_atom_site_type_symbol
_atom_site_fract_x
_atom_site_fract_y
_atom_site_fract_z
O1	O	1.005074	0.157797	-0.066174
O2	O	1.505074	0.657797	0.433826
O3	O	0.784825	0.178327	-0.066200
O4	O	1.284825	0.678327	0.433800
O5	O	0.900030	-0.013601	-0.066184
O6	O	1.400030	0.486399	0.433816
O7	O	0.889869	0.349725	-0.066191
O8	O	1.389869	0.849725	0.433809
O9	O	0.900014	-0.013613	0.066393
O10	O	1.400014	0.486387	0.566393
O11	O	0.784809	0.178315	0.066376
O12	O	1.284809	0.678315	0.566376
O13	O	1.005058	0.157785	0.066402
O14	O	1.505058	0.657785	0.566402
Zn15	Zn	0.894931	0.168048	0.087439
Zn16	Zn	1.394931	0.668048	0.587439
Zn17	Zn	0.894952	0.168064	-0.087237
Zn18	Zn	1.394952	0.668064	0.412763
O19	O	0.889854	0.349713	0.066386
O20	O	1.389854	0.849713	0.566386
C21	C	0.756616	0.177585	0.000085
C22	C	1.256616	0.677585	0.500085
C23	C	0.672584	0.175378	0.000075
C24	C	1.172584	0.675378	0.500075
C25	C	0.624673	0.288036	0.000073
C26	C	1.124673	0.788036	0.500073
C27	C	0.545717	0.285955	0.000083
C28	C	1.045717	0.785955	0.500083
C29	C	0.514672	0.171215	0.000090
C30	C	1.014672	0.671215	0.500090
C31	C	0.562589	0.058549	0.000094
C32	C	1.062589	0.558549	0.500094
C33	C	0.641544	0.060631	0.000090
C34	C	1.141544	0.560631	0.500090
C35	C	0.244173	0.050148	0.000114
C36	C	0.744173	0.550148	0.500114
C37	C	0.165212	0.048075	0.000116
C38	C	0.665212	0.548075	0.500116
C39	C	0.148346	0.275473	0.000108
C40	C	0.648346	0.775473	0.500108
C41	C	0.227301	0.277555	0.000103
C42	C	0.727301	0.777555	0.500103
C43	C	0.275210	0.164889	0.000112
C44	C	0.775210	0.664889	0.500112
C45	C	0.360824	0.167147	0.000102
C46	C	0.860824	0.667147	0.500102
C47	C	0.429060	0.168956	0.000094
C48	C	0.929060	0.668956	0.500094
C49	C	0.899283	-0.060094	0.000103
C50	C	1.399283	0.439906	0.500103
C51	C	0.897070	-0.198610	0.000100
C52	C	1.397070	0.301390	0.500100
C53	C	0.961533	-0.274698	0.000107
C54	C	1.461533	0.225302	0.500107
C55	C	0.959248	-0.417863	0.000104
C56	C	1.459248	0.082137	0.500104
C57	C	1.033268	0.158527	0.000115
C58	C	1.533268	0.658527	0.500115
C59	C	1.117300	0.160734	0.000120
C60	C	1.617300	0.660734	0.500120
C61	C	0.890601	0.396206	0.000097
C62	C	1.390601	0.896206	0.500097
C63	C	0.892813	0.534723	0.000095
C64	C	1.392813	1.034723	0.500095
N65	N	0.894923	0.168037	0.206650
N66	N	1.394923	0.668037	0.706650
N67	N	0.894966	0.168065	-0.206448
N68	N	1.394966	0.668065	0.293552
C69	C	0.945952	0.083086	0.248374
C70	C	1.445952	0.583086	0.748374
C71	C	0.945956	0.083085	0.331826
C72	C	1.445956	0.583085	0.831826
C73	C	0.894934	0.168042	0.373553
C74	C	1.394934	0.668042	0.873553
C75	C	0.843900	0.252997	0.331822
C76	C	1.343900	0.752997	0.831822
C77	C	0.843893	0.252991	0.248372
C78	C	1.343893	0.752991	0.748372
C79	C	0.843928	0.253021	0.668370
C80	C	1.343928	0.753021	1.168370
C81	C	0.843941	0.253023	0.751826
C82	C	1.343941	0.753023	1.251826
C83	C	0.945991	0.083115	0.751824
C84	C	1.445991	0.583115	1.251824
C85	C	0.945983	0.083109	0.668374
C86	C	1.445983	0.583109	1.168374
C87	C	0.894947	0.168059	0.626651
C88	C	1.394947	0.668059	1.126651
C89	C	0.894942	0.168058	0.536162
C90	C	1.394942	0.668058	1.036162
C91	C	0.894942	0.168050	0.464040
C92	C	1.394942	0.668050	0.964040
H93	H	0.649943	0.381471	0.000067
H94	H	1.149943	0.881471	0.500067
H95	H	1.014433	-0.483241	0.000113
H96	H	1.514433	0.016759	0.500113
N97	N	0.788875	0.344637	0.376826
N98	N	1.288875	0.844637	0.876826
H99	H	0.756547	0.398452	0.337728
H100	H	1.256547	0.898452	0.837728
H101	H	0.755174	0.296940	0.411461
H102	H	1.255174	0.796940	0.911461
N103	N	0.494041	0.407464	0.000171
N104	N	0.994041	0.907464	0.500171
H105	H	0.525688	0.480466	0.000191
H106	H	1.025688	0.980466	0.500191
H107	H	0.460870	0.411650	-0.048944
H108	H	0.960870	0.911650	0.451056
H109	H	0.840190	-0.239457	0.000089
H110	H	1.340190	0.260543	0.500089
H111	H	0.987545	0.013940	0.785804
H112	H	1.487545	0.513940	1.285804
H113	H	0.252572	0.370988	0.000094
H114	H	0.752572	0.870988	0.500094
N115	N	0.096672	0.396996	0.000101
N116	N	0.596672	0.896996	0.500101
H117	H	0.041943	0.378273	0.000108
H118	H	0.541943	0.878273	0.500108
H119	H	0.106793	0.447012	0.049244
H120	H	0.606793	0.947012	0.549244
H121	H	0.139939	-0.045366	0.000123
H122	H	0.639939	0.454634	0.500123
H123	H	0.987502	0.013910	0.214406
H124	H	1.487502	0.513910	0.714406
H125	H	0.837625	-0.399906	0.000094
H126	H	1.337625	0.100094	0.500094
N127	N	0.788852	0.344610	0.203365
N128	N	1.288852	0.844610	0.703365
H129	H	0.756531	0.398432	0.242460
H130	H	1.256531	0.898432	0.742460
H131	H	0.818103	0.399714	0.168729
H132	H	1.318103	0.899714	0.668729
H133	H	0.987507	0.013911	0.365798
H134	H	1.487507	0.513911	0.865798
N135	N	0.788898	0.344646	0.796831
N136	N	1.288898	0.844646	1.296831
H137	H	0.796650	0.331758	0.856028
H138	H	1.296650	0.831758	1.356028
H139	H	0.798086	0.433154	0.782237
H140	H	1.298086	0.933154	1.282237
H141	H	0.283172	-0.041591	0.000122
H142	H	0.783172	0.458409	0.500122
H143	H	0.680552	-0.031107	0.000091
H144	H	1.180552	0.468893	0.500091
N145	N	0.529110	-0.065210	0.000114
N146	N	1.029110	0.434790	0.500114
H147	H	0.471822	-0.049437	0.000117
H148	H	0.971822	0.450563	0.500117
H149	H	0.546592	-0.114502	-0.049030
H150	H	1.046592	0.385498	0.450970
N151	N	1.001016	-0.008516	0.623369
N152	N	1.501016	0.491484	1.123369
H153	H	1.033343	-0.062336	0.662465
H154	H	1.533343	0.437664	1.162465
H155	H	0.971753	-0.063622	0.588753
H156	H	1.471753	0.436378	1.088753
H157	H	1.018413	-0.233851	0.000118
H158	H	1.518413	0.266149	0.500118
N159	N	0.788880	0.344635	0.623375
N160	N	1.288880	0.844635	1.123375
H161	H	0.756562	0.398454	0.662473
H162	H	1.256562	0.898454	1.162473
H163	H	0.818128	0.399743	0.588737
H164	H	1.318128	0.899743	1.088737
