data_functionalizedCrystal
_audit_creation_method	'MofGen! by Chris Wilmer'
_symmetry_space_group_name_H-M	'P1'
_symmetry_Int_Tables_number	1
_symmetry_cell_setting	triclinic
loop_
_symmetry_equiv_pos_as_xyz
  x,y,z
_cell_length_a	31.640172
_cell_length_b	14.628931
_cell_length_c	31.640172
_cell_angle_alpha	60.011086
_cell_angle_beta	90.011976
_cell_angle_gamma	59.998250
loop_
_atom_site_label
_atom_site_type_symbol
_atom_site_fract_x
_atom_site_fract_y
_atom_site_fract_z
Zr1	Zr	0.407180	1.000444	-0.055405
O2	O	0.339688	1.191139	-0.122893
O3	O	0.427870	0.809741	-0.034716
O4	O	0.427867	1.000409	-0.122881
O5	O	0.339694	1.000501	0.034817
O6	O	0.497424	1.000390	-0.122872
O7	O	0.339692	1.000471	-0.034728
O8	O	0.497430	0.659320	0.034839
O9	O	0.339688	1.341570	-0.122893
O10	O	0.488604	0.888168	-0.025886
O11	O	0.436696	0.888205	0.026008
O12	O	0.436693	1.112692	-0.077794
O13	O	0.384785	1.112728	-0.025900
Zr14	Zr	0.518120	1.000461	0.055527
Zr15	Zr	0.518116	1.000413	-0.055390
Zr16	Zr	0.407185	1.000491	0.055512
Zr17	Zr	0.407181	1.240365	-0.055405
Zr18	Zr	0.518120	0.760540	0.055527
O19	O	0.497430	1.191163	0.034838
O20	O	0.497424	1.191096	-0.122872
O21	O	0.339694	1.191206	0.034817
O22	O	0.585612	0.809766	0.123015
O23	O	0.585606	0.809698	-0.034695
O24	O	0.427877	0.809809	0.122994
O25	O	0.585606	1.000404	-0.034696
O26	O	0.497434	1.000496	0.123003
O27	O	0.427877	1.000515	0.122994
O28	O	0.585609	1.000434	0.034850
O29	O	0.427867	1.341546	-0.122881
O30	O	0.497433	0.659358	0.123003
O31	O	0.585612	0.659334	0.123015
O32	O	0.585609	0.659296	0.034850
O33	O	0.339692	1.341608	-0.034729
O34	O	0.427871	1.341584	-0.034717
O35	O	0.488608	0.888213	0.077916
O36	O	0.540516	0.888177	0.026022
O37	O	0.488604	1.112700	-0.025886
O38	O	0.436697	1.112736	0.026008
C39	C	0.462650	0.700347	0.000061
C40	C	0.462650	0.598494	0.000061
C41	C	0.488400	0.553067	-0.025682
C42	C	0.488400	0.447796	-0.025682
C43	C	0.323887	1.000490	0.000042
C44	C	0.276792	1.000503	0.000036
C45	C	0.011883	0.883241	0.027167
C46	C	-0.165102	0.883219	0.027177
O47	O	-0.164942	0.783545	0.050240
N48	N	-0.214329	1.000417	0.000081
C49	C	-0.219309	1.117629	-0.027017
O50	O	-0.265240	1.217312	-0.050059
C51	C	-0.042324	1.117650	-0.027024
C52	C	0.006902	1.000444	0.000070
C53	C	0.061108	0.766046	0.054259
C54	C	0.105351	0.766052	0.054254
C55	C	0.100370	0.883255	0.027157
C56	C	0.051146	1.000451	0.000065
C57	C	-0.047305	1.234860	-0.054119
C58	C	-0.003053	1.234855	-0.054117
C59	C	0.046173	1.117650	-0.027023
C60	C	0.090408	1.117661	-0.027038
N61	N	0.139635	1.000463	0.000059
C62	C	0.144616	0.883260	0.027156
C63	C	-0.312226	1.117609	-0.027012
C64	C	-0.356472	1.117604	-0.027011
C65	C	-0.302262	0.883194	0.027184
C66	C	-0.258016	0.883201	0.027179
C67	C	-0.262999	1.000412	0.000084
C68	C	0.237528	0.883283	0.027143
C69	C	0.281773	0.883300	0.027133
C70	C	0.227559	1.117710	-0.027059
C71	C	0.183318	1.117693	-0.027052
C72	C	0.188306	1.000469	0.000052
O73	O	0.090288	1.217282	-0.050083
O74	O	0.190552	0.783591	0.050204
C75	C	-0.032360	0.883235	0.027172
C76	C	-0.081584	1.000431	0.000080
C77	C	-0.086565	1.117633	-0.027017
C78	C	-0.125830	1.000426	0.000081
C79	C	-0.120849	0.883223	0.027178
C80	C	-0.071622	0.766025	0.054274
C81	C	-0.027379	0.766032	0.054269
C82	C	-0.135792	1.234831	-0.054113
C83	C	-0.180033	1.234815	-0.054106
C84	C	-0.175053	1.117612	-0.027009
C85	C	0.601414	1.000415	0.000079
C86	C	0.648509	1.000402	0.000086
C87	C	0.462645	1.000393	-0.138680
C88	C	0.462643	1.000372	-0.185767
C89	C	0.462651	1.300558	0.000061
C90	C	0.462651	1.402411	0.000061
C91	C	0.489759	0.883244	-0.494977
C92	C	0.489751	0.883205	-0.317978
O93	O	0.512812	0.783529	-0.272050
N94	N	0.462652	1.000400	-0.322940
C95	C	0.435556	1.117614	-0.372156
O96	O	0.412511	1.217296	-0.372315
C97	C	0.435567	1.117652	-0.549154
C98	C	0.462664	1.000448	-0.544188
C99	C	0.516854	0.766050	-0.490013
C100	C	0.516853	0.766061	-0.534261
C101	C	0.489758	0.883265	-0.583472
C102	C	0.462663	1.000459	-0.588436
C103	C	0.408475	1.234864	-0.598369
C104	C	0.408481	1.234863	-0.642619
C105	C	0.435577	1.117660	-0.637653
C106	C	0.435567	1.117675	-0.681894
N107	N	0.462666	1.000479	-0.676932
C108	C	0.489761	0.883274	-0.627721
C109	C	0.435552	1.117586	-0.279227
C110	C	0.435548	1.117577	-0.234978
C111	C	0.489744	0.883167	-0.180803
C112	C	0.489744	0.883177	-0.225053
C113	C	0.462650	1.000390	-0.274266
C114	C	0.489758	0.883306	-0.720646
C115	C	0.489753	0.883328	-0.764900
C116	C	0.435560	1.117737	-0.819071
C117	C	0.435562	1.117716	-0.774821
C118	C	0.462665	1.000491	-0.725607
O119	O	0.412524	1.217299	-0.727837
O120	O	0.512812	0.783608	-0.627573
C121	C	0.489760	0.883233	-0.450730
C122	C	0.462665	1.000427	-0.455693
C123	C	0.435570	1.117631	-0.504904
C124	C	0.462661	1.000417	-0.411444
C125	C	0.489757	0.883213	-0.362233
C126	C	0.516855	0.766017	-0.357271
C127	C	0.516855	0.766028	-0.401519
C128	C	0.408471	1.234827	-0.509866
C129	C	0.408473	1.234807	-0.465617
C130	C	0.435569	1.117602	-0.416405
C131	C	0.462656	1.000512	0.138802
C132	C	0.462658	1.000532	0.185889
C133	C	0.601413	0.700309	0.000080
C134	C	0.648508	0.598444	0.000086
C135	C	0.462656	0.700407	0.138802
C136	C	0.462657	0.598574	0.185889
C137	C	0.601419	0.700369	0.138820
C138	C	0.648516	0.598524	0.185914
C139	C	0.323882	1.300536	-0.138698
C140	C	0.276785	1.402381	-0.185792
C141	C	0.323887	1.300595	0.000042
C142	C	0.276792	1.402461	0.000036
C143	C	0.462645	1.300498	-0.138680
C144	C	0.462643	1.402330	-0.185767
C145	C	0.643527	0.550602	-0.027011
C146	C	0.687774	0.454901	-0.027016
C147	C	0.737001	0.407038	0.000081
C148	C	0.741981	0.454889	0.027179
C149	C	0.697735	0.550594	0.027180
C150	C	0.489756	0.550757	0.235102
C151	C	0.489755	0.455088	0.279350
C152	C	0.462659	0.407231	0.274384
C153	C	0.435558	0.455058	0.225166
C154	C	0.435556	0.550732	0.180919
C155	C	0.697733	0.550677	0.180942
C156	C	0.741989	0.454995	0.225187
C157	C	0.737028	0.407156	0.274404
C158	C	0.687806	0.455012	0.279376
C159	C	0.643550	0.550698	0.235131
C160	C	0.227568	1.450240	-0.180820
C161	C	0.183311	1.545951	-0.225065
C162	C	0.188273	1.593795	-0.274282
C163	C	0.237495	1.545933	-0.279254
C164	C	0.281751	1.450230	-0.235009
C165	C	0.281773	1.450313	0.027128
C166	C	0.237527	1.546040	0.027121
C167	C	0.188300	1.593907	0.000023
C168	C	0.183320	1.546051	-0.027073
C169	C	0.227566	1.450333	-0.027068
C170	C	0.489744	1.450157	-0.180785
C171	C	0.489753	1.545827	-0.225024
C172	C	0.462657	1.593675	-0.274246
C173	C	0.435555	1.545839	-0.279227
C174	C	0.435550	1.450165	-0.234989
H175	H	0.440602	0.441476	0.022099
H176	H	0.223503	1.411375	-0.049128
C177	C	0.703223	0.603197	0.056996
N178	N	0.707360	0.642811	0.079457
C179	C	0.796129	0.402359	0.219706
N180	N	0.836905	0.362714	0.215577
C181	C	0.518184	0.395022	-0.055458
N182	N	0.540618	0.355269	-0.077885
C183	C	0.546660	0.637103	-0.435883
N184	N	0.569109	0.539972	-0.395114
C185	C	0.242944	1.598564	-0.333398
N186	N	0.247047	1.638200	-0.374181
H187	H	0.462666	0.329327	0.310417
H188	H	0.773025	0.329107	0.000076
H189	H	0.321853	1.411347	0.049198
H190	H	0.683774	0.416047	0.319454
H191	H	0.603448	0.589572	-0.049082
H192	H	0.440607	0.559449	0.022102
C193	C	0.519562	0.754389	-0.759431
N194	N	0.542015	0.657275	-0.755312
H195	H	0.321824	1.411264	-0.239064
H196	H	0.773068	0.329242	0.310427
H197	H	0.603477	0.589643	0.239187
H198	H	0.413477	1.213016	-0.239028
C199	C	0.222098	1.397637	-0.126684
N200	N	0.217973	1.358030	-0.085911
H201	H	0.510447	0.592102	-0.047719
H202	H	0.511809	1.411213	-0.140710
H203	H	0.143237	1.584904	-0.221007
C204	C	0.378648	1.363769	-0.563996
N205	N	0.356175	1.460897	-0.604767
H206	H	0.321855	0.787853	0.049198
C207	C	0.243023	0.754331	0.056955
N208	N	0.247162	0.657204	0.079406
H209	H	0.511822	1.584764	-0.220958
C210	C	0.405773	1.598441	-0.333376
N211	N	0.383347	1.638051	-0.374163
C212	C	0.796136	0.402215	0.056986
N213	N	0.836926	0.362531	0.079441
C214	C	0.546699	0.637091	-0.303130
N215	N	0.569192	0.539990	-0.262351
H216	H	0.152233	1.671722	-0.310305
C217	C	0.378664	1.363749	-0.471088
N218	N	0.356216	1.460866	-0.475211
C219	C	0.682284	0.402272	-0.056821
N220	N	0.678148	0.362631	-0.079270
H221	H	0.241592	1.584988	0.049187
H222	H	0.152276	1.671847	0.000023
H223	H	0.143233	1.585039	-0.049135
H224	H	0.145430	0.670611	0.076314
C225	C	0.462667	1.698923	-0.322905
N226	N	0.462675	1.778198	-0.359554
C227	C	-0.141281	1.363771	-0.083930
N228	N	-0.145419	1.460897	-0.106393
C229	C	0.519555	0.754246	-0.219585
N230	N	0.542011	0.657129	-0.215463
H231	H	0.413479	1.411235	-0.239053
H232	H	0.065172	0.670600	0.076327
H233	H	0.413490	1.213153	-0.778866
C234	C	0.519555	0.754240	-0.126662
N235	N	0.542012	0.657139	-0.085883
H236	H	0.511820	0.589711	0.239156
H237	H	0.413491	0.589652	0.140849
C238	C	-0.203869	0.754267	0.056988
N239	N	-0.163086	0.657148	0.079443
C240	C	0.405758	1.246656	-0.873210
N241	N	0.383315	1.343759	-0.913989
C242	C	-0.008541	1.363800	-0.083927
N243	N	-0.012675	1.460921	-0.106382
C244	C	0.129167	1.246624	-0.056859
N245	N	0.088383	1.343738	-0.079305
H246	H	-0.298213	0.787763	0.049244
C247	C	-0.066152	0.637102	0.084082
N248	N	-0.062035	0.540002	0.106535
H249	H	0.701782	0.589614	0.140870
H250	H	-0.396551	1.213045	-0.049081
H251	H	-0.316292	1.213062	-0.049080
H252	H	0.223512	1.213133	-0.049123
C253	C	0.026767	0.637095	0.084078
N254	N	0.067548	0.539973	0.106533
C255	C	-0.234182	1.363760	-0.083915
N256	N	-0.274964	1.460878	-0.106362
C257	C	0.405757	0.402394	0.219712
N258	N	0.383315	0.362719	0.215605
C259	C	0.519569	0.754352	-0.666516
N260	N	0.542019	0.657223	-0.625745
C261	C	0.546664	0.637126	-0.528790
N262	N	0.569120	0.540006	-0.524665
C263	C	0.405728	1.246538	-0.333359
N264	N	0.383257	1.343667	-0.374130
C265	C	0.378672	1.363811	-0.696753
N266	N	0.356218	1.460933	-0.737525
H267	H	0.386411	1.330304	-0.602423
H268	H	0.538919	0.670589	-0.397469
H269	H	-0.087380	1.330302	-0.076181
C270	C	0.519576	0.402484	0.333485
N271	N	0.542039	0.362862	0.374258
