data_functionalizedCrystal
_audit_creation_method	'MofGen! by Chris Wilmer'
_symmetry_space_group_name_H-M	'P1'
_symmetry_Int_Tables_number	1
_symmetry_cell_setting	triclinic
loop_
_symmetry_equiv_pos_as_xyz
  x,y,z
_cell_length_a	21.395362
_cell_length_b	16.625546
_cell_length_c	21.395355
_cell_angle_alpha	89.981524
_cell_angle_beta	89.956060
_cell_angle_gamma	90.038346
loop_
_atom_site_label
_atom_site_type_symbol
_atom_site_fract_x
_atom_site_fract_y
_atom_site_fract_z
Zn1	Zn	0.957895	-0.320753	-0.354586
Zn2	Zn	0.957813	-0.455568	-0.249808
Zn3	Zn	0.853110	-0.320791	-0.249787
Zn4	Zn	0.853095	-0.455585	-0.354513
O5	O	0.905478	-0.388174	-0.302174
O6	O	1.045562	-0.338614	-0.340726
O7	O	0.943896	-0.437699	-0.162128
O8	O	0.867051	-0.207953	-0.263710
O9	O	1.045502	-0.437662	-0.263747
O10	O	0.944036	-0.207926	-0.340706
O11	O	0.866971	-0.338678	-0.162112
O12	O	0.765430	-0.338694	-0.263640
O13	O	0.867024	-0.437690	-0.442201
O14	O	0.765419	-0.437727	-0.340582
O15	O	0.944021	-0.338630	-0.442254
O16	O	0.943881	-0.568403	-0.263676
O17	O	0.866945	-0.568415	-0.340602
C18	C	0.742691	-0.388217	-0.302101
C19	C	0.673049	-0.388255	-0.302085
C20	C	0.640347	-0.439889	-0.342088
C21	C	0.574911	-0.439870	-0.342116
C22	C	0.542181	-0.388224	-0.302129
C23	C	0.574892	-0.336579	-0.262123
C24	C	0.640326	-0.336594	-0.262101
C25	C	0.438456	-0.381728	-0.245724
C26	C	0.373023	-0.381718	-0.245745
C27	C	0.340360	-0.388171	-0.302198
C28	C	0.373139	-0.394651	-0.358632
C29	C	0.438573	-0.394666	-0.358610
C30	C	0.471229	-0.388201	-0.302149
C31	C	0.236705	-0.439787	-0.342236
C32	C	0.171268	-0.439762	-0.342265
C33	C	0.171250	-0.336475	-0.262266
C34	C	0.236686	-0.336496	-0.262242
C35	C	0.269409	-0.388157	-0.302227
C36	C	0.905419	-0.597665	-0.302147
C37	C	0.905451	-0.687286	-0.302157
C38	C	0.905560	-1.015462	-0.302222
C39	C	0.905528	-0.924153	-0.302206
C40	C	0.905505	-0.851377	-0.302189
C41	C	0.905474	-0.760063	-0.302174
C42	C	1.068902	-0.388132	-0.302247
C43	C	1.138543	-0.388114	-0.302278
C44	C	0.905530	-0.388158	-0.465597
C45	C	0.905552	-0.388151	-0.535238
C46	C	0.905555	-0.177865	-0.302214
C47	C	0.905588	-0.088244	-0.302231
C48	C	0.945643	-0.336568	-0.567980
C49	C	0.945642	-0.336534	-0.633416
C50	C	0.905557	-0.388096	-0.666107
C51	C	0.865459	-0.439683	-0.633357
C52	C	0.865457	-0.439710	-0.567923
C53	C	0.900589	-0.460699	-0.769771
C54	C	0.900596	-0.460672	-0.835204
C55	C	0.905561	-0.388011	-0.867927
C56	C	0.910532	-0.315373	-0.835210
C57	C	0.910530	-0.315401	-0.769776
C58	C	0.905555	-0.388072	-0.737059
C59	C	0.945653	-0.336386	-0.971622
C60	C	0.945648	-0.336350	-1.037059
C61	C	0.865468	-0.439506	-1.036999
C62	C	0.865470	-0.439535	-0.971563
C63	C	0.905566	-0.387976	-0.938879
C64	C	0.905463	-0.388132	-0.139386
C65	C	0.905562	-0.387912	-0.069745
H66	H	0.263350	-0.481848	-0.374796
H67	H	0.144643	-0.481807	-0.374844
H68	H	0.465044	-0.376470	-0.199750
O69	O	0.822221	-0.495292	-0.668614
H70	H	0.832935	-0.558578	-0.656060
O71	O	0.988889	-0.280903	-0.668743
H72	H	1.016772	-0.245061	-0.635022
H73	H	0.465259	-0.399940	-0.404560
H74	H	0.978298	-0.294399	-0.945009
O75	O	0.988891	-0.280713	-1.072379
H76	H	1.016774	-0.244875	-1.038655
O77	O	0.895228	-0.539011	-0.870490
H78	H	0.891760	-0.589540	-0.836744
H79	H	0.832807	-0.481714	-0.541264
O80	O	0.539626	-0.495594	-0.385240
H81	H	0.573374	-0.531531	-0.413028
O82	O	0.675643	-0.495595	-0.385220
H83	H	0.641905	-0.531490	-0.413047
H84	H	0.346547	-0.399904	-0.404602
H85	H	0.914576	-0.256257	-0.743141
O86	O	0.915871	-0.236991	-0.870493
H87	H	0.915024	-0.249170	-0.921490
O88	O	0.135959	-0.280775	-0.219129
H89	H	0.084964	-0.289443	-0.225861
H90	H	0.896379	-0.519853	-0.743132
H91	H	0.832828	-0.481544	-0.944904
O92	O	0.822231	-0.495122	-1.072247
H93	H	0.828969	-0.486441	-1.123249
H94	H	0.263312	-0.294454	-0.229664
O95	O	0.337674	-0.374725	-0.184880
H96	H	0.350171	-0.425929	-0.154034
O97	O	0.539587	-0.280893	-0.218984
H98	H	0.509821	-0.239923	-0.247087
O99	O	0.675605	-0.280916	-0.218941
H100	H	0.641855	-0.245004	-0.191134
H101	H	0.978291	-0.294584	-0.541373
