data_functionalizedCrystal
_audit_creation_method	'MofGen! by Chris Wilmer'
_symmetry_space_group_name_H-M	'P1'
_symmetry_Int_Tables_number	1
_symmetry_cell_setting	triclinic
loop_
_symmetry_equiv_pos_as_xyz
  x,y,z
_cell_length_a	14.519709
_cell_length_b	19.188930
_cell_length_c	13.596369
_cell_angle_alpha	89.988893
_cell_angle_beta	90.000291
_cell_angle_gamma	83.412464
loop_
_atom_site_label
_atom_site_type_symbol
_atom_site_fract_x
_atom_site_fract_y
_atom_site_fract_z
O1	O	1.223300	0.091524	-0.081675
O2	O	1.723300	0.591524	0.418325
O3	O	0.954756	0.102302	-0.081706
O4	O	1.454756	0.602302	0.418294
O5	O	1.096778	-0.004715	-0.081670
O6	O	1.596778	0.495285	0.418330
O7	O	1.081278	0.198542	-0.081711
O8	O	1.581278	0.698542	0.418289
O9	O	1.096763	-0.004720	0.081912
O10	O	1.596763	0.495280	0.581912
O11	O	0.954742	0.102297	0.081877
O12	O	1.454742	0.602297	0.581877
O13	O	1.223286	0.091519	0.081908
O14	O	1.723286	0.591519	0.581908
Zn15	Zn	1.089012	0.096907	0.107865
Zn16	Zn	1.589012	0.596907	0.607865
Zn17	Zn	1.089030	0.096914	-0.107663
Zn18	Zn	1.589030	0.596914	0.392337
O19	O	1.081264	0.198536	0.081872
O20	O	1.581264	0.698536	0.581872
C21	C	0.920392	0.101797	0.000081
C22	C	1.420392	0.601797	0.500081
C23	C	0.818020	0.100292	0.000070
C24	C	1.318020	0.600292	0.500070
C25	C	0.443159	0.094751	0.000116
C26	C	0.943159	0.594751	0.500116
C27	C	0.547457	0.096290	0.000103
C28	C	1.047457	0.596290	0.500103
C29	C	0.630586	0.097521	0.000092
C30	C	1.130586	0.597521	0.500092
C31	C	0.734891	0.099060	0.000081
C32	C	1.234891	0.599060	0.500081
C33	C	1.096269	-0.030730	0.000124
C34	C	1.596269	0.469270	0.500124
C35	C	1.094762	-0.108240	0.000132
C36	C	1.594762	0.391760	0.500132
C37	C	1.178095	-0.152867	0.000146
C38	C	1.678095	0.347133	0.500146
C39	C	1.176680	-0.225696	0.000131
C40	C	1.676680	0.274304	0.500131
C41	C	1.091926	-0.253895	0.000120
C42	C	1.591926	0.246105	0.500120
C43	C	1.008582	-0.209257	0.000100
C44	C	1.508582	0.290743	0.500100
C45	C	1.009999	-0.136430	0.000106
C46	C	1.509999	0.363570	0.500106
N47	N	1.027137	-0.362132	0.055783
N48	N	1.527137	0.137868	0.555783
N49	N	1.025796	-0.431316	0.055779
N50	N	1.525796	0.068684	0.555779
C51	C	1.087649	-0.473318	0.000100
C52	C	1.587649	0.026682	0.500100
N53	N	1.150908	-0.443526	-0.055564
N54	N	1.650908	0.056474	0.444436
N55	N	1.152252	-0.374336	-0.055556
N56	N	1.652252	0.125664	0.444444
C57	C	1.090379	-0.332863	0.000113
C58	C	1.590379	0.167137	0.500113
C59	C	1.169454	-0.596916	0.000095
C60	C	1.669454	-0.096916	0.500095
C61	C	1.168035	-0.669745	0.000073
C62	C	1.668035	-0.169745	0.500073
C63	C	0.999934	-0.653305	0.000053
C64	C	1.499934	-0.153305	0.500053
C65	C	1.001355	-0.580477	0.000065
C66	C	1.501355	-0.080477	0.500065
C67	C	1.086118	-0.552287	0.000091
C68	C	1.586118	-0.052287	0.500091
C69	C	1.257649	0.092024	0.000118
C70	C	1.757649	0.592024	0.500118
C71	C	1.360021	0.093529	0.000123
C72	C	1.860021	0.593529	0.500123
C73	C	1.081773	0.224551	0.000076
C74	C	1.581773	0.724551	0.500076
C75	C	1.083280	0.302061	0.000061
C76	C	1.583280	0.802061	0.500061
N77	N	1.089006	0.096901	0.254956
N78	N	1.589006	0.596901	0.754956
N79	N	1.089043	0.096914	-0.254755
N80	N	1.589043	0.596914	0.245245
C81	C	1.089029	0.096915	0.656247
C82	C	1.589029	0.596915	1.156247
C83	C	1.089020	0.096914	0.544596
C84	C	1.589020	0.596914	1.044596
C85	C	1.089018	0.096909	0.455605
C86	C	1.589018	0.596909	0.955605
C87	C	1.089008	0.096906	0.343947
C88	C	1.589008	0.596906	0.843947
H89	H	1.247116	-0.129920	0.000164
H90	H	1.747116	0.370080	0.500164
O91	O	1.257719	-0.268958	0.000191
O92	O	1.757719	0.231042	0.500191
C93	C	1.332834	-0.228459	0.000187
C94	C	1.832834	0.271541	0.500187
H95	H	1.309205	-0.174140	0.031153
H96	H	1.809205	0.325860	0.531153
H97	H	1.391196	-0.255259	0.047692
H98	H	1.891196	0.244741	0.547692
H99	H	1.358843	-0.223231	-0.078286
H100	H	1.858843	0.276769	0.421714
H101	H	0.939574	-0.232221	0.000089
H102	H	1.439574	0.267779	0.500089
O103	O	0.928985	-0.093147	-0.000033
O104	O	1.428985	0.406853	0.499967
C105	C	0.877526	-0.105912	-0.084777
C106	C	1.377526	0.394088	0.415223
H107	H	0.900396	-0.161120	-0.113028
H108	H	1.400396	0.338880	0.386972
H109	H	0.800587	-0.100887	-0.065734
H110	H	1.300587	0.399113	0.434266
H111	H	0.889982	-0.066051	-0.144093
H112	H	1.389982	0.433949	0.355907
H113	H	0.930926	-0.676263	0.000039
H114	H	1.430926	-0.176263	0.500039
O115	O	1.251868	-0.569642	0.000059
O116	O	1.751868	-0.069642	0.500059
C117	C	1.325120	-0.624653	0.000079
C118	C	1.825120	-0.124653	0.500079
H119	H	1.299469	-0.674152	-0.030895
H120	H	1.799469	-0.174152	0.469105
H121	H	1.384310	-0.609350	-0.047411
H122	H	1.884310	-0.109350	0.452589
H123	H	1.350814	-0.634940	0.078558
H124	H	1.850814	-0.134940	0.578558
O125	O	0.920319	-0.537222	0.000107
O126	O	1.420319	-0.037222	0.500107
C127	C	0.845207	-0.577724	0.000070
C128	C	1.345207	-0.077724	0.500070
H129	H	0.868833	-0.632053	0.031036
H130	H	1.368833	-0.132053	0.531036
H131	H	0.786831	-0.550942	0.047558
H132	H	1.286831	-0.050942	0.547558
H133	H	0.819219	-0.582927	-0.078413
H134	H	1.319219	-0.082927	0.421587
O135	O	1.248966	-0.713126	-0.000091
O136	O	1.748966	-0.213126	0.499909
C137	C	1.253180	-0.755738	-0.084807
C138	C	1.753180	-0.255738	0.415193
H139	H	1.205921	-0.729115	-0.144027
H140	H	1.705921	-0.229115	0.355973
H141	H	1.327504	-0.763825	-0.113231
H142	H	1.827504	-0.263825	0.386769
H143	H	1.229525	-0.808729	-0.065668
H144	H	1.729525	-0.308729	0.434332
