data_functionalizedCrystal
_audit_creation_method	'MofGen! by Chris Wilmer'
_symmetry_space_group_name_H-M	'P1'
_symmetry_Int_Tables_number	1
_symmetry_cell_setting	triclinic
loop_
_symmetry_equiv_pos_as_xyz
  x,y,z
_cell_length_a	10.654550
_cell_length_b	19.188930
_cell_length_c	9.130313
_cell_angle_alpha	89.990369
_cell_angle_beta	89.999724
_cell_angle_gamma	83.814856
loop_
_atom_site_label
_atom_site_type_symbol
_atom_site_fract_x
_atom_site_fract_y
_atom_site_fract_z
O1	O	1.665764	0.098062	-0.121709
O2	O	1.300088	0.107405	-0.121737
O3	O	1.493479	0.001147	-0.121693
O4	O	1.472374	0.204320	-0.121752
O5	O	1.493466	0.001143	0.121905
O6	O	1.300075	0.107401	0.121862
O7	O	1.665751	0.098059	0.121890
Cu8	Cu	1.482912	0.102730	0.144118
Cu9	Cu	1.482928	0.102734	-0.143965
O10	O	1.472361	0.204317	0.121847
C11	C	1.253298	0.106717	0.000059
C12	C	1.113898	0.104665	0.000049
C13	C	1.033089	0.167228	0.000035
C14	C	0.902109	0.165295	0.000061
C15	C	0.932761	0.038231	0.000109
C16	C	1.063738	0.040164	0.000094
C17	C	1.492789	-0.024870	0.000110
C18	C	1.490737	-0.102388	0.000123
C19	C	1.604213	-0.146570	0.000138
C20	C	1.602285	-0.219407	0.000115
C21	C	1.486876	-0.248058	0.000105
C22	C	1.373386	-0.203866	0.000081
C23	C	1.375316	-0.131032	0.000090
N24	N	1.398655	-0.356641	0.082999
N25	N	1.396828	-0.425831	0.082994
C26	C	1.481052	-0.467505	0.000075
N27	N	1.567190	-0.437375	-0.082821
N28	N	1.569020	-0.368178	-0.082809
C29	C	1.484770	-0.327034	0.000094
C30	C	1.592445	-0.590665	0.000063
C31	C	1.590513	-0.663502	0.000030
C32	C	1.361610	-0.647960	0.000011
C33	C	1.363545	-0.575124	0.000029
C34	C	1.478966	-0.546481	0.000062
C35	C	1.712541	0.098746	0.000091
C36	C	1.851941	0.100799	0.000091
C37	C	1.473051	0.230334	0.000040
C38	C	1.475102	0.307852	0.000018
N39	N	1.482910	0.102727	0.346741
N40	N	1.482939	0.102731	-0.346588
C41	C	1.568572	0.055696	0.423412
C42	C	1.568584	0.055696	0.576749
C43	C	1.397268	0.149764	0.576730
C44	C	1.397251	0.149760	0.423396
H45	H	1.698197	-0.123254	0.000160
H46	H	0.891904	-0.014283	0.000154
H47	H	1.129537	-0.010785	0.000109
H48	H	1.073924	0.219748	0.000010
H49	H	1.694693	-0.255386	0.000122
C50	C	1.303056	0.201505	0.661051
C51	C	1.303139	0.201556	0.829712
C52	C	1.208927	0.253300	0.914028
C53	C	1.114630	0.304993	0.829683
C54	C	1.114543	0.304944	0.661012
C55	C	1.208756	0.253200	0.576696
H56	H	1.372946	0.163288	0.892159
H57	H	1.208992	0.253336	1.038890
H58	H	1.044888	0.343297	0.892098
H59	H	1.044736	0.343213	0.598566
H60	H	1.208691	0.253164	0.451834
H61	H	0.836318	0.216240	0.000053
H62	H	1.638319	0.017397	0.361004
H63	H	1.682922	-0.699475	0.000035
H64	H	1.279418	-0.227199	0.000069
H65	H	1.638336	0.017398	0.639171
C66	C	1.238719	-0.526519	0.000038
C67	C	1.111767	-0.558030	0.000031
C68	C	0.986934	-0.509424	0.000038
C69	C	0.989053	-0.429308	0.000052
C70	C	1.116009	-0.397794	0.000059
C71	C	1.240842	-0.446399	0.000052
H72	H	1.110195	-0.617340	0.000021
H73	H	0.892953	-0.532754	0.000033
H74	H	0.896644	-0.393328	0.000057
H75	H	1.117581	-0.338484	0.000069
H76	H	1.334823	-0.423070	0.000057
H77	H	1.282908	-0.095058	0.000077
H78	H	1.686428	-0.567342	0.000083
H79	H	1.267641	-0.671287	-0.000005
H80	H	1.327489	0.188059	0.360966
