data_functionalizedCrystal
_audit_creation_method	'MofGen! by Chris Wilmer'
_symmetry_space_group_name_H-M	'P1'
_symmetry_Int_Tables_number	1
_symmetry_cell_setting	triclinic
loop_
_symmetry_equiv_pos_as_xyz
  x,y,z
_cell_length_a	6.817900
_cell_length_b	19.551823
_cell_length_c	19.453114
_cell_angle_alpha	96.328084
_cell_angle_beta	101.709288
_cell_angle_gamma	101.663376
loop_
_atom_site_label
_atom_site_type_symbol
_atom_site_fract_x
_atom_site_fract_y
_atom_site_fract_z
V1	V	-3.997770	-0.097403	-0.219330
O2	O	-3.995107	0.003932	-0.214817
O3	O	-3.940569	-0.192415	-0.218155
O4	O	-3.940794	-0.096234	-0.314839
O5	O	-3.994880	-0.092915	-0.117463
V6	V	-4.483650	-0.085244	-0.207106
O7	O	-4.253859	-0.124077	-0.246143
O8	O	-4.677759	-0.058570	-0.180293
O9	O	-4.317645	0.009767	-0.208281
O10	O	-4.603710	-0.186579	-0.211619
O11	O	-4.603937	-0.089732	-0.308973
O12	O	-4.317420	-0.086414	-0.111597
C13	C	-3.783706	-0.215566	-0.214779
C14	C	-3.818166	-0.293241	-0.214455
C15	C	-4.015806	-0.333298	-0.217815
C16	C	-4.048189	-0.406283	-0.217517
C17	C	-3.882914	-0.439206	-0.213845
C18	C	-3.685249	-0.399141	-0.210489
C19	C	-3.652875	-0.326158	-0.210793
C20	C	-3.773685	-0.545546	-0.169305
C21	C	-3.806064	-0.618527	-0.168997
C22	C	-3.982761	-0.664309	-0.212909
C23	C	-4.127103	-0.637101	-0.257122
C24	C	-4.094729	-0.564118	-0.257427
C25	C	-3.917998	-0.518343	-0.213515
C26	C	-4.215527	-0.783505	-0.215948
C27	C	-4.247906	-0.856492	-0.215655
C28	C	-3.884956	-0.849347	-0.208619
C29	C	-3.852586	-0.776363	-0.208920
C30	C	-4.017878	-0.743446	-0.212581
C31	C	-3.783992	-0.092877	-0.338108
C32	C	-3.818633	-0.092549	-0.416189
C33	C	-4.016364	-0.095902	-0.456458
C34	C	-4.048913	-0.095594	-0.529823
C35	C	-3.883727	-0.091947	-0.562920
C36	C	-3.685965	-0.088590	-0.522641
C37	C	-3.653418	-0.088890	-0.449276
N38	N	-3.820565	-0.128848	-0.681834
N39	N	-3.851496	-0.128564	-0.751529
C40	C	-3.981777	-0.091039	-0.783965
N41	N	-4.079993	-0.053818	-0.744076
N42	N	-4.049066	-0.054106	-0.674376
C43	C	-3.918998	-0.091620	-0.642472
C44	C	-4.214814	-0.094058	-0.903785
C45	C	-4.247354	-0.093745	-0.977151
C46	C	-3.884403	-0.086747	-0.969969
C47	C	-3.851866	-0.087053	-0.896603
C48	C	-4.017080	-0.090711	-0.863516
C49	C	-4.137850	0.032915	-0.211656
C50	C	-4.082627	0.110590	-0.211984
C51	C	-4.137564	-0.089773	-0.088325
C52	C	-4.082162	-0.090097	-0.010243
H53	H	-4.209137	-0.438904	-0.220253
O54	O	-4.461087	-0.899698	-0.219273
H55	H	-4.566922	-0.895016	-0.269132
O56	O	-4.194543	-0.099842	-0.420767
H57	H	-4.163469	-0.052277	-0.379852
H58	H	-4.350117	-0.756703	-0.218928
H59	H	-3.688537	-0.640673	-0.132991
H60	H	-3.750387	-0.876153	-0.205634
O61	O	-3.639404	-0.733156	-0.205290
H62	H	-3.644661	-0.676877	-0.206125
O63	O	-4.392983	-0.097989	-0.868087
H64	H	-4.535947	-0.100256	-0.908416
O65	O	-4.262192	-0.099212	-0.573271
H66	H	-4.367864	-0.148824	-0.568577
H67	H	-3.629783	-0.508275	-0.133549
H68	H	-3.550683	-0.425952	-0.207501
H69	H	-3.551470	-0.085618	-0.549593
H70	H	-3.491931	-0.293544	-0.208058
O71	O	-3.706223	-0.082816	-1.005654
H72	H	-3.762073	-0.083174	-1.063436
O73	O	-3.440146	-0.085282	-0.405837
H74	H	-3.330743	-0.082697	-0.441174
O75	O	-4.250395	-0.534775	-0.305116
H76	H	-4.198195	-0.476335	-0.297945
O77	O	-3.638595	-0.083437	-0.853163
H78	H	-3.639997	-0.131273	-0.827218
O79	O	-4.194091	-0.297798	-0.221797
H80	H	-4.336975	-0.337921	-0.224099
O81	O	-4.317689	-0.686469	-0.304496
H82	H	-4.315945	-0.741790	-0.296866
H83	H	-4.408371	-0.096471	-1.009937
