data_functionalizedCrystal
_audit_creation_method	'MofGen! by Chris Wilmer'
_symmetry_space_group_name_H-M	'P1'
_symmetry_Int_Tables_number	1
_symmetry_cell_setting	triclinic
loop_
_symmetry_equiv_pos_as_xyz
  x,y,z
_cell_length_a	10.654541
_cell_length_b	16.109301
_cell_length_c	14.586319
_cell_angle_alpha	90.000787
_cell_angle_beta	89.996435
_cell_angle_gamma	96.027295
loop_
_atom_site_label
_atom_site_type_symbol
_atom_site_fract_x
_atom_site_fract_y
_atom_site_fract_z
O1	O	0.161419	-1.104090	-0.076182
O2	O	0.181508	-0.862147	-0.076196
O3	O	-0.011352	-0.988682	-0.076183
O4	O	0.354278	-0.977554	-0.076195
O5	O	-0.011354	-0.988673	0.076298
O6	O	0.181505	-0.862138	0.076284
O7	O	0.161416	-1.104081	0.076299
Cu8	Cu	0.171460	-0.983109	0.090214
Cu9	Cu	0.171464	-0.983119	-0.090112
O10	O	0.354276	-0.977546	0.076286
C11	C	0.180692	-0.831163	0.000042
C12	C	0.178253	-0.738853	0.000037
C13	C	-0.058140	-0.987861	0.000057
C14	C	-0.197550	-0.985418	0.000055
N15	N	0.171457	-0.983107	0.217046
C16	C	-0.227574	-1.136725	0.000076
C17	C	-0.308079	-1.211227	0.000088
C18	C	-0.439066	-1.208926	0.000085
C19	C	-0.489549	-1.132115	0.000067
C20	C	-0.409044	-1.057613	0.000055
C21	C	-0.278056	-1.059922	0.000060
C22	C	-0.379021	-0.906308	0.000027
C23	C	-0.248034	-0.908607	0.000037
C24	C	-0.429504	-0.829496	0.000010
C25	C	-0.348998	-0.754992	0.000004
C26	C	-0.218004	-0.757296	0.000008
C27	C	-0.167529	-0.834104	0.000025
C28	C	0.401064	-0.978367	0.000044
C29	C	0.540474	-0.980810	0.000040
C30	C	0.162231	-1.135065	0.000058
C31	C	0.164671	-1.227375	0.000058
C32	C	0.287019	-0.517227	0.000044
C33	C	0.284717	-0.430493	0.000050
C34	C	0.055896	-0.449008	0.000053
C35	C	0.058200	-0.535740	0.000054
C36	C	0.173765	-0.569847	0.000045
C37	C	0.169159	-0.396381	0.000050
C38	C	0.166662	-0.302340	0.000056
C39	C	0.176262	-0.663894	0.000040
N40	N	0.171457	-0.983127	-0.216944
C41	C	0.086088	-1.039156	0.452058
C42	C	0.086085	-1.039158	0.548040
C43	C	0.256830	-0.927072	0.548037
C44	C	0.256826	-0.927067	0.452058
C45	C	0.171457	-0.983113	0.404071
C46	C	0.171457	-0.983121	0.596032
C47	C	0.171455	-0.983123	0.700099
C48	C	0.171457	-0.983110	0.299997
H49	H	-0.266961	-1.273765	0.000110
H50	H	-0.038193	-0.421227	0.000067
H51	H	0.381120	-0.544993	0.000043
N52	N	0.406891	-0.373759	0.000054
H53	H	0.411065	-0.337354	-0.056465
H54	H	0.410972	-0.337421	0.056622
N55	N	-0.006005	-1.099581	0.400289
H56	H	0.041986	-1.136668	0.360455
H57	H	-0.060077	-1.135028	0.445307
N58	N	-0.630828	-1.129639	0.000058
H59	H	-0.656497	-1.099374	0.056577
H60	H	-0.656380	-1.099407	-0.056510
N61	N	-0.131176	-0.676939	-0.000013
H62	H	-0.183038	-0.627936	-0.000027
H63	H	-0.076182	-0.674585	0.056515
H64	H	0.326338	-0.881442	0.587118
H65	H	0.326345	-0.881426	0.412984
H66	H	0.016568	-1.084792	0.587108
N67	N	-0.086296	-1.139206	0.000095
H68	H	-0.066531	-1.199167	0.000112
H69	H	-0.048928	-1.110028	-0.056435
N70	N	-0.570780	-0.827005	0.000006
H71	H	-0.608226	-0.856163	-0.056511
H72	H	-0.608125	-0.856126	0.056576
N73	N	-0.403437	-0.672151	-0.000017
H74	H	-0.457102	-0.667831	-0.056547
H75	H	-0.457065	-0.667867	0.056540
N76	N	-0.026252	-0.836589	0.000033
H77	H	-0.006491	-0.896551	0.000045
H78	H	0.011106	-0.807412	-0.056500
H79	H	-0.504614	-1.269593	0.000087
N80	N	-0.063959	-0.592503	0.000065
H81	H	-0.137518	-0.557737	0.000066
H82	H	-0.067987	-0.628897	-0.056458
