data_functionalizedCrystal
_audit_creation_method	'MofGen! by Chris Wilmer'
_symmetry_space_group_name_H-M	'P1'
_symmetry_Int_Tables_number	1
_symmetry_cell_setting	triclinic
loop_
_symmetry_equiv_pos_as_xyz
  x,y,z
_cell_length_a	19.188930
_cell_length_b	19.188924
_cell_length_c	9.730223
_cell_angle_alpha	89.993539
_cell_angle_beta	89.982832
_cell_angle_gamma	83.143372
loop_
_atom_site_label
_atom_site_type_symbol
_atom_site_fract_x
_atom_site_fract_y
_atom_site_fract_z
O1	O	0.926141	0.087168	-0.114738
O2	O	1.426141	0.587168	0.385262
O3	O	0.722830	0.098902	-0.114644
O4	O	1.222830	0.598902	0.385356
O5	O	0.830355	-0.008621	-0.114678
O6	O	1.330355	0.491379	0.385322
O7	O	0.818616	0.194691	-0.114705
O8	O	1.318616	0.694691	0.385295
O9	O	0.830348	-0.008624	0.113902
O10	O	1.330348	0.491376	0.613902
O11	O	0.722823	0.098899	0.113935
O12	O	1.222823	0.598899	0.613935
O13	O	0.926135	0.087165	0.113842
O14	O	1.426135	0.587165	0.613842
Zn15	Zn	0.824478	0.093032	0.150181
Zn16	Zn	1.324478	0.593032	0.650181
Zn17	Zn	0.824487	0.093035	-0.150983
Zn18	Zn	1.324487	0.593035	0.349017
O19	O	0.818609	0.194688	0.113875
O20	O	1.318609	0.694688	0.613875
C21	C	0.696815	0.098521	-0.000342
C22	C	1.196815	0.598521	0.499658
C23	C	0.619311	0.097380	-0.000306
C24	C	1.119311	0.597380	0.499694
C25	C	0.574385	0.160471	-0.000336
C26	C	1.074385	0.660471	0.499664
C27	C	0.501562	0.159399	-0.000351
C28	C	1.001562	0.659399	0.499649
C29	C	0.473667	0.095233	-0.000364
C30	C	0.973667	0.595233	0.499636
C31	C	0.518602	0.032134	-0.000326
C32	C	1.018602	0.532134	0.499674
C33	C	0.591424	0.033207	-0.000297
C34	C	1.091424	0.533207	0.499703
N35	N	0.365690	0.046187	-0.078208
N36	N	0.865690	0.546187	0.421792
N37	N	0.296511	0.045171	-0.078238
N38	N	0.796511	0.545171	0.421762
C39	C	0.254258	0.091995	-0.000447
C40	C	0.754258	0.591995	0.499553
N41	N	0.283795	0.139883	0.077358
N42	N	0.783795	0.639883	0.577358
N43	N	0.352980	0.140900	0.077382
N44	N	0.852980	0.640900	0.577382
C45	C	0.394704	0.094062	-0.000394
C46	C	0.894704	0.594062	0.499606
C47	C	0.130368	0.153928	-0.000492
C48	C	0.630368	0.653928	0.499508
C49	C	0.057543	0.152854	-0.000498
C50	C	0.557543	0.652854	0.499502
C51	C	0.074585	0.025586	-0.000487
C52	C	0.574585	0.525586	0.499513
C53	C	0.147409	0.026663	-0.000466
C54	C	0.647409	0.526663	0.499534
C55	C	0.175295	0.090835	-0.000475
C56	C	0.675295	0.590835	0.499525
C57	C	0.829973	-0.034634	-0.000386
C58	C	1.329973	0.465366	0.499614
C59	C	0.828834	-0.112138	-0.000382
C60	C	1.328834	0.387862	0.499618
C61	C	0.828306	-0.148536	-0.124981
C62	C	1.328306	0.351464	0.375019
C63	C	0.827226	-0.221358	-0.124991
C64	C	1.327226	0.278642	0.375009
C65	C	0.826688	-0.257783	-0.000395
C66	C	1.326688	0.242217	0.499605
C67	C	0.827212	-0.221376	0.124221
C68	C	1.327212	0.278624	0.624221
C69	C	0.828285	-0.148554	0.124227
C70	C	1.328285	0.351446	0.624227
N71	N	0.864733	-0.377447	0.092321
N72	N	1.364733	0.122553	0.592321
N73	N	0.863715	-0.446626	0.092307
N74	N	1.363715	0.053374	0.592307
C75	C	0.823454	-0.477192	-0.000407
C76	C	1.323454	0.022808	0.499593
N77	N	0.784257	-0.435968	-0.093126
N78	N	1.284257	0.064032	0.406874
N79	N	0.785278	-0.366784	-0.093115
N80	N	1.285278	0.133216	0.406885
C81	C	0.825524	-0.336746	-0.000388
C82	C	1.325524	0.163254	0.499612
C83	C	0.821754	-0.592552	-0.125025
C84	C	1.321754	-0.092552	0.374975
C85	C	0.820670	-0.665375	-0.125030
C86	C	1.320670	-0.165375	0.374970
C87	C	0.820663	-0.665393	0.124185
C88	C	1.320663	-0.165393	0.624185
C89	C	0.821740	-0.592570	0.124187
C90	C	1.321740	-0.092570	0.624187
C91	C	0.822289	-0.556154	-0.000422
C92	C	1.322289	-0.056154	0.499578
C93	C	0.952149	0.087546	-0.000463
C94	C	1.452149	0.587546	0.499537
C95	C	1.029654	0.088687	-0.000508
C96	C	1.529654	0.588687	0.499492
C97	C	0.818992	0.220700	-0.000419
C98	C	1.318992	0.720700	0.499581
C99	C	0.820131	0.298205	-0.000432
C100	C	1.320131	0.798205	0.499568
N101	N	0.824477	0.093029	0.355717
N102	N	1.324477	0.593029	0.855717
N103	N	0.824493	0.093033	-0.356520
N104	N	1.324493	0.593033	0.143480
C105	C	0.872105	0.045437	0.427628
C106	C	1.372105	0.545437	0.927628
C107	C	0.872112	0.045437	0.571511
C108	C	1.372112	0.545437	1.071511
C109	C	0.776860	0.140626	0.571559
C110	C	1.276860	0.640626	1.071559
C111	C	0.776850	0.140622	0.427679
C112	C	1.276850	0.640622	0.927679
H113	H	0.153075	0.206181	-0.000479
H114	H	0.653075	0.706181	0.499521
O115	O	0.918294	-0.000908	0.357816
O116	O	1.418294	0.499092	0.857816
C117	C	0.907155	-0.069985	0.393081
C118	C	1.407155	0.430015	0.893081
H119	H	0.851255	-0.070167	0.432660
H120	H	1.351255	0.429833	0.932660
H121	H	0.915294	-0.105069	0.298494
H122	H	1.415294	0.394931	0.798494
H123	H	0.945908	-0.090577	0.476602
H124	H	1.445908	0.409423	0.976602
H125	H	0.738085	0.179377	0.630165
H126	H	1.238085	0.679377	1.130165
O127	O	0.013930	0.214164	-0.000769
O128	O	0.513930	0.714164	0.499231
C129	C	0.026582	0.253139	-0.119142
C130	C	0.526582	0.753139	0.380858
H131	H	0.051604	0.216199	-0.201869
H132	H	0.551604	0.716199	0.298131
H133	H	-0.025163	0.281297	-0.158901
H134	H	0.474837	0.781297	0.341099
H135	H	0.063536	0.293438	-0.092377
H136	H	0.563536	0.793438	0.407623
O137	O	0.918284	-0.000860	0.641427
O138	O	1.418284	0.499140	1.141427
C139	C	0.881038	-0.043835	0.724721
C140	C	1.381038	0.456165	1.224721
H141	H	0.825980	-0.044882	0.681408
H142	H	1.325980	0.455118	1.181408
H143	H	0.909700	-0.099400	0.726345
H144	H	1.409700	0.400600	1.226345
H145	H	0.877316	-0.021974	0.833763
H146	H	1.377316	0.478026	1.333763
H147	H	0.464976	0.210777	-0.000372
H148	H	0.964976	0.710777	0.499628
O149	O	0.730555	0.186924	0.358028
O150	O	1.230555	0.686924	0.858028
C151	C	0.688514	0.228925	0.452393
C152	C	1.188514	0.728925	0.952393
H153	H	0.717140	0.229650	0.554932
H154	H	1.217140	0.729650	1.054932
H155	H	0.677683	0.284708	0.410803
H156	H	1.177683	0.784708	0.910803
H157	H	0.636723	0.206379	0.467748
H158	H	1.136723	0.706379	0.967748
O159	O	0.047381	-0.036684	-0.000563
O160	O	0.547381	0.463316	0.499437
C161	C	-0.026528	-0.024105	-0.000556
C162	C	0.473472	0.475895	0.499444
H163	H	-0.043786	0.030436	-0.043836
H164	H	0.456214	0.530436	0.456164
H165	H	-0.048747	-0.065149	-0.066927
H166	H	0.451253	0.434851	0.433073
H167	H	-0.046816	-0.027429	0.109098
H168	H	0.453184	0.472571	0.609098
H169	H	0.628003	-0.018171	-0.000274
H170	H	1.128003	0.481829	0.499726
H171	H	0.826792	-0.250998	-0.226458
H172	H	1.326792	0.249002	0.273542
H173	H	0.828712	-0.118919	0.225694
H174	H	1.328712	0.381081	0.725694
O175	O	0.601357	0.222867	-0.000269
O176	O	1.101357	0.722867	0.499731
C177	C	0.546083	0.278324	-0.000331
C178	C	1.046083	0.778324	0.499669
H179	H	0.496659	0.258902	0.042921
H180	H	0.996659	0.758902	0.542921
H181	H	0.561145	0.323137	0.066037
H182	H	1.061145	0.823137	0.566037
H183	H	0.535748	0.297776	-0.109998
H184	H	1.035748	0.797776	0.390002
O185	O	0.826594	-0.256819	0.245167
O186	O	1.326594	0.243181	0.745167
C187	C	0.765510	-0.290835	0.252657
C188	C	1.265510	0.209165	0.752657
H189	H	0.745201	-0.299040	0.144479
H190	H	1.245201	0.200960	0.644479
H191	H	0.778349	-0.343867	0.305387
H192	H	1.278349	0.156133	0.805387
H193	H	0.723586	-0.257106	0.314162
H194	H	1.223586	0.242894	0.814162
O195	O	0.822247	-0.557275	-0.246186
O196	O	1.322247	-0.057275	0.253814
C197	C	0.821559	-0.605022	-0.356167
C198	C	1.321559	-0.105022	0.143833
H199	H	0.798692	-0.653975	-0.319632
H200	H	1.298692	-0.153975	0.180368
H201	H	0.787982	-0.579435	-0.443294
H202	H	1.287982	-0.079435	0.056706
H203	H	0.877447	-0.620264	-0.394509
H204	H	1.377447	-0.120264	0.105491
H205	H	0.495885	-0.020111	-0.000355
H206	H	0.995885	0.479889	0.499645
H207	H	0.820237	-0.695008	-0.226497
H208	H	1.320237	-0.195008	0.273503
O209	O	0.190954	-0.034689	-0.000514
O210	O	0.690954	0.465311	0.499486
C211	C	0.150721	-0.091556	-0.000492
C212	C	0.650721	0.408444	0.499508
H213	H	0.096323	-0.073667	-0.043789
H214	H	0.596323	0.426333	0.456211
H215	H	0.177737	-0.135748	-0.066843
H216	H	0.677737	0.364252	0.433157
H217	H	0.145569	-0.111237	0.109168
H218	H	0.645569	0.388763	0.609168
O219	O	0.828682	-0.113210	-0.246099
O220	O	1.328682	0.386790	0.253901
C221	C	0.767962	-0.122974	-0.321801
C222	C	1.267962	0.377026	0.178199
H223	H	0.725434	-0.137322	-0.248800
H224	H	1.225434	0.362678	0.251200
H225	H	0.748347	-0.072393	-0.378383
H226	H	1.248347	0.427607	0.121617
H227	H	0.781004	-0.167102	-0.399435
H228	H	1.281004	0.332898	0.100565
O229	O	0.820032	-0.700823	0.245140
O230	O	1.320032	-0.200823	0.745140
C231	C	0.758939	-0.734826	0.252619
C232	C	1.258939	-0.234826	0.752619
H233	H	0.738638	-0.743036	0.144436
H234	H	1.238638	-0.243036	0.644436
H235	H	0.771763	-0.787855	0.305369
H236	H	1.271763	-0.287855	0.805369
H237	H	0.717015	-0.701084	0.314100
H238	H	1.217015	-0.201084	0.814100
O239	O	0.822294	-0.557323	0.245347
O240	O	1.322294	-0.057323	0.745347
C241	C	0.821571	-0.605082	0.355320
C242	C	1.321571	-0.105082	0.855320
H243	H	0.842903	-0.659949	0.318775
H244	H	1.342903	-0.159949	0.818775
H245	H	0.855772	-0.588588	0.442448
H246	H	1.355772	-0.088588	0.942448
H247	H	0.765456	-0.605330	0.393665
H248	H	1.265456	-0.105330	0.893665
