data_functionalizedCrystal
_audit_creation_method	'MofGen! by Chris Wilmer'
_symmetry_space_group_name_H-M	'P1'
_symmetry_Int_Tables_number	1
_symmetry_cell_setting	triclinic
loop_
_symmetry_equiv_pos_as_xyz
  x,y,z
_cell_length_a	18.050591
_cell_length_b	18.050589
_cell_length_c	18.050582
_cell_angle_alpha	89.981795
_cell_angle_beta	89.979078
_cell_angle_gamma	90.024227
loop_
_atom_site_label
_atom_site_type_symbol
_atom_site_fract_x
_atom_site_fract_y
_atom_site_fract_z
Zn1	Zn	1.135293	-0.295786	-0.420054
Zn2	Zn	1.135203	-0.419969	-0.295873
Zn3	Zn	1.011112	-0.295789	-0.295865
Zn4	Zn	1.011060	-0.419930	-0.420009
O5	O	1.073167	-0.357868	-0.357950
O6	O	1.239205	-0.312274	-0.403603
O7	O	1.118727	-0.403514	-0.191948
O8	O	1.027644	-0.191864	-0.312354
O9	O	1.239140	-0.403511	-0.312369
O10	O	1.118879	-0.191862	-0.403595
O11	O	1.027557	-0.312279	-0.191942
O12	O	0.907180	-0.312241	-0.312311
O13	O	1.027555	-0.403444	-0.523940
O14	O	0.907142	-0.403447	-0.403519
O15	O	1.118828	-0.312236	-0.523973
O16	O	1.118676	-0.523888	-0.312325
O17	O	1.027468	-0.523860	-0.403527
C18	C	0.880215	-0.357841	-0.357909
C19	C	0.797669	-0.357847	-0.357909
C20	C	0.598217	-0.308191	-0.308425
C21	C	0.548798	-0.375927	-0.290154
C22	C	0.646539	-0.357869	-0.357943
C23	C	0.548877	-0.290157	-0.376212
C24	C	0.500553	-0.357885	-0.357974
C25	C	0.598206	-0.425641	-0.339637
C26	C	0.598289	-0.339825	-0.425726
C27	C	0.548892	-0.407607	-0.407481
C28	C	0.730637	-0.357859	-0.357923
C29	C	0.416457	-0.357903	-0.357994
C30	C	1.073077	-0.550820	-0.357938
C31	C	1.073107	-0.633366	-0.357958
C32	C	1.023557	-0.832828	-0.407536
C33	C	1.005459	-0.882261	-0.339767
C34	C	1.073180	-0.784497	-0.357967
C35	C	1.091314	-0.882146	-0.425744
C36	C	1.073249	-0.930482	-0.357983
C37	C	1.055046	-0.832842	-0.290162
C38	C	1.140933	-0.832722	-0.376186
C39	C	1.122861	-0.882133	-0.308370
C40	C	1.073138	-0.700398	-0.357959
C41	C	1.073291	-1.014578	-0.357983
C42	C	1.266872	-0.357897	-0.357992
C43	C	1.349418	-0.357909	-0.358010
C44	C	1.073196	-0.357835	-0.551656
C45	C	1.073208	-0.357821	-0.634202
C46	C	1.073277	-0.164163	-0.357979
C47	C	1.073324	-0.081617	-0.357991
C48	C	1.023612	-0.407353	-0.833635
C49	C	1.091367	-0.425511	-0.883034
C50	C	1.073245	-0.357765	-0.785332
C51	C	1.005527	-0.339586	-0.883014
C52	C	1.073274	-0.357711	-0.931317
C53	C	1.141036	-0.375958	-0.833645
C54	C	1.055150	-0.290002	-0.833620
C55	C	1.122952	-0.308134	-0.882998
C56	C	1.073227	-0.357797	-0.701234
C57	C	1.073300	-0.357679	-1.015414
C58	C	1.073181	-0.357848	-0.164998
C59	C	1.073312	-0.357652	-0.082453
H60	H	0.527169	-0.232894	-0.391625
O61	O	0.937251	-0.321175	-0.908974
C62	C	0.864962	-0.235315	-0.981212
C63	C	0.942329	-0.256082	-0.951880
H64	H	0.869038	-0.182678	-1.015896
H65	H	0.842596	-0.282376	-1.016895
H66	H	0.825961	-0.225493	-0.932509
H67	H	0.981385	-0.265892	-1.000538
H68	H	0.964633	-0.209010	-0.916175
O69	O	1.109664	-0.493793	-0.909062
C70	C	1.130736	-0.570084	-1.016542
C71	C	1.110034	-0.492714	-0.987167
H72	H	1.131027	-0.569241	-1.079693
H73	H	1.188089	-0.585994	-0.995446
H74	H	1.088364	-0.612313	-0.996224
H75	H	1.152356	-0.450433	-1.007472
H76	H	1.052662	-0.476867	-1.008257
H77	H	1.164855	-0.903645	-0.266409
H78	H	0.981678	-0.449342	-0.811961
H79	H	1.039669	-0.811275	-0.232834
H80	H	1.198184	-0.810948	-0.391613
H81	H	0.620045	-0.324530	-0.483019
O82	O	1.036763	-0.221743	-0.807608
C83	C	0.951688	-0.149723	-0.734176
C84	C	0.972447	-0.227069	-0.763572
H85	H	0.899678	-0.154000	-0.698580
H86	H	0.999207	-0.126920	-0.699390
H87	H	0.940784	-0.110975	-0.782848
H88	H	0.983338	-0.265873	-0.714946
H89	H	0.924916	-0.249812	-0.798381
H90	H	0.527370	-0.449673	-0.449370
H91	H	1.198333	-0.391377	-0.812050
H92	H	0.619875	-0.266226	-0.266503
H93	H	0.981531	-0.811178	-0.449395
H94	H	0.527060	-0.391202	-0.232844
O95	O	1.173195	-0.258163	-0.908665
C96	C	1.301327	-0.220836	-0.912456
C97	C	1.244507	-0.277486	-0.883352
H98	H	1.358993	-0.236429	-0.891990
H99	H	1.300696	-0.220836	-0.975611
H100	H	1.286343	-0.163267	-0.891271
H101	H	1.259451	-0.335082	-0.904482
H102	H	1.245149	-0.277421	-0.820198
H103	H	1.106625	-0.903802	-0.483056
O104	O	0.624030	-0.493979	-0.321239
C105	C	0.696706	-0.599432	-0.358814
C106	C	0.667524	-0.522043	-0.379738
H107	H	0.731863	-0.622152	-0.406104
H108	H	0.731881	-0.595282	-0.306535
H109	H	0.647924	-0.638180	-0.348326
H110	H	0.716260	-0.483252	-0.390264
H111	H	0.632326	-0.526252	-0.431996
O112	O	0.937096	-0.908188	-0.321506
C113	C	0.807462	-0.912446	-0.353057
C114	C	0.884845	-0.883053	-0.373826
H115	H	0.765194	-0.892123	-0.395338
H116	H	0.808244	-0.975598	-0.352745
H117	H	0.791656	-0.891334	-0.295674
H118	H	0.900699	-0.904110	-0.431213
H119	H	0.884022	-0.819902	-0.374087
