data_functionalizedCrystal
_audit_creation_method	'MofGen! by Chris Wilmer'
_symmetry_space_group_name_H-M	'P1'
_symmetry_Int_Tables_number	1
_symmetry_cell_setting	triclinic
loop_
_symmetry_equiv_pos_as_xyz
  x,y,z
_cell_length_a	8.597340
_cell_length_b	14.044220
_cell_length_c	7.088929
_cell_angle_alpha	96.793068
_cell_angle_beta	76.045281
_cell_angle_gamma	89.223217
loop_
_atom_site_label
_atom_site_type_symbol
_atom_site_fract_x
_atom_site_fract_y
_atom_site_fract_z
O1	O	2.119898	0.130164	-0.190218
O2	O	1.657418	0.145636	-0.114029
O3	O	1.881718	-0.000080	-0.150999
O4	O	1.895598	0.275880	-0.153248
O5	O	1.911687	-0.019598	-0.473914
O6	O	1.687387	0.126118	-0.436943
O7	O	2.149867	0.110646	-0.513133
Cu8	Cu	1.921363	0.116600	-0.504523
Cu9	Cu	1.885921	0.139682	-0.122639
O10	O	1.925567	0.256362	-0.476162
C11	C	1.612857	0.135303	-0.265677
C12	C	1.435431	0.133580	-0.236448
C13	C	1.890625	-0.045148	-0.311456
C14	C	1.872498	-0.150359	-0.308472
C15	C	1.839354	-0.342992	-0.302984
C16	C	1.967922	-0.400731	-0.324159
C17	C	1.949481	-0.507918	-0.321105
C18	C	1.857793	-0.235794	-0.306037
C19	C	2.194427	0.120979	-0.361480
C20	C	2.371852	0.122703	-0.390696
C21	C	1.916659	0.301431	-0.315701
C22	C	1.934786	0.406642	-0.318672
N23	N	1.946303	0.100365	-0.773121
N24	N	1.860993	0.155909	0.145958
H25	H	2.091831	-0.369655	-0.344443
N26	N	1.750045	0.228103	-0.733341
N27	N	1.604426	0.225640	-0.731584
H28	H	1.526064	0.276627	-0.646327
N29	N	1.683914	-0.381973	-0.277364
N30	N	1.668969	-0.470255	-0.274891
H31	H	1.559191	-0.497797	-0.256802
N32	N	2.057225	0.028158	-0.893854
N33	N	2.073950	0.017277	-1.075314
H34	H	2.152283	-0.033721	-1.160585
H35	H	1.453158	0.114701	-0.545123
H36	H	1.354117	0.141575	-0.082011
