data_functionalizedCrystal
_audit_creation_method	'MofGen! by Chris Wilmer'
_symmetry_space_group_name_H-M	'P1'
_symmetry_Int_Tables_number	1
_symmetry_cell_setting	triclinic
loop_
_symmetry_equiv_pos_as_xyz
  x,y,z
_cell_length_a	19.188905
_cell_length_b	16.109301
_cell_length_c	15.186229
_cell_angle_alpha	89.994833
_cell_angle_beta	89.989522
_cell_angle_gamma	83.298018
loop_
_atom_site_label
_atom_site_type_symbol
_atom_site_fract_x
_atom_site_fract_y
_atom_site_fract_z
O1	O	0.926397	0.103697	-0.073376
O2	O	0.723116	0.117692	-0.073347
O3	O	0.830341	-0.010356	-0.073353
O4	O	0.819172	0.231745	-0.073370
O5	O	0.830334	-0.010357	0.073104
O6	O	0.723109	0.117690	0.073111
O7	O	0.926390	0.103695	0.073081
Zn8	Zn	0.824748	0.110692	0.096349
Zn9	Zn	0.824758	0.110695	-0.096615
O10	O	0.819165	0.231743	0.073088
C11	C	0.829885	-0.041330	-0.000124
C12	C	0.828529	-0.133620	-0.000123
C13	C	0.697100	0.117241	-0.000114
C14	C	0.619592	0.115891	-0.000103
C15	C	0.889000	-0.356100	-0.000146
C16	C	0.887720	-0.442816	-0.000153
C17	C	0.760501	-0.422506	-0.000131
C18	C	0.761782	-0.335792	-0.000130
C19	C	0.826033	-0.302591	-0.000133
C20	C	0.823473	-0.476022	-0.000141
C21	C	0.822085	-0.570043	-0.000148
C22	C	0.827422	-0.208564	-0.000127
C23	C	0.583202	0.115244	-0.079939
C24	C	0.510376	0.113966	-0.079950
C25	C	0.473943	0.113319	-0.000120
C26	C	0.510341	0.113971	0.079727
C27	C	0.583165	0.115258	0.079736
N28	N	0.364805	0.063986	0.059293
N29	N	0.295625	0.062763	0.059280
C30	C	0.254527	0.109446	-0.000141
N31	N	0.285224	0.157389	-0.059560
N32	N	0.354411	0.158609	-0.059549
C33	C	0.394977	0.111925	-0.000120
C34	C	0.139171	0.107414	-0.079994
C35	C	0.066342	0.106142	-0.080002
C36	C	0.066310	0.106139	0.079677
C37	C	0.139136	0.107420	0.079682
C38	C	0.175563	0.108053	-0.000156
C39	C	0.952406	0.104146	-0.000154
C40	C	1.029915	0.105496	-0.000171
C41	C	0.819621	0.262717	-0.000144
C42	C	0.820978	0.355008	-0.000151
N43	N	0.824747	0.110690	0.228042
N44	N	0.824765	0.110690	-0.228308
C45	C	0.872242	0.054010	0.453761
C46	C	0.872245	0.054008	0.545951
C47	C	0.777264	0.167373	0.545966
C48	C	0.777259	0.167371	0.453778
C49	C	0.824752	0.110690	0.407678
C50	C	0.824759	0.110691	0.592056
C51	C	0.824762	0.110689	0.692012
C52	C	0.824750	0.110690	0.307716
H53	H	0.938994	-0.486379	-0.000165
C54	C	0.179245	0.108122	-0.167812
C55	C	0.139212	0.107423	-0.255635
C56	C	0.179283	0.108131	-0.343453
C57	C	0.259388	0.109538	-0.343448
C58	C	0.299426	0.110237	-0.255622
C59	C	0.259354	0.109529	-0.167804
H60	H	0.079909	0.106382	-0.255641
H61	H	0.149644	0.107614	-0.408467
H62	H	0.289051	0.110062	-0.408456
H63	H	0.358728	0.111278	-0.255615
H64	H	0.288993	0.110046	-0.102789
H65	H	0.036715	0.105619	-0.145017
H66	H	0.708190	-0.449549	-0.000126
C67	C	0.692514	-0.276925	-0.000116
C68	C	0.693924	-0.181543	-0.000120
C69	C	0.624660	-0.122676	-0.000110
C70	C	0.553986	-0.159191	-0.000096
C71	C	0.552573	-0.254579	-0.000092
C72	C	0.621837	-0.313445	-0.000102
H73	H	0.746244	-0.154507	-0.000130
H74	H	0.625706	-0.052064	-0.000113
H75	H	0.502713	-0.115615	-0.000089
H76	H	0.500254	-0.281614	-0.000082
H77	H	0.620791	-0.384057	-0.000099
H78	H	0.738584	0.213527	0.416255
C79	C	0.623266	0.115950	-0.167761
C80	C	0.621219	0.043595	-0.233621
C81	C	0.661282	0.044303	-0.321444
C82	C	0.703393	0.117367	-0.343408
C83	C	0.705442	0.189728	-0.277547
C84	C	0.665378	0.189020	-0.189723
H85	H	0.590044	-0.010496	-0.217363
H86	H	0.659766	-0.009263	-0.370199
H87	H	0.733051	0.117892	-0.408421
H88	H	0.736616	0.243819	-0.293805
H89	H	0.666895	0.242586	-0.140969
H90	H	0.910914	0.007853	0.583470
C91	C	0.470335	0.113245	-0.167773
C92	C	0.488317	0.041232	-0.233619
C93	C	0.448279	0.040507	-0.321441
C94	C	0.390258	0.111795	-0.343417
C95	C	0.372273	0.183813	-0.277569
C96	C	0.412312	0.184538	-0.189747
H97	H	0.531270	-0.011544	-0.217352
H98	H	0.461593	-0.012805	-0.370186
H99	H	0.360619	0.111259	-0.408428
H100	H	0.329320	0.236590	-0.293836
H101	H	0.398997	0.237851	-0.141003
C102	C	0.026245	0.105429	0.167494
C103	C	-0.031780	0.176724	0.189443
C104	C	-0.071849	0.176018	0.277263
C105	C	-0.053893	0.104016	0.343134
C106	C	0.004135	0.032715	0.321187
C107	C	0.044203	0.033421	0.233367
H108	H	-0.045075	0.230029	0.140680
H109	H	-0.114805	0.228801	0.293510
H110	H	-0.083554	0.103494	0.408144
H111	H	0.017429	-0.020590	0.369950
H112	H	0.087159	-0.019361	0.217120
C113	C	0.470269	0.113258	0.167541
C114	C	0.390165	0.111837	0.167536
C115	C	0.350094	0.111128	0.255354
C116	C	0.390126	0.111839	0.343177
C117	C	0.470233	0.113260	0.343185
C118	C	0.510305	0.113969	0.255367
H119	H	0.360528	0.111310	0.102522
H120	H	0.290793	0.110076	0.255347
H121	H	0.360462	0.111314	0.408185
H122	H	0.499871	0.113786	0.408200
H123	H	0.569606	0.115021	0.255374
H124	H	0.612793	0.115786	0.144750
H125	H	0.168765	0.107941	0.144694
H126	H	0.910913	0.007856	0.416229
H127	H	0.738598	0.213523	0.583510
C128	C	0.959674	-0.319578	-0.000158
C129	C	1.028936	-0.378440	-0.000177
C130	C	1.099613	-0.341921	-0.000192
C131	C	1.101027	-0.246540	-0.000188
C132	C	1.031763	-0.187672	-0.000169
C133	C	0.961086	-0.224190	-0.000154
H134	H	1.027891	-0.449052	-0.000180
H135	H	1.150887	-0.385500	-0.000206
H136	H	1.153346	-0.219506	-0.000199
H137	H	1.032807	-0.117059	-0.000166
H138	H	0.909812	-0.180612	-0.000140
