data_functionalizedCrystal
_audit_creation_method	'MofGen! by Chris Wilmer'
_symmetry_space_group_name_H-M	'P1'
_symmetry_Int_Tables_number	1
_symmetry_cell_setting	triclinic
loop_
_symmetry_equiv_pos_as_xyz
  x,y,z
_cell_length_a	12.827893
_cell_length_b	21.295417
_cell_length_c	12.827885
_cell_angle_alpha	89.961900
_cell_angle_beta	89.980538
_cell_angle_gamma	90.030477
loop_
_atom_site_label
_atom_site_type_symbol
_atom_site_fract_x
_atom_site_fract_y
_atom_site_fract_z
Zn1	Zn	1.597562	-0.250579	-0.590788
Zn2	Zn	1.597409	-0.355861	-0.416023
Zn3	Zn	1.422803	-0.250610	-0.416062
Zn4	Zn	1.422742	-0.355814	-0.590723
O5	O	1.510129	-0.303216	-0.503399
O6	O	1.743778	-0.264552	-0.567616
O7	O	1.574209	-0.341932	-0.269792
O8	O	1.446074	-0.162516	-0.439283
O9	O	1.743665	-0.341902	-0.439217
O10	O	1.574469	-0.162494	-0.567654
O11	O	1.445926	-0.264604	-0.269821
O12	O	1.276559	-0.264559	-0.439220
O13	O	1.445971	-0.341822	-0.736968
O14	O	1.276514	-0.341852	-0.567543
O15	O	1.574410	-0.264506	-0.737016
O16	O	1.574150	-0.443944	-0.439154
O17	O	1.445823	-0.443910	-0.567505
C18	C	1.238619	-0.303204	-0.503379
C19	C	1.122466	-0.303214	-0.503396
C20	C	1.070687	-0.341521	-0.566796
C21	C	0.950637	-0.341532	-0.566814
C22	C	1.509992	-0.466768	-0.503341
C23	C	1.510029	-0.536736	-0.503351
C24	C	1.576908	-0.569600	-0.436587
C25	C	1.576957	-0.635342	-0.436611
C26	C	1.510108	-0.668218	-0.503387
C27	C	1.443224	-0.635347	-0.570165
C28	C	1.443185	-0.569606	-0.570147
N29	N	1.418692	-0.771484	-0.511347
N30	N	1.418732	-0.833935	-0.511358
C31	C	1.510225	-0.866293	-0.503447
N32	N	1.601678	-0.833840	-0.495504
N33	N	1.601636	-0.771383	-0.495488
C34	C	1.510144	-0.739504	-0.503415
C35	C	1.577163	-0.970442	-0.436705
C36	C	1.577214	-1.036186	-0.436736
C37	C	1.443472	-1.036189	-0.570284
C38	C	1.443431	-0.970447	-0.570259
C39	C	1.510275	-0.937577	-0.503464
C40	C	1.782699	-0.303229	-0.503420
C41	C	1.898852	-0.303234	-0.503428
C42	C	1.510201	-0.303156	-0.775969
C43	C	1.510232	-0.303130	-0.892123
C44	C	1.510295	-0.139026	-0.503480
C45	C	1.510366	-0.069058	-0.503515
C46	C	1.446774	-0.264858	-0.943921
C47	C	1.446804	-0.264831	-1.063972
C48	C	1.510117	-0.303231	-0.231889
C49	C	1.510289	-0.303079	-0.115737
H50	H	1.077919	-0.270424	-0.449134
O51	O	1.641948	-0.537769	-0.371682
C52	C	1.774563	-0.544706	-0.239186
C53	C	1.700973	-0.580834	-0.312649
H54	H	1.822289	-0.579509	-0.191423
H55	H	1.829232	-0.513895	-0.287157
H56	H	1.726585	-0.513961	-0.184537
H57	H	1.748866	-0.611614	-0.367313
H58	H	1.646301	-0.611606	-0.264613
O59	O	1.575056	-0.342261	-1.062724
C60	C	1.625587	-0.449333	-1.029027
C61	C	1.552192	-0.405031	-1.089157
H62	H	1.607113	-0.500092	-1.050360
H63	H	1.709905	-0.438344	-1.050458
H64	H	1.614031	-0.442358	-0.941680
H65	H	1.563655	-0.411982	-1.176518
H66	H	1.467901	-0.416031	-1.067640
O67	O	1.378681	-1.068186	-0.635207
C68	C	1.364601	-1.142312	-0.776355
C69	C	1.438090	-1.106124	-0.702872
H70	H	1.412604	-1.172983	-0.831095
H71	H	1.310019	-1.173188	-0.728400
H72	H	1.316766	-1.107514	-0.824019
H73	H	1.485992	-1.140876	-0.655192
H74	H	1.492603	-1.075237	-0.750887
H75	H	1.631422	-0.662105	-0.382244
O76	O	1.381952	-0.225680	-1.116944
C77	C	1.249394	-0.145837	-1.105691
C78	C	1.322805	-0.190134	-1.045568
H79	H	1.201539	-0.117096	-1.048010
H80	H	1.297413	-0.112897	-1.156782
H81	H	1.194829	-0.174762	-1.156803
H82	H	1.377385	-0.161259	-0.994400
H83	H	1.274721	-0.223076	-0.994543
O84	O	1.575223	-0.342166	-0.945119
C85	C	1.752934	-0.372678	-0.978764
C86	C	1.679445	-0.328438	-0.918668
H87	H	1.837213	-0.361586	-0.957416
H88	H	1.734634	-0.423462	-0.957317
H89	H	1.741353	-0.365707	-1.066116
H90	H	1.690985	-0.335353	-0.831301
H91	H	1.697763	-0.277670	-0.940201
O92	O	1.123982	-0.380619	-0.631439
C93	C	1.292226	-0.416210	-0.690437
C94	C	1.232004	-0.371909	-0.617156
H95	H	1.379572	-0.409175	-0.678930
H96	H	1.270866	-0.466983	-0.671949
H97	H	1.270812	-0.405238	-0.774746
H98	H	1.253385	-0.382825	-0.532823
H99	H	1.253369	-0.321149	-0.635734
H100	H	1.631682	-1.062942	-0.382371
O101	O	1.378431	-0.667349	-0.635081
C102	C	1.364345	-0.741483	-0.776217
C103	C	1.437837	-0.705292	-0.702741
H104	H	1.412346	-0.772159	-0.830953
H105	H	1.309762	-0.772356	-0.728256
H106	H	1.316512	-0.706687	-0.823886
H107	H	1.485739	-0.740043	-0.655056
H108	H	1.492351	-0.674410	-0.750762
H109	H	1.392418	-0.232115	-0.899392
H110	H	1.388723	-0.542847	-0.624515
H111	H	1.631595	-0.943679	-0.382320
O112	O	0.951843	-0.264018	-0.438716
C113	C	0.985534	-0.156919	-0.388378
C114	C	0.925430	-0.201259	-0.461714
H115	H	0.964218	-0.106169	-0.406961
H116	H	0.964063	-0.167853	-0.304049
H117	H	1.072885	-0.163914	-0.399880
H118	H	0.838065	-0.194289	-0.450305
H119	H	0.946988	-0.190314	-0.546017
O120	O	0.897636	-0.380627	-0.631720
C121	C	0.864053	-0.411264	-0.809365
C122	C	0.924162	-0.366959	-0.735973
H123	H	0.885460	-0.400220	-0.893669
H124	H	0.885429	-0.462030	-0.790965
H125	H	0.776702	-0.404311	-0.797786
H126	H	1.011526	-0.373856	-0.747510
H127	H	0.902699	-0.316209	-0.754390
O128	O	1.378354	-0.938617	-0.635137
C129	C	1.245746	-0.945560	-0.767637
C130	C	1.319376	-0.981685	-0.694194
H131	H	1.198059	-0.980365	-0.815420
H132	H	1.191043	-0.914854	-0.719649
H133	H	1.293690	-0.914710	-0.822269
H134	H	1.271517	-1.012570	-0.639547
H135	H	1.374082	-1.012352	-0.742247
