data_functionalizedCrystal
_audit_creation_method	'MofGen! by Chris Wilmer'
_symmetry_space_group_name_H-M	'P1'
_symmetry_Int_Tables_number	1
_symmetry_cell_setting	triclinic
loop_
_symmetry_equiv_pos_as_xyz
  x,y,z
_cell_length_a	19.902436
_cell_length_b	14.560432
_cell_length_c	19.902436
_cell_angle_alpha	119.991270
_cell_angle_beta	89.995298
_cell_angle_gamma	59.996334
loop_
_atom_site_label
_atom_site_type_symbol
_atom_site_fract_x
_atom_site_fract_y
_atom_site_fract_z
Zr1	Zr	0.647321	1.005150	0.088098
O2	O	0.540031	1.196744	0.195380
O3	O	0.680211	0.813552	0.055212
O4	O	0.680214	1.005121	0.195372
O5	O	0.540025	1.005201	-0.055343
O6	O	0.790793	1.005103	0.195363
O7	O	0.540028	1.005175	0.055220
O8	O	0.790788	0.662422	-0.055357
O9	O	0.540031	1.347882	0.195377
O10	O	0.776762	0.892348	0.041177
O11	O	0.694236	0.892380	-0.041328
O12	O	0.694240	1.117927	0.123692
O13	O	0.611714	1.117960	0.041187
Zr14	Zr	0.823677	1.005162	-0.088252
Zr15	Zr	0.823681	1.005122	0.088083
Zr16	Zr	0.647317	1.005191	-0.088238
Zr17	Zr	0.647321	1.246198	0.088094
Zr18	Zr	0.823678	0.764115	-0.088248
O19	O	0.790787	1.196761	-0.055366
O20	O	0.790793	1.196704	0.195360
O21	O	0.540025	1.196801	-0.055346
O22	O	0.930967	0.813569	-0.195534
O23	O	0.930973	0.813512	0.055192
O24	O	0.680205	0.813609	-0.195514
O25	O	0.930973	1.005112	0.055189
O26	O	0.790784	1.005192	-0.195526
O27	O	0.680205	1.005210	-0.195517
O28	O	0.930970	1.005138	-0.055374
O29	O	0.680214	1.347859	0.195366
O30	O	0.790784	0.662454	-0.195520
O31	O	0.930967	0.662431	-0.195532
O32	O	0.930971	0.662399	-0.055369
O33	O	0.540027	1.347914	0.055214
O34	O	0.680210	1.347891	0.055203
O35	O	0.776758	0.892386	-0.123846
O36	O	0.859284	0.892353	-0.041341
O37	O	0.776762	1.117933	0.041174
O38	O	0.694236	1.117965	-0.041332
C39	C	0.735500	0.703643	-0.000072
C40	C	0.735500	0.601312	-0.000070
C41	C	0.821649	0.601272	0.086074
C42	C	0.864720	0.553180	0.129148
C43	C	0.864718	0.457031	0.129146
C44	C	0.821642	0.408968	0.086064
C45	C	0.778571	0.457059	0.042991
C46	C	0.778576	0.553214	0.042999
C47	C	0.692428	0.457093	-0.043157
C48	C	0.692424	0.553249	-0.043152
C49	C	0.649352	0.409030	-0.086239
C50	C	0.606275	0.457128	-0.129308
C51	C	0.606279	0.553284	-0.129304
C52	C	0.649353	0.601340	-0.086225
C53	C	0.514899	1.005192	-0.000059
C54	C	0.440029	1.005204	-0.000053
C55	C	0.168027	1.005140	-0.000085
C56	C	0.144461	1.147440	0.051717
C57	C	0.222299	1.147529	0.052005
C58	C	0.302971	1.005173	-0.000069
C59	C	0.300560	0.934489	0.037889
C60	C	0.222333	0.935399	0.038272
C61	C	0.223317	0.932505	-0.089869
C62	C	0.300238	0.935180	-0.089731
C63	C	0.379237	1.005184	-0.000061
C64	C	0.091762	1.005125	-0.000090
C65	C	0.956099	1.005121	-0.000095
C66	C	1.030969	1.005109	-0.000101
C67	C	0.735504	1.005106	0.220491
C68	C	0.735506	1.005089	0.295350
C69	C	0.735498	1.306670	-0.000082
C70	C	0.735498	1.409001	-0.000084
C71	C	0.735512	1.005134	0.567392
C72	C	0.787816	0.862836	0.486851
C73	C	0.787587	0.862752	0.408949
C74	C	0.735510	1.005111	0.432429
C75	C	0.645842	1.075788	0.486553
C76	C	0.646131	1.074873	0.564113
C77	C	0.772152	1.077775	0.565242
C78	C	0.773965	1.075106	0.486366
C79	C	0.735503	1.005105	0.356156
C80	C	0.735512	1.005144	0.643667
C81	C	0.735500	1.005190	0.779348
C82	C	0.735515	1.005156	0.704471
C83	C	0.956100	0.703607	-0.000090
C84	C	1.030969	0.601264	-0.000094
C85	C	0.735494	0.703693	-0.220640
C86	C	0.735493	0.601379	-0.295498
C87	C	0.956094	0.703658	-0.220658
C88	C	1.030962	0.601332	-0.295522
C89	C	0.514904	1.306655	0.220504
C90	C	0.440036	1.408981	0.295367
C91	C	0.514898	1.306706	-0.000064
C92	C	0.440029	1.409049	-0.000060
C93	C	0.735504	1.306620	0.220486
C94	C	0.735505	1.408934	0.295343
C95	C	1.023053	0.553200	0.042985
C96	C	1.093395	0.457051	0.042998
C97	C	1.171651	0.408961	-0.000075
C98	C	1.179566	0.457035	-0.043155
C99	C	1.109225	0.553189	-0.043162
C100	C	0.778567	0.553335	-0.373733
C101	C	0.778563	0.457213	-0.444076
C102	C	0.735488	0.409132	-0.436182
C103	C	0.692408	0.457186	-0.357939
C104	C	0.692408	0.553312	-0.287597
C105	C	1.109206	0.553262	-0.287611
C106	C	1.179559	0.457129	-0.357946
C107	C	1.171667	0.409061	-0.436191
C108	C	1.093415	0.457141	-0.444100
C109	C	1.023063	0.553279	-0.373765
C110	C	0.361792	1.457063	0.287457
C111	C	0.291439	1.553226	0.357792
C112	C	0.299331	1.601298	0.436037
C113	C	0.377583	1.553212	0.443946
C114	C	0.447935	1.457058	0.373611
C115	C	0.447945	1.457123	-0.043132
C116	C	0.377603	1.553299	-0.043125
C117	C	0.299347	1.601392	-0.000050
C118	C	0.291432	1.553313	0.043027
C119	C	0.361773	1.457146	0.043024
C120	C	0.778589	1.456985	0.287423
C121	C	0.778606	1.553107	0.357753
C122	C	0.735535	1.601182	0.436002
C123	C	0.692451	1.553122	0.443920
C124	C	0.692438	1.456995	0.373592
H125	H	0.649358	0.330734	-0.086242
Cl126	Cl	0.302954	1.010245	0.138925
H127	H	0.813662	1.417856	0.223715
H128	H	1.243269	0.417992	-0.351492
Cl129	Cl	0.552140	0.396687	-0.183473
Cl130	Cl	1.277952	0.396560	-0.097303
H131	H	0.762175	0.806959	0.369914
H132	H	1.228920	0.330666	-0.000063
H133	H	0.571206	0.592433	-0.164381
Cl134	Cl	0.638261	1.396612	0.383563
H135	H	0.185791	0.985608	0.104341
Cl136	Cl	0.638299	1.613587	0.542297
Cl137	Cl	0.649358	0.722221	-0.086212
Cl138	Cl	0.387571	1.613714	-0.097288
Cl139	Cl	1.260118	0.288199	-0.524605
H140	H	1.087001	0.417990	-0.507816
Cl141	Cl	0.638262	0.396724	-0.348029
Cl142	Cl	0.167250	1.002814	-0.138828
H143	H	1.115648	0.592384	-0.223907
Cl144	Cl	0.735556	1.722034	0.524408
H145	H	0.242078	1.679697	-0.000055
H146	H	0.221020	1.203268	0.026742
Cl147	Cl	0.083985	1.233699	0.012614
H148	H	0.511642	1.417911	0.380062
H149	H	0.959356	0.592405	-0.380218
H150	H	0.821647	0.679573	0.086089
H151	H	0.899793	0.417870	0.164216
H152	H	0.899794	0.592319	0.164223
Cl153	Cl	0.546316	1.396690	-0.097285
H154	H	0.227707	1.592485	0.078097
Cl155	Cl	0.351848	1.396649	0.189101
H156	H	0.355316	1.418007	0.078096
H157	H	0.821652	0.330667	0.086058
Cl158	Cl	0.082846	1.233235	0.153358
H159	H	0.854016	0.806973	0.485148
H160	H	1.115682	0.592311	-0.078247
H161	H	0.220526	1.203299	0.118234
H162	H	0.241680	0.830995	0.002981
Cl163	Cl	0.388273	0.772884	-0.017559
H164	H	0.299860	0.986718	-0.118088
Cl165	Cl	0.193075	1.613651	0.347831
H166	H	0.657334	0.592418	-0.223897
H167	H	0.813690	1.592227	0.351289
Cl168	Cl	0.388935	0.774813	-0.154334
H169	H	0.853616	0.807301	0.369551
Cl170	Cl	0.254081	0.770657	-0.149738
H171	H	0.762635	0.807269	0.486104
Cl172	Cl	0.875957	0.995545	0.428737
H173	H	0.813644	0.592472	-0.380176
H174	H	0.813646	0.418099	-0.507778
H175	H	0.616798	1.024659	0.563922
H176	H	0.735494	0.330860	-0.493465
H177	H	0.605178	1.180460	0.506319
Cl178	Cl	0.582692	1.236058	0.652174
H179	H	0.616301	1.026718	0.449103
Cl180	Cl	0.210880	1.722177	0.524451
Cl181	Cl	0.924682	0.613640	0.097144
H182	H	0.837185	1.032224	0.568225
H183	H	0.384000	1.592365	0.507661
H184	H	0.739829	1.178962	0.504887
H185	H	0.734223	1.182613	0.622002
Cl186	Cl	1.083427	0.396629	0.097156
