data_functionalizedCrystal
_audit_creation_method	'MofGen! by Chris Wilmer'
_symmetry_space_group_name_H-M	'P1'
_symmetry_Int_Tables_number	1
_symmetry_cell_setting	triclinic
loop_
_symmetry_equiv_pos_as_xyz
  x,y,z
_cell_length_a	10.908937
_cell_length_b	10.065918
_cell_length_c	8.559649
_cell_angle_alpha	100.806484
_cell_angle_beta	64.932310
_cell_angle_gamma	101.452402
loop_
_atom_site_label
_atom_site_type_symbol
_atom_site_fract_x
_atom_site_fract_y
_atom_site_fract_z
O1	O	1.744028	0.113542	-0.236587
O2	O	1.357530	0.113532	-0.108459
O3	O	1.584830	0.113536	-0.414173
O4	O	1.516729	0.113537	0.069126
O5	O	1.554429	-0.113453	-0.447803
O6	O	1.327129	-0.113458	-0.142090
O7	O	1.713627	-0.113448	-0.270217
Zn8	Zn	1.515551	-0.149492	-0.211493
Zn9	Zn	1.555606	0.149576	-0.167184
O10	O	1.486327	-0.113452	0.035496
C11	C	1.293308	0.000036	-0.113300
C12	C	1.147239	0.000032	-0.077641
N13	N	1.488224	-0.353598	-0.241737
C14	C	0.960099	0.000056	-0.170916
C15	C	1.111067	0.000039	-0.207777
C16	C	1.546090	-0.421376	-0.177703
C17	C	1.525071	-0.578544	-0.200998
C18	C	1.777850	0.000051	-0.265376
C19	C	1.923920	0.000064	-0.301033
C20	C	1.574791	0.000044	-0.491889
C21	C	1.590154	0.000052	-0.673350
N22	N	1.582945	0.353682	-0.136956
C23	C	1.496367	0.000043	0.113212
C24	C	1.481005	0.000044	0.294675
H25	H	0.879309	0.000071	-0.032226
H26	H	1.191856	0.000042	-0.346474
H27	H	1.375806	0.000037	-0.593877
H28	H	1.611197	-0.363047	-0.105645
H29	H	1.066453	0.000042	0.061058
H30	H	1.004712	0.000066	-0.439720
F31	F	1.439981	-0.654771	-0.295213
F32	F	1.668052	-0.570093	-0.042763
H33	H	1.423127	-0.411927	-0.313809
H34	H	1.695358	0.000044	-0.784811
