data_functionalizedCrystal
_audit_creation_method	'MofGen! by Chris Wilmer'
_symmetry_space_group_name_H-M	'P1'
_symmetry_Int_Tables_number	1
_symmetry_cell_setting	triclinic
loop_
_symmetry_equiv_pos_as_xyz
  x,y,z
_cell_length_a	27.732048
_cell_length_b	19.288865
_cell_length_c	26.210047
_cell_angle_alpha	89.975066
_cell_angle_beta	90.015477
_cell_angle_gamma	97.110548
loop_
_atom_site_label
_atom_site_type_symbol
_atom_site_fract_x
_atom_site_fract_y
_atom_site_fract_z
O1	O	0.641187	-0.082661	0.042369
O2	O	1.141187	0.417339	0.542369
O3	O	0.500432	-0.095228	0.042385
O4	O	1.000432	0.404772	0.542385
O5	O	0.574877	0.012211	0.042367
O6	O	1.074877	0.512211	0.542367
O7	O	0.566742	-0.190101	0.042388
O8	O	1.066742	0.309899	0.542388
O9	O	0.574849	0.012240	-0.042492
O10	O	1.074849	0.512240	0.457508
O11	O	0.500404	-0.095199	-0.042473
O12	O	1.000404	0.404801	0.457527
O13	O	0.641160	-0.082632	-0.042489
O14	O	1.141160	0.417368	0.457511
Cu15	Cu	0.570780	-0.088912	-0.050229
Cu16	Cu	1.070780	0.411088	0.449771
Cu17	Cu	0.570812	-0.088948	0.050125
Cu18	Cu	1.070812	0.411052	0.550125
O19	O	0.566715	-0.190071	-0.042470
O20	O	1.066715	0.309929	0.457530
C21	C	0.482410	-0.094950	-0.000042
C22	C	0.982410	0.405050	0.499958
C23	C	0.428753	-0.094155	-0.000036
C24	C	0.928753	0.405845	0.499964
C25	C	0.090115	-0.152644	-0.000052
C26	C	0.590115	0.347356	0.499948
C27	C	-0.111554	-0.149697	-0.000057
C28	C	0.388446	0.350303	0.499943
O29	O	-0.142648	-0.203181	-0.000073
O30	O	0.357352	0.296819	0.499927
N31	N	-0.130870	-0.085990	-0.000063
N32	N	0.369130	0.414010	0.499937
C33	C	-0.099766	-0.023015	-0.000071
C34	C	0.400234	0.476985	0.499929
O35	O	-0.120823	0.031239	-0.000081
O36	O	0.379177	0.531239	0.499919
C37	C	0.101902	-0.025963	-0.000069
C38	C	0.601902	0.474037	0.499931
C39	C	0.121215	-0.089674	-0.000058
C40	C	0.621215	0.410326	0.499942
C41	C	0.109428	-0.216350	-0.000042
C42	C	0.609428	0.283650	0.499958
C43	C	0.159843	-0.217086	-0.000038
C44	C	0.659843	0.282914	0.499962
C45	C	0.190943	-0.154116	-0.000044
C46	C	0.690943	0.345884	0.499956
C47	C	0.171629	-0.090410	-0.000054
C48	C	0.671629	0.409590	0.499946
C49	C	0.133005	0.037011	-0.000081
C50	C	0.633005	0.537011	0.499919
C51	C	0.183425	0.036268	-0.000082
C52	C	0.683425	0.536268	0.499918
C53	C	0.202738	-0.027443	-0.000071
C54	C	0.702738	0.472557	0.499929
C55	C	0.253144	-0.028177	-0.000057
C56	C	0.753144	0.471823	0.499943
N57	N	0.272460	-0.091884	-0.000051
N58	N	0.772460	0.408116	0.499949
C59	C	0.241360	-0.154853	-0.000045
C60	C	0.741360	0.345147	0.499955
C61	C	-0.205644	-0.021472	-0.000070
C62	C	0.294356	0.478528	0.499930
C63	C	-0.256061	-0.020735	-0.000070
C64	C	0.243939	0.479265	0.499930
C65	C	-0.267846	-0.147417	-0.000057
C66	C	0.232154	0.352583	0.499943
C67	C	-0.217428	-0.148153	-0.000054
C68	C	0.282572	0.351847	0.499946
C69	C	-0.186328	-0.085179	-0.000064
C70	C	0.313672	0.414821	0.499936
C71	C	0.347234	-0.156395	-0.000036
C72	C	0.847234	0.343605	0.499964
C73	C	0.397653	-0.157125	-0.000030
C74	C	0.897653	0.342875	0.499970
C75	C	0.409433	-0.030444	-0.000045
C76	C	0.909433	0.469556	0.499955
C77	C	0.359018	-0.029713	-0.000049
C78	C	0.859018	0.470287	0.499951
C79	C	0.327919	-0.092694	-0.000046
C80	C	0.827919	0.407306	0.499954
O81	O	0.284266	0.025278	-0.000046
O82	O	0.784266	0.525278	0.499954
O83	O	0.262426	-0.209100	-0.000046
O84	O	0.762426	0.290900	0.499954
C85	C	0.039701	-0.151908	-0.000056
C86	C	0.539701	0.348092	0.499944
C87	C	0.020387	-0.088202	-0.000066
C88	C	0.520387	0.411798	0.499934
C89	C	0.051487	-0.025232	-0.000073
C90	C	0.551487	0.474768	0.499927
C91	C	-0.030030	-0.087465	-0.000066
C92	C	0.469970	0.412535	0.499934
C93	C	-0.061130	-0.150435	-0.000059
C94	C	0.438870	0.349565	0.499941
C95	C	-0.041814	-0.214142	-0.000054
C96	C	0.458186	0.285858	0.499946
C97	C	0.008600	-0.214878	-0.000050
C98	C	0.508600	0.285122	0.499950
C99	C	0.032171	0.038475	-0.000079
C100	C	0.532171	0.538475	0.499921
C101	C	-0.018244	0.039206	-0.000082
C102	C	0.481756	0.539206	0.499918
C103	C	-0.049344	-0.023764	-0.000076
C104	C	0.450656	0.476236	0.499924
C105	C	0.574601	0.038100	-0.000064
C106	C	1.074601	0.538100	0.499936
C107	C	0.573816	0.115199	-0.000068
C108	C	1.073816	0.615199	0.499932
C109	C	0.659181	-0.082910	-0.000061
C110	C	1.159181	0.417090	0.499939
C111	C	0.712839	-0.083705	-0.000063
C112	C	1.212839	0.416295	0.499937
C113	C	0.566990	-0.215961	-0.000039
C114	C	1.066990	0.284039	0.499961
C115	C	0.567776	-0.293059	-0.000031
C116	C	1.067776	0.206941	0.499969
N117	N	0.570761	-0.088887	-0.120813
N118	N	1.070761	0.411113	0.379187
C119	C	0.617496	0.160168	-0.000076
C120	C	1.117496	0.660168	0.499924
C121	C	0.616758	0.232610	-0.000068
C122	C	1.116758	0.732610	0.499932
C123	C	0.572337	0.260081	-0.000062
C124	C	1.072337	0.760081	0.499938
C125	C	0.528650	0.215102	-0.000052
C126	C	1.028650	0.715102	0.499948
C127	C	0.529390	0.142661	-0.000055
C128	C	1.029390	0.642661	0.499945
C129	C	0.537407	0.368161	-0.029782
C130	C	1.037407	0.868161	0.470218
C131	C	0.536669	0.440601	-0.029782
C132	C	1.036669	0.940601	0.470218
C133	C	0.570054	0.483512	-0.000051
C134	C	1.070054	0.983512	0.499949
C135	C	0.604186	0.453977	0.029675
C136	C	1.104186	0.953977	0.529675
C137	C	0.604925	0.381536	0.029672
C138	C	1.104925	0.881536	0.529672
C139	C	0.571530	0.338630	-0.000059
C140	C	1.071530	0.838630	0.499941
C141	C	0.612938	0.607032	-0.000049
C142	C	1.112938	1.107032	0.499951
C143	C	0.612198	0.679475	-0.000037
C144	C	1.112198	1.179475	0.499963
C145	C	0.524089	0.661966	-0.000027
C146	C	1.024089	1.161966	0.499973
C147	C	0.524830	0.589524	-0.000033
C148	C	1.024830	1.089524	0.499967
C149	C	0.569256	0.562062	-0.000046
C150	C	1.069256	1.062062	0.499954
C151	C	0.541581	-0.047078	-0.526792
C152	C	1.041581	0.452922	-0.026792
C153	C	0.541560	-0.047060	-0.313133
C154	C	1.041560	0.452940	0.186867
O155	O	0.516721	-0.011456	-0.285524
O156	O	1.016721	0.488544	0.214476
N157	N	0.570779	-0.088897	-0.286397
N158	N	1.070779	0.411103	0.213603
C159	C	0.600008	-0.130737	-0.313079
C160	C	1.100008	0.369263	0.186921
O161	O	0.624863	-0.166316	-0.285435
O162	O	1.124863	0.333684	0.214565
C163	C	0.600031	-0.130750	-0.526736
C164	C	1.100031	0.369250	-0.026736
C165	C	0.570807	-0.088916	-0.553470
C166	C	1.070807	0.411084	-0.053470
C167	C	0.512360	-0.005246	-0.553525
C168	C	1.012360	0.494754	-0.053525
C169	C	0.512363	-0.005254	-0.606937
C170	C	1.012363	0.494746	-0.106937
C171	C	0.541589	-0.047093	-0.633615
C172	C	1.041589	0.452907	-0.133615
C173	C	0.570810	-0.088924	-0.606881
C174	C	1.070810	0.411076	-0.106881
C175	C	0.629262	-0.172587	-0.553417
C176	C	1.129262	0.327413	-0.053417
C177	C	0.629266	-0.172585	-0.606835
C178	C	1.129266	0.327415	-0.106835
C179	C	0.600042	-0.130751	-0.633568
C180	C	1.100042	0.369249	-0.133568
C181	C	0.600039	-0.130771	-0.686970
C182	C	1.100039	0.369229	-0.186970
N183	N	0.570821	-0.088934	-0.713707
N184	N	1.070821	0.411066	-0.213707
C185	C	0.541595	-0.047095	-0.687029
C186	C	1.041595	0.452905	-0.187029
C187	C	0.599992	-0.130728	-0.200905
C188	C	1.099992	0.369272	0.299095
C189	C	0.599986	-0.130726	-0.147491
C190	C	1.099986	0.369274	0.352509
C191	C	0.541539	-0.047048	-0.147549
C192	C	1.041539	0.452952	0.352451
C193	C	0.541543	-0.047054	-0.200964
C194	C	1.041543	0.452946	0.299036
C195	C	0.570774	-0.088892	-0.227641
C196	C	1.070774	0.411108	0.272359
C197	C	0.541605	-0.047115	-0.799197
C198	C	1.041605	0.452885	-0.299197
C199	C	0.541610	-0.047128	-0.852613
C200	C	1.041610	0.452872	-0.352613
C201	C	0.600058	-0.130803	-0.852550
C202	C	1.100058	0.369197	-0.352550
C203	C	0.600052	-0.130793	-0.799138
C204	C	1.100052	0.369207	-0.299138
C205	C	0.570824	-0.088943	-0.772463
C206	C	1.070824	0.411057	-0.272463
O207	O	0.624870	-0.166350	-0.714613
O208	O	1.124870	0.333650	-0.214613
O209	O	0.516751	-0.011510	-0.714681
O210	O	1.016751	0.488490	-0.214681
C211	C	0.541578	-0.047070	-0.473380
C212	C	1.041578	0.452930	0.026620
C213	C	0.570799	-0.088901	-0.446647
C214	C	1.070799	0.411099	0.053353
C215	C	0.600025	-0.130740	-0.473325
C216	C	1.100025	0.369260	0.026675
C217	C	0.570793	-0.088899	-0.393233
C218	C	1.070793	0.411101	0.106767
C219	C	0.541568	-0.047060	-0.366555
C220	C	1.041568	0.452940	0.133445
C221	C	0.512349	-0.005223	-0.393291
C222	C	1.012349	0.494777	0.106709
C223	C	0.512352	-0.005231	-0.446702
C224	C	1.012352	0.494769	0.053298
C225	C	0.629244	-0.172577	-0.446588
C226	C	1.129244	0.327423	0.053412
C227	C	0.629237	-0.172566	-0.393177
C228	C	1.129237	0.327434	0.106823
C229	C	0.600012	-0.130727	-0.366499
C230	C	1.100012	0.369273	0.133501
N231	N	0.570835	-0.088967	0.120709
N232	N	1.070835	0.411033	0.620709
H233	H	0.208745	0.087551	-0.000091
H234	H	0.708745	0.587551	0.499909
H235	H	0.653044	-0.206646	-0.468304
H236	H	1.153044	0.293354	0.031696
H237	H	0.631371	0.488914	0.053885
H238	H	1.131371	0.988914	0.553885
H239	H	0.488555	0.028835	-0.468464
H240	H	0.988555	0.528835	0.031536
H241	H	0.653071	-0.206654	-0.628552
H242	H	1.153071	0.293346	-0.128552
H243	H	0.652330	0.269231	-0.000072
H244	H	1.152330	0.769231	0.499928
O245	O	-0.301396	-0.215335	-0.000059
O246	O	0.198604	0.284665	0.499941
H247	H	-0.324646	-0.218045	0.034524
H248	H	0.175354	0.281955	0.534524
H249	H	0.493818	0.106047	-0.000049
H250	H	0.993818	0.606047	0.499951
O251	O	0.477714	0.541020	-0.000030
O252	O	0.977714	1.041020	0.499970
H253	H	0.485691	0.486032	-0.000029
H254	H	0.985691	0.986032	0.499971
H255	H	-0.033963	0.091091	-0.000087
H256	H	0.466037	0.591091	0.499913
H257	H	0.343293	0.022166	-0.000050
H258	H	0.843293	0.522166	0.499950
O259	O	0.065713	0.106395	-0.000085
O260	O	0.565713	0.606395	0.499915
H261	H	0.043806	0.150813	-0.000087
H262	H	0.543806	0.650813	0.499913
H263	H	0.321918	-0.207680	-0.000035
H264	H	0.821918	0.292320	0.499965
O265	O	0.442981	0.037473	-0.000059
O266	O	0.942981	0.537473	0.499941
H267	H	0.481282	0.026251	-0.000063
H268	H	0.981282	0.526251	0.499937
H269	H	0.175562	-0.268966	-0.000029
H270	H	0.675562	0.231034	0.499971
O271	O	0.480739	0.244732	-0.000050
O272	O	0.980739	0.744732	0.499950
H273	H	0.459769	0.226618	0.034541
H274	H	0.959769	0.726618	0.534541
H275	H	0.024320	-0.266758	-0.000042
H276	H	0.524320	0.233242	0.499958
H277	H	0.508876	0.464642	-0.053983
H278	H	1.008876	0.964642	0.446017
O279	O	0.418484	-0.225844	-0.000026
O280	O	0.918484	0.274156	0.499974
H281	H	0.388385	-0.269505	-0.000030
H282	H	0.888385	0.230495	0.499970
H283	H	0.510219	0.333227	-0.053996
H284	H	1.010219	0.833227	0.446004
O285	O	0.480838	0.039898	-0.524766
O286	O	0.980838	0.539898	-0.024766
H287	H	0.504088	0.077472	-0.500442
H288	H	1.004088	0.577472	-0.000442
H289	H	0.517809	-0.013062	-0.874377
H290	H	1.017809	0.486938	-0.374377
O291	O	0.510077	-0.001985	-0.770428
O292	O	1.010077	0.498015	-0.270428
H293	H	0.489756	0.027092	-0.797999
H294	H	0.989756	0.527092	-0.297999
H295	H	0.653672	0.137813	-0.000085
H296	H	1.153672	0.637813	0.499915
O297	O	0.631570	-0.175914	-0.770299
O298	O	1.131570	0.324086	-0.270299
H299	H	0.651894	-0.205005	-0.797826
H300	H	1.151894	0.294995	-0.297826
H301	H	0.517746	-0.012989	-0.222727
H302	H	1.017746	0.487011	0.277273
O303	O	0.480867	0.039902	-0.635768
O304	O	0.980867	0.539902	-0.135768
H305	H	0.460558	0.069009	-0.608236
H306	H	0.960558	0.569009	-0.108236
H307	H	0.084111	-0.267630	-0.000038
H308	H	0.584111	0.232370	0.499962
H309	H	0.632715	0.357491	0.053876
H310	H	1.132715	0.857491	0.553876
H311	H	0.517741	-0.012983	-0.125819
H312	H	1.017741	0.487017	0.374181
H313	H	-0.067145	-0.265414	-0.000046
H314	H	0.432855	0.234586	0.499954
O315	O	0.660851	0.577403	-0.000053
O316	O	1.160851	1.077403	0.499947
H317	H	0.691103	0.620847	-0.000047
H318	H	1.191103	1.120847	0.499953
H319	H	0.623778	-0.164800	-0.125729
H320	H	1.123778	0.335200	0.374271
H321	H	0.653061	-0.206651	-0.531660
H322	H	1.153061	0.293349	-0.031660
O323	O	-0.196598	-0.216868	-0.000052
O324	O	0.303402	0.283132	0.499948
H325	H	-0.226699	-0.260527	-0.000052
H326	H	0.273301	0.239473	0.499948
O327	O	-0.276890	0.047981	-0.000080
O328	O	0.223110	0.547981	0.499920
H329	H	-0.246790	0.091640	-0.000091
H330	H	0.253210	0.591640	0.499909
O331	O	0.631580	-0.175929	-0.881327
O332	O	1.131580	0.324071	-0.381327
H333	H	0.670243	-0.160427	-0.871062
H334	H	1.170243	0.339573	-0.371062
O335	O	0.631517	-0.175861	-0.229676
O336	O	1.131517	0.324139	0.270324
H337	H	0.651827	-0.204954	-0.202106
H338	H	1.151827	0.295046	0.297894
H339	H	0.653034	-0.206639	-0.371415
H340	H	1.153034	0.293361	0.128585
O341	O	-0.172102	0.046454	-0.000079
O342	O	0.327898	0.546454	0.499921
H343	H	-0.194010	0.090871	-0.000079
H344	H	0.305990	0.590871	0.499921
O345	O	0.480848	0.039923	-0.364499
O346	O	0.980848	0.539923	0.135501
H347	H	0.454801	0.006383	-0.340146
H348	H	0.954801	0.506383	0.159854
O349	O	0.112182	0.105728	-0.000103
O350	O	0.612182	0.605728	0.499897
H351	H	0.142285	0.149383	-0.000117
H352	H	0.642285	0.649383	0.499883
H353	H	0.647770	0.716089	-0.000041
H354	H	1.147770	1.216089	0.499959
O355	O	0.476174	0.691582	-0.000023
O356	O	0.976174	1.191582	0.499977
H357	H	0.482998	0.749510	-0.000025
H358	H	0.982998	1.249510	0.499975
