data_functionalizedCrystal
_audit_creation_method	'MofGen! by Chris Wilmer'
_symmetry_space_group_name_H-M	'P1'
_symmetry_Int_Tables_number	1
_symmetry_cell_setting	triclinic
loop_
_symmetry_equiv_pos_as_xyz
  x,y,z
_cell_length_a	10.685980
_cell_length_b	14.908520
_cell_length_c	10.685880
_cell_angle_alpha	97.870404
_cell_angle_beta	80.918858
_cell_angle_gamma	97.923910
loop_
_atom_site_label
_atom_site_type_symbol
_atom_site_fract_x
_atom_site_fract_y
_atom_site_fract_z
Zn1	Zn	1.973213	-0.299712	-0.889103
Zn2	Zn	1.946182	-0.441029	-0.687422
Zn3	Zn	1.744650	-0.299760	-0.660579
Zn4	Zn	1.748673	-0.462602	-0.884940
O5	O	1.853180	-0.375776	-0.780511
O6	O	2.147940	-0.309410	-0.875326
O7	O	1.906452	-0.413281	-0.505562
O8	O	1.784598	-0.172462	-0.681401
O9	O	2.128081	-0.413235	-0.727152
O10	O	1.952523	-0.172427	-0.849297
O11	O	1.758387	-0.309492	-0.485840
O12	O	1.566871	-0.330410	-0.677365
O13	O	1.791455	-0.450003	-1.063792
O14	O	1.569827	-0.450050	-0.842202
O15	O	1.956424	-0.330328	-1.066851
O16	O	1.910353	-0.571183	-0.723116
O17	O	1.765244	-0.587032	-0.868231
C18	C	1.522114	-0.392577	-0.756420
C19	C	1.380484	-0.399788	-0.746145
C20	C	1.835339	-0.612113	-0.798165
C21	C	1.827826	-0.713215	-0.805768
C22	C	1.964988	-0.886629	-0.669091
C23	C	1.957933	-0.981623	-0.676231
C24	C	1.806669	-0.998198	-0.827195
C25	C	1.813724	-0.903204	-0.820055
C26	C	1.892885	-0.847423	-0.740999
C27	C	1.899932	-0.752427	-0.733852
C28	C	1.748676	-0.769004	-0.884823
C29	C	1.741621	-0.863998	-0.891963
C30	C	2.185538	-0.358910	-0.804697
C31	C	2.327169	-0.351723	-0.815004
C32	C	1.877404	-0.392567	-1.112845
C33	C	1.887727	-0.399722	-1.254466
C34	C	1.871127	-0.138516	-0.762819
C35	C	1.878775	-0.037410	-0.755279
C36	C	1.829128	-0.358981	-0.449470
C37	C	1.819071	-0.351558	-0.307849
H38	H	1.317769	-0.446457	-0.679321
C39	C	1.719614	-1.059563	-0.914163
H40	H	1.677688	-1.022610	-0.955979
H41	H	1.657828	-1.097030	-0.864137
H42	H	1.769635	-1.096898	-0.976049
H43	H	1.954412	-0.446436	-1.317116
H44	H	1.964385	-0.707010	-0.669477
H45	H	1.677174	-0.909428	-0.956332
C46	C	2.052053	-0.825267	-0.582131
H47	H	2.093989	-0.862223	-0.540329
H48	H	2.002055	-0.787920	-0.520252
H49	H	2.113851	-0.787812	-0.632174
C50	C	1.728977	-0.288460	-1.223237
H51	H	1.687281	-0.259209	-1.275715
H52	H	1.776965	-0.243760	-1.171909
H53	H	1.667077	-0.323494	-1.169894
C54	C	2.037240	-1.024747	-0.597126
H55	H	2.085385	-0.977918	-0.549016
H56	H	2.093524	-1.061406	-0.652729
H57	H	1.981728	-1.061512	-0.540806
C58	C	1.411873	-0.288680	-0.905274
H59	H	1.499146	-0.291945	-0.900581
H60	H	1.393380	-0.227702	-0.880647
H61	H	1.395370	-0.307515	-0.990299
C62	C	1.669363	-0.725876	-0.963929
H63	H	1.684905	-0.661311	-0.948361
H64	H	1.581239	-0.744907	-0.940156
H65	H	1.693035	-0.744791	-1.052078
