data_functionalizedCrystal
_audit_creation_method	'MofGen! by Chris Wilmer'
_symmetry_space_group_name_H-M	'P1'
_symmetry_Int_Tables_number	1
_symmetry_cell_setting	triclinic
loop_
_symmetry_equiv_pos_as_xyz
  x,y,z
_cell_length_a	10.489741
_cell_length_b	14.853567
_cell_length_c	13.930277
_cell_angle_alpha	90.000757
_cell_angle_beta	89.995477
_cell_angle_gamma	95.912948
loop_
_atom_site_label
_atom_site_type_symbol
_atom_site_fract_x
_atom_site_fract_y
_atom_site_fract_z
O1	O	1.692631	-0.127194	-0.079763
O2	O	1.321301	-0.139134	-0.079777
O3	O	1.516885	-0.001990	-0.079772
O4	O	1.497047	-0.264338	-0.079767
O5	O	1.516858	-0.001987	0.079890
O6	O	1.321274	-0.139131	0.079885
O7	O	1.692604	-0.127191	0.079899
Zn8	Zn	1.506935	-0.133160	0.105242
Zn9	Zn	1.506971	-0.133165	-0.105119
O10	O	1.497020	-0.264335	0.079895
C11	C	1.515973	0.031605	0.000056
C12	C	1.513279	0.131704	0.000047
C13	C	1.273766	-0.138230	0.000052
C14	C	1.132167	-0.135533	0.000047
N15	N	1.506920	-0.133157	0.248808
C16	C	1.065006	-0.048272	0.000054
C17	C	0.972430	-0.089495	-0.078665
C18	C	0.972437	-0.089512	0.078749
C19	C	1.041456	-0.176791	-0.078737
C20	C	1.041473	-0.176797	0.078747
C21	C	0.948923	-0.218083	0.000009
C22	C	1.740139	-0.128095	0.000068
C23	C	1.881738	-0.130793	0.000068
C24	C	1.497933	-0.297930	0.000065
C25	C	1.500626	-0.398029	0.000067
C26	C	1.385712	0.544953	0.000061
C27	C	1.618070	0.564931	0.000070
C28	C	1.620602	0.470883	0.000064
C29	C	1.505688	0.413866	0.000058
C30	C	1.388241	0.450896	0.000058
C31	C	1.738047	0.433846	0.000074
C32	C	1.740585	0.339793	0.000070
C33	C	1.625669	0.282773	0.000057
C34	C	1.508217	0.319809	0.000056
C35	C	1.393303	0.262791	0.000050
C36	C	1.275850	0.299825	0.000042
C37	C	1.273325	0.393877	0.000046
C38	C	1.628193	0.188722	0.000053
C39	C	1.395832	0.168735	0.000047
N40	N	1.506996	-0.133161	-0.248685
C41	C	1.420363	-0.193868	0.701075
C42	C	1.593614	-0.072455	0.701049
C43	C	1.593598	-0.072452	0.600553
C44	C	1.506965	-0.133159	0.550314
C45	C	1.420348	-0.193869	0.600570
C46	C	1.680223	-0.011749	0.550289
C47	C	1.680213	-0.011744	0.449787
C48	C	1.593572	-0.072448	0.399546
C49	C	1.506950	-0.133159	0.449809
C50	C	1.420317	-0.193866	0.399570
C51	C	1.333688	-0.254574	0.449830
C52	C	1.333707	-0.254572	0.550329
C53	C	1.593553	-0.072450	0.299047
C54	C	1.420302	-0.193867	0.299064
H55	H	1.115501	0.023462	-0.000046
H56	H	0.898693	-0.289892	-0.000032
H57	H	1.072093	-0.213687	0.145304
H58	H	1.750749	0.037688	0.408871
C59	C	1.082542	-0.226627	-0.168748
H60	H	1.009097	-0.245736	-0.206288
H61	H	1.140238	-0.186984	-0.205550
H62	H	1.123622	-0.277919	-0.149933
C63	C	1.688831	-0.005680	0.243764
H64	H	1.740426	0.030476	0.288079
H65	H	1.741967	-0.038479	0.204547
H66	H	1.642874	0.032173	0.204572
C67	C	1.775512	0.055020	0.605551
H68	H	1.763102	0.046332	0.672603
H69	H	1.860649	0.044640	0.589074
H70	H	1.761552	0.115290	0.589083
C71	C	1.149452	0.237101	0.000034
H72	H	1.167789	0.175785	0.000030
H73	H	1.101283	0.248406	0.055706
H74	H	1.101317	0.248404	-0.055656
H75	H	0.941863	-0.052573	0.145300
H76	H	1.290084	0.575111	0.000051
H77	H	0.941842	-0.052574	-0.145219
C78	C	1.325010	-0.260647	0.243804
H79	H	1.337402	-0.251954	0.176752
H80	H	1.338964	-0.320912	0.260277
H81	H	1.239868	-0.250261	0.260283
C82	C	1.144143	0.434616	0.000050
H83	H	1.159098	0.498796	0.000066
H84	H	1.096821	0.415105	-0.055627
H85	H	1.096820	0.415094	0.055735
C86	C	1.744464	0.627647	0.000078
H87	H	1.726137	0.688964	0.000076
H88	H	1.792610	0.616335	0.055755
H89	H	1.792620	0.616343	-0.055608
C90	C	1.269427	0.106018	0.000037
H91	H	1.287750	0.044700	0.000031
H92	H	1.221259	0.117326	0.055708
H93	H	1.221296	0.117328	-0.055654
H94	H	1.831604	0.480276	0.000088
C95	C	1.869771	0.299058	0.000075
H96	H	1.854823	0.234878	0.000078
H97	H	1.917106	0.318581	-0.055597
H98	H	1.917077	0.318574	0.055765
C99	C	1.757371	0.147982	0.000065
H100	H	1.742421	0.083803	0.000067
H101	H	1.804711	0.167504	-0.055605
H102	H	1.804672	0.167497	0.055757
H103	H	1.263156	-0.304006	0.408914
H104	H	1.263178	-0.303999	0.591258
H105	H	1.349827	-0.243293	0.742000
H106	H	1.664154	-0.023033	0.741957
