data_functionalizedCrystal
_audit_creation_method	'MofGen! by Chris Wilmer'
_symmetry_space_group_name_H-M	'P1'
_symmetry_Int_Tables_number	1
_symmetry_cell_setting	triclinic
loop_
_symmetry_equiv_pos_as_xyz
  x,y,z
_cell_length_a	17.640112
_cell_length_b	18.050589
_cell_length_c	17.639477
_cell_angle_alpha	101.240153
_cell_angle_beta	65.723826
_cell_angle_gamma	101.252307
loop_
_atom_site_label
_atom_site_type_symbol
_atom_site_fract_x
_atom_site_fract_y
_atom_site_fract_z
Zn1	Zn	1.165542	-0.033819	0.211677
Zn2	Zn	1.193281	-0.178915	0.073906
Zn3	Zn	1.055593	-0.075644	0.101705
Zn4	Zn	1.027704	-0.178901	0.239467
O5	O	1.110530	-0.116820	0.156689
O6	O	1.284530	-0.035568	0.170137
O7	O	1.198297	-0.182726	-0.037718
O8	O	1.070240	0.033842	0.116297
O9	O	1.304910	-0.142170	0.068917
O10	O	1.151019	0.064570	0.197093
O11	O	1.097138	-0.106853	-0.017294
O12	O	0.936584	-0.106839	0.143244
O13	O	1.022708	-0.142146	0.351092
O14	O	0.916095	-0.182702	0.244457
O15	O	1.123976	-0.035554	0.330675
O16	O	1.171255	-0.282851	0.095864
O17	O	1.049606	-0.282840	0.217501
C18	C	0.896441	-0.149308	0.199883
C19	C	0.804849	-0.163221	0.218381
C20	C	0.556758	-0.011107	0.016166
C21	C	0.470691	-0.024194	0.033559
C22	C	0.449446	-0.103348	0.138771
C23	C	0.535512	-0.090264	0.121389
C24	C	0.589162	-0.044144	0.060086
C25	C	0.567916	-0.123302	0.165309
C26	C	0.653976	-0.110222	0.147925
C27	C	0.707631	-0.064106	0.086623
C28	C	0.675221	-0.031064	0.042702
C29	C	0.514266	-0.169426	0.226608
C30	C	0.546670	-0.202464	0.270527
C31	C	0.632730	-0.189380	0.253148
C32	C	0.686386	-0.143263	0.191846
C33	C	0.665140	-0.222421	0.297069
C34	C	0.751200	-0.209342	0.279685
C35	C	0.772445	-0.130184	0.174462
C36	C	1.110433	-0.309789	0.156695
C37	C	1.110462	-0.392326	0.156710
C38	C	1.044367	-0.591793	0.222826
C39	C	1.039478	-0.655680	0.151685
C40	C	1.110540	-0.543443	0.156705
C41	C	1.115468	-0.626630	0.227846
C42	C	1.110614	-0.689414	0.156706
C43	C	1.105620	-0.606255	0.085532
C44	C	1.181635	-0.577188	0.161737
C45	C	1.176785	-0.641056	0.090538
C46	C	1.110496	-0.459353	0.156705
C47	C	1.110660	-0.773503	0.156697
C48	C	1.325454	-0.084205	0.113326
C49	C	1.417043	-0.070307	0.094848
C50	C	1.067137	-0.084183	0.371618
C51	C	1.048646	-0.070275	0.463208
C52	C	1.110646	0.076909	0.156696
C53	C	1.110695	0.159465	0.156699
C54	C	1.153801	-0.149269	-0.057414
C55	C	1.172453	-0.162943	-0.149036
C56	C	1.251183	-0.222049	0.711242
C57	C	1.233797	-0.208974	0.797307
C58	C	1.128467	-0.129972	0.818572
C59	C	1.145841	-0.143044	0.732508
C60	C	1.207201	-0.189083	0.678849
C61	C	1.101859	-0.110077	0.700115
C62	C	1.119235	-0.123145	0.614057
C63	C	1.180594	-0.169179	0.560393
C64	C	1.224577	-0.202150	0.592791
C65	C	1.040503	-0.064035	0.753774
C66	C	0.996521	-0.031068	0.721381
C67	C	1.013893	-0.044140	0.635323
C68	C	1.075252	-0.090174	0.581659
C69	C	0.969909	-0.011169	0.602925
C70	C	0.987286	-0.024236	0.516867
C71	C	1.092628	-0.103242	0.495601
H72	H	0.777583	-0.236243	0.315450
H73	H	0.718904	0.006505	-0.007205
Cl74	Cl	0.946706	-0.708174	0.145102
H75	H	1.142601	-0.140723	0.451907
Cl76	Cl	1.202443	-0.185605	0.452204
Cl77	Cl	1.301706	-0.260040	0.525330
H78	H	1.232788	-0.662555	0.034568
Cl79	Cl	1.099122	-0.591856	-0.007360
Cl80	Cl	0.892784	0.046715	0.670389
H81	H	0.946564	0.006419	0.765081
Cl82	Cl	1.289103	-0.250417	0.838024
Cl83	Cl	1.328312	-0.279939	0.643780
H84	H	0.502978	-0.240018	0.320438
H85	H	1.078510	-0.092486	0.862272
Cl86	Cl	1.274374	-0.524665	0.168358
Cl87	Cl	0.957887	-0.558419	0.309077
H88	H	0.405754	-0.140902	0.188682
Cl89	Cl	0.839896	-0.072197	0.097399
Cl90	Cl	0.815823	-0.047666	0.064763
Cl91	Cl	1.121860	-0.641197	0.320730
Cl92	Cl	1.018664	-0.047602	0.861961
Cl93	Cl	0.429959	0.017338	-0.021667
H94	H	0.951474	0.002612	0.490492
H95	H	0.600440	0.026462	-0.033741
Cl96	Cl	0.406078	-0.185880	0.248451
H97	H	0.621448	-0.259979	0.346976
