data_functionalizedCrystal
_audit_creation_method	'MofGen! by Chris Wilmer'
_symmetry_space_group_name_H-M	'P1'
_symmetry_Int_Tables_number	1
_symmetry_cell_setting	triclinic
loop_
_symmetry_equiv_pos_as_xyz
  x,y,z
_cell_length_a	12.759401
_cell_length_b	12.594516
_cell_length_c	12.759401
_cell_angle_alpha	90.006754
_cell_angle_beta	90.001129
_cell_angle_gamma	90.011977
loop_
_atom_site_label
_atom_site_type_symbol
_atom_site_fract_x
_atom_site_fract_y
_atom_site_fract_z
Zn1	Zn	1.606096	-0.423927	0.593986
Zn2	Zn	1.606053	-0.601872	0.418309
Zn3	Zn	1.430452	-0.423908	0.418326
Zn4	Zn	1.430396	-0.601865	0.593950
O5	O	1.518249	-0.512893	0.506143
O6	O	1.753112	-0.447543	0.570690
O7	O	1.582764	-0.578260	0.271290
O8	O	1.453793	-0.274965	0.441650
O9	O	1.753080	-0.578278	0.441621
O10	O	1.582838	-0.274979	0.570707
O11	O	1.453751	-0.447511	0.271303
O12	O	1.283423	-0.447504	0.441615
O13	O	1.453698	-0.578266	0.740976
O14	O	1.283382	-0.578247	0.570645
O15	O	1.582784	-0.447536	0.741003
O16	O	1.582710	-0.750817	0.441586
O17	O	1.453656	-0.750811	0.570629
C18	C	1.245282	-0.512873	0.506129
C19	C	1.128505	-0.512891	0.506148
C20	C	1.073649	-0.581078	0.573223
C21	C	0.963925	-0.581091	0.573234
C22	C	0.963923	-0.444728	0.439086
C23	C	1.073645	-0.444710	0.439081
C24	C	1.073650	-0.659810	0.650669
C25	C	0.963926	-0.659823	0.650680
C26	C	1.518200	-0.789434	0.506125
C27	C	1.518276	-0.907739	0.506152
C28	C	1.588550	-0.976957	0.436040
C29	C	1.614196	-1.047689	0.531933
C30	C	1.492761	-1.047806	0.410321
C31	C	1.543971	-0.976913	0.602095
C32	C	1.422491	-0.977024	0.480418
C33	C	1.448101	-1.047725	0.576376
C34	C	1.792282	-0.512914	0.506158
C35	C	1.909059	-0.512922	0.506164
C36	C	1.518240	-0.512902	0.780176
C37	C	1.518236	-0.512906	0.896953
C38	C	1.518327	-0.235272	0.506184
C39	C	1.518360	-0.116967	0.506202
C40	C	1.585417	-0.580981	1.061529
C41	C	1.585408	-0.580981	0.951805
C42	C	1.451059	-0.444833	0.951830
C43	C	1.451064	-0.444839	1.061552
C44	C	1.662986	-0.659582	1.061514
C45	C	1.662977	-0.659582	0.951790
C46	C	1.518249	-0.512910	1.233176
C47	C	1.518248	-0.512911	1.116399
H48	H	1.103432	-0.637861	0.732075
H49	H	1.396360	-0.389412	0.907161
N50	N	1.624339	-0.763313	0.906714
H51	H	1.681175	-0.796114	0.862142
H52	H	1.560249	-0.749826	0.862214
H53	H	1.107677	-0.738061	0.621385
H54	H	1.118304	-0.389178	0.384469
H55	H	0.929903	-0.630432	0.728031
H56	H	1.396357	-0.389421	1.106223
H57	H	1.744350	-0.637501	0.922012
N58	N	1.634097	-0.768771	1.100951
H59	H	1.621194	-0.817493	1.039408
H60	H	1.568477	-0.763951	1.144958
H61	H	1.647988	-0.945884	0.376803
H62	H	1.471145	-1.078946	0.329257
N63	N	0.904751	-0.371208	0.366737
H64	H	0.826918	-0.381568	0.376914
H65	H	0.923931	-0.387666	0.291679
N66	N	0.924459	-0.768971	0.621631
H67	H	0.985989	-0.817666	0.608652
H68	H	0.880447	-0.764048	0.556022
N69	N	1.369436	-1.088643	0.655028
H70	H	1.314859	-1.132848	0.617816
H71	H	1.334347	-1.026676	0.690980
H72	H	1.565506	-0.945905	0.683229
H73	H	1.341475	-0.945959	0.458595
N74	N	1.721536	-1.088816	0.560808
H75	H	1.774541	-1.063082	0.507788
H76	H	1.720498	-1.168998	0.561297
H77	H	1.740288	-0.630060	1.095550
