data_functionalizedCrystal
_audit_creation_method	'MofGen! by Chris Wilmer'
_symmetry_space_group_name_H-M	'P1'
_symmetry_Int_Tables_number	1
_symmetry_cell_setting	triclinic
loop_
_symmetry_equiv_pos_as_xyz
  x,y,z
_cell_length_a	13.032721
_cell_length_b	13.033652
_cell_length_c	19.805399
_cell_angle_alpha	82.845302
_cell_angle_beta	97.155902
_cell_angle_gamma	76.639675
loop_
_atom_site_label
_atom_site_type_symbol
_atom_site_fract_x
_atom_site_fract_y
_atom_site_fract_z
Zn1	Zn	-0.216404	-1.570071	-0.271546
Zn2	Zn	-0.394048	-1.547395	-0.174833
Zn3	Zn	-0.239020	-1.392453	-0.174821
Zn4	Zn	-0.416568	-1.369864	-0.304415
O5	O	-0.316510	-1.469946	-0.231404
O6	O	-0.221079	-1.715693	-0.244966
O7	O	-0.373523	-1.526805	-0.080121
O8	O	-0.087372	-1.434958	-0.173892
O9	O	-0.351593	-1.699033	-0.173911
O10	O	-0.070755	-1.565453	-0.244955
O11	O	-0.259625	-1.412970	-0.080113
O12	O	-0.281463	-1.240826	-0.205763
O13	O	-0.389976	-1.396458	-0.394765
O14	O	-0.411906	-1.224230	-0.300975
O15	O	-0.242916	-1.543549	-0.370616
O16	O	-0.545684	-1.504901	-0.205783
O17	O	-0.562230	-1.374470	-0.300986
C18	C	-0.351583	-1.193989	-0.256935
C19	C	-0.366613	-1.075931	-0.267876
C20	C	-0.308676	-1.031493	-0.225702
C21	C	-0.324209	-0.909473	-0.237009
C22	C	-0.592496	-1.434803	-0.256964
C23	C	-0.710552	-1.419865	-0.267913
C24	C	-0.754956	-1.477798	-0.225715
C25	C	-0.876973	-1.462361	-0.237030
C26	C	-0.039443	-1.505255	-0.205755
C27	C	0.078627	-1.520301	-0.194826
C28	C	-0.316436	-1.470014	-0.407935
C29	C	-0.316404	-1.470043	-0.483162
C30	C	-0.281293	-0.746980	-0.205768
C31	C	-0.266265	-0.865039	-0.194829
C32	C	-0.239826	-1.546635	-0.505932
C33	C	-0.239794	-1.546650	-0.576617
C34	C	-0.316345	-1.470076	-0.624530
C35	C	-0.392927	-1.393476	-0.601755
C36	C	-0.392953	-1.393457	-0.531072
C37	C	-0.392820	-1.393548	-0.886814
C38	C	-0.392789	-1.393575	-0.957502
C39	C	-0.239661	-1.546741	-0.932359
C40	C	-0.239687	-1.546722	-0.861676
C41	C	-0.316265	-1.470119	-0.838907
C42	C	-0.316298	-1.470103	-0.762263
C43	C	-0.316318	-1.470096	-0.701173
C44	C	-0.316500	-1.469949	-0.055547
C45	C	-0.316206	-1.470163	0.019727
H46	H	-0.702642	-1.538829	-0.181212
C47	C	-0.947633	-1.379914	-0.297156
H48	H	-1.020373	-1.380350	-0.296871
H49	H	-0.927478	-1.397697	-0.339532
H50	H	-0.938655	-1.310823	-0.292148
H51	H	-0.455252	-1.331125	-0.640772
C52	C	-0.850717	-1.602726	-0.134687
H53	H	-0.777979	-1.602276	-0.134962
H54	H	-0.859687	-1.671822	-0.139673
H55	H	-0.870888	-1.584908	-0.092317
H56	H	-0.455129	-1.331215	-0.996513
C57	C	-0.781216	-1.337423	-0.328036
H58	H	-0.853955	-1.337859	-0.327751
H59	H	-0.761061	-1.355206	-0.370412
H60	H	-0.772237	-1.268332	-0.323028
H61	H	-0.205162	-0.917323	-0.150347
H62	H	-0.385317	-0.857187	-0.281488
C63	C	-0.226125	-1.102117	-0.165618
H64	H	-0.191793	-1.058414	-0.140623
H65	H	-0.174428	-1.151287	-0.183297
H66	H	-0.261232	-1.140208	-0.135857
H67	H	-0.177355	-1.609079	-0.822667
H68	H	-0.177439	-1.609021	-0.595152
C69	C	-0.155615	-1.630863	-0.453234
H70	H	-0.109997	-1.676472	-0.476922
H71	H	-0.190370	-1.671959	-0.425139
H72	H	-0.114504	-1.596113	-0.425137
H73	H	-0.455301	-1.331079	-0.512534
H74	H	-0.177304	-1.609112	-0.950905
C75	C	-0.477032	-1.309270	-0.861777
H76	H	-0.522617	-1.263671	-0.900437
H77	H	-0.442265	-1.268173	-0.834729
H78	H	-0.518181	-1.343969	-0.834725
H79	H	-0.427717	-1.023641	-0.312352
