data_functionalizedCrystal
_audit_creation_method	'MofGen! by Chris Wilmer'
_symmetry_space_group_name_H-M	'P1'
_symmetry_Int_Tables_number	1
_symmetry_cell_setting	triclinic
loop_
_symmetry_equiv_pos_as_xyz
  x,y,z
_cell_length_a	17.019383
_cell_length_b	17.038272
_cell_length_c	12.503552
_cell_angle_alpha	86.225932
_cell_angle_beta	97.385699
_cell_angle_gamma	87.246883
loop_
_atom_site_label
_atom_site_type_symbol
_atom_site_fract_x
_atom_site_fract_y
_atom_site_fract_z
O1	O	1.062276	0.090163	0.187481
O2	O	1.562276	0.590163	0.687481
O3	O	0.832455	0.103927	0.166247
O4	O	1.332455	0.603927	0.666247
O5	O	0.945999	-0.016763	0.176729
O6	O	1.445999	0.483237	0.676729
O7	O	0.948731	0.210852	0.176998
O8	O	1.448731	0.710852	0.676998
O9	O	0.937450	-0.007678	-0.002703
O10	O	1.437450	0.492322	0.497297
O11	O	0.823905	0.113011	-0.013185
O12	O	1.323905	0.613011	0.486815
O13	O	1.053727	0.099248	0.008049
O14	O	1.553727	0.599248	0.508049
Cu15	Cu	0.938035	0.106959	-0.018952
Cu16	Cu	1.438035	0.606959	0.481048
Cu17	Cu	0.948146	0.096215	0.193247
Cu18	Cu	1.448146	0.596215	0.693247
O19	O	0.940182	0.219937	-0.002433
O20	O	1.440182	0.719937	0.497567
C21	C	0.798629	0.108124	0.073800
C22	C	1.298629	0.608124	0.573800
C23	C	0.710575	0.107087	0.065664
C24	C	1.210575	0.607087	0.565664
C25	C	0.673860	0.101650	0.159642
C26	C	1.173860	0.601650	0.659642
C27	C	0.591123	0.100689	0.151982
C28	C	1.091123	0.600689	0.651982
C29	C	0.545103	0.105159	0.050343
C30	C	1.045103	0.605159	0.550343
C31	C	0.581823	0.110599	-0.043642
C32	C	1.081823	0.610599	0.456358
C33	C	0.664559	0.111566	-0.035981
C34	C	1.164559	0.611566	0.464019
C35	C	0.295062	0.102493	0.022317
C36	C	0.795062	0.602493	0.522317
C37	C	0.212321	0.101524	0.014663
C38	C	0.712321	0.601524	0.514663
C39	C	0.221627	0.091615	0.210288
C40	C	0.721627	0.591615	0.710288
C41	C	0.304364	0.092578	0.217940
C42	C	0.804364	0.592578	0.717940
C43	C	0.341077	0.098022	0.123955
C44	C	0.841077	0.598022	0.623955
C45	C	0.460532	0.104174	0.042510
C46	C	0.960532	0.604174	0.542510
C47	C	0.425646	0.099012	0.131789
C48	C	0.925646	0.599012	0.631789
C49	C	0.939240	-0.041335	0.086784
C50	C	1.439240	0.458665	0.586784
C51	C	0.931827	-0.128087	0.086099
C52	C	1.431827	0.371913	0.586099
C53	C	0.999885	-0.178574	0.092386
C54	C	1.499885	0.321426	0.592386
C55	C	0.992916	-0.260087	0.091752
C56	C	1.492916	0.239913	0.591752
C57	C	0.917887	-0.291111	0.084824
C58	C	1.417887	0.208889	0.584824
C59	C	0.849823	-0.240618	0.078539
C60	C	1.349823	0.259382	0.578539
C61	C	0.856794	-0.159107	0.079181
C62	C	1.356794	0.340893	0.579181
C63	C	0.893262	-0.536735	0.082563
C64	C	1.393262	-0.036735	0.582563
C65	C	0.886296	-0.618252	0.081919
C66	C	1.386296	-0.118252	0.581919
C67	C	1.029390	-0.637716	0.095134
C68	C	1.529390	-0.137716	0.595134
C69	C	1.036353	-0.556202	0.095768
C70	C	1.536353	-0.056202	0.595768
C71	C	0.968290	-0.505716	0.089490
C72	C	1.468290	-0.005716	0.589490
C73	C	0.910761	-0.374430	0.084172
C74	C	1.410761	0.125570	0.584172
C75	C	0.975417	-0.422399	0.090149
C76	C	1.475417	0.077601	0.590149
C77	C	1.087552	0.095050	0.100498
C78	C	1.587552	0.595050	0.600498
C79	C	1.175606	0.096087	0.108641
C80	C	1.675606	0.596087	0.608641
C81	C	0.946942	0.244509	0.087514
C82	C	1.446942	0.744509	0.587514
C83	C	0.954355	0.331261	0.088206
C84	C	1.454355	0.831261	0.588206
N85	N	0.930930	0.114515	-0.168200
N86	N	1.430930	0.614515	0.331800
C87	C	0.965705	0.077536	-0.437423
C88	C	1.465705	0.577536	0.062577
C89	C	0.920484	0.125630	-0.388274
C90	C	1.420484	0.625630	0.111726
C91	C	0.926298	0.119444	-0.265813
C92	C	1.426298	0.619444	0.234187
C93	C	0.959893	0.083721	-0.559894
C94	C	1.459893	0.583721	-0.059894
N95	N	0.955257	0.088653	0.342496
N96	N	1.455257	0.588653	0.842496
H97	H	0.423053	0.107812	-0.040245
H98	H	0.923053	0.607812	0.459755
C99	C	0.674738	0.091773	0.352237
C100	C	1.174738	0.591773	0.852237
C101	C	0.724442	0.096742	0.271369
C102	C	1.224442	0.596742	0.771369
H103	H	0.705965	0.088751	0.421213
H104	H	1.205965	0.588751	0.921213
H105	H	0.645245	0.046022	0.345457
H106	H	1.145245	0.546022	0.845457
H107	H	0.639305	0.137186	0.344894
H108	H	1.139305	0.637186	0.844894
H109	H	0.759871	0.051326	0.278707
H110	H	1.259871	0.551326	0.778707
H111	H	0.753948	0.142499	0.278153
H112	H	1.253948	0.642499	0.778153
H113	H	1.008783	0.031719	-0.387536
H114	H	1.508783	0.531719	0.112464
H115	H	0.324944	0.106921	-0.054213
H116	H	0.824944	0.606921	0.445787
H117	H	0.877404	0.171450	-0.438167
H118	H	1.377404	0.671450	0.061833
H119	H	0.561234	0.096262	0.228509
H120	H	1.061234	0.596262	0.728509
H121	H	0.341829	0.088932	0.300706
H122	H	0.841829	0.588932	0.800706
C123	C	0.199716	0.150073	0.374265
C124	C	0.699716	0.650073	0.874265
C125	C	0.181270	0.085643	0.313592
C126	C	0.681270	0.585643	0.813592
H127	H	0.174805	0.146384	0.438046
H128	H	0.674805	0.646384	0.938046
H129	H	0.181278	0.197520	0.332546
H130	H	0.681278	0.697520	0.832546
H131	H	0.255578	0.150000	0.393364
H132	H	0.755578	0.650000	0.893364
H133	H	0.125408	0.085720	0.294487
H134	H	0.625408	0.585720	0.794487
H135	H	0.199704	0.038183	0.355319
H136	H	0.699704	0.538183	0.855319
C137	C	0.763371	-0.325662	0.162385
C138	C	1.263371	0.174338	0.662385
C139	C	0.767350	-0.274720	0.070923
C140	C	1.267350	0.225280	0.570923
H141	H	0.712456	-0.346717	0.157675
H142	H	1.212456	0.153283	0.657675
H143	H	0.772040	-0.297433	0.225471
H144	H	1.272040	0.202567	0.725471
H145	H	0.802912	-0.367393	0.166026
H146	H	1.302912	0.132607	0.666026
H147	H	0.727813	-0.232986	0.067287
H148	H	1.227813	0.267014	0.567287
H149	H	0.758672	-0.302950	0.007820
H150	H	1.258672	0.197050	0.507820
C151	C	0.211428	0.111428	-0.177945
C152	C	0.711428	0.611428	0.322055
C153	C	0.161733	0.106442	-0.097068
C154	C	0.661733	0.606442	0.402932
H155	H	0.180195	0.114466	-0.246917
H156	H	0.680195	0.614466	0.253083
H157	H	0.246858	0.066022	-0.170626
H158	H	0.746858	0.566022	0.329374
H159	H	0.240924	0.157185	-0.171151
H160	H	0.740924	0.657185	0.328849
H161	H	0.132241	0.060681	-0.103858
H162	H	0.632241	0.560681	0.396142
H163	H	0.126290	0.151852	-0.104390
H164	H	0.626290	0.651852	0.395610
H165	H	0.801373	-0.118000	0.074062
H166	H	1.301373	0.382000	0.574062
H167	H	0.544346	0.114243	-0.126400
H168	H	1.044346	0.614243	0.373600
H169	H	0.463118	0.095377	0.214543
H170	H	0.963118	0.595377	0.714543
C171	C	0.647056	0.121250	-0.230116
C172	C	1.147056	0.621250	0.269884
C173	C	0.704919	0.117536	-0.139284
C174	C	1.204919	0.617536	0.360716
H175	H	0.671975	0.124933	-0.293891
H176	H	1.171975	0.624933	0.206109
H177	H	0.612016	0.166246	-0.229308
H178	H	1.112016	0.666246	0.270692
H179	H	0.617945	0.075082	-0.228756
H180	H	1.117945	0.575082	0.271244
H181	H	0.734027	0.163707	-0.140640
H182	H	1.234027	0.663707	0.359360
H183	H	0.739973	0.072535	-0.140093
H184	H	1.239973	0.572535	0.359907
H185	H	0.825195	-0.643507	0.076259
H186	H	1.325195	-0.143507	0.576259
H187	H	1.048337	-0.301191	0.096870
H188	H	1.548337	0.198809	0.596870
C189	C	1.128386	-0.174734	0.196099
C190	C	1.628386	0.325266	0.696099
C191	C	1.082360	-0.144474	0.100008
C192	C	1.582360	0.355526	0.600008
H193	H	1.179302	-0.153679	0.200809
H194	H	1.679302	0.346321	0.700809
H195	H	1.133974	-0.230497	0.196608
H196	H	1.633974	0.269503	0.696608
H197	H	1.103102	-0.160535	0.256049
H198	H	1.603102	0.339465	0.756049
H199	H	1.107642	-0.158679	0.040057
H200	H	1.607642	0.341321	0.540057
H201	H	1.076775	-0.088699	0.099490
H202	H	1.576775	0.411301	0.599490
C203	C	1.164863	-0.552365	0.199472
C204	C	1.664863	-0.052365	0.699472
C205	C	1.118830	-0.522106	0.103387
C206	C	1.618830	-0.022106	0.603387
H207	H	1.215779	-0.531312	0.204171
H208	H	1.715779	-0.031312	0.704171
H209	H	1.170449	-0.608128	0.199984
H210	H	1.670449	-0.108128	0.699984
H211	H	1.139586	-0.538163	0.259427
H212	H	1.639586	-0.038163	0.759427
H213	H	1.144104	-0.536314	0.043431
H214	H	1.644104	-0.036314	0.543431
H215	H	1.113247	-0.466331	0.102866
H216	H	1.613247	0.033669	0.602866
C217	C	1.082245	-0.771309	0.100030
C218	C	1.582245	-0.271309	0.600030
C219	C	1.104202	-0.693212	0.102051
C220	C	1.604202	-0.193212	0.602051
H221	H	1.128435	-0.805569	0.104310
H222	H	1.628435	-0.305569	0.604310
H223	H	1.048734	-0.777502	0.034640
H224	H	1.548734	-0.277502	0.534640
H225	H	1.054685	-0.783824	0.159783
H226	H	1.554685	-0.283824	0.659783
H227	H	1.131757	-0.680696	0.042293
H228	H	1.631757	-0.180696	0.542293
H229	H	1.137727	-0.687016	0.167448
H230	H	1.637727	-0.187016	0.667448
C231	C	0.751121	-0.525694	0.069411
C232	C	1.251121	-0.025694	0.569411
C233	C	0.818446	-0.481247	0.075641
C234	C	1.318446	0.018753	0.575641
H235	H	0.704931	-0.491433	0.065128
H236	H	1.204931	0.008567	0.565128
H237	H	0.754357	-0.561051	0.132005
H238	H	1.254357	-0.061051	0.632005
H239	H	0.748410	-0.554730	0.006863
H240	H	1.248410	-0.054730	0.506863
H241	H	0.821160	-0.452214	0.138195
H242	H	1.321160	0.047786	0.638195
H243	H	0.815209	-0.445875	0.013041
H244	H	1.315209	0.054125	0.513041
H245	H	0.849672	-0.399698	0.078529
H246	H	1.349672	0.100302	0.578529
H247	H	1.036506	-0.397138	0.095814
H248	H	1.536506	0.102862	0.595814
