data_functionalizedCrystal
_audit_creation_method	'MofGen! by Chris Wilmer'
_symmetry_space_group_name_H-M	'P1'
_symmetry_Int_Tables_number	1
_symmetry_cell_setting	triclinic
loop_
_symmetry_equiv_pos_as_xyz
  x,y,z
_cell_length_a	15.021413
_cell_length_b	15.944551
_cell_length_c	15.944551
_cell_angle_alpha	83.498738
_cell_angle_beta	90.009956
_cell_angle_gamma	89.990189
loop_
_atom_site_label
_atom_site_type_symbol
_atom_site_fract_x
_atom_site_fract_y
_atom_site_fract_z
O1	O	-0.073941	-1.114511	-0.108339
O2	O	-0.073964	-0.869962	-0.121695
O3	O	-0.073944	-0.998915	0.007258
O4	O	-0.073961	-0.985559	-0.237292
O5	O	0.074121	-0.998929	0.007275
O6	O	0.074101	-0.869976	-0.121678
O7	O	0.074123	-1.114526	-0.108321
Zn8	Zn	0.097620	-0.992253	-0.114997
Zn9	Zn	-0.097461	-0.992234	-0.115020
O10	O	0.074103	-0.985573	-0.237274
C11	C	0.000066	-0.838675	-0.121132
C12	C	0.000057	-0.745429	-0.119470
N13	N	-0.230598	-0.992222	-0.115029
C14	C	0.000089	-0.998367	0.038561
C15	C	0.000089	-0.996705	0.131807
C16	C	-0.470285	-0.932482	-0.174536
C17	C	-0.529618	-0.916371	-0.098574
C18	C	-0.412205	-0.992239	-0.115011
C19	C	-0.529614	-1.008327	-0.190956
C20	C	-0.587629	-0.992253	-0.115000
C21	C	-0.470232	-0.976090	-0.039010
C22	C	-0.470222	-1.068078	-0.131442
C23	C	-0.529529	-1.052000	-0.055425
C24	C	-0.311148	-0.992228	-0.115018
C25	C	-0.688685	-0.992264	-0.114984
N26	N	0.230758	-0.992272	-0.114981
C27	C	0.000092	-1.145813	-0.108885
C28	C	0.000094	-1.239059	-0.110547
C29	C	0.000081	-0.530572	-0.035565
C30	C	-0.072926	-0.469545	-0.074536
C31	C	0.000068	-0.574703	-0.116462
C32	C	0.073054	-0.469581	-0.074538
C33	C	0.000083	-0.409790	-0.113551
C34	C	-0.072998	-0.514904	-0.155455
C35	C	0.073047	-0.514947	-0.155446
C36	C	0.000023	-0.453937	-0.194476
C37	C	0.000059	-0.669705	-0.118137
C38	C	0.000085	-0.314789	-0.111883
C39	C	0.000069	-0.986120	-0.268577
C40	C	0.000063	-0.987782	-0.361823
C41	C	0.000069	-0.912801	0.346663
C42	C	0.073077	-0.951770	0.407689
C43	C	0.000082	-0.993698	0.302533
C44	C	-0.072903	-0.951775	0.407656
C45	C	0.000071	-0.990787	0.467445
C46	C	0.073150	-1.032690	0.362330
C47	C	-0.072895	-1.032683	0.362290
C48	C	0.000131	-1.071711	0.423298
C49	C	0.000089	-0.995372	0.207530
C50	C	0.000070	-0.989119	0.562446
H51	H	-0.444271	-0.881909	-0.224821
F52	F	-0.153573	-0.907026	0.433906
H53	H	0.000178	-1.138919	0.456457
H54	H	0.000136	-0.845652	0.313356
F55	F	-0.563708	-1.026107	-0.274908
H56	H	0.134794	-0.917560	0.427805
F57	F	-0.153567	-1.077361	0.335967
H58	H	-0.000005	-0.563905	0.031573
H59	H	-0.555714	-0.852243	-0.084669
H60	H	-0.134642	-0.449429	-0.040327
H61	H	-0.444258	-0.962413	0.025234
H62	H	-0.555378	-1.102543	-0.005027
H63	H	0.134773	-0.449501	-0.040300
H64	H	-0.444111	-1.132187	-0.145376
F65	F	-0.000034	-0.410594	-0.282319
H66	H	-0.134787	-0.534886	-0.189653
F67	F	0.153719	-0.541270	-0.200123
H68	H	0.134941	-1.066883	0.342347
