data_functionalizedCrystal
_audit_creation_method	'MofGen! by Chris Wilmer'
_symmetry_space_group_name_H-M	'P1'
_symmetry_Int_Tables_number	1
_symmetry_cell_setting	triclinic
loop_
_symmetry_equiv_pos_as_xyz
  x,y,z
_cell_length_a	19.121102
_cell_length_b	16.625546
_cell_length_c	16.625539
_cell_angle_alpha	90.030397
_cell_angle_beta	87.540653
_cell_angle_gamma	92.423284
loop_
_atom_site_label
_atom_site_type_symbol
_atom_site_fract_x
_atom_site_fract_y
_atom_site_fract_z
Zn1	Zn	1.073748	0.373670	-0.508418
Zn2	Zn	1.573748	0.873670	-0.008418
Zn3	Zn	1.073664	0.508509	-0.373576
Zn4	Zn	1.573664	1.008509	0.126424
Zn5	Zn	0.956295	0.367937	-0.367854
Zn6	Zn	1.456295	0.867937	0.132146
Zn7	Zn	0.956269	0.502702	-0.502624
Zn8	Zn	1.456269	1.002702	-0.002624
O9	O	1.014994	0.438205	-0.438118
O10	O	1.514994	0.938205	0.061882
O11	O	1.172022	0.396387	-0.495351
O12	O	1.672022	0.896387	0.004649
O13	O	1.058070	0.489893	-0.259984
O14	O	1.558070	0.989893	0.240016
O15	O	0.971922	0.255867	-0.386530
O16	O	1.471922	0.755867	0.113470
O17	O	1.171960	0.495452	-0.396283
O18	O	1.671960	0.995452	0.103717
O19	O	1.058214	0.260080	-0.489802
O20	O	1.558214	0.760080	0.010198
O21	O	0.971840	0.386615	-0.255779
O22	O	1.471840	0.886615	0.244221
O23	O	0.858007	0.380984	-0.380912
O24	O	1.358007	0.880984	0.119088
O25	O	0.971878	0.485555	-0.616226
O26	O	1.471878	0.985555	-0.116226
O27	O	0.857988	0.479995	-0.479927
O28	O	1.357988	0.979995	0.020073
O29	O	1.058189	0.390756	-0.620483
O30	O	1.558189	0.890756	-0.120483
O31	O	1.058045	0.620569	-0.390665
O32	O	1.558045	1.120569	0.109335
O33	O	0.971796	0.616302	-0.485476
O34	O	1.471796	1.116302	0.014524
C35	C	0.832514	0.429238	-0.429170
C36	C	1.332514	0.929238	0.070830
C37	C	0.754447	0.425422	-0.425361
C38	C	1.254447	0.925422	0.074639
C39	C	1.014928	0.647692	-0.438081
C40	C	1.514928	1.147692	0.061919
C41	C	1.014964	0.737315	-0.438095
C42	C	1.514964	1.237315	0.061905
C43	C	1.015040	0.438147	-0.648429
C44	C	1.515040	0.938147	-0.148429
C45	C	1.015059	0.438122	-0.738052
C46	C	1.515059	0.938122	-0.238052
C47	C	0.717780	0.475256	-0.475042
C48	C	1.217780	0.975256	0.024958
C49	C	0.644429	0.471659	-0.471467
C50	C	1.144429	0.971659	0.028533
C51	C	0.607746	0.418232	-0.418206
C52	C	1.107746	0.918232	0.081794
C53	C	0.644418	0.368392	-0.368523
C54	C	1.144418	0.868392	0.131477
C55	C	0.717768	0.371985	-0.372102
C56	C	1.217768	0.871985	0.127898
C57	C	0.386276	0.404796	-0.404826
C58	C	0.886276	0.904796	0.095174
C59	C	0.312921	0.401208	-0.401249
C60	C	0.812921	0.901208	0.098751
C61	C	0.312937	0.504476	-0.504195
C62	C	0.812937	1.004476	-0.004195
C63	C	0.386288	0.508067	-0.507766
C64	C	0.886288	1.008067	-0.007766
C65	C	0.422954	0.458224	-0.458086
C66	C	0.922954	0.958224	0.041914
C67	C	0.532769	0.414556	-0.414549
C68	C	1.032769	0.914556	0.085451
C69	C	0.497929	0.461897	-0.461748
C70	C	0.997929	0.961897	0.038252
C71	C	1.198188	0.447207	-0.447102
C72	C	1.698188	0.947207	0.052898
C73	C	1.276254	0.451043	-0.450930
C74	C	1.776254	0.951043	0.049070
C75	C	1.015080	0.227900	-0.438174
C76	C	1.515080	0.727900	0.061826
C77	C	1.015117	0.138281	-0.438198
C78	C	1.515117	0.638281	0.061802
C79	C	1.015086	1.065497	-0.438185
C80	C	1.515086	1.565497	0.061815
C81	C	1.015050	0.974186	-0.438163
C82	C	1.515050	1.474186	0.061837
C83	C	1.015024	0.901409	-0.438140
C84	C	1.515024	1.401409	0.061860
C85	C	1.014989	0.810093	-0.438118
C86	C	1.514989	1.310093	0.061882
C87	C	1.015092	0.438033	-1.066229
C88	C	1.515092	0.938033	-0.566229
C89	C	1.015081	0.438061	-0.974920
C90	C	1.515081	0.938061	-0.474920
C91	C	1.015076	0.438078	-0.902143
C92	C	1.515076	0.938078	-0.402143
C93	C	1.015064	0.438104	-0.810828
C94	C	1.515064	0.938104	-0.310828
C95	C	1.014989	0.438206	-0.228627
C96	C	1.514989	0.938206	0.271373
C97	C	1.015106	0.438010	-0.139012
C98	C	1.515106	0.938010	0.360988
H99	H	0.614578	0.512241	-0.511922
H100	H	1.114578	1.012241	-0.011922
H101	H	0.416150	0.551576	-0.551135
H102	H	0.916150	1.051576	-0.051135
N103	N	0.537493	0.519527	-0.519185
N104	N	1.037493	1.019527	-0.019185
H105	H	0.503137	0.550558	-0.550116
H106	H	1.003137	1.050558	-0.050116
H107	H	0.567951	0.488247	-0.558045
H108	H	1.067951	0.988247	-0.058045
N109	N	0.425817	0.351027	-0.351258
N110	N	0.925817	0.851027	0.148742
H111	H	0.391447	0.316635	-0.316978
H112	H	0.891447	0.816635	0.183022
H113	H	0.456235	0.385274	-0.315363
H114	H	0.956235	0.885274	0.184637
H115	H	0.283075	0.545054	-0.544643
H116	H	0.783075	1.045054	-0.044643
H117	H	0.747622	0.331400	-0.331651
H118	H	1.247622	0.831400	0.168349
H119	H	0.614545	0.324886	-0.325160
H120	H	1.114545	0.824886	0.174840
H121	H	0.283056	0.357692	-0.357882
H122	H	0.783056	0.857692	0.142118
N123	N	0.493201	0.356943	-0.357094
N124	N	0.993201	0.856943	0.142906
H125	H	0.527557	0.325918	-0.326157
H126	H	1.027557	0.825918	0.173843
H127	H	0.462791	0.318180	-0.388498
H128	H	0.962791	0.818180	0.111502
H129	H	0.747642	0.518766	-0.518411
H130	H	1.247642	1.018766	-0.018411
