data_functionalizedCrystal
_audit_creation_method	'MofGen! by Chris Wilmer'
_symmetry_space_group_name_H-M	'P1'
_symmetry_Int_Tables_number	1
_symmetry_cell_setting	triclinic
loop_
_symmetry_equiv_pos_as_xyz
  x,y,z
_cell_length_a	13.033293
_cell_length_b	16.625545
_cell_length_c	13.033255
_cell_angle_alpha	97.153062
_cell_angle_beta	74.801189
_cell_angle_gamma	97.195104
loop_
_atom_site_label
_atom_site_type_symbol
_atom_site_fract_x
_atom_site_fract_y
_atom_site_fract_z
Zn1	Zn	1.700224	-0.233626	-0.807154
Zn2	Zn	2.033558	0.099708	-0.473821
Zn3	Zn	2.366891	0.433041	-0.140487
Zn4	Zn	1.677536	-0.353291	-0.629524
Zn5	Zn	2.010869	-0.019958	-0.296191
Zn6	Zn	2.344202	0.313376	0.037143
Zn7	Zn	1.500032	-0.233642	-0.606960
Zn8	Zn	1.833366	0.099692	-0.273627
Zn9	Zn	2.166699	0.433025	0.059707
Zn10	Zn	1.522526	-0.383595	-0.784494
Zn11	Zn	1.855860	-0.050262	-0.451160
Zn12	Zn	2.189193	0.283071	-0.117827
O13	O	1.600080	-0.301038	-0.707033
O14	O	1.933413	0.032295	-0.373700
O15	O	2.266746	0.365628	-0.040366
O16	O	1.845867	-0.236810	-0.802518
O17	O	2.179201	0.096523	-0.469184
O18	O	2.512534	0.429856	-0.135851
O19	O	1.635080	-0.324743	-0.477894
O20	O	1.968414	0.008590	-0.144560
O21	O	2.301747	0.341923	0.188773
O22	O	1.526670	-0.120803	-0.633557
O23	O	1.860003	0.212530	-0.300223
O24	O	2.193337	0.545864	0.033110
O25	O	1.829198	-0.324728	-0.672014
O26	O	2.162532	0.008606	-0.338680
O27	O	2.495865	0.341939	-0.005347
O28	O	1.673750	-0.120791	-0.780638
O29	O	2.007083	0.212542	-0.447305
O30	O	2.340417	0.545875	-0.113972
O31	O	1.504670	-0.236838	-0.461316
O32	O	1.838003	0.096496	-0.127983
O33	O	2.171336	0.429829	0.205351
O34	O	1.354363	-0.266222	-0.611584
O35	O	1.687697	0.067111	-0.278250
O36	O	2.021030	0.400444	0.055083
O37	O	1.565007	-0.376377	-0.936137
O38	O	1.898341	-0.043044	-0.602803
O39	O	2.231674	0.290289	-0.269470
O40	O	1.370889	-0.376393	-0.742017
O41	O	1.704223	-0.043059	-0.408683
O42	O	2.037556	0.290274	-0.075350
O43	O	1.695561	-0.266195	-0.952785
O44	O	2.028895	0.067138	-0.619452
O45	O	2.362228	0.400471	-0.286119
O46	O	1.656892	-0.470147	-0.650041
O47	O	1.990225	-0.136814	-0.316707
O48	O	2.323558	0.196519	0.016626
O49	O	1.543007	-0.492412	-0.763896
O50	O	1.876340	-0.159078	-0.430563
O51	O	2.209674	0.174255	-0.097229
C52	C	1.324082	-0.324598	-0.671893
C53	C	1.657416	0.008735	-0.338560
C54	C	1.990749	0.342068	-0.005227
C55	C	1.206013	-0.334699	-0.656886
C56	C	1.539346	-0.001366	-0.323552
C57	C	1.872679	0.331968	0.009781
C58	C	1.161634	-0.295787	-0.714865
C59	C	1.494967	0.037546	-0.381532
C60	C	1.828300	0.370880	-0.048199
C61	C	1.039603	-0.306226	-0.699356
C62	C	1.372936	0.027108	-0.366022
C63	C	1.706269	0.360441	-0.032689
C64	C	1.599960	-0.510536	-0.706985
C65	C	1.933293	-0.177203	-0.373651
C66	C	2.266627	0.156130	-0.040318
C67	C	1.600010	-0.600155	-0.707012
C68	C	1.933344	-0.266822	-0.373679
C69	C	2.266677	0.066512	-0.040345
C70	C	1.600054	-0.672936	-0.707038
C71	C	1.933388	-0.339602	-0.373705
C72	C	2.266721	-0.006269	-0.040372
C73	C	1.600119	-0.764241	-0.707070
C74	C	1.933453	-0.430908	-0.373736
C75	C	2.266786	-0.097574	-0.040403
C76	C	1.600176	-0.837014	-0.707090
C77	C	1.933509	-0.503680	-0.373757
C78	C	2.266843	-0.170347	-0.040424
C79	C	1.600240	-0.928325	-0.707120
C80	C	1.933573	-0.594991	-0.373786
C81	C	2.266906	-0.261658	-0.040453
C82	C	1.877155	-0.277387	-0.742310
C83	C	2.210488	0.055946	-0.408977
C84	C	2.543821	0.389280	-0.075644
C85	C	1.995227	-0.267308	-0.757344
C86	C	2.328561	0.066025	-0.424010
C87	C	2.661894	0.399359	-0.090677
C88	C	1.635324	-0.324665	-0.984079
C89	C	1.968657	0.008669	-0.650745
C90	C	2.301991	0.342002	-0.317412
C91	C	1.650343	-0.334733	-1.102139
C92	C	1.983677	-0.001400	-0.768806
C93	C	2.317010	0.331934	-0.435472
C94	C	1.600232	-0.090722	-0.707108
C95	C	1.933565	0.242611	-0.373775
C96	C	2.266898	0.575945	-0.040441
C97	C	1.600296	-0.001098	-0.707140
C98	C	1.933630	0.332236	-0.373807
C99	C	2.266963	0.665569	-0.040474
C100	C	1.608044	-0.306131	-1.268599
C101	C	1.941377	0.027202	-0.935265
C102	C	2.274710	0.360535	-0.601932
C103	C	1.592512	-0.295724	-1.146576
C104	C	1.925845	0.037609	-0.813243
C105	C	2.259179	0.370943	-0.479909
C106	C	1.565033	-0.277440	-0.431073
C107	C	1.898367	0.055893	-0.097739
C108	C	2.231700	0.389226	0.235594
C109	C	1.550220	-0.267128	-0.313039
C110	C	1.883553	0.066206	0.020294
C111	C	2.216887	0.399539	0.353627
H112	H	1.153664	-0.375739	-0.595762
H113	H	1.486997	-0.042406	-0.262429
H114	H	1.820331	0.290927	0.070904
N115	N	1.469418	-0.212678	-1.243797
N116	N	1.802751	0.120655	-0.910463
N117	N	2.136085	0.453988	-0.577130
H118	H	1.395942	-0.233307	-1.253383
H119	H	1.729275	0.100026	-0.920049
H120	H	2.062608	0.433359	-0.586716
H121	H	1.469867	-0.212975	-1.166473
H122	H	1.803201	0.120358	-0.833140
H123	H	2.136534	0.453691	-0.499807
N124	N	0.970269	-0.360588	-0.618382
N125	N	1.303602	-0.027255	-0.285049
N126	N	1.636936	0.306078	0.048285
H127	H	0.929713	-0.405588	-0.655649
H128	H	1.263047	-0.072255	-0.322316
H129	H	1.596380	0.261079	0.011017
H130	H	1.016716	-0.385064	-0.581839
H131	H	1.350049	-0.051731	-0.248506
H132	H	1.683382	0.281602	0.084827
N133	N	1.064549	-0.212932	-0.838306
N134	N	1.397882	0.120402	-0.504973
N135	N	1.731216	0.453735	-0.171640
H136	H	1.141898	-0.213179	-0.837910
H137	H	1.475231	0.120155	-0.504577
H138	H	1.808564	0.453488	-0.171243
H139	H	1.054874	-0.233678	-0.911698
H140	H	1.388207	0.099655	-0.578365
H141	H	1.721541	0.432989	-0.245032
N142	N	1.511708	-0.241278	-1.077318
N143	N	1.845041	0.092055	-0.743985
N144	N	2.178375	0.425389	-0.410651
H145	H	1.530686	-0.183888	-1.098689
H146	H	1.864019	0.149446	-0.765356
H147	H	2.197352	0.482779	-0.432022
H148	H	1.438261	-0.261973	-1.086925
H149	H	1.771594	0.071360	-0.753592
H150	H	2.104928	0.404693	-0.420258
N151	N	1.731150	-0.389182	-1.171382
N152	N	2.064484	-0.055849	-0.838049
N153	N	2.397817	0.277484	-0.504716
H154	H	1.730792	-0.388902	-1.248736
H155	H	2.064125	-0.055569	-0.915403
H156	H	2.397459	0.277764	-0.582069
H157	H	1.804583	-0.368519	-1.161708
H158	H	2.137916	-0.035185	-0.828375
H159	H	2.471250	0.298148	-0.495042
N160	N	1.230964	-0.241436	-0.795849
N161	N	1.564298	0.091898	-0.462516
N162	N	1.897631	0.425231	-0.129183
H163	H	1.308313	-0.241692	-0.795460
H164	H	1.641646	0.091642	-0.462127
H165	H	1.974980	0.424975	-0.128793
H166	H	1.221274	-0.262203	-0.869230
H167	H	1.554607	0.071131	-0.535897
H168	H	1.887941	0.404464	-0.202564
N169	N	1.688840	-0.360582	-1.337847
N170	N	2.022173	-0.027249	-1.004514
N171	N	2.355507	0.306084	-0.671180
H172	H	1.688478	-0.360302	-1.415200
H173	H	2.021811	-0.026969	-1.081866
H174	H	2.355145	0.306364	-0.748533
H175	H	1.762276	-0.339924	-1.328178
H176	H	2.095609	-0.006590	-0.994845
H177	H	2.428942	0.326743	-0.661511
