data_functionalizedCrystal
_audit_creation_method	'MofGen! by Chris Wilmer'
_symmetry_space_group_name_H-M	'P1'
_symmetry_Int_Tables_number	1
_symmetry_cell_setting	triclinic
loop_
_symmetry_equiv_pos_as_xyz
  x,y,z
_cell_length_a	16.120484
_cell_length_b	16.959455
_cell_length_c	16.959447
_cell_angle_alpha	89.982129
_cell_angle_beta	92.870259
_cell_angle_gamma	92.924951
loop_
_atom_site_label
_atom_site_type_symbol
_atom_site_fract_x
_atom_site_fract_y
_atom_site_fract_z
Zn1	Zn	-0.331933	1.192421	-0.462858
Zn2	Zn	0.168067	1.692421	0.037142
Zn3	Zn	-0.471354	1.185621	-0.337375
Zn4	Zn	0.028646	1.685621	0.162625
Zn5	Zn	-0.331957	1.060241	-0.330696
Zn6	Zn	0.168043	1.560241	0.169304
Zn7	Zn	-0.471306	1.053501	-0.469510
Zn8	Zn	0.028694	1.553501	0.030490
O9	O	-0.401637	1.122946	-0.400110
O10	O	0.098363	1.622946	0.099890
O11	O	-0.350438	1.302129	-0.446223
O12	O	0.149562	1.802129	0.053777
O13	O	-0.452892	1.168963	-0.225879
O14	O	0.047108	1.668963	0.274121
O15	O	-0.215288	1.083441	-0.342648
O16	O	0.284712	1.583441	0.157352
O17	O	-0.452869	1.297133	-0.354032
O18	O	0.047131	1.797133	0.145968
O19	O	-0.215271	1.180553	-0.439747
O20	O	0.284729	1.680553	0.060253
O21	O	-0.350478	1.076847	-0.220972
O22	O	0.149522	1.576847	0.279028
O23	O	-0.350432	0.948736	-0.349098
O24	O	0.149568	1.448736	0.150902
O25	O	-0.452788	1.071954	-0.579237
O26	O	0.047212	1.571954	-0.079237
O27	O	-0.452811	0.943784	-0.451085
O28	O	0.047189	1.443784	0.048915
O29	O	-0.350392	1.174018	-0.574350
O30	O	0.149608	1.674018	-0.074350
O31	O	-0.588013	1.162428	-0.360482
O32	O	-0.088013	1.662428	0.139518
O33	O	-0.587978	1.065360	-0.457562
O34	O	-0.087978	1.565360	0.042438
C35	C	-0.401619	0.917580	-0.400089
C36	C	0.098381	1.417580	0.099911
C37	C	-0.401632	0.829723	-0.400100
C38	C	0.098368	1.329723	0.099900
C39	C	-0.454887	0.785850	-0.352025
C40	C	0.045113	1.285850	0.147975
C41	C	-0.348383	0.791043	-0.448182
C42	C	0.151617	1.291043	0.051818
C43	C	-0.348389	0.708496	-0.448192
C44	C	0.151611	1.208496	0.051808
C45	C	-0.401645	0.664623	-0.400117
C46	C	0.098355	1.164623	0.099883
C47	C	-0.454893	0.703296	-0.352031
C48	C	0.045107	1.203296	0.147969
C49	C	-0.295136	0.669818	-0.496271
C50	C	0.204864	1.169818	0.003729
C51	C	-0.295139	0.587267	-0.496282
C52	C	0.204861	1.087267	0.003718
C53	C	-0.348400	0.543391	-0.448210
C54	C	0.151600	1.043391	0.051790
C55	C	-0.401651	0.582069	-0.400123
C56	C	0.098349	1.082069	0.099877
C57	C	-0.454906	0.538196	-0.352048
C58	C	0.045094	1.038196	0.147952
C59	C	-0.508163	0.576872	-0.303965
C60	C	-0.008163	1.076872	0.196035
C61	C	-0.508154	0.659421	-0.303959
C62	C	-0.008154	1.159421	0.196041
C63	C	-0.348409	0.460843	-0.448215
C64	C	0.151591	0.960843	0.051785
C65	C	-0.454913	0.455642	-0.352054
C66	C	0.045087	0.955642	0.147946
C67	C	-0.618246	1.112446	-0.410486
C68	C	-0.118246	1.612446	0.089514
C69	C	-0.710912	1.108027	-0.414952
C70	C	-0.210912	1.608027	0.085048
C71	C	-0.880574	1.099963	-0.423121
C72	C	-0.380574	1.599963	0.076879
C73	C	-0.921861	1.146070	-0.377112
C74	C	-0.421861	1.646070	0.122888
C75	C	-1.016266	1.141583	-0.381657
C76	C	-0.516266	1.641583	0.118343
C77	C	-0.786159	1.104449	-0.418576
C78	C	-0.286159	1.604449	0.081424
C79	C	-0.184183	1.133508	-0.389710
C80	C	0.315817	1.633508	0.110290
C81	C	-0.091517	1.138008	-0.385278
C82	C	0.408483	1.638008	0.114722
C83	C	-0.401582	1.122993	-0.606275
C84	C	0.098418	1.622993	-0.106275
C85	C	-0.401558	1.123013	-0.694131
C86	C	0.098442	1.623013	-0.194131
C87	C	-0.401656	1.329113	-0.400131
C88	C	0.098344	1.829113	0.099869
C89	C	-0.401664	1.416969	-0.400140
C90	C	0.098336	1.916969	0.099860
C91	C	-0.454861	1.069883	-0.737951
C92	C	0.045139	1.569883	-0.237951
C93	C	-0.348228	1.176157	-0.732863
C94	C	0.151772	1.676157	-0.232863
C95	C	-0.348201	1.176175	-0.815408
C96	C	0.151799	1.676175	-0.315408
C97	C	-0.401504	1.123045	-0.859228
C98	C	0.098496	1.623045	-0.359228
C99	C	-0.454834	1.069898	-0.820503
C100	C	0.045166	1.569898	-0.320503
C101	C	-0.294865	1.229315	-0.854139
C102	C	0.205135	1.729315	-0.354139
C103	C	-0.294835	1.229335	-0.936688
C104	C	0.205165	1.729335	-0.436688
C105	C	-0.348143	1.176208	-0.980510
C106	C	0.151857	1.676208	-0.480510
C107	C	-0.401476	1.123059	-0.941780
C108	C	0.098524	1.623059	-0.441780
C109	C	-0.454779	1.069930	-0.985600
C110	C	0.045221	1.569930	-0.485600
C111	C	-0.508117	1.016784	-0.946872
C112	C	-0.008117	1.516784	-0.446872
C113	C	-0.508141	1.016771	-0.864324
C114	C	-0.008141	1.516771	-0.364324
C115	C	-0.348118	1.176221	-1.063057
C116	C	0.151882	1.676221	-0.563057
C117	C	-0.454752	1.069944	-1.068152
C118	C	0.045248	1.569944	-0.568152
C119	C	-0.401633	1.122947	-0.194743
C120	C	0.098367	1.622947	0.305257
C121	C	-0.401421	1.123092	-0.106877
C122	C	0.098579	1.623092	0.393123
H123	H	-0.551510	0.690918	-0.264811
H124	H	-0.051510	1.190918	0.235189
N125	N	-0.565593	0.529549	-0.252104
N126	N	-0.065593	1.029549	0.247896
H127	H	-0.557508	0.471387	-0.259404
H128	H	-0.057508	0.971387	0.240596
H129	H	-0.625153	0.541089	-0.267167
H130	H	-0.125153	1.041089	0.232833
N131	N	-0.512327	0.827557	-0.300166
N132	N	-0.012327	1.327557	0.199834
H133	H	-0.504246	0.886509	-0.307455
H134	H	-0.004246	1.386509	0.192545
H135	H	-0.499275	0.813737	-0.243110
H136	H	0.000725	1.313737	0.256890
H137	H	-0.498284	0.419926	-0.312908
H138	H	0.001716	0.919926	0.187092
N139	N	-0.927657	1.043204	-0.479807
N140	N	-0.427657	1.543204	0.020193
H141	H	-0.912509	1.056143	-0.535582
H142	H	-0.412509	1.556143	-0.035582
H143	H	-0.989385	1.048028	-0.474985
H144	H	-0.489385	1.548028	0.025015
N145	N	-0.874774	1.202818	-0.320408
N146	N	-0.374774	1.702818	0.179592
H147	H	-0.889810	1.258588	-0.333444
H148	H	-0.389810	1.758588	0.166556
H149	H	-0.813046	1.197951	-0.325183
H150	H	-0.313046	1.697951	0.174817
H151	H	-0.305021	0.826769	-0.487320
H152	H	0.194979	1.326769	0.012680
N153	N	-0.237303	1.286645	-0.978456
N154	N	0.262697	1.786645	-0.478456
H155	H	-0.203537	1.320296	-0.938170
H156	H	0.296463	1.820296	-0.438170
H157	H	-0.271221	1.321589	-1.014338
H158	H	0.228779	1.821589	-0.514338
H159	H	-0.498161	1.026682	-1.103825
H160	H	0.001839	1.526682	-0.603825
N161	N	-0.565663	0.959449	-0.822558
N162	N	-0.065663	1.459449	-0.322558
H163	H	-0.604307	0.989691	-0.790159
H164	H	-0.104307	1.489691	-0.290159
H165	H	-0.531729	0.924470	-0.786726
H166	H	-0.031729	1.424470	-0.286726
H167	H	-0.251775	0.705545	-0.535408
H168	H	0.248225	1.205545	-0.035408
H169	H	-0.551511	0.973522	-0.982560
H170	H	-0.051511	1.473522	-0.482560
N171	N	-0.512392	1.012567	-0.696187
N172	N	-0.012392	1.512567	-0.196187
H173	H	-0.504326	1.020618	-0.637244
H174	H	-0.004326	1.520618	-0.137244
H175	H	-0.499410	0.956747	-0.709985
H176	H	0.000590	1.456747	-0.209985
H177	H	-0.304828	1.219409	-0.697180
H178	H	0.195172	1.719409	-0.197180
N179	N	-0.237413	1.286648	-0.806881
N180	N	0.262587	1.786648	-0.306881
H181	H	-0.245542	1.278588	-0.748712
H182	H	0.254458	1.778588	-0.248712
H183	H	-0.250424	1.342457	-0.821965
H184	H	0.249576	1.842457	-0.321965
H185	H	-0.305042	0.429356	-0.487357
H186	H	0.194958	0.929356	0.012643
H187	H	-0.304685	1.219486	-1.094586
H188	H	0.195315	1.719486	-0.594586
H189	H	-0.251776	0.555784	-0.535435
H190	H	0.248224	1.055784	-0.035435
