data_functionalizedCrystal
_audit_creation_method	'MofGen! by Chris Wilmer'
_symmetry_space_group_name_H-M	'P1'
_symmetry_Int_Tables_number	1
_symmetry_cell_setting	triclinic
loop_
_symmetry_equiv_pos_as_xyz
  x,y,z
_cell_length_a	16.109301
_cell_length_b	17.699083
_cell_length_c	15.186229
_cell_angle_alpha	89.995368
_cell_angle_beta	89.999362
_cell_angle_gamma	83.372248
loop_
_atom_site_label
_atom_site_type_symbol
_atom_site_fract_x
_atom_site_fract_y
_atom_site_fract_z
O1	O	1.102963	0.097285	-0.073175
O2	O	1.352963	0.347285	0.176825
O3	O	1.602963	0.597285	0.426825
O4	O	1.852963	0.847285	0.676825
O5	O	0.860880	0.109391	-0.073189
O6	O	1.110880	0.359391	0.176811
O7	O	1.360880	0.609391	0.426811
O8	O	1.610880	0.859391	0.676811
O9	O	0.988761	-0.006841	-0.073174
O10	O	1.238761	0.243159	0.176826
O11	O	1.488761	0.493159	0.426826
O12	O	1.738761	0.743159	0.676826
O13	O	0.975082	0.213517	-0.073190
O14	O	1.225082	0.463517	0.176810
O15	O	1.475082	0.713517	0.426810
O16	O	1.725082	0.963517	0.676810
O17	O	0.988753	-0.006843	0.073284
O18	O	1.238753	0.243157	0.323284
O19	O	1.488753	0.493157	0.573284
O20	O	1.738753	0.743157	0.823284
O21	O	0.860872	0.109390	0.073268
O22	O	1.110872	0.359390	0.323268
O23	O	1.360872	0.609390	0.573268
O24	O	1.610872	0.859390	0.823268
O25	O	1.102955	0.097283	0.073283
O26	O	1.352955	0.347283	0.323283
O27	O	1.602955	0.597283	0.573283
O28	O	1.852955	0.847283	0.823283
Zn29	Zn	0.981912	0.103336	0.096529
Zn30	Zn	1.231912	0.353336	0.346529
Zn31	Zn	1.481912	0.603336	0.596529
Zn32	Zn	1.731912	0.853336	0.846529
Zn33	Zn	0.981923	0.103338	-0.096435
Zn34	Zn	1.231923	0.353338	0.153565
Zn35	Zn	1.481923	0.603338	0.403565
Zn36	Zn	1.731923	0.853338	0.653565
O37	O	0.975074	0.213516	0.073267
O38	O	1.225074	0.463516	0.323267
O39	O	1.475074	0.713516	0.573267
O40	O	1.725074	0.963516	0.823267
C41	C	0.829902	0.108900	0.000038
C42	C	1.079902	0.358900	0.250038
C43	C	1.329902	0.608900	0.500038
C44	C	1.579902	0.858900	0.750038
C45	C	0.737609	0.107430	0.000033
C46	C	0.987609	0.357430	0.250033
C47	C	1.237609	0.607430	0.500033
C48	C	1.487609	0.857430	0.750033
C49	C	0.515224	0.172981	0.000038
C50	C	0.765224	0.422981	0.250038
C51	C	1.015224	0.672981	0.500038
C52	C	1.265224	0.922981	0.750038
C53	C	0.428506	0.171594	0.000044
C54	C	0.678506	0.421594	0.250044
C55	C	0.928506	0.671594	0.500044
C56	C	1.178506	0.921594	0.750044
C57	C	0.448618	0.033688	0.000050
C58	C	0.698618	0.283688	0.250050
C59	C	0.948618	0.533688	0.500050
C60	C	1.198618	0.783688	0.750050
C61	C	0.535334	0.035076	0.000051
C62	C	0.785334	0.285076	0.250051
C63	C	1.035334	0.535076	0.500051
C64	C	1.285334	0.785076	0.750051
C65	C	0.568635	0.104725	0.000040
C66	C	0.818635	0.354725	0.250040
C67	C	1.068635	0.604725	0.500040
C68	C	1.318635	0.854725	0.750040
C69	C	0.395200	0.101949	0.000046
C70	C	0.645200	0.351949	0.250046
C71	C	0.895200	0.601949	0.500046
C72	C	1.145200	0.851949	0.750046
C73	C	0.301177	0.100445	0.000052
C74	C	0.551177	0.350445	0.250052
C75	C	0.801177	0.600445	0.500052
C76	C	1.051177	0.850445	0.750052
C77	C	0.662664	0.106230	0.000036
C78	C	0.912664	0.356230	0.250036
C79	C	1.162664	0.606230	0.500036
C80	C	1.412664	0.856230	0.750036
C81	C	0.988267	-0.035040	0.000055
C82	C	1.238267	0.214960	0.250055
C83	C	1.488267	0.464960	0.500055
C84	C	1.738267	0.714960	0.750055
C85	C	0.986796	-0.119060	0.000055
C86	C	1.236796	0.130940	0.250055
C87	C	1.486796	0.380940	0.500055
C88	C	1.736796	0.630940	0.750055
C89	C	1.061860	-0.167574	0.000061
C90	C	1.311860	0.082426	0.250061
C91	C	1.561860	0.332426	0.500061
C92	C	1.811860	0.582426	0.750061
C93	C	1.060473	-0.246519	0.000053
C94	C	1.310473	0.003481	0.250053
C95	C	1.560473	0.253481	0.500053
C96	C	1.810473	0.503481	0.750053
C97	C	0.984022	-0.276949	0.000046
C98	C	1.234022	-0.026949	0.250046
C99	C	1.484022	0.223051	0.500046
C100	C	1.734022	0.473051	0.750046
C101	C	0.908953	-0.228429	0.000038
C102	C	1.158953	0.021571	0.250038
C103	C	1.408953	0.271571	0.500038
C104	C	1.658953	0.521571	0.750038
C105	C	0.910341	-0.149485	0.000039
C106	C	1.160341	0.100515	0.250039
C107	C	1.410341	0.350515	0.500039
C108	C	1.660341	0.600515	0.750039
C109	C	0.903356	-0.546800	0.000030
C110	C	1.153356	-0.296800	0.250030
C111	C	1.403356	-0.046800	0.500030
C112	C	1.653356	0.203200	0.750030
C113	C	0.901974	-0.625750	0.000031
C114	C	1.151974	-0.375750	0.250031
C115	C	1.401974	-0.125750	0.500031
C116	C	1.651974	0.124250	0.750031
C117	C	1.053488	-0.643834	0.000044
C118	C	1.303488	-0.393834	0.250044
C119	C	1.553488	-0.143834	0.500044
C120	C	1.803488	0.106166	0.750044
C121	C	1.054876	-0.564890	0.000046
C122	C	1.304876	-0.314890	0.250046
C123	C	1.554876	-0.064890	0.500046
C124	C	1.804876	0.185110	0.750046
C125	C	0.979807	-0.516377	0.000033
C126	C	1.229807	-0.266377	0.250033
C127	C	1.479807	-0.016377	0.500033
C128	C	1.729807	0.233623	0.750033
C129	C	0.981312	-0.430776	0.000040
C130	C	1.231312	-0.180776	0.250040
C131	C	1.481312	0.069224	0.500040
C132	C	1.731312	0.319224	0.750040
C133	C	0.982517	-0.362549	0.000045
C134	C	1.232517	-0.112549	0.250045
C135	C	1.482517	0.137451	0.500045
C136	C	1.732517	0.387451	0.750045
C137	C	1.133933	0.097774	0.000054
C138	C	1.383933	0.347774	0.250054
C139	C	1.633933	0.597774	0.500054
C140	C	1.883933	0.847774	0.750054
C141	C	1.226226	0.099244	0.000053
C142	C	1.476226	0.349244	0.250053
C143	C	1.726226	0.599244	0.500053
C144	C	1.976226	0.849244	0.750053
C145	C	0.975568	0.241714	0.000037
C146	C	1.225568	0.491714	0.250037
C147	C	1.475568	0.741714	0.500037
C148	C	1.725568	0.991714	0.750037
C149	C	0.977039	0.325734	0.000031
C150	C	1.227039	0.575734	0.250031
C151	C	1.477039	0.825734	0.500031
C152	C	1.727039	1.075734	0.750031
N153	N	0.981910	0.103334	0.228221
N154	N	1.231910	0.353334	0.478221
N155	N	1.481910	0.603334	0.728221
N156	N	1.731910	0.853334	0.978221
N157	N	0.981931	0.103334	-0.228128
N158	N	1.231931	0.353334	0.021872
N159	N	1.481931	0.603334	0.271872
N160	N	1.731931	0.853334	0.521872
C161	C	1.038555	0.051884	0.453951
C162	C	1.288555	0.301884	0.703951
C163	C	1.538555	0.551884	0.953951
C164	C	1.788555	0.801884	1.203951
C165	C	1.038558	0.051882	0.546141
C166	C	1.288558	0.301882	0.796141
C167	C	1.538558	0.551882	1.046141
C168	C	1.788558	0.801882	1.296141
C169	C	0.925280	0.154787	0.546136
C170	C	1.175280	0.404787	0.796136
C171	C	1.425280	0.654787	1.046136
C172	C	1.675280	0.904787	1.296136
C173	C	0.925274	0.154785	0.453948
C174	C	1.175274	0.404785	0.703948
C175	C	1.425274	0.654785	0.953948
C176	C	1.675274	0.904785	1.203948
C177	C	0.981916	0.103334	0.407858
C178	C	1.231916	0.353334	0.657858
C179	C	1.481916	0.603334	0.907858
C180	C	1.731916	0.853334	1.157858
C181	C	0.981925	0.103334	0.592236
C182	C	1.231925	0.353334	0.842236
C183	C	1.481925	0.603334	1.092236
C184	C	1.731925	0.853334	1.342236
C185	C	0.981927	0.103333	0.692192
C186	C	1.231927	0.353333	0.942192
C187	C	1.481927	0.603333	1.192192
C188	C	1.731927	0.853333	1.442192
C189	C	0.981913	0.103334	0.307896
C190	C	1.231913	0.353334	0.557896
C191	C	1.481913	0.603334	0.807896
C192	C	1.731913	0.853334	1.057896
H193	H	0.421494	-0.023018	0.000064
H194	H	0.671494	0.226982	0.250064
H195	H	0.921494	0.476982	0.500064
H196	H	1.171494	0.726982	0.750064
H197	H	1.117130	-0.540119	0.000056
H198	H	1.367130	-0.290119	0.250056
H199	H	1.617130	-0.040119	0.500056
H200	H	1.867130	0.209881	0.750056
H201	H	0.385022	0.227175	0.000044
H202	H	0.635022	0.477175	0.250044
H203	H	0.885022	0.727175	0.500044
H204	H	1.135022	0.977175	0.750044
F205	F	0.865003	0.209544	0.595195
F206	F	1.115003	0.459544	0.845195
F207	F	1.365003	0.709544	1.095195
F208	F	1.615003	0.959544	1.345195
F209	F	0.864986	0.209545	0.404889
F210	F	1.114986	0.459545	0.654889
F211	F	1.364986	0.709545	0.904889
F212	F	1.614986	0.959545	1.154889
F213	F	1.143230	-0.135196	0.000077
F214	F	1.393230	0.114804	0.250077
F215	F	1.643230	0.364804	0.500077
F216	F	1.893230	0.614804	0.750077
F217	F	1.098838	-0.002880	0.595193
F218	F	1.348838	0.247120	0.845193
F219	F	1.598838	0.497120	1.095193
F220	F	1.848838	0.747120	1.345193
F221	F	0.550662	0.247108	0.000030
F222	F	0.800662	0.497108	0.250030
F223	F	1.050662	0.747108	0.500030
F224	F	1.300662	0.997108	0.750030
H225	H	0.578824	-0.020510	0.000055
H226	H	0.828824	0.229490	0.250055
H227	H	1.078824	0.479490	0.500055
H228	H	1.328824	0.729490	0.750055
H229	H	1.084675	0.009988	0.416427
H230	H	1.334675	0.259988	0.666427
H231	H	1.584675	0.509988	0.916427
H232	H	1.834675	0.759988	1.166427
H233	H	1.114613	-0.683343	0.000050
H234	H	1.364613	-0.433343	0.250050
H235	H	1.614613	-0.183343	0.500050
H236	H	1.864613	0.066657	0.750050
F237	F	1.140366	-0.298148	0.000061
F238	F	1.390366	-0.048148	0.250061
F239	F	1.640366	0.201852	0.500061
F240	F	1.890366	0.451852	0.750061
F241	F	0.820601	-0.658133	0.000022
F242	F	1.070601	-0.408133	0.250022
F243	F	1.320601	-0.158133	0.500022
F244	F	1.570601	0.091867	0.750022
H245	H	0.842230	-0.507310	0.000020
H246	H	1.092230	-0.257310	0.250020
H247	H	1.342230	-0.007310	0.500020
H248	H	1.592230	0.242690	0.750020
F249	F	0.827588	-0.260817	0.000020
F250	F	1.077588	-0.010817	0.250020
F251	F	1.327588	0.239183	0.500020
F252	F	1.577588	0.489183	0.750020
F253	F	0.830448	-0.097853	0.000031
F254	F	1.080448	0.152147	0.250031
F255	F	1.330448	0.402147	0.500031
F256	F	1.580448	0.652147	0.750031
