data_functionalizedCrystal
_audit_creation_method	'MofGen! by Chris Wilmer'
_symmetry_space_group_name_H-M	'P1'
_symmetry_Int_Tables_number	1
_symmetry_cell_setting	triclinic
loop_
_symmetry_equiv_pos_as_xyz
  x,y,z
_cell_length_a	10.686220
_cell_length_b	19.120785
_cell_length_c	10.686551
_cell_angle_alpha	83.346482
_cell_angle_beta	90.308082
_cell_angle_gamma	97.021883
loop_
_atom_site_label
_atom_site_type_symbol
_atom_site_fract_x
_atom_site_fract_y
_atom_site_fract_z
Zn1	Zn	1.958094	-0.172368	-0.550221
Zn2	Zn	1.931328	-0.300335	-0.331432
Zn3	Zn	1.730724	-0.190454	-0.355262
Zn4	Zn	1.737876	-0.298902	-0.557310
O5	O	1.839506	-0.240515	-0.448556
O6	O	2.130660	-0.182373	-0.508258
O7	O	1.890522	-0.293928	-0.158471
O8	O	1.769093	-0.089113	-0.388131
O9	O	2.110994	-0.276391	-0.347514
O10	O	1.936142	-0.075826	-0.531366
O11	O	1.743139	-0.213198	-0.175979
O12	O	1.555557	-0.211809	-0.395005
O13	O	1.781284	-0.273949	-0.732492
O14	O	1.560812	-0.291486	-0.543448
O15	O	1.943077	-0.180984	-0.727284
O16	O	1.897458	-0.399086	-0.354388
O17	O	1.755330	-0.398034	-0.520340
C18	C	1.512519	-0.253455	-0.472582
C19	C	1.372634	-0.259007	-0.482889
C20	C	1.824302	-0.424212	-0.435573
C21	C	1.817916	-0.502792	-0.430052
C22	C	1.777410	-0.947573	-0.395126
C23	C	1.783413	-0.873739	-0.400313
C24	C	1.873338	-0.829843	-0.477549
C25	C	1.957257	-0.859785	-0.549612
C26	C	1.951247	-0.933618	-0.544431
C27	C	1.895826	-0.606566	-0.496934
C28	C	1.901831	-0.532729	-0.502106
C29	C	1.727985	-0.546687	-0.352809
C30	C	1.721988	-0.620521	-0.347629
C31	C	1.805903	-0.650457	-0.419697
C32	C	1.879478	-0.754373	-0.482850
C33	C	1.799756	-0.725926	-0.414402
C34	C	2.167769	-0.227524	-0.424437
C35	C	2.307655	-0.221989	-0.414159
C36	C	1.865964	-0.225289	-0.776831
C37	C	1.877239	-0.218801	-0.916722
C38	C	1.854805	-0.056098	-0.461616
C39	C	1.861325	0.022490	-0.467181
C40	C	1.813227	-0.255627	-0.121557
C41	C	1.802212	-0.261907	0.018337
H42	H	1.359039	-0.186049	-0.347430
F43	F	1.305467	-0.305993	-0.570104
F44	F	2.052952	-0.813067	-0.631825
H45	H	1.729356	-0.303777	-0.930240
H46	H	1.659664	-0.522307	-0.294136
F47	F	1.975175	-0.707650	-0.565054
F48	F	1.681705	-0.994284	-0.312913
F49	F	1.972487	-0.164075	-0.983937
H50	H	1.715082	-0.849364	-0.341642
F51	F	1.997550	-0.486013	-0.584311
F52	F	1.985127	-0.638417	-0.573646
H53	H	1.726534	-0.761669	-0.351522
F54	F	1.626277	-0.667233	-0.265425
F55	F	2.040560	-0.965479	-0.621124
