data_functionalizedCrystal
_audit_creation_method	'MofGen! by Chris Wilmer'
_symmetry_space_group_name_H-M	'P1'
_symmetry_Int_Tables_number	1
_symmetry_cell_setting	triclinic
loop_
_symmetry_equiv_pos_as_xyz
  x,y,z
_cell_length_a	17.077404
_cell_length_b	19.805405
_cell_length_c	17.077396
_cell_angle_alpha	90.031650
_cell_angle_beta	90.019501
_cell_angle_gamma	90.026635
loop_
_atom_site_label
_atom_site_type_symbol
_atom_site_fract_x
_atom_site_fract_y
_atom_site_fract_z
Zn1	Zn	1.200035	-0.269459	0.443825
Zn2	Zn	1.199934	-0.382652	0.312552
Zn3	Zn	1.068767	-0.269483	0.312573
Zn4	Zn	1.068727	-0.382612	0.443776
O5	O	1.134366	-0.326052	0.378182
O6	O	1.309869	-0.284481	0.426424
O7	O	1.182509	-0.367667	0.202708
O8	O	1.086239	-0.174763	0.330014
O9	O	1.309795	-0.367644	0.329978
O10	O	1.182681	-0.174746	0.426444
O11	O	1.086141	-0.284522	0.202724
O12	O	0.958915	-0.284483	0.329966
O13	O	1.086171	-0.367575	0.553629
O14	O	0.958886	-0.367598	0.426360
O15	O	1.182643	-0.284442	0.553666
O16	O	1.182470	-0.477363	0.329930
O17	O	1.086073	-0.477334	0.426339
C18	C	0.930418	-0.326039	0.378160
C19	C	0.843168	-0.326050	0.378169
C20	C	0.802183	-0.369394	0.428281
C21	C	0.720203	-0.369395	0.428294
C22	C	0.679209	-0.326056	0.378190
C23	C	0.720200	-0.282708	0.328076
C24	C	0.802179	-0.282703	0.328068
C25	C	0.549330	-0.282721	0.328095
C26	C	0.467345	-0.282726	0.328102
C27	C	0.467354	-0.369413	0.428321
C28	C	0.549333	-0.369409	0.428313
C29	C	0.590318	-0.326061	0.378197
C30	C	1.134278	-0.501908	0.378144
C31	C	1.134312	-0.577140	0.378154
C32	C	1.184555	-0.612477	0.328006
C33	C	1.184588	-0.683165	0.328023
C34	C	1.134374	-0.718515	0.378185
C35	C	1.084129	-0.683173	0.428338
C36	C	1.084100	-0.612486	0.428324
C37	C	1.084245	-0.968246	0.428397
C38	C	1.084276	-1.038938	0.428405
C39	C	1.184733	-1.038925	0.328095
C40	C	1.184704	-0.968238	0.328081
C41	C	1.134462	-0.932902	0.378237
C42	C	1.134427	-0.856254	0.378219
C43	C	1.134404	-0.795162	0.378200
C44	C	1.339110	-0.326064	0.378204
C45	C	1.426360	-0.326070	0.378213
C46	C	1.134414	-0.326002	0.582926
C47	C	1.134434	-0.325980	0.670176
C48	C	1.134476	-0.149509	0.378237
C49	C	1.134523	-0.074277	0.378261
C50	C	1.134364	-0.326052	0.174234
C51	C	1.134496	-0.325883	0.086984
C52	C	1.184668	-0.282690	0.711186
C53	C	1.184678	-0.282667	0.793167
C54	C	1.134456	-0.325939	0.834135
C55	C	1.084216	-0.369232	0.793119
C56	C	1.084203	-0.369251	0.711140
C57	C	1.084248	-0.369191	0.963989
C58	C	1.084261	-0.369174	1.045974
C59	C	1.184722	-0.282608	1.046016
C60	C	1.184709	-0.282626	0.964037
C61	C	1.134470	-0.325920	0.923026
H62	H	1.225441	-0.583699	0.287155
H63	H	1.225567	-0.247454	0.677836
H64	H	1.225609	-0.247394	0.930683
C65	C	0.675112	-0.235028	0.272964
C66	C	0.686346	-0.240446	0.183714
C67	C	0.641263	-0.192764	0.128599
C68	C	0.584945	-0.139666	0.162735
C69	C	0.573709	-0.134246	0.251989
C70	C	0.618792	-0.181928	0.307103
H71	H	0.728038	-0.279754	0.158441
H72	H	0.649581	-0.196776	0.062527
H73	H	0.551572	-0.104369	0.121936
H74	H	0.532017	-0.094938	0.277262
H75	H	0.610474	-0.177915	0.373175
C76	C	1.028949	-0.416878	0.666029
C77	C	1.062923	-0.470032	0.609660
C78	C	1.007665	-0.517660	0.564550
C79	C	0.918434	-0.512134	0.575810
C80	C	0.884455	-0.458977	0.632182
C81	C	0.939713	-0.411349	0.677291
H82	H	1.128982	-0.474125	0.601322
H83	H	1.032819	-0.557010	0.522821
H84	H	0.877529	-0.547391	0.542418
H85	H	0.818396	-0.454884	0.640519
H86	H	0.914559	-0.371999	0.719021
C87	C	0.422249	-0.235034	0.273010
C88	C	0.467327	-0.187336	0.217906
C89	C	0.422231	-0.139636	0.162823
C90	C	0.332058	-0.139635	0.162845
C91	C	0.286975	-0.187335	0.217951
C92	C	0.332071	-0.235035	0.273034
H93	H	0.534084	-0.187336	0.217888
H94	H	0.455605	-0.104326	0.122030
H95	H	0.298675	-0.104325	0.122069
H96	H	0.220218	-0.187335	0.217969
H97	H	0.298697	-0.270345	0.313827
C98	C	1.239939	-0.235050	0.838282
C99	C	1.205970	-0.181893	0.894650
C100	C	1.261232	-0.134274	0.939767
C101	C	1.350464	-0.139813	0.928516
C102	C	1.384438	-0.192973	0.872146
C103	C	1.329175	-0.240592	0.827029
H104	H	1.139911	-0.177790	0.902981
H105	H	1.236082	-0.094921	0.981496
H106	H	1.391372	-0.104563	0.961914
H107	H	1.450496	-0.197076	0.863815
H108	H	1.354325	-0.279944	0.785300
H109	H	1.043386	-1.067719	0.469259
C110	C	1.029045	-0.416796	1.091042
C111	C	0.973800	-0.464432	1.045936
C112	C	0.918598	-0.512068	1.091004
C113	C	0.918642	-0.512069	1.181178
C114	C	0.973889	-0.464431	1.226288
C115	C	1.029091	-0.416795	1.181220
H116	H	0.973766	-0.464433	0.979179
H117	H	0.877701	-0.547332	1.057609
H118	H	0.877778	-0.547332	1.214540
H119	H	0.973923	-0.464430	1.293045
H120	H	1.069988	-0.381531	1.214615
C121	C	0.847267	-0.235025	0.272945
C122	C	0.836032	-0.158088	0.279519
C123	C	0.881120	-0.110404	0.224400
C124	C	0.937444	-0.139658	0.162706
C125	C	0.948682	-0.216599	0.156130
C126	C	0.903593	-0.264283	0.211250
H127	H	0.794335	-0.136429	0.325191
H128	H	0.872801	-0.053447	0.229268
H129	H	0.970821	-0.104360	0.121903
H130	H	0.990378	-0.238258	0.110458
H131	H	0.911913	-0.321240	0.206381
C132	C	1.028991	-0.416816	0.918870
C133	C	0.939758	-0.411295	0.930117
C134	C	0.884509	-0.458921	0.884994
C135	C	0.918495	-0.512069	0.828623
C136	C	1.007733	-0.517592	0.817373
C137	C	1.062981	-0.469966	0.862497
H138	H	0.914596	-0.371949	0.971848
H139	H	0.818449	-0.454831	0.893322
H140	H	0.877597	-0.547324	0.795220
H141	H	1.032895	-0.556938	0.775642
H142	H	1.129041	-0.474056	0.854168
C143	C	1.239861	-0.722036	0.272864
C144	C	1.295095	-0.683153	0.217687
C145	C	1.350375	-0.722024	0.162530
C146	C	1.350421	-0.799777	0.162550
C147	C	1.295185	-0.838664	0.217729
C148	C	1.239905	-0.799793	0.272886
H149	H	1.295063	-0.625592	0.217671
H150	H	1.391265	-0.693237	0.121683
H151	H	1.391342	-0.828551	0.121720
H152	H	1.295217	-0.896225	0.217746
H153	H	1.199015	-0.828580	0.313734
H154	H	0.582697	-0.247417	0.287293
H155	H	1.225590	-0.939458	0.287232
H156	H	0.835555	-0.404688	0.469079
C157	C	1.028982	-0.929383	0.483569
C158	C	0.973751	-0.968269	0.538745
C159	C	0.918488	-0.929402	0.593923
C160	C	0.918457	-0.851649	0.593924
C161	C	0.973690	-0.812758	0.538746
C162	C	1.028953	-0.851625	0.483568
H163	H	0.973772	-1.025830	0.538746
H164	H	0.877600	-0.958192	0.634770
H165	H	0.877548	-0.822877	0.634770
H166	H	0.973669	-0.755197	0.538745
H167	H	1.069841	-0.822836	0.442721
H168	H	1.043322	-0.404463	0.826482
H169	H	1.043247	-0.711961	0.469184
H170	H	1.225645	-1.067704	0.287259
H171	H	0.686837	-0.404691	0.469099
H172	H	0.433980	-0.404706	0.469128
C173	C	0.594427	-0.417082	0.483427
C174	C	0.583119	-0.494021	0.476862
C175	C	0.628212	-0.541694	0.531979
C176	C	0.684613	-0.512427	0.593660
C177	C	0.695923	-0.435484	0.600228
C178	C	0.650830	-0.387811	0.545111
H179	H	0.541365	-0.515690	0.431199
H180	H	0.619839	-0.598653	0.527117
H181	H	0.717994	-0.547717	0.634461
H182	H	0.737677	-0.413816	0.645890
H183	H	0.659203	-0.330853	0.549973
H184	H	1.043188	-0.583715	0.469161
H185	H	1.225628	-0.247355	1.079411
