data_functionalizedCrystal
_audit_creation_method	'MofGen! by Chris Wilmer'
_symmetry_space_group_name_H-M	'P1'
_symmetry_Int_Tables_number	1
_symmetry_cell_setting	triclinic
loop_
_symmetry_equiv_pos_as_xyz
  x,y,z
_cell_length_a	11.169417
_cell_length_b	11.169416
_cell_length_c	11.169409
_cell_angle_alpha	89.971970
_cell_angle_beta	90.019824
_cell_angle_gamma	89.986033
loop_
_atom_site_label
_atom_site_type_symbol
_atom_site_fract_x
_atom_site_fract_y
_atom_site_fract_z
Zn1	Zn	1.834939	0.477682	0.678579
Zn2	Zn	2.084939	0.727682	0.928579
Zn3	Zn	2.334939	0.977682	1.178579
Zn4	Zn	2.584939	1.227682	1.428579
Zn5	Zn	1.834819	0.678422	0.477911
Zn6	Zn	2.084819	0.928422	0.727911
Zn7	Zn	2.334819	1.178422	0.977911
Zn8	Zn	2.584819	1.428422	1.227911
Zn9	Zn	1.634225	0.477755	0.477913
Zn10	Zn	1.884225	0.727755	0.727913
Zn11	Zn	2.134225	0.977755	0.977913
Zn12	Zn	2.384225	1.227755	1.227913
Zn13	Zn	1.634223	0.678325	0.678556
Zn14	Zn	1.884223	0.928325	0.928556
Zn15	Zn	2.134223	1.178325	1.178556
Zn16	Zn	2.384223	1.428325	1.428556
O17	O	1.734552	0.578046	0.578239
O18	O	1.984552	0.828046	0.828239
O19	O	2.234552	1.078046	1.078239
O20	O	2.484552	1.328046	1.328239
O21	O	2.002873	0.504321	0.651968
O22	O	2.252873	0.754321	0.901968
O23	O	2.502873	1.004321	1.151968
O24	O	2.752873	1.254321	1.401968
O25	O	1.808161	0.651875	0.309961
O26	O	2.058161	0.901875	0.559961
O27	O	2.308161	1.151875	0.809961
O28	O	2.558161	1.401875	1.059961
O29	O	1.660902	0.309796	0.504542
O30	O	1.910902	0.559796	0.754542
O31	O	2.160902	0.809796	1.004542
O32	O	2.410902	1.059796	1.254542
O33	O	2.002785	0.651804	0.504538
O34	O	2.252785	0.901804	0.754538
O35	O	2.502785	1.151804	1.004538
O36	O	2.752785	1.401804	1.254538
O37	O	1.808365	0.309742	0.651971
O38	O	2.058365	0.559742	0.901971
O39	O	2.308365	0.809742	1.151971
O40	O	2.558365	1.059742	1.401971
O41	O	1.660785	0.504445	0.309963
O42	O	1.910785	0.754445	0.559963
O43	O	2.160785	1.004445	0.809963
O44	O	2.410785	1.254445	1.059963
O45	O	1.466275	0.504351	0.504520
O46	O	1.716275	0.754351	0.754520
O47	O	1.966275	1.004351	1.004520
O48	O	2.216275	1.254351	1.254520
O49	O	1.660898	0.651637	0.846508
O50	O	1.910898	0.901637	1.096508
O51	O	2.160898	1.151637	1.346508
O52	O	2.410898	1.401637	1.596508
O53	O	1.466274	0.651708	0.651931
O54	O	1.716274	0.901708	0.901931
O55	O	1.966274	1.151708	1.151931
O56	O	2.216274	1.401708	1.401931
O57	O	1.808363	0.504226	0.846525
O58	O	2.058363	0.754226	1.096525
O59	O	2.308363	1.004226	1.346525
O60	O	2.558363	1.254226	1.596525
O61	O	1.808158	0.846359	0.504516
O62	O	2.058158	1.096359	0.754516
O63	O	2.308158	1.346359	1.004516
O64	O	2.558158	1.596359	1.254516
O65	O	1.660781	0.846287	0.651929
O66	O	1.910781	1.096287	0.901929
O67	O	2.160781	1.346287	1.151929
O68	O	2.410781	1.596287	1.401929
C69	C	1.422727	0.578028	0.578224
C70	C	1.672727	0.828028	0.828224
C71	C	1.922727	1.078028	1.078224
C72	C	2.172727	1.328028	1.328224
C73	C	1.289327	0.578049	0.578246
C74	C	1.539327	0.828049	0.828246
C75	C	1.789327	1.078049	1.078246
C76	C	2.039327	1.328049	1.328246
C77	C	1.734489	0.889871	0.578246
C78	C	1.984489	1.139871	0.828246
C79	C	2.234489	1.389871	1.078246
C80	C	2.484489	1.639871	1.328246
C81	C	1.734572	1.023271	0.578289
C82	C	1.984572	1.273271	0.828289
C83	C	2.234572	1.523271	1.078289
C84	C	2.484572	1.773271	1.328289
C85	C	2.047594	0.578065	0.578256
C86	C	2.297594	0.828065	0.828256
C87	C	2.547594	1.078065	1.078256
C88	C	2.797594	1.328065	1.328256
C89	C	2.180994	0.578073	0.578263
C90	C	2.430994	0.828073	0.828263
C91	C	2.680994	1.078073	1.078263
C92	C	2.930994	1.328073	1.328263
C93	C	1.734644	0.577913	0.891282
C94	C	1.984644	0.827913	1.141282
C95	C	2.234644	1.077913	1.391282
C96	C	2.484644	1.327913	1.641282
C97	C	1.734683	0.577856	1.024682
C98	C	1.984683	0.827856	1.274682
C99	C	2.234683	1.077856	1.524682
C100	C	2.484683	1.327856	1.774682
C101	C	1.734635	1.265004	0.578272
C102	C	1.984635	1.515004	0.828272
C103	C	2.234635	1.765004	1.078272
C104	C	2.484635	2.015004	1.328272
C105	C	1.734640	1.131604	0.578317
C106	C	1.984640	1.381604	0.828317
C107	C	2.234640	1.631604	1.078317
C108	C	2.484640	1.881604	1.328317
C109	C	1.734529	0.578092	0.266415
C110	C	1.984529	0.828092	0.516415
C111	C	2.234529	1.078092	0.766415
C112	C	2.484529	1.328092	1.016415
C113	C	1.734722	0.577811	0.133015
C114	C	1.984722	0.827811	0.383015
C115	C	2.234722	1.077811	0.633015
C116	C	2.484722	1.327811	0.883015
