data_functionalizedCrystal
_audit_creation_method	'MofGen! by Chris Wilmer'
_symmetry_space_group_name_H-M	'P1'
_symmetry_Int_Tables_number	1
_symmetry_cell_setting	triclinic
loop_
_symmetry_equiv_pos_as_xyz
  x,y,z
_cell_length_a	29.917948
_cell_length_b	29.917021
_cell_length_c	29.913391
_cell_angle_alpha	60.005297
_cell_angle_beta	60.010472
_cell_angle_gamma	59.993667
loop_
_atom_site_label
_atom_site_type_symbol
_atom_site_fract_x
_atom_site_fract_y
_atom_site_fract_z
O1	O	0.061938	-0.653075	0.546110
O2	O	0.561938	-0.153075	1.046110
O3	O	0.023328	-0.508466	0.440017
O4	O	0.523328	-0.008466	0.940017
O5	O	0.114898	-0.599963	0.439941
O6	O	0.614898	-0.099963	0.939941
O7	O	-0.029633	-0.561578	0.546186
O8	O	0.470367	-0.061578	1.046186
O9	O	0.145278	-0.569587	0.470242
O10	O	0.645278	-0.069587	0.970242
O11	O	0.053708	-0.478090	0.470318
O12	O	0.553708	0.021910	0.970318
O13	O	0.092318	-0.622699	0.576411
O14	O	0.592318	-0.122699	1.076411
Zn15	Zn	0.077836	-0.545572	0.528175
Zn16	Zn	0.577836	-0.045572	1.028175
Zn17	Zn	0.037809	-0.585593	0.488253
Zn18	Zn	0.537809	-0.085593	0.988253
O19	O	0.000747	-0.531202	0.576487
O20	O	0.500747	-0.031202	1.076487
N21	N	0.105154	-0.518262	0.555424
N22	N	0.605154	-0.018262	1.055424
N23	N	0.010496	-0.612908	0.461004
N24	N	0.510496	-0.112908	0.961004
C25	C	0.164136	-0.309209	0.614352
C26	C	0.664136	0.190791	1.114352
C27	C	0.164251	-0.459335	0.764424
C28	C	0.664251	0.040665	1.264424
C29	C	0.164150	-0.459313	0.614341
C30	C	0.664150	0.040687	1.114341
C31	C	0.314282	-0.459305	0.614278
C32	C	0.814282	0.040695	1.114278
C33	C	0.180666	-0.358742	0.630849
C34	C	0.680666	0.141258	1.130849
C35	C	0.180732	-0.442815	0.714891
C36	C	0.680732	0.057185	1.214891
C37	C	0.264747	-0.442797	0.630809
C38	C	0.764747	0.057203	1.130809
C39	C	0.180676	-0.442802	0.630843
C40	C	0.680676	0.057198	1.130843
C41	C	0.143097	-0.246161	0.593354
C42	C	0.643097	0.253839	1.093354
C43	C	0.143120	-0.480326	0.593337
C44	C	0.643120	0.019674	1.093337
C45	C	0.201706	-0.421790	0.651848
C46	C	0.701706	0.078210	1.151848
C47	C	0.405963	-0.443499	0.565998
C48	C	0.905963	0.056501	1.065998
C49	C	0.463273	-0.462598	0.546874
C50	C	0.963273	0.037402	1.046874
C51	C	0.463297	-0.555329	0.582235
C52	C	0.963297	-0.055329	1.082235
C53	C	0.405988	-0.536228	0.601360
C54	C	0.905988	-0.036228	1.101360
C55	C	0.156905	-0.217495	0.537012
C56	C	0.656905	0.282505	1.037012
C57	C	0.137776	-0.160180	0.517926
C58	C	0.637776	0.339820	1.017926
C59	C	0.091035	-0.160201	0.611524
C60	C	0.591035	0.339799	1.111524
C61	C	0.110164	-0.217516	0.630611
C62	C	0.610164	0.282484	1.130611
C63	C	0.086772	-0.466488	0.607209
C64	C	0.586772	0.033512	1.107209
C65	C	0.067659	-0.485590	0.588108
C66	C	0.567659	0.014410	1.088108
C67	C	0.161236	-0.532368	0.541277
C68	C	0.661236	-0.032368	1.041277
C69	C	0.180352	-0.513266	0.560371
C70	C	0.680352	-0.013266	1.060371
C71	C	0.086942	-0.466529	0.856152
C72	C	0.586942	0.033471	1.356152
C73	C	0.067877	-0.485647	0.913465
C74	C	0.567877	0.014353	1.413465
C75	C	0.161489	-0.532436	0.913415
C76	C	0.661489	-0.032436	1.413415
C77	C	0.180552	-0.513318	0.856101
C78	C	0.680552	-0.013318	1.356101
C79	C	0.143277	-0.480363	0.827471
C80	C	0.643277	0.019637	1.327471
C81	C	0.377323	-0.480313	0.593239
C82	C	0.877323	0.019687	1.093239
C83	C	-0.111377	-0.650681	0.422736
C84	C	0.388623	-0.150681	0.922736
C85	C	-0.027364	-0.650787	0.422929
C86	C	0.472636	-0.150787	0.922929
C87	C	-0.048335	-0.671770	0.401835
C88	C	0.451665	-0.171770	0.901835
C89	C	-0.064214	-0.763416	0.450041
C90	C	0.435786	-0.263416	0.950041
C91	C	-0.045160	-0.820731	0.469172
C92	C	0.454840	-0.320731	0.969172
C93	C	0.047573	-0.820841	0.433980
C94	C	0.547573	-0.320841	0.933980
C95	C	0.028517	-0.763527	0.414847
C96	C	0.528517	-0.263527	0.914847
C97	C	-0.140115	-0.664483	0.479060
C98	C	0.359885	-0.164483	0.979060
C99	C	-0.197425	-0.645309	0.498058
C100	C	0.302575	-0.145309	0.998058
C101	C	-0.197256	-0.598535	0.404405
C102	C	0.302744	-0.098535	0.904405
C103	C	-0.139946	-0.617709	0.385407
C104	C	0.360054	-0.117709	0.885407
C105	C	-0.041168	-0.594444	0.409067
C106	C	0.458832	-0.094444	0.909067
C107	C	-0.022104	-0.575374	0.428250
C108	C	0.477896	-0.075374	0.928250
C109	C	0.024568	-0.668986	0.475143
C110	C	0.524568	-0.168986	0.975143
C111	C	0.005504	-0.688059	0.455967
C112	C	0.505504	-0.188059	0.955967
C113	C	-0.041000	-0.594453	0.310105
C114	C	0.459000	-0.094453	0.810105
C115	C	-0.021803	-0.575386	0.252792
C116	C	0.478197	-0.075386	0.752792
C117	C	0.024951	-0.669004	0.252854
C118	C	0.524951	-0.169004	0.752854
C119	C	0.005755	-0.688070	0.310168
C120	C	0.505755	-0.188070	0.810168
C121	C	-0.027222	-0.650793	0.338792
C122	C	0.472778	-0.150793	0.838792
C123	C	-0.027377	-0.734817	0.422881
C124	C	0.472623	-0.234817	0.922881
N125	N	0.491125	-0.518235	0.555255
N126	N	0.991125	-0.018235	1.055255
O127	O	0.678406	-0.527360	0.420422
O128	O	1.178406	-0.027360	0.920422
O129	O	0.678588	-0.633782	0.564887
O130	O	1.178588	-0.133782	1.064887
O131	O	0.678516	-0.633539	0.473265
O132	O	1.178516	-0.133539	0.973265
O133	O	0.678478	-0.527602	0.512044
O134	O	1.178478	-0.027602	1.012044
O135	O	0.587469	-0.603251	0.503685
O136	O	1.087469	-0.103251	1.003685
O137	O	0.587541	-0.603493	0.595307
O138	O	1.087541	-0.103493	1.095307
O139	O	0.587359	-0.497071	0.450842
O140	O	1.087359	0.002929	0.950842
Zn141	Zn	0.572994	-0.545473	0.527905
Zn142	Zn	1.072994	-0.045473	1.027905
Zn143	Zn	0.692953	-0.585380	0.487825
Zn144	Zn	1.192953	-0.085380	0.987825
O145	O	0.587431	-0.497313	0.542465
O146	O	1.087431	0.002687	1.042465
N147	N	0.774821	-0.612618	0.460470
N148	N	1.274821	-0.112618	0.960470
N149	N	0.105125	-0.132348	0.555445
N150	N	0.605125	0.367652	1.055445
O151	O	-0.029633	0.055031	0.546198
O152	O	0.470367	0.555031	1.046198
O153	O	0.114837	0.055047	0.439777
O154	O	0.614837	0.555047	0.939777
O155	O	0.023189	0.055024	0.440050
O156	O	0.523189	0.555024	0.940050
O157	O	0.062016	0.055054	0.545925
O158	O	0.562016	0.555054	1.045925
O159	O	0.053572	-0.036031	0.470398
O160	O	0.553572	0.463969	0.970398
O161	O	0.145220	-0.036008	0.470125
O162	O	0.645220	0.463992	0.970125
O163	O	0.000750	-0.036024	0.576546
O164	O	0.500750	0.463976	1.076546
Zn165	Zn	0.077809	-0.050473	0.528154
Zn166	Zn	0.577809	0.449527	1.028154
Zn167	Zn	0.037778	0.069496	0.488169
Zn168	Zn	0.537778	0.569496	0.988169
O169	O	0.092399	-0.036001	0.576273
O170	O	0.592399	0.463999	1.076273
N171	N	0.010456	0.151371	0.460879
N172	N	0.510456	0.651371	0.960879
N173	N	0.105414	-0.518315	0.941279
N174	N	0.605414	-0.018315	1.441279
O175	O	0.096182	-0.653057	1.128644
O176	O	0.596182	-0.153057	1.628644
O177	O	-0.010215	-0.508539	1.128670
O178	O	0.489785	-0.008539	1.628670
O179	O	-0.009968	-0.600172	1.128636
O180	O	0.490032	-0.100172	1.628636
O181	O	0.095935	-0.561424	1.128678
O182	O	0.595935	-0.061424	1.628678
O183	O	0.020367	-0.569808	1.037586
O184	O	0.520367	-0.069808	1.537586
O185	O	0.020121	-0.478175	1.037620
O186	O	0.520121	0.021825	1.537620
O187	O	0.126517	-0.622693	1.037594
O188	O	0.626517	-0.122693	1.537594
Zn189	Zn	0.078135	-0.545613	1.023151
Zn190	Zn	0.578135	-0.045613	1.523151
Zn191	Zn	0.038167	-0.585619	1.143113
Zn192	Zn	0.538167	-0.085619	1.643113
O193	O	0.126270	-0.531061	1.037628
O194	O	0.626270	-0.031061	1.537628
N195	N	0.010887	-0.612923	1.224985
N196	N	0.510887	-0.112923	1.724985
C197	C	0.034899	-0.475056	0.440551
C198	C	0.534899	0.024944	0.940551
C199	C	0.148298	-0.588365	0.440456
C200	C	0.648298	-0.088365	0.940456
C201	C	0.080746	-0.656109	0.575876
C202	C	0.580746	-0.156109	1.075876
C203	C	-0.032653	-0.542801	0.575971
C204	C	0.467347	-0.042801	1.075971
C205	C	0.633086	-0.633292	0.598298
C206	C	1.133086	-0.133292	1.098298
C207	C	0.632998	-0.632993	0.484834
C208	C	1.132998	-0.132993	0.984834
C209	C	0.632857	-0.497559	0.417433
C210	C	1.132857	0.002441	0.917433
C211	C	0.632949	-0.497860	0.530895
C212	C	1.132949	0.002140	1.030895
C213	C	0.148191	0.009634	0.440259
C214	C	0.648191	0.509634	0.940259
C215	C	0.034733	0.009493	0.440634
C216	C	0.534733	0.509493	0.940634
C217	C	-0.032641	0.009502	0.576027
C218	C	0.467359	0.509502	1.076027
C219	C	0.080854	0.009529	0.575690
C220	C	0.580854	0.509529	1.075690
C221	C	-0.009699	-0.475150	1.083148
C222	C	0.490301	0.024850	1.583148
C223	C	-0.009388	-0.588620	1.083088
C224	C	0.490612	-0.088620	1.583088
C225	C	0.126001	-0.656082	1.083116
C226	C	0.626001	-0.156082	1.583116
C227	C	0.125697	-0.542605	1.083155
C228	C	0.625697	-0.042605	1.583155
H229	H	0.056584	-0.439691	0.832846
H230	H	0.556584	0.060309	1.332846
H231	H	0.098918	-0.240852	0.676488
H232	H	0.598918	0.259148	1.176488
O233	O	-0.049133	-0.598406	1.083052
O234	O	0.450867	-0.098406	1.583052
C235	C	-0.141340	-0.562539	1.082939
C236	C	0.358660	-0.062539	1.582939
C237	C	-0.096382	-0.551388	1.082992
C238	C	0.403618	-0.051388	1.582992
H239	H	-0.179547	-0.524530	1.082879
H240	H	0.320453	-0.024530	1.582879
H241	H	-0.151621	-0.598356	1.121032
H242	H	0.348379	-0.098356	1.621032
H243	H	-0.126116	-0.572980	1.044823
H244	H	0.373884	-0.072980	1.544823
H245	H	-0.111568	-0.540924	1.121082
H246	H	0.388432	-0.040924	1.621082
H247	H	-0.086107	-0.515587	1.044874
H248	H	0.413893	-0.015587	1.544874
H249	H	0.026652	-0.433515	0.407232
H250	H	0.526652	0.066485	0.907232
O251	O	0.197633	0.009868	0.400368
O252	O	0.697633	0.509868	0.900368
C253	C	0.295100	-0.036864	0.373577
C254	C	0.795100	0.463136	0.873577
C255	C	0.239143	-0.037189	0.418801
C256	C	0.739143	0.462811	0.918801
H257	H	0.328675	-0.074911	0.388459
H258	H	0.828675	0.425089	0.888459
H259	H	0.302942	0.001306	0.363357
H260	H	0.802942	0.501306	0.863357
H261	H	0.295101	-0.036760	0.335413
H262	H	0.795101	0.463240	0.835413
H263	H	0.239101	-0.037313	0.456993
H264	H	0.739101	0.462687	0.956993
H265	H	0.231323	-0.075355	0.428974
H266	H	0.731323	0.424645	0.928974
H267	H	0.189808	-0.596548	0.407092
H268	H	0.689808	-0.096548	0.907092
O269	O	0.090726	0.009461	0.615444
O270	O	0.590726	0.509461	1.115444
C271	C	0.095929	-0.037727	0.706586
C272	C	0.595929	0.462273	1.206586
C273	C	0.084725	-0.037711	0.661615
C274	C	0.584725	0.462289	1.161615
H275	H	0.091094	-0.075867	0.743922
H276	H	0.591094	0.424133	1.243922
H277	H	0.065610	0.000351	0.718602
H278	H	0.565610	0.500351	1.218602
H279	H	0.139422	-0.037694	0.690507
H280	H	0.639422	0.462306	1.190507
H281	H	0.041248	-0.037763	0.677656
H282	H	0.541248	0.462237	1.177656
H283	H	0.115079	-0.075786	0.649605
H284	H	0.615079	0.424214	1.149605
O285	O	0.165377	-0.532778	1.083258
O286	O	0.665377	-0.032778	1.583258
C287	C	0.225135	-0.559141	1.130414
C288	C	0.725135	-0.059141	1.630414
C289	C	0.180190	-0.570322	1.130373
C290	C	0.680190	-0.070322	1.630373
H291	H	0.237133	-0.589496	1.168496
H292	H	0.737133	-0.089496	1.668496
H293	H	0.209100	-0.515653	1.130459
H294	H	0.709100	-0.015653	1.630459
H295	H	0.262476	-0.564019	1.092289
H296	H	0.762476	-0.064019	1.592289
H297	H	0.142834	-0.565474	1.168491
H298	H	0.642834	-0.065474	1.668491
H299	H	0.196268	-0.613806	1.130299
H300	H	0.696268	-0.113806	1.630299
O301	O	0.165787	-0.705634	1.083129
O302	O	0.665787	-0.205634	1.583129
C303	C	0.191253	-0.795809	1.083061
C304	C	0.691253	-0.295809	1.583061
C305	C	0.146144	-0.739722	1.083061
C306	C	0.646144	-0.239722	1.583061
H307	H	0.175393	-0.823381	1.082994
H308	H	0.675393	-0.323381	1.582994
H309	H	0.203195	-0.815516	1.121177
H310	H	0.703195	-0.315516	1.621177
H311	H	0.228587	-0.790037	1.044968
H312	H	0.728587	-0.290037	1.544968
H313	H	0.108781	-0.745446	1.121128
H314	H	0.608781	-0.245446	1.621128
H315	H	0.134249	-0.720034	1.044919
H316	H	0.634249	-0.220034	1.544919
H317	H	0.633132	-0.666701	0.639790
H318	H	1.133132	-0.166701	1.139790
O319	O	0.090663	-0.705704	0.615562
O320	O	0.590663	-0.205704	1.115562
C321	C	0.155636	-0.795822	0.640754
C322	C	0.655636	-0.295822	1.140754
C323	C	0.144474	-0.739685	0.595759
C324	C	0.644474	-0.239685	1.095759
H325	H	0.199146	-0.823308	0.624765
H326	H	0.699146	-0.323308	1.124765
H327	H	0.125335	-0.815589	0.652728
H328	H	0.625335	-0.315589	1.152728
H329	H	0.150699	-0.790112	0.678101
H330	H	0.650699	-0.290112	1.178101
H331	H	0.149419	-0.745348	0.558383
H332	H	0.649419	-0.245348	1.058383
H333	H	0.174774	-0.719937	0.583832
H334	H	0.674774	-0.219937	1.083832
H335	H	0.632798	-0.464146	0.375944
H336	H	1.132798	0.035854	0.875944
O337	O	-0.082196	-0.532946	0.615724
O338	O	0.417804	-0.032946	1.115724
C339	C	-0.172359	-0.468088	0.641028
C340	C	0.327641	0.031912	1.141028
C341	C	-0.116273	-0.479172	0.595964
C342	C	0.383727	0.020828	1.095964
H343	H	-0.199929	-0.424618	0.625064
H344	H	0.300071	0.075382	1.125064
H345	H	-0.166653	-0.472987	0.678362
H346	H	0.333347	0.027013	1.178362
H347	H	-0.192029	-0.498476	0.653011
H348	H	0.307971	0.001524	1.153011
H349	H	-0.096572	-0.448795	0.583934
H350	H	0.403428	0.051205	1.083934
H351	H	-0.122014	-0.474293	0.558660
H352	H	0.377986	0.025707	1.058660
H353	H	0.633014	-0.666272	0.476534
H354	H	1.133014	-0.166272	0.976534
O355	O	-0.049500	-0.425613	1.083180
O356	O	0.450500	0.074387	1.583180
C357	C	-0.074941	-0.335413	1.083172
C358	C	0.425059	0.164587	1.583172
C359	C	-0.029824	-0.391492	1.083149
C360	C	0.470176	0.108508	1.583149
H361	H	-0.059045	-0.307807	1.083135
H362	H	0.440955	0.192193	1.583135
H363	H	-0.112276	-0.341129	1.121282
H364	H	0.387724	0.158871	1.621282
H365	H	-0.086892	-0.315773	1.045073
H366	H	0.413108	0.184227	1.545073
H367	H	-0.017826	-0.411162	1.121222
H368	H	0.482174	0.088838	1.621222
H369	H	0.007482	-0.385740	1.045014
H370	H	0.507482	0.114260	1.545014
H371	H	0.026418	0.009490	0.407371
H372	H	0.526418	0.509490	0.907371
O373	O	-0.082179	0.009531	0.615816
O374	O	0.417821	0.509531	1.115816
C375	C	-0.172362	0.009501	0.641294
C376	C	0.327638	0.509501	1.141294
C377	C	-0.116288	0.009475	0.596184
C378	C	0.383712	0.509475	1.096184
H379	H	-0.199950	0.009444	0.625442
H380	H	0.300050	0.509444	1.125442
H381	H	-0.192050	0.047624	0.653217
H382	H	0.307950	0.547624	1.153217
H383	H	-0.166580	-0.028589	0.678640
H384	H	0.333420	0.471411	1.178640
H385	H	-0.122022	0.047539	0.558809
H386	H	0.377978	0.547539	1.058809
H387	H	-0.096618	-0.028673	0.584307
H388	H	0.403382	0.471327	1.084307
O389	O	0.632863	-0.458088	0.540749
O390	O	1.132863	0.041912	1.040749
C391	C	0.585630	-0.366946	0.545949
C392	C	1.085630	0.133054	1.045949
C393	C	0.585664	-0.411934	0.534765
C394	C	1.085664	0.088066	1.034765
H395	H	0.547467	-0.329624	0.541127
H396	H	1.047467	0.170376	1.041127
H397	H	0.623679	-0.354906	0.515609
H398	H	1.123679	0.145094	1.015609
H399	H	0.585704	-0.383021	0.589434
H400	H	1.085704	0.116979	1.089434
H401	H	0.585571	-0.395897	0.491296
H402	H	1.085571	0.104103	0.991296
H403	H	0.547618	-0.423967	0.565139
H404	H	1.047618	0.076033	1.065139
O405	O	0.013138	-0.472221	0.941260
O406	O	0.513138	0.027779	1.441260
C407	C	-0.072701	-0.476611	0.958853
C408	C	0.427299	0.023389	1.458853
C409	C	-0.010718	-0.491837	0.927332
C410	C	0.489282	0.008163	1.427332
H411	H	-0.092005	-0.492474	0.947613
H412	H	0.407995	0.007526	1.447613
H413	H	-0.092062	-0.430203	0.947587
H414	H	0.407938	0.069797	1.447587
H415	H	-0.079914	-0.495918	1.004732
H416	H	0.420086	0.004082	1.504732
H417	H	-0.003455	-0.472567	0.881446
H418	H	0.496545	0.027433	1.381446
H419	H	0.008613	-0.538250	0.938643
H420	H	0.508613	-0.038250	1.438643
O421	O	0.197772	-0.564459	0.941142
O422	O	0.697772	-0.064459	1.441142
C423	C	0.292634	-0.608828	0.935044
C424	C	0.792634	-0.108828	1.435044
C425	C	0.251605	-0.572561	0.903575
C426	C	0.751605	-0.072561	1.403575
H427	H	0.336167	-0.615380	0.904685
H428	H	0.836167	-0.115380	1.404685
H429	H	0.286091	-0.650080	0.961852
H430	H	0.786091	-0.150080	1.461852
H431	H	0.286015	-0.587839	0.961897
H432	H	0.786015	-0.087839	1.461897
H433	H	0.258200	-0.593501	0.876693
H434	H	0.758200	-0.093501	1.376693
H435	H	0.258159	-0.531310	0.876801
H436	H	0.758159	-0.031310	1.376801
H437	H	0.226428	-0.524588	0.832752
H438	H	0.726428	-0.024588	1.332752
O439	O	0.050530	-0.434472	0.639201
O440	O	0.550530	0.065528	1.139201
C441	C	-0.044306	-0.390111	0.683658
C442	C	0.455694	0.109889	1.183658
C443	C	-0.003322	-0.426362	0.647410
C444	C	0.496678	0.073638	1.147410
H445	H	-0.087855	-0.383552	0.690315
H446	H	0.412145	0.116448	1.190315
H447	H	-0.037757	-0.348861	0.662668
H448	H	0.462243	0.151139	1.162668
H449	H	-0.037642	-0.411117	0.724860
H450	H	0.462358	0.088883	1.224860
H451	H	-0.009961	-0.405404	0.606202
H452	H	0.490039	0.094596	1.106202
H453	H	-0.009881	-0.467610	0.668443
H454	H	0.490119	0.032390	1.168443
H455	H	0.191560	-0.559196	0.514439
H456	H	0.691560	-0.059196	1.014439
O457	O	0.235106	-0.526769	0.546859
O458	O	0.735106	-0.026769	1.046859
C459	C	0.325908	-0.575136	0.498344
C460	C	0.825908	-0.075136	0.998344
C461	C	0.263914	-0.559899	0.513620
C462	C	0.763914	-0.059899	1.013620
H463	H	0.349217	-0.601914	0.471459
H464	H	0.849217	-0.101914	0.971459
H465	H	0.337262	-0.598510	0.537198
H466	H	0.837262	-0.098510	1.037198
H467	H	0.337138	-0.536225	0.475035
H468	H	0.837138	-0.036225	0.975035
H469	H	0.252639	-0.598782	0.536916
H470	H	0.752639	-0.098782	1.036916
H471	H	0.252593	-0.536504	0.474746
H472	H	0.752593	-0.036504	0.974746
O473	O	0.378254	-0.572063	0.627791
O474	O	0.878254	-0.072063	1.127791
C475	C	0.384334	-0.666061	0.660871
C476	C	0.884334	-0.166061	1.160871
C477	C	0.415811	-0.625535	0.630919
C478	C	0.915811	-0.125535	1.130919
H479	H	0.414686	-0.709304	0.663420
H480	H	0.914686	-0.209304	1.163420
H481	H	0.357497	-0.654600	0.637453
H482	H	0.857497	-0.154600	1.137453
H483	H	0.357511	-0.664283	0.703953
H484	H	0.857511	-0.164283	1.203953
H485	H	0.442664	-0.627293	0.587836
H486	H	0.942664	-0.127293	1.087836
H487	H	0.442613	-0.637010	0.654379
H488	H	0.942613	-0.137010	1.154379
O489	O	0.491014	-0.426760	0.520398
O490	O	0.991014	0.073240	1.020398
C491	C	0.484948	-0.332773	0.487362
C492	C	0.984948	0.167227	0.987362
C493	C	0.453463	-0.373296	0.517347
C494	C	0.953463	0.126704	1.017347
H495	H	0.454603	-0.289540	0.484896
H496	H	0.954603	0.210460	0.984896
H497	H	0.511740	-0.334482	0.444252
H498	H	1.011740	0.165518	0.944252
H499	H	0.511818	-0.344306	0.510777
H500	H	1.011818	0.155694	1.010777
H501	H	0.426564	-0.361791	0.493978
H502	H	0.926564	0.138209	0.993978
H503	H	0.426706	-0.371580	0.560459
H504	H	0.926706	0.128420	1.060459
O505	O	0.012936	-0.472249	0.601601
O506	O	0.512936	0.027751	1.101601
C507	C	-0.062923	-0.505200	0.645745
C508	C	0.437077	-0.005200	1.145745
C509	C	-0.000943	-0.520384	0.630489
C510	C	0.499057	-0.020384	1.130489
H511	H	-0.074165	-0.544107	0.669113
H512	H	0.425835	-0.044107	1.169113
H513	H	-0.074255	-0.481883	0.606881
H514	H	0.425745	0.018117	1.106881
H515	H	-0.086244	-0.478359	0.672569
H516	H	0.413756	0.021641	1.172569
H517	H	0.022420	-0.547243	0.603680
H518	H	0.522420	-0.047243	1.103680
H519	H	0.010346	-0.543673	0.669376
H520	H	0.510346	-0.043673	1.169376
H521	H	0.382624	-0.397967	0.559385
H522	H	0.882624	0.102033	1.059385
O523	O	0.188869	-0.245234	0.500746
O524	O	0.688869	0.254766	1.000746
C525	C	0.233231	-0.239164	0.405892
C526	C	0.733231	0.260836	0.905892
C527	C	0.197017	-0.207678	0.446902
C528	C	0.697017	0.292322	0.946902
H529	H	0.239839	-0.208814	0.362350
H530	H	0.739839	0.291186	0.862350
H531	H	0.212243	-0.265986	0.412464
H532	H	0.712243	0.234014	0.912464
H533	H	0.274456	-0.266006	0.412505
H534	H	0.774456	0.233994	0.912505
H535	H	0.155786	-0.180806	0.440313
H536	H	0.655786	0.319194	0.940313
H537	H	0.218048	-0.180890	0.440319
H538	H	0.718048	0.319110	0.940319
H539	H	0.486634	-0.600858	0.588843
H540	H	0.986634	-0.100858	1.088843
H541	H	0.064226	-0.136878	0.641864
H542	H	0.564226	0.363122	1.141864
O543	O	-0.035267	-0.520635	0.225015
O544	O	0.464733	-0.020635	0.725015
C545	C	-0.083651	-0.429793	0.231008
C546	C	0.416349	0.070207	0.731008
C547	C	-0.068455	-0.491781	0.262535
C548	C	0.431545	0.008219	0.762535
H549	H	-0.110476	-0.406446	0.261329
H550	H	0.389524	0.093554	0.761329
H551	H	-0.106958	-0.418461	0.204120
H552	H	0.393042	0.081539	0.704120
H553	H	-0.044729	-0.418581	0.204230
H554	H	0.455271	0.081419	0.704230
H555	H	-0.107348	-0.503037	0.289343
H556	H	0.392652	-0.003037	0.789343
H557	H	-0.045126	-0.503080	0.289388
H558	H	0.454874	-0.003080	0.789388
H559	H	-0.067855	-0.564093	0.333408
H560	H	0.432145	-0.064093	0.833408
O561	O	0.056912	-0.705270	0.225113
O562	O	0.556912	-0.205270	0.725113
C563	C	0.064225	-0.779381	0.207527
C564	C	0.564225	-0.279381	0.707527
C565	C	0.027976	-0.738347	0.238985
C566	C	0.527976	-0.238347	0.738985
H567	H	0.040841	-0.806127	0.218721
H568	H	0.540841	-0.306127	0.718721
H569	H	0.103065	-0.806295	0.218895
H570	H	0.603065	-0.306295	0.718895
H571	H	0.075595	-0.756070	0.161639
H572	H	0.575595	-0.256070	0.661639
H573	H	0.016564	-0.761614	0.284880
H574	H	0.516564	-0.261614	0.784880
H575	H	-0.010839	-0.711434	0.227572
H576	H	0.489161	-0.211434	0.727572
O577	O	-0.073176	-0.558214	0.377061
O578	O	0.426824	-0.058214	0.877061
C579	C	-0.157446	-0.483964	0.369572
C580	C	0.342554	0.016036	0.869572
C581	C	-0.121256	-0.524974	0.405882
C582	C	0.378744	-0.024974	0.905882
H583	H	-0.196321	-0.457071	0.392855
H584	H	0.303679	0.042929	0.892855
H585	H	-0.168749	-0.507240	0.358251
H586	H	0.331251	-0.007240	0.858251
H587	H	-0.134036	-0.457193	0.330707
H588	H	0.365964	0.042807	0.830707
H589	H	-0.144633	-0.551755	0.444770
H590	H	0.355367	-0.051755	0.944770
H591	H	-0.109951	-0.501665	0.417159
H592	H	0.390049	-0.001665	0.917159
O593	O	-0.035406	-0.520655	0.414765
O594	O	0.464594	-0.020655	0.914765
C595	C	-0.002386	-0.444856	0.370718
C596	C	0.497614	0.055144	0.870718
C597	C	0.012752	-0.506830	0.385965
C598	C	0.512752	-0.006830	0.885965
H599	H	0.036540	-0.433657	0.347421
H600	H	0.536540	0.066343	0.847421
H601	H	-0.025743	-0.433526	0.409582
H602	H	0.474257	0.066474	0.909582
H603	H	-0.029170	-0.421495	0.343830
H604	H	0.470830	0.078505	0.843830
H605	H	0.039553	-0.530233	0.412839
H606	H	0.539553	-0.030233	0.912839
H607	H	0.036082	-0.518118	0.347079
H608	H	0.536082	-0.018118	0.847079
O609	O	0.056472	-0.705267	0.507245
O610	O	0.556472	-0.205267	1.007245
C611	C	0.100781	-0.800135	0.551702
C612	C	0.600781	-0.300135	1.051702
C613	C	0.064635	-0.759106	0.515350
C614	C	0.564635	-0.259106	1.015350
H615	H	0.107402	-0.843673	0.558257
H616	H	0.607402	-0.343673	1.058257
H617	H	0.079731	-0.793550	0.592945
H618	H	0.579731	-0.293550	1.092945
H619	H	0.142005	-0.793554	0.530782
H620	H	0.642005	-0.293554	1.030782
H621	H	0.023405	-0.765663	0.536222
H622	H	0.523405	-0.265663	1.036222
H623	H	0.085728	-0.765702	0.474109
H624	H	0.585728	-0.265702	0.974109
H625	H	0.149018	-0.136838	0.472047
H626	H	0.649018	0.363162	0.972047
H627	H	0.016979	-0.733950	0.333522
H628	H	0.516979	-0.233950	0.833522
H629	H	0.016742	-0.733938	0.467255
H630	H	0.516742	-0.233938	0.967255
H631	H	0.093086	-0.844219	0.427442
H632	H	0.593086	-0.344219	0.927442
O633	O	0.064374	-0.735829	0.388496
O634	O	0.564374	-0.235829	0.888496
C635	C	0.158368	-0.741990	0.355581
C636	C	0.658368	-0.241990	0.855581
C637	C	0.117819	-0.773425	0.385446
C638	C	0.617819	-0.273425	0.885446
H639	H	0.201589	-0.772372	0.353096
H640	H	0.701589	-0.272372	0.853096
H641	H	0.146878	-0.715165	0.379024
H642	H	0.646878	-0.215165	0.879024
H643	H	0.156658	-0.715153	0.312476
H644	H	0.656658	-0.215153	0.812476
H645	H	0.119508	-0.800291	0.428552
H646	H	0.619508	-0.300291	0.928552
H647	H	0.129322	-0.800215	0.361962
H648	H	0.629322	-0.300215	0.861962
H649	H	-0.109727	-0.740044	0.456586
H650	H	0.390273	-0.240044	0.956586
O651	O	-0.081029	-0.848429	0.495630
O652	O	0.418971	-0.348429	0.995630
C653	C	-0.175036	-0.842274	0.528640
C654	C	0.324964	-0.342274	1.028640
C655	C	-0.134469	-0.810836	0.498637
C656	C	0.365531	-0.310836	0.998637
H657	H	-0.218249	-0.811893	0.531070
H658	H	0.281751	-0.311893	1.031070
H659	H	-0.173352	-0.869044	0.571764
H660	H	0.326648	-0.369044	1.071764
H661	H	-0.163530	-0.869164	0.505261
H662	H	0.336470	-0.369164	1.005261
H663	H	-0.145947	-0.783915	0.521970
H664	H	0.354053	-0.283915	1.021970
H665	H	-0.136160	-0.784100	0.455510
H666	H	0.363840	-0.284100	0.955510
H667	H	-0.116855	-0.691337	0.509456
H668	H	0.383145	-0.191337	1.009456
H669	H	-0.220518	-0.571693	0.374008
H670	H	0.279482	-0.071693	0.874008
O671	O	-0.225322	-0.658810	0.552779
O672	O	0.274678	-0.158810	1.052779
C673	C	-0.242989	-0.731428	0.638617
C674	C	0.257011	-0.231428	1.138617
C675	C	-0.211372	-0.716210	0.576653
C676	C	0.288628	-0.216210	1.076653
H677	H	-0.231714	-0.777836	0.657939
H678	H	0.268286	-0.277836	1.157939
H679	H	-0.288863	-0.712103	0.645813
H680	H	0.211137	-0.212103	1.145813
H681	H	-0.231769	-0.715604	0.657978
H682	H	0.268231	-0.215604	1.157978
H683	H	-0.222546	-0.732031	0.557250
H684	H	0.277454	-0.232031	1.057250
H685	H	-0.165505	-0.735527	0.569496
H686	H	0.334495	-0.235527	1.069496
O687	O	-0.112111	-0.604275	0.330672
O688	O	0.387889	-0.104275	0.830672
C689	C	-0.117989	-0.555836	0.239784
C690	C	0.382011	-0.055836	0.739784
C691	C	-0.149578	-0.571019	0.301754
C692	C	0.350422	-0.071019	0.801754
H693	H	-0.148267	-0.528936	0.216385
H694	H	0.351733	-0.028936	0.716385
H695	H	-0.091177	-0.594729	0.228502
H696	H	0.408823	-0.094729	0.728502
H697	H	-0.091130	-0.532570	0.228587
H698	H	0.408870	-0.032570	0.728587
H699	H	-0.176467	-0.594271	0.312995
H700	H	0.323533	-0.094271	0.812995
H701	H	-0.176355	-0.532105	0.313002
H702	H	0.323645	-0.032105	0.813002
