data_functionalizedCrystal
_audit_creation_method	'MofGen! by Chris Wilmer'
_symmetry_space_group_name_H-M	'P1'
_symmetry_Int_Tables_number	1
_symmetry_cell_setting	triclinic
loop_
_symmetry_equiv_pos_as_xyz
  x,y,z
_cell_length_a	12.759401
_cell_length_b	29.839131
_cell_length_c	12.759393
_cell_angle_alpha	89.963159
_cell_angle_beta	89.981287
_cell_angle_gamma	90.042945
loop_
_atom_site_label
_atom_site_type_symbol
_atom_site_fract_x
_atom_site_fract_y
_atom_site_fract_z
Zn1	Zn	1.606048	-0.178813	-0.593974
Zn2	Zn	1.605864	-0.253950	-0.418275
Zn3	Zn	1.430354	-0.178837	-0.418309
Zn4	Zn	1.430257	-0.253919	-0.593912
O5	O	1.518131	-0.216380	-0.506117
O6	O	1.753045	-0.188783	-0.570679
O7	O	1.582546	-0.244010	-0.271258
O8	O	1.453778	-0.115967	-0.441652
O9	O	1.752910	-0.243986	-0.441593
O10	O	1.582860	-0.115949	-0.570712
O11	O	1.453599	-0.188824	-0.271283
O12	O	1.283320	-0.188794	-0.441592
O13	O	1.453613	-0.243933	-0.740941
O14	O	1.283249	-0.243956	-0.570606
O15	O	1.582766	-0.188753	-0.740987
O16	O	1.582452	-0.316813	-0.441533
O17	O	1.453434	-0.316790	-0.570573
C18	C	1.245163	-0.216374	-0.506097
C19	C	1.128387	-0.216383	-0.506113
C20	C	1.073515	-0.245150	-0.573185
C21	C	0.963791	-0.245151	-0.573206
C22	C	0.963820	-0.187618	-0.439073
C23	C	1.073542	-0.187615	-0.439058
C24	C	0.813873	-0.261271	-0.697062
C25	C	0.758998	-0.290045	-0.764125
C26	C	0.794547	-0.333888	-0.780061
C27	C	0.884970	-0.348966	-0.728920
C28	C	0.939839	-0.320195	-0.661849
C29	C	0.904292	-0.276346	-0.645932
C30	C	1.223462	-0.171499	-0.315200
C31	C	1.278334	-0.142730	-0.248124
C32	C	1.242787	-0.098886	-0.232176
C33	C	1.152360	-0.083810	-0.283300
C34	C	1.097489	-0.112579	-0.350376
C35	C	1.133044	-0.156422	-0.366325
C36	C	1.517941	-0.333103	-0.506065
C37	C	1.517956	-0.383037	-0.506078
C38	C	1.585433	-0.692680	-0.439024
C39	C	1.585562	-0.880353	-0.439065
O40	O	1.642783	-0.904617	-0.382014
N41	N	1.518349	-0.903822	-0.506197
C42	C	1.451103	-0.880370	-0.573327
O43	O	1.393944	-0.904638	-0.630435
C44	C	1.450979	-0.692698	-0.573291
C45	C	1.518190	-0.669231	-0.506148
C46	C	1.652638	-0.669213	-0.371888
C47	C	1.652601	-0.622297	-0.371874
C48	C	1.585358	-0.598849	-0.438997
C49	C	1.518152	-0.622316	-0.506134
C50	C	1.383739	-0.669247	-0.640427
C51	C	1.383716	-0.622326	-0.640413
C52	C	1.450927	-0.598859	-0.573270
C53	C	1.450872	-0.551952	-0.573244
N54	N	1.518086	-0.528482	-0.506113
C55	C	1.585329	-0.551931	-0.438989
C56	C	1.451171	-0.978901	-0.573340
C57	C	1.451200	-1.025818	-0.573348
C58	C	1.585662	-1.025798	-0.439087
C59	C	1.585626	-0.978879	-0.439075
C60	C	1.518385	-0.955431	-0.506209
C61	C	1.585245	-0.453405	-0.438965
C62	C	1.585199	-0.406486	-0.438955
C63	C	1.450742	-0.406510	-0.573219
C64	C	1.450784	-0.453426	-0.573226
C65	C	1.518044	-0.476872	-0.506096
O66	O	1.393690	-0.527658	-0.630274
O67	O	1.642496	-0.527655	-0.381907
C68	C	1.585470	-0.739595	-0.439038
C69	C	1.518264	-0.763062	-0.506175
C70	C	1.451021	-0.739613	-0.573298
C71	C	1.518293	-0.809980	-0.506183
C72	C	1.585536	-0.833428	-0.439060
C73	C	1.652750	-0.809959	-0.371928
C74	C	1.652713	-0.763044	-0.371915
C75	C	1.383807	-0.763083	-0.640430
C76	C	1.383849	-0.809998	-0.640437
C77	C	1.451092	-0.833447	-0.573314
C78	C	1.792164	-0.216386	-0.506139
C79	C	1.908941	-0.216388	-0.506148
C80	C	1.518199	-0.216337	-0.780151
C81	C	1.518228	-0.216318	-0.896928
C82	C	1.518350	-0.099202	-0.506193
C83	C	1.518443	-0.049267	-0.506225
C84	C	1.451000	-0.245037	-0.951768
C85	C	1.451038	-0.245020	-1.061492
C86	C	1.585533	-0.187562	-1.061526
C87	C	1.585500	-0.187582	-0.951804
C88	C	1.413443	-0.297976	-1.211412
C89	C	1.346200	-0.326690	-1.266256
C90	C	1.243661	-0.333591	-1.230639
C91	C	1.208346	-0.311771	-1.140179
C92	C	1.275584	-0.283052	-1.085341
C93	C	1.378137	-0.276160	-1.120957
C94	C	1.623084	-0.134626	-0.801882
C95	C	1.690317	-0.105905	-0.747042
C96	C	1.792857	-0.099000	-0.782657
C97	C	1.828169	-0.120812	-0.873120
C98	C	1.760935	-0.149533	-0.927960
C99	C	1.658396	-0.156439	-0.892337
C100	C	1.518124	-0.216391	-0.233150
C101	C	1.518298	-0.216282	-0.116374
H102	H	1.013459	-0.332471	-0.620210
H103	H	1.911663	-0.115187	-0.902123
C104	C	1.305741	-0.085728	-0.057558
C105	C	1.303100	-0.067263	-0.158438
H106	H	1.342978	-0.066205	-0.012041
H107	H	1.236195	-0.089502	-0.032472
H108	H	1.339858	-0.113997	-0.059745
H109	H	1.268975	-0.038995	-0.156252
H110	H	1.372658	-0.063483	-0.183530
C111	C	1.763622	-1.040149	-0.388124
C112	C	1.659617	-1.051561	-0.365309
H113	H	1.809288	-1.056049	-0.342578
H114	H	1.778933	-1.047814	-0.458724
H115	H	1.773182	-1.008845	-0.378523
H116	H	1.650055	-1.082865	-0.374917
H117	H	1.644301	-1.043899	-0.294692
C118	C	1.726660	-0.506088	-0.424508
C119	C	1.659194	-0.479167	-0.365182
H120	H	1.772318	-0.521988	-0.378955
H121	H	1.686647	-0.526785	-0.464468
H122	H	1.766783	-0.487744	-0.470323
H123	H	1.619065	-0.497512	-0.319372
H124	H	1.699212	-0.458467	-0.325204
H125	H	1.329051	-0.743994	-0.695091
H126	H	1.351963	-0.155009	-0.206496
C127	C	1.363876	-0.218568	-0.374807
C128	C	1.262538	-0.219695	-0.332732
H129	H	1.387999	-0.248323	-0.385621
H130	H	1.362873	-0.203031	-0.439792
H131	H	1.409485	-0.203593	-0.327531
H132	H	1.216927	-0.234668	-0.380012
H133	H	1.263535	-0.235239	-0.267738
C134	C	1.785525	-0.664467	-0.239168
C135	C	1.726554	-0.694982	-0.298090
H136	H	1.831151	-0.680375	-0.193597
H137	H	1.825674	-0.646140	-0.284980
H138	H	1.739740	-0.646198	-0.198953
H139	H	1.772339	-0.713250	-0.338311
H140	H	1.686402	-0.713318	-0.252273
C141	C	0.795635	-0.162078	-0.379538
C142	C	0.903530	-0.155999	-0.365365
H143	H	0.758419	-0.142558	-0.334027
H144	H	0.777703	-0.155540	-0.450151
H145	H	0.777610	-0.192256	-0.364028
H146	H	0.921558	-0.125821	-0.380882
H147	H	0.921470	-0.162534	-0.294735
H148	H	1.707333	-0.603193	-0.317203
H149	H	1.124844	-0.317387	-1.111194
C150	C	1.600281	-0.127109	-1.184946
C151	C	1.659468	-0.155972	-1.121850
H152	H	1.645926	-0.107604	-1.222179
H153	H	1.560257	-0.144210	-1.233307
H154	H	1.554530	-0.109933	-1.142136
H155	H	1.705213	-0.173151	-1.164660
H156	H	1.699509	-0.138869	-1.073483
H157	H	1.118167	-0.268573	-0.627787
H158	H	1.023864	-0.100299	-0.392011
H159	H	0.749860	-0.357316	-0.834667
C160	C	1.600277	-0.926157	-0.297746
C161	C	1.659509	-0.953087	-0.365274
H162	H	1.645895	-0.910238	-0.252180
H163	H	1.560243	-0.905475	-0.337720
H164	H	1.554535	-0.944496	-0.257527
H165	H	1.705246	-0.934747	-0.405498
H166	H	1.699562	-0.973771	-0.325295
C167	C	1.309888	-1.078634	-0.587841
C168	C	1.377312	-1.051610	-0.647146
H169	H	1.264272	-1.094553	-0.633408
H170	H	1.349935	-1.099316	-0.547879
H171	H	1.269719	-1.060359	-0.542028
H172	H	1.417487	-1.069886	-0.692954
H173	H	1.337261	-1.030926	-0.687125
H174	H	0.685376	-0.277764	-0.805765
H175	H	1.847593	-0.075607	-0.738004
H176	H	1.789693	-0.167292	-1.001623
C177	C	1.072280	-0.366603	-1.240559
C178	C	1.169745	-0.365155	-1.290920
H179	H	1.026651	-0.386088	-1.277781
H180	H	1.081096	-0.377347	-1.171033
H181	H	1.042985	-0.337356	-1.238727
H182	H	1.199043	-0.394402	-1.292745
H183	H	1.160931	-0.354413	-1.360465
H184	H	1.539588	-0.140248	-0.772872
C185	C	1.714175	-0.094441	-0.562354
C186	C	1.651565	-0.081925	-0.647580
H187	H	1.690272	-0.079635	-0.500948
H188	H	1.709855	-0.125944	-0.552529
H189	H	1.784860	-0.086224	-0.575782
H190	H	1.580881	-0.090145	-0.634156
H191	H	1.655875	-0.050416	-0.657405
C192	C	1.022317	-0.028460	-0.324808
C193	C	1.113276	-0.035616	-0.265774
H194	H	0.998187	0.001293	-0.313978
H195	H	1.037404	-0.032754	-0.397006
H196	H	0.969666	-0.049060	-0.303463
H197	H	1.165929	-0.015017	-0.287125
H198	H	1.098193	-0.031317	-0.193561
H199	H	0.913900	-0.384669	-0.741892
C200	C	1.318252	-0.983644	-0.706039
C201	C	1.377239	-0.953131	-0.647129
H202	H	1.272602	-0.967735	-0.751583
H203	H	1.364017	-1.001908	-0.746271
H204	H	1.278118	-1.001977	-0.660210
H205	H	1.417379	-0.934799	-0.692957
H206	H	1.331468	-0.934859	-0.606893
C207	C	1.718118	-0.411185	-0.306245
C208	C	1.659087	-0.380692	-0.365150
H209	H	1.763736	-0.395261	-0.260689
H210	H	1.672379	-0.429518	-0.266024
H211	H	1.758288	-0.429452	-0.352076
H212	H	1.618910	-0.362427	-0.319320
H213	H	1.704831	-0.362351	-0.405374
H214	H	1.707499	-0.829059	-0.317271
H215	H	1.395990	-0.387411	-0.627867
C216	C	1.250856	-0.664534	-0.773154
C217	C	1.309865	-0.695033	-0.714241
H218	H	1.205252	-0.680454	-0.818732
H219	H	1.210681	-0.646270	-0.727338
H220	H	1.296618	-0.646200	-0.813361
H221	H	1.264103	-0.713366	-0.674028
H222	H	1.350043	-0.713305	-0.760064
H223	H	0.784927	-0.225570	-0.684103
C224	C	1.369004	-0.569528	-0.781723
C225	C	1.309801	-0.596552	-0.714211
H226	H	1.323370	-0.553619	-0.827283
H227	H	1.409012	-0.548837	-0.741736
H228	H	1.414770	-0.587802	-0.821947
H229	H	1.264040	-0.578277	-0.673980
H230	H	1.269776	-0.617245	-0.754202
C231	C	1.317878	-0.448731	-0.705942
C232	C	1.376906	-0.479223	-0.647030
H233	H	1.272280	-0.464656	-0.751517
H234	H	1.277696	-0.430470	-0.660125
H235	H	1.363628	-0.430392	-0.746154
H236	H	1.331156	-0.497560	-0.606813
H237	H	1.417091	-0.497492	-0.692853
H238	H	1.707442	-0.743940	-0.317241
H239	H	1.329109	-0.829101	-0.695112
C240	C	1.414930	-0.318783	-1.440495
C241	C	1.385020	-0.350678	-1.365681
H242	H	1.438896	-0.333592	-1.501874
H243	H	1.356538	-0.300434	-1.457435
H244	H	1.469653	-0.300698	-1.412918
H245	H	1.330292	-0.368761	-1.393255
H246	H	1.443418	-0.369035	-1.348741
C247	C	1.399698	-0.321115	-0.917935
C248	C	1.377078	-0.276630	-0.891437
H249	H	1.354068	-0.340621	-0.880684
H250	H	1.390086	-0.325212	-0.991120
H251	H	1.470277	-0.327684	-0.899953
H252	H	1.306501	-0.270061	-0.909427
H253	H	1.386682	-0.272532	-0.818236
C254	C	1.206939	-0.290984	-0.911089
C255	C	1.236811	-0.259077	-0.985889
H256	H	1.183016	-0.276185	-0.849680
H257	H	1.152205	-0.309061	-0.938647
H258	H	1.265346	-0.309340	-0.894200
H259	H	1.178401	-0.240723	-1.002783
H260	H	1.291550	-0.240992	-0.958326
C261	C	1.579734	-0.331327	-1.252102
C262	C	1.526161	-0.290395	-1.250566
H263	H	1.649318	-0.326645	-1.276285
H264	H	1.581497	-0.343545	-1.183369
H265	H	1.544726	-0.351547	-1.297709
H266	H	1.561164	-0.270176	-1.204953
H267	H	1.524404	-0.278170	-1.319310
