data_functionalizedCrystal
_audit_creation_method	'MofGen! by Chris Wilmer'
_symmetry_space_group_name_H-M	'P1'
_symmetry_Int_Tables_number	1
_symmetry_cell_setting	triclinic
loop_
_symmetry_equiv_pos_as_xyz
  x,y,z
_cell_length_a	10.540510
_cell_length_b	10.540558
_cell_length_c	9.130313
_cell_angle_alpha	90.001332
_cell_angle_beta	90.000984
_cell_angle_gamma	95.476787
loop_
_atom_site_label
_atom_site_type_symbol
_atom_site_fract_x
_atom_site_fract_y
_atom_site_fract_z
O1	O	1.685914	-0.178721	0.121784
O2	O	1.316497	-0.195616	0.121783
O3	O	1.509621	-0.002463	0.121799
O4	O	1.492790	-0.371875	0.121768
O5	O	1.509619	-0.002452	-0.121800
O6	O	1.316495	-0.195606	-0.121816
O7	O	1.685911	-0.178711	-0.121815
Cu8	Cu	1.501203	-0.187157	-0.144058
Cu9	Cu	1.501206	-0.187170	0.144026
O10	O	1.492787	-0.371864	-0.121831
C11	C	1.269192	-0.194352	-0.000016
C12	C	1.128242	-0.190585	-0.000016
C13	C	1.508353	0.044845	0.000007
C14	C	1.504561	0.185791	0.000028
C15	C	0.910796	-0.324768	0.000533
C16	C	1.057392	-0.328786	-0.000026
C17	C	1.083476	-0.119834	-0.139113
C18	C	0.936715	-0.116795	-0.139221
C19	C	0.936912	-0.113928	0.137797
C20	C	1.083253	-0.120483	0.139626
C21	C	1.359630	0.369201	0.000592
C22	C	1.363474	0.222585	0.000030
C23	C	1.572452	0.247462	-0.139073
C24	C	1.567627	0.394004	-0.139177
C25	C	1.570500	0.394511	0.137841
C26	C	1.571809	0.247531	0.139666
C27	C	1.733216	-0.179975	-0.000012
C28	C	1.874167	-0.183742	-0.000003
C29	C	1.494039	0.580826	-0.000012
C30	C	1.497780	0.439874	0.000047
N31	N	1.501209	-0.187169	0.346649
N32	N	1.501210	-0.187148	-0.346681
C33	C	1.586885	-0.101809	0.423308
C34	C	1.586889	-0.101801	0.576645
C35	C	1.415530	-0.272517	0.576650
C36	C	1.415533	-0.272530	0.423316
C37	C	1.685815	-0.003243	0.423306
C38	C	1.685819	-0.003236	0.576643
H39	H	1.086742	-0.384136	0.099688
H40	H	1.674673	0.223320	0.148064
H41	H	0.913713	-0.013429	-0.145531
H42	H	1.664278	0.094403	0.618250
H43	H	1.114333	-0.168961	-0.242639
H44	H	1.672402	0.441748	0.138781
H45	H	0.896501	-0.165138	-0.243207
H46	H	1.309676	0.180827	-0.099858
H47	H	1.345779	-0.342048	0.360901
H48	H	1.655102	0.089028	0.375737
H49	H	0.868847	-0.378614	0.100288
H50	H	1.525289	0.204862	-0.242596
H51	H	1.345775	-0.342017	0.639088
H52	H	1.777935	-0.034339	0.624206
H53	H	1.130859	-0.018093	-0.144278
H54	H	0.894367	-0.157515	0.243227
H55	H	0.867291	-0.378296	-0.098665
H56	H	1.111876	-0.171962	0.242530
H57	H	1.085798	-0.384464	-0.099913
H58	H	1.676063	0.225119	-0.144248
H59	H	1.132314	-0.019587	0.148035
H60	H	0.914751	-0.010167	0.138746
H61	H	1.517446	0.422203	-0.243159
H62	H	1.783322	-0.025198	0.381703
H63	H	1.522134	0.206663	0.242570
H64	H	1.310053	0.179972	0.099743
H65	H	1.669091	0.441984	-0.145483
H66	H	1.304122	0.399407	-0.098602
H67	H	1.524837	0.426055	0.243278
H68	H	1.303897	0.397791	0.100350
