data_functionalizedCrystal
_audit_creation_method	'MofGen! by Chris Wilmer'
_symmetry_space_group_name_H-M	'P1'
_symmetry_Int_Tables_number	1
_symmetry_cell_setting	triclinic
loop_
_symmetry_equiv_pos_as_xyz
  x,y,z
_cell_length_a	17.699083
_cell_length_b	14.044220
_cell_length_c	16.176319
_cell_angle_alpha	89.992517
_cell_angle_beta	89.998611
_cell_angle_gamma	88.235946
loop_
_atom_site_label
_atom_site_type_symbol
_atom_site_fract_x
_atom_site_fract_y
_atom_site_fract_z
O1	O	1.012346	0.119850	-0.068632
O2	O	0.793044	0.135443	-0.068659
O3	O	0.899403	-0.010330	-0.068638
O4	O	0.905987	0.265624	-0.068653
O5	O	0.899387	-0.010340	0.068855
O6	O	0.793027	0.135434	0.068834
O7	O	1.012330	0.119841	0.068861
Cu8	Cu	0.902677	0.127637	0.081402
Cu9	Cu	0.902696	0.127648	-0.081200
O10	O	0.905970	0.265614	0.068840
C11	C	0.764800	0.134880	0.000084
C12	C	0.680666	0.133204	0.000074
C13	C	0.637948	0.218769	0.000069
C14	C	0.558895	0.217189	0.000080
C15	C	0.522563	0.130041	0.000089
C16	C	0.565287	0.044469	0.000096
C17	C	0.644338	0.046050	0.000092
C18	C	0.246484	0.038089	0.000117
C19	C	0.167427	0.036514	0.000120
C20	C	0.161041	0.209227	0.000106
C21	C	0.240092	0.210809	0.000101
C22	C	0.282809	0.125237	0.000112
C23	C	0.368527	0.126952	0.000102
C24	C	0.436847	0.128325	0.000094
C25	C	0.896513	-0.045643	0.000109
C26	C	0.887917	-0.150849	0.000109
C27	C	0.872202	-0.343474	0.000095
C28	C	0.933168	-0.401248	0.000100
C29	C	0.924424	-0.508431	0.000092
C30	C	0.880945	-0.236281	0.000102
C31	C	1.040574	0.120404	0.000116
C32	C	1.124707	0.122081	0.000121
C33	C	0.908860	0.300927	0.000091
C34	C	0.917456	0.406133	0.000086
N35	N	0.902668	0.127628	0.195767
N36	N	0.902710	0.127648	-0.195565
C37	C	0.949782	0.063106	0.239041
C38	C	0.949786	0.063105	0.325588
C39	C	0.902679	0.127632	0.368860
C40	C	0.855561	0.192157	0.325580
C41	C	0.855554	0.192153	0.239034
C42	C	0.855588	0.192175	0.674608
C43	C	0.855600	0.192176	0.761160
C44	C	0.949820	0.063127	0.761161
C45	C	0.949813	0.063123	0.674616
C46	C	0.902692	0.127644	0.631344
C47	C	0.902687	0.127643	0.537500
C48	C	0.902687	0.127638	0.462702
H49	H	0.535699	-0.026488	0.000116
H50	H	0.667523	0.289735	0.000061
C51	C	0.512424	0.310021	-0.000063
C52	C	0.466839	0.314146	-0.070787
C53	C	0.424014	0.399647	-0.070943
H54	H	0.545297	0.362224	-0.000118
H55	H	0.481411	0.313010	0.047861
H56	H	0.497849	0.311166	-0.118699
H57	H	0.433951	0.261963	-0.070747
H58	H	0.393001	0.402636	-0.023019
H59	H	0.456893	0.451844	-0.070996
H60	H	0.393075	0.402454	-0.118924
H61	H	0.269670	0.281773	0.000089
C62	C	0.127938	-0.058082	-0.000035
C63	C	0.082758	-0.064045	-0.070782
C64	C	0.046377	-0.151172	-0.070959
H65	H	0.097173	-0.062378	0.047857
H66	H	0.164678	-0.108848	-0.000072
H67	H	0.046023	-0.013293	-0.070737
H68	H	0.113504	-0.059766	-0.118684
H69	H	0.083117	-0.201937	-0.070996
H70	H	0.015617	-0.155460	-0.023064
H71	H	0.015724	-0.155233	-0.118963
C72	C	0.804319	0.262122	0.808100
C73	C	0.728917	0.246839	0.787082
C74	C	0.681658	0.311242	0.830315
H75	H	0.816695	0.325406	0.793942
H76	H	0.811024	0.252878	0.865848
H77	H	0.722215	0.256090	0.729346
H78	H	0.716517	0.183567	0.801241
H79	H	0.688363	0.301998	0.888063
H80	H	0.694041	0.374522	0.816154
H81	H	0.630492	0.300875	0.816066
C82	C	0.793899	-0.384980	-0.000040
C83	C	0.785363	-0.441088	-0.070768
C84	C	0.713246	-0.479363	-0.070910
H85	H	0.756721	-0.334739	-0.000081
H86	H	0.787954	-0.423143	0.047882
H87	H	0.791300	-0.402928	-0.118676
H88	H	0.822524	-0.491345	-0.070741
H89	H	0.707301	-0.517525	-0.022989
H90	H	0.676074	-0.429115	-0.070950
H91	H	0.707447	-0.517443	-0.118894
H92	H	0.988144	0.010565	0.203814
H93	H	0.281255	-0.031590	0.000127
C94	C	1.011542	-0.359928	-0.000048
C95	C	1.050756	-0.390771	-0.070787
C96	C	1.122949	-0.352713	-0.070953
H97	H	1.038336	-0.380771	0.047848
H98	H	1.007117	-0.292339	-0.000087
H99	H	1.055184	-0.458346	-0.070741
H100	H	1.023985	-0.369930	-0.118695
H101	H	1.118524	-0.285124	-0.070992
H102	H	1.149736	-0.373559	-0.023053
H103	H	1.149562	-0.373627	-0.118952
C104	C	0.804532	0.262388	0.627683
C105	C	0.823109	0.355497	0.648710
C106	C	0.776098	0.420208	0.605490
H107	H	0.753310	0.252305	0.641845
H108	H	0.811273	0.253216	0.569933
H109	H	0.816361	0.364665	0.706447
H110	H	0.874323	0.365610	0.634546
H111	H	0.782839	0.411037	0.547740
H112	H	0.724879	0.410117	0.619655
H113	H	0.788701	0.483390	0.619744
C114	C	0.804377	0.262315	0.192197
C115	C	0.763140	0.318844	0.248615
C116	C	0.715992	0.383495	0.205500
H117	H	0.770508	0.228380	0.158443
H118	H	0.834242	0.301776	0.158443
H119	H	0.733277	0.279388	0.282354
H120	H	0.796989	0.352800	0.282371
H121	H	0.745857	0.422956	0.171746
H122	H	0.682128	0.349552	0.171747
H123	H	0.688012	0.421864	0.243772
C124	C	0.114566	0.302065	-0.000027
C125	C	0.068978	0.306195	-0.070749
C126	C	0.026151	0.391694	-0.070897
H127	H	0.147437	0.354270	-0.000079
H128	H	0.083554	0.305048	0.047898
H129	H	0.099987	0.303222	-0.118662
H130	H	0.036093	0.254010	-0.070712
H131	H	-0.004861	0.394676	-0.022972
H132	H	0.059028	0.443892	-0.070947
H133	H	-0.004791	0.394503	-0.118877
C134	C	0.804369	0.262062	0.372666
C135	C	0.754659	0.211650	0.422384
C136	C	0.707497	0.276018	0.465779
H137	H	0.776235	0.300517	0.334594
H138	H	0.834236	0.301460	0.406465
H139	H	0.724795	0.172269	0.388589
H140	H	0.782772	0.173200	0.460472
H141	H	0.737364	0.315416	0.499577
H142	H	0.679368	0.314469	0.427701
H143	H	0.673768	0.241823	0.499524
H144	H	0.988148	0.010566	0.360821
C145	C	1.000983	-0.007043	0.627785
C146	C	1.042229	-0.063568	0.684208
C147	C	1.089365	-0.128227	0.641099
H148	H	1.034846	0.026887	0.594010
H149	H	0.971109	-0.046505	0.594053
H150	H	1.072101	-0.024111	0.717926
H151	H	1.008386	-0.097519	0.717985
H152	H	1.059492	-0.167689	0.607367
H153	H	1.123224	-0.094290	0.607325
H154	H	1.117352	-0.166593	0.679375
C155	C	0.690588	-0.046953	0.000050
C156	C	0.641852	-0.123613	0.000035
C157	C	0.684430	-0.209304	-0.000012
H158	H	0.721568	-0.050065	0.047982
H159	H	0.721543	-0.049974	-0.047918
H160	H	0.610911	-0.120593	0.047998
H161	H	0.610872	-0.120532	-0.047894
H162	H	0.715385	-0.212325	-0.047980
H163	H	0.715408	-0.212407	0.047921
H164	H	0.651369	-0.261328	-0.000030
H165	H	0.988186	0.010587	0.796403
