data_functionalizedCrystal
_audit_creation_method	'MofGen! by Chris Wilmer'
_symmetry_space_group_name_H-M	'P1'
_symmetry_Int_Tables_number	1
_symmetry_cell_setting	triclinic
loop_
_symmetry_equiv_pos_as_xyz
  x,y,z
_cell_length_a	10.489746
_cell_length_b	10.489741
_cell_length_c	14.750779
_cell_angle_alpha	77.226586
_cell_angle_beta	102.776199
_cell_angle_gamma	84.540238
loop_
_atom_site_label
_atom_site_type_symbol
_atom_site_fract_x
_atom_site_fract_y
_atom_site_fract_z
O1	O	1.666636	0.207398	-0.079762
O2	O	1.295436	0.224290	-0.079778
O3	O	1.489484	0.030244	-0.079764
O4	O	1.472588	0.401444	-0.079776
O5	O	1.544340	-0.024604	0.079890
O6	O	1.350291	0.169441	0.079876
O7	O	1.721491	0.152550	0.079892
Zn8	Zn	1.544601	0.152287	0.105233
Zn9	Zn	1.472327	0.224552	-0.105119
O10	O	1.527443	0.346595	0.079878
C11	C	1.275331	0.195589	0.000047
C12	C	1.133700	0.191772	0.000041
C13	C	0.980848	0.066042	0.000059
C14	C	1.085287	0.101857	0.078772
C15	C	1.031159	0.155963	-0.078635
C16	C	0.985820	0.220814	0.078843
C17	C	0.931663	0.274927	-0.078634
C18	C	1.036059	0.310823	0.000098
C19	C	1.515636	-0.044712	0.000063
C20	C	1.511818	-0.186340	0.000061
C21	C	1.388349	-0.254479	0.000048
C22	C	1.473720	-0.373644	0.078769
C23	C	1.419667	-0.319542	-0.078638
C24	C	1.597262	-0.303663	0.078846
C25	C	1.543167	-0.249527	-0.078631
C26	C	1.628634	-0.368672	0.000108
C27	C	1.741595	0.181251	0.000065
C28	C	1.883224	0.185071	0.000065
C29	C	1.501291	0.421552	0.000050
C30	C	1.505106	0.563183	0.000045
N31	N	1.593935	0.102968	0.248792
N32	N	1.423002	0.273862	-0.248678
C33	C	1.285217	0.411548	0.600588
C34	C	1.319797	0.376997	0.701090
C35	C	1.491663	0.205233	0.701065
C36	C	1.457094	0.239766	0.600561
C37	C	1.353871	0.342926	0.550331
C38	C	1.525747	0.171144	0.550304
C39	C	1.491184	0.205679	0.449809
C40	C	1.387968	0.308837	0.399571
C41	C	1.319308	0.377461	0.449836
C42	C	1.628976	0.067991	0.600536
C43	C	1.697629	-0.000631	0.550279
C44	C	1.663061	0.033897	0.449782
C45	C	1.559845	0.137055	0.399544
C46	C	1.731721	-0.034727	0.399518
C47	C	1.697158	-0.000192	0.299023
C48	C	1.525282	0.171590	0.299049
H49	H	0.956156	-0.037488	0.000142
H50	H	1.151630	0.028745	0.145324
O51	O	1.330212	-0.329389	-0.158064
C52	C	1.293556	-0.405551	-0.302994
C53	C	1.395005	-0.394522	-0.213080
H54	H	1.345906	-0.458184	-0.347509
H55	H	1.214872	-0.464247	-0.280343
H56	H	1.244790	-0.302287	-0.347729
H57	H	1.443869	-0.497731	-0.168305
H58	H	1.473607	-0.335757	-0.235796
O59	O	1.591829	0.104881	0.749761
C60	C	1.675036	-0.126784	0.780548
C61	C	1.561528	-0.013242	0.725324
H62	H	1.650565	-0.222319	0.760827
H63	H	1.770580	-0.102490	0.760762
H64	H	1.687956	-0.139610	0.861002
H65	H	1.548487	-0.000356	0.644858
H66	H	1.466045	-0.037586	0.745190
O67	O	1.267316	-0.195383	0.000302
C68	C	1.094027	-0.192406	0.083550
C69	C	1.231110	-0.259434	0.083388
H70	H	1.064700	-0.244182	0.150708
H71	H	1.097779	-0.083963	0.082927
H72	H	1.018071	-0.199506	0.017085
H73	H	1.307141	-0.252434	0.149842
H74	H	1.227249	-0.367847	0.083961
O75	O	1.184932	0.511679	0.551637
C76	C	1.055564	0.641045	0.396824
C77	C	1.169137	0.527609	0.452141
H78	H	1.042776	0.653979	0.316373
H79	H	0.959997	0.616643	0.416523
H80	H	1.079906	0.736562	0.416635
H81	H	1.144922	0.432046	0.432360
H82	H	1.264670	0.552124	0.432438
O83	O	1.219023	0.477592	0.400884
C84	C	1.089655	0.606957	0.246072
C85	C	1.203227	0.493522	0.301389
H86	H	1.076866	0.619892	0.165621
H87	H	0.994088	0.582556	0.265771
H88	H	1.113996	0.702475	0.265883
H89	H	1.179013	0.397959	0.281608
H90	H	1.298761	0.518037	0.281686
O91	O	0.961300	0.253313	0.158303
C92	C	0.799458	0.286246	0.247435
C93	C	0.827051	0.249406	0.157416
H94	H	0.690914	0.283127	0.246737
H95	H	0.864327	0.212832	0.314464
H96	H	0.822698	0.390157	0.247714
H97	H	0.803800	0.145525	0.157044
H98	H	0.762194	0.322906	0.090427
H99	H	1.572497	-0.195618	-0.145183
H100	H	1.815775	-0.118711	0.440428
H101	H	1.672349	-0.295719	0.145473
H102	H	1.730253	-0.418110	0.000156
O103	O	1.763717	-0.066989	0.250204
C104	C	1.825927	-0.277419	0.219361
C105	C	1.750473	-0.201968	0.274714
H106	H	1.815269	-0.386567	0.239173
H107	H	1.783450	-0.235060	0.138905
H108	H	1.935014	-0.266491	0.239077
H109	H	1.641376	-0.212866	0.255079
H110	H	1.793057	-0.244344	0.355157
H111	H	1.441218	0.255584	0.258150
O112	O	1.065294	0.434409	-0.000028
C113	C	1.141186	0.625658	-0.083038
C114	C	1.108086	0.485731	-0.083034
H115	H	1.175817	0.667183	-0.150131
H116	H	1.049299	0.692575	-0.082431
H117	H	1.223040	0.620767	-0.016507
H118	H	1.026271	0.490495	-0.149553
H119	H	1.200039	0.418870	-0.083591
O120	O	1.055585	0.123087	-0.158001
C121	C	1.055960	-0.043087	-0.247631
C122	C	1.028220	-0.006001	-0.157728
H123	H	1.033874	-0.147465	-0.247430
H124	H	0.990378	0.029575	-0.314749
H125	H	1.164270	-0.038849	-0.247239
H126	H	0.919943	-0.010250	-0.158027
H127	H	1.093889	-0.078668	-0.090651
H128	H	1.359832	0.336958	0.317742
H129	H	1.263883	0.432888	0.742004
O130	O	0.852524	0.361946	-0.158128
C131	C	0.785280	0.426100	-0.330974
C132	C	0.874958	0.327451	-0.241019
H133	H	0.803406	0.398263	-0.398015
H134	H	0.677273	0.423016	-0.329888
H135	H	0.808836	0.530124	-0.331610
H136	H	0.851519	0.223381	-0.240325
H137	H	0.982939	0.330651	-0.242141
O138	O	1.797729	-0.100982	0.599123
C139	C	1.862301	-0.313877	0.712631
C140	C	1.748817	-0.200333	0.657358
H141	H	1.822803	-0.394218	0.759742
H142	H	1.905430	-0.357108	0.659493
H143	H	1.942715	-0.274309	0.759629
H144	H	1.668319	-0.239798	0.610358
H145	H	1.705795	-0.157120	0.710548
H146	H	1.657117	0.039881	0.682365
O147	O	1.438840	-0.437826	0.158259
C148	C	1.491718	-0.501831	0.331117
C149	C	1.531364	-0.429082	0.241182
H150	H	1.566518	-0.494811	0.398184
H151	H	1.389290	-0.454440	0.331095
H152	H	1.490040	-0.610193	0.330648
H153	H	1.533120	-0.320715	0.241593
H154	H	1.633767	-0.476578	0.241239
