data_functionalizedCrystal
_audit_creation_method	'MofGen! by Chris Wilmer'
_symmetry_space_group_name_H-M	'P1'
_symmetry_Int_Tables_number	1
_symmetry_cell_setting	triclinic
loop_
_symmetry_equiv_pos_as_xyz
  x,y,z
_cell_length_a	10.686220
_cell_length_b	21.295417
_cell_length_c	10.686551
_cell_angle_alpha	85.587790
_cell_angle_beta	90.308082
_cell_angle_gamma	94.412682
loop_
_atom_site_label
_atom_site_type_symbol
_atom_site_fract_x
_atom_site_fract_y
_atom_site_fract_z
Zn1	Zn	1.972201	-0.153473	-0.562351
Zn2	Zn	2.472201	0.346527	-0.062351
Zn3	Zn	1.955908	-0.267413	-0.352566
Zn4	Zn	2.455908	0.232587	0.147434
Zn5	Zn	1.746311	-0.169576	-0.368665
Zn6	Zn	2.246311	0.330424	0.131335
Zn7	Zn	1.762339	-0.266137	-0.578344
Zn8	Zn	2.262339	0.233863	-0.078344
O9	O	1.859190	-0.214150	-0.465482
O10	O	2.359190	0.285850	0.034518
O11	O	2.145585	-0.162382	-0.521092
O12	O	2.645585	0.337618	-0.021092
O13	O	1.914578	-0.261708	-0.179155
O14	O	2.414578	0.238292	0.320845
O15	O	1.776387	-0.079345	-0.394402
O16	O	2.276387	0.420655	0.105598
O17	O	2.133615	-0.246093	-0.366964
O18	O	2.633615	0.253907	0.133036
O19	O	1.942347	-0.067514	-0.536702
O20	O	2.442347	0.432486	-0.036702
O21	O	1.760588	-0.189828	-0.190982
O22	O	2.260588	0.310172	0.309018
O23	O	1.572892	-0.188591	-0.409910
O24	O	2.072892	0.311409	0.090090
O25	O	1.803704	-0.243919	-0.751770
O26	O	2.303704	0.256081	-0.251770
O27	O	1.584668	-0.259534	-0.563960
O28	O	2.084668	0.240466	-0.063960
O29	O	1.957889	-0.161145	-0.740020
O30	O	2.457889	0.338855	-0.240020
O31	O	1.930120	-0.355339	-0.382472
O32	O	2.430120	0.144661	0.117528
O33	O	1.787905	-0.354402	-0.548351
O34	O	2.287905	0.145598	-0.048351
C35	C	1.533263	-0.225672	-0.490418
C36	C	2.033263	0.274328	0.009582
C37	C	1.393832	-0.230615	-0.501116
C38	C	1.893832	0.269385	-0.001116
C39	C	1.859020	-0.377710	-0.465425
C40	C	2.359020	0.122290	0.034575
C41	C	1.859065	-0.447676	-0.465434
C42	C	2.359065	0.052324	0.034566
C43	C	1.933194	-0.481004	-0.379138
C44	C	2.433194	0.018996	0.120862
C45	C	1.933255	-0.546743	-0.379161
C46	C	2.433255	-0.046743	0.120839
C47	C	1.859164	-0.579154	-0.465470
C48	C	2.359164	-0.079154	0.034530
C49	C	1.785031	-0.545817	-0.551782
C50	C	2.285031	-0.045817	-0.051782
C51	C	1.784982	-0.480079	-0.551764
C52	C	2.284982	0.019921	-0.051764
N53	N	1.750160	-0.685908	-0.483429
N54	N	2.250160	-0.185908	0.016571
N55	N	1.750210	-0.748357	-0.483439
N56	N	2.250210	-0.248357	0.016561
C57	C	1.859310	-0.777220	-0.465531
C58	C	2.359310	-0.277220	0.034469
N59	N	1.968359	-0.741276	-0.447588
N60	N	2.468359	-0.241276	0.052412
N61	N	1.968308	-0.678822	-0.447572
N62	N	2.468308	-0.178822	0.052428
C63	C	1.859210	-0.650436	-0.465499
C64	C	2.359210	-0.150436	0.034501
C65	C	1.933511	-0.881830	-0.379256
C66	C	2.433511	-0.381830	0.120744
C67	C	1.933575	-0.947570	-0.379288
C68	C	2.433575	-0.447570	0.120712
C69	C	1.785339	-0.946643	-0.551903
C70	C	2.285339	-0.446643	-0.051903
C71	C	1.785287	-0.880904	-0.551876
C72	C	2.285287	-0.380904	-0.051876
C73	C	1.859371	-0.848502	-0.465546
C74	C	2.359371	-0.348502	0.034454
C75	C	2.186390	-0.202583	-0.440448
C76	C	2.686390	0.297417	0.059552
C77	C	2.325823	-0.197654	-0.429781
C78	C	2.825823	0.302346	0.070219
C79	C	1.884402	-0.200593	-0.792685
C80	C	2.384402	0.299407	-0.292685
C81	C	1.895146	-0.194816	-0.932120
C82	C	2.395146	0.305184	-0.432120
C83	C	1.859397	-0.049948	-0.465564
C84	C	2.359397	0.450052	0.034436
C85	C	1.859485	0.020024	-0.465599
C86	C	2.359485	0.520024	0.034401
C87	C	1.834148	-0.227606	-0.139546
C88	C	2.334148	0.272394	0.360454
C89	C	1.823647	-0.233197	-0.000093
C90	C	2.323647	0.266803	0.499907
H91	H	1.374266	-0.165655	-0.360523
H92	H	1.874266	0.334345	0.139477
C93	C	1.988957	-0.144452	-0.997598
C94	C	2.488957	0.355548	-0.497598
H95	H	2.032378	-0.121152	-0.936256
H96	H	2.532378	0.378848	-0.436256
H97	H	1.944904	-0.116626	-1.052404
H98	H	2.444904	0.383374	-0.552404
H99	H	2.047485	-0.164514	-1.044514
H100	H	2.547485	0.335486	-0.544514
H101	H	1.345382	-0.262621	-0.570371
H102	H	1.845382	0.237379	-0.070371
H103	H	1.993521	-0.454624	-0.308846
H104	H	2.493521	0.045376	0.191154
H105	H	1.993624	-0.573884	-0.308889
H106	H	2.493624	-0.073884	0.191111
C107	C	1.729862	-0.283568	-0.934619
C108	C	2.229862	0.216432	-0.434619
H109	H	1.686458	-0.306877	-0.995957
H110	H	2.186458	0.193123	-0.495957
H111	H	1.671335	-0.263522	-0.887684
H112	H	2.171335	0.236478	-0.387684
H113	H	1.773948	-0.311393	-0.879828
H114	H	2.273948	0.188607	-0.379828
C115	C	1.703530	-0.581466	-0.646716
C116	C	2.203530	-0.081466	-0.146716
H117	H	1.714166	-0.625392	-0.634359
H118	H	2.214166	-0.125392	-0.134359
H119	H	1.728308	-0.566526	-0.729616
H120	H	2.228308	-0.066526	-0.229616
H121	H	1.617826	-0.574479	-0.634725
H122	H	2.117826	-0.074479	-0.134725
H123	H	1.724616	-0.452942	-0.622038
H124	H	2.224616	0.047058	-0.122038
C125	C	2.015103	-0.984235	-0.284346
C126	C	2.515103	-0.484235	0.215654
H127	H	2.004530	-1.028027	-0.296724
H128	H	2.504530	-0.528027	0.203276
H129	H	1.990287	-0.977628	-0.201449
H130	H	2.490287	-0.477628	0.298551
H131	H	2.100795	-0.969676	-0.296307
H132	H	2.600795	-0.469676	0.203693
H133	H	1.993839	-0.855447	-0.308964
H134	H	2.493839	-0.355447	0.191036
H135	H	1.725019	-0.973031	-0.622182
H136	H	2.225019	-0.473031	-0.122182
C137	C	1.703727	-0.844243	-0.646788
C138	C	2.203727	-0.344243	-0.146788
H139	H	1.659600	-0.872959	-0.698188
H140	H	2.159600	-0.372959	-0.198188
H141	H	1.755859	-0.814599	-0.697812
H142	H	2.255859	-0.314599	-0.197812
H143	H	1.645384	-0.822560	-0.602914
H144	H	2.145384	-0.322560	-0.102914
