data_functionalizedCrystal
_audit_creation_method	'MofGen! by Chris Wilmer'
_symmetry_space_group_name_H-M	'P1'
_symmetry_Int_Tables_number	1
_symmetry_cell_setting	triclinic
loop_
_symmetry_equiv_pos_as_xyz
  x,y,z
_cell_length_a	25.639242
_cell_length_b	16.994731
_cell_length_c	25.639233
_cell_angle_alpha	89.941183
_cell_angle_beta	90.022166
_cell_angle_gamma	89.943069
loop_
_atom_site_label
_atom_site_type_symbol
_atom_site_fract_x
_atom_site_fract_y
_atom_site_fract_z
Zn1	Zn	0.799556	-0.314219	0.296024
Zn2	Zn	1.299556	0.185781	0.796024
Zn3	Zn	0.799619	-0.446104	0.208707
Zn4	Zn	1.299619	0.053896	0.708707
Zn5	Zn	0.712133	-0.314207	0.208588
Zn6	Zn	1.212133	0.185793	0.708588
Zn7	Zn	0.712217	-0.446075	0.296097
Zn8	Zn	1.212217	0.053925	0.796097
O9	O	0.755881	-0.380151	0.252354
O10	O	1.255881	0.119849	0.752354
O11	O	0.872730	-0.331731	0.284461
O12	O	1.372730	0.168269	0.784461
O13	O	0.788005	-0.428615	0.135526
O14	O	1.288005	0.071385	0.635526
O15	O	0.723668	-0.203827	0.220107
O16	O	1.223668	0.296173	0.720107
O17	O	0.872776	-0.428626	0.220309
O18	O	1.372776	0.071374	0.720309
O19	O	0.787898	-0.203836	0.284346
O20	O	1.287898	0.296164	0.784346
O21	O	0.723729	-0.331711	0.135439
O22	O	1.223729	0.168289	0.635439
O23	O	0.638979	-0.331683	0.220177
O24	O	1.138979	0.168317	0.720177
O25	O	0.723812	-0.428576	0.369253
O26	O	1.223812	0.071424	0.869253
O27	O	0.639041	-0.428565	0.284469
O28	O	1.139041	0.071435	0.784469
O29	O	0.787980	-0.331702	0.369199
O30	O	1.287980	0.168298	0.869199
O31	O	0.788086	-0.556481	0.220380
O32	O	1.288086	-0.056481	0.720380
O33	O	0.723872	-0.556460	0.284585
O34	O	1.223872	-0.056460	0.784585
C35	C	0.620039	-0.380120	0.252319
C36	C	1.120039	0.119880	0.752319
C37	C	0.561925	-0.380126	0.252316
C38	C	1.061925	0.119874	0.752316
C39	C	0.755910	-0.674411	0.252392
C40	C	1.255910	-0.174411	0.752392
C41	C	0.755956	-0.585089	0.252462
C42	C	1.255956	-0.085089	0.752462
Zn43	Zn	0.799462	-0.814187	0.208521
Zn44	Zn	1.299462	-0.314187	0.708521
Zn45	Zn	0.799546	-0.946353	0.295832
Zn46	Zn	1.299546	-0.446353	0.795832
Zn47	Zn	0.711977	-0.945825	0.208541
Zn48	Zn	1.211977	-0.445825	0.708541
Zn49	Zn	0.712205	-0.814238	0.296056
Zn50	Zn	1.212205	-0.314238	0.796056
O51	O	0.755797	-0.880151	0.252237
O52	O	1.255797	-0.380151	0.752237
O53	O	0.872638	-0.831919	0.220001
O54	O	1.372638	-0.331919	0.720001
O55	O	0.787870	-1.056664	0.284167
O56	O	1.287870	-0.556664	0.784167
O57	O	0.723452	-0.928120	0.135373
O58	O	1.223452	-0.428120	0.635373
O59	O	0.872700	-0.929021	0.284148
O60	O	1.372700	-0.429021	0.784148
O61	O	0.787726	-0.831407	0.135358
O62	O	1.287726	-0.331407	0.635358
O63	O	0.723533	-1.056276	0.220035
O64	O	1.223533	-0.556276	0.720035
O65	O	0.638842	-0.928170	0.220252
O66	O	1.138842	-0.428170	0.720252
O67	O	0.723839	-0.703851	0.284529
O68	O	1.223839	-0.203851	0.784529
O69	O	0.639009	-0.831494	0.284549
O70	O	1.139009	-0.331494	0.784549
O71	O	0.787947	-0.703813	0.220218
O72	O	1.287947	-0.203813	0.720218
O73	O	0.788090	-0.929070	0.369027
O74	O	1.288090	-0.429070	0.869027
O75	O	0.723921	-0.832006	0.369191
O76	O	1.223921	-0.332006	0.869191
C77	C	0.201603	-0.430682	0.285799
C78	C	0.701603	0.069318	0.785799
C79	C	0.146999	-0.430687	0.285808
C80	C	0.646999	0.069313	0.785808
O81	O	0.118797	-0.473633	0.314247
O82	O	0.618797	0.026367	0.814247
N83	N	0.119642	-0.380173	0.252388
N84	N	0.619642	0.119827	0.752388
C85	C	0.146893	-0.329645	0.218962
C86	C	0.646893	0.170355	0.718962
O87	O	0.118611	-0.286679	0.190537
O88	O	0.618611	0.213321	0.690537
C89	C	0.201496	-0.329637	0.218957
C90	C	0.701496	0.170363	0.718957
C91	C	0.228850	-0.380160	0.252375
C92	C	0.728850	0.119840	0.752375
C93	C	0.228956	-0.481200	0.319215
C94	C	0.728956	0.018800	0.819215
C95	C	0.283557	-0.481196	0.319206
C96	C	0.783557	0.018804	0.819206
C97	C	0.310804	-0.430674	0.285781
C98	C	0.810804	0.069326	0.785781
C99	C	0.283450	-0.380156	0.252366
C100	C	0.783450	0.119844	0.752366
C101	C	0.228746	-0.279106	0.185534
C102	C	0.728746	0.220894	0.685534
C103	C	0.283353	-0.279101	0.185532
C104	C	0.783353	0.220899	0.685532
C105	C	0.310707	-0.329624	0.218950
C106	C	0.810707	0.170376	0.718950
C107	C	0.365298	-0.329630	0.218932
C108	C	0.865298	0.170370	0.718932
N109	N	0.392654	-0.380144	0.252351
N110	N	0.892654	0.119856	0.752351
C111	C	0.365407	-0.430666	0.285776
C112	C	0.865407	0.069334	0.785776
C113	C	0.032223	-0.329665	0.218976
C114	C	0.532223	0.170335	0.718976
C115	C	-0.022380	-0.329677	0.218979
C116	C	0.477620	0.170323	0.718979
C117	C	-0.022271	-0.430718	0.285825
C118	C	0.477729	0.069282	0.785825
C119	C	0.032333	-0.430710	0.285820
C120	C	0.532333	0.069290	0.785820
C121	C	0.059579	-0.380179	0.252396
C122	C	0.559579	0.119821	0.752396
C123	C	0.480072	-0.430654	0.285754
C124	C	0.980072	0.069346	0.785754
C125	C	0.534678	-0.430648	0.285741
C126	C	1.034678	0.069352	0.785741
C127	C	0.534564	-0.329604	0.218896
C128	C	1.034564	0.170396	0.718896
C129	C	0.479963	-0.329613	0.218908
C130	C	0.979963	0.170387	0.718908
C131	C	0.452719	-0.380141	0.252341
C132	C	0.952719	0.119859	0.752341
O133	O	0.393534	-0.286703	0.190509
O134	O	0.893534	0.213297	0.690509
O135	O	0.393696	-0.473618	0.314201
O136	O	0.893696	0.026382	0.814201
C137	C	0.892254	-0.380183	0.252390
C138	C	1.392254	0.119817	0.752390
C139	C	0.950368	-0.380196	0.252405
C140	C	1.450368	0.119804	0.752405
C141	C	0.755898	-0.380137	0.388727
C142	C	1.255898	0.119863	0.888727
C143	C	0.755905	-0.380131	0.446841
C144	C	1.255905	0.119869	0.946841
C145	C	0.755763	-0.174411	0.252204
C146	C	1.255763	0.325589	0.752204
C147	C	0.755714	-0.085088	0.252139
C148	C	1.255714	0.414912	0.752139
C149	C	0.755895	-0.380108	0.116512
C150	C	1.255895	0.119892	0.616512
C151	C	0.755988	-0.379892	0.058398
C152	C	1.255988	0.120108	0.558398
C153	C	0.789360	-0.329539	0.807182
C154	C	1.289360	0.170461	1.307182
C155	C	0.789366	-0.329517	0.861787
C156	C	1.289366	0.170483	1.361787
O157	O	0.817768	-0.286595	0.890004
O158	O	1.317768	0.213405	1.390004
N159	N	0.755963	-0.379946	0.889124
N160	N	1.255963	0.120054	1.389124
C161	C	0.722547	-0.430395	0.861854
C162	C	1.222547	0.069605	1.361854
O163	O	0.694135	-0.473286	0.890120
O164	O	1.194135	0.026714	1.390120
C165	C	0.722538	-0.430412	0.807251
C166	C	1.222538	0.069588	1.307251
C167	C	0.755948	-0.379985	0.779916
C168	C	1.255948	0.120015	1.279916
C169	C	0.822766	-0.279116	0.779848
C170	C	1.322766	0.220884	1.279848
C171	C	0.822760	-0.279139	0.725247
C172	C	1.322760	0.220861	1.225247
C173	C	0.789348	-0.329585	0.697981
C174	C	1.289348	0.170415	1.197981
C175	C	0.755942	-0.380009	0.725316
C176	C	1.255942	0.119991	1.225316
C177	C	0.689120	-0.480856	0.779982
C178	C	1.189120	0.019144	1.279982
C179	C	0.689114	-0.480869	0.725375
C180	C	1.189114	0.019131	1.225375
C181	C	0.722523	-0.430442	0.698040
C182	C	1.222523	0.069558	1.198040
C183	C	0.722524	-0.430478	0.643449
C184	C	1.222524	0.069522	1.143449
N185	N	0.755927	-0.380049	0.616112
N186	N	1.255927	0.119951	1.116112
C187	C	0.789339	-0.329603	0.643378
C188	C	1.289339	0.170397	1.143378
C189	C	0.722567	-0.430354	0.976525
C190	C	1.222567	0.069646	1.476525
C191	C	0.722578	-0.430341	1.031127
C192	C	1.222578	0.069659	1.531127
C193	C	0.789397	-0.329462	1.031056
C194	C	1.289397	0.170538	1.531056
C195	C	0.789388	-0.329480	0.976452
C196	C	1.289388	0.170520	1.476452
C197	C	0.755971	-0.379925	0.949187
C198	C	1.255971	0.120075	1.449187
C199	C	0.789325	-0.329655	0.528713
C200	C	1.289325	0.170345	1.028713
C201	C	0.789318	-0.329685	0.474107
C202	C	1.289318	0.170315	0.974107
C203	C	0.722497	-0.430561	0.474183
C204	C	1.222497	0.069439	0.974183
C205	C	0.722506	-0.430534	0.528784
C206	C	1.222506	0.069466	1.028784
C207	C	0.755922	-0.380075	0.556047
C208	C	1.255922	0.119925	1.056047
O209	O	0.694135	-0.473376	0.615196
O210	O	1.194135	0.026624	1.115196
O211	O	0.817742	-0.286711	0.615105
O212	O	1.317742	0.213289	1.115105
C213	C	0.619955	-0.879779	0.252427
C214	C	1.119955	-0.379779	0.752427
C215	C	0.561841	-0.879601	0.252520
C216	C	1.061841	-0.379601	0.752520
C217	C	0.756041	-0.880603	0.388080
C218	C	1.256041	-0.380603	0.888080
C219	C	0.756160	-0.880819	0.446194
C220	C	1.256160	-0.380819	0.946194
C221	C	0.892170	-0.880523	0.252047
C222	C	1.392170	-0.380523	0.752047
C223	C	0.950284	-0.880682	0.251966
C224	C	1.450284	-0.380682	0.751966
C225	C	0.755554	-0.879699	0.115864
C226	C	1.255554	-0.379699	0.615864
C227	C	0.755451	-0.879506	0.057750
C228	C	1.255451	-0.379506	0.557750
C229	C	0.534649	-0.829256	0.286092
C230	C	1.034649	-0.329256	0.786092
C231	C	0.480045	-0.829074	0.286180
C232	C	0.980045	-0.329074	0.786180
C233	C	0.452634	-0.879241	0.252699
C234	C	0.952634	-0.379241	0.752699
C235	C	0.479830	-0.929588	0.219123
C236	C	0.979830	-0.429588	0.719123
C237	C	0.534433	-0.929766	0.219033
C238	C	1.034433	-0.429766	0.719033
C239	C	0.789657	-0.931416	0.473384
C240	C	1.289657	-0.431416	0.973384
C241	C	0.789779	-0.931619	0.527988
C242	C	1.289779	-0.431619	1.027988
C243	C	0.756402	-0.881229	0.555401
C244	C	1.256402	-0.381229	1.055401
C245	C	0.722904	-0.830627	0.528207
C246	C	1.222904	-0.330627	1.028207
C247	C	0.722784	-0.830420	0.473604
C248	C	1.222784	-0.330420	0.973604
C249	C	0.977546	-0.830195	0.218530
C250	C	1.477546	-0.330195	0.718530
C251	C	1.032150	-0.830328	0.218454
C252	C	1.532150	-0.330328	0.718454
C253	C	1.059492	-0.880952	0.251812
C254	C	1.559492	-0.380952	0.751812
C255	C	1.032226	-0.931442	0.285252
C256	C	1.532226	-0.431442	0.785252
C257	C	0.977623	-0.931304	0.285330
C258	C	1.477623	-0.431304	0.785330
C259	C	0.721934	-0.929770	0.030464
C260	C	1.221934	-0.429770	0.530464
C261	C	0.721826	-0.929589	-0.024140
C262	C	1.221826	-0.429589	0.475860
C263	C	0.755239	-0.879148	-0.051457
C264	C	1.255239	-0.379148	0.448543
C265	C	0.788757	-0.828879	-0.024167
C266	C	1.288757	-0.328879	0.475833
C267	C	0.788862	-0.829057	0.030436
C268	C	1.288862	-0.329057	0.530436
H269	H	0.457896	-0.471797	0.312980
H270	H	0.957896	0.028203	0.812980
H271	H	1.054342	-0.789212	0.191222
H272	H	1.554342	-0.289212	0.691222
H273	H	0.694530	-0.970524	-0.046352
H274	H	1.194530	-0.470524	0.453648
N275	N	0.686656	-0.775842	0.444280
N276	N	1.186656	-0.275842	0.944280
H277	H	0.665532	-0.743955	0.469936
H278	H	1.165532	-0.243955	0.969936
H279	H	0.662407	-0.807823	0.421637
H280	H	1.162407	-0.307823	0.921637
N281	N	0.393740	-0.879055	0.252801
N282	N	0.893740	-0.379055	0.752801
H283	H	0.380520	-0.864311	0.216985
H284	H	0.880520	-0.364311	0.716985
H285	H	0.380717	-0.839557	0.279176
H286	H	0.880717	-0.339557	0.779176
H287	H	0.556758	-0.288473	0.191681
H288	H	1.056758	0.211527	0.691681
H289	H	0.695306	-0.471603	0.551041
H290	H	1.195306	0.028397	1.051041
N291	N	1.118385	-0.881105	0.251724
N292	N	1.618385	-0.381105	0.751724
H293	H	1.131582	-0.827060	0.261355
H294	H	1.631582	-0.327060	0.761355
H295	H	1.131418	-0.895552	0.215817
H296	H	1.631418	-0.395552	0.715817
N297	N	0.755110	-0.878963	-0.110351
N298	N	1.255110	-0.378963	0.389649
H299	H	0.764662	-0.933059	-0.123557
H300	H	1.264662	-0.433059	0.376443
H301	H	0.781354	-0.839348	-0.123484
H302	H	1.281354	-0.339348	0.376516
H303	H	0.694725	-0.970847	0.052699
H304	H	1.194725	-0.470847	0.552699
H305	H	0.955291	-0.788965	0.191367
H306	H	1.455291	-0.288965	0.691367
H307	H	0.457503	-0.970431	0.191863
H308	H	0.957503	-0.470431	0.691863
N309	N	0.948222	-0.985770	0.321389
N310	N	1.448222	-0.485770	0.821389
H311	H	0.973832	-1.017862	0.342504
H312	H	1.473832	-0.517862	0.842504
H313	H	0.925516	-1.022146	0.300105
H314	H	1.425516	-0.522146	0.800105
H315	H	0.816533	-0.288564	0.550904
H316	H	1.316533	0.211436	1.050904
N317	N	0.825424	-0.275095	0.946973
N318	N	1.325424	0.224905	1.446973
H319	H	0.804158	-0.238539	0.924280
H320	H	1.304158	0.261461	1.424280
H321	H	0.849659	-0.307227	0.924382
H322	H	1.349659	0.192773	1.424382
H323	H	0.849965	-0.238075	0.702996
H324	H	1.349965	0.261925	1.202996
N325	N	0.563759	-0.984071	0.182822
N326	N	1.063759	-0.484071	0.682822
H327	H	0.538105	-1.015822	0.161629
H328	H	1.038105	-0.515822	0.661629
H329	H	0.586428	-1.020771	0.204001
H330	H	1.086428	-0.520771	0.704001
N331	N	0.686524	-0.484780	0.947127
N332	N	1.186524	0.015220	1.447127
H333	H	0.707785	-0.521351	0.924508
H334	H	1.207785	-0.021351	1.424508
H335	H	0.662274	-0.452678	0.924471
H336	H	1.162274	0.047322	1.424471
H337	H	1.054496	-0.972659	0.312410
H338	H	1.554496	-0.472659	0.812410
H339	H	0.815960	-0.787812	-0.046417
H340	H	1.315960	-0.287812	0.453583
H341	H	0.661914	-0.521919	0.802228
H342	H	1.161914	-0.021919	1.302228
N343	N	0.825012	-0.774838	0.059864
N344	N	1.325012	-0.274838	0.559864
H345	H	0.846160	-0.742860	0.034269
H346	H	1.346160	-0.242860	0.534269
H347	H	0.849236	-0.807080	0.082458
H348	H	1.349236	-0.307080	0.582458
N349	N	0.564205	-0.775149	0.322212
N350	N	1.064205	-0.275149	0.822212
H351	H	0.602923	-0.782898	0.317069
H352	H	1.102923	-0.282898	0.817069
H353	H	0.554719	-0.787615	0.359543
H354	H	1.054719	-0.287615	0.859543
H355	H	0.817058	-0.972828	0.550121
H356	H	1.317058	-0.472828	1.050121
N357	N	0.825659	-0.985771	0.443825
N358	N	1.325659	-0.485771	0.943825
H359	H	0.846842	-1.017927	0.469344
H360	H	1.346842	-0.517927	0.969344
H361	H	0.849857	-0.953610	0.421215
H362	H	1.349857	-0.453610	0.921215
H363	H	0.756505	-0.881405	0.599863
H364	H	1.256505	-0.381405	1.099863
H365	H	0.457909	-0.788075	0.313523
H366	H	0.957909	-0.288075	0.813523
N367	N	0.686462	-0.484971	0.444770
N368	N	1.186462	0.015029	0.944770
H369	H	0.691529	-0.477326	0.406032
H370	H	1.191529	0.022674	0.906032
H371	H	0.649116	-0.472677	0.454292
H372	H	1.149116	0.027323	0.954292
H373	H	0.816602	-0.288384	1.053266
H374	H	1.316602	0.211616	1.553266
H375	H	0.305823	-0.522336	0.346419
H376	H	0.805823	-0.022336	0.846419
N377	N	0.564177	-0.485147	0.321785
N378	N	1.064177	0.014853	0.821785
H379	H	0.554685	-0.472980	0.359147
H380	H	1.054685	0.027020	0.859147
H381	H	0.602893	-0.477460	0.316666
H382	H	1.102893	0.022540	0.816666
N383	N	0.199574	-0.535701	0.355266
N384	N	0.699574	-0.035701	0.855266
H385	H	0.225195	-0.567700	0.376429
H386	H	0.725195	-0.067700	0.876429
H387	H	0.176939	-0.572162	0.333971
H388	H	0.676939	-0.072162	0.833971
N389	N	0.061833	-0.485202	0.321862
N390	N	0.561833	0.014798	0.821862
H391	H	0.036282	-0.517208	0.343034
H392	H	0.536282	-0.017208	0.843034
H393	H	0.084476	-0.453148	0.346069
H394	H	0.584476	0.046852	0.846069
H395	H	-0.044465	-0.471853	0.313043
H396	H	0.455535	0.028147	0.813043
H397	H	0.849975	-0.238032	0.802042
H398	H	1.349975	0.261968	1.302042
H399	H	-0.044646	-0.288544	0.191761
H400	H	0.455354	0.211456	0.691761
H401	H	0.661895	-0.521940	0.703178
H402	H	1.161895	-0.021940	1.203178
H403	H	0.695729	-0.789601	0.550535
H404	H	1.195729	-0.289601	1.050535
H405	H	0.206484	-0.237966	0.158320
H406	H	0.706484	0.262034	0.658320
N407	N	0.061608	-0.275161	0.182924
N408	N	0.561608	0.224839	0.682924
H409	H	0.035988	-0.243165	0.161757
H410	H	0.535988	0.256835	0.661757
H411	H	0.084275	-0.307205	0.158713
H412	H	0.584275	0.192795	0.658713
H413	H	0.457691	-0.288475	0.191695
H414	H	0.957691	0.211525	0.691695
N415	N	0.312740	-0.224594	0.149484
N416	N	0.812740	0.275406	0.649484
H417	H	0.287123	-0.192592	0.128318
H418	H	0.787123	0.307408	0.628318
H419	H	0.335406	-0.256640	0.125272
H420	H	0.835406	0.243360	0.625272
H421	H	0.695378	-0.471412	1.053378
H422	H	1.195378	0.028588	1.553378
N423	N	0.825355	-0.275297	0.444625
N424	N	1.325355	0.224703	0.944625
H425	H	0.846521	-0.243336	0.470187
H426	H	1.346521	0.256664	0.970187
H427	H	0.804052	-0.238797	0.421932
H428	H	1.304052	0.261203	0.921932
