data_functionalizedCrystal
_audit_creation_method	'MofGen! by Chris Wilmer'
_symmetry_space_group_name_H-M	'P1'
_symmetry_Int_Tables_number	1
_symmetry_cell_setting	triclinic
loop_
_symmetry_equiv_pos_as_xyz
  x,y,z
_cell_length_a	15.995350
_cell_length_b	15.538191
_cell_length_c	14.185569
_cell_angle_alpha	97.872928
_cell_angle_beta	76.841840
_cell_angle_gamma	65.382234
loop_
_atom_site_label
_atom_site_type_symbol
_atom_site_fract_x
_atom_site_fract_y
_atom_site_fract_z
O1	O	-1.048627	-0.142757	-0.083326
O2	O	-0.800288	-0.157756	-0.083346
O3	O	-0.972797	-0.013127	-0.083337
O4	O	-0.876118	-0.287386	-0.083335
O5	O	-1.023756	0.029593	0.083500
O6	O	-0.851248	-0.115036	0.083491
O7	O	-1.099586	-0.100037	0.083511
Cu8	Cu	-0.980070	-0.103636	0.098734
Cu9	Cu	-0.919805	-0.154157	-0.098570
O10	O	-0.927077	-0.244666	0.083502
C11	C	-1.008391	0.043328	0.000079
C12	C	-1.038519	0.147899	0.000071
C13	C	-0.794761	-0.135777	0.000070
C14	C	-0.702373	-0.133920	0.000062
C15	C	-1.105113	-0.122017	0.000093
C16	C	-1.197499	-0.123875	0.000094
C17	C	-0.366660	-0.127241	0.000083
C18	C	-0.445511	-0.024146	0.000454
C19	C	-0.541520	-0.026102	0.000071
C20	C	-0.533211	-0.130554	0.000073
C21	C	-0.447585	-0.205751	-0.095195
C22	C	-0.351714	-0.203182	-0.095268
C23	C	-0.408678	-0.156730	0.094457
C24	C	-0.506014	-0.156385	0.095710
C25	C	-0.627336	-0.132433	0.000064
C26	C	-0.272532	-0.125367	0.000085
C27	C	-0.891482	-0.301121	0.000083
C28	C	-0.861353	-0.405694	0.000084
N29	N	-1.022463	-0.068101	0.237508
C30	C	-0.739184	0.435690	0.000069
C31	C	-0.767519	0.533956	0.000073
C32	C	-0.926888	0.556402	0.000086
C33	C	-0.898566	0.458134	0.000076
C34	C	-0.804713	0.397785	0.000069
C35	C	-0.964094	0.420230	0.000076
C36	C	-0.935775	0.321972	0.000072
C37	C	-0.841928	0.261617	0.000068
C38	C	-0.776394	0.299527	0.000065
C39	C	-1.057949	0.480582	0.000091
C40	C	-1.123477	0.442678	0.000091
C41	C	-1.095157	0.344416	0.000080
C42	C	-1.001309	0.284062	0.000075
C43	C	-1.160690	0.306507	0.000083
C44	C	-1.132372	0.208248	0.000079
C45	C	-0.972990	0.185804	0.000071
N46	N	-0.877420	-0.189684	-0.237343
C47	C	-0.752880	-0.294044	0.605144
C48	C	-0.784996	-0.267133	0.710167
C49	C	-0.937762	-0.139112	0.710136
C50	C	-0.905656	-0.166009	0.605110
C51	C	-0.813215	-0.243476	0.552623
C52	C	-0.965991	-0.115441	0.552589
C53	C	-0.933890	-0.142339	0.447573
C54	C	-0.841453	-0.219805	0.395078
C55	C	-0.781114	-0.270374	0.447606
C56	C	-1.058434	-0.037979	0.605079
C57	C	-1.118769	0.012589	0.552558
C58	C	-1.086666	-0.014304	0.447540
C59	C	-0.994229	-0.091770	0.395045
C60	C	-1.147006	0.036264	0.395012
C61	C	-1.114904	0.009366	0.289996
C62	C	-0.962128	-0.118669	0.290029
H63	H	-0.602944	0.031318	0.068363
C64	C	-1.204455	0.166550	0.000073
N65	N	-1.258751	0.135143	0.000071
H66	H	-1.081000	0.560588	0.000085
C67	C	-0.810776	0.153529	0.000062
N68	N	-0.787312	0.072116	0.000055
C69	C	-1.263928	0.372905	0.000099
N70	N	-1.341688	0.422917	0.000112
C71	C	-0.860415	-0.203849	0.232286
N72	N	-0.783802	-0.267993	0.188794
H73	H	-0.735856	-0.308319	0.752924
H74	H	-1.194038	0.075662	0.595306
C75	C	-1.030123	0.622796	0.000093
N76	N	-1.107880	0.672803	0.000094
C77	C	-0.275308	-0.306841	-0.101128
N78	N	-0.217760	-0.384918	-0.105553
H79	H	-0.354034	-0.232506	0.095103
H80	H	-0.815319	-0.241708	0.309567
C81	C	-1.226712	0.509072	0.000098
N82	N	-1.304470	0.559078	0.000099
H83	H	-1.084569	-0.016084	0.690590
H84	H	-1.164036	0.050543	0.247233
H85	H	-0.714154	0.564816	0.000088
H86	H	-0.896564	0.136662	0.000058
C87	C	-1.248690	0.121473	0.452763
N88	N	-1.325280	0.185654	0.496261
C89	C	-0.651167	-0.379224	0.547401
N90	N	-0.574554	-0.443368	0.503909
C91	C	-0.679401	-0.355555	0.389864
N92	N	-0.602788	-0.419699	0.346372
H93	H	-0.417620	-0.000561	-0.067490
C94	C	-0.424570	-0.086252	0.192012
N95	N	-0.436543	-0.033159	0.265485
C96	C	-0.465576	0.055110	0.092750
N97	N	-0.480682	0.114808	0.162269
H98	H	-0.437307	-0.283396	-0.098736
H99	H	-0.566129	-0.101252	0.166188
H100	H	-0.560700	-0.003416	-0.068340
H101	H	-1.013030	-0.076039	0.752883
H102	H	-0.322912	-0.184370	-0.166484
H103	H	-0.699968	0.250385	0.000052
C104	C	-0.635941	0.369299	0.000060
N105	N	-0.558182	0.319296	0.000057
H106	H	-0.499987	-0.231081	0.101465
C107	C	-0.471142	-0.182605	-0.190982
N108	N	-0.488886	-0.165164	-0.263126
