data_functionalizedCrystal
_audit_creation_method	'MofGen! by Chris Wilmer'
_symmetry_space_group_name_H-M	'P1'
_symmetry_Int_Tables_number	1
_symmetry_cell_setting	triclinic
loop_
_symmetry_equiv_pos_as_xyz
  x,y,z
_cell_length_a	16.109302
_cell_length_b	16.176319
_cell_length_c	16.109298
_cell_angle_alpha	90.001949
_cell_angle_beta	96.539015
_cell_angle_gamma	90.007924
loop_
_atom_site_label
_atom_site_type_symbol
_atom_site_fract_x
_atom_site_fract_y
_atom_site_fract_z
O1	O	1.103132	0.068774	-0.106868
O2	O	1.353132	0.318774	0.143132
O3	O	1.603132	0.568774	0.393132
O4	O	1.853132	0.818774	0.643132
O5	O	0.861070	0.068766	-0.120167
O6	O	1.111070	0.318766	0.129833
O7	O	1.361070	0.568766	0.379833
O8	O	1.611070	0.818766	0.629833
O9	O	0.988752	0.068776	0.007513
O10	O	1.238752	0.318776	0.257513
O11	O	1.488752	0.568776	0.507513
O12	O	1.738752	0.818776	0.757513
O13	O	0.975450	0.068764	-0.234549
O14	O	1.225450	0.318764	0.015451
O15	O	1.475450	0.568764	0.265451
O16	O	1.725450	0.818764	0.515451
O17	O	0.988737	-0.068717	0.007514
O18	O	1.238737	0.181283	0.257514
O19	O	1.488737	0.431283	0.507514
O20	O	1.738737	0.681283	0.757514
O21	O	0.861055	-0.068727	-0.120167
O22	O	1.111055	0.181273	0.129833
O23	O	1.361055	0.431273	0.379833
O24	O	1.611055	0.681273	0.629833
O25	O	1.103117	-0.068720	-0.106868
O26	O	1.353117	0.181280	0.143132
O27	O	1.603117	0.431280	0.393132
O28	O	1.853117	0.681280	0.643132
Cu29	Cu	0.982085	-0.081278	-0.113517
Cu30	Cu	1.232085	0.168722	0.136483
Cu31	Cu	1.482085	0.418722	0.386483
Cu32	Cu	1.732085	0.668722	0.636483
Cu33	Cu	0.982103	0.081324	-0.113518
Cu34	Cu	1.232103	0.331324	0.136482
Cu35	Cu	1.482103	0.581324	0.386482
Cu36	Cu	1.732103	0.831324	0.636482
O37	O	0.975435	-0.068730	-0.234549
O38	O	1.225435	0.181270	0.015451
O39	O	1.475435	0.431270	0.265451
O40	O	1.725435	0.681270	0.515451
C41	C	0.830088	0.000018	-0.119628
C42	C	1.080088	0.250018	0.130372
C43	C	1.330088	0.500018	0.380372
C44	C	1.580088	0.750018	0.630372
C45	C	0.737793	0.000016	-0.118013
C46	C	0.987793	0.250016	0.131987
C47	C	1.237793	0.500016	0.381987
C48	C	1.487793	0.750016	0.631987
N49	N	0.982078	-0.195643	-0.113517
N50	N	1.232078	0.054357	0.136483
N51	N	1.482078	0.304357	0.386483
N52	N	1.732078	0.554357	0.636483
C53	C	0.525444	-0.074923	-0.114277
C54	C	0.775444	0.175077	0.135723
C55	C	1.025444	0.425077	0.385723
C56	C	1.275444	0.675077	0.635723
C57	C	0.438724	-0.074920	-0.112751
C58	C	0.688724	0.175080	0.137249
C59	C	0.938724	0.425080	0.387249
C60	C	1.188724	0.675080	0.637249
C61	C	0.438750	0.074982	-0.112755
C62	C	0.688750	0.324982	0.137245
C63	C	0.938750	0.574982	0.387245
C64	C	1.188750	0.824982	0.637245
C65	C	0.525470	0.074979	-0.114276
C66	C	0.775470	0.324979	0.135724
C67	C	1.025470	0.574979	0.385724
C68	C	1.275470	0.824979	0.635724
C69	C	0.568813	0.000023	-0.115041
C70	C	0.818813	0.250023	0.134959
C71	C	1.068813	0.500023	0.384959
C72	C	1.318813	0.750023	0.634959
C73	C	0.395374	0.000030	-0.111994
C74	C	0.645374	0.250030	0.138006
C75	C	0.895374	0.500030	0.388006
C76	C	1.145374	0.750030	0.638006
C77	C	0.301348	0.000034	-0.110338
C78	C	0.551348	0.250034	0.139662
C79	C	0.801348	0.500034	0.389662
C80	C	1.051348	0.750034	0.639662
C81	C	0.662845	0.000019	-0.116695
C82	C	0.912845	0.250019	0.133305
C83	C	1.162845	0.500019	0.383305
C84	C	1.412845	0.750019	0.633305
C85	C	1.032484	-0.238904	-0.163960
C86	C	1.282484	0.011096	0.086040
C87	C	1.532484	0.261096	0.336040
C88	C	1.782484	0.511096	0.586040
C89	C	1.032493	-0.325452	-0.163957
C90	C	1.282493	-0.075452	0.086043
C91	C	1.532493	0.174548	0.336043
C92	C	1.782493	0.424548	0.586043
C93	C	0.982091	-0.368735	-0.113514
C94	C	1.232091	-0.118735	0.136486
C95	C	1.482091	0.131265	0.386486
C96	C	1.732091	0.381265	0.636486
C97	C	0.931684	-0.325468	-0.063065
C98	C	1.181684	-0.075468	0.186935
C99	C	1.431684	0.174532	0.436935
C100	C	1.681684	0.424532	0.686935
C101	C	0.931680	-0.238922	-0.063064
C102	C	1.181680	0.011078	0.186936
C103	C	1.431680	0.261078	0.436936
C104	C	1.681680	0.511078	0.686936
C105	C	0.931699	-0.674496	-0.063066
C106	C	1.181699	-0.424496	0.186934
C107	C	1.431699	-0.174496	0.436934
C108	C	1.681699	0.075504	0.686934
C109	C	0.931705	-0.761048	-0.063072
C110	C	1.181705	-0.511048	0.186928
C111	C	1.431705	-0.261048	0.436928
C112	C	1.681705	-0.011048	0.686928
C113	C	1.032512	-0.761025	-0.163959
C114	C	1.282512	-0.511025	0.086041
C115	C	1.532512	-0.261025	0.336041
C116	C	1.782512	-0.011025	0.586041
C117	C	1.032508	-0.674480	-0.163958
C118	C	1.282508	-0.424480	0.086042
C119	C	1.532508	-0.174480	0.336042
C120	C	1.782508	0.075520	0.586042
C121	C	0.982104	-0.631220	-0.113506
C122	C	1.232104	-0.381220	0.136494
C123	C	1.482104	-0.131220	0.386494
C124	C	1.732104	0.118780	0.636494
C125	C	0.982097	-0.537376	-0.113509
C126	C	1.232097	-0.287376	0.136491
C127	C	1.482097	-0.037376	0.386491
C128	C	1.732097	0.212624	0.636491
C129	C	0.982094	-0.462578	-0.113515
C130	C	1.232094	-0.212578	0.136485
C131	C	1.482094	0.037422	0.386485
C132	C	1.732094	0.287422	0.636485
C133	C	1.134100	0.000030	-0.107407
C134	C	1.384100	0.250030	0.142593
C135	C	1.634100	0.500030	0.392593
C136	C	1.884100	0.750030	0.642593
C137	C	1.226395	0.000038	-0.109022
C138	C	1.476395	0.250038	0.140978
C139	C	1.726395	0.500038	0.390978
C140	C	1.976395	0.750038	0.640978
C141	C	0.988206	0.000033	0.038489
C142	C	1.238206	0.250033	0.288489
C143	C	1.488206	0.500033	0.538489
C144	C	1.738206	0.750033	0.788489
C145	C	0.986592	0.000042	0.130784
C146	C	1.236592	0.250042	0.380784
C147	C	1.486592	0.500042	0.630784
C148	C	1.736592	0.750042	0.880784
N149	N	0.982116	0.195689	-0.113512
N150	N	1.232116	0.445689	0.136488
N151	N	1.482116	0.695689	0.386488
N152	N	1.732116	0.945689	0.636488
C153	C	0.975981	0.000016	-0.265524
C154	C	1.225981	0.250016	-0.015524
C155	C	1.475981	0.500016	0.234476
C156	C	1.725981	0.750016	0.484476
C157	C	0.977595	0.000011	-0.357819
C158	C	1.227595	0.250011	-0.107819
C159	C	1.477595	0.500011	0.142181
C160	C	1.727595	0.750011	0.392181
C161	C	0.981333	0.074972	0.429853
C162	C	1.231333	0.324972	0.679853
C163	C	1.481333	0.574972	0.929853
C164	C	1.731333	0.824972	1.179853
C165	C	0.982861	0.074978	0.343133
C166	C	1.232861	0.324978	0.593133
C167	C	1.482861	0.574978	0.843133
C168	C	1.732861	0.824978	1.093133
C169	C	0.982857	-0.074924	0.343119
C170	C	1.232857	0.175076	0.593119
C171	C	1.482857	0.425076	0.843119
C172	C	1.732857	0.675076	1.093119
C173	C	0.981335	-0.074930	0.429838
C174	C	1.231335	0.175070	0.679838
C175	C	1.481335	0.425070	0.929838
C176	C	1.731335	0.675070	1.179838
C177	C	0.980569	0.000021	0.473202
C178	C	1.230569	0.250021	0.723202
C179	C	1.480569	0.500021	0.973202
C180	C	1.730569	0.750021	1.223202
C181	C	0.983619	0.000032	0.299763
C182	C	1.233619	0.250032	0.549763
C183	C	1.483619	0.500032	0.799763
C184	C	1.733619	0.750032	1.049763
C185	C	0.985275	0.000038	0.205737
C186	C	1.235275	0.250038	0.455737
C187	C	1.485275	0.500038	0.705737
C188	C	1.735275	0.750038	0.955737
C189	C	0.978914	0.000016	0.567234
C190	C	1.228914	0.250016	0.817234
C191	C	1.478914	0.500016	1.067234
C192	C	1.728914	0.750016	1.317234
H193	H	0.560732	-0.135957	-0.114901
H194	H	0.810732	0.114043	0.135099
H195	H	1.060732	0.364043	0.385099
H196	H	1.310732	0.614043	0.635099
H197	H	0.403449	0.136008	-0.112133
H198	H	0.653449	0.386008	0.137867
H199	H	0.903449	0.636008	0.387867
H200	H	1.153449	0.886008	0.637867
H201	H	0.403416	-0.135949	-0.112129
H202	H	0.653416	0.114051	0.137871
H203	H	0.903416	0.364051	0.387871
H204	H	1.153416	0.614051	0.637871
H205	H	0.890650	-0.360716	-0.021989
H206	H	1.140650	-0.110716	0.228011
H207	H	1.390650	0.139284	0.478011
H208	H	1.640650	0.389284	0.728011
H209	H	0.980715	-0.135967	0.465134
H210	H	1.230715	0.114033	0.715134
H211	H	1.480715	0.364033	0.965134
H212	H	1.730715	0.614033	1.215134
H213	H	0.560783	0.136013	-0.114896
H214	H	0.810783	0.386013	0.135104
H215	H	1.060783	0.636013	0.385104
H216	H	1.310783	0.886013	0.635104
F217	F	1.086127	-0.192846	-0.217651
F218	F	1.336127	0.057154	0.032349
F219	F	1.586127	0.307154	0.282349
F220	F	1.836127	0.557154	0.532349
H221	H	1.073540	-0.360671	-0.205031
H222	H	1.323540	-0.110671	0.044969
H223	H	1.573540	0.139329	0.294969
H224	H	1.823540	0.389329	0.544969
H225	H	1.073556	-0.796258	-0.205037
H226	H	1.323556	-0.546258	0.044963
H227	H	1.573556	-0.296258	0.294963
H228	H	1.823556	-0.046258	0.544963
H229	H	0.983485	0.136011	0.307842
H230	H	1.233485	0.386011	0.557842
H231	H	1.483485	0.636011	0.807842
H232	H	1.733485	0.886011	1.057842
H233	H	0.890660	-0.796287	-0.021993
H234	H	1.140660	-0.546287	0.228007
H235	H	1.390660	-0.296287	0.478007
H236	H	1.640660	-0.046287	0.728007
F237	F	1.086143	-0.628418	-0.217655
F238	F	1.336143	-0.378418	0.032345
F239	F	1.586143	-0.128418	0.282345
F240	F	1.836143	0.121582	0.532345
H241	H	0.890658	-0.639284	-0.021984
H242	H	1.140658	-0.389284	0.228016
H243	H	1.390658	-0.139284	0.478016
H244	H	1.640658	0.110716	0.728016
F245	F	0.878038	-0.192881	-0.009369
F246	F	1.128038	0.057119	0.240631
F247	F	1.378038	0.307119	0.490631
F248	F	1.628038	0.557119	0.740631
H249	H	0.983479	-0.135947	0.307801
H250	H	1.233479	0.114053	0.557801
H251	H	1.483479	0.364053	0.807801
H252	H	1.733479	0.614053	1.057801
F253	F	0.980521	0.154741	0.476001
F254	F	1.230521	0.404741	0.726001
F255	F	1.480521	0.654741	0.976001
F256	F	1.730521	0.904741	1.226001
