data_functionalizedCrystal
_audit_creation_method	'MofGen! by Chris Wilmer'
_symmetry_space_group_name_H-M	'P1'
_symmetry_Int_Tables_number	1
_symmetry_cell_setting	triclinic
loop_
_symmetry_equiv_pos_as_xyz
  x,y,z
_cell_length_a	27.440280
_cell_length_b	14.395555
_cell_length_c	14.395555
_cell_angle_alpha	60.000749
_cell_angle_beta	90.004690
_cell_angle_gamma	60.000070
loop_
_atom_site_label
_atom_site_type_symbol
_atom_site_fract_x
_atom_site_fract_y
_atom_site_fract_z
Zr1	Zr	0.469518	1.016682	-0.121806
O2	O	0.391703	1.210488	-0.270151
O3	O	0.493370	0.822882	-0.076328
O4	O	0.493374	1.016670	-0.270124
O5	O	0.391698	1.016708	0.076512
O6	O	0.573577	1.016652	-0.270105
O7	O	0.391699	1.016701	-0.076355
O8	O	0.573570	0.670002	0.076560
O9	O	0.391705	1.363358	-0.270154
O10	O	0.563400	0.902579	-0.056921
O11	O	0.503545	0.902597	0.057148
O12	O	0.503550	1.130757	-0.171021
O13	O	0.443695	1.130775	-0.056953
Zr14	Zr	0.597431	1.016664	0.122030
Zr15	Zr	0.597432	1.016653	-0.121775
Zr16	Zr	0.469517	1.016693	0.122000
Zr17	Zr	0.469522	1.260491	-0.121810
Zr18	Zr	0.597427	0.772855	0.122034
O19	O	0.573579	1.210463	0.076552
O20	O	0.573580	1.210447	-0.270108
O21	O	0.391701	1.210504	0.076509
O22	O	0.675247	0.822857	0.270375
O23	O	0.675248	0.822842	-0.076285
O24	O	0.493369	0.822898	0.270332
O25	O	0.675251	1.016638	-0.076288
O26	O	0.573575	1.016676	0.270348
O27	O	0.493372	1.016694	0.270329
O28	O	0.675250	1.016645	0.076579
O29	O	0.493380	1.363335	-0.270129
O30	O	0.573569	0.670011	0.270353
O31	O	0.675244	0.669988	0.270378
O32	O	0.675245	0.669979	0.076585
O33	O	0.391704	1.363366	-0.076361
O34	O	0.493379	1.363344	-0.076336
O35	O	0.563399	0.902589	0.171246
O36	O	0.623254	0.902570	0.057177
O37	O	0.563404	1.130748	-0.056924
O38	O	0.503549	1.130767	0.057145
C39	C	0.533470	0.711705	0.000117
C40	C	0.533468	0.608201	0.000118
C41	C	0.500834	0.547619	0.062317
C42	C	0.477183	0.561876	-0.044963
C43	C	0.557105	0.409548	0.107366
C44	C	0.509784	0.623884	-0.107226
C45	C	0.589737	0.471494	0.045181
C46	C	0.566100	0.485798	-0.062163
C47	C	0.373473	1.016709	0.000074
C48	C	0.319170	1.016721	0.000061
C49	C	0.013714	0.897545	0.059703
C50	C	-0.037304	0.897537	0.059713
O51	O	-0.037123	0.796242	0.110401
N52	N	-0.094062	1.016643	0.000152
C53	C	-0.099801	1.135763	-0.059413
O54	O	-0.152763	1.237070	-0.110072
C55	C	-0.048783	1.135769	-0.059415
C56	C	0.007974	1.016656	0.000140
C57	C	0.070469	0.778441	0.119254
C58	C	0.121484	0.778449	0.119242
C59	C	0.115744	0.897560	0.059679
C60	C	0.058989	1.016663	0.000127
C61	C	-0.054523	1.254887	-0.118973
C62	C	-0.003499	1.254883	-0.118970
C63	C	0.053259	1.135770	-0.059415
C64	C	0.104264	1.135782	-0.059448
N65	N	0.161022	1.016677	0.000113
C66	C	0.166762	0.897566	0.059676
C67	C	-0.206940	1.135741	-0.059401
C68	C	-0.257957	1.135737	-0.059405
C69	C	-0.195457	0.897511	0.059722
C70	C	-0.144439	0.897517	0.059720
C71	C	-0.150182	1.016636	0.000160
C72	C	0.273894	0.897591	0.059645
C73	C	0.324911	0.897610	0.059624
C74	C	0.262406	1.135835	-0.059498
C75	C	0.211393	1.135817	-0.059482
C76	C	0.217142	1.016685	0.000098
O77	O	0.104128	1.237026	-0.110106
O78	O	0.219725	0.796276	0.110339
C79	C	0.693476	1.016637	0.000150
C80	C	0.747779	1.016625	0.000163
C81	C	0.533476	1.016659	-0.304852
C82	C	0.533476	1.016654	-0.408353
C83	C	0.533479	1.321641	0.000107
C84	C	0.533481	1.425144	0.000106
C85	C	0.566112	0.892242	-0.406729
C86	C	0.509833	0.954445	-0.499765
C87	C	0.589742	0.954456	-0.499746
C88	C	0.477163	1.078858	-0.500026
C89	C	0.557113	1.078852	-0.499992
C90	C	0.500800	1.141146	-0.593046
C91	C	0.533473	1.016687	0.305076
C92	C	0.533473	1.016691	0.408577
C93	C	0.693471	0.711669	0.000155
C94	C	0.747772	0.608153	0.000169
C95	C	0.533469	0.711718	0.305080
C96	C	0.533467	0.608220	0.408584
C97	C	0.693470	0.711683	0.305118
C98	C	0.747771	0.608172	0.408635
C99	C	0.373479	1.321663	-0.304894
C100	C	0.319179	1.425174	-0.408411
C101	C	0.373478	1.321677	0.000069
C102	C	0.319177	1.425192	0.000055
C103	C	0.533481	1.321627	-0.304856
C104	C	0.533483	1.425126	-0.408360
C105	C	0.742029	0.559546	-0.059392
C106	C	0.793046	0.462295	-0.059401
C107	C	0.849805	0.413648	0.000158
C108	C	0.855547	0.462265	0.059721
C109	C	0.804531	0.559520	0.059723
C110	C	0.804520	0.559552	0.397704
C111	C	0.855546	0.462306	0.494960
C112	C	0.849822	0.413675	0.603144
C113	C	0.793067	0.462304	0.614072
C114	C	0.742042	0.559555	0.516818
C115	C	0.262429	1.473805	-0.397480
C116	C	0.211403	1.571081	-0.494736
C117	C	0.217127	1.619718	-0.602920
C118	C	0.273882	1.571082	-0.613848
C119	C	0.324907	1.473815	-0.516594
C120	C	0.324920	1.473810	0.059606
C121	C	0.273903	1.571087	0.059588
C122	C	0.217144	1.619738	0.000025
C123	C	0.211402	1.571116	-0.059533
C124	C	0.262418	1.473848	-0.059521
C125	C	0.500829	0.547642	0.406962
C126	C	0.557109	0.409532	0.499996
C127	C	0.477202	0.561883	0.499982
C128	C	0.589780	0.471410	0.500254
C129	C	0.509832	0.623835	0.500225
C130	C	0.566146	0.485734	0.593276
H131	H	0.429602	0.599070	-0.083089
H132	H	0.637307	0.434319	0.083333
H133	H	0.371125	0.800609	0.108125
H134	H	0.637329	0.901848	-0.500632
H135	H	0.278589	1.610659	0.108092
H136	H	0.371131	1.434206	0.108116
H137	H	0.891375	0.334487	0.682326
H138	H	-0.304168	1.232731	-0.107916
H139	H	0.809215	0.599084	0.108231
H140	H	0.257734	1.434266	-0.108012
H141	H	0.278583	0.800582	0.108162
N142	N	0.279735	1.620735	-0.724351
N143	N	0.330405	1.577302	-0.734111
H144	H	0.334538	1.612363	-0.812156
H145	H	0.489743	0.715451	-0.197972
H146	H	-0.008182	1.351887	-0.167457
N147	N	0.582170	0.294634	0.221153
N148	N	0.558323	0.300912	0.293701
H149	H	0.576021	0.219760	0.374064
N150	N	0.913522	0.412562	0.120580
N151	N	0.918650	0.455955	0.173769
H152	H	0.959596	0.420845	0.216758
N153	N	0.810387	0.609194	0.287213
N154	N	0.861065	0.565760	0.277491
H155	H	0.865214	0.600816	0.199459
N156	N	0.600717	0.451998	-0.128253
N157	N	0.586185	0.537511	-0.231482
H158	H	0.610631	0.513644	-0.278162
H159	H	0.175574	1.698919	-0.682102
N160	N	0.179452	0.656765	0.180087
N161	N	0.184558	0.550435	0.233264
H162	H	0.225496	0.464487	0.276243
N163	N	0.382870	1.424157	-0.527789
N164	N	0.387966	1.467601	-0.624394
H165	H	0.428901	1.432537	-0.632310
N166	N	0.076351	0.656750	0.180114
N167	N	0.127036	0.550428	0.233278
H168	H	0.131196	0.464473	0.276260
H169	H	0.429620	0.599067	0.500885
N170	N	0.582198	0.294566	0.501206
N171	N	0.627947	0.187878	0.581057
H172	H	0.645663	0.106685	0.581909
H173	H	-0.190791	0.800524	0.108218
N174	N	0.466261	0.581610	0.306906
N175	N	0.480818	0.496209	0.289033
H176	H	0.456407	0.520194	0.218369
H177	H	0.473161	1.246434	-0.672682
H178	H	0.901754	0.422722	0.486042
H179	H	0.788415	0.422694	0.702169
H180	H	0.695836	0.599128	0.525734
H181	H	0.593665	0.787042	-0.326961
H182	H	0.165178	1.232809	-0.107992
H183	H	0.257757	1.434211	-0.309400
N184	N	0.153439	1.620734	-0.483537
N185	N	0.148342	1.577280	-0.386933
H186	H	0.107406	1.612344	-0.379019
N187	N	0.582202	1.144773	-0.498767
N188	N	0.558916	1.262216	-0.578420
H189	H	0.576639	1.308767	-0.577550
N190	N	-0.086470	0.775835	0.120554
N191	N	-0.081361	0.669501	0.173720
H192	H	-0.040421	0.583557	0.216688
N193	N	0.165035	1.719110	0.000005
N194	N	0.156222	1.827634	-0.038532
H195	H	0.119421	1.897816	-0.038543
H196	H	0.165182	1.610743	-0.108027
N197	N	0.787163	0.412661	-0.120251
N198	N	0.736479	0.456103	-0.173410
H199	H	0.732322	0.421052	-0.216386
N200	N	0.484728	0.738832	0.498962
N201	N	0.481125	0.836917	0.419091
H202	H	0.463388	0.918146	0.418189
N203	N	0.466166	0.581827	0.128184
N204	N	0.460955	0.666706	0.139416
H205	H	0.436469	0.690875	0.185928
H206	H	0.637386	0.434025	0.499441
H207	H	0.891341	0.334455	0.000149
N208	N	0.600825	0.451813	0.693177
N209	N	0.654983	0.406382	0.710905
H210	H	0.679478	0.382416	0.781462
H211	H	-0.211624	1.232749	-0.107907
H212	H	0.257742	1.232812	-0.107997
N213	N	-0.112487	1.376573	-0.179815
N214	N	-0.117591	1.482901	-0.232978
H215	H	-0.158529	1.568850	-0.275951
H216	H	0.489836	0.901871	-0.500701
H217	H	0.429556	1.131409	-0.499217
H218	H	0.695818	0.599153	-0.107906
