data_functionalizedCrystal
_audit_creation_method	'MofGen! by Chris Wilmer'
_symmetry_space_group_name_H-M	'P1'
_symmetry_Int_Tables_number	1
_symmetry_cell_setting	triclinic
loop_
_symmetry_equiv_pos_as_xyz
  x,y,z
_cell_length_a	10.686220
_cell_length_b	21.295417
_cell_length_c	10.685880
_cell_angle_alpha	94.332822
_cell_angle_beta	89.641569
_cell_angle_gamma	94.412682
loop_
_atom_site_label
_atom_site_type_symbol
_atom_site_fract_x
_atom_site_fract_y
_atom_site_fract_z
Zn1	Zn	1.972145	-0.196503	-0.562327
Zn2	Zn	1.955873	-0.294391	-0.352551
Zn3	Zn	1.746274	-0.197786	-0.368649
Zn4	Zn	1.762281	-0.310391	-0.578319
O5	O	1.859143	-0.249768	-0.465462
O6	O	2.145533	-0.202255	-0.521070
O7	O	1.914560	-0.275417	-0.179147
O8	O	1.776347	-0.109524	-0.394385
O9	O	2.133578	-0.274173	-0.366949
O10	O	1.942294	-0.108581	-0.536679
O11	O	1.760569	-0.204442	-0.190974
O12	O	1.572851	-0.219957	-0.409892
O13	O	1.803629	-0.301443	-0.751738
O14	O	1.584611	-0.302687	-0.563936
O15	O	1.957816	-0.217770	-0.739988
O16	O	1.930082	-0.384605	-0.382456
O17	O	1.787851	-0.396361	-0.548327
C18	C	1.533214	-0.263198	-0.490397
C19	C	1.393782	-0.268960	-0.501094
C20	C	1.858974	-0.413324	-0.465405
C21	C	1.859019	-0.483291	-0.465414
C22	C	1.933156	-0.510015	-0.379121
C23	C	1.933217	-0.575756	-0.379145
C24	C	1.859118	-0.614771	-0.465450
C25	C	1.784976	-0.588039	-0.551758
C26	C	1.784927	-0.522299	-0.551740
N27	N	1.750111	-0.722899	-0.483408
N28	N	1.750161	-0.785349	-0.483418
C29	C	1.859264	-0.812842	-0.465511
N30	N	1.968315	-0.775525	-0.447569
N31	N	1.968263	-0.713069	-0.447553
C32	C	1.859163	-0.686055	-0.465479
C33	C	1.933473	-0.910850	-0.379239
C34	C	1.933537	-0.976593	-0.379272
C35	C	1.785284	-0.988874	-0.551879
C36	C	1.785232	-0.923133	-0.551852
C37	C	1.859324	-0.884125	-0.465526
C38	C	2.186346	-0.236286	-0.440429
C39	C	2.325780	-0.230541	-0.429762
C40	C	1.884323	-0.261248	-0.792651
C41	C	1.895053	-0.266141	-0.932079
C42	C	1.859350	-0.085573	-0.465544
C43	C	1.859438	-0.015603	-0.465578
C44	C	1.834134	-0.238284	-0.139540
C45	C	1.823647	-0.233204	-0.000093
H46	H	1.345325	-0.306265	-0.570346
H47	H	1.754294	-0.201265	-0.951657
H48	H	1.993490	-0.478256	-0.308832
H49	H	1.964406	-0.298085	-0.980522
H50	H	1.724554	-0.500540	-0.622011
H51	H	1.374230	-0.193241	-0.360507
O52	O	2.013170	-0.604593	-0.286060
H53	H	2.064675	-0.566424	-0.226024
O54	O	1.705036	-0.630113	-0.644834
H55	H	1.717510	-0.680317	-0.630338
H56	H	1.724957	-1.020639	-0.622155
H57	H	1.993808	-0.879088	-0.308951
O58	O	2.013507	-1.005425	-0.286202
H59	H	1.984469	-0.990278	-0.189369
O60	O	1.705235	-0.894302	-0.644895
H61	H	1.653701	-0.932474	-0.704901
