data_functionalizedCrystal
_audit_creation_method	'MofGen! by Chris Wilmer'
_symmetry_space_group_name_H-M	'P1'
_symmetry_Int_Tables_number	1
_symmetry_cell_setting	triclinic
loop_
_symmetry_equiv_pos_as_xyz
  x,y,z
_cell_length_a	16.120297
_cell_length_b	11.169417
_cell_length_c	11.169416
_cell_angle_alpha	89.988781
_cell_angle_beta	92.878536
_cell_angle_gamma	87.118439
loop_
_atom_site_label
_atom_site_type_symbol
_atom_site_fract_x
_atom_site_fract_y
_atom_site_fract_z
Zn1	Zn	-0.471348	-1.800522	-0.512217
Zn2	Zn	-0.138014	-1.467189	-0.178883
Zn3	Zn	0.195319	-1.133856	0.154450
Zn4	Zn	-0.331950	-1.810597	-0.702744
Zn5	Zn	0.001383	-1.477264	-0.369410
Zn6	Zn	0.334717	-1.143930	-0.036077
Zn7	Zn	-0.331958	-1.609993	-0.502077
Zn8	Zn	0.001375	-1.276660	-0.168744
Zn9	Zn	0.334708	-0.943326	0.164590
Zn10	Zn	-0.471325	-1.599817	-0.712858
Zn11	Zn	-0.137991	-1.266484	-0.379525
Zn12	Zn	0.195342	-0.933151	-0.046191
O13	O	-0.401645	-1.705232	-0.607474
O14	O	-0.068312	-1.371899	-0.274141
O15	O	0.265021	-1.038566	0.059193
O16	O	-0.452862	-1.969808	-0.537501
O17	O	-0.119529	-1.636475	-0.204168
O18	O	0.213804	-1.303141	0.129165
O19	O	-0.215287	-1.792461	-0.667649
O20	O	0.118046	-1.459128	-0.334315
O21	O	0.451379	-1.125795	-0.000982
O22	O	-0.350462	-1.635309	-0.335473
O23	O	-0.017129	-1.301976	-0.002140
O24	O	0.316205	-0.968643	0.331193
O25	O	-0.350447	-1.977210	-0.677481
O26	O	-0.017114	-1.643877	-0.344147
O27	O	0.316219	-1.310543	-0.010814
O28	O	-0.452871	-1.775290	-0.342923
O29	O	-0.119537	-1.441957	-0.009590
O30	O	0.213796	-1.108624	0.323744
O31	O	-0.215294	-1.645078	-0.520220
O32	O	0.118040	-1.311745	-0.186886
O33	O	0.451373	-0.978412	0.146447
O34	O	-0.350440	-1.440694	-0.530027
O35	O	-0.017106	-1.107361	-0.196694
O36	O	0.316227	-0.774027	0.136640
O37	O	-0.587992	-1.617967	-0.694719
O38	O	-0.254658	-1.284633	-0.361385
O39	O	0.078675	-0.951300	-0.028052
O40	O	-0.452832	-1.433218	-0.684887
O41	O	-0.119498	-1.099885	-0.351553
O42	O	0.213835	-0.766551	-0.018220
O43	O	-0.588009	-1.765424	-0.547309
O44	O	-0.254675	-1.432090	-0.213975
O45	O	0.078658	-1.098757	0.119358
O46	O	-0.350425	-1.782595	-0.872034
O47	O	-0.017092	-1.449261	-0.538701
O48	O	0.316242	-1.115928	-0.205368
O49	O	-0.452823	-1.627736	-0.879465
O50	O	-0.119490	-1.294402	-0.546132
O51	O	0.213843	-0.961069	-0.212798
C52	C	-0.401639	-1.705185	-0.919298
C53	C	-0.068306	-1.371852	-0.585965
C54	C	0.265028	-1.038519	-0.252631
C55	C	-0.401664	-1.705273	-1.052700
C56	C	-0.068331	-1.371940	-0.719367
C57	C	0.265003	-1.038606	-0.386033
C58	C	-0.401635	-1.393409	-0.607455
C59	C	-0.068301	-1.060075	-0.274122
C60	C	0.265032	-0.726742	0.059212
C61	C	-0.401650	-1.260007	-0.607477
C62	C	-0.068316	-0.926674	-0.274144
C63	C	0.265017	-0.593341	0.059190
C64	C	-0.619095	-1.689436	-0.623273
C65	C	-0.285762	-1.356103	-0.289940
C66	C	0.047571	-1.022769	0.043394
C67	C	-0.711760	-1.682705	-0.630005
C68	C	-0.378426	-1.349371	-0.296672
C69	C	-0.045093	-1.016038	0.036661
C70	C	-0.881419	-1.670371	-0.642271
C71	C	-0.548085	-1.337037	-0.308937
C72	C	-0.214752	-1.003704	0.024396
C73	C	-0.922724	-1.740331	-0.572317
C74	C	-0.589390	-1.406997	-0.238984
C75	C	-0.256057	-1.073664	0.094349
C76	C	-1.017128	-1.733468	-0.579142
C77	C	-0.683794	-1.400135	-0.245809
C78	C	-0.350461	-1.066801	0.087525
C79	C	-0.787006	-1.677232	-0.635448
C80	C	-0.453673	-1.343899	-0.302115
C81	C	-0.120339	-1.010565	0.031219
C82	C	-0.185041	-1.721036	-0.591650
C83	C	0.148292	-1.387703	-0.258316
C84	C	0.481626	-1.054370	0.075017
C85	C	-0.092377	-1.728000	-0.584579
C86	C	0.240956	-1.394667	-0.251246
C87	C	0.574290	-1.061334	0.082088
C88	C	-0.401657	-2.018274	-0.607494
C89	C	-0.068323	-1.684941	-0.274161
C90	C	0.265010	-1.351607	0.059173
C91	C	-0.401661	-2.151674	-0.607502
C92	C	-0.068328	-1.818340	-0.274169
C93	C	0.265005	-1.485007	0.059164
C94	C	-0.401670	-1.705311	-0.294433
C95	C	-0.068337	-1.371978	0.038900
C96	C	0.264997	-1.038644	0.372233
C97	C	-0.401680	-1.705345	-0.161034
C98	C	-0.068347	-1.372011	0.172299
C99	C	0.264986	-1.038678	0.505633
H100	H	-0.916954	-1.605328	-0.707281
H101	H	-0.583620	-1.271995	-0.373948
H102	H	-0.250287	-0.938662	-0.040614
C103	C	-0.931259	-1.891517	-0.421194
C104	C	-0.597925	-1.558183	-0.087861
C105	C	-0.264592	-1.224850	0.245473
C106	C	-0.874757	-1.828154	-0.484554
C107	C	-0.541424	-1.494820	-0.151220
C108	C	-0.208090	-1.161487	0.182113
H109	H	-0.901642	-1.945729	-0.367013
H110	H	-0.568309	-1.612395	-0.033680
H111	H	-0.234975	-1.279062	0.299654
H112	H	-0.965230	-1.934982	-0.475898
H113	H	-0.631896	-1.601648	-0.142565
H114	H	-0.298563	-1.268315	0.190768
H115	H	-0.965215	-1.836809	-0.377684
H116	H	-0.631881	-1.503475	-0.044351
H117	H	-0.298548	-1.170142	0.288983
H118	H	-0.840805	-1.882861	-0.528071
H119	H	-0.507472	-1.549528	-0.194738
H120	H	-0.174139	-1.216195	0.138596
H121	H	-0.840772	-1.784686	-0.429842
H122	H	-0.507439	-1.451353	-0.096508
H123	H	-0.174105	-1.118020	0.236825
