data_functionalizedCrystal
_audit_creation_method	'MofGen! by Chris Wilmer'
_symmetry_space_group_name_H-M	'P1'
_symmetry_Int_Tables_number	1
_symmetry_cell_setting	triclinic
loop_
_symmetry_equiv_pos_as_xyz
  x,y,z
_cell_length_a	13.897449
_cell_length_b	16.120444
_cell_length_c	13.897441
_cell_angle_alpha	87.133622
_cell_angle_beta	90.023394
_cell_angle_gamma	92.927498
loop_
_atom_site_label
_atom_site_type_symbol
_atom_site_fract_x
_atom_site_fract_y
_atom_site_fract_z
Zn1	Zn	1.455175	-0.331863	0.564897
Zn2	Zn	1.705175	-0.081863	0.814897
Zn3	Zn	1.955175	0.168137	1.064897
Zn4	Zn	2.205175	0.418137	1.314897
Zn5	Zn	1.446864	-0.471295	0.411769
Zn6	Zn	1.696864	-0.221295	0.661769
Zn7	Zn	1.946864	0.028705	0.911769
Zn8	Zn	2.196864	0.278705	1.161769
Zn9	Zn	1.293861	-0.331902	0.403610
Zn10	Zn	1.543861	-0.081902	0.653610
Zn11	Zn	1.793861	0.168098	0.903610
Zn12	Zn	2.043861	0.418098	1.153610
Zn13	Zn	1.285644	-0.471239	0.573011
Zn14	Zn	1.535644	-0.221239	0.823011
Zn15	Zn	1.785644	0.028761	1.073011
Zn16	Zn	2.035644	0.278761	1.323011
O17	O	1.370386	-0.401575	0.488322
O18	O	1.620386	-0.151575	0.738322
O19	O	1.870386	0.098425	0.988322
O20	O	2.120386	0.348425	1.238322
O21	O	1.589053	-0.350366	0.544603
O22	O	1.839053	-0.100366	0.794603
O23	O	2.089053	0.149634	1.044603
O24	O	2.339053	0.399634	1.294603
O25	O	1.426529	-0.452844	0.275707
O26	O	1.676529	-0.202844	0.525707
O27	O	1.926529	0.047156	0.775707
O28	O	2.176529	0.297156	1.025707
O29	O	1.322177	-0.215231	0.418195
O30	O	1.572177	0.034769	0.668195
O31	O	1.822177	0.284769	0.918195
O32	O	2.072177	0.534769	1.168195
O33	O	1.582947	-0.452806	0.432100
O34	O	1.832947	-0.202806	0.682100
O35	O	2.082947	0.047194	0.932100
O36	O	2.332947	0.297194	1.182100
O37	O	1.440693	-0.215202	0.536691
O38	O	1.690693	0.034798	0.786691
O39	O	1.940693	0.284798	1.036691
O40	O	2.190693	0.534798	1.286691
O41	O	1.314119	-0.350432	0.269713
O42	O	1.564119	-0.100432	0.519713
O43	O	1.814119	0.149568	0.769713
O44	O	2.064119	0.399568	1.019713
O45	O	1.157790	-0.350378	0.426062
O46	O	1.407790	-0.100378	0.676062
O47	O	1.657790	0.149622	0.926062
O48	O	1.907790	0.399622	1.176062
O49	O	1.308172	-0.452711	0.706914
O50	O	1.558172	-0.202711	0.956914
O51	O	1.808172	0.047289	1.206914
O52	O	2.058172	0.297289	1.456914
O53	O	1.151753	-0.452749	0.550520
O54	O	1.401753	-0.202749	0.800520
O55	O	1.651753	0.047251	1.050520
O56	O	1.901753	0.297251	1.300520
O57	O	1.432725	-0.350312	0.700952
O58	O	1.682725	-0.100312	0.950952
O59	O	1.932725	0.149688	1.200952
O60	O	2.182725	0.399688	1.450952
O61	O	1.418561	-0.587954	0.439968
O62	O	1.668561	-0.337954	0.689968
O63	O	1.918561	-0.087954	0.939968
O64	O	2.168561	0.162046	1.189968
O65	O	1.300113	-0.587913	0.558432
O66	O	1.550113	-0.337913	0.808432
O67	O	1.800113	-0.087913	1.058432
O68	O	2.050113	0.162087	1.308432
C69	C	1.119772	-0.401562	0.488287
C70	C	1.369772	-0.151562	0.738287
C71	C	1.619772	0.098438	0.988287
C72	C	1.869772	0.348438	1.238287
C73	C	1.012558	-0.401577	0.488296
C74	C	1.262558	-0.151577	0.738296
C75	C	1.512558	0.098423	0.988296
C76	C	1.762558	0.348423	1.238296
C77	C	0.925488	-0.401579	0.488313
C78	C	1.175488	-0.151579	0.738313
C79	C	1.425488	0.098421	0.988313
C80	C	1.675488	0.348421	1.238313
C81	C	0.816255	-0.401585	0.488342
C82	C	1.066255	-0.151585	0.738342
C83	C	1.316255	0.098415	0.988342
C84	C	1.566255	0.348415	1.238342
C85	C	1.357570	-0.618183	0.500987
C86	C	1.607570	-0.368183	0.750987
C87	C	1.857570	-0.118183	1.000987
C88	C	2.107570	0.131817	1.250987
C89	C	1.352175	-0.710850	0.506437
C90	C	1.602175	-0.460850	0.756437
C91	C	1.852175	-0.210850	1.006437
C92	C	2.102175	0.039150	1.256437
C93	C	1.398607	-0.921792	0.460254
C94	C	1.648607	-0.671792	0.710254
C95	C	1.898607	-0.421792	0.960254
C96	C	2.148607	-0.171792	1.210254
C97	C	1.342343	-0.880506	0.516399
C98	C	1.592343	-0.630506	0.766399
C99	C	1.842343	-0.380506	1.016399
C100	C	2.092343	-0.130506	1.266399
C101	C	1.347815	-0.786100	0.510855
C102	C	1.597815	-0.536100	0.760855
C103	C	1.847815	-0.286100	1.010855
C104	C	2.097815	-0.036100	1.260855
C105	C	1.393137	-1.016206	0.465797
C106	C	1.643137	-0.766206	0.715797
C107	C	1.893137	-0.516206	0.965797
C108	C	2.143137	-0.266206	1.215797
C109	C	1.621978	-0.401588	0.488357
C110	C	1.871978	-0.151588	0.738357
C111	C	2.121978	0.098412	0.988357
C112	C	2.371978	0.348412	1.238357
C113	C	1.729192	-0.401594	0.488372
C114	C	1.979192	-0.151594	0.738372
C115	C	2.229192	0.098406	0.988372
C116	C	2.479192	0.348406	1.238372
C117	C	1.370459	-0.401501	0.739910
C118	C	1.620459	-0.151501	0.989910
C119	C	1.870459	0.098499	1.239910
C120	C	2.120459	0.348499	1.489910
C121	C	1.370490	-0.401470	0.847122
C122	C	1.620490	-0.151470	1.097122
C123	C	1.870490	0.098530	1.347122
C124	C	2.120490	0.348530	1.597122
C125	C	1.383279	-0.184120	0.475628
C126	C	1.633279	0.065880	0.725628
C127	C	1.883279	0.315880	0.975628
C128	C	2.133279	0.565880	1.225628
C129	C	1.388773	-0.091454	0.470219
C130	C	1.638773	0.158546	0.720219
C131	C	1.888773	0.408546	0.970219
C132	C	2.138773	0.658546	1.220219
C133	C	1.370373	-0.401588	0.237708
C134	C	1.620373	-0.151588	0.487708
C135	C	1.870373	0.098412	0.737708
C136	C	2.120373	0.348412	0.987708
C137	C	1.370542	-0.401385	0.130483
C138	C	1.620542	-0.151385	0.380483
C139	C	1.870542	0.098615	0.630483
C140	C	2.120542	0.348615	0.880483
C141	C	1.370519	-0.401413	1.043414
C142	C	1.620519	-0.151413	1.293414
C143	C	1.870519	0.098587	1.543414
C144	C	2.120519	0.348587	1.793414
C145	C	1.370500	-0.401447	0.934184
C146	C	1.620500	-0.151447	1.184184
C147	C	1.870500	0.098553	1.434184
C148	C	2.120500	0.348553	1.684184
H149	H	1.290064	-0.916061	0.568629
H150	H	1.540064	-0.666061	0.818629
H151	H	1.790064	-0.416061	1.068629
H152	H	2.040064	-0.166061	1.318629
F153	F	1.466934	-0.875322	0.391988
F154	F	1.716934	-0.625322	0.641988
F155	F	1.966934	-0.375322	0.891988
F156	F	2.216934	-0.125322	1.141988
