data_functionalizedCrystal
_audit_creation_method	'MofGen! by Chris Wilmer'
_symmetry_space_group_name_H-M	'P1'
_symmetry_Int_Tables_number	1
_symmetry_cell_setting	triclinic
loop_
_symmetry_equiv_pos_as_xyz
  x,y,z
_cell_length_a	13.897449
_cell_length_b	13.897448
_cell_length_c	13.897441
_cell_angle_alpha	90.030599
_cell_angle_beta	90.020733
_cell_angle_gamma	90.018972
loop_
_atom_site_label
_atom_site_type_symbol
_atom_site_fract_x
_atom_site_fract_y
_atom_site_fract_z
Zn1	Zn	-1.474703	0.383951	-0.545381
Zn2	Zn	-0.974703	0.883951	-0.045381
Zn3	Zn	-1.474597	0.545273	-0.384083
Zn4	Zn	-0.974597	1.045273	0.115917
Zn5	Zn	-1.313392	0.383997	-0.384100
Zn6	Zn	-0.813392	0.883997	0.115900
Zn7	Zn	-1.313373	0.545210	-0.545335
Zn8	Zn	-0.813373	1.045210	-0.045335
O9	O	-1.394016	0.464608	-0.464725
O10	O	-0.894016	0.964608	0.035275
O11	O	-1.609670	0.405358	-0.523997
O12	O	-1.109670	0.905358	-0.023997
O13	O	-1.453176	0.523925	-0.249103
O14	O	-0.953176	1.023925	0.250897
O15	O	-1.334842	0.249009	-0.405520
O16	O	-0.834842	0.749009	0.094480
O17	O	-1.609592	0.523881	-0.405491
O18	O	-1.109592	1.023881	0.094509
O19	O	-1.453356	0.248976	-0.524013
O20	O	-0.953356	0.748976	-0.024013
O21	O	-1.334739	0.405436	-0.249116
O22	O	-0.834739	0.905436	0.250884
O23	O	-1.178408	0.405375	-0.405476
O24	O	-0.678408	0.905375	0.094524
O25	O	-1.334811	0.523773	-0.680323
O26	O	-0.834811	1.023773	-0.180323
O27	O	-1.178394	0.523817	-0.523935
O28	O	-0.678394	1.023817	-0.023935
O29	O	-1.453339	0.405297	-0.680357
O30	O	-0.953339	0.905297	-0.180357
O31	O	-1.453158	0.680246	-0.405447
O32	O	-0.953158	1.180246	0.094553
O33	O	-1.334708	0.680200	-0.523918
O34	O	-0.834708	1.180200	-0.023918
C35	C	-1.143402	0.464595	-0.464703
C36	C	-0.643402	0.964595	0.035297
C37	C	-1.036188	0.464613	-0.464716
C38	C	-0.536188	0.964613	0.035284
C39	C	-1.393946	0.715222	-0.464697
C40	C	-0.893946	1.215222	0.035303
C41	C	-1.394004	0.822436	-0.464717
C42	C	-0.894004	1.322436	0.035283
C43	C	-1.394085	0.464522	-0.716318
C44	C	-0.894085	0.964522	-0.216318
C45	C	-1.394114	0.464486	-0.823532
C46	C	-0.894114	0.964486	-0.323532
C47	C	-1.645609	0.464621	-0.464747
C48	C	-1.145609	0.964621	0.035253
C49	C	-1.752823	0.464627	-0.464757
C50	C	-1.252823	0.964627	0.035243
C51	C	-0.839893	0.464616	-0.464741
C52	C	-0.339893	0.964616	0.035259
C53	C	-0.949125	0.464611	-0.464725
C54	C	-0.449125	0.964611	0.035275
C55	C	-1.394113	0.213015	-0.464774
C56	C	-0.894113	0.713015	0.035226
C57	C	-1.394154	0.105801	-0.464795
C58	C	-0.894154	0.605801	0.035205
C59	C	-1.394105	1.018731	-0.464778
C60	C	-0.894105	1.518731	0.035222
C61	C	-1.394046	0.909499	-0.464747
C62	C	-0.894046	1.409499	0.035253
C63	C	-1.394140	0.464421	-1.019827
C64	C	-0.894140	0.964421	-0.519827
C65	C	-1.394122	0.464460	-0.910594
C66	C	-0.894122	0.964460	-0.410594
C67	C	-1.394003	0.464623	-0.214110
C68	C	-0.894003	0.964623	0.285890
C69	C	-1.394161	0.464388	-0.106897
C70	C	-0.894161	0.964388	0.393103
