data_functionalizedCrystal
_audit_creation_method	'MofGen! by Chris Wilmer'
_symmetry_space_group_name_H-M	'P1'
_symmetry_Int_Tables_number	1
_symmetry_cell_setting	triclinic
loop_
_symmetry_equiv_pos_as_xyz
  x,y,z
_cell_length_a	18.101395
_cell_length_b	16.120716
_cell_length_c	16.120256
_cell_angle_alpha	95.916247
_cell_angle_beta	92.874436
_cell_angle_gamma	87.129344
loop_
_atom_site_label
_atom_site_type_symbol
_atom_site_fract_x
_atom_site_fract_y
_atom_site_fract_z
Zn1	Zn	-0.369777	1.253754	-0.407820
Zn2	Zn	0.130223	1.753754	0.092180
Zn3	Zn	-0.487635	1.260723	-0.268058
Zn4	Zn	0.012365	1.760723	0.231942
Zn5	Zn	-0.357833	1.121072	-0.275151
Zn6	Zn	0.142167	1.621072	0.224849
Zn7	Zn	-0.487592	1.113934	-0.414867
Zn8	Zn	0.012408	1.613934	0.085133
O9	O	-0.425710	1.187371	-0.341474
O10	O	0.074290	1.687371	0.158526
O11	O	-0.390428	1.371638	-0.383363
O12	O	0.109572	1.871638	0.116637
O13	O	-0.465436	1.248102	-0.152036
O14	O	0.034564	1.748102	0.347964
O15	O	-0.255789	1.138744	-0.292769
O16	O	0.244211	1.638744	0.207231
O17	O	-0.477018	1.376758	-0.280680
O18	O	0.022982	1.876758	0.219320
O19	O	-0.264564	1.236225	-0.390241
O20	O	0.235436	1.736225	0.109759
O21	O	-0.370071	1.145501	-0.157247
O22	O	0.129929	1.645501	0.342753
O23	O	-0.370030	1.003166	-0.299602
O24	O	0.129970	1.503166	0.200398
O25	O	-0.476945	1.126577	-0.530895
O26	O	0.023055	1.626577	-0.030895
O27	O	-0.465363	0.997921	-0.402251
O28	O	0.034637	1.497921	0.097749
O29	O	-0.390386	1.229303	-0.525718
O30	O	0.109614	1.729303	-0.025718
O31	O	-0.591259	1.241180	-0.287513
O32	O	-0.091259	1.741180	0.212487
O33	O	-0.591227	1.133334	-0.395373
O34	O	-0.091227	1.633334	0.104627
C35	C	-0.618114	1.187260	-0.341455
C36	C	-0.118114	1.687260	0.158545
C37	C	-0.700430	1.187288	-0.341471
C38	C	-0.200430	1.687288	0.158529
C39	C	-0.416396	0.970217	-0.352462
C40	C	0.083604	1.470217	0.147538
C41	C	-0.412431	0.877316	-0.357182
C42	C	0.087569	1.377316	0.142818
C43	C	-0.434993	1.176366	-0.559482
C44	C	0.065007	1.676366	-0.059482
C45	C	-0.438949	1.171677	-0.652384
C46	C	0.061051	1.671677	-0.152384
C47	C	-0.999531	1.187469	-0.341507
C48	C	-0.499531	1.687469	0.158493
C49	C	-0.968230	1.119757	-0.409522
C50	C	-0.468230	1.619757	0.090478
C51	C	-0.882590	1.119461	-0.409335
C52	C	-0.382590	1.619461	0.090665
C53	C	-0.851144	1.187379	-0.341490
C54	C	-0.351144	1.687379	0.158510
C55	C	-0.877502	1.167999	-0.254610
C56	C	-0.377502	1.667999	0.245390
C57	C	-0.963146	1.167564	-0.255018
C58	C	-0.463146	1.667564	0.244982
C59	C	-0.972627	1.274742	-0.359590
C60	C	-0.472627	1.774742	0.140410
C61	C	-0.887036	1.274124	-0.361548
C62	C	-0.387036	1.774124	0.138452
C63	C	-0.767281	1.187330	-0.341475
C64	C	-0.267281	1.687330	0.158525
C65	C	-1.083393	1.187516	-0.341516
C66	C	-0.583393	1.687516	0.158484
C67	C	-0.232555	1.187504	-0.341510
C68	C	0.267445	1.687504	0.158490
C69	C	-0.150244	1.187560	-0.341526
C70	C	0.349756	1.687560	0.158474
C71	C	-0.435060	1.405373	-0.330444
C72	C	0.064940	1.905373	0.169556
C73	C	-0.439044	1.498272	-0.325744
C74	C	0.060956	1.998272	0.174256
C75	C	-0.446280	1.668363	-0.317109
C76	C	0.053720	2.168363	0.182891
C77	C	-0.405197	1.707231	-0.365815
C78	C	0.094803	2.207231	0.134185
C79	C	-0.409223	1.801876	-0.361010
C80	C	0.090777	2.301876	0.138990
C81	C	-0.442255	1.573710	-0.321912
C82	C	0.057745	2.073710	0.178088
C83	C	-0.405061	1.211825	-0.861309
C84	C	0.094939	1.711825	-0.361309
C85	C	-0.446139	1.163087	-0.822472
C86	C	0.053861	1.663087	-0.322472
C87	C	-0.442137	1.167868	-0.727826
C88	C	0.057863	1.667868	-0.227826
C89	C	-0.409062	1.207045	-0.955963
C90	C	0.090938	1.707045	-0.455963
C91	C	-0.416411	1.198381	-0.124312
C92	C	0.083589	1.698381	0.375688
C93	C	-0.412253	1.203232	-0.031403
C94	C	0.087747	1.703232	0.468597
H95	H	-0.992216	1.131206	-0.474303
H96	H	-0.492216	1.631206	0.025697
C97	C	-0.992760	1.032770	-0.394045
C98	C	-0.492760	1.532770	0.105955
H99	H	-1.021992	1.037538	-0.346312
H100	H	-0.521992	1.537538	0.153688
H101	H	-1.021105	1.009889	-0.441343
H102	H	-0.521105	1.509889	0.058657
H103	H	-0.950309	0.997219	-0.384915
H104	H	-0.450309	1.497219	0.115085
H105	H	-0.484309	1.117766	-0.860305
H106	H	0.015691	1.617766	-0.360305
H107	H	-0.366999	1.669428	-0.411120
H108	H	0.133001	2.169428	0.088880
C109	C	-0.858771	1.135112	-0.496558
C110	C	-0.358771	1.635112	0.003442
H111	H	-0.901467	1.141708	-0.532425
H112	H	-0.401467	1.641708	-0.032425
H113	H	-0.831497	1.184319	-0.492368
H114	H	-0.331497	1.684319	0.007632
H115	H	-0.828663	1.088943	-0.518702
H116	H	-0.328663	1.588943	-0.018702
C117	C	-0.850336	1.031955	-0.393631
C118	C	-0.350336	1.531955	0.106369
H119	H	-0.797825	1.031472	-0.393472
H120	H	-0.297825	1.531472	0.106528
H121	H	-0.865148	1.018310	-0.341173
H122	H	-0.365148	1.518310	0.158827
H123	H	-0.868127	0.992094	-0.436574
H124	H	-0.368127	1.492094	0.063426
C125	C	-0.985383	1.081561	-0.233631
C126	C	-0.485383	1.581561	0.266369
H127	H	-0.942093	1.047216	-0.224779
H128	H	-0.442093	1.547216	0.275221
H129	H	-1.012720	1.088323	-0.184414
H130	H	-0.512720	1.588323	0.315586
H131	H	-1.015042	1.056076	-0.278520
H132	H	-0.515042	1.556076	0.221480
C133	C	-0.990847	1.231609	-0.184541
C134	C	-0.490847	1.731609	0.315459
H135	H	-0.949757	1.257772	-0.155783
H136	H	-0.449757	1.757772	0.344217
H137	H	-1.022852	1.272594	-0.207701
H138	H	-0.522852	1.772594	0.292299
H139	H	-1.017011	1.203958	-0.146643
H140	H	-0.517011	1.703958	0.353357
H141	H	-0.484473	1.706164	-0.271805
H142	H	0.015527	2.206164	0.228195
C143	C	-0.864328	1.293982	-0.447896
C144	C	-0.364328	1.793982	0.052104
H145	H	-0.886221	1.346526	-0.459674
H146	H	-0.386221	1.846526	0.040326
H147	H	-0.811963	1.295819	-0.448000
H148	H	-0.311963	1.795819	0.052000
H149	H	-0.880808	1.251849	-0.489291
H150	H	-0.380808	1.751849	0.010709
C151	C	-0.849743	1.232785	-0.184543
C152	C	-0.349743	1.732785	0.315457
H153	H	-0.821762	1.272320	-0.207708
H154	H	-0.321762	1.772320	0.292292
H155	H	-0.890901	1.260649	-0.157732
H156	H	-0.390901	1.760649	0.342268
H157	H	-0.819425	1.205350	-0.144968
H158	H	-0.319425	1.705350	0.355032
C159	C	-0.843802	1.082939	-0.232706
C160	C	-0.343802	1.582939	0.267294
H161	H	-0.813668	1.059128	-0.276388
H162	H	-0.313668	1.559128	0.223612
H163	H	-0.814529	1.090489	-0.182154
H164	H	-0.314529	1.590489	0.317846
H165	H	-0.882427	1.046714	-0.226081
H166	H	-0.382427	1.546714	0.273919
H167	H	-0.865916	1.326883	-0.315263
H168	H	-0.365916	1.826883	0.184737
H169	H	-0.366890	1.257138	-0.823479
H170	H	0.133110	1.757138	-0.323479
H171	H	-0.997809	1.293282	-0.421627
H172	H	-0.497809	1.793282	0.078373
C173	C	-0.999954	1.342804	-0.292541
C174	C	-0.499954	1.842804	0.207459
H175	H	-1.027636	1.318202	-0.253719
H176	H	-0.527636	1.818202	0.246281
H177	H	-0.958616	1.368816	-0.264180
H178	H	-0.458616	1.868816	0.235820
H179	H	-1.030462	1.383370	-0.318345
H180	H	-0.530462	1.883370	0.181655
