data_functionalizedCrystal
_audit_creation_method	'MofGen! by Chris Wilmer'
_symmetry_space_group_name_H-M	'P1'
_symmetry_Int_Tables_number	1
_symmetry_cell_setting	triclinic
loop_
_symmetry_equiv_pos_as_xyz
  x,y,z
_cell_length_a	16.974800
_cell_length_b	13.262508
_cell_length_c	15.455313
_cell_angle_alpha	108.573824
_cell_angle_beta	90.973911
_cell_angle_gamma	82.923469
loop_
_atom_site_label
_atom_site_type_symbol
_atom_site_fract_x
_atom_site_fract_y
_atom_site_fract_z
O1	O	1.047984	0.135831	0.033509
O2	O	0.818420	0.152104	0.021226
O3	O	0.940719	-0.011127	-0.008691
O4	O	0.925685	0.299062	0.063426
O5	O	0.933726	-0.001831	0.137273
O6	O	0.811427	0.161400	0.167190
O7	O	1.040990	0.145127	0.179473
Cu8	Cu	0.925570	0.154112	0.186659
Cu9	Cu	0.933840	0.143119	0.014040
O10	O	0.918692	0.308357	0.209390
C11	C	0.785571	0.155962	0.091960
C12	C	0.698108	0.153598	0.085260
C13	C	0.653211	0.157552	0.161678
C14	C	0.571032	0.155313	0.155381
C15	C	0.533751	0.149129	0.072667
C16	C	0.578655	0.145171	-0.003758
C17	C	0.660833	0.147402	0.002538
C18	C	0.288385	0.141906	0.045303
C19	C	0.206200	0.139679	0.039013
C20	C	0.198583	0.149819	0.198153
C21	C	0.280762	0.152056	0.204443
C22	C	0.325659	0.148092	0.128017
N23	N	0.449751	0.146844	0.066229
N24	N	0.409659	0.150370	0.134454
C25	C	0.937023	-0.046179	0.054910
C26	C	0.936418	-0.164471	0.026958
C27	C	0.919462	-0.477663	0.266433
C28	C	0.920023	-0.366520	0.292696
C29	C	0.924122	-0.316002	0.226264
C30	C	0.927659	-0.376639	0.133563
C31	C	0.927091	-0.487792	0.107297
C32	C	0.931752	-0.326131	0.067128
C33	C	0.935289	-0.386767	-0.025573
C34	C	0.934721	-0.497909	-0.051835
C35	C	0.930622	-0.548427	0.014598
C36	C	0.932320	-0.214978	0.093395
C37	C	0.939949	-0.225107	-0.065741
C38	C	0.939388	-0.336250	-0.092005
C39	C	1.073840	0.141268	0.108737
C40	C	1.161303	0.143632	0.115431
C41	C	0.922388	0.343409	0.145787
C42	C	0.922993	0.461702	0.173734
N43	N	0.919759	0.161843	0.308070
N44	N	0.939658	0.135379	-0.107373
C45	C	0.971733	0.092523	0.340762
C46	C	0.967346	0.098380	0.432643
C47	C	0.910987	0.173563	0.491833
C48	C	0.859007	0.242886	0.459135
C49	C	0.863391	0.237024	0.367254
C50	C	0.892062	0.198840	0.768048
C51	C	0.887683	0.204699	0.859935
C52	C	0.996022	0.060191	0.833437
C53	C	1.000404	0.054339	0.741556
C54	C	0.948422	0.123659	0.708865
N55	N	0.906502	0.179554	0.585751
N56	N	0.952903	0.117662	0.614947
H57	H	0.683557	0.162597	0.229036
H58	H	0.917152	-0.317159	0.368173
O59	O	0.915380	-0.526842	0.330867
C60	C	0.846512	-0.578948	0.318445
H61	H	0.826964	-0.596026	0.244764
H62	H	0.859863	-0.657639	0.334089
H63	H	0.797023	-0.525316	0.366438
O64	O	0.804186	0.315947	0.516496
C65	C	0.759263	0.375888	0.467939
H66	H	0.761854	0.328019	0.392104
H67	H	0.694936	0.393594	0.493848
H68	H	0.784672	0.454522	0.478602
H69	H	0.930169	-0.638929	-0.006781
H70	H	0.548295	0.140128	-0.071108
O71	O	1.046588	-0.007203	0.865051
C72	C	1.097253	-0.074841	0.793099
H73	H	1.100923	-0.035324	0.737947
H74	H	1.159045	-0.089182	0.820279
H75	H	1.072763	-0.154711	0.762888
O76	O	0.928775	-0.156175	0.183461
C77	C	0.858003	-0.168376	0.223435
H78	H	0.835908	-0.246562	0.181072
H79	H	0.869850	-0.170214	0.295777
H80	H	0.811023	-0.098218	0.225782
H81	H	0.924578	-0.225504	0.247654
H82	H	0.821067	0.293470	0.340638
H83	H	0.697388	0.144185	-0.059690
H84	H	0.937594	-0.547275	-0.127318
H85	H	0.534481	0.158515	0.217605
H86	H	0.162019	0.153043	0.260374
O87	O	0.331868	0.138097	-0.029011
C88	C	0.281340	0.132135	-0.103369
H89	H	0.218111	0.165742	-0.076824
H90	H	0.302329	0.180912	-0.145395
H91	H	0.282723	0.044934	-0.148017
H92	H	0.841787	0.265927	0.908126
H93	H	1.046296	-0.006881	0.693365
O94	O	0.942670	-0.395187	-0.182042
C95	C	0.874275	-0.447938	-0.203970
H96	H	0.824547	-0.403264	-0.152300
H97	H	0.854709	-0.449715	-0.275314
H98	H	0.888261	-0.533488	-0.202028
H99	H	1.009667	0.041933	0.459259
H100	H	0.943281	-0.183975	-0.119836
O101	O	0.841535	0.266291	0.736459
C102	C	0.790843	0.333889	0.808402
H103	H	0.820020	0.339391	0.876468
H104	H	0.779400	0.417247	0.801023
H105	H	0.732120	0.299692	0.805892
O106	O	1.026402	0.019325	0.283283
C107	C	1.013360	-0.084751	0.280065
H108	H	0.949064	-0.083869	0.300722
H109	H	1.025743	-0.142079	0.207715
H110	H	1.054727	-0.112465	0.329153
O111	O	0.316854	0.158017	0.284851
C112	C	0.259600	0.161057	0.350959
H113	H	0.205674	0.124273	0.315445
H114	H	0.286102	0.113568	0.396620
H115	H	0.240729	0.247784	0.394267
O116	O	0.169925	0.133856	-0.041277
C117	C	0.112937	0.224452	-0.028599
H118	H	0.128791	0.292442	0.033170
H119	H	0.112121	0.250886	-0.091975
H120	H	0.051819	0.203286	-0.016743
