data_functionalizedCrystal
_audit_creation_method	'MofGen! by Chris Wilmer'
_symmetry_space_group_name_H-M	'P1'
_symmetry_Int_Tables_number	1
_symmetry_cell_setting	triclinic
loop_
_symmetry_equiv_pos_as_xyz
  x,y,z
_cell_length_a	14.971486
_cell_length_b	16.098524
_cell_length_c	14.971486
_cell_angle_alpha	86.938144
_cell_angle_beta	96.385871
_cell_angle_gamma	93.056762
loop_
_atom_site_label
_atom_site_type_symbol
_atom_site_fract_x
_atom_site_fract_y
_atom_site_fract_z
O1	O	1.190514	0.069161	-0.120132
O2	O	1.690514	0.569161	0.379868
O3	O	0.930115	0.069184	-0.134092
O4	O	1.430115	0.569184	0.365908
O5	O	1.067294	0.069166	0.003089
O6	O	1.567294	0.569166	0.503089
O7	O	1.053335	0.069179	-0.257312
O8	O	1.553335	0.569179	0.242688
O9	O	1.060133	-0.069347	0.010241
O10	O	1.560133	0.430653	0.510241
O11	O	0.922955	-0.069329	-0.126940
O12	O	1.422955	0.430671	0.373060
O13	O	1.183354	-0.069352	-0.112980
O14	O	1.683354	0.430648	0.387020
Zn15	Zn	1.052017	-0.091333	-0.118824
Zn16	Zn	1.552017	0.408667	0.381176
Zn17	Zn	1.061451	0.091164	-0.128247
Zn18	Zn	1.561451	0.591164	0.371753
O19	O	1.046175	-0.069334	-0.250160
O20	O	1.546175	0.430666	0.249840
C21	C	0.893210	-0.000070	-0.129892
C22	C	1.393210	0.499930	0.370108
C23	C	0.793914	-0.000061	-0.128021
C24	C	1.293914	0.499939	0.371979
N25	N	1.045585	-0.215882	-0.112393
N26	N	1.545585	0.284118	0.387607
C27	C	0.736688	-0.000058	-0.208611
C28	C	1.236688	0.499942	0.291389
C29	C	0.643388	-0.000071	-0.206847
C30	C	1.143388	0.499929	0.293153
C31	C	0.607316	-0.000080	-0.124493
C32	C	1.107316	0.499920	0.375507
C33	C	0.664548	-0.000086	-0.043897
C34	C	1.164548	0.499914	0.456103
C35	C	0.757846	-0.000079	-0.045662
C36	C	1.257846	0.499921	0.454338
C37	C	0.470085	-0.000097	-0.040226
C38	C	0.970085	0.499903	0.459774
C39	C	0.376781	-0.000102	-0.038461
C40	C	0.876781	0.499898	0.461539
C41	C	0.355627	-0.000089	-0.201411
C42	C	0.855627	0.499911	0.298589
C43	C	0.448925	-0.000083	-0.203175
C44	C	0.948925	0.499917	0.296825
C45	C	0.506151	-0.000086	-0.122579
C46	C	1.006151	0.499914	0.377421
C47	C	1.097639	-0.259466	-0.164484
C48	C	1.597639	0.240534	0.335516
C49	C	1.093152	-0.346655	-0.159979
C50	C	1.593152	0.153345	0.340021
C51	C	1.036605	-0.390259	-0.103387
C52	C	1.536605	0.109741	0.396613
C53	C	0.984550	-0.346669	-0.051290
C54	C	1.484550	0.153331	0.448710
C55	C	0.989042	-0.259481	-0.055791
C56	C	1.489042	0.240519	0.444209
C57	C	1.020328	-0.653509	-0.087075
C58	C	1.520328	-0.153509	0.412925
C59	C	1.015837	-0.740703	-0.082580
C60	C	1.515837	-0.240703	0.417420
C61	C	1.124440	-0.740682	-0.191268
C62	C	1.624440	-0.240682	0.308732
C63	C	1.128924	-0.653493	-0.195768
C64	C	1.628924	-0.153493	0.304232
C65	C	1.076872	-0.609911	-0.143668
C66	C	1.576872	-0.109911	0.356332
C67	C	1.032015	-0.479380	-0.098783
C68	C	1.532015	0.020620	0.401217
C69	C	1.081468	-0.520791	-0.148267
C70	C	1.581468	-0.020791	0.351733
C71	C	1.220258	-0.000096	-0.117180
C72	C	1.720258	0.499904	0.382820
C73	C	1.319555	-0.000100	-0.119050
C74	C	1.819555	0.499900	0.380950
C75	C	1.063089	-0.000090	0.039989
C76	C	1.563089	0.499910	0.539989
C77	C	1.061218	-0.000089	0.139287
C78	C	1.561218	0.499911	0.639287
N79	N	1.067890	0.215714	-0.134671
N80	N	1.567890	0.715714	0.365329
C81	C	1.050380	-0.000076	-0.287061
C82	C	1.550380	0.499924	0.212939
C83	C	1.052251	-0.000071	-0.386358
C84	C	1.552251	0.499929	0.113642
C85	C	1.141807	-0.000097	0.196512
C86	C	1.641807	0.499903	0.696512
C87	C	1.140045	-0.000088	0.289811
C88	C	1.640045	0.499912	0.789811
C89	C	1.057692	-0.000078	0.325883
C90	C	1.557692	0.499922	0.825883
C91	C	0.977097	-0.000068	0.268650
C92	C	1.477097	0.499932	0.768650
C93	C	0.978861	-0.000071	0.175352
C94	C	1.478861	0.499929	0.675352
C95	C	0.973426	-0.000065	0.463112
C96	C	1.473426	0.499935	0.963112
C97	C	0.971662	-0.000064	0.556416
C98	C	1.471662	0.499936	1.056416
C99	C	1.134610	-0.000083	0.577571
C100	C	1.634610	0.499917	1.077571
C101	C	1.136374	-0.000085	0.484274
C102	C	1.636374	0.499915	0.984274
C103	C	1.055778	-0.000077	0.427047
C104	C	1.555778	0.499923	0.927047
H105	H	0.766051	-0.000050	-0.275673
H106	H	1.266051	0.499950	0.224327
H107	H	0.596799	-0.000068	-0.272471
H108	H	1.096799	0.499932	0.227529
H109	H	1.205668	-0.000097	0.336401
H110	H	1.705668	0.499903	0.836401
F111	F	0.487315	-0.000064	-0.290825
F112	F	0.987315	0.499936	0.209175
F113	F	0.818749	-0.000085	0.040113
F114	F	1.318749	0.499915	0.540113
H115	H	0.347413	-0.000111	0.028599
H116	H	0.847413	0.499889	0.528599
F117	F	1.157822	-0.213067	-0.224719
F118	F	1.657822	0.286933	0.275281
H119	H	1.135541	-0.382137	-0.202396
H120	H	1.635541	0.117863	0.297604
F121	F	0.964901	-0.607137	-0.031652
F122	F	1.464901	-0.107137	0.468348
H123	H	0.938513	-0.382178	-0.005207
H124	H	1.438513	0.117822	0.494793
H125	H	0.969785	-0.776202	-0.036496
H126	H	1.469785	-0.276202	0.463504
F127	F	1.189078	-0.607093	-0.256031
F128	F	1.689078	-0.107093	0.243969
H129	H	0.635170	-0.000105	0.023157
H130	H	1.135170	0.499895	0.523157
H131	H	1.203432	-0.000099	0.454908
H132	H	1.703432	0.499901	0.954908
F133	F	0.933647	-0.213097	-0.000341
F134	F	1.433647	0.286903	0.499659
F135	F	1.141650	-0.474383	-0.208491
F136	F	1.641650	0.025617	0.291509
F137	F	0.971830	-0.525794	-0.038561
F138	F	1.471830	-0.025794	0.461439
F139	F	1.179835	-0.787072	-0.246713
F140	F	1.679835	-0.287072	0.253287
H141	H	0.309029	-0.000090	-0.267035
H142	H	0.809029	0.499910	0.232965
H143	H	1.200234	-0.000087	0.624170
H144	H	1.700234	0.499913	1.124170
H145	H	0.516677	-0.000102	0.025404
H146	H	1.016677	0.499898	0.525404
F147	F	0.887647	-0.000054	0.402209
F148	F	1.387647	0.499946	0.902209
F149	F	1.229459	-0.000116	0.158131
F150	F	1.729459	0.499884	0.658131
H151	H	0.904602	-0.000069	0.585783
H152	H	1.404602	0.499931	1.085783
F153	F	0.889451	-0.000048	0.307042
F154	F	1.389451	0.499952	0.807042
H155	H	0.913237	-0.000064	0.128759
H156	H	1.413237	0.499936	0.628759
