data_functionalizedCrystal
_audit_creation_method	'MofGen! by Chris Wilmer'
_symmetry_space_group_name_H-M	'P1'
_symmetry_Int_Tables_number	1
_symmetry_cell_setting	triclinic
loop_
_symmetry_equiv_pos_as_xyz
  x,y,z
_cell_length_a	12.759401
_cell_length_b	12.594516
_cell_length_c	12.759401
_cell_angle_alpha	90.007103
_cell_angle_beta	90.003120
_cell_angle_gamma	90.016214
loop_
_atom_site_label
_atom_site_type_symbol
_atom_site_fract_x
_atom_site_fract_y
_atom_site_fract_z
Zn1	Zn	1.606086	-0.423906	0.593999
Zn2	Zn	1.606023	-0.601857	0.418326
Zn3	Zn	1.430435	-0.423893	0.418338
Zn4	Zn	1.430373	-0.601843	0.593968
O5	O	1.518229	-0.512875	0.506158
O6	O	1.753099	-0.447523	0.570703
O7	O	1.582731	-0.578250	0.271307
O8	O	1.453788	-0.274949	0.441658
O9	O	1.753053	-0.578262	0.441638
O10	O	1.582838	-0.274959	0.570715
O11	O	1.453727	-0.447501	0.271316
O12	O	1.283406	-0.447488	0.441628
O13	O	1.453681	-0.578239	0.740993
O14	O	1.283360	-0.578227	0.570662
O15	O	1.582777	-0.447510	0.741016
O16	O	1.582670	-0.750801	0.441608
O17	O	1.453621	-0.750791	0.570651
C18	C	1.245262	-0.512855	0.506144
C19	C	1.128485	-0.512873	0.506162
C20	C	1.073627	-0.581057	0.573239
C21	C	0.963903	-0.581071	0.573251
C22	C	0.963905	-0.444712	0.439099
C23	C	1.073627	-0.444694	0.439094
C24	C	1.128485	-0.649236	0.640308
C25	C	1.073626	-0.717427	0.707390
C26	C	0.963902	-0.717441	0.707401
C27	C	0.909037	-0.649263	0.640331
C28	C	1.518160	-0.789416	0.506147
C29	C	1.518227	-0.907721	0.506178
C30	C	1.448030	-0.977008	0.576315
C31	C	1.422456	-1.047841	0.480449
C32	C	1.543896	-1.047687	0.602061
C33	C	1.492603	-0.976996	0.410261
C34	C	1.614087	-0.976836	0.531938
C35	C	1.588550	-1.047638	0.436005
C36	C	1.792263	-0.512895	0.506173
C37	C	1.909039	-0.512904	0.506179
C38	C	1.518229	-0.512874	0.780191
C39	C	1.518229	-0.512874	0.896968
C40	C	1.518327	-0.235254	0.506191
C41	C	1.518369	-0.116949	0.506205
C42	C	1.585444	-0.444818	0.951843
C43	C	1.585440	-0.444822	1.061567
C44	C	1.451003	-0.580948	1.061531
C45	C	1.451003	-0.580937	0.951809
C46	C	1.652671	-0.376755	0.897002
C47	C	1.719892	-0.308694	0.951878
C48	C	1.719887	-0.308698	1.061602
C49	C	1.652662	-0.376763	1.116450
C50	C	1.518222	-0.512897	1.233190
C51	C	1.518225	-0.512889	1.116414
H52	H	0.919225	-0.389206	0.384493
H53	H	1.118294	-0.389164	0.384482
H54	H	1.774618	-0.253271	0.907213
C55	C	0.788343	-0.649270	0.640345
H56	H	0.763527	-0.598900	0.590798
H57	H	0.763503	-0.717929	0.622069
H58	H	0.763538	-0.630965	0.708181
C59	C	1.793824	-0.233835	1.121963
H60	H	1.833864	-0.193306	1.073584
H61	H	1.753657	-0.187455	1.164773
H62	H	1.839587	-0.274569	1.164758
H63	H	1.647974	-1.078455	0.376636
H64	H	1.470855	-0.946073	0.329163
C65	C	1.249177	-0.649219	0.640304
H66	H	1.273993	-0.699581	0.689858
H67	H	1.273990	-0.667505	0.572472
H68	H	1.274006	-0.580555	0.658598
H69	H	1.652651	-0.376749	1.205795
C70	C	1.133973	-0.792420	0.781157
H71	H	1.207177	-0.782656	0.771537
H72	H	1.116008	-0.776965	0.851777
H73	H	1.115973	-0.863913	0.765649
C74	C	0.903560	-0.792437	0.781194
H75	H	0.951949	-0.833040	0.821130
H76	H	0.860771	-0.751800	0.827043
H77	H	0.860745	-0.838760	0.740927
H78	H	1.652684	-0.376746	0.807660
H79	H	1.396270	-0.636363	1.106197
C80	C	1.377109	-0.655839	0.891441
H81	H	1.337093	-0.696399	0.939815
H82	H	1.331337	-0.615149	0.848624
H83	H	1.417325	-0.702204	0.848652
C84	C	1.367699	-0.935099	0.656321
H85	H	1.299670	-0.959415	0.637852
H86	H	1.385214	-0.960342	0.724252
H87	H	1.368640	-0.859675	0.656198
H88	H	1.341455	-1.079053	0.458683
C89	C	1.573155	-1.089633	0.711584
H90	H	1.523160	-1.065437	0.761317
H91	H	1.573626	-1.165050	0.710658
H92	H	1.640724	-1.064266	0.730353
C93	C	1.723506	-0.934708	0.561382
H94	H	1.741598	-0.958880	0.629549
H95	H	1.773569	-0.959968	0.512250
H96	H	1.722852	-0.859286	0.560532
