data_functionalizedCrystal
_audit_creation_method	'MofGen! by Chris Wilmer'
_symmetry_space_group_name_H-M	'P1'
_symmetry_Int_Tables_number	1
_symmetry_cell_setting	triclinic
loop_
_symmetry_equiv_pos_as_xyz
  x,y,z
_cell_length_a	14.628931
_cell_length_b	21.606444
_cell_length_c	21.606444
_cell_angle_alpha	120.010416
_cell_angle_beta	90.001677
_cell_angle_gamma	119.996973
loop_
_atom_site_label
_atom_site_type_symbol
_atom_site_fract_x
_atom_site_fract_y
_atom_site_fract_z
Zr1	Zr	0.880608	-0.677527	-0.081359
O2	O	0.734639	-0.806664	-0.180212
O3	O	0.925356	-0.548392	-0.051037
O4	O	0.925346	-0.677531	-0.180186
O5	O	0.734657	-0.677521	0.050791
O6	O	1.075778	-0.677531	-0.180186
O7	O	0.734650	-0.677526	-0.051063
O8	O	1.075797	-0.446525	0.050838
O9	O	0.734638	-0.908527	-0.180233
O10	O	1.056706	-0.601506	-0.038127
O11	O	0.944446	-0.601503	0.037886
O12	O	0.944433	-0.753547	-0.114170
O13	O	0.832173	-0.753544	-0.038158
Zr14	Zr	1.120542	-0.677519	0.081087
Zr15	Zr	1.120530	-0.677526	-0.081359
Zr16	Zr	0.880621	-0.677520	0.081087
Zr17	Zr	0.880607	-0.839986	-0.081392
Zr18	Zr	1.120544	-0.515060	0.081120
O19	O	1.075794	-0.806654	0.050765
O20	O	1.075777	-0.806664	-0.180212
O21	O	0.734656	-0.806655	0.050765
O22	O	1.266512	-0.548382	0.179940
O23	O	1.266494	-0.548392	-0.051037
O24	O	0.925374	-0.548382	0.179940
O25	O	1.266494	-0.677525	-0.051063
O26	O	1.075805	-0.677515	0.179914
O27	O	0.925373	-0.677515	0.179913
O28	O	1.266501	-0.677520	0.050791
O29	O	0.925344	-0.908527	-0.180232
O30	O	1.075807	-0.446520	0.179960
O31	O	1.266512	-0.446519	0.179961
O32	O	1.266503	-0.446525	0.050838
O33	O	0.734648	-0.908521	-0.051110
O34	O	0.925354	-0.908521	-0.051110
O35	O	1.056717	-0.601499	0.113898
O36	O	1.168977	-0.601502	0.037886
O37	O	1.056705	-0.753543	-0.038158
O38	O	0.944445	-0.753540	0.037855
C39	C	1.000577	-0.474312	-0.000095
C40	C	1.000577	-0.405344	-0.000081
C41	C	0.917695	-0.429082	-0.056210
C42	C	0.917699	-0.364291	-0.056224
C43	C	1.000581	-0.275763	-0.000104
C44	C	1.083472	-0.252025	0.056028
C45	C	1.083471	-0.316815	0.056038
C46	C	1.083475	0.009267	0.055989
C47	C	1.083467	0.074058	0.055977
C48	C	0.917703	-0.038208	-0.056272
C49	C	0.917702	-0.102999	-0.056262
C50	C	1.000596	-0.079256	-0.000133
C51	C	1.000592	-0.149510	-0.000120
C52	C	1.000582	-0.205509	-0.000114
C53	C	0.700470	-0.677524	-0.000136
C54	C	0.598617	-0.677524	-0.000136
C55	C	0.608902	-0.602101	0.037586
C56	C	0.503633	-0.602100	0.037587
C57	C	1.300681	-0.677522	-0.000136
C58	C	1.402534	-0.677522	-0.000136
C59	C	1.000578	0.119271	-0.000168
C60	C	1.000588	0.050320	-0.000156
C61	C	1.000560	-0.677532	-0.203331
C62	C	1.000555	-0.677535	-0.272293
C63	C	0.941949	-0.756898	-0.344386
C64	C	0.941959	-0.756896	-0.409181
C65	C	1.000568	-0.677529	-0.401881
C66	C	1.059181	-0.598160	-0.329781
C67	C	1.059178	-0.598163	-0.264988
C68	C	1.059199	-0.598144	-0.591084
C69	C	1.059196	-0.598147	-0.655885
C70	C	0.941981	-0.756877	-0.735277
C71	C	0.941977	-0.756880	-0.670483
C72	C	1.000594	-0.677512	-0.598389
C73	C	1.000585	-0.677515	-0.528132
C74	C	1.000572	-0.677524	-0.472137
C75	C	1.000591	-0.677514	0.203059
C76	C	1.000596	-0.677511	0.272021
C77	C	1.300682	-0.474311	-0.000095
C78	C	1.402536	-0.405343	-0.000081
C79	C	1.000592	-0.474303	0.203100
C80	C	1.000598	-0.405332	0.272076
C81	C	1.300698	-0.474302	0.203100
C82	C	1.402556	-0.405331	0.272076
C83	C	0.700453	-0.880744	-0.203372
C84	C	0.598594	-0.949715	-0.272349
C85	C	0.700468	-0.880735	-0.000177
C86	C	0.598615	-0.949703	-0.000191
C87	C	1.000559	-0.880743	-0.203372
C88	C	1.000553	-0.949714	-0.272348
C89	C	1.391763	-0.372957	-0.039759
C90	C	1.487456	-0.308163	-0.039761
C91	C	1.593921	-0.275752	-0.000080
C92	C	1.604692	-0.308145	0.039600
C93	C	1.509000	-0.372942	0.039597
C94	C	1.059205	-0.372941	0.344153
C95	C	1.059206	-0.308144	0.408969
C96	C	1.000606	-0.275736	0.401708
C97	C	0.941991	-0.308134	0.329624
C98	C	0.941984	-0.372933	0.264809
C99	C	1.508999	-0.372943	0.264791
C100	C	1.604715	-0.308147	0.329595
C101	C	1.593987	-0.275735	0.401685
C102	C	1.487533	-0.308129	0.408969
C103	C	1.391819	-0.372929	0.344165
C104	C	0.492152	-0.982111	-0.265063
C105	C	0.396436	-1.046928	-0.329867
C106	C	0.407164	-1.079343	-0.401957
C107	C	0.513618	-1.046944	-0.409241
C108	C	0.609332	-0.982133	-0.344437
C109	C	0.609388	-0.982096	0.039480
C110	C	0.513695	-1.046908	0.039464
C111	C	0.407230	-1.079321	-0.000219
C112	C	0.396459	-1.046926	-0.039896
C113	C	0.492151	-0.982119	-0.039884
C114	C	1.059165	-0.982102	-0.265062
C115	C	1.059182	-1.046899	-0.329867
C116	C	1.000579	-1.079311	-0.401956
C117	C	0.941966	-1.046917	-0.409240
C118	C	0.941956	-0.982117	-0.344437
H119	H	0.850192	-0.501163	-0.101901
H120	H	0.393894	-0.742098	-0.032436
H121	H	1.150972	0.028610	0.101693
H122	H	1.106886	-0.955722	-0.206369
H123	H	1.106910	-1.073268	-0.323921
F124	F	0.879593	-1.081427	-0.485970
F125	F	1.121561	-0.513691	-0.322014
F126	F	0.722614	-0.947657	-0.352203
F127	F	0.480668	-0.947646	-0.082105
H128	H	0.894246	-0.821509	-0.676434
F129	F	1.121580	-0.513670	-0.648110
H130	H	0.850208	-0.383627	-0.101929
F131	F	0.485244	-0.761926	-0.042346
H132	H	0.329320	-1.132091	-0.000223
H133	H	1.305152	-0.399291	0.350108
F134	F	0.879565	-0.841372	-0.352163
F135	F	1.171684	-0.157805	0.115753
F136	F	0.879560	-0.947660	-0.352203
H137	H	1.691389	-0.281746	0.071906
F138	F	0.879581	-0.841365	-0.485907
F139	F	0.480708	-0.947622	-0.188346
F140	F	0.283150	-1.081395	-0.322099
H141	H	1.106925	-0.399321	0.350080
F142	F	1.121548	-0.513673	-0.514364
H143	H	0.512264	-0.537528	0.069877
F144	F	0.305286	-1.148321	-0.470921
H145	H	1.000596	-1.132076	-0.454717
H146	H	0.894255	-0.821503	-0.793986
F147	F	0.829484	-0.197216	-0.115989
H148	H	1.517787	-0.399302	0.071912
H149	H	0.522340	-1.073345	-0.467944
F150	F	0.879629	-0.273632	0.321907
F151	F	0.283142	-1.081429	-0.082125
H152	H	0.850211	-0.057535	-0.101978
F153	F	1.695865	-0.206767	0.470649
H154	H	1.106941	-0.281774	0.467657
H155	H	0.522487	-1.073274	0.071776
H156	H	0.696068	-0.955710	0.071800
H157	H	1.150964	0.146145	0.101678
H158	H	0.695642	-0.537530	0.069885
F159	F	1.121564	-0.513694	-0.188259
F160	F	1.278464	-0.407441	-0.081998
F161	F	1.171689	-0.291548	0.115776
F162	F	1.475969	-0.273697	-0.081992
H163	H	1.000620	-0.222972	0.454491
F164	F	0.879608	-0.407396	0.188101
F165	F	1.520443	-0.407431	0.188074
F166	F	1.476132	-0.273625	0.485698
F167	F	1.695756	-0.206787	-0.000083
H168	H	1.691386	-0.281778	0.323651
