data_functionalizedCrystal
_audit_creation_method	'MofGen! by Chris Wilmer'
_symmetry_space_group_name_H-M	'P1'
_symmetry_Int_Tables_number	1
_symmetry_cell_setting	triclinic
loop_
_symmetry_equiv_pos_as_xyz
  x,y,z
_cell_length_a	14.044220
_cell_length_b	14.472310
_cell_length_c	14.044220
_cell_angle_alpha	90.001238
_cell_angle_beta	93.188878
_cell_angle_gamma	90.008418
loop_
_atom_site_label
_atom_site_type_symbol
_atom_site_fract_x
_atom_site_fract_y
_atom_site_fract_z
O1	O	1.277180	0.076746	0.230162
O2	O	1.000508	0.076770	0.221856
O3	O	1.134691	0.076749	0.087673
O4	O	1.142997	0.076767	0.364345
O5	O	1.134654	-0.076933	0.087679
O6	O	1.000471	-0.076912	0.221862
O7	O	1.277143	-0.076936	0.230167
Cu8	Cu	1.138804	-0.090956	0.226015
Cu9	Cu	1.138848	0.090790	0.226009
O10	O	1.142960	-0.076915	0.364350
C11	C	0.964868	-0.000069	0.218223
C12	C	0.858725	-0.000060	0.207379
N13	N	1.138780	-0.218787	0.226019
C14	C	0.664388	-0.000079	0.187553
C15	C	0.613258	-0.000078	0.264467
C16	C	0.505122	-0.000089	0.253435
C17	C	0.772534	-0.000069	0.198583
C18	C	1.138846	-0.592879	0.226005
C19	C	1.066762	-0.553702	0.297518
C20	C	1.066968	-0.446614	0.297819
C21	C	1.138812	-0.407287	0.226012
C22	C	1.240266	-0.446131	0.256192
C23	C	1.239871	-0.553253	0.256710
C24	C	1.110345	-0.553412	0.124155
C25	C	1.108117	-0.446285	0.124630
C26	C	1.138800	-0.302399	0.226015
C27	C	1.138866	-0.697767	0.226005
C28	C	1.312783	-0.000096	0.233800
C29	C	1.418926	-0.000098	0.244645
C30	C	1.131037	-0.000092	0.052054
C31	C	1.120193	-0.000092	-0.054088
N32	N	1.138878	0.218621	0.225997
C33	C	1.100366	-0.000077	-0.248426
C34	C	1.177281	-0.000081	-0.299556
C35	C	1.166249	-0.000072	-0.407692
C36	C	1.111397	-0.000085	-0.140280
C37	C	1.146614	-0.000072	0.399969
C38	C	1.157459	-0.000066	0.506112
H39	H	0.650697	-0.000069	0.338600
H40	H	0.626951	-0.000089	0.113425
O41	O	1.023520	-0.585768	0.091927
C42	C	1.032907	-0.635241	0.006473
H43	H	1.109537	-0.660402	0.002867
H44	H	1.014187	-0.588214	-0.056949
C45	C	0.870815	-0.687915	0.008098
C46	C	0.964932	-0.718826	0.003674
H47	H	0.828882	-0.739472	0.006368
H48	H	0.864489	-0.654582	0.065668
H49	H	0.855229	-0.648726	-0.044755
H50	H	0.980520	-0.758004	0.056531
H51	H	0.971259	-0.752167	-0.053888
H52	H	1.251414	-0.000025	-0.262117
H53	H	0.991826	-0.420352	0.278595
O54	O	1.012000	-0.000114	-0.293233
C55	C	1.020521	-0.000088	-0.392791
H56	H	1.093080	-0.029180	-0.409752
H57	H	1.013607	0.073642	-0.420905
C58	C	0.852035	-0.024625	-0.419820
C59	C	0.941150	-0.060364	-0.440652
H60	H	0.803073	-0.061802	-0.449345
H61	H	0.846293	-0.024640	-0.352746
H62	H	0.846287	0.036816	-0.443249
H63	H	0.946901	-0.121799	-0.417212
H64	H	0.946891	-0.060361	-0.507723
H65	H	1.085627	-0.580608	0.372490
H66	H	1.086045	-0.420976	0.373224
O67	O	0.976917	-0.584582	0.274721
C68	C	0.977875	-0.642048	0.193712
H69	H	1.052654	-0.671139	0.187155
H70	H	0.956390	-0.600159	0.127206
C71	C	0.815085	-0.686381	0.211971
C72	C	0.906929	-0.722117	0.203922
H73	H	0.771320	-0.735769	0.218266
H74	H	0.814438	-0.647662	0.266546
H75	H	0.797194	-0.651473	0.156547
H76	H	0.924823	-0.757014	0.259350
H77	H	0.907577	-0.760844	0.149356
H78	H	1.264447	-0.419291	0.329931
O79	O	1.268429	-0.582937	0.345635
C80	C	1.361179	-0.550002	0.369551
H81	H	1.375546	-0.486065	0.325160
H82	H	1.415420	-0.605937	0.354316
C83	C	1.352168	-0.603363	0.530743
C84	C	1.369812	-0.524830	0.476226
H85	H	1.357496	-0.587840	0.596546
H86	H	1.289682	-0.625556	0.514630
H87	H	1.397372	-0.649968	0.518037
H88	H	1.324601	-0.478231	0.488924
H89	H	1.432291	-0.502629	0.492344
H90	H	1.295538	-0.420656	0.205843
O91	O	1.306232	-0.584075	0.197331
C92	C	1.283775	-0.551434	0.104190
H93	H	1.237530	-0.486923	0.107668
H94	H	1.243277	-0.607154	0.061215
C95	C	1.433216	-0.606888	0.051528
C96	C	1.376424	-0.527649	0.055801
H97	H	1.490366	-0.592220	0.021677
H98	H	1.448346	-0.628882	0.114278
H99	H	1.399457	-0.653314	0.015718
H100	H	1.410179	-0.481229	0.091621
H101	H	1.361303	-0.505646	-0.006944
H102	H	1.156561	-0.419518	0.068267
O103	O	1.019039	-0.415892	0.097665
C104	C	0.984559	-0.359652	0.170140
H105	H	1.047238	-0.330543	0.215734
H106	H	0.937464	-0.402574	0.216740
C107	C	0.848859	-0.315314	0.068770
C108	C	0.925843	-0.279555	0.124765
H109	H	0.812636	-0.265908	0.040782
H110	H	0.872086	-0.353206	0.019943
H111	H	0.809623	-0.351082	0.107612
H112	H	0.965082	-0.243798	0.085920
H113	H	0.902620	-0.241654	0.173585
H114	H	1.162814	-0.578746	0.070838
