data_functionalizedCrystal
_audit_creation_method	'MofGen! by Chris Wilmer'
_symmetry_space_group_name_H-M	'P1'
_symmetry_Int_Tables_number	1
_symmetry_cell_setting	triclinic
loop_
_symmetry_equiv_pos_as_xyz
  x,y,z
_cell_length_a	10.654550
_cell_length_b	10.654551
_cell_length_c	9.730223
_cell_angle_alpha	90.001469
_cell_angle_beta	89.996251
_cell_angle_gamma	84.485132
loop_
_atom_site_label
_atom_site_type_symbol
_atom_site_fract_x
_atom_site_fract_y
_atom_site_fract_z
O1	O	1.667835	0.176393	-0.114394
O2	O	1.302356	0.193199	-0.114371
O3	O	1.493498	0.002057	-0.114383
O4	O	1.476693	0.367535	-0.114381
O5	O	1.493496	0.002062	0.114197
O6	O	1.302354	0.193204	0.114209
O7	O	1.667832	0.176398	0.114186
Zn8	Zn	1.485093	0.184802	0.150490
Zn9	Zn	1.485096	0.184795	-0.150674
O10	O	1.476691	0.367540	0.114199
C11	C	1.255557	0.191968	-0.000078
C12	C	1.116114	0.188276	-0.000069
C13	C	1.036629	0.300817	-0.000089
C14	C	0.905608	0.297341	-0.000113
C15	C	0.933570	0.068771	-0.000104
C16	C	1.064589	0.072249	-0.000070
C17	C	1.088154	0.416844	-0.000088
C18	C	1.008667	0.529395	-0.000109
C19	C	0.877647	0.525918	-0.000133
C20	C	0.826112	0.409891	-0.000136
C21	C	1.492263	-0.044739	-0.000096
C22	C	1.488570	-0.184182	-0.000105
C23	C	1.486839	-0.249696	-0.124702
C24	C	1.483359	-0.380717	-0.124695
C25	C	1.483346	-0.380697	0.124515
C26	C	1.486817	-0.249678	0.124507
C27	C	1.488592	-0.184200	-0.249314
C28	C	1.486862	-0.249715	-0.373921
C29	C	1.483382	-0.380735	-0.373914
C30	C	1.481631	-0.446241	-0.249301
C31	C	1.714632	0.177629	-0.000109
C32	C	1.854075	0.181321	-0.000127
C33	C	1.477926	0.414336	-0.000091
C34	C	1.481619	0.553779	-0.000091
N35	N	1.485100	0.184805	0.356026
N36	N	1.485099	0.184782	-0.356211
C37	C	1.569760	0.100197	0.427947
C38	C	1.569756	0.100181	0.571830
C39	C	1.400430	0.269395	0.571859
C40	C	1.400428	0.269403	0.427979
C41	C	1.654431	0.015599	0.355994
C42	C	1.739099	-0.069016	0.427915
C43	C	1.739095	-0.069031	0.571798
C44	C	1.654425	0.015568	0.643760
H45	H	0.812931	0.617562	-0.000136
O46	O	1.821250	-0.151117	0.357804
C47	C	1.803058	-0.133009	0.215389
H48	H	1.757044	-0.033572	0.195735
H49	H	1.739393	-0.204641	0.174594
C50	C	1.987858	-0.272919	0.165616
C51	C	1.931353	-0.150784	0.141476
H52	H	2.066995	-0.283888	0.120020
H53	H	2.000112	-0.285123	0.261563
H54	H	1.934792	-0.332598	0.131620
H55	H	1.984412	-0.091107	0.175487
H56	H	1.919110	-0.138570	0.045532
H57	H	1.478779	-0.552924	-0.249306
H58	H	0.719425	0.407069	-0.000134
H59	H	1.808026	-0.137936	0.630354
O60	O	1.318315	0.351530	0.641972
C61	C	1.336451	0.333359	0.784387
H62	H	1.435891	0.287345	0.804022
H63	H	1.264824	0.269704	0.825220
C64	C	1.196558	0.518171	0.834156
C65	C	1.318696	0.461666	0.858272
H66	H	1.185600	0.597315	0.879735
H67	H	1.184334	0.530412	0.738209
H68	H	1.136883	0.465112	0.868183
H69	H	1.378368	0.514717	0.824230
H70	H	1.330929	0.449437	0.954216
O71	O	0.883452	-0.043898	-0.000363
C72	C	0.808513	-0.052733	-0.118751
H73	H	0.840090	0.013166	-0.201482
H74	H	0.705453	-0.024662	-0.092015
C75	C	0.784431	-0.270260	-0.070825
C76	C	0.823222	-0.189329	-0.172440
H77	H	0.793498	-0.354520	-0.103940
H78	H	0.834915	-0.264308	0.008939
H79	H	0.698550	-0.246852	-0.048553
H80	H	0.909104	-0.212728	-0.194697
H81	H	0.772752	-0.195289	-0.252209
O82	O	1.141628	-0.037189	-0.000124
C83	C	1.068059	-0.140343	-0.000113
H84	H	0.970576	-0.109324	-0.043408
H85	H	1.058399	-0.175854	0.109544
C86	C	1.252162	-0.285051	-0.036571
C87	C	1.132434	-0.246956	-0.089758
H88	H	1.291872	-0.350818	-0.091862
H89	H	1.301728	-0.215555	-0.036573
H90	H	1.244095	-0.314635	0.054809
H91	H	1.140503	-0.217358	-0.181129
H92	H	1.082870	-0.316449	-0.089773
H93	H	1.654421	0.015540	0.760919
H94	H	1.491429	-0.077517	-0.249334
O95	O	1.488376	-0.185937	-0.494881
C96	C	1.381785	-0.096899	-0.502343
H97	H	1.346120	-0.072827	-0.394154
H98	H	1.304410	-0.138109	-0.563805
C99	C	1.461855	-0.006054	-0.706494
C100	C	1.418057	0.023520	-0.573614
H101	H	1.484226	0.068225	-0.750463
H102	H	1.533666	-0.066043	-0.701471
H103	H	1.397368	-0.040398	-0.757695
H104	H	1.482548	0.057848	-0.522410
H105	H	1.346258	0.083518	-0.578630
H106	H	1.481961	-0.434073	-0.475375
O107	O	1.481607	-0.444126	0.245679
C108	C	1.483912	-0.358208	0.355653
H109	H	1.446693	-0.259962	0.319125
H110	H	1.584860	-0.356569	0.393957
C111	C	1.446057	-0.519953	0.518248
C112	C	1.400333	-0.399287	0.473386
H113	H	1.394507	-0.545294	0.590875
H114	H	1.444508	-0.577840	0.444158
H115	H	1.530179	-0.518572	0.550159
H116	H	1.316218	-0.400674	0.441461
H117	H	1.401866	-0.341402	0.547475
O118	O	1.318367	0.351645	0.357952
C119	C	1.386292	0.429777	0.274750
H120	H	1.484134	0.380675	0.253192
H121	H	1.395620	0.522682	0.330201
C122	C	1.195551	0.516263	0.164559
C123	C	1.315718	0.455950	0.138071
H124	H	1.152016	0.532413	0.080251
H125	H	1.149787	0.463628	0.220617
H126	H	1.203341	0.593677	0.210772
H127	H	1.307926	0.378531	0.091876
H128	H	1.361480	0.508573	0.082002
H129	H	1.194836	0.419687	-0.000075
H130	H	1.050636	0.623860	-0.000095
H131	H	1.488200	-0.196331	0.225964
H132	H	1.654444	0.015606	0.238837
