data_functionalizedCrystal
_audit_creation_method	'MofGen! by Chris Wilmer'
_symmetry_space_group_name_H-M	'P1'
_symmetry_Int_Tables_number	1
_symmetry_cell_setting	triclinic
loop_
_symmetry_equiv_pos_as_xyz
  x,y,z
_cell_length_a	34.408637
_cell_length_b	34.407814
_cell_length_c	34.404193
_cell_angle_alpha	60.004510
_cell_angle_beta	60.009006
_cell_angle_gamma	59.994604
loop_
_atom_site_label
_atom_site_type_symbol
_atom_site_fract_x
_atom_site_fract_y
_atom_site_fract_z
O1	O	0.053973	-0.567860	0.474801
O2	O	0.553973	-0.067860	0.974801
O3	O	0.020377	-0.442124	0.382567
O4	O	0.520377	0.057876	0.882567
O5	O	0.100004	-0.521670	0.382483
O6	O	0.600004	-0.021670	0.882483
O7	O	-0.025653	-0.488314	0.474886
O8	O	0.474347	0.011686	0.974886
O9	O	0.126426	-0.495253	0.408816
O10	O	0.626426	0.004747	0.908816
O11	O	0.046800	-0.415707	0.408900
O12	O	0.546800	0.084293	0.908900
O13	O	0.080396	-0.541443	0.501134
O14	O	0.580396	-0.041443	1.001134
Zn15	Zn	0.067793	-0.474381	0.459198
Zn16	Zn	0.567793	0.025619	0.959198
Zn17	Zn	0.032980	-0.509186	0.424503
Zn18	Zn	0.532980	-0.009186	0.924503
O19	O	0.000769	-0.461897	0.501219
O20	O	0.500769	0.038103	1.001219
N21	N	0.091552	-0.450631	0.482879
N22	N	0.591552	0.049369	0.982879
N23	N	0.009225	-0.532940	0.400823
N24	N	0.509225	-0.032940	0.900823
C25	C	0.142848	-0.268847	0.534081
C26	C	0.642848	0.231153	1.034081
C27	C	0.142979	-0.399386	0.664559
C28	C	0.642979	0.100614	1.164559
C29	C	0.142862	-0.399365	0.534081
C30	C	0.642862	0.100635	1.034081
C31	C	0.273409	-0.399338	0.533986
C32	C	0.773409	0.100662	1.033986
C33	C	0.157225	-0.311914	0.548422
C34	C	0.657225	0.188086	1.048422
C35	C	0.157300	-0.385019	0.621491
C36	C	0.657300	0.114981	1.121491
C37	C	0.230339	-0.384991	0.548370
C38	C	0.730339	0.115009	1.048370
C39	C	0.157235	-0.385007	0.548422
C40	C	0.657235	0.114993	1.048422
C41	C	0.124548	-0.214028	0.515827
C42	C	0.624548	0.285972	1.015827
C43	C	0.124571	-0.417639	0.515827
C44	C	0.624571	0.082361	1.015827
C45	C	0.175526	-0.366733	0.566676
C46	C	0.675526	0.133267	1.066676
C47	C	0.353121	-0.385580	0.491988
C48	C	0.853121	0.114420	0.991988
C49	C	0.402952	-0.402180	0.475348
C50	C	0.902952	0.097820	0.975348
C51	C	0.402981	-0.482812	0.506096
C52	C	0.902981	0.017188	1.006096
C53	C	0.353151	-0.466211	0.522737
C54	C	0.853151	0.033789	1.022737
C55	C	0.136544	-0.189099	0.466839
C56	C	0.636544	0.310901	0.966839
C57	C	0.119905	-0.139265	0.450247
C58	C	0.619905	0.360735	0.950247
C59	C	0.079280	-0.139291	0.531632
C60	C	0.579280	0.360709	1.031632
C61	C	0.095918	-0.189125	0.548224
C62	C	0.595918	0.310875	1.048224
C63	C	0.075577	-0.405615	0.527900
C64	C	0.575577	0.094385	1.027900
C65	C	0.058953	-0.422228	0.511301
C66	C	0.558953	0.077772	1.011301
C67	C	0.140315	-0.462889	0.470566
C68	C	0.640315	0.037111	0.970566
C69	C	0.156941	-0.446276	0.487159
C70	C	0.656941	0.053724	0.987159
C71	C	0.075772	-0.405653	0.744326
C72	C	0.575772	0.094347	1.244326
C73	C	0.059206	-0.422280	0.794159
C74	C	0.559206	0.077720	1.294159
C75	C	0.140607	-0.462951	0.794094
C76	C	0.640607	0.037049	1.294094
C77	C	0.157172	-0.446325	0.744260
C78	C	0.657172	0.053675	1.244260
C79	C	0.124753	-0.417674	0.719377
C80	C	0.624753	0.082326	1.219377
C81	C	0.328223	-0.417595	0.515681
C82	C	0.828223	0.082405	1.015681
C83	C	-0.172390	-0.583988	0.349141
C84	C	0.327610	-0.083988	0.849141
C85	C	-0.041751	-0.584138	0.218783
C86	C	0.458249	-0.084138	0.718783
C87	C	-0.041941	-0.584130	0.349402
C88	C	0.458059	-0.084130	0.849402
C89	C	-0.041957	-0.714607	0.349338
C90	C	0.458043	-0.214607	0.849338
C91	C	-0.129326	-0.598388	0.334853
C92	C	0.370674	-0.098388	0.834853
C93	C	-0.056165	-0.598473	0.261852
C94	C	0.443835	-0.098473	0.761852
C95	C	-0.056282	-0.671535	0.334962
C96	C	0.443718	-0.171535	0.834962
C97	C	-0.056272	-0.598469	0.334999
C98	C	0.443728	-0.098469	0.834999
C99	C	-0.227205	-0.565659	0.367327
C100	C	0.272795	-0.065659	0.867327
C101	C	-0.023703	-0.565882	0.367734
C102	C	0.476297	-0.065882	0.867734
C103	C	-0.074511	-0.616717	0.316667
C104	C	0.425489	-0.116717	0.816667
C105	C	-0.055754	-0.794298	0.391257
C106	C	0.444246	-0.294298	0.891257
C107	C	-0.039181	-0.844132	0.407888
C108	C	0.460819	-0.344132	0.907888
C109	C	0.041447	-0.844215	0.377269
C110	C	0.541447	-0.344215	0.877269
C111	C	0.024873	-0.794381	0.360637
C112	C	0.524873	-0.294381	0.860637
C113	C	-0.252183	-0.577666	0.416302
C114	C	0.247817	-0.077666	0.916302
C115	C	-0.302014	-0.561001	0.432833
C116	C	0.197986	-0.061001	0.932833
C117	C	-0.301886	-0.520329	0.351410
C118	C	0.198114	-0.020329	0.851410
C119	C	-0.252055	-0.536994	0.334880
C120	C	0.247945	-0.036994	0.834880
C121	C	-0.035709	-0.516892	0.355682
C122	C	0.464291	-0.016892	0.855682
C123	C	-0.019129	-0.500308	0.372353
C124	C	0.480871	-0.000308	0.872353
C125	C	0.021465	-0.581700	0.413115
C126	C	0.521465	-0.081700	0.913115
C127	C	0.004884	-0.598286	0.396450
C128	C	0.504884	-0.098286	0.896450
C129	C	-0.035389	-0.516907	0.139026
C130	C	0.464611	-0.016907	0.639026
C131	C	-0.018707	-0.500324	0.089193
C132	C	0.481293	-0.000324	0.589193
C133	C	0.021949	-0.581721	0.089240
C134	C	0.521949	-0.081721	0.589240
C135	C	0.005268	-0.598303	0.139074
C136	C	0.505268	-0.098303	0.639074
C137	C	-0.023402	-0.565894	0.163965
C138	C	0.476598	-0.065894	0.663965
C139	C	-0.023728	-0.769425	0.367633
C140	C	0.476272	-0.269425	0.867633
N141	N	0.427173	-0.450553	0.482630
N142	N	0.927173	0.049447	0.982630
O143	O	0.589997	-0.458460	0.365361
O144	O	1.089997	0.041540	0.865361
O145	O	0.590185	-0.550997	0.490963
O146	O	1.090185	-0.050997	0.990963
O147	O	0.590104	-0.550786	0.411309
O148	O	1.090104	-0.050786	0.911309
O149	O	0.590077	-0.458671	0.445016
O150	O	1.090077	0.041329	0.945016
O151	O	0.510940	-0.524462	0.437777
O152	O	1.010940	-0.024462	0.937777
O153	O	0.511020	-0.524674	0.517432
O154	O	1.011020	-0.024674	1.017432
O155	O	0.510832	-0.432136	0.391830
O156	O	1.010832	0.067864	0.891830
Zn157	Zn	0.498357	-0.474225	0.458833
Zn158	Zn	0.998357	0.025775	0.958833
Zn159	Zn	0.602660	-0.508908	0.423960
Zn160	Zn	1.102660	-0.008908	0.923960
O161	O	0.510913	-0.432348	0.471484
O162	O	1.010913	0.067652	0.971484
N163	N	0.673844	-0.532580	0.400158
N164	N	1.173844	-0.032580	0.900158
N165	N	0.091520	-0.115070	0.482873
N166	N	0.591520	0.384930	0.982873
O167	O	-0.025663	0.047841	0.474857
O168	O	0.474337	0.547841	0.974857
O169	O	0.099940	0.047877	0.382299
O170	O	0.599940	0.547877	0.882299
O171	O	0.020247	0.047844	0.382560
O172	O	0.520247	0.547844	0.882560
O173	O	0.054030	0.047874	0.474596
O174	O	0.554030	0.547874	0.974596
O175	O	0.046674	-0.031326	0.408942
O176	O	0.546674	0.468674	0.908942
O177	O	0.126367	-0.031293	0.408680
O178	O	0.626367	0.468707	0.908680
O179	O	0.000764	-0.031329	0.501238
O180	O	0.500764	0.468671	1.001238
Zn181	Zn	0.067761	-0.043881	0.459148
Zn182	Zn	0.567761	0.456119	0.959148
Zn183	Zn	0.032943	0.060429	0.424389
Zn184	Zn	0.532943	0.560429	0.924389
O185	O	0.080457	-0.031296	0.500977
O186	O	0.580457	0.468704	1.000977
N187	N	0.009178	0.131618	0.400665
N188	N	0.509178	0.631618	0.900665
N189	N	0.091852	-0.450680	0.818332
N190	N	0.591852	0.049320	1.318332
O191	O	0.083862	-0.567845	0.981235
O192	O	0.583862	-0.067845	1.481235
O193	O	-0.008657	-0.442198	0.981276
O194	O	0.491343	0.057802	1.481276
O195	O	-0.008441	-0.521875	0.981252
O196	O	0.491559	-0.021875	1.481252
O197	O	0.083646	-0.488168	0.981258
O198	O	0.583646	0.011832	1.481258
O199	O	0.017919	-0.495468	0.902085
O200	O	0.517919	0.004532	1.402085
O201	O	0.017703	-0.415791	0.902109
O202	O	0.517703	0.084209	1.402109
O203	O	0.110222	-0.541438	0.902067
O204	O	0.610222	-0.041438	1.402067
Zn205	Zn	0.068148	-0.474422	0.889518
Zn206	Zn	0.568148	0.025578	1.389518
Zn207	Zn	0.033417	-0.509214	0.993825
Zn208	Zn	0.533417	-0.009214	1.493825
O209	O	0.110006	-0.461761	0.902091
O210	O	0.610006	0.038239	1.402091
N211	N	0.009712	-0.532961	1.065011
N212	N	0.509712	-0.032961	1.565011
C213	C	0.030439	-0.413071	0.383027
C214	C	0.530439	0.086929	0.883027
C215	C	0.129046	-0.511580	0.382922
C216	C	0.629046	-0.011580	0.882922
C217	C	0.070334	-0.570496	0.500675
C218	C	0.570334	-0.070496	1.000675
C219	C	-0.028274	-0.471987	0.500780
C220	C	0.471726	0.028013	1.000780
C221	C	0.550625	-0.550579	0.520021
C222	C	1.050625	-0.050579	1.020021
C223	C	0.550527	-0.550317	0.421379
C224	C	1.050527	-0.050317	0.921379
C225	C	0.550389	-0.432554	0.362773
C226	C	1.050389	0.067446	0.862773
C227	C	0.550491	-0.432816	0.461414
C228	C	1.050491	0.067184	0.961414
C229	C	0.128944	0.008394	0.382712
C230	C	0.628944	0.508394	0.882712
C231	C	0.030287	0.008256	0.383068
C232	C	0.530287	0.508256	0.883068
C233	C	-0.028273	0.008252	0.500793
C234	C	0.471727	0.508252	1.000793
C235	C	0.070417	0.008292	0.500470
C236	C	0.570417	0.508292	1.000470
C237	C	-0.008218	-0.413165	0.941698
C238	C	0.491782	0.086835	1.441698
C239	C	-0.007945	-0.511830	0.941653
C240	C	0.492055	-0.011830	1.441653
C241	C	0.109783	-0.570471	0.941646
C242	C	0.609783	-0.070471	1.441646
C243	C	0.109516	-0.471800	0.941673
C244	C	0.609516	0.028200	1.441673
H245	H	0.019320	-0.412483	0.814467
H246	H	0.519320	0.087517	1.314467
C247	C	0.180085	-0.265477	0.456136
C248	C	0.680085	0.234523	0.956136
C249	C	0.168012	-0.216472	0.431227
C250	C	0.668012	0.283528	0.931227
H251	H	0.199515	-0.282376	0.434150
H252	H	0.699515	0.217624	0.934150
H253	H	0.151922	-0.273654	0.475590
H254	H	0.651922	0.226346	0.975590
H255	H	0.197014	-0.273637	0.475555
H256	H	0.697014	0.226363	0.975555
H257	H	0.151080	-0.208311	0.411811
H258	H	0.651080	0.291689	0.911811
H259	H	0.196180	-0.208292	0.411765
H260	H	0.696180	0.291708	0.911765
H261	H	0.164941	0.008624	0.353583
H262	H	0.664941	0.508624	0.853583
H263	H	-0.064344	0.008241	0.529850
H264	H	0.435656	0.508241	1.029850
C265	C	0.039644	0.008291	0.580352
C266	C	0.539644	0.508291	1.080352
C267	C	0.080180	0.008301	0.539507
C268	C	0.580180	0.508301	1.039507
H269	H	0.045671	0.008300	0.604450
H270	H	0.545671	0.508300	1.104450
H271	H	0.032102	-0.019322	0.591354
H272	H	0.532102	0.480678	1.091354
H273	H	0.013669	0.035895	0.572953
H274	H	0.513669	0.535895	1.072953
H275	H	0.106155	-0.019305	0.546906
H276	H	0.606155	0.480695	1.046906
H277	H	0.087728	0.035917	0.528504
H278	H	0.587728	0.535917	1.028504
C279	C	-0.030486	-0.334976	0.941724
C280	C	0.469514	0.165024	1.441724
C281	C	-0.047433	-0.364453	0.941715
C282	C	0.452567	0.135547	1.441715
H283	H	-0.054698	-0.304904	0.941738
H284	H	0.445302	0.195096	1.441738
H285	H	-0.003448	-0.330804	0.914116
H286	H	0.496552	0.169196	1.414116
H287	H	-0.021828	-0.349227	0.969330
H288	H	0.478172	0.150773	1.469330
H289	H	-0.056088	-0.350204	0.914107
H290	H	0.443912	0.149796	1.414107
H291	H	-0.074480	-0.368623	0.969327
H292	H	0.425520	0.131377	1.469327
H293	H	0.138832	-0.606554	0.941627
H294	H	0.638832	-0.106554	1.441627
H295	H	-0.036863	-0.519031	0.941619
H296	H	0.463137	-0.019031	1.441619
H297	H	0.023050	0.008252	0.354152
H298	H	0.523050	0.508252	0.854152
C299	C	0.550417	-0.352907	0.430601
C300	C	1.050417	0.147093	0.930601
C301	C	0.550482	-0.393751	0.471144
C302	C	1.050482	0.106249	0.971144
H303	H	0.550415	-0.328792	0.436607
H304	H	1.050415	0.171208	0.936607
H305	H	0.522792	-0.341930	0.423082
H306	H	1.022792	0.158070	0.923082
H307	H	0.578005	-0.360298	0.404618
H308	H	1.078005	0.139702	0.904618
H309	H	0.522892	-0.386361	0.497127
H310	H	1.022892	0.113639	0.997127
H311	H	0.578110	-0.404729	0.478669
H312	H	1.078110	0.095271	0.978669
H313	H	0.166679	-0.486211	0.447227
H314	H	0.666679	0.013789	0.947227
C315	C	0.061325	-0.364121	0.303107
C316	C	0.561325	0.135879	0.803107
C317	C	0.020752	-0.364313	0.343916
C318	C	0.520752	0.135687	0.843916
H319	H	0.055344	-0.334018	0.278963
H320	H	0.555344	0.165982	0.778963
H321	H	0.068857	-0.388313	0.292156
H322	H	0.568857	0.111687	0.792156
H323	H	0.087287	-0.369893	0.310524
H324	H	0.587287	0.130107	0.810524
H325	H	-0.005210	-0.358545	0.336499
H326	H	0.494790	0.141455	0.836499
H327	H	0.013214	-0.340114	0.354868
H328	H	0.513214	0.159886	0.854868
C329	C	-0.077096	-0.503021	0.580718
C330	C	0.422904	-0.003021	1.080718
C331	C	-0.076994	-0.462398	0.539952
C332	C	0.423006	0.037602	1.039952
H333	H	-0.107175	-0.497101	0.604900
H334	H	0.392825	0.002899	1.104900
H335	H	-0.052883	-0.510542	0.591636
H336	H	0.447117	-0.010542	1.091636
H337	H	-0.071306	-0.528969	0.573267
H338	H	0.428694	-0.028969	1.073267
H339	H	-0.082780	-0.436451	0.547403
H340	H	0.417220	0.063549	1.047403
H341	H	-0.101214	-0.454871	0.529033
H342	H	0.398786	0.045129	1.029033
C343	C	0.159468	-0.423787	0.900973
C344	C	0.659468	0.076213	1.400973
C345	C	0.148576	-0.462066	0.941665
C346	C	0.648576	0.037934	1.441665
H347	H	0.183583	-0.417781	0.900968
H348	H	0.683583	0.082219	1.400968
H349	H	0.131763	-0.396280	0.900989
H350	H	0.631763	0.103720	1.400989
H351	H	0.170452	-0.431345	0.873366
H352	H	0.670452	0.068655	1.373366
H353	H	0.137588	-0.454507	0.969273
H354	H	0.637588	0.045493	1.469273
H355	H	0.176286	-0.489580	0.941654
H356	H	0.676286	0.010420	1.441654
C357	C	-0.006356	-0.367120	0.749401
C358	C	0.493644	0.132880	1.249401
C359	C	0.040135	-0.374159	0.716977
C360	C	0.540135	0.125841	1.216977
H361	H	-0.028356	-0.347681	0.732515
H362	H	0.471644	0.152319	1.232515
H363	H	-0.011125	-0.351910	0.768834
H364	H	0.488875	0.148090	1.268834
H365	H	-0.011119	-0.396997	0.768837
H366	H	0.488881	0.103003	1.268837
H367	H	0.044899	-0.344283	0.697544
H368	H	0.544899	0.155717	1.197544
H369	H	0.044905	-0.389369	0.697536
H370	H	0.544905	0.110631	1.197536
H371	H	0.167007	-0.486271	0.814352
H372	H	0.667007	0.013729	1.314352
C373	C	0.509817	-0.573196	0.400557
C374	C	1.009817	-0.073196	0.900557
C375	C	0.550540	-0.589384	0.411648
C376	C	1.050540	-0.089384	0.911648
H377	H	0.509824	-0.597316	0.394553
H378	H	1.009824	-0.097316	0.894553
H379	H	0.509776	-0.545489	0.373057
H380	H	1.009776	-0.045489	0.873057
H381	H	0.482232	-0.565812	0.426546
H382	H	0.982232	-0.065812	0.926546
H383	H	0.578125	-0.596765	0.385658
H384	H	1.078125	-0.096765	0.885658
H385	H	0.550585	-0.617100	0.439151
H386	H	1.050585	-0.117100	0.939151
C387	C	-0.006983	-0.384078	0.483053
C388	C	0.493017	0.115922	0.983053
C389	C	0.005097	-0.409011	0.524571
C390	C	0.505097	0.090989	1.024571
H391	H	-0.040233	-0.375916	0.491247
H392	H	0.459767	0.124084	0.991247
H393	H	0.009911	-0.403509	0.463608
H394	H	0.509911	0.096491	0.963608
H395	H	0.001172	-0.355896	0.466153
H396	H	0.501172	0.144104	0.966153
H397	H	-0.003056	-0.437195	0.541470
H398	H	0.496944	0.062805	1.041470
H399	H	-0.011804	-0.389580	0.544024
H400	H	0.488196	0.110420	1.044024
H401	H	0.197059	-0.456117	0.723950
H402	H	0.697059	0.043883	1.223950
H403	H	0.550674	-0.579628	0.556096
H404	H	1.050674	-0.079628	1.056096
C405	C	0.550291	-0.410283	0.284609
C406	C	1.050291	0.089717	0.784609
C407	C	0.550310	-0.393330	0.314079
C408	C	1.050310	0.106670	0.814079
H409	H	0.550245	-0.386068	0.254547
H410	H	1.050245	0.113932	0.754547
H411	H	0.522704	-0.418958	0.298874
H412	H	1.022704	0.081042	0.798874
H413	H	0.577917	-0.437317	0.280413
H414	H	1.077917	0.062683	0.780413
H415	H	0.522682	-0.366298	0.318278
H416	H	1.022682	0.133702	0.818278
H417	H	0.577900	-0.384649	0.299810
H418	H	1.077900	0.115351	0.799810
H419	H	0.049217	-0.382297	0.551240
H420	H	0.549217	0.117703	1.051240
C421	C	0.186287	-0.559426	0.332782
C422	C	0.686287	-0.059426	0.832782
C423	C	0.177765	-0.521173	0.343749
C424	C	0.677765	-0.021173	0.843749
H425	H	0.216365	-0.565349	0.308601
H426	H	0.716365	-0.065349	0.808601
H427	H	0.162072	-0.551895	0.321863
H428	H	0.662072	-0.051895	0.821863
H429	H	0.186210	-0.586978	0.360446
H430	H	0.686210	-0.086978	0.860446
H431	H	0.177839	-0.493619	0.316086
H432	H	0.677839	0.006381	0.816086
H433	H	0.201987	-0.528701	0.354666
H434	H	0.701987	-0.028701	0.854666
C435	C	0.235697	-0.488126	0.445214
C436	C	0.735697	0.011874	0.945214
C437	C	0.210797	-0.459485	0.473883
C438	C	0.710797	0.040515	0.973883
H439	H	0.268945	-0.496280	0.437018
H440	H	0.768945	0.003720	0.937018
H441	H	0.227492	-0.471214	0.417058
H442	H	0.727492	0.028786	0.917058
H443	H	0.227547	-0.516311	0.462126
H444	H	0.727547	-0.016311	0.962126
H445	H	0.218945	-0.431298	0.456970
H446	H	0.718945	0.068702	0.956970
H447	H	0.219007	-0.476397	0.502043
H448	H	0.719007	0.023603	1.002043
H449	H	0.332881	-0.492283	0.542031
H450	H	0.832881	0.007717	1.042031
H451	H	0.423225	-0.376108	0.456057
H452	H	0.923225	0.123892	0.956057
C453	C	0.398005	-0.560847	0.538161
C454	C	0.898005	-0.060847	1.038161
C455	C	0.430383	-0.536250	0.513849
C456	C	0.930383	-0.036250	1.013849
H457	H	0.414925	-0.593839	0.542949
H458	H	0.914925	-0.093839	1.042949
H459	H	0.378549	-0.549162	0.519921
H460	H	0.878549	-0.049162	1.019921
H461	H	0.378589	-0.556228	0.568106
H462	H	0.878589	-0.056228	1.068106
H463	H	0.449797	-0.540867	0.483903
H464	H	0.949797	-0.040867	0.983903
H465	H	0.449847	-0.547939	0.532090
H466	H	0.949847	-0.047939	1.032090
H467	H	0.129672	-0.118967	0.410356
H468	H	0.629672	0.381033	0.910356
C469	C	0.358099	-0.307547	0.459927
C470	C	0.858099	0.192453	0.959927
C471	C	0.325718	-0.332139	0.484235
C472	C	0.825718	0.167861	0.984235
H473	H	0.341182	-0.274556	0.455142
H474	H	0.841182	0.225444	0.955142
H475	H	0.377514	-0.312165	0.429985
H476	H	0.877514	0.187835	0.929985
H477	H	0.377556	-0.319238	0.478172
H478	H	0.877556	0.180762	0.978172
H479	H	0.306263	-0.320451	0.465987
H480	H	0.806263	0.179549	0.965987
H481	H	0.306295	-0.327518	0.514181
H482	H	0.806295	0.172482	1.014181
C483	C	0.072779	-0.123964	0.595866
C484	C	0.572779	0.376036	1.095866
C485	C	0.047815	-0.111918	0.567246
C486	C	0.547815	0.388082	1.067246
H487	H	0.053352	-0.107069	0.617855
H488	H	0.553352	0.392931	1.117855
H489	H	0.100938	-0.115780	0.576405
H490	H	0.600938	0.384220	1.076405
H491	H	0.080972	-0.157212	0.612754
H492	H	0.580972	0.342788	1.112754
H493	H	0.039625	-0.078670	0.550355
H494	H	0.539625	0.421330	1.050355
H495	H	0.019647	-0.120099	0.586709
H496	H	0.519647	0.379901	1.086709
C497	C	0.124321	-0.245139	0.614059
C498	C	0.624321	0.254861	1.114059
C499	C	0.082749	-0.216511	0.602076
C500	C	0.582749	0.283489	1.102076
H501	H	0.116194	-0.262044	0.647306
H502	H	0.616194	0.237956	1.147306
H503	H	0.141218	-0.225680	0.605849
H504	H	0.641218	0.274320	1.105849
H505	H	0.143742	-0.267114	0.597151
H506	H	0.643742	0.232886	1.097151
H507	H	0.063330	-0.194534	0.618980
H508	H	0.563330	0.305466	1.118980
H509	H	0.065845	-0.235972	0.610290
H510	H	0.565845	0.264028	1.110290
C511	C	-0.060586	-0.421534	0.094158
C512	C	0.439414	0.078466	0.594158
C513	C	-0.031895	-0.446474	0.061783
C514	C	0.468105	0.053526	0.561783
H515	H	-0.068728	-0.388289	0.077235
H516	H	0.431272	0.111711	0.577235
H517	H	-0.043718	-0.429716	0.113639
H518	H	0.456282	0.070284	0.613639
H519	H	-0.088774	-0.429680	0.113551
H520	H	0.411226	0.070320	0.613551
H521	H	-0.003705	-0.438331	0.042392
H522	H	0.496295	0.061669	0.542392
H523	H	-0.048763	-0.438289	0.042294
H524	H	0.451237	0.061711	0.542294
H525	H	0.045284	-0.608113	0.068976
H526	H	0.545284	-0.108113	0.568976
C527	C	-0.044529	-0.488361	0.195102
C528	C	0.455471	0.011639	0.695102
C529	C	-0.066906	-0.481280	0.166383
C530	C	0.433094	0.018720	0.666383
H531	H	-0.063987	-0.466369	0.211993
H532	H	0.436013	0.033631	0.711993
H533	H	-0.014652	-0.483606	0.175708
H534	H	0.485348	0.016394	0.675708
H535	H	-0.039780	-0.519911	0.217087
H536	H	0.460220	-0.019911	0.717087
H537	H	-0.071652	-0.449732	0.144396
H538	H	0.428348	0.050268	0.644396
H539	H	-0.096792	-0.486032	0.185779
H540	H	0.403208	0.013968	0.685779
H541	H	0.077514	-0.606615	0.529644
H542	H	0.577514	-0.106615	1.029644
H543	H	-0.058984	-0.490504	0.332300
H544	H	0.441016	0.009496	0.832300
H545	H	-0.231954	-0.601008	0.442726
H546	H	0.268046	-0.101008	0.942726
C547	C	0.047123	-0.677095	0.134114
C548	C	0.547123	-0.177095	0.634114
C549	C	0.018442	-0.652154	0.166487
C550	C	0.518442	-0.152154	0.666487
H551	H	0.055252	-0.710340	0.151037
H552	H	0.555252	-0.210340	0.651037
H553	H	0.075314	-0.668963	0.114724
H554	H	0.575314	-0.168963	0.614724
H555	H	0.030249	-0.668903	0.114629
H556	H	0.530249	-0.168903	0.614629
H557	H	0.035317	-0.660345	0.185970
H558	H	0.535317	-0.160345	0.685970
H559	H	-0.009754	-0.660290	0.185885
H560	H	0.490246	-0.160290	0.685885
H561	H	0.044746	-0.608091	0.436494
H562	H	0.544746	-0.108091	0.936494
C563	C	-0.015327	-0.425874	0.309543
C564	C	0.484673	0.074126	0.809543
C565	C	-0.032308	-0.446458	0.359102
C566	C	0.467692	0.053542	0.859102
H567	H	-0.023457	-0.392631	0.301363
H568	H	0.476543	0.107369	0.801363
H569	H	-0.029299	-0.431105	0.295509
H570	H	0.470701	0.068895	0.795509
H571	H	0.018293	-0.439922	0.298150
H572	H	0.518293	0.060078	0.798150
H573	H	-0.065929	-0.432412	0.370496
H574	H	0.434071	0.067588	0.870496
H575	H	-0.018338	-0.441223	0.373142
H576	H	0.481662	0.058777	0.873142
C577	C	0.046677	-0.677077	0.438416
C578	C	0.546677	-0.177077	0.938416
C579	C	0.018083	-0.652138	0.409693
C580	C	0.518083	-0.152138	0.909693
H581	H	0.054828	-0.710322	0.446588
H582	H	0.554828	-0.210322	0.946588
H583	H	0.029736	-0.668890	0.466582
H584	H	0.529736	-0.168890	0.966582
H585	H	0.074864	-0.668936	0.421552
H586	H	0.574864	-0.168936	0.921552
H587	H	-0.010106	-0.660276	0.426557
H588	H	0.489894	-0.160276	0.926557
H589	H	0.035024	-0.660328	0.381522
H590	H	0.535024	-0.160328	0.881522
H591	H	0.081021	-0.864532	0.371574
H592	H	0.581021	-0.364532	0.871574
C593	C	0.106237	-0.799476	0.332049
C594	C	0.606237	-0.299476	0.832049
C595	C	0.060080	-0.767042	0.334671
C596	C	0.560080	-0.267042	0.834671
H597	H	0.127971	-0.782597	0.316022
H598	H	0.627971	-0.282597	0.816022
H599	H	0.114588	-0.818913	0.315061
H600	H	0.614588	-0.318913	0.815061
H601	H	0.107454	-0.818909	0.363288
H602	H	0.607454	-0.318909	0.863288
H603	H	0.058861	-0.747612	0.303432
H604	H	0.558861	-0.247612	0.803432
H605	H	0.051726	-0.747597	0.351658
H606	H	0.551726	-0.247597	0.851658
H607	H	-0.095331	-0.773979	0.396956
H608	H	0.404669	-0.273979	0.896956
C609	C	-0.097552	-0.859417	0.403570
C610	C	0.402448	-0.359417	0.903570
C611	C	-0.074385	-0.871478	0.433859
C612	C	0.425615	-0.371478	0.933859
H613	H	-0.119286	-0.876298	0.419607
H614	H	0.380714	-0.376298	0.919607
H615	H	-0.074708	-0.867607	0.375899
H616	H	0.425292	-0.367607	0.875899
H617	H	-0.114378	-0.826165	0.394670
H618	H	0.385622	-0.326165	0.894670
H619	H	-0.057556	-0.904729	0.442756
H620	H	0.442444	-0.404729	0.942756
H621	H	-0.097232	-0.863290	0.461538
H622	H	0.402768	-0.363290	0.961538
C623	C	-0.297138	-0.602891	0.511658
C624	C	0.202862	-0.102891	1.011658
C625	C	-0.329474	-0.574205	0.486669
C626	C	0.170526	-0.074205	0.986669
H627	H	-0.314091	-0.611046	0.544894
H628	H	0.185909	-0.111046	1.044894
H629	H	-0.277699	-0.586012	0.503535
H630	H	0.222301	-0.086012	1.003535
H631	H	-0.277701	-0.631074	0.503495
H632	H	0.222299	-0.131074	1.003495
H633	H	-0.348909	-0.546019	0.494829
H634	H	0.151091	-0.046019	0.994829
H635	H	-0.348921	-0.591084	0.494796
H636	H	0.151079	-0.091084	0.994796
H637	H	-0.231721	-0.527215	0.295000
H638	H	0.268279	-0.027215	0.795000
C639	C	-0.296754	-0.481810	0.269264
C640	C	0.203246	0.018190	0.769264
C641	C	-0.329203	-0.488823	0.315744
C642	C	0.170797	0.011177	0.815744
H643	H	-0.313619	-0.462356	0.247246
H644	H	0.186381	0.037644	0.747246
H645	H	-0.277328	-0.511688	0.264503
H646	H	0.222672	-0.011688	0.764503
H647	H	-0.277314	-0.466621	0.264520
H648	H	0.222686	0.033379	0.764520
H649	H	-0.348641	-0.504015	0.320489
H650	H	0.151359	-0.004015	0.820489
H651	H	-0.348637	-0.458938	0.320507
H652	H	0.151363	0.041062	0.820507
