data_functionalizedCrystal
_audit_creation_method	'MofGen! by Chris Wilmer'
_symmetry_space_group_name_H-M	'P1'
_symmetry_Int_Tables_number	1
_symmetry_cell_setting	triclinic
loop_
_symmetry_equiv_pos_as_xyz
  x,y,z
_cell_length_a	15.995343
_cell_length_b	15.995350
_cell_length_c	17.766277
_cell_angle_alpha	89.995869
_cell_angle_beta	89.994960
_cell_angle_gamma	83.490779
loop_
_atom_site_label
_atom_site_type_symbol
_atom_site_fract_x
_atom_site_fract_y
_atom_site_fract_z
O1	O	1.110995	0.107897	-0.062515
O2	O	0.867219	0.121231	-0.062533
O3	O	0.995771	-0.007324	-0.062523
O4	O	0.982444	0.236452	-0.062525
O5	O	0.995748	-0.007330	0.062666
O6	O	0.867197	0.121225	0.062656
O7	O	1.110973	0.107890	0.062674
Cu8	Cu	0.989083	0.114557	0.074095
Cu9	Cu	0.989109	0.114565	-0.073954
O10	O	0.982421	0.236445	0.062664
C11	C	0.836013	0.120678	0.000059
C12	C	0.743062	0.119028	0.000053
C13	C	0.572876	0.116035	0.000063
C14	C	0.549530	0.023238	0.000063
C15	C	0.452852	0.021492	0.000352
C16	C	0.405316	0.113086	0.000072
C17	C	0.434395	0.159742	0.071418
C18	C	0.531187	0.160843	0.071473
C19	C	0.531123	0.162209	-0.070894
C20	C	0.434629	0.158784	-0.071828
C21	C	0.310618	0.111425	0.000079
C22	C	0.667574	0.117699	0.000060
C23	C	0.995209	-0.038522	0.000070
C24	C	0.993557	-0.131472	0.000066
C25	C	0.987625	-0.469220	0.000068
C26	C	0.896072	-0.421783	-0.000219
C27	C	0.897725	-0.325093	0.000063
C28	C	0.990567	-0.301659	0.000067
C29	C	1.035711	-0.342742	0.071557
C30	C	1.033411	-0.439377	0.071617
C31	C	1.035328	-0.439728	-0.070746
C32	C	1.035307	-0.342783	-0.071690
C33	C	0.992235	-0.206962	0.000068
C34	C	0.985960	-0.563917	0.000071
C35	C	1.142179	0.108444	0.000080
C36	C	1.235130	0.110093	0.000082
C37	C	0.982983	0.267643	0.000069
C38	C	0.984635	0.360594	0.000069
N39	N	0.989070	0.114551	0.178226
N40	N	0.989129	0.114564	-0.178085
C41	C	1.046011	0.057655	0.217617
C42	C	1.046016	0.057651	0.296419
C43	C	0.989088	0.114557	0.335826
C44	C	0.932136	0.171458	0.296426
C45	C	0.932127	0.171455	0.217625
C46	C	0.978117	0.190814	0.460663
C47	C	0.978132	0.190819	0.539462
C48	C	0.989110	0.114568	0.578873
C49	C	1.000092	0.038309	0.539475
C50	C	1.000083	0.038305	0.460675
C51	C	0.989090	0.114567	0.421272
C52	C	1.046060	0.057662	0.703710
C53	C	1.046059	0.057657	0.782513
C54	C	0.932182	0.171472	0.782518
C55	C	0.932179	0.171470	0.703717
C56	C	0.989122	0.114566	0.664317
H57	H	0.545137	0.230514	-0.071583
H58	H	0.859489	-0.440311	-0.051487
H59	H	0.414293	0.127725	0.124716
H60	H	1.100627	-0.471627	0.074863
H61	H	0.559403	0.132935	-0.124989
H62	H	1.004338	-0.314362	0.124755
H63	H	1.092386	0.011317	0.328497
H64	H	0.557963	0.128904	0.125009
H65	H	0.416081	0.124807	-0.124611
H66	H	1.009022	-0.023787	0.428600
H67	H	0.545760	0.228893	0.074524
H68	H	0.434406	-0.014865	0.051796
H69	H	0.885782	0.217791	0.328515
H70	H	0.885827	0.217803	0.814603
H71	H	1.009031	-0.023782	0.571561
H72	H	0.402548	0.227153	0.073870
H73	H	0.433842	-0.015030	-0.050781
H74	H	1.103920	-0.328618	0.074218
H75	H	1.000473	-0.457681	0.125055
H76	H	0.885757	0.217787	0.185552
H77	H	1.005405	-0.460264	-0.124931
H78	H	1.092424	0.011325	0.671630
H79	H	0.969195	0.252913	0.571534
H80	H	1.092424	0.011321	0.814586
H81	H	1.103012	-0.327422	-0.076004
H82	H	1.002301	-0.315530	-0.124577
H83	H	0.862238	-0.296667	-0.051185
H84	H	0.401672	0.225616	-0.076357
H85	H	1.102829	-0.471491	-0.071223
H86	H	1.092376	0.011318	0.185540
H87	H	0.859633	-0.441379	0.050757
H88	H	0.861981	-0.297230	0.051393
H89	H	0.577547	-0.012728	-0.051092
H90	H	0.885816	0.217803	0.671642
H91	H	0.969162	0.252911	0.428581
H92	H	0.578506	-0.012148	0.051151
