data_functionalizedCrystal
_audit_creation_method	'MofGen! by Chris Wilmer'
_symmetry_space_group_name_H-M	'P1'
_symmetry_Int_Tables_number	1
_symmetry_cell_setting	triclinic
loop_
_symmetry_equiv_pos_as_xyz
  x,y,z
_cell_length_a	19.851628
_cell_length_b	17.052862
_cell_length_c	17.052862
_cell_angle_alpha	61.493569
_cell_angle_beta	90.002507
_cell_angle_gamma	50.264214
loop_
_atom_site_label
_atom_site_type_symbol
_atom_site_fract_x
_atom_site_fract_y
_atom_site_fract_z
Zr1	Zr	-0.029718	0.564450	1.017429
O2	O	-0.178382	0.767243	0.902894
O3	O	0.027497	0.392361	1.032473
O4	O	-0.129813	0.550857	1.061412
O5	O	0.089774	0.608764	0.873954
O6	O	-0.104744	0.505207	1.209280
O7	O	-0.021072	0.608747	0.873956
O8	O	0.176655	0.221687	1.157513
O9	O	-0.191624	0.892284	0.925720
O10	O	0.056542	0.417704	1.173485
O11	O	0.120557	0.451784	1.063132
O12	O	-0.064655	0.638392	1.097203
O13	O	-0.000641	0.672472	0.986850
Zr14	Zr	0.187052	0.491671	1.253257
Zr15	Zr	0.010265	0.491645	1.253260
Zr16	Zr	0.147069	0.564476	1.017426
Zr17	Zr	-0.050838	0.763875	1.053833
Zr18	Zr	0.208172	0.292246	1.216853
O19	O	0.129837	0.663760	1.238212
O20	O	-0.121531	0.663724	1.238216
O21	O	0.072987	0.767280	0.902890
O22	O	0.335716	0.288878	1.367791
O23	O	0.084347	0.288841	1.367795
O24	O	0.278865	0.392397	1.032469
O25	O	0.067560	0.447357	1.396732
O26	O	0.287147	0.505264	1.209273
O27	O	0.262078	0.550913	1.061406
O28	O	0.178406	0.447373	1.396730
O29	O	-0.159843	0.834413	1.113175
O30	O	0.317177	0.221708	1.157511
O31	O	0.348958	0.163837	1.344966
O32	O	0.208436	0.163817	1.344968
O33	O	-0.051102	0.892304	0.925718
O34	O	-0.019321	0.834434	1.113172
O35	O	0.221989	0.417728	1.173482
O36	O	0.157975	0.383649	1.283835
O37	O	0.036777	0.604337	1.207554
O38	O	0.100792	0.638416	1.097201
C39	C	0.105085	0.278610	1.089807
C40	C	0.114051	0.193949	1.074352
C41	C	-0.142467	0.528028	1.135346
C42	C	-0.217518	0.528018	1.135348
C43	C	0.005652	-0.115844	1.261198
C44	C	-0.002778	-0.036295	1.275716
C45	C	0.026428	0.021269	1.225377
C46	C	0.064067	-0.000722	1.160516
C47	C	0.072491	-0.080270	1.145991
C48	C	0.093267	0.056843	1.110169
C49	C	0.130905	0.034852	1.045309
C50	C	0.139329	-0.044690	1.030787
C51	C	0.110122	-0.102254	1.081126
C52	C	0.084843	0.136391	1.124695
C53	C	0.151682	0.171965	1.009487
C54	C	0.160112	0.092416	0.994969
C55	C	-0.332805	0.407714	1.176940
C56	C	-0.423236	0.490611	1.082464
C57	C	-0.354954	0.528049	1.135342
C58	C	-0.398260	0.445152	1.229796
C59	C	-0.487706	0.528069	1.135344
C60	C	-0.444407	0.610964	1.040805
C61	C	-0.419407	0.565468	1.188208
C62	C	-0.509869	0.648458	1.093684
C63	C	-0.278477	0.528034	1.135342
C64	C	-0.564187	0.528095	1.135335
C65	C	0.299801	0.528093	1.135339
C66	C	0.374852	0.528103	1.135338
C67	C	0.028654	0.619129	0.840354
C68	C	0.011681	0.650036	0.740237
C69	C	0.052249	0.777511	1.180879
C70	C	0.043283	0.862172	1.196334
C71	C	0.216893	0.276361	0.617301
C72	C	0.232837	0.247318	0.711367
C73	C	0.177550	0.347995	0.718590
C74	C	0.106314	0.477721	0.631736
C75	C	0.090362	0.506767	0.537661
C76	C	0.051020	0.578400	0.638950
C77	C	-0.020216	0.708126	0.552096
C78	C	-0.036164	0.737167	0.458031
C79	C	0.019123	0.636490	0.450808
C80	C	0.066972	0.549354	0.733025
C81	C	-0.059559	0.779759	0.653385
C82	C	-0.075504	0.808803	0.559319
C83	C	0.128680	0.436992	1.430332
C84	C	0.145653	0.406085	1.530449
C85	C	0.155097	0.187542	1.384796
C86	C	0.181037	0.071973	1.469458
C87	C	0.326219	0.278642	1.089803
C88	C	0.410236	0.193992	1.074347
C89	C	0.376231	0.187574	1.384792
C90	C	0.477222	0.072016	1.469453
C91	C	-0.218897	0.868547	0.885894
C92	C	-0.319888	0.984105	0.801233
C93	C	0.002236	0.868579	0.885890
C94	C	-0.023703	0.984148	0.801228
C95	C	-0.168885	0.777479	1.180883
C96	C	-0.252902	0.862129	1.196338
C97	C	0.140265	0.035477	1.451614
C98	C	0.164619	-0.073098	1.531156
C99	C	0.229751	-0.145181	1.628540
C100	C	0.270523	-0.108677	1.646383
C101	C	0.246164	-0.000098	1.566843
C102	C	0.502645	0.136463	1.124691
C103	C	0.581593	0.056937	1.110166
C104	C	0.568130	0.034935	1.045303
C105	C	0.475711	0.092474	0.994954
C106	C	0.396764	0.172006	1.009473
C107	C	0.491235	-0.000043	1.566824
C108	C	0.586120	-0.108614	1.646382
C109	C	0.666991	-0.145129	1.628568
C110	C	0.652974	-0.073058	1.531187
C111	C	0.558090	0.035516	1.451631
C112	C	-0.333902	1.056174	0.703864
C113	C	-0.428790	1.164769	0.624309
C114	C	-0.509661	1.201288	0.642125
C115	C	-0.495644	1.129212	0.739505
C116	C	-0.400758	1.020625	0.819058
C117	C	0.017061	1.020652	0.819073
C118	C	-0.007315	1.129249	0.739535
C119	C	-0.072450	1.201335	0.642152
C120	C	-0.113219	1.164827	0.624308
C121	C	-0.088848	1.056237	0.703846
C122	C	-0.239409	0.884102	1.261208
C123	C	-0.318340	0.963623	1.275750
C124	C	-0.410765	1.021177	1.225416
C125	C	-0.424256	0.999196	1.160543
C126	C	-0.345324	0.919669	1.146008
H127	H	0.019562	0.086040	1.237201
H128	H	0.513624	0.154366	1.177508
O129	O	-0.416220	0.607316	1.247455
H130	H	-0.360597	0.607831	1.246281
H131	H	0.006149	0.660130	0.374215
O132	O	-0.523939	1.061238	1.106291
H133	H	-0.520068	1.032583	1.058753
H134	H	0.656838	0.010095	1.151173
O135	O	0.340772	-0.186436	1.751423
H136	H	0.365033	-0.142821	1.750482
H137	H	0.464763	0.074548	0.942142
H138	H	0.632423	-0.029827	1.033489
H139	H	-0.164159	0.837252	1.302199
H140	H	0.321523	0.218837	0.968479
O141	O	-0.025858	-0.177916	1.315472
H142	H	0.017930	-0.241486	1.397393
H143	H	0.054197	0.154289	1.177505
O144	O	-0.132818	1.016870	0.684589
H145	H	-0.073134	0.916749	0.708667
O146	O	-0.043375	-0.012576	1.345666
H147	H	0.012623	-0.047480	1.406545
O148	O	0.119209	-0.188047	1.065457
H149	H	0.092573	-0.224373	1.111357
O150	O	-0.246689	1.016806	0.684627
H151	H	-0.178345	0.929182	0.756294
O152	O	0.200688	0.068721	0.924996
H153	H	0.267564	-0.036974	0.967122
O154	O	0.179858	-0.068340	0.960777
H155	H	0.198739	-0.014936	0.928201
O156	O	0.542990	0.113220	1.346611
H157	H	0.463427	0.194861	1.294274
H158	H	-0.440185	1.223439	0.545026
O159	O	0.256018	-0.262294	1.714319
H160	H	0.234176	-0.247103	1.769563
O161	O	0.036675	1.168597	0.758795
H162	H	0.079211	1.165731	0.715897
O163	O	0.404020	0.039335	1.586059
H164	H	0.411665	-0.041546	1.619566
O165	O	-0.373405	0.352295	1.335600
H166	H	-0.300619	0.252479	1.369955
H167	H	0.070103	0.961966	0.898360
O168	O	-0.612003	1.318421	0.556319
H169	H	-0.608152	1.362391	0.485622
O170	O	-0.582872	1.168602	0.758715
H171	H	-0.622238	1.165708	0.715819
O172	O	0.740209	-0.112461	1.511986
H173	H	0.714534	-0.044115	1.430913
O174	O	-0.385645	0.942880	0.924076
H175	H	-0.457824	0.986517	0.923086
H176	H	-0.104580	0.861739	0.659262
O177	O	-0.098702	1.318427	0.556361
H178	H	-0.059391	1.331674	0.585137
O179	O	0.601230	-0.186349	1.751406
H180	H	0.529052	-0.142726	1.750416
O181	O	0.070004	0.113225	1.346585
H182	H	0.045741	0.069601	1.347558
O183	O	0.120646	-0.112467	1.511900
H184	H	0.071281	-0.044111	1.430817
H185	H	-0.166254	1.223536	0.545008
H186	H	0.744247	-0.233539	1.693356
H187	H	-0.307337	0.981510	1.328573
O188	O	-0.495898	1.106971	1.241086
H189	H	-0.478065	1.049958	1.321294
O190	O	-0.359886	0.895990	1.076025
H191	H	-0.437420	0.949389	1.043463
O192	O	0.290165	0.039236	1.586098
H193	H	0.230499	0.139354	1.562031
H194	H	0.261896	0.194404	0.611408
O195	O	0.183220	0.234004	0.955213
H196	H	0.171061	0.292986	0.976227
H197	H	-0.133505	0.914427	0.488590
O198	O	-0.426397	0.448722	1.023238
H199	H	-0.353567	0.348799	1.057913
H200	H	-0.257244	0.305993	1.212033
O201	O	-0.469349	0.703762	0.934929
H202	H	-0.480022	0.779953	0.927021
O203	O	-0.609877	0.783354	1.047020
H204	H	-0.629428	0.851892	0.968642
H205	H	0.124979	0.443729	0.803733
H206	H	0.190537	0.324340	0.795185
H207	H	0.290828	0.141695	0.782077
H208	H	-0.094177	0.842799	0.387314
