data_functionalizedCrystal
_audit_creation_method	'MofGen! by Chris Wilmer'
_symmetry_space_group_name_H-M	'P1'
_symmetry_Int_Tables_number	1
_symmetry_cell_setting	triclinic
loop_
_symmetry_equiv_pos_as_xyz
  x,y,z
_cell_length_a	12.811445
_cell_length_b	10.723024
_cell_length_c	9.798715
_cell_angle_alpha	90.001978
_cell_angle_beta	84.564891
_cell_angle_gamma	95.744118
loop_
_atom_site_label
_atom_site_type_symbol
_atom_site_fract_x
_atom_site_fract_y
_atom_site_fract_z
O1	O	1.393882	-0.168111	-0.285990
O2	O	1.893882	0.331889	0.214010
O3	O	1.088430	-0.186379	-0.248191
O4	O	1.588430	0.313621	0.251809
O5	O	1.248202	0.004366	-0.267957
O6	O	1.748202	0.504366	0.232043
O7	O	1.234110	-0.358856	-0.266223
O8	O	1.734110	0.141144	0.233777
O9	O	1.248190	0.004367	-0.040974
O10	O	1.748190	0.504367	0.459026
O11	O	1.088418	-0.186379	-0.021207
O12	O	1.588418	0.313621	0.478793
O13	O	1.393870	-0.168110	-0.059006
O14	O	1.893870	0.331890	0.440994
Zn15	Zn	1.241142	-0.177244	-0.004068
Zn16	Zn	1.741142	0.322756	0.495932
Zn17	Zn	1.241158	-0.177245	-0.303129
Zn18	Zn	1.741158	0.322755	0.196871
O19	O	1.234098	-0.358856	-0.039240
O20	O	1.734098	0.141144	0.460760
C21	C	1.049312	-0.185354	-0.129859
C22	C	1.549312	0.314646	0.370141
C23	C	0.932773	-0.182284	-0.115437
C24	C	1.432773	0.317716	0.384563
C25	C	0.713790	-0.176540	-0.335820
C26	C	1.213790	0.323460	0.164180
C27	C	0.604291	-0.173656	-0.322275
C28	C	1.104291	0.326344	0.177725
C29	C	0.604271	-0.173642	-0.074804
C30	C	1.104271	0.326358	0.425196
C31	C	0.713771	-0.176526	-0.088349
C32	C	1.213771	0.323474	0.411651
C33	C	0.768527	-0.177973	-0.218861
C34	C	1.268527	0.322027	0.281139
C35	C	0.878029	-0.180847	-0.232405
C36	C	1.378029	0.319153	0.267595
C37	C	0.878006	-0.180842	0.015065
C38	C	1.378006	0.319158	0.515065
C39	C	0.768507	-0.177958	0.028610
C40	C	1.268507	0.322042	0.528610
C41	C	1.247170	0.050861	-0.154340
C42	C	1.747170	0.550861	0.345660
C43	C	1.244102	0.189400	-0.153965
C44	C	1.744102	0.689400	0.346035
C45	C	1.432988	-0.169136	-0.177341
C46	C	1.932988	0.330864	0.322659
C47	C	1.549527	-0.172205	-0.191772
C48	C	2.049527	0.327795	0.308228
C49	C	1.235130	-0.405350	-0.152860
C50	C	1.735130	0.094650	0.347140
C51	C	1.238198	-0.543889	-0.153244
C52	C	1.738198	-0.043889	0.346756
N53	N	1.241139	-0.177243	0.200032
N54	N	1.741139	0.322757	0.700032
C55	C	1.333502	0.264826	-0.165030
C56	C	1.833502	0.764826	0.334970
C57	C	1.330333	0.408014	-0.164643
C58	C	1.830333	0.908014	0.335357
N59	N	1.241169	-0.177236	-0.507230
N60	N	1.741169	0.322764	-0.007230
C61	C	1.308223	-0.096803	0.259509
C62	C	1.808223	0.403197	0.759509
C63	C	1.308240	-0.096799	0.416670
C64	C	1.808240	0.403201	0.916670
H65	H	0.922610	-0.182025	-0.338674
H66	H	1.422610	0.317975	0.161326
H67	H	1.406866	0.472826	-0.174110
H68	H	1.906866	0.972826	0.325890
H69	H	1.165218	0.230831	-0.144212
H70	H	1.665218	0.730831	0.355788
Br71	Br	1.110624	0.348101	-0.137437
Br72	Br	1.610624	0.848101	0.362563
Br73	Br	1.145420	-0.292019	0.309073
Br74	Br	1.645420	0.207981	0.809073
H75	H	0.758374	-0.177712	-0.442088
H76	H	1.258374	0.322288	0.057912
H77	H	0.723909	-0.176784	0.134869
H78	H	1.223909	0.323216	0.634869
H79	H	0.922585	-0.182006	0.110302
H80	H	1.422585	0.317994	0.610302
Br81	Br	1.464990	0.195786	-0.181316
Br82	Br	1.964990	0.695786	0.318684
H83	H	0.559728	-0.172493	-0.417516
H84	H	1.059728	0.327507	0.082484
H85	H	0.559668	-0.172475	0.031452
H86	H	1.059668	0.327525	0.531452
H87	H	1.365640	-0.027933	0.194083
H88	H	1.865640	0.472067	0.694083
H89	H	1.365677	-0.027935	0.467849
H90	H	1.865677	0.472065	0.967849
H91	H	1.183737	-0.246113	0.441599
H92	H	1.683737	0.253887	0.941599
