data_functionalizedCrystal
_audit_creation_method	'MofGen! by Chris Wilmer'
_symmetry_space_group_name_H-M	'P1'
_symmetry_Int_Tables_number	1
_symmetry_cell_setting	triclinic
loop_
_symmetry_equiv_pos_as_xyz
  x,y,z
_cell_length_a	16.109301
_cell_length_b	9.798715
_cell_length_c	16.109301
_cell_angle_alpha	90.004570
_cell_angle_beta	83.461481
_cell_angle_gamma	90.000966
loop_
_atom_site_label
_atom_site_type_symbol
_atom_site_fract_x
_atom_site_fract_y
_atom_site_fract_z
O1	O	1.103131	0.113409	0.106865
O2	O	1.603131	0.613409	0.606865
O3	O	0.861069	0.113431	0.120165
O4	O	1.361069	0.613431	0.620165
O5	O	0.988750	0.113406	-0.007516
O6	O	1.488750	0.613406	0.492484
O7	O	0.975450	0.113435	0.234546
O8	O	1.475450	0.613435	0.734546
O9	O	0.988740	-0.113577	-0.007516
O10	O	1.488740	0.386423	0.492484
O11	O	0.861060	-0.113551	0.120164
O12	O	1.361060	0.386449	0.620164
O13	O	1.103122	-0.113573	0.106865
O14	O	1.603122	0.386427	0.606865
Zn15	Zn	0.982089	-0.149600	0.113515
Zn16	Zn	1.482089	0.350400	0.613515
Zn17	Zn	0.982102	0.149458	0.113515
Zn18	Zn	1.482102	0.649458	0.613515
O19	O	0.975441	-0.113547	0.234546
O20	O	1.475441	0.386453	0.734546
C21	C	0.830090	-0.000057	0.119626
C22	C	1.330090	0.499943	0.619626
C23	C	0.737794	-0.000049	0.118011
C24	C	1.237794	0.499951	0.618011
C25	C	0.515522	-0.000056	0.190018
C26	C	1.015522	0.499944	0.690018
C27	C	0.428801	-0.000065	0.188494
C28	C	0.928801	0.499935	0.688494
C29	C	0.448676	-0.000078	0.037006
C30	C	0.948676	0.499922	0.537006
C31	C	0.535394	-0.000078	0.038530
C32	C	1.035394	0.499922	0.538530
C33	C	0.568815	-0.000061	0.115039
C34	C	1.068815	0.499939	0.615039
C35	C	0.395376	-0.000069	0.111990
C36	C	0.895376	0.499931	0.611990
C37	C	0.301350	-0.000079	0.110337
C38	C	0.801350	0.499921	0.610337
C39	C	0.662847	-0.000054	0.116693
C40	C	1.162847	0.499946	0.616693
N41	N	0.982087	-0.353700	0.113514
N42	N	1.482087	0.146300	0.613514
C43	C	1.035698	-0.421488	0.059670
C44	C	1.535698	0.078512	0.559670
C45	C	1.035712	-0.578650	0.059667
C46	C	1.535712	-0.078650	0.559667
C47	C	1.134101	-0.000082	0.107404
C48	C	1.634101	0.499918	0.607404
C49	C	1.226397	-0.000081	0.109019
C50	C	1.726397	0.499919	0.609019
N51	N	0.982111	0.353558	0.113509
N52	N	1.482111	0.853558	0.613509
C53	C	0.988206	-0.000086	-0.038491
C54	C	1.488206	0.499914	0.461509
C55	C	0.986591	-0.000088	-0.130786
C56	C	1.486591	0.499912	0.369214
C57	C	1.058599	-0.000073	-0.353059
C58	C	1.558599	0.499927	0.146941
C59	C	1.057075	-0.000061	-0.439779
C60	C	1.557075	0.499939	0.060221
C61	C	0.905586	-0.000053	-0.419905
C62	C	1.405586	0.499947	0.080095
C63	C	0.907111	-0.000055	-0.333186
C64	C	1.407111	0.499945	0.166814
C65	C	0.983620	-0.000071	-0.299766
C66	C	1.483620	0.499929	0.200234
C67	C	0.980571	-0.000058	-0.473205
C68	C	1.480571	0.499942	0.026795
C69	C	0.978918	-0.000046	-0.567231
C70	C	1.478918	0.499954	-0.067231
C71	C	0.985273	-0.000081	-0.205734
C72	C	1.485273	0.499919	0.294266
C73	C	0.975984	-0.000053	0.265521
C74	C	1.475984	0.499947	0.765521
C75	C	0.977600	-0.000042	0.357816
C76	C	1.477600	0.499958	0.857816
H77	H	0.542730	-0.000052	0.252317
H78	H	1.042730	0.499948	0.752317
O79	O	1.141116	-0.000079	-0.317010
O80	O	1.641116	0.499921	0.182990
H81	H	1.145429	0.092429	-0.277966
H82	H	1.645429	0.592429	0.222034
H83	H	0.578788	-0.000086	-0.022530
H84	H	1.078788	0.499914	0.477470
O85	O	1.096486	-0.344272	-0.001403
O86	O	1.596486	0.155728	0.498597
H87	H	1.085731	-0.371642	-0.066179
H88	H	1.585731	0.128358	0.433821
H89	H	0.846050	-0.000049	-0.289792
H90	H	1.346050	0.499951	0.210208
H91	H	0.843295	-0.000042	-0.447127
H92	H	1.343295	0.499958	0.052873
H93	H	1.118130	-0.000060	-0.483168
H94	H	1.618130	0.499940	0.016832
H95	H	0.385413	-0.000064	0.249550
H96	H	0.885413	0.499936	0.749550
O97	O	1.096514	-0.655852	-0.001401
O98	O	1.596514	-0.155852	0.498599
H99	H	1.086979	-0.767178	0.008175
H100	H	1.586979	-0.267178	0.508175
O101	O	0.921298	-0.569234	0.174564
O102	O	1.421298	-0.069234	0.674564
H103	H	0.956431	-0.504103	0.214833
H104	H	1.456431	-0.004103	0.714833
O105	O	0.412631	-0.000087	-0.045513
O106	O	0.912631	0.499913	0.454487
H107	H	0.343376	-0.000073	-0.033979
H108	H	0.843376	0.499927	0.466021
O109	O	0.921302	-0.430918	0.174589
O110	O	1.421302	0.069082	0.674589
H111	H	0.880836	-0.496045	0.139675
H112	H	1.380836	0.003955	0.639675
