data_functionalizedCrystal
_audit_creation_method	'MofGen! by Chris Wilmer'
_symmetry_space_group_name_H-M	'P1'
_symmetry_Int_Tables_number	1
_symmetry_cell_setting	triclinic
loop_
_symmetry_equiv_pos_as_xyz
  x,y,z
_cell_length_a	11.169417
_cell_length_b	12.759394
_cell_length_c	11.169409
_cell_angle_alpha	89.967170
_cell_angle_beta	89.980176
_cell_angle_gamma	90.014734
loop_
_atom_site_label
_atom_site_type_symbol
_atom_site_fract_x
_atom_site_fract_y
_atom_site_fract_z
Zn1	Zn	1.834933	-0.418157	-0.678539
Zn2	Zn	2.334933	0.081843	-0.178539
Zn3	Zn	1.834810	-0.593883	-0.477854
Zn4	Zn	2.334810	-0.093883	0.022146
Zn5	Zn	1.634219	-0.418221	-0.477873
Zn6	Zn	2.134219	0.081779	0.022127
Zn7	Zn	1.634214	-0.593797	-0.678499
Zn8	Zn	2.134214	-0.093797	-0.178499
O9	O	1.734544	-0.506014	-0.578191
O10	O	2.234544	-0.006014	-0.078191
O11	O	2.002866	-0.441476	-0.651926
O12	O	2.502866	0.058524	-0.151926
O13	O	1.808152	-0.570643	-0.309907
O14	O	2.308152	-0.070643	0.190093
O15	O	1.660898	-0.271191	-0.504516
O16	O	2.160898	0.228809	-0.004516
O17	O	2.002776	-0.570581	-0.504484
O18	O	2.502776	-0.070581	-0.004484
O19	O	1.808361	-0.271144	-0.651945
O20	O	2.308361	0.228856	-0.151945
O21	O	1.660778	-0.441585	-0.309921
O22	O	2.160778	0.058415	0.190079
O23	O	1.466269	-0.441502	-0.504478
O24	O	1.966269	0.058498	-0.004478
O25	O	1.660889	-0.570435	-0.846454
O26	O	2.160889	-0.070435	-0.346454
O27	O	1.466265	-0.570497	-0.651877
O28	O	1.966265	-0.070497	-0.151877
O29	O	1.808357	-0.441393	-0.846483
O30	O	2.308357	0.058607	-0.346483
O31	O	1.808147	-0.740892	-0.504445
O32	O	2.308147	-0.240892	-0.004445
O33	O	1.660770	-0.740829	-0.651858
O34	O	2.160770	-0.240829	-0.151858
C35	C	1.422719	-0.505998	-0.578176
C36	C	1.922719	-0.005998	-0.078176
C37	C	1.289319	-0.506017	-0.578197
C38	C	1.789319	-0.006017	-0.078197
C39	C	1.734477	-0.778982	-0.578171
C40	C	2.234477	-0.278982	-0.078171
C41	C	1.734559	-0.895758	-0.578203
C42	C	2.234559	-0.395758	-0.078203
C43	C	1.887998	-0.895551	-0.731835
C44	C	2.387998	-0.395551	-0.231835
C45	C	1.964755	-0.950308	-0.808660
C46	C	2.464755	-0.450308	-0.308660
C47	C	1.964826	-1.060030	-0.808686
C48	C	2.464826	-0.560030	-0.308686
C49	C	1.888129	-1.114997	-0.731881
C50	C	2.388129	-0.614997	-0.231881
C51	C	1.811372	-1.060240	-0.655056
C52	C	2.311372	-0.560240	-0.155056
C53	C	1.811312	-0.950516	-0.655036
C54	C	2.311312	-0.450516	-0.155036
C55	C	1.657929	-1.060447	-0.501432
C56	C	2.157929	-0.560447	-0.001432
C57	C	1.657862	-0.950725	-0.501398
C58	C	2.157862	-0.450725	-0.001398
C59	C	1.581232	-1.115414	-0.424627
C60	C	2.081232	-0.615414	0.075373
C61	C	1.504479	-1.060657	-0.347794
C62	C	2.004479	-0.560657	0.152206
C63	C	1.504412	-0.950928	-0.347770
C64	C	2.004412	-0.450928	0.152230
C65	C	1.581104	-0.895968	-0.424573
C66	C	2.081104	-0.395968	0.075427
C67	C	2.047586	-0.506031	-0.578207
C68	C	2.547586	-0.006031	-0.078207
C69	C	2.180986	-0.506038	-0.578214
C70	C	2.680986	-0.006038	-0.078214
C71	C	1.734636	-0.505898	-0.891234
C72	C	2.234636	-0.005898	-0.391234
C73	C	1.734675	-0.505848	-1.024634
C74	C	2.234675	-0.005848	-0.524634
C75	C	1.734644	-0.231981	-0.578237
C76	C	2.234644	0.268019	-0.078237
C77	C	1.734686	-0.115204	-0.578257
C78	C	2.234686	0.384796	-0.078257
C79	C	1.734521	-0.506055	-0.266366
C80	C	2.234521	-0.006055	0.233634
C81	C	1.734714	-0.505808	-0.132967
C82	C	2.234714	-0.005808	0.367033
H83	H	1.887959	-0.806210	-0.731810
H84	H	2.387959	-0.306210	-0.231810
F85	F	2.046368	-0.891802	-0.890406
F86	F	2.546368	-0.391802	-0.390406
H87	H	1.581062	-0.806627	-0.424556
H88	H	2.081062	-0.306627	0.075444
H89	H	2.027316	-1.104613	-0.871256
H90	H	2.527316	-0.604613	-0.371256
F91	F	1.888343	-1.231773	-0.731780
F92	F	2.388343	-0.731773	-0.231780
H93	H	1.581291	-1.204755	-0.424658
H94	H	2.081291	-0.704755	0.075342
F95	F	1.422709	-0.892660	-0.266006
F96	F	1.922709	-0.392660	0.233994
F97	F	1.422852	-1.119162	-0.266072
F98	F	1.922852	-0.619162	0.233928
