data_functionalizedCrystal
_audit_creation_method	'MofGen! by Chris Wilmer'
_symmetry_space_group_name_H-M	'P1'
_symmetry_Int_Tables_number	1
_symmetry_cell_setting	triclinic
loop_
_symmetry_equiv_pos_as_xyz
  x,y,z
_cell_length_a	16.120530
_cell_length_b	18.050588
_cell_length_c	16.120297
_cell_angle_alpha	87.127354
_cell_angle_beta	89.871860
_cell_angle_gamma	87.125117
loop_
_atom_site_label
_atom_site_type_symbol
_atom_site_fract_x
_atom_site_fract_y
_atom_site_fract_z
Zn1	Zn	1.247396	-0.376247	0.534565
Zn2	Zn	1.497396	-0.126247	0.784565
Zn3	Zn	1.747396	0.123753	1.034565
Zn4	Zn	1.997396	0.373753	1.284565
Zn5	Zn	1.254332	-0.494471	0.395507
Zn6	Zn	1.504332	-0.244471	0.645507
Zn7	Zn	1.754332	0.005529	0.895507
Zn8	Zn	2.004332	0.255529	1.145507
Zn9	Zn	1.115387	-0.363697	0.388483
Zn10	Zn	1.365387	-0.113697	0.638483
Zn11	Zn	1.615387	0.136303	0.888483
Zn12	Zn	1.865387	0.386303	1.138483
Zn13	Zn	1.108289	-0.493787	0.527477
Zn14	Zn	1.358289	-0.243787	0.777477
Zn15	Zn	1.608289	0.006213	1.027477
Zn16	Zn	1.858289	0.256213	1.277477
O17	O	1.181351	-0.432050	0.461508
O18	O	1.431351	-0.182050	0.711508
O19	O	1.681351	0.067950	0.961508
O20	O	1.931351	0.317950	1.211508
O21	O	1.364681	-0.397467	0.522025
O22	O	1.614681	-0.147467	0.772025
O23	O	1.864681	0.102533	1.022025
O24	O	2.114681	0.352533	1.272025
O25	O	1.241775	-0.472158	0.278210
O26	O	1.491775	-0.222158	0.528210
O27	O	1.741775	0.027842	0.778210
O28	O	1.991775	0.277842	1.028210
O29	O	1.132966	-0.261442	0.407888
O30	O	1.382966	-0.011442	0.657888
O31	O	1.632966	0.238558	0.907888
O32	O	1.882966	0.488558	1.157888
O33	O	1.369778	-0.484326	0.419860
O34	O	1.619778	-0.234326	0.669860
O35	O	1.869778	0.015674	0.919860
O36	O	2.119778	0.265674	1.169860
O37	O	1.229952	-0.270661	0.515214
O38	O	1.479952	-0.020661	0.765214
O39	O	1.729952	0.229339	1.015214
O40	O	1.979952	0.479339	1.265214
O41	O	1.139693	-0.376079	0.273049
O42	O	1.389693	-0.126079	0.523049
O43	O	1.639693	0.123921	0.773049
O44	O	1.889693	0.373921	1.023049
O45	O	0.998080	-0.375416	0.401015
O46	O	1.248080	-0.125416	0.651015
O47	O	1.498080	0.124584	0.901015
O48	O	1.748080	0.374584	1.151015
O49	O	1.120868	-0.483161	0.644782
O50	O	1.370868	-0.233161	0.894782
O51	O	1.620868	0.016839	1.144782
O52	O	1.870868	0.266839	1.394782
O53	O	0.992865	-0.470992	0.503133
O54	O	1.242865	-0.220992	0.753133
O55	O	1.492865	0.029008	1.003133
O56	O	1.742865	0.279008	1.253133
O57	O	1.223069	-0.396804	0.649990
O58	O	1.473069	-0.146804	0.899990
O59	O	1.723069	0.103196	1.149990
O60	O	1.973069	0.353196	1.399990
O61	O	1.234892	-0.598300	0.412987
O62	O	1.484892	-0.348300	0.662987
O63	O	1.734892	-0.098300	0.912987
O64	O	1.984892	0.151700	1.162987
O65	O	1.127594	-0.597798	0.509944
O66	O	1.377594	-0.347798	0.759944
O67	O	1.627594	-0.097798	1.009944
O68	O	1.877594	0.152202	1.259944
C69	C	0.965300	-0.421768	0.450543
C70	C	1.215300	-0.171768	0.700543
C71	C	1.465300	0.078232	0.950543
C72	C	1.715300	0.328232	1.200543
C73	C	0.872872	-0.417388	0.445871
C74	C	1.122872	-0.167388	0.695871
C75	C	1.372872	0.082612	0.945871
C76	C	1.622872	0.332612	1.195871
C77	C	1.181247	-0.624996	0.461478
C78	C	1.431247	-0.374996	0.711478
C79	C	1.681247	-0.124996	0.961478
C80	C	1.931247	0.125004	1.211478
C81	C	1.181277	-0.707544	0.461496
C82	C	1.431277	-0.457544	0.711496
C83	C	1.681277	-0.207544	0.961496
C84	C	1.931277	0.042456	1.211496
C85	C	0.703643	-0.409375	0.437350
C86	C	0.953643	-0.159375	0.687350
C87	C	1.203643	0.090625	0.937350
C88	C	1.453643	0.340625	1.187350
C89	C	0.659896	-0.454783	0.485727
C90	C	0.909896	-0.204783	0.735727
C91	C	1.159896	0.045217	0.985727
C92	C	1.409896	0.295217	1.235727
C93	C	0.565732	-0.450324	0.480985
C94	C	0.815732	-0.200324	0.730985
C95	C	1.065732	0.049676	0.980985
C96	C	1.315732	0.299676	1.230985
C97	C	0.797816	-0.413833	0.442090
C98	C	1.047816	-0.163833	0.692090
C99	C	1.297816	0.086167	0.942090
C100	C	1.547816	0.336167	1.192090
C101	C	1.123016	-0.956128	0.514227
C102	C	1.373016	-0.706128	0.764227
C103	C	1.623016	-0.456128	1.014227
C104	C	1.873016	-0.206128	1.264227
C105	C	1.197806	-0.911136	0.538472
C106	C	1.447806	-0.661136	0.788472
C107	C	1.697806	-0.411136	1.038472
C108	C	1.947806	-0.161136	1.288472
C109	C	1.181447	-1.004675	0.461552
C110	C	1.431447	-0.754675	0.711552
C111	C	1.681447	-0.504675	0.961552
C112	C	1.931447	-0.254675	1.211552
C113	C	1.106575	-0.902582	0.437318
C114	C	1.356575	-0.652582	0.687318
C115	C	1.606575	-0.402582	0.937318
C116	C	1.856575	-0.152582	1.187318
C117	C	1.181360	-0.858685	0.461526
C118	C	1.431360	-0.608685	0.711526
C119	C	1.681360	-0.358685	0.961526
C120	C	1.931360	-0.108685	1.211526
C121	C	1.256276	-0.960774	0.485839
C122	C	1.506276	-0.710774	0.735839
C123	C	1.756276	-0.460774	0.985839
C124	C	2.006276	-0.210774	1.235839
C125	C	1.164996	-0.952220	0.384646
C126	C	1.414996	-0.702220	0.634646
C127	C	1.664996	-0.452220	0.884646
C128	C	1.914996	-0.202220	1.134646
C129	C	1.239840	-0.907252	0.408866
C130	C	1.489840	-0.657252	0.658866
C131	C	1.739840	-0.407252	0.908866
C132	C	1.989840	-0.157252	1.158866
C133	C	1.181497	-1.088776	0.461568
C134	C	1.431497	-0.838776	0.711568
C135	C	1.681497	-0.588776	0.961568
C136	C	1.931497	-0.338776	1.211568
C137	C	1.181319	-0.774586	0.461510
C138	C	1.431319	-0.524586	0.711510
C139	C	1.681319	-0.274586	0.961510
C140	C	1.931319	-0.024586	1.211510
C141	C	1.398246	-0.442373	0.472517
C142	C	1.648246	-0.192373	0.722517
C143	C	1.898246	0.057627	0.972517
C144	C	2.148246	0.307627	1.222517
C145	C	1.490673	-0.446772	0.477208
C146	C	1.740673	-0.196772	0.727208
C147	C	1.990673	0.053228	0.977208
C148	C	2.240673	0.303228	1.227208
C149	C	1.170403	-0.441306	0.678402
C150	C	1.420403	-0.191306	0.928402
C151	C	1.670403	0.058694	1.178402
C152	C	1.920403	0.308694	1.428402
C153	C	1.165737	-0.445250	0.770830
C154	C	1.415737	-0.195250	1.020830
C155	C	1.665737	0.054750	1.270830
C156	C	1.915737	0.304750	1.520830
C157	C	1.181477	-0.238353	0.461558
C158	C	1.431477	0.011647	0.711558
C159	C	1.681477	0.261647	0.961558
C160	C	1.931477	0.511647	1.211558
C161	C	1.181531	-0.155810	0.461579
C162	C	1.431531	0.094190	0.711579
C163	C	1.681531	0.344190	0.961579
C164	C	1.931531	0.594190	1.211579
C165	C	1.192305	-0.422779	0.245460
C166	C	1.442305	-0.172779	0.495460
C167	C	1.692305	0.077221	0.745460
C168	C	1.942305	0.327221	0.995460
C169	C	1.197131	-0.418634	0.153041
C170	C	1.447131	-0.168634	0.403041
C171	C	1.697131	0.081366	0.653041
C172	C	1.947131	0.331366	0.903041
C173	C	1.157189	-0.452433	0.940054
C174	C	1.407189	-0.202433	1.190054
C175	C	1.657189	0.047567	1.440054
C176	C	1.907189	0.297567	1.690054
C177	C	1.205677	-0.411453	0.983822
C178	C	1.455677	-0.161453	1.233822
C179	C	1.705677	0.088547	1.483822
C180	C	1.955677	0.338547	1.733822
C181	C	1.200921	-0.415449	1.077984
C182	C	1.450921	-0.165449	1.327984
C183	C	1.700921	0.084551	1.577984
C184	C	1.950921	0.334551	1.827984
C185	C	1.161944	-0.448438	0.845883
C186	C	1.411944	-0.198438	1.095883
C187	C	1.661944	0.051562	1.345883
C188	C	1.911944	0.301562	1.595883
H189	H	0.693164	-0.497006	0.530705
H190	H	0.943164	-0.247006	0.780705
H191	H	1.193164	0.002994	1.030705
H192	H	1.443164	0.252994	1.280705
H193	H	1.250761	-0.373365	0.950574
H194	H	1.500761	-0.123365	1.200574
H195	H	1.750761	0.126635	1.450574
H196	H	2.000761	0.376635	1.700574
Br197	Br	1.361776	-1.002983	0.520106
Br198	Br	1.611776	-0.752983	0.770106
Br199	Br	1.861776	-0.502983	1.020106
Br200	Br	2.111776	-0.252983	1.270106
H201	H	1.211690	-0.892953	0.603499
H202	H	1.461690	-0.642953	0.853499
H203	H	1.711690	-0.392953	1.103499
H204	H	1.961690	-0.142953	1.353499
H205	H	1.112109	-0.490518	0.973300
H206	H	1.362109	-0.240518	1.223300
H207	H	1.612109	0.009482	1.473300
H208	H	1.862109	0.259482	1.723300
Br209	Br	1.141819	-0.982556	0.276291
Br210	Br	1.391819	-0.732556	0.526291
Br211	Br	1.641819	-0.482556	0.776291
Br212	Br	1.891819	-0.232556	1.026291
H213	H	0.670378	-0.367155	0.392376
H214	H	0.920378	-0.117155	0.642376
H215	H	1.170378	0.132845	0.892376
H216	H	1.420378	0.382845	1.142376
Br217	Br	1.040813	-0.991922	0.588550
Br218	Br	1.290813	-0.741922	0.838550
Br219	Br	1.540813	-0.491922	1.088550
Br220	Br	1.790813	-0.241922	1.338550
H221	H	1.289270	-0.885922	0.364312
H222	H	1.539270	-0.635922	0.614312
H223	H	1.789270	-0.385922	0.864312
H224	H	2.039270	-0.135922	1.114312
H225	H	1.043294	-0.877166	0.416833
H226	H	1.293294	-0.627166	0.666833
H227	H	1.543294	-0.377166	0.916833
H228	H	1.793294	-0.127166	1.166833
