data_functionalizedCrystal
_audit_creation_method	'MofGen! by Chris Wilmer'
_symmetry_space_group_name_H-M	'P1'
_symmetry_Int_Tables_number	1
_symmetry_cell_setting	triclinic
loop_
_symmetry_equiv_pos_as_xyz
  x,y,z
_cell_length_a	15.297475
_cell_length_b	19.121063
_cell_length_c	19.120904
_cell_angle_alpha	94.741613
_cell_angle_beta	83.145247
_cell_angle_gamma	83.156694
loop_
_atom_site_label
_atom_site_type_symbol
_atom_site_fract_x
_atom_site_fract_y
_atom_site_fract_z
Zn1	Zn	1.320044	-0.483150	-0.595230
Zn2	Zn	1.319934	-0.595782	-0.482565
Zn3	Zn	1.178098	-0.458146	-0.457640
Zn4	Zn	1.164808	-0.578899	-0.578391
O5	O	1.245721	-0.528994	-0.528457
O6	O	1.444356	-0.515621	-0.597763
O7	O	1.306636	-0.574125	-0.381573
O8	O	1.202536	-0.363791	-0.472507
O9	O	1.444275	-0.598371	-0.514989
O10	O	1.306823	-0.382161	-0.573594
O11	O	1.202430	-0.473005	-0.363261
O12	O	1.052009	-0.456634	-0.456180
O13	O	1.179884	-0.569597	-0.678310
O14	O	1.042245	-0.545351	-0.544895
O15	O	1.293936	-0.499251	-0.690681
O16	O	1.293748	-0.691215	-0.498661
O17	O	1.179777	-0.678811	-0.569064
C18	C	1.014891	-0.496448	-0.496006
C19	C	0.916138	-0.482542	-0.482140
C20	C	0.617535	-0.628388	-0.627557
C21	C	0.710317	-0.641459	-0.640582
C22	C	0.761777	-0.601730	-0.600973
C23	C	0.720446	-0.548930	-0.548336
C24	C	0.627654	-0.535862	-0.535305
C25	C	0.771896	-0.509204	-0.508722
C26	C	0.730565	-0.456403	-0.456084
C27	C	0.637782	-0.443337	-0.443057
C28	C	0.586322	-0.483066	-0.482666
C29	C	0.864688	-0.522272	-0.521752
C30	C	0.874807	-0.429746	-0.429501
C31	C	0.782024	-0.416675	-0.416475
C32	C	1.235332	-0.710342	-0.534758
C33	C	1.230967	-0.787936	-0.537489
C34	C	1.288297	-0.830831	-0.502160
C35	C	1.284197	-0.903739	-0.504733
C36	C	1.222762	-0.933749	-0.542632
C37	C	1.165430	-0.890848	-0.577965
C38	C	1.169534	-0.817943	-0.575396
C39	C	1.207401	-1.153556	-0.552225
C40	C	1.203299	-1.226467	-0.554790
C41	C	1.322068	-1.239353	-0.481559
C42	C	1.326164	-1.166445	-0.478989
C43	C	1.268835	-1.123551	-0.514326
C44	C	1.218568	-1.008272	-0.545261
C45	C	1.273034	-1.049030	-0.511700
C46	C	1.477453	-0.561668	-0.561034
C47	C	1.576203	-0.575592	-0.574917
C48	C	1.235439	-0.535330	-0.710533
C49	C	1.231058	-0.538029	-0.788123
C50	C	1.256175	-0.346942	-0.522149
C51	C	1.260629	-0.269363	-0.519461
C52	C	1.288377	-0.502674	-0.831017
C53	C	1.284250	-0.505206	-0.903919
C54	C	1.222806	-0.543099	-0.933927
C55	C	1.165481	-0.578456	-0.891027
C56	C	1.169605	-0.575919	-0.818125
C57	C	1.207380	-0.552588	-1.153720
C58	C	1.203263	-0.555124	-1.226628
C59	C	1.322030	-0.481873	-1.239515
C60	C	1.326152	-0.479343	-1.166611
C61	C	1.268824	-0.514697	-1.123718
C62	C	1.218588	-0.545690	-1.008445
C63	C	1.273039	-0.512101	-1.049200
C64	C	1.256017	-0.522641	-0.347094
C65	C	1.260582	-0.519768	-0.269522
H66	H	0.575628	-0.660733	-0.659797
H67	H	0.604133	-0.400351	-0.400189
H68	H	1.115450	-0.609306	-0.915465
H69	H	1.376188	-0.448489	-1.142185
H70	H	0.837325	-0.612375	-0.611582
H71	H	1.153225	-0.585982	-1.251057
H72	H	1.115412	-0.915289	-0.608826
H73	H	0.743963	-0.684450	-0.683438
H74	H	0.510771	-0.472425	-0.472064
H75	H	1.323062	-0.481245	-1.024764
H76	H	1.168565	-0.576547	-1.032886
H77	H	1.338320	-0.806402	-0.471296
H78	H	0.748359	-0.373685	-0.373617
H79	H	0.898331	-0.565263	-0.564610
H80	H	0.916705	-0.397397	-0.397247
H81	H	1.330881	-0.938662	-0.475964
H82	H	1.160712	-0.581387	-1.118807
H83	H	1.376189	-1.142013	-0.448130
H84	H	1.368703	-0.453090	-1.274446
H85	H	1.122921	-0.604701	-0.783200
H86	H	1.153281	-1.250900	-0.585665
H87	H	1.368744	-1.274285	-0.452791
H88	H	1.160720	-1.118637	-0.580995
H89	H	1.323057	-1.024594	-0.480847
H90	H	1.122851	-0.783017	-0.604165
H91	H	1.168546	-1.032714	-0.576116
H92	H	1.338413	-0.471820	-0.806591
H93	H	1.330927	-0.476418	-0.938841
