data_functionalizedCrystal
_audit_creation_method	'MofGen! by Chris Wilmer'
_symmetry_space_group_name_H-M	'P1'
_symmetry_Int_Tables_number	1
_symmetry_cell_setting	triclinic
loop_
_symmetry_equiv_pos_as_xyz
  x,y,z
_cell_length_a	13.032831
_cell_length_b	12.594516
_cell_length_c	12.594510
_cell_angle_alpha	90.033997
_cell_angle_beta	97.193202
_cell_angle_gamma	82.816889
loop_
_atom_site_label
_atom_site_type_symbol
_atom_site_fract_x
_atom_site_fract_y
_atom_site_fract_z
Zn1	Zn	1.597768	-0.630598	0.808168
Zn2	Zn	1.597674	-0.808615	0.630179
Zn3	Zn	1.423002	-0.608026	0.607631
Zn4	Zn	1.422997	-0.785897	0.785554
O5	O	1.510360	-0.708284	0.707883
O6	O	1.743998	-0.673166	0.803458
O7	O	1.574467	-0.782068	0.478237
O8	O	1.446227	-0.462080	0.634261
O9	O	1.743930	-0.803954	0.672690
O10	O	1.574626	-0.478663	0.781594
O11	O	1.446136	-0.634696	0.461671
O12	O	1.276758	-0.612668	0.612333
O13	O	1.446218	-0.765236	0.937505
O14	O	1.276755	-0.743349	0.743052
O15	O	1.574621	-0.651138	0.954119
O16	O	1.574462	-0.954542	0.650762
O17	O	1.446127	-0.937851	0.764915
C18	C	1.238837	-0.673095	0.672792
C19	C	1.122679	-0.658066	0.657806
C20	C	1.070917	-0.716128	0.715705
C21	C	0.950861	-0.700597	0.700217
C22	C	1.510312	-0.984819	0.707858
C23	C	1.510387	-1.103134	0.707896
C24	C	1.580269	-1.181437	0.645894
C25	C	1.605807	-1.255431	0.746341
C26	C	1.484979	-1.239956	0.607527
C27	C	1.535974	-1.175576	0.808400
C28	C	1.415101	-1.160089	0.669515
C29	C	1.440603	-1.234046	0.770025
C30	C	1.782944	-0.743612	0.743111
C31	C	1.899102	-0.758667	0.758124
C32	C	1.510429	-0.708170	0.985513
C33	C	1.510459	-0.708122	1.103822
C34	C	1.510437	-0.430673	0.707935
C35	C	1.510470	-0.312372	0.707957
C36	C	1.510352	-0.708329	0.431341
C37	C	1.510525	-0.708104	0.313058
C38	C	1.580318	-0.646061	1.182115
C39	C	1.485002	-0.607663	1.240598
C40	C	1.605831	-0.746453	1.256145
C41	C	1.415091	-0.669666	1.160741
C42	C	1.535985	-0.808510	1.176290
C43	C	1.440603	-0.770140	1.234733
H44	H	0.906299	-0.639381	0.639181
F45	F	1.363332	-0.838708	1.265070
H46	H	1.115483	-0.777332	0.776744
H47	H	1.639376	-1.158048	0.593516
F48	F	0.957342	-0.838662	0.837922
F49	F	1.064433	-0.578056	0.578031
H50	H	1.686424	-1.296905	0.778835
H51	H	1.334441	-0.637141	1.119369
H52	H	1.557582	-0.893397	1.147919
F53	F	1.456810	-0.496687	1.277663
F54	F	1.564242	-1.138661	0.919424
H55	H	1.381542	-1.257244	0.822553
H56	H	1.334508	-1.118595	0.636995
F57	F	1.657404	-0.577404	1.151512
F58	F	1.456845	-1.277067	0.496551
F59	F	1.711216	-0.788840	1.310388
