data_functionalizedCrystal
_audit_creation_method	'MofGen! by Chris Wilmer'
_symmetry_space_group_name_H-M	'P1'
_symmetry_Int_Tables_number	1
_symmetry_cell_setting	triclinic
loop_
_symmetry_equiv_pos_as_xyz
  x,y,z
_cell_length_a	16.776229
_cell_length_b	9.065218
_cell_length_c	17.699104
_cell_angle_alpha	84.153735
_cell_angle_beta	89.994835
_cell_angle_gamma	90.005904
loop_
_atom_site_label
_atom_site_type_symbol
_atom_site_fract_x
_atom_site_fract_y
_atom_site_fract_z
O1	O	-0.066331	-1.957130	-0.110962
O2	O	0.433669	-1.457130	0.389038
O3	O	-0.066324	-1.527576	-0.120064
O4	O	0.433676	-1.027576	0.379936
O5	O	-0.066320	-1.754473	-0.005419
O6	O	0.433680	-1.254473	0.494581
O7	O	-0.066334	-1.730233	-0.225606
O8	O	0.433666	-1.230233	0.274394
O9	O	0.066256	-1.754452	-0.005439
O10	O	0.566256	-1.254452	0.494561
O11	O	0.066253	-1.527555	-0.120084
O12	O	0.566253	-1.027555	0.379916
O13	O	0.066246	-1.957108	-0.110982
O14	O	0.566246	-1.457108	0.389018
Zn15	Zn	0.087299	-1.742329	-0.115536
Zn16	Zn	0.587299	-1.242329	0.384464
Zn17	Zn	-0.087377	-1.742356	-0.115510
Zn18	Zn	0.412623	-1.242356	0.384490
O19	O	0.066242	-1.730212	-0.225626
O20	O	0.566242	-1.230212	0.274374
C21	C	-0.000035	-1.472605	-0.119199
C22	C	0.499965	-0.972605	0.380801
C23	C	-0.000032	-1.308839	-0.116583
C24	C	0.499968	-0.808839	0.383417
N25	N	0.206510	-1.742320	-0.115554
N26	N	0.706510	-1.242320	0.384446
N27	N	-0.206588	-1.742376	-0.115486
N28	N	0.293412	-1.242376	0.384514
C29	C	0.751686	-1.653063	-0.068949
C30	C	1.251686	-1.153063	0.431051
C31	C	0.668234	-1.653059	-0.068955
C32	C	1.168234	-1.153059	0.431045
C33	C	0.626509	-1.742362	-0.115503
C34	C	1.126509	-1.242362	0.384497
C35	C	0.668241	-1.831686	-0.162042
C36	C	1.168241	-1.331686	0.337958
C37	C	0.751691	-1.831696	-0.162031
C38	C	1.251691	-1.331696	0.337969
C39	C	0.331694	-1.831647	-0.162086
C40	C	0.831694	-1.331647	0.337914
C41	C	0.248237	-1.831627	-0.162095
C42	C	0.748237	-1.331627	0.337905
C43	C	0.248236	-1.653010	-0.069011
C44	C	0.748236	-1.153010	0.430989
C45	C	0.331687	-1.653021	-0.069000
C46	C	0.831687	-1.153021	0.431000
C47	C	0.373411	-1.742350	-0.115535
C48	C	0.873411	-1.242350	0.384465
C49	C	0.463900	-1.742354	-0.115527
C50	C	0.963900	-1.242354	0.384473
C51	C	0.536022	-1.742351	-0.115516
C52	C	1.036022	-1.242351	0.384484
C53	C	-0.000032	-1.753589	0.022774
C54	C	0.499968	-1.253589	0.522774
C55	C	-0.000032	-1.750967	0.106812
C56	C	0.499968	-1.250967	0.606812
C57	C	-0.000041	-1.012080	-0.111846
C58	C	0.499959	-0.512080	0.388154
C59	C	-0.000034	-1.175846	-0.114462
C60	C	0.499966	-0.675846	0.385538
C61	C	-0.000048	-1.731096	-0.253820
C62	C	0.499952	-1.231096	0.246180
C63	C	-0.000054	-1.733718	-0.337858
C64	C	0.499946	-1.233718	0.162142
C65	C	-0.000056	-1.869367	0.630760
C66	C	0.499944	-1.369367	1.130760
C67	C	-0.000049	-1.871821	0.551797
C68	C	0.499951	-1.371821	1.051797
C69	C	-0.000045	-1.738625	0.504218
C70	C	0.499955	-1.238625	1.004218
C71	C	-0.000040	-1.602964	0.535606
C72	C	0.499960	-1.102964	1.035606
C73	C	-0.000041	-1.600512	0.614567
C74	C	0.499959	-1.100512	1.114567
C75	C	-0.000034	-1.612853	0.217163
C76	C	0.499966	-1.112853	0.717163
C77	C	-0.000035	-1.615316	0.138196
C78	C	0.499965	-1.115316	0.638196
C79	C	-0.000041	-1.884162	0.154392
C80	C	0.499959	-1.384162	0.654392
C81	C	-0.000043	-1.881710	0.233354
C82	C	0.499957	-1.381710	0.733354
C83	C	-0.000033	-1.746051	0.264734
C84	C	0.499967	-1.246051	0.764734
C85	C	-0.000040	-1.743391	0.350355
C86	C	0.499960	-1.243391	0.850355
C87	C	-0.000045	-1.741282	0.418599
C88	C	0.499955	-1.241282	0.918599
H89	H	0.785653	-1.580334	-0.031048
H90	H	1.285653	-1.080334	0.468952
H91	H	0.785664	-1.904425	-0.199926
H92	H	1.285664	-1.404425	0.300074
H93	H	-0.000030	-1.506844	0.099458
H94	H	0.499970	-1.006844	0.599458
H95	H	-0.000050	-1.990173	0.272089
H96	H	0.499950	-1.490173	0.772089
H97	H	-0.000036	-1.502391	0.242703
H98	H	0.499964	-1.002391	0.742703
C99	C	-0.000064	-2.015882	0.683093
C100	C	0.499936	-1.515882	1.183093
H101	H	-0.000073	-1.994998	0.734615
H102	H	0.499927	-1.494998	1.234615
H103	H	0.046167	-2.071514	0.673476
H104	H	0.546167	-1.571514	1.173476
H105	H	-0.046304	-2.071518	0.673479
H106	H	0.453696	-1.571518	1.173479
H107	H	-0.000032	-1.494513	0.496861
H108	H	0.499968	-0.994513	0.996861
H109	H	-0.000051	-1.982281	0.526249
H110	H	0.499949	-1.482281	1.026249
H111	H	0.365655	-1.580295	-0.031099
H112	H	0.865655	-1.080295	0.468901
C113	C	-0.000039	-2.033387	0.119871
C114	C	0.499961	-1.533387	0.619871
H115	H	-0.000028	-2.015779	0.066031
H116	H	0.499972	-1.515779	0.566031
H117	H	-0.046273	-2.088226	0.136140
H118	H	0.453727	-1.588226	0.636140
H119	H	0.046198	-2.088206	0.136138
H120	H	0.546198	-1.588206	0.636138
H121	H	-0.000033	-1.490052	0.640117
H122	H	0.499967	-0.990052	1.140117
H123	H	0.634265	-1.580336	-0.031058
H124	H	1.134265	-1.080336	0.468942
H125	H	0.214267	-1.904353	-0.200002
H126	H	0.714267	-1.404353	0.299998
C127	C	0.202337	-1.554752	-0.017820
C128	C	0.702337	-1.054752	0.482180
H129	H	0.146661	-1.567540	-0.024486
H130	H	0.646661	-1.067540	0.475514
H131	H	0.216028	-1.453775	-0.031164
H132	H	0.716028	-0.953775	0.468836
H133	H	0.216000	-1.582345	0.033774
H134	H	0.716000	-1.082345	0.533774
C135	C	0.377584	-1.929878	-0.213284
C136	C	0.877584	-1.429878	0.286716
H137	H	0.433260	-1.917109	-0.206610
H138	H	0.933260	-1.417109	0.293390
H139	H	0.363917	-1.902271	-0.264871
H140	H	0.863917	-1.402271	0.235129
H141	H	0.363895	-2.030867	-0.199946
H142	H	0.863895	-1.530867	0.300054
C143	C	0.622346	-1.929914	-0.213245
C144	C	1.122346	-1.429914	0.286755
H145	H	0.566669	-1.917106	-0.206594
H146	H	1.066669	-1.417106	0.293406
H147	H	0.636008	-2.030901	-0.199906
H148	H	1.136008	-1.530901	0.300094
H149	H	0.636039	-1.902310	-0.264834
H150	H	1.136039	-1.402310	0.235166
