data_functionalizedCrystal
_audit_creation_method	'MofGen! by Chris Wilmer'
_symmetry_space_group_name_H-M	'P1'
_symmetry_Int_Tables_number	1
_symmetry_cell_setting	triclinic
loop_
_symmetry_equiv_pos_as_xyz
  x,y,z
_cell_length_a	10.654550
_cell_length_b	23.532407
_cell_length_c	9.730223
_cell_angle_alpha	89.988761
_cell_angle_beta	90.004202
_cell_angle_gamma	96.333215
loop_
_atom_site_label
_atom_site_type_symbol
_atom_site_fract_x
_atom_site_fract_y
_atom_site_fract_z
O1	O	1.665300	-0.079986	0.114423
O2	O	1.299580	-0.087606	0.114403
O3	O	1.493468	-0.000936	0.114384
O4	O	1.471412	-0.166656	0.114442
O5	O	1.493466	-0.000932	-0.114196
O6	O	1.299578	-0.087602	-0.114177
O7	O	1.665298	-0.079981	-0.114157
Zn8	Zn	1.482437	-0.083791	-0.150459
Zn9	Zn	1.482440	-0.083796	0.150705
O10	O	1.471409	-0.166651	-0.114138
C11	C	1.252799	-0.087044	0.000110
C12	C	1.113408	-0.085370	0.000101
C13	C	1.032306	-0.136400	0.000139
C14	C	0.901335	-0.134824	0.000162
C15	C	0.932582	-0.031183	0.000115
C16	C	1.063550	-0.032760	0.000082
C17	C	1.082164	-0.189010	0.000158
C18	C	1.001060	-0.240045	0.000197
C19	C	0.870089	-0.238468	0.000221
C20	C	0.820222	-0.185858	0.000204
C21	C	1.492905	0.020286	0.000089
C22	C	1.491217	0.083514	0.000075
C23	C	1.712079	-0.080543	0.000139
C24	C	1.851469	-0.082217	0.000157
C25	C	1.595364	0.481938	0.000133
C26	C	1.593795	0.541349	0.000140
O27	O	1.690341	0.577464	0.000194
N28	N	1.478529	0.564726	0.000132
C29	C	1.364824	0.528689	0.000130
O30	O	1.266636	0.554029	0.000124
C31	C	1.366394	0.469280	0.000133
C32	C	1.481668	0.445906	0.000127
C33	C	1.710629	0.458564	0.000130
C34	C	1.712197	0.399158	0.000120
C35	C	1.598500	0.363126	0.000114
C36	C	1.483236	0.386500	0.000118
C37	C	1.252690	0.433244	0.000141
C38	C	1.254270	0.373832	0.000145
C39	C	1.369544	0.350458	0.000139
C40	C	1.371108	0.291061	0.000102
N41	N	1.486374	0.267684	0.000111
C42	C	1.600070	0.303716	0.000117
C43	C	1.361535	0.653453	0.000126
C44	C	1.359964	0.712861	0.000113
C45	C	1.588936	0.725517	0.000127
C46	C	1.590506	0.666108	0.000129
C47	C	1.476802	0.630076	0.000135
C48	C	1.603355	0.178958	0.000096
C49	C	1.604913	0.119546	0.000081
C50	C	1.375942	0.106896	0.000075
C51	C	1.374383	0.166303	0.000083
C52	C	1.488100	0.202333	0.000098
O53	O	1.274613	0.254911	0.000054
O54	O	1.698242	0.278369	0.000141
C55	C	1.471972	0.812127	0.000146
C56	C	1.473661	0.748899	0.000127
N57	N	1.482443	-0.083796	0.356241
N58	N	1.482444	-0.083787	-0.355995
C59	C	1.568454	-0.045494	0.428159
C60	C	1.568458	-0.045491	0.572042
C61	C	1.396430	-0.122093	0.572077
C62	C	1.396433	-0.122099	0.428197
C63	C	1.654464	-0.007192	0.356204
C64	C	1.740481	0.031114	0.428121
C65	C	1.740485	0.031118	0.572004
C66	C	1.654472	-0.007184	0.643970
H67	H	1.041671	-0.282878	0.000199
H68	H	0.713575	-0.184578	0.000202
F69	F	1.832026	0.071871	0.351531
F70	F	1.240507	0.615110	0.000119
F71	F	1.221553	-0.190692	0.000140
F72	F	1.709943	0.763876	0.000140
F73	F	1.129998	0.458107	0.000152
H74	H	1.810530	0.062304	0.630558
H75	H	0.804057	-0.280023	0.000239
F76	F	0.879505	0.024805	0.000102
H77	H	1.266096	0.731887	0.000094
H78	H	1.161676	0.344497	0.000151
F79	F	1.149870	0.021552	0.000039
H80	H	1.326401	-0.153276	0.630680
H81	H	1.698787	0.100519	0.000073
F82	F	1.304892	-0.162866	0.351656
F83	F	1.724386	0.217296	0.000113
F84	F	1.834888	0.374290	0.000144
H85	H	1.654491	-0.007182	0.761129
H86	H	1.803219	0.487896	0.000140
H87	H	1.654466	-0.007190	0.239047
H88	H	1.684372	0.647081	0.000126
H89	H	1.280518	0.185334	0.000049
F90	F	1.254944	0.068538	0.000068
