data_functionalizedCrystal
_audit_creation_method	'MofGen! by Chris Wilmer'
_symmetry_space_group_name_H-M	'P1'
_symmetry_Int_Tables_number	1
_symmetry_cell_setting	triclinic
loop_
_symmetry_equiv_pos_as_xyz
  x,y,z
_cell_length_a	15.944493
_cell_length_b	15.021413
_cell_length_c	8.559649
_cell_angle_alpha	90.005164
_cell_angle_beta	103.373146
_cell_angle_gamma	90.006749
loop_
_atom_site_label
_atom_site_type_symbol
_atom_site_fract_x
_atom_site_fract_y
_atom_site_fract_z
O1	O	1.101289	0.074016	-0.205619
O2	O	0.855086	0.074020	-0.231124
O3	O	0.999878	0.074017	0.014236
O4	O	0.956497	0.074019	-0.450980
O5	O	0.999855	-0.074047	0.014201
O6	O	0.855064	-0.074044	-0.231159
O7	O	1.101266	-0.074048	-0.205654
Zn8	Zn	0.978161	-0.097555	-0.218412
Zn9	Zn	0.978191	0.097526	-0.218366
O10	O	0.956474	-0.074045	-0.451015
C11	C	0.823847	-0.000012	-0.230099
C12	C	0.730801	-0.000010	-0.226974
C13	C	0.485720	-0.000009	-0.371399
C14	C	0.440176	-0.073016	-0.293533
C15	C	0.560453	-0.000012	-0.221183
C16	C	0.440206	0.072963	-0.293463
C17	C	0.395904	-0.000010	-0.215601
C18	C	0.516136	-0.073080	-0.143358
C19	C	0.516167	0.072966	-0.143310
C20	C	0.470664	-0.000060	-0.065335
C21	C	0.655245	-0.000014	-0.224403
C22	C	0.301115	-0.000014	-0.212369
N23	N	0.978147	-0.230692	-0.218443
C24	C	0.911189	-0.470374	-0.331844
C25	C	0.985092	-0.529710	-0.362835
C26	C	0.978171	-0.412299	-0.218403
C27	C	0.904287	-0.529705	-0.187447
C28	C	0.978187	-0.587723	-0.218368
C29	C	1.052107	-0.470328	-0.249466
C30	C	0.971256	-0.470319	-0.074015
C31	C	1.045217	-0.529627	-0.104945
C32	C	0.978160	-0.311242	-0.218427
C33	C	0.978207	-0.688778	-0.218343
C34	C	1.132505	-0.000015	-0.206679
C35	C	1.225552	-0.000010	-0.209805
C36	C	1.003154	-0.000014	0.073750
C37	C	1.012940	-0.000009	0.251133
N38	N	0.978213	0.230664	-0.218323
C39	C	0.953198	-0.000012	-0.510528
C40	C	0.943412	-0.000011	-0.687911
H41	H	0.549046	-0.134863	-0.079973
H42	H	0.841798	-0.555789	-0.161281
H43	H	0.463555	-0.000103	0.064158
C44	C	0.852879	-0.000005	0.199263
N45	N	0.784688	0.000002	0.114273
H46	H	0.407181	0.134677	-0.356917
H47	H	0.854591	-0.444357	-0.427856
H48	H	0.549214	0.134690	-0.079905
C49	C	1.103478	-0.000015	0.363966
N50	N	1.171670	-0.000019	0.448953
H51	H	0.407135	-0.134737	-0.356986
H52	H	0.990955	-0.555796	-0.484925
H53	H	1.114600	-0.444356	-0.275779
H54	H	1.101924	-0.555481	-0.008991
H55	H	0.492992	-0.000076	-0.500793
H56	H	0.965366	-0.444211	0.048036
