data_functionalizedCrystal
_audit_creation_method	'MofGen! by Chris Wilmer'
_symmetry_space_group_name_H-M	'P1'
_symmetry_Int_Tables_number	1
_symmetry_cell_setting	triclinic
loop_
_symmetry_equiv_pos_as_xyz
  x,y,z
_cell_length_a	10.540514
_cell_length_b	14.044220
_cell_length_c	12.503572
_cell_angle_alpha	93.843168
_cell_angle_beta	93.554019
_cell_angle_gamma	91.147981
loop_
_atom_site_label
_atom_site_type_symbol
_atom_site_fract_x
_atom_site_fract_y
_atom_site_fract_z
O1	O	1.706115	-0.128129	0.089338
O2	O	1.337974	-0.140749	0.089337
O3	O	1.516518	0.003582	0.089327
O4	O	1.527571	-0.272460	0.089348
O5	O	1.503092	-0.007291	-0.089315
O6	O	1.324548	-0.151622	-0.089304
O7	O	1.692689	-0.139001	-0.089304
Cu8	Cu	1.507393	-0.146304	-0.105615
Cu9	Cu	1.523270	-0.133446	0.105649
O10	O	1.514145	-0.283333	-0.089293
C11	C	1.283862	-0.145244	0.000016
C12	C	1.142628	-0.142428	0.000016
C13	C	1.082359	-0.245652	0.000026
C14	C	0.935484	-0.242732	0.000437
C15	C	0.952266	-0.080093	0.101832
C16	C	1.099179	-0.083715	0.101912
C17	C	1.084159	-0.094552	-0.101243
C18	C	0.936979	-0.093637	-0.102576
C19	C	1.504967	0.033492	0.000006
C20	C	1.490537	0.138815	0.000004
C21	C	1.746801	-0.134506	0.000019
C22	C	1.888036	-0.137322	0.000027
N23	N	1.496235	-0.155348	-0.254207
C24	C	1.525696	-0.313243	0.000030
C25	C	1.540126	-0.418565	0.000039
C26	C	1.464157	0.331654	0.000020
C27	C	1.566501	0.388602	0.000023
C28	C	1.551822	0.495904	0.000032
C29	C	1.478834	0.224342	0.000011
C30	C	1.479822	-0.168659	-0.473321
C31	C	1.550847	-0.111088	-0.526652
C32	C	1.541714	-0.118494	-0.648575
C33	C	1.488953	-0.161253	-0.351387
N34	N	1.534437	-0.124396	0.254240
H35	H	0.922385	-0.002442	0.105324
C36	C	1.699762	0.345599	0.000008
N37	N	1.800131	0.313205	-0.000009
H38	H	1.139845	-0.007625	0.106253
H39	H	0.904540	-0.017179	-0.109033
H40	H	1.618512	-0.056238	-0.480743
C41	C	1.388413	-0.242753	-0.535339
N42	N	1.319566	-0.298561	-0.582063
H43	H	0.903310	-0.278232	0.073850
C44	C	0.879033	-0.150206	-0.204329
N45	N	0.835377	-0.192815	-0.280967
C46	C	0.907200	-0.121090	0.204585
N47	N	0.873234	-0.151961	0.281977
H48	H	1.365523	0.363484	0.000022
H49	H	0.891395	-0.287312	-0.072524
C50	C	1.123554	-0.147323	-0.205523
N51	N	1.153226	-0.187081	-0.284062
H52	H	1.109646	-0.291969	-0.072968
H53	H	1.136913	-0.116338	0.178310
H54	H	1.123643	-0.018473	-0.102232
C55	C	1.136225	-0.295400	0.098519
N56	N	1.176797	-0.332868	0.172706
