data_functionalizedCrystal
_audit_creation_method	'MofGen! by Chris Wilmer'
_symmetry_space_group_name_H-M	'P1'
_symmetry_Int_Tables_number	1
_symmetry_cell_setting	triclinic
loop_
_symmetry_equiv_pos_as_xyz
  x,y,z
_cell_length_a	15.944545
_cell_length_b	11.026660
_cell_length_c	14.421503
_cell_angle_alpha	90.002326
_cell_angle_beta	90.009865
_cell_angle_gamma	96.040503
loop_
_atom_site_label
_atom_site_type_symbol
_atom_site_fract_x
_atom_site_fract_y
_atom_site_fract_z
O1	O	1.138165	0.156464	-0.077046
O2	O	0.896533	0.175768	-0.077060
O3	O	0.997324	-0.010537	-0.077053
O4	O	1.037374	0.342769	-0.077052
O5	O	0.997342	-0.010525	0.077170
O6	O	0.896551	0.175780	0.077164
O7	O	1.138183	0.156476	0.077178
Cu8	Cu	1.017368	0.166129	0.091253
Cu9	Cu	1.017348	0.166115	-0.091135
O10	O	1.037392	0.342781	0.077171
C11	C	0.865127	0.174974	0.000050
C12	C	0.771518	0.172576	0.000044
C13	C	0.989944	-0.055742	0.000056
C14	C	0.967918	-0.190456	0.000050
C15	C	0.482346	0.049928	0.000054
C16	C	0.541874	0.109065	0.076096
C17	C	0.434581	0.164022	0.000060
C18	C	0.541842	0.109084	-0.075956
C19	C	0.600129	0.168218	0.000051
C20	C	0.492877	0.223128	0.076166
C21	C	0.492839	0.223130	-0.075955
C22	C	0.552347	0.282351	0.000106
C23	C	0.339213	0.161601	0.000066
C24	C	0.695496	0.170648	0.000051
C25	C	1.169589	0.157270	0.000066
C26	C	1.263198	0.159669	0.000066
C27	C	1.005979	-0.403494	0.000055
C28	C	1.028746	-0.264260	0.000054
C29	C	1.044772	0.387986	0.000060
C30	C	1.066797	0.522700	0.000060
N31	N	1.017389	0.166139	0.219534
N32	N	1.017332	0.166096	-0.219416
C33	C	1.064005	0.079972	0.469166
C34	C	0.984542	0.056401	0.530958
C35	C	1.017368	0.166124	0.408695
C36	C	1.096802	0.189624	0.530997
C37	C	1.017354	0.166107	0.591417
C38	C	0.937859	0.142498	0.469127
C39	C	1.050176	0.275769	0.469160
C40	C	0.970665	0.252245	0.530924
C41	C	1.017377	0.166131	0.303434
C42	C	1.017337	0.166101	0.696676
H43	H	0.563529	0.060885	0.140384
H44	H	1.097674	-0.224374	0.000024
H45	H	0.931166	0.325098	0.557870
C46	C	0.834827	-0.205002	0.079321
C47	C	0.874865	-0.244284	0.000045
H48	H	0.777380	-0.238229	0.079313
H49	H	0.862009	-0.231638	0.133093
H50	H	0.837927	-0.118496	0.079311
H51	H	0.871771	-0.330790	0.000058
H52	H	0.847676	-0.217655	-0.053742
H53	H	1.077955	0.368472	0.441994
C54	C	1.236232	0.126206	0.536436
C55	C	1.187508	0.216519	0.567637
H56	H	1.292235	0.142820	0.559037
H57	H	1.212633	0.048911	0.558536
H58	H	1.236884	0.125653	0.470572
H59	H	1.186851	0.217065	0.633502
H60	H	1.211113	0.293834	0.545542
H61	H	0.471353	0.271282	0.140522
H62	H	1.135721	-0.437408	0.000030
H63	H	0.471163	0.271268	-0.140245
H64	H	0.451839	-0.048330	0.000128
H65	H	1.103384	0.007076	0.442048
H66	H	0.563466	0.060874	-0.140240
H67	H	0.582703	0.380685	0.000151
C68	C	0.908389	-0.584842	0.000058
C69	C	0.912932	-0.457332	0.000054
H70	H	0.850943	-0.618074	0.000063
H71	H	0.935554	-0.611470	-0.053719
H72	H	0.935578	-0.611457	0.053843
H73	H	0.885748	-0.430717	-0.053735
H74	H	0.885755	-0.430693	0.053837
C75	C	0.996008	-0.158854	0.536450
C76	C	0.947069	-0.068777	0.567616
H77	H	0.972880	-0.236132	0.559085
H78	H	0.996214	-0.159980	0.470595
H79	H	1.052120	-0.141546	0.558548
H80	H	0.890958	-0.086079	0.545512
H81	H	0.946855	-0.067653	0.633485
C82	C	0.847954	0.115729	0.335513
C83	C	0.847120	0.115519	0.432602
H84	H	0.791937	0.099069	0.312966
H85	H	0.871330	0.193359	0.313851
H86	H	0.881150	0.054885	0.313879
H87	H	0.813929	0.176370	0.454236
H88	H	0.823732	0.037879	0.454273
