data_functionalizedCrystal
_audit_creation_method	'MofGen! by Chris Wilmer'
_symmetry_space_group_name_H-M	'P1'
_symmetry_Int_Tables_number	1
_symmetry_cell_setting	triclinic
loop_
_symmetry_equiv_pos_as_xyz
  x,y,z
_cell_length_a	16.992694
_cell_length_b	17.038272
_cell_length_c	16.053802
_cell_angle_alpha	92.751609
_cell_angle_beta	87.249047
_cell_angle_gamma	90.889890
loop_
_atom_site_label
_atom_site_type_symbol
_atom_site_fract_x
_atom_site_fract_y
_atom_site_fract_z
O1	O	1.054593	0.163385	-0.069325
O2	O	1.554593	0.663385	0.430675
O3	O	0.826187	0.161558	-0.069350
O4	O	1.326187	0.661558	0.430650
O5	O	0.939032	0.048571	-0.069331
O6	O	1.439032	0.548571	0.430669
O7	O	0.941748	0.276372	-0.069344
O8	O	1.441748	0.776372	0.430656
O9	O	0.932819	0.054763	0.069527
O10	O	1.432819	0.554763	0.569527
O11	O	0.819974	0.167750	0.069508
O12	O	1.319974	0.667750	0.569508
O13	O	1.048380	0.169577	0.069533
O14	O	1.548380	0.669577	0.569533
Zn15	Zn	0.933190	0.169646	0.091567
Zn16	Zn	1.433190	0.669646	0.591567
Zn17	Zn	0.941376	0.161489	-0.091384
Zn18	Zn	1.441376	0.661489	0.408616
O19	O	0.935535	0.282564	0.069514
O20	O	1.435535	0.782564	0.569514
C21	C	0.793711	0.162304	0.000076
C22	C	1.293711	0.662304	0.500076
C23	C	0.706200	0.155293	0.000067
C24	C	1.206200	0.655293	0.500067
C25	C	0.660472	0.222933	0.000064
C26	C	1.160472	0.722933	0.500064
C27	C	0.578245	0.216342	0.000076
C28	C	1.078245	0.716342	0.500076
C29	C	0.541748	0.142110	0.000085
C30	C	1.041748	0.642110	0.500085
C31	C	0.587482	0.074465	0.000091
C32	C	1.087482	0.574465	0.500091
C33	C	0.669707	0.081057	0.000085
C34	C	1.169707	0.581057	0.500085
C35	C	0.296327	0.114789	0.000109
C36	C	0.796327	0.614789	0.500109
C37	C	0.214096	0.108201	0.000112
C38	C	0.714096	0.608201	0.500112
C39	C	0.204864	0.250079	0.000099
C40	C	0.704864	0.750079	0.500099
C41	C	0.287091	0.256665	0.000088
C42	C	0.787091	0.756665	0.500088
C43	C	0.332818	0.189020	0.000098
C44	C	0.832818	0.689020	0.500098
N45	N	0.457699	0.135371	0.000094
N46	N	0.957699	0.635371	0.500094
N47	N	0.416865	0.195760	0.000095
N48	N	0.916865	0.695760	0.500095
C49	C	0.933456	0.022384	0.000098
C50	C	1.433456	0.522384	0.500098
C51	C	0.926089	-0.064871	0.000097
C52	C	1.426089	0.435129	0.500097
C53	C	0.993729	-0.110741	0.000105
C54	C	1.493729	0.389259	0.500105
C55	C	0.986802	-0.192727	0.000096
C56	C	1.486802	0.307273	0.500096
C57	C	0.912235	-0.228840	0.000085
C58	C	1.412235	0.271160	0.500085
C59	C	0.844590	-0.182964	0.000075
C60	C	1.344590	0.317036	0.500075
C61	C	0.851518	-0.100981	0.000077
C62	C	1.351518	0.399019	0.500077
C63	C	0.887761	-0.476135	0.000071
C64	C	1.387761	0.023865	0.500071
C65	C	0.880838	-0.558124	0.000071
C66	C	1.380838	-0.058124	0.500071
C67	C	1.023051	-0.567881	0.000091
C68	C	1.523051	-0.067881	0.500091
C69	C	1.029972	-0.485895	0.000099
C70	C	1.529972	0.014105	0.500099
C71	C	0.962328	-0.440026	0.000084
C72	C	1.462328	0.059974	0.500084
C73	C	0.905153	-0.312643	0.000079
C74	C	1.405153	0.187357	0.500079
C75	C	0.969410	-0.356226	0.000084
C76	C	1.469410	0.143774	0.500084
C77	C	1.080856	0.168831	0.000105
C78	C	1.580856	0.668831	0.500105
C79	C	1.168367	0.175841	0.000109
C80	C	1.668367	0.675841	0.500109
C81	C	0.941111	0.308751	0.000084
C82	C	1.441111	0.808751	0.500084
C83	C	0.948478	0.396006	0.000079
C84	C	1.448478	0.896006	0.500079
N85	N	0.927609	0.175214	0.216427
N86	N	1.427609	0.675214	0.716427
N87	N	0.946963	0.155915	-0.216243
N88	N	1.446963	0.655915	0.283757
C89	C	0.975645	0.127157	0.260129
C90	C	1.475645	0.627157	0.760129
C91	C	0.971749	0.131060	0.347535
C92	C	1.471749	0.631060	0.847535
C93	C	0.919820	0.183023	0.391237
C94	C	1.419820	0.683023	0.891237
C95	C	0.871779	0.231082	0.347529
C96	C	1.371779	0.731082	0.847529
C97	C	0.875672	0.227175	0.260125
C98	C	1.375672	0.727175	0.760125
C99	C	0.902815	0.200067	0.652644
C100	C	1.402815	0.700067	1.152644
C101	C	0.898928	0.203972	0.740055
C102	C	1.398928	0.703972	1.240055
C103	C	0.998897	0.103948	0.740054
C104	C	1.498897	0.603948	1.240054
C105	C	1.002788	0.100050	0.652648
C106	C	1.502788	0.600050	1.152648
C107	C	0.954744	0.148105	0.608948
C108	C	1.454744	0.648105	1.108948
N109	N	0.915838	0.187015	0.480580
N110	N	1.415838	0.687015	0.980580
N111	N	0.958723	0.144109	0.519606
N112	N	1.458723	0.644109	1.019606
H113	H	0.706939	0.025977	0.000087
H114	H	1.206939	0.525977	0.500087
H115	H	0.832680	-0.438798	0.000059
H116	H	1.332680	0.061202	0.500059
C117	C	0.173951	0.026543	0.000124
C118	C	0.673951	0.526543	0.500124
H119	H	0.212959	-0.012800	0.000136
H120	H	0.712959	0.487200	0.500136
H121	H	0.144228	0.018863	-0.048298
H122	H	0.644228	0.518863	0.451702
H123	H	0.139905	0.023188	0.048554
H124	H	0.639905	0.523188	0.548554
H125	H	0.557760	0.014024	0.000110
H126	H	1.057760	0.514024	0.500110
H127	H	1.041882	-0.230071	0.000105
H128	H	1.541882	0.269929	0.500105
C129	C	0.814633	0.288217	0.395596
C130	C	1.314633	0.788217	0.895596
H131	H	0.786569	0.316265	0.357048
H132	H	1.286569	0.816265	0.857048
H133	H	0.843592	0.324219	0.429696
H134	H	1.343592	0.824219	0.929696
H135	H	0.778462	0.259402	0.429688
H136	H	1.278462	0.759402	0.929688
H137	H	1.054449	-0.081343	0.000119
H138	H	1.554449	0.418657	0.500119
H139	H	0.863697	0.239197	0.617070
H140	H	1.363697	0.739197	1.117070
C141	C	0.327236	0.338318	0.000074
C142	C	0.827236	0.838318	0.500074
H143	H	0.382756	0.332555	0.000061
H144	H	0.882756	0.832555	0.500061
H145	H	0.309707	0.368551	0.048493
H146	H	0.809707	0.868551	0.548493
H147	H	0.314020	0.364217	-0.048359
H148	H	0.814020	0.864217	0.451641
C149	C	0.762568	-0.222687	0.000065
C150	C	1.262568	0.277313	0.500065
H151	H	0.768128	-0.278083	0.000074
H152	H	1.268128	0.221917	0.500074
H153	H	0.736652	-0.209404	-0.048360
H154	H	1.236652	0.290596	0.451640
H155	H	0.732324	-0.205088	0.048492
H156	H	1.232324	0.294912	0.548492
H157	H	1.090692	-0.456497	0.000108
H158	H	1.590692	0.043503	0.500108
H159	H	0.333548	0.059707	0.000118
H160	H	0.833548	0.559707	0.500118
C161	C	0.822836	0.280040	0.212053
C162	C	1.322836	0.780040	0.712053
H163	H	0.791357	0.311553	0.250597
H164	H	1.291357	0.811553	0.750597
H165	H	0.789696	0.248207	0.177965
H166	H	1.289696	0.748207	0.677965
H167	H	0.854863	0.312988	0.177948
H168	H	1.354863	0.812988	0.677948
H169	H	1.078123	-0.605236	0.000102
H170	H	1.578123	-0.105236	0.500102
C171	C	0.798812	-0.597849	0.000045
C172	C	1.298812	-0.097849	0.500045
H173	H	0.759517	-0.558790	0.000026
H174	H	1.259517	-0.058790	0.500026
H175	H	0.790979	-0.627474	0.048464
H176	H	1.290979	-0.127474	0.548464
H177	H	0.795334	-0.631782	-0.048387
H178	H	1.295334	-0.131782	0.451613
C179	C	0.777114	-0.050524	0.000071
C180	C	1.277114	0.449476	0.500071
H181	H	0.731712	-0.083772	0.000071
H182	H	1.231712	0.416228	0.500071
H183	H	0.779029	-0.020495	-0.048352
H184	H	1.279029	0.479505	0.451648
H185	H	0.774693	-0.016183	0.048500
H186	H	1.274693	0.483817	0.548500
H187	H	0.690181	0.283381	0.000056
H188	H	1.190181	0.783381	0.500056
C189	C	0.154566	0.324484	0.000092
C190	C	0.654566	0.824484	0.500092
H191	H	0.188080	0.369636	0.000080
H192	H	0.688080	0.869636	0.500080
H193	H	0.120137	0.327024	0.048515
H194	H	0.620137	0.827024	0.548515
H195	H	0.124461	0.322700	-0.048336
H196	H	0.624461	0.822700	0.451664
C197	C	1.051431	-0.316507	0.000098
C198	C	1.551431	0.183493	0.500098
H199	H	1.090728	-0.355565	0.000099
H200	H	1.590728	0.144435	0.500099
H201	H	1.054915	-0.282570	0.048521
H202	H	1.554915	0.217430	0.548521
H203	H	1.059256	-0.286885	-0.048331
H204	H	1.559256	0.213115	0.451669
C205	C	1.051734	0.051083	0.788122
C206	C	1.551734	0.551083	1.288122
H207	H	1.083220	0.019580	0.749576
H208	H	1.583220	0.519580	1.249576
H209	H	1.019712	0.018139	0.822228
H210	H	1.519712	0.518139	1.322228
H211	H	1.084880	0.082919	0.822209
H212	H	1.584880	0.582919	1.322209
H213	H	0.844440	-0.342056	0.000072
H214	H	1.344440	0.157944	0.500072
C215	C	1.032766	0.069996	0.212063
C216	C	1.532766	0.569996	0.712063
H217	H	1.060810	0.041929	0.250612
H218	H	1.560810	0.541929	0.750612
H219	H	1.068944	0.098779	0.177956
H220	H	1.568944	0.598779	0.677956
H221	H	1.003775	0.034000	0.177979
H222	H	1.503775	0.534000	0.677979
C223	C	1.024596	0.078205	0.395603
C224	C	1.524596	0.578205	0.895603
H225	H	1.056089	0.046708	0.357057
H226	H	1.556089	0.546708	0.857057
H227	H	0.992584	0.045255	0.429712
H228	H	1.492584	0.545255	0.929712
H229	H	1.057736	0.110051	0.429687
H230	H	1.557736	0.610051	0.929687
H231	H	0.541016	0.271422	0.000072
H232	H	1.041016	0.771422	0.500072
H233	H	0.856639	0.246290	0.775633
H234	H	1.356639	0.746290	1.275633
C235	C	1.059904	0.042885	0.604581
C236	C	1.559904	0.542885	1.104581
H237	H	1.087951	0.014817	0.643128
H238	H	1.587951	0.514817	1.143128
H239	H	1.096081	0.071669	0.570473
H240	H	1.596081	0.571669	1.070473
H241	H	1.030913	0.006890	0.570497
H242	H	1.530913	0.506890	1.070497
