data_functionalizedCrystal
_audit_creation_method	'MofGen! by Chris Wilmer'
_symmetry_space_group_name_H-M	'P1'
_symmetry_Int_Tables_number	1
_symmetry_cell_setting	triclinic
loop_
_symmetry_equiv_pos_as_xyz
  x,y,z
_cell_length_a	19.805404
_cell_length_b	19.805407
_cell_length_c	11.169409
_cell_angle_alpha	89.975883
_cell_angle_beta	89.962334
_cell_angle_gamma	90.029593
loop_
_atom_site_label
_atom_site_type_symbol
_atom_site_fract_x
_atom_site_fract_y
_atom_site_fract_z
Zn1	Zn	-0.269408	1.034751	-0.678636
Zn2	Zn	-0.382618	1.034651	-0.477934
Zn3	Zn	-0.269448	0.921557	-0.477955
Zn4	Zn	-0.382561	0.921523	-0.678564
O5	O	-0.326009	0.978120	-0.578272
O6	O	-0.284433	1.129454	-0.652033
O7	O	-0.367646	1.019621	-0.309987
O8	O	-0.174726	0.936628	-0.504615
O9	O	-0.367607	1.129381	-0.504579
O10	O	-0.174697	1.019792	-0.652054
O11	O	-0.284500	0.936531	-0.310002
O12	O	-0.284445	0.826836	-0.504545
O13	O	-0.367511	0.936571	-0.846523
O14	O	-0.367549	0.826811	-0.651931
O15	O	-0.284378	1.019759	-0.846576
O16	O	-0.477327	1.019588	-0.504509
O17	O	-0.477285	0.936473	-0.651911
C18	C	-0.325996	0.802264	-0.578233
C19	C	-0.326006	0.727032	-0.578245
C20	C	-0.369344	0.691693	-0.654865
C21	C	-0.369345	0.621005	-0.654882
C22	C	-0.326012	0.585657	-0.578272
C23	C	-0.282670	0.621001	-0.501649
C24	C	-0.282666	0.691688	-0.501639
C25	C	-0.282685	0.335928	-0.501689
C26	C	-0.282694	0.265236	-0.501702
C27	C	-0.369364	0.265244	-0.654932
C28	C	-0.369360	0.335931	-0.654922
C29	C	-0.326016	0.371269	-0.578303
C30	C	-0.326014	0.447918	-0.578288
C31	C	-0.326016	0.509010	-0.578281
C32	C	-0.501865	0.978034	-0.578226
C33	C	-0.577097	0.978060	-0.578246
C34	C	-1.038887	1.021564	-0.501688
C35	C	-0.968198	1.021533	-0.501665
C36	C	-0.932858	0.978209	-0.578336
C37	C	-0.968210	0.934910	-0.655027
C38	C	-1.038897	0.934939	-0.655043
C39	C	-0.683137	0.934792	-0.654961
C40	C	-0.612445	0.934768	-0.654941
C41	C	-0.612438	1.021386	-0.501582
C42	C	-0.683125	1.021415	-0.501599
C43	C	-0.718471	0.978113	-0.578285
C44	C	-0.795119	0.978147	-0.578308
C45	C	-0.856211	0.978178	-0.578320
C46	C	-0.149466	0.978225	-0.578345
C47	C	-0.074234	0.978270	-0.578376
C48	C	-0.325933	0.978172	-0.891315
C49	C	-0.325901	0.978195	-1.024715
C50	C	-0.326022	1.154663	-0.578312
C51	C	-0.326028	1.229895	-0.578329
C52	C	-0.326035	0.978108	-0.266447
C53	C	-0.325876	0.978217	-0.133048
H54	H	-0.404635	0.592234	-0.717272
C55	C	-0.762557	0.925373	-0.816409
C56	C	-0.721982	0.887203	-0.739268
H57	H	-0.786541	0.895992	-0.868456
H58	H	-0.734932	0.954837	-0.862347
H59	H	-0.793721	0.951171	-0.770736
H60	H	-0.690814	0.861409	-0.784941
H61	H	-0.749609	0.857728	-0.693324
H62	H	-0.711896	1.056696	-0.439169
H63	H	-0.247396	0.364692	-0.439292
H64	H	-0.404654	0.236463	-0.717322
H65	H	-0.247402	0.236458	-0.439317
C66	C	-0.504076	1.059804	-0.433434
C67	C	-0.573584	1.068978	-0.417272
H68	H	-0.480092	1.089183	-0.381382
H69	H	-0.492447	1.069681	-0.514077
H70	H	-0.492549	1.014325	-0.415785
H71	H	-0.585111	1.114456	-0.434930
H72	H	-0.585217	1.059105	-0.336611
C73	C	-0.455028	0.328838	-0.806400
C74	C	-0.416990	0.374785	-0.739138
H75	H	-0.484428	0.352825	-0.858399
H76	H	-0.480888	0.301243	-0.754034
H77	H	-0.425561	0.301291	-0.852400
H78	H	-0.446457	0.402328	-0.693131
H79	H	-0.391128	0.402391	-0.791510
C80	C	-0.197004	0.684584	-0.350156
C81	C	-0.235034	0.730536	-0.417405
H82	H	-0.167600	0.708568	-0.298149
H83	H	-0.171146	0.657044	-0.402530
H84	H	-0.226474	0.656985	-0.304165
H85	H	-0.205563	0.758133	-0.463403
H86	H	-0.260893	0.758089	-0.365024
H87	H	-1.067656	1.056847	-0.439260
C88	C	-0.619548	0.849135	-0.806528
C89	C	-0.573597	0.887139	-0.739218
H90	H	-0.595564	0.819732	-0.858549
H91	H	-0.647071	0.878618	-0.852496
H92	H	-0.647166	0.823273	-0.754184
H93	H	-0.545983	0.913006	-0.791562
H94	H	-0.546063	0.857653	-0.693246
C95	C	-0.975292	1.107170	-0.350100
C96	C	-0.929345	1.069131	-0.417379
H97	H	-0.951304	1.136559	-0.298071
H98	H	-1.002907	1.077708	-0.304142
H99	H	-1.002817	1.133048	-0.402462
H100	H	-0.901823	1.043248	-0.365017
H101	H	-0.901718	1.098596	-0.463341
C102	C	-0.244190	0.512640	-0.433625
C103	C	-0.235034	0.582148	-0.417441
H104	H	-0.214783	0.488657	-0.381631
H105	H	-0.234338	0.501088	-0.514289
H106	H	-0.289658	0.501037	-0.415910
H107	H	-0.189567	0.593753	-0.435165
H108	H	-0.244881	0.593706	-0.336759
H109	H	-0.939432	0.899631	-0.717450
C110	C	-1.060607	0.901921	-0.858224
C111	C	-1.077756	0.887352	-0.739345
H112	H	-1.084600	0.872543	-0.910265
H113	H	-1.013458	0.895701	-0.869181
H114	H	-1.072146	0.947400	-0.875851
H115	H	-1.066213	0.841875	-0.721715
H116	H	-1.124916	0.893567	-0.728382
C117	C	-0.455010	0.684594	-0.806343
C118	C	-0.416975	0.730544	-0.739083
H119	H	-0.484412	0.708579	-0.858344
H120	H	-0.480869	0.656999	-0.753975
H121	H	-0.425542	0.657047	-0.852341
H122	H	-0.446444	0.758087	-0.693078
H123	H	-0.391114	0.758150	-0.791457
