data_functionalizedCrystal
_audit_creation_method	'MofGen! by Chris Wilmer'
_symmetry_space_group_name_H-M	'P1'
_symmetry_Int_Tables_number	1
_symmetry_cell_setting	triclinic
loop_
_symmetry_equiv_pos_as_xyz
  x,y,z
_cell_length_a	12.759401
_cell_length_b	12.759399
_cell_length_c	12.759393
_cell_angle_alpha	90.030906
_cell_angle_beta	90.019676
_cell_angle_gamma	90.015542
loop_
_atom_site_label
_atom_site_type_symbol
_atom_site_fract_x
_atom_site_fract_y
_atom_site_fract_z
Zn1	Zn	1.606263	-0.418204	0.593982
Zn2	Zn	1.606153	-0.593919	0.418301
Zn3	Zn	1.430562	-0.418256	0.418321
Zn4	Zn	1.430553	-0.593842	0.593942
O5	O	1.518383	-0.506055	0.506136
O6	O	1.753270	-0.441523	0.570686
O7	O	1.582818	-0.570671	0.271282
O8	O	1.453919	-0.271228	0.441648
O9	O	1.753189	-0.570620	0.441613
O10	O	1.583006	-0.271189	0.570705
O11	O	1.453812	-0.441612	0.271297
O12	O	1.283540	-0.441538	0.441609
O13	O	1.453903	-0.570489	0.740968
O14	O	1.283533	-0.570540	0.570637
O15	O	1.582997	-0.441448	0.740998
O16	O	1.582809	-0.740930	0.441575
O17	O	1.453796	-0.740874	0.570617
C18	C	1.245415	-0.506037	0.506121
C19	C	1.128639	-0.506055	0.506140
C20	C	1.073820	-0.438955	0.573451
C21	C	0.964096	-0.438966	0.573458
C22	C	0.964020	-0.573185	0.438839
C23	C	1.073742	-0.573168	0.438828
C24	C	1.518318	-0.779023	0.506112
C25	C	1.518387	-0.895799	0.506137
C26	C	1.585641	-0.950656	0.439021
C27	C	1.585708	-1.060380	0.439056
C28	C	1.451259	-1.060381	0.573327
C29	C	1.451198	-0.950659	0.573296
C30	C	1.792416	-0.506074	0.506152
C31	C	1.909193	-0.506082	0.506158
C32	C	1.518476	-0.232022	0.506183
C33	C	1.518516	-0.115245	0.506203
C34	C	1.518461	-0.505954	0.780170
C35	C	1.518495	-0.505911	0.896946
C36	C	1.518365	-0.506080	0.233169
C37	C	1.518535	-0.505827	0.116393
C38	C	1.585719	-0.438709	0.951825
C39	C	1.585737	-0.438664	1.061550
C40	C	1.451303	-0.573032	1.061506
C41	C	1.451281	-0.573072	0.951784
H42	H	0.919309	-0.627827	0.384037
H43	H	1.118377	-0.627810	0.384009
O44	O	1.650859	-0.897479	0.373646
C45	C	1.627951	-0.924377	0.268921
H46	H	1.587609	-1.004078	0.266732
H47	H	1.573919	-0.862699	0.233469
C48	C	1.779957	-0.831524	0.208059
C49	C	1.730417	-0.929418	0.205370
H50	H	1.843162	-0.834629	0.168856
H51	H	1.795390	-0.813398	0.278614
H52	H	1.734920	-0.780136	0.178518
H53	H	1.775449	-0.980802	0.234923
H54	H	1.714995	-0.947553	0.134819
H55	H	1.640474	-1.105039	0.384405
H56	H	0.919467	-0.384325	0.628269
O57	O	1.386022	-1.113837	0.638455
C58	C	1.400511	-1.222444	0.624108
H59	H	1.434971	-1.237467	0.543063
H60	H	1.456443	-1.253486	0.686483
C61	C	1.251909	-1.260403	0.733199
C62	C	1.294226	-1.278855	0.633654
H63	H	1.186349	-1.295202	0.739092
H64	H	1.242149	-1.187232	0.742869
H65	H	1.298529	-1.286272	0.785167
H66	H	1.247612	-1.252974	0.581688
H67	H	1.303976	-1.352023	0.623976
H68	H	1.396432	-0.905992	0.627955
H69	H	1.640446	-0.384020	0.907180
H70	H	1.640476	-0.383939	1.106227
H71	H	1.396583	-0.627714	1.106168
H72	H	1.396532	-0.627795	0.907100
H73	H	1.118514	-0.384304	0.628258
