data_functionalizedCrystal
_audit_creation_method	'MofGen! by Chris Wilmer'
_symmetry_space_group_name_H-M	'P1'
_symmetry_Int_Tables_number	1
_symmetry_cell_setting	triclinic
loop_
_symmetry_equiv_pos_as_xyz
  x,y,z
_cell_length_a	11.792241
_cell_length_b	10.489741
_cell_length_c	10.868271
_cell_angle_alpha	89.995151
_cell_angle_beta	89.999893
_cell_angle_gamma	84.366295
loop_
_atom_site_label
_atom_site_type_symbol
_atom_site_fract_x
_atom_site_fract_y
_atom_site_fract_z
O1	O	1.507380	0.174832	-0.102202
O2	O	1.177088	0.192851	-0.102231
O3	O	1.349749	-0.001782	-0.102208
O4	O	1.334718	0.369465	-0.102224
O5	O	1.349735	-0.001790	0.102436
O6	O	1.177073	0.192843	0.102414
O7	O	1.507366	0.174825	0.102443
Zn8	Zn	1.342217	0.183833	0.134920
Zn9	Zn	1.342236	0.183843	-0.134708
O10	O	1.334704	0.369457	0.102420
C11	C	1.134786	0.191715	0.000088
C12	C	1.008764	0.188327	0.000077
C13	C	1.348607	-0.049314	0.000113
C14	C	1.345210	-0.190931	0.000111
C15	C	0.778035	0.182098	0.000113
C16	C	0.906429	0.185559	0.000093
C17	C	1.235351	-0.258697	0.000092
C18	C	1.287240	-0.351000	0.100997
C19	C	1.287281	-0.350967	-0.100767
C20	C	1.397145	-0.281369	0.101099
C21	C	1.397170	-0.281327	-0.100755
C22	C	1.449140	-0.373603	0.000174
C23	C	1.549667	0.175960	0.000121
C24	C	1.675690	0.179348	0.000124
C25	C	1.335846	0.416989	0.000096
C26	C	1.339243	0.558607	0.000091
N27	N	1.342213	0.183825	0.318934
N28	N	1.342250	0.183840	-0.318722
C29	C	1.342230	0.183840	0.569940
C30	C	1.342217	0.183835	0.430263
H31	H	1.145025	-0.208738	0.000186
C32	C	1.224441	-0.392694	0.216226
H33	H	1.148487	-0.352973	0.216099
H34	H	1.262736	-0.367708	0.287881
H35	H	1.223336	-0.483127	0.215767
C36	C	1.571219	-0.440921	0.000325
H37	H	1.582596	-0.492412	-0.071360
H38	H	1.582022	-0.493458	0.071376
H39	H	1.624344	-0.378452	0.001055
C40	C	1.224479	-0.392604	-0.216010
H41	H	1.274595	-0.449467	-0.263525
H42	H	1.199750	-0.319302	-0.263836
H43	H	1.160348	-0.434752	-0.191754
H44	H	1.443583	-0.250699	0.186502
C45	C	1.459918	-0.239583	-0.215990
H46	H	1.420782	-0.263146	-0.287621
H47	H	1.535435	-0.280513	-0.216711
H48	H	1.462219	-0.149318	-0.214746
