data_functionalizedCrystal
_audit_creation_method	'MofGen! by Chris Wilmer'
_symmetry_space_group_name_H-M	'P1'
_symmetry_Int_Tables_number	1
_symmetry_cell_setting	triclinic
loop_
_symmetry_equiv_pos_as_xyz
  x,y,z
_cell_length_a	14.853567
_cell_length_b	10.489741
_cell_length_c	13.330367
_cell_angle_alpha	89.995673
_cell_angle_beta	89.995418
_cell_angle_gamma	84.087052
loop_
_atom_site_label
_atom_site_type_symbol
_atom_site_fract_x
_atom_site_fract_y
_atom_site_fract_z
O1	O	1.197303	0.166528	-0.083354
O2	O	0.934954	0.186366	-0.083371
O3	O	1.072098	-0.009218	-0.083356
O4	O	1.060159	0.362112	-0.083369
O5	O	1.072078	-0.009223	0.083491
O6	O	0.934934	0.186361	0.083476
O7	O	1.197282	0.166524	0.083493
Cu8	Cu	1.066107	0.176442	0.098719
Cu9	Cu	1.066130	0.176447	-0.098597
O10	O	1.060139	0.362107	0.083479
C11	C	0.901351	0.185464	0.000051
C12	C	0.801252	0.182771	0.000044
C13	C	1.071186	-0.056742	0.000067
C14	C	1.068488	-0.198341	0.000065
C15	C	0.388003	0.055204	0.000071
C16	C	0.368025	0.287562	0.000062
C17	C	0.462072	0.290094	0.000059
C18	C	0.519090	0.175180	0.000060
C19	C	0.482060	0.057733	0.000065
C20	C	0.499110	0.407539	0.000044
C21	C	0.593163	0.410077	0.000040
C22	C	0.650183	0.295161	0.000048
C23	C	0.613147	0.177709	0.000054
C24	C	0.670164	0.062795	0.000055
C25	C	0.633130	-0.054658	0.000068
C26	C	0.539079	-0.057183	0.000073
C27	C	0.744234	0.297685	0.000043
C28	C	0.764221	0.065324	0.000049
C29	C	0.981228	-0.265502	0.000052
C30	C	1.022439	-0.358089	0.082319
C31	C	1.022479	-0.358060	-0.082179
C32	C	1.109735	-0.289063	0.082400
C33	C	1.109764	-0.289024	-0.082172
C34	C	1.151038	-0.381585	0.000115
C35	C	1.230886	0.167425	0.000070
C36	C	1.330985	0.170118	0.000070
C37	C	1.061051	0.409631	0.000053
C38	C	1.063748	0.551230	0.000049
N39	N	1.066096	0.176437	0.237501
N40	N	1.066147	0.176441	-0.237378
C41	C	1.005400	0.263017	0.710117
C42	C	1.126885	0.089867	0.710098
C43	C	1.126874	0.089863	0.605080
C44	C	1.066127	0.176439	0.552575
C45	C	1.005390	0.263019	0.605089
C46	C	1.187617	0.003293	0.552558
C47	C	1.187610	0.003287	0.447534
C48	C	1.126857	0.089858	0.395027
C49	C	1.066117	0.176440	0.447547
C50	C	1.005369	0.263016	0.395043
C51	C	0.944624	0.349594	0.447561
C52	C	0.944637	0.349590	0.552582
C53	C	1.126844	0.089861	0.290005
C54	C	1.005359	0.263017	0.290015
H55	H	0.810640	-0.028255	0.000054
H56	H	0.679566	-0.148221	0.000062
H57	H	1.237080	-0.067188	0.595311
C58	C	0.897513	-0.460997	0.147027
C59	C	0.972589	-0.399410	0.176201
H60	H	0.866738	-0.486508	0.204985
H61	H	0.857718	-0.403853	0.108304
H62	H	0.917172	-0.534411	0.108020
H63	H	0.952929	-0.325990	0.215203
H64	H	1.012390	-0.456558	0.214941
H65	H	1.237070	-0.067210	0.404780
H66	H	0.909483	-0.215045	0.000130
H67	H	1.176306	0.019377	0.247250
H68	H	0.508917	-0.152807	0.000108
C69	C	1.235590	-0.188141	-0.146926
C70	C	1.159578	-0.247657	-0.176058
H71	H	1.266339	-0.162608	-0.204894
H72	H	1.216922	-0.114933	-0.107274
H73	H	1.275066	-0.246531	-0.108865
H74	H	1.120098	-0.189264	-0.214113
H75	H	1.178244	-0.320875	-0.215726
H76	H	1.222848	-0.431815	0.000165
C77	C	1.161560	-0.114860	0.175580
C78	C	1.159520	-0.248014	0.176402
H79	H	1.192287	-0.089518	0.233616
H80	H	1.192360	-0.090679	0.117245
H81	H	1.101414	-0.074081	0.175338
H82	H	1.219667	-0.288793	0.176636
H83	H	1.128722	-0.272207	0.234752
H84	H	0.955940	0.333504	0.752880
H85	H	0.985555	-0.388607	-0.151736
H86	H	0.955888	0.333514	0.247272
H87	H	0.895167	0.420090	0.404799
C88	C	0.822151	0.376950	0.670728
C89	C	0.877879	0.444754	0.610318
H90	H	0.780944	0.435703	0.706379
H91	H	0.789371	0.323789	0.629771
H92	H	0.858345	0.325389	0.717017
H93	H	0.841685	0.496308	0.564024
H94	H	0.910661	0.497937	0.651279
C95	C	0.252707	-0.051860	0.000087
C96	C	0.347300	-0.073897	0.000081
H97	H	0.227581	-0.131564	0.000087
H98	H	0.233194	-0.004552	0.058268
H99	H	0.233195	-0.004537	-0.058100
H100	H	0.366813	-0.121213	0.058272
H101	H	0.366821	-0.121226	-0.058105
C102	C	0.250664	0.419507	-0.085707
C103	C	0.305350	0.413868	0.000060
H104	H	0.211965	0.497483	-0.085701
H105	H	0.287773	0.415679	-0.143879
H106	H	0.215156	0.349190	-0.085694
H107	H	0.340864	0.484179	0.000044
H108	H	0.268237	0.417707	0.058248
C109	C	0.381737	0.539471	-0.085716
C110	C	0.436432	0.533842	0.000044
H111	H	0.343035	0.617444	-0.085708
H112	H	0.418840	0.535643	-0.143893
H113	H	0.346232	0.469150	-0.085695
H114	H	0.471942	0.604157	0.000020
H115	H	0.399325	0.537682	0.058237
C116	C	0.605070	0.608917	-0.085739
C117	C	0.633857	0.539184	0.000031
H118	H	0.630188	0.688627	-0.085738
H119	H	0.624603	0.561602	-0.143909
H120	H	0.540895	0.623833	-0.085728
H121	H	0.698032	0.524260	0.000016
H122	H	0.614330	0.586510	0.058217
C123	C	0.756163	0.496508	-0.085746
C124	C	0.784942	0.426777	0.000028
H125	H	0.781291	0.576211	-0.085748
H126	H	0.775690	0.449184	-0.143914
H127	H	0.691989	0.511438	-0.085735
H128	H	0.849117	0.411838	0.000014
H129	H	0.765420	0.474111	0.058211
C130	C	1.282466	0.015345	0.742400
C131	C	1.193652	-0.005305	0.767803
H132	H	1.323683	-0.043415	0.778031
H133	H	1.291143	0.002955	0.672345
H134	H	1.292806	0.100497	0.759615
H135	H	1.183309	-0.090455	0.750582
H136	H	1.184971	0.007074	0.837874
