data_functionalizedCrystal
_audit_creation_method	'MofGen! by Chris Wilmer'
_symmetry_space_group_name_H-M	'P1'
_symmetry_Int_Tables_number	1
_symmetry_cell_setting	triclinic
loop_
_symmetry_equiv_pos_as_xyz
  x,y,z
_cell_length_a	27.732048
_cell_length_b	14.044220
_cell_length_c	13.101039
_cell_angle_alpha	86.332523
_cell_angle_beta	93.324104
_cell_angle_gamma	87.915766
loop_
_atom_site_label
_atom_site_type_symbol
_atom_site_fract_x
_atom_site_fract_y
_atom_site_fract_z
O1	O	-0.648645	-0.107455	-0.085084
O2	O	-0.148645	0.392545	0.414916
O3	O	-0.508657	-0.124591	-0.085115
O4	O	-0.008657	0.375409	0.414885
O5	O	-0.576549	0.021930	-0.085090
O6	O	-0.076549	0.521930	0.414910
O7	O	-0.580752	-0.253976	-0.085109
O8	O	-0.080752	0.246024	0.414891
O9	O	-0.571679	0.011400	0.085338
O10	O	-0.071679	0.511400	0.585338
O11	O	-0.503786	-0.135121	0.085313
O12	O	-0.003786	0.364879	0.585313
O13	O	-0.643774	-0.117985	0.085344
O14	O	-0.143774	0.382015	0.585344
Zn15	Zn	-0.573007	-0.128225	0.112388
Zn16	Zn	-0.073007	0.371775	0.612388
Zn17	Zn	-0.579424	-0.114351	-0.112159
Zn18	Zn	-0.079424	0.385649	0.387841
O19	O	-0.575882	-0.264506	0.085319
O20	O	-0.075882	0.235494	0.585319
C21	C	-0.488198	-0.129496	0.000095
C22	C	0.011802	0.370504	0.500095
C23	C	-0.434492	-0.128412	0.000083
C24	C	0.065508	0.371588	0.500083
C25	C	-0.572274	0.051953	0.000124
C26	C	-0.072274	0.551953	0.500124
C27	C	-0.566787	0.157098	0.000124
C28	C	-0.066787	0.657098	0.500124
C29	C	-0.664233	-0.113080	0.000132
C30	C	-0.164233	0.386920	0.500132
C31	C	-0.717939	-0.114163	0.000137
C32	C	-0.217939	0.385837	0.500137
C33	C	-0.099419	-0.208180	0.000122
C34	C	0.400581	0.291820	0.500122
C35	C	0.102429	-0.204161	0.000132
C36	C	0.602429	0.295839	0.500132
O37	O	0.130263	-0.277104	0.000171
O38	O	0.630263	0.222896	0.500171
N39	N	0.125630	-0.117280	0.000136
N40	N	0.625630	0.382720	0.500136
C41	C	0.098366	-0.031397	0.000144
C42	C	0.598366	0.468603	0.500144
O43	O	0.122732	0.042593	0.000159
O44	O	0.622732	0.542593	0.500159
C45	C	-0.103481	-0.035417	0.000142
C46	C	0.396519	0.464583	0.500142
C47	C	-0.126680	-0.122304	0.000128
C48	C	0.373320	0.377696	0.500128
C49	C	-0.122618	-0.295060	0.000109
C50	C	0.377382	0.204940	0.500109
C51	C	-0.173077	-0.296063	0.000101
C52	C	0.326923	0.203937	0.500101
C53	C	-0.200338	-0.210187	0.000106
C54	C	0.299662	0.289813	0.500106
C55	C	-0.177139	-0.123307	0.000120
C56	C	0.322861	0.376693	0.500120
C57	C	-0.130744	0.050464	0.000158
C58	C	0.369256	0.550464	0.500158
C59	C	-0.181209	0.049452	0.000160
C60	C	0.318791	0.549452	0.500160
C61	C	-0.204407	-0.037435	0.000146
C62	C	0.295593	0.462565	0.500146
C63	C	-0.254859	-0.038434	0.000117
C64	C	0.245141	0.461566	0.500117
N65	N	-0.278060	-0.125316	0.000113
N66	N	0.221940	0.374684	0.500113
C67	C	-0.250799	-0.211192	0.000108
C68	C	0.249201	0.288808	0.500108
C69	C	0.204339	-0.029292	0.000143
C70	C	0.704339	0.470708	0.500143
C71	C	0.254801	-0.028287	0.000142
C72	C	0.754801	0.471713	0.500142
C73	C	0.258860	-0.201052	0.000131
C74	C	0.758860	0.298948	0.500131
C75	C	0.208397	-0.202056	0.000125
C76	C	0.708397	0.297944	0.500125
C77	C	0.181138	-0.116174	0.000139
C78	C	0.681138	0.383826	0.500139
C79	C	-0.356768	-0.213293	0.000090
C80	C	0.143232	0.286707	0.500090
C81	C	-0.407232	-0.214288	0.000078
C82	C	0.092768	0.285712	0.500078
C83	C	-0.411287	-0.041524	0.000094
C84	C	0.088713	0.458476	0.500094
C85	C	-0.360827	-0.040528	0.000101
C86	C	0.139173	0.459472	0.500101
C87	C	-0.333569	-0.126420	0.000102
C88	C	0.166431	0.373580	0.500102
O89	O	-0.282722	0.034469	0.000090
O90	O	0.217278	0.534469	0.500090
O91	O	-0.275174	-0.285173	0.000116
O92	O	0.224826	0.214827	0.500116
C93	C	-0.048960	-0.207177	0.000130
C94	C	0.451040	0.292823	0.500130
C95	C	-0.025761	-0.120297	0.000144
C96	C	0.474239	0.379703	0.500144
C97	C	-0.053022	-0.034420	0.000149
C98	C	0.446978	0.465580	0.500149
C99	C	0.024700	-0.119291	0.000142
C100	C	0.524700	0.380709	0.500142
C101	C	0.051961	-0.205168	0.000137
C102	C	0.551961	0.294832	0.500137
C103	C	0.028760	-0.292050	0.000132
C104	C	0.528760	0.207950	0.500132
C105	C	-0.021700	-0.293053	0.000124
C106	C	0.478300	0.206947	0.500124
C107	C	-0.029821	0.052461	0.000153
C108	C	0.470179	0.552461	0.500153
C109	C	0.020639	0.053458	0.000160
C110	C	0.520639	0.553458	0.500160
C111	C	0.047899	-0.032419	0.000155
C112	C	0.547899	0.467581	0.500155
C113	C	-0.580157	-0.294528	0.000103
C114	C	-0.080157	0.205472	0.500103
C115	C	-0.585644	-0.399673	0.000096
C116	C	-0.085644	0.100327	0.500096
N117	N	-0.568631	-0.137693	0.265634
N118	N	-0.068631	0.362307	0.765634
C119	C	-0.556756	0.349614	0.000107
C120	C	-0.056756	0.849614	0.500107
C121	C	-0.595673	0.407817	0.000113
C122	C	-0.095673	0.907817	0.500113
C123	C	-0.590091	0.514939	0.000103
C124	C	-0.090091	1.014939	0.500103
C125	C	-0.562337	0.242481	0.000117
C126	C	-0.062337	0.742481	0.500117
N127	N	-0.583803	-0.104876	-0.265406
N128	N	-0.083803	0.395124	0.234594
C129	C	-0.562678	-0.150583	0.474675
C130	C	-0.062678	0.349417	0.974675
C131	C	-0.589755	-0.091989	0.525561
C132	C	-0.089755	0.408011	1.025561
C133	C	-0.586443	-0.099161	0.641878
C134	C	-0.086443	0.400839	1.141878
C135	C	-0.565990	-0.143412	0.358347
C136	C	-0.065990	0.356588	0.858347
H137	H	-0.426118	-0.285045	0.000065
H138	H	0.073882	0.214955	0.500065
F139	F	-0.623465	-0.019662	0.468324
F140	F	-0.123465	0.480338	0.968324
F141	F	-0.507732	0.389637	0.000091
F142	F	-0.007732	0.889637	0.500091
F143	F	-0.327764	-0.304709	0.000092
F144	F	0.172236	0.195291	0.500092
F145	F	-0.197761	-0.388541	0.000090
F146	F	0.302239	0.111459	0.500090
F147	F	-0.644701	0.367794	0.000132
F148	F	-0.144701	0.867794	0.500132
F149	F	-0.529128	-0.223188	0.531909
F150	F	-0.029128	0.276812	1.031909
F151	F	-0.106066	0.142944	0.000159
F152	F	0.393934	0.642944	0.500159
H153	H	-0.100428	-0.364995	0.000108
H154	H	0.399572	0.135005	0.500108
F155	F	0.057781	-0.383445	0.000121
F156	F	0.557781	0.116555	0.500121
H157	H	0.189513	-0.272807	0.000119
H158	H	0.689513	0.227193	0.500119
H159	H	0.273684	0.042466	0.000138
H160	H	0.773684	0.542466	0.500138
F161	F	0.287881	-0.292448	0.000126
F162	F	0.787881	0.207552	0.500126
H163	H	0.182149	0.040647	0.000155
H164	H	0.682149	0.540647	0.500155
H165	H	-0.203401	0.119389	0.000173
H166	H	0.296599	0.619389	0.500173
F167	F	0.045323	0.145942	0.000163
F168	F	0.545323	0.645942	0.500163
F169	F	-0.336137	0.051946	0.000117
F170	F	0.163863	0.551946	0.500117
F171	F	-0.058827	0.143868	0.000161
F172	F	0.441173	0.643868	0.500161
F173	F	-0.440308	0.049867	0.000102
F174	F	0.059692	0.549867	0.500102
F175	F	-0.046383	-0.385531	0.000109
F176	F	0.453617	0.114469	0.500109
