data_functionalizedCrystal
_audit_creation_method	'MofGen! by Chris Wilmer'
_symmetry_space_group_name_H-M	'P1'
_symmetry_Int_Tables_number	1
_symmetry_cell_setting	triclinic
loop_
_symmetry_equiv_pos_as_xyz
  x,y,z
_cell_length_a	14.853563
_cell_length_b	15.186229
_cell_length_c	16.109301
_cell_angle_alpha	89.989142
_cell_angle_beta	96.452606
_cell_angle_gamma	90.008347
loop_
_atom_site_label
_atom_site_type_symbol
_atom_site_fract_x
_atom_site_fract_y
_atom_site_fract_z
O1	O	-1.196192	-0.073222	0.108539
O2	O	-0.696192	0.426778	0.608539
O3	O	-0.933711	-0.073224	0.121474
O4	O	-0.433711	0.426776	0.621474
O5	O	-1.072162	-0.073220	-0.006015
O6	O	-0.572162	0.426780	0.493985
O7	O	-1.057741	-0.073226	0.236027
O8	O	-0.557741	0.426774	0.736027
O9	O	-1.072142	0.073237	-0.006036
O10	O	-0.572142	0.573237	0.493964
O11	O	-0.933690	0.073233	0.121453
O12	O	-0.433690	0.573233	0.621453
O13	O	-1.196172	0.073236	0.108518
O14	O	-0.696172	0.573236	0.608518
Zn15	Zn	-1.064928	0.096488	0.114982
Zn16	Zn	-0.564928	0.596488	0.614982
Zn17	Zn	-1.064955	-0.096476	0.115010
Zn18	Zn	-0.564955	0.403524	0.615010
O19	O	-1.057721	0.073232	0.236006
O20	O	-0.557721	0.573232	0.736006
C21	C	-0.900113	0.000004	0.120878
C22	C	-0.400113	0.500004	0.620878
C23	C	-0.800032	0.000003	0.119123
C24	C	-0.300032	0.500003	0.619123
N25	N	-1.064916	0.228180	0.114963
N26	N	-0.564916	0.728180	0.614963
C27	C	-1.071568	0.000008	-0.037001
C28	C	-0.571568	0.500008	0.462999
C29	C	-1.069816	0.000004	-0.129298
C30	C	-0.569816	0.500004	0.370702
C31	C	-0.753024	-0.079834	0.118312
C32	C	-0.253024	0.420166	0.618312
C33	C	-0.753000	0.079840	0.118279
C34	C	-0.253000	0.579840	0.618279
C35	C	-0.658970	0.079842	0.116627
C36	C	-0.158970	0.579842	0.616627
C37	C	-0.611962	0.000005	0.115815
C38	C	-0.111962	0.500005	0.615815
C39	C	-0.658985	-0.079834	0.116657
C40	C	-0.158985	0.420166	0.616657
C41	C	-0.611941	0.159679	0.115776
C42	C	-0.111941	0.659679	0.615776
C43	C	-0.517904	0.159684	0.114123
C44	C	-0.017904	0.659684	0.614123
C45	C	-0.470894	0.079847	0.113317
C46	C	0.029106	0.579847	0.613317
C47	C	-0.517923	0.000004	0.114160
C48	C	-0.017923	0.500004	0.614160
C49	C	-0.470915	-0.079832	0.113349
C50	C	0.029085	0.420168	0.613349
C51	C	-0.517942	-0.159676	0.114197
C52	C	-0.017942	0.340324	0.614197
C53	C	-0.611975	-0.159672	0.115851
C54	C	-0.111975	0.340328	0.615851
C55	C	-0.376861	0.079843	0.111663
C56	C	0.123139	0.579843	0.611663
C57	C	-0.376876	-0.079833	0.111693
C58	C	0.123124	0.420167	0.611693
C59	C	-0.229770	0.000007	0.109110
C60	C	0.270230	0.500007	0.609110
C61	C	-0.329853	0.000006	0.110852
C62	C	0.170147	0.500006	0.610852
C63	C	-1.010281	0.546133	0.064483
C64	C	-0.510281	1.046133	0.564483
C65	C	-1.010275	0.453944	0.064471
C66	C	-0.510275	0.953944	0.564471
C67	C	-1.119603	0.453885	0.165502
C68	C	-0.619603	0.953885	0.665502
C69	C	-1.119614	0.546073	0.165509
C70	C	-0.619614	1.046073	0.665509
C71	C	-1.064948	0.592195	0.115001
C72	C	-0.564948	1.092195	0.615001
C73	C	-1.064930	0.407817	0.114982
C74	C	-0.564930	0.907817	0.614982
C75	C	-1.064924	0.307861	0.114970
C76	C	-0.564924	0.807861	0.614970
C77	C	-1.064956	0.692157	0.115012
C78	C	-0.564956	1.192157	0.615012
N79	N	-1.064962	0.771831	0.115020
N80	N	-0.564962	1.271831	0.615020
C81	C	-1.058315	0.000002	0.266993
C82	C	-0.558315	0.500002	0.766993
C83	C	-1.060066	-0.000000	0.359290
C84	C	-0.560066	0.500000	0.859290
C85	C	-0.983638	-0.000005	0.668182
C86	C	-0.483638	0.499995	1.168182
C87	C	-0.981984	-0.000003	0.581460
C88	C	-0.481984	0.499997	1.081460
C89	C	-1.146251	0.000011	0.561815
C90	C	-0.646251	0.500011	1.061815
C91	C	-1.147904	0.000016	0.648536
C92	C	-0.647904	0.500016	1.148536
C93	C	-1.066595	0.000004	0.701718
C94	C	-0.566595	0.500004	1.201718
C95	C	-1.063288	0.000000	0.528274
C96	C	-0.563288	0.500000	1.028274
C97	C	-1.061495	0.000002	0.434246
C98	C	-0.561495	0.500002	0.934246
C99	C	-1.068387	0.000004	0.795752
C100	C	-0.568387	0.500004	1.295752
H101	H	-0.338609	-0.144847	0.111038
H102	H	0.161391	0.355153	0.611038
C103	C	-0.890733	-0.000016	0.544570
C104	C	-0.390733	0.499984	1.044570
H105	H	-0.901390	-0.000008	0.485305
H106	H	-0.401390	0.499992	0.985305
H107	H	-0.857270	-0.051092	0.562827
H108	H	-0.357270	0.448908	1.062827
H109	H	-0.857247	0.051060	0.562811
H110	H	-0.357247	0.551060	1.062811
H111	H	-1.164135	0.583577	0.206647
H112	H	-0.664135	1.083577	0.706647
C113	C	-1.179721	0.403148	0.221064
C114	C	-0.679721	0.903148	0.721064
H115	H	-1.171879	0.341647	0.213833
H116	H	-0.671879	0.841647	0.713833
H117	H	-1.241410	0.418242	0.205722
H118	H	-0.741410	0.918242	0.705722
H119	H	-1.162948	0.418247	0.277927
H120	H	-0.662948	0.918247	0.777927
C121	C	-0.663648	0.247491	0.116670
C122	C	-0.163648	0.747491	0.616670
H123	H	-0.726384	0.236054	0.117788
H124	H	-0.226384	0.736054	0.617788
H125	H	-0.655132	0.280295	0.067947
H126	H	-0.155132	0.780295	0.567947
H127	H	-0.641337	0.280295	0.164842
H128	H	-0.141337	0.780295	0.664842
H129	H	-0.791317	-0.144840	0.119006
H130	H	-0.291317	0.355160	0.619006
C131	C	-0.804706	0.167653	0.119172
C132	C	-0.304706	0.667653	0.619172
H133	H	-0.867443	0.156218	0.120283
H134	H	-0.367443	0.656218	0.620283
H135	H	-0.796182	0.200459	0.070453
H136	H	-0.296182	0.700459	0.570453
H137	H	-0.782399	0.200453	0.167348
H138	H	-0.282399	0.700453	0.667348
C139	C	-0.894202	-0.000008	0.726679
C140	C	-0.394202	0.499992	1.226679
H141	H	-0.844559	-0.000004	0.694283
H142	H	-0.344559	0.499996	1.194283
H143	H	-0.891438	-0.051078	0.760929
H144	H	-0.391438	0.448922	1.260929
H145	H	-0.891424	0.051074	0.760905
H146	H	-0.391424	0.551074	1.260905
H147	H	-0.965761	0.416445	0.023334
H148	H	-0.465761	0.916445	0.523334
H149	H	-1.215462	0.000025	0.675840
H150	H	-0.715462	0.500025	1.175840
H151	H	-0.650272	-0.224676	0.116541
H152	H	-0.150272	0.275324	0.616541
H153	H	-1.212450	0.000020	0.518504
H154	H	-0.712450	0.500020	1.018504
H155	H	-0.479656	-0.224679	0.113532
H156	H	0.020344	0.275321	0.613532
H157	H	-0.479624	0.224698	0.113431
H158	H	0.020376	0.724698	0.613431
H159	H	-0.338575	0.144850	0.110980
H160	H	0.161425	0.644850	0.610980
H161	H	-0.965769	0.583683	0.023356
H162	H	-0.465769	1.083683	0.523356
