data_functionalizedCrystal
_audit_creation_method	'MofGen! by Chris Wilmer'
_symmetry_space_group_name_H-M	'P1'
_symmetry_Int_Tables_number	1
_symmetry_cell_setting	triclinic
loop_
_symmetry_equiv_pos_as_xyz
  x,y,z
_cell_length_a	18.050591
_cell_length_b	18.050590
_cell_length_c	18.050591
_cell_angle_alpha	90.007244
_cell_angle_beta	90.007198
_cell_angle_gamma	90.015000
loop_
_atom_site_label
_atom_site_type_symbol
_atom_site_fract_x
_atom_site_fract_y
_atom_site_fract_z
Zn1	Zn	1.135250	-0.295895	0.420004
Zn2	Zn	1.385250	-0.045895	0.670004
Zn3	Zn	1.635250	0.204105	0.920004
Zn4	Zn	1.885250	0.454105	1.170004
Zn5	Zn	1.135209	-0.420043	0.295813
Zn6	Zn	1.385209	-0.170043	0.545813
Zn7	Zn	1.635209	0.079957	0.795813
Zn8	Zn	1.885209	0.329957	1.045813
Zn9	Zn	1.011097	-0.295864	0.295818
Zn10	Zn	1.261097	-0.045864	0.545818
Zn11	Zn	1.511097	0.204136	0.795818
Zn12	Zn	1.761097	0.454136	1.045818
Zn13	Zn	1.011038	-0.420040	0.419951
Zn14	Zn	1.261038	-0.170040	0.669951
Zn15	Zn	1.511038	0.079960	0.919951
Zn16	Zn	1.761038	0.329960	1.169951
O17	O	1.073149	-0.357961	0.357896
O18	O	1.323149	-0.107961	0.607896
O19	O	1.573149	0.142039	0.857896
O20	O	1.823149	0.392039	1.107896
O21	O	1.239169	-0.312378	0.403550
O22	O	1.489169	-0.062378	0.653550
O23	O	1.739169	0.187622	0.903550
O24	O	1.989169	0.437622	1.153550
O25	O	1.118753	-0.403559	0.191889
O26	O	1.368753	-0.153559	0.441889
O27	O	1.618753	0.096441	0.691889
O28	O	1.868753	0.346441	0.941889
O29	O	1.027608	-0.191944	0.312316
O30	O	1.277608	0.058056	0.562316
O31	O	1.527608	0.308056	0.812316
O32	O	1.777608	0.558056	1.062316
O33	O	1.239139	-0.403589	0.312307
O34	O	1.489139	-0.153589	0.562307
O35	O	1.739139	0.096411	0.812307
O36	O	1.989139	0.346411	1.062307
O37	O	1.118823	-0.191966	0.403555
O38	O	1.368823	0.058034	0.653555
O39	O	1.618823	0.308034	0.903555
O40	O	1.868823	0.558034	1.153555
O41	O	1.027568	-0.312325	0.191893
O42	O	1.277568	-0.062325	0.441893
O43	O	1.527568	0.187675	0.691893
O44	O	1.777568	0.437675	0.941893
O45	O	0.907164	-0.312322	0.312264
O46	O	1.157164	-0.062322	0.562264
O47	O	1.407164	0.187678	0.812264
O48	O	1.657164	0.437678	1.062264
O49	O	1.027508	-0.403583	0.523882
O50	O	1.277508	-0.153583	0.773882
O51	O	1.527508	0.096417	1.023882
O52	O	1.777508	0.346417	1.273882
O53	O	0.907122	-0.403553	0.403464
O54	O	1.157122	-0.153553	0.653464
O55	O	1.407122	0.096447	0.903464
O56	O	1.657122	0.346447	1.153464
O57	O	1.118766	-0.312375	0.523922
O58	O	1.368766	-0.062375	0.773922
O59	O	1.618766	0.187625	1.023922
O60	O	1.868766	0.437625	1.273922
O61	O	1.118696	-0.523967	0.312255
O62	O	1.368696	-0.273967	0.562255
O63	O	1.618696	-0.023967	0.812255
O64	O	1.868696	0.226033	1.062255
O65	O	1.027468	-0.523965	0.403459
O66	O	1.277468	-0.273965	0.653459
O67	O	1.527468	-0.023965	0.903459
O68	O	1.777468	0.226035	1.153459
C69	C	0.880197	-0.357934	0.357859
C70	C	1.130197	-0.107934	0.607859
C71	C	1.380197	0.142066	0.857859
C72	C	1.630197	0.392066	1.107859
C73	C	0.797651	-0.357941	0.357861
C74	C	1.047651	-0.107941	0.607861
C75	C	1.297651	0.142059	0.857861
C76	C	1.547651	0.392059	1.107861
C77	C	1.073092	-0.550913	0.357867
C78	C	1.323092	-0.300913	0.607867
C79	C	1.573092	-0.050913	0.857867
C80	C	1.823092	0.199087	1.107867
C81	C	1.073135	-0.633458	0.357879
C82	C	1.323135	-0.383458	0.607879
C83	C	1.573135	-0.133458	0.857879
C84	C	1.823135	0.116542	1.107879
C85	C	0.548827	-0.308278	0.308384
C86	C	0.798827	-0.058278	0.558384
C87	C	1.048827	0.191722	0.808384
C88	C	1.298827	0.441722	1.058384
C89	C	0.598241	-0.290216	0.376160
C90	C	0.848241	-0.040216	0.626160
C91	C	1.098241	0.209784	0.876160
C92	C	1.348241	0.459784	1.126160
C93	C	0.500530	-0.357979	0.357922
C94	C	0.750530	-0.107979	0.607922
C95	C	1.000530	0.142021	0.857922
C96	C	1.250530	0.392021	1.107922
C97	C	0.598198	-0.375987	0.290119
C98	C	0.848198	-0.125987	0.540119
C99	C	1.098198	0.124013	0.790119
C100	C	1.348198	0.374013	1.040119
C101	C	0.646515	-0.357959	0.357888
C102	C	0.896515	-0.107959	0.607888
C103	C	1.146515	0.142041	0.857888
C104	C	1.396515	0.392041	1.107888
C105	C	0.548857	-0.339882	0.425734
C106	C	0.798857	-0.089882	0.675734
C107	C	1.048857	0.160118	0.925734
C108	C	1.298857	0.410118	1.175734
C109	C	0.548810	-0.425685	0.339647
C110	C	0.798810	-0.175685	0.589647
C111	C	1.048810	0.074315	0.839647
C112	C	1.298810	0.324315	1.089647
C113	C	0.598202	-0.407649	0.407471
C114	C	0.848202	-0.157649	0.657471
C115	C	1.098202	0.092351	0.907471
C116	C	1.348202	0.342351	1.157471
C117	C	0.416432	-0.357989	0.357940
C118	C	0.666432	-0.107989	0.607940
C119	C	0.916432	0.142011	0.857940
C120	C	1.166432	0.392011	1.107940
C121	C	0.730612	-0.357949	0.357878
C122	C	0.980612	-0.107949	0.607878
C123	C	1.230612	0.142051	0.857878
C124	C	1.480612	0.392051	1.107878
C125	C	1.122848	-0.832884	0.308352
C126	C	1.372848	-0.582884	0.558352
C127	C	1.622848	-0.332884	0.808352
C128	C	1.872848	-0.082884	1.058352
C129	C	1.140969	-0.882242	0.376133
C130	C	1.390969	-0.632242	0.626133
C131	C	1.640969	-0.382242	0.876133
C132	C	1.890969	-0.132242	1.126133
C133	C	1.073177	-0.784589	0.357908
C134	C	1.323177	-0.534589	0.607908
C135	C	1.573177	-0.284589	0.857908
C136	C	1.823177	-0.034589	1.107908
C137	C	1.055132	-0.882312	0.290157
C138	C	1.305132	-0.632312	0.540157
C139	C	1.555132	-0.382312	0.790157
C140	C	1.805132	-0.132312	1.040157
C141	C	1.073219	-0.930574	0.357931
C142	C	1.323219	-0.680574	0.607931
C143	C	1.573219	-0.430574	0.857931
C144	C	1.823219	-0.180574	1.107931
C145	C	1.091333	-0.832860	0.425726
C146	C	1.341333	-0.582860	0.675726
C147	C	1.591333	-0.332860	0.925726
C148	C	1.841333	-0.082860	1.175726
C149	C	1.005465	-0.832925	0.339704
C150	C	1.255465	-0.582925	0.589704
C151	C	1.505465	-0.332925	0.839704
C152	C	1.755465	-0.082925	1.089704
C153	C	1.023560	-0.882262	0.407533
C154	C	1.273560	-0.632262	0.657533
C155	C	1.523560	-0.382262	0.907533
C156	C	1.773560	-0.132262	1.157533
C157	C	1.073155	-0.700491	0.357894
C158	C	1.323155	-0.450491	0.607894
C159	C	1.573155	-0.200491	0.857894
C160	C	1.823155	0.049509	1.107894
C161	C	1.073242	-1.014670	0.357953
C162	C	1.323242	-0.764670	0.607953
C163	C	1.573242	-0.514670	0.857953
C164	C	1.823242	-0.264670	1.107953
C165	C	1.266854	-0.357987	0.357934
C166	C	1.516854	-0.107987	0.607934
C167	C	1.766854	0.142013	0.857934
C168	C	2.016854	0.392013	1.107934
C169	C	1.349400	-0.357999	0.357950
C170	C	1.599400	-0.107999	0.607950
C171	C	1.849400	0.142001	0.857950
C172	C	2.099400	0.392001	1.107950
C173	C	1.073135	-0.357982	0.551602
C174	C	1.323135	-0.107982	0.801602
C175	C	1.573135	0.142018	1.051602
C176	C	1.823135	0.392018	1.301602
C177	C	1.073130	-0.357991	0.634148
C178	C	1.323130	-0.107991	0.884148
C179	C	1.573130	0.142009	1.134148
C180	C	1.823130	0.392009	1.384148
C181	C	1.073226	-0.164255	0.357942
C182	C	1.323226	0.085745	0.607942
C183	C	1.573226	0.335745	0.857942
C184	C	1.823226	0.585745	1.107942
C185	C	1.073259	-0.081709	0.357962
C186	C	1.323259	0.168291	0.607962
C187	C	1.573259	0.418291	0.857962
C188	C	1.823259	0.668291	1.107962
C189	C	1.023491	-0.407583	0.882952
C190	C	1.273491	-0.157583	1.132952
C191	C	1.523491	0.092417	1.382952
C192	C	1.773491	0.342417	1.632952
C193	C	1.005351	-0.339830	0.833563
C194	C	1.255351	-0.089830	1.083563
C195	C	1.505351	0.160170	1.333563
C196	C	1.755351	0.410170	1.583563
C197	C	1.073123	-0.357969	0.931268
C198	C	1.323123	-0.107969	1.181268
C199	C	1.573123	0.142031	1.431268
C200	C	1.823123	0.392031	1.681268
C201	C	1.091231	-0.425729	0.833575
C202	C	1.341231	-0.175729	1.083575
C203	C	1.591231	0.074271	1.333575
C204	C	1.841231	0.324271	1.583575
C205	C	1.073124	-0.357984	0.785283
C206	C	1.323124	-0.107984	1.035283
C207	C	1.573124	0.142016	1.285283
C208	C	1.823124	0.392016	1.535283
C209	C	1.054947	-0.290180	0.882967
C210	C	1.304947	-0.040180	1.132967
C211	C	1.554947	0.209820	1.382967
C212	C	1.804947	0.459820	1.632967
C213	C	1.140859	-0.376125	0.882983
C214	C	1.390859	-0.126125	1.132983
C215	C	1.640859	0.123875	1.382983
C216	C	1.890859	0.373875	1.632983
C217	C	1.122744	-0.308326	0.833616
C218	C	1.372744	-0.058326	1.083616
C219	C	1.622744	0.191674	1.333616
C220	C	1.872744	0.441674	1.583616
C221	C	1.073120	-0.357962	1.015366
C222	C	1.323120	-0.107962	1.265366
C223	C	1.573120	0.142038	1.515366
C224	C	1.823120	0.392038	1.765366
C225	C	1.073127	-0.357983	0.701186
C226	C	1.323127	-0.107983	0.951186
C227	C	1.573127	0.142017	1.201186
C228	C	1.823127	0.392017	1.451186
C229	C	1.073146	-0.357959	1.164944
C230	C	1.323146	-0.107959	1.414944
C231	C	1.573146	0.142041	1.664944
C232	C	1.823146	0.392041	1.914944
C233	C	1.073119	-0.357961	1.082398
C234	C	1.323119	-0.107961	1.332398
C235	C	1.573119	0.142039	1.582398
C236	C	1.823119	0.392039	1.832398
H237	H	0.527149	-0.266225	0.266557
H238	H	0.777149	-0.016225	0.516557
H239	H	1.027149	0.233775	0.766557
H240	H	1.277149	0.483775	1.016557
C241	C	0.966836	-0.911367	0.464226
C242	C	1.216836	-0.661367	0.714226
C243	C	1.466836	-0.411367	0.964226
C244	C	1.716836	-0.161367	1.214226
N245	N	0.924113	-0.933290	0.506929
N246	N	1.174113	-0.683290	0.756929
N247	N	1.424113	-0.433290	1.006929
N248	N	1.674113	-0.183290	1.256929
H249	H	1.106548	-0.483027	0.811880
H250	H	1.356548	-0.233027	1.061880
H251	H	1.606548	0.016973	1.311880
H252	H	1.856548	0.266973	1.561880
C253	C	0.627577	-0.212853	0.397028
C254	C	0.877577	0.037147	0.647028
C255	C	1.127577	0.287147	0.897028
C256	C	1.377577	0.537147	1.147028
N257	N	0.649670	-0.154582	0.412740
N258	N	0.899670	0.095418	0.662740
N259	N	1.149670	0.345418	0.912740
N260	N	1.399670	0.595418	1.162740
C261	C	0.519448	-0.503024	0.318749
C262	C	0.769448	-0.253024	0.568749
C263	C	1.019448	-0.003024	0.818749
C264	C	1.269448	0.246976	1.068749
N265	N	0.497329	-0.561276	0.303000
N266	N	0.747329	-0.311276	0.553000
N267	N	0.997329	-0.061276	0.803000
N268	N	1.247329	0.188724	1.053000
C269	C	1.179613	-0.803583	0.251798
C270	C	1.429613	-0.553583	0.501798
C271	C	1.679613	-0.303583	0.751798
C272	C	1.929613	-0.053583	1.001798
N273	N	1.222370	-0.781510	0.209207
N274	N	1.472370	-0.531510	0.459207
N275	N	1.722370	-0.281510	0.709207
N276	N	1.972370	-0.031510	0.959207
C277	C	1.179444	-0.251588	0.804529
C278	C	1.429444	-0.001588	1.054529
C279	C	1.679444	0.248412	1.304529
C280	C	1.929444	0.498412	1.554529
N281	N	1.222146	-0.208851	0.782617
N282	N	1.472146	0.041149	1.032617
N283	N	1.722146	0.291149	1.282617
N284	N	1.972146	0.541149	1.532617
H285	H	1.198250	-0.903907	0.391545
H286	H	1.448250	-0.653907	0.641545
H287	H	1.698250	-0.403907	0.891545
H288	H	1.948250	-0.153907	1.141545
C289	C	1.034161	-0.212752	0.912152
C290	C	1.284161	0.037248	1.162152
C291	C	1.534161	0.287248	1.412152
C292	C	1.784161	0.537248	1.662152
N293	N	1.018502	-0.154436	0.934135
N294	N	1.268502	0.095564	1.184135
N295	N	1.518502	0.345564	1.434135
N296	N	1.768502	0.595564	1.684135
C297	C	0.519702	-0.319198	0.503200
C298	C	0.769702	-0.069198	0.753200
C299	C	1.019702	0.180802	1.003200
C300	C	1.269702	0.430802	1.253200
N301	N	0.497740	-0.303616	0.561545
N302	N	0.747740	-0.053616	0.811545
N303	N	0.997740	0.196384	1.061545
N304	N	1.247740	0.446384	1.311545
C305	C	0.928106	-0.803626	0.318852
C306	C	1.178106	-0.553626	0.568852
C307	C	1.428106	-0.303626	0.818852
C308	C	1.678106	-0.053626	1.068852
N309	N	0.869841	-0.781554	0.303137
N310	N	1.119841	-0.531554	0.553137
N311	N	1.369841	-0.281554	0.803137
N312	N	1.619841	-0.031554	1.053137
H313	H	0.619873	-0.391227	0.232794
H314	H	0.869873	-0.141227	0.482794
H315	H	1.119873	0.108773	0.732794
H316	H	1.369873	0.358773	0.982794
C317	C	1.112071	-0.803642	0.503165
C318	C	1.362071	-0.553642	0.753165
C319	C	1.612071	-0.303642	1.003165
C320	C	1.862071	-0.053642	1.253165
N321	N	1.127694	-0.781632	0.561490
N322	N	1.377694	-0.531632	0.811490
N323	N	1.627694	-0.281632	1.061490
N324	N	1.877694	-0.031632	1.311490
C325	C	1.218221	-0.396899	0.912336
C326	C	1.468221	-0.146899	1.162336
C327	C	1.718221	0.103101	1.412336
C328	C	1.968221	0.353101	1.662336
N329	N	1.276491	-0.412554	0.934447
N330	N	1.526491	-0.162554	1.184447
N331	N	1.776491	0.087446	1.434447
N332	N	2.026491	0.337446	1.684447
C333	C	1.034486	-0.911653	0.212740
C334	C	1.284486	-0.661653	0.462740
C335	C	1.534486	-0.411653	0.712740
C336	C	1.784486	-0.161653	0.962740
N337	N	1.018940	-0.933749	0.154427
N338	N	1.268940	-0.683749	0.404427
N339	N	1.518940	-0.433749	0.654427
N340	N	1.768940	-0.183749	0.904427
C341	C	0.966747	-0.464182	0.912224
C342	C	1.216747	-0.214182	1.162224
C343	C	1.466747	0.035818	1.412224
C344	C	1.716747	0.285818	1.662224
N345	N	0.924005	-0.506809	0.934273
N346	N	1.174005	-0.256809	1.184273
N347	N	1.424005	-0.006809	1.434273
N348	N	1.674005	0.243191	1.684273
C349	C	0.927966	-0.319082	0.804240
C350	C	1.177966	-0.069082	1.054240
C351	C	1.427966	0.180918	1.304240
C352	C	1.677966	0.430918	1.554240
N353	N	0.869677	-0.303459	0.782157
N354	N	1.119677	-0.053459	1.032157
N355	N	1.369677	0.196541	1.282157
N356	N	1.619677	0.446541	1.532157
H357	H	0.619744	-0.449671	0.449397
H358	H	0.869744	-0.199671	0.699397
H359	H	1.119744	0.050329	0.949397
H360	H	1.369744	0.300329	1.199397
