data_functionalizedCrystal
_audit_creation_method	'MofGen! by Chris Wilmer'
_symmetry_space_group_name_H-M	'P1'
_symmetry_Int_Tables_number	1
_symmetry_cell_setting	triclinic
loop_
_symmetry_equiv_pos_as_xyz
  x,y,z
_cell_length_a	13.032831
_cell_length_b	13.032721
_cell_length_c	13.032268
_cell_angle_alpha	103.289627
_cell_angle_beta	90.886977
_cell_angle_gamma	90.902885
loop_
_atom_site_label
_atom_site_type_symbol
_atom_site_fract_x
_atom_site_fract_y
_atom_site_fract_z
Zn1	Zn	1.399428	-0.702884	-0.857492
Zn2	Zn	1.399318	-0.857952	-0.702424
Zn3	Zn	1.255414	-0.659406	-0.658991
Zn4	Zn	1.206359	-0.852325	-0.851935
O5	O	1.315130	-0.768142	-0.767710
O6	O	1.540438	-0.744005	-0.857424
O7	O	1.400712	-0.815774	-0.551018
O8	O	1.295093	-0.519539	-0.669471
O9	O	1.540357	-0.857933	-0.743496
O10	O	1.400900	-0.551483	-0.815309
O11	O	1.294986	-0.669903	-0.519108
O12	O	1.107882	-0.664446	-0.664083
O13	O	1.211487	-0.848342	-0.998317
O14	O	1.071842	-0.806183	-0.805839
O15	O	1.353334	-0.738549	-1.002399
O16	O	1.353146	-1.002840	-0.738108
O17	O	1.211380	-0.998706	-0.847953
C18	C	1.053296	-0.729987	-0.729646
C19	C	0.941275	-0.713692	-0.713389
C20	C	0.873527	-0.776647	-0.776195
C21	C	0.757747	-0.759806	-0.759394
C22	C	1.276952	-1.038540	-0.797167
C23	C	1.260707	-1.154235	-0.809817
C24	C	1.323655	-1.207840	-0.761163
C25	C	1.306867	-1.327417	-0.774236
C26	C	1.577986	-0.806447	-0.805925
C27	C	1.690000	-0.822770	-0.822209
C28	C	1.276951	-0.797668	-1.039178
C29	C	1.260681	-0.810250	-1.154861
C30	C	1.353481	-0.496694	-0.738165
C31	C	1.369823	-0.381019	-0.725575
C32	C	1.323611	-0.761535	-1.208456
C33	C	1.306797	-0.774538	-1.328021
C34	C	1.353229	-0.738664	-0.497299
C35	C	1.369735	-0.725817	-0.381613
H36	H	0.913561	-0.647322	-0.647184
O37	O	0.906530	-0.855720	-0.855315
C38	C	0.906879	-0.930479	-1.042476
C39	C	0.869457	-0.840854	-0.952974
H40	H	0.876904	-0.918503	-1.121452
H41	H	0.994367	-0.929960	-1.042043
H42	H	0.877012	-1.009379	-1.030176
H43	H	0.899251	-0.761910	-0.965213
H44	H	0.781970	-0.841467	-0.953431
H45	H	1.194352	-0.861574	-1.197492
H46	H	0.730039	-0.693432	-0.693185
H47	H	1.389980	-1.165210	-0.709834
O48	O	1.227763	-1.378419	-0.835408
C49	C	1.138975	-1.544123	-0.904297
C50	C	1.228581	-1.486490	-0.834972
H51	H	1.139619	-1.631512	-0.903986
H52	H	1.063233	-1.509136	-0.871841
H53	H	1.147779	-1.534391	-0.988459
H54	H	1.219876	-1.496200	-0.750796
H55	H	1.304288	-1.521488	-0.867515
H56	H	1.240463	-0.825867	-1.370647
H57	H	1.436153	-1.338392	-0.674242
H58	H	1.389932	-0.710199	-1.165823
O59	O	0.722992	-0.901851	-0.901335
C60	C	0.723327	-0.976613	-1.088495
C61	C	0.685916	-0.886983	-0.998992
H62	H	0.693349	-0.964636	-1.167470
H63	H	0.810815	-0.976100	-1.088069
H64	H	0.693456	-1.055510	-1.076192
H65	H	0.715713	-0.808042	-1.011234
H66	H	0.598428	-0.887590	-0.999443
H67	H	1.194390	-1.196870	-0.861155
H68	H	1.436059	-0.674475	-1.338985
