data_functionalizedCrystal
_audit_creation_method	'MofGen! by Chris Wilmer'
_symmetry_space_group_name_H-M	'P1'
_symmetry_Int_Tables_number	1
_symmetry_cell_setting	triclinic
loop_
_symmetry_equiv_pos_as_xyz
  x,y,z
_cell_length_a	8.497374
_cell_length_b	12.759401
_cell_length_c	12.759399
_cell_angle_alpha	89.983359
_cell_angle_beta	89.991562
_cell_angle_gamma	90.001753
loop_
_atom_site_label
_atom_site_type_symbol
_atom_site_fract_x
_atom_site_fract_y
_atom_site_fract_z
Zn1	Zn	0.891958	1.606064	0.418406
Zn2	Zn	0.628160	1.606013	0.594052
Zn3	Zn	0.628185	1.430422	0.418393
Zn4	Zn	0.891892	1.430354	0.594048
O5	O	0.760048	1.518213	0.506225
O6	O	0.856982	1.753079	0.441713
O7	O	0.407401	1.582728	0.570747
O8	O	0.663213	1.453771	0.271373
O9	O	0.663171	1.753041	0.570760
O10	O	0.857005	1.582815	0.271383
O11	O	0.407419	1.453722	0.441691
O12	O	0.663149	1.283392	0.441686
O13	O	1.112663	1.453655	0.570752
O14	O	0.856893	1.283342	0.570739
O15	O	1.112711	1.582749	0.441709
O16	O	0.663107	1.582661	0.741073
O17	O	0.856869	1.453605	0.741069
C18	C	0.760017	1.245246	0.506212
C19	C	0.760041	1.128469	0.506232
C20	C	0.860765	1.073609	0.573532
C21	C	0.860796	0.963885	0.573536
C22	C	0.659366	0.963891	0.438937
C23	C	0.659344	1.073613	0.438928
C24	C	0.760013	1.518149	0.779192
C25	C	0.760050	1.518217	0.895969
C26	C	1.171529	1.518205	0.506226
C27	C	1.350173	1.518208	0.506237
C28	C	0.760081	1.792246	0.506238
C29	C	0.760095	1.909023	0.506244
C30	C	0.760119	1.518307	0.232191
C31	C	0.760149	1.518346	0.115415
C32	C	0.659273	1.585494	0.950797
C33	C	0.659326	1.585561	1.060521
C34	C	0.860938	1.451067	1.060578
C35	C	0.860891	1.451006	0.950856
H36	H	0.942818	0.919222	0.628337
H37	H	0.577380	0.919214	0.384142
C38	C	0.460219	1.062608	0.305886
C39	C	0.548614	1.133924	0.364949
H40	H	0.391860	1.099844	0.260221
H41	H	0.529063	1.019830	0.265775
H42	H	0.399764	1.019793	0.351610
H43	H	0.609078	1.176734	0.319225
H44	H	0.479761	1.176720	0.405064
H45	H	0.577164	1.640223	0.906111
C46	C	1.073032	1.436224	0.827420
C47	C	0.971678	1.377051	0.890581
H48	H	1.141431	1.390570	0.790214
H49	H	1.012974	1.476236	0.779034
H50	H	1.133447	1.481984	0.870181
H51	H	0.911254	1.331296	0.847819
H52	H	1.031742	1.337020	0.938972
C53	C	1.127759	1.107413	0.624979
C54	C	0.971464	1.133910	0.647498
H55	H	1.196102	1.144644	0.670639
H56	H	1.142175	1.034223	0.634619
H57	H	1.151000	1.125418	0.554408
H58	H	0.948219	1.115898	0.718067
H59	H	0.957041	1.207116	0.637867
C60	C	0.460023	1.718483	1.049437
C61	C	0.548540	1.659508	1.120789
H62	H	0.391621	1.764132	1.086646
H63	H	0.528787	1.758607	1.006589
H64	H	0.399608	1.672702	1.006697
H65	H	0.608964	1.705289	1.163524
H66	H	0.479767	1.619381	1.163655
C67	C	0.950515	1.391433	1.228801
C68	C	0.971762	1.377180	1.120915
H69	H	1.018926	1.345809	1.266046
H70	H	0.973711	1.462010	1.246713
H71	H	0.844499	1.376127	1.246811
H72	H	1.077776	1.392493	1.102903
H73	H	0.948577	1.306586	1.102995
