data_functionalizedCrystal
_audit_creation_method	'MofGen! by Chris Wilmer'
_symmetry_space_group_name_H-M	'P1'
_symmetry_Int_Tables_number	1
_symmetry_cell_setting	triclinic
loop_
_symmetry_equiv_pos_as_xyz
  x,y,z
_cell_length_a	14.853554
_cell_length_b	16.974800
_cell_length_c	16.053833
_cell_angle_alpha	96.540498
_cell_angle_beta	87.123115
_cell_angle_gamma	96.490566
loop_
_atom_site_label
_atom_site_type_symbol
_atom_site_fract_x
_atom_site_fract_y
_atom_site_fract_z
O1	O	-0.114914	1.049334	0.001500
O2	O	0.385086	1.549334	0.501500
O3	O	-0.128803	0.818472	-0.014106
O4	O	0.371197	1.318472	0.485894
O5	O	0.009369	0.940076	-0.005882
O6	O	0.509369	1.440076	0.494118
O7	O	-0.253085	0.927731	-0.006725
O8	O	0.246915	1.427731	0.493275
O9	O	0.002581	0.946049	0.133380
O10	O	0.502581	1.446049	0.633380
O11	O	-0.135590	0.824445	0.125155
O12	O	0.364410	1.324445	0.625155
O13	O	-0.121702	1.055307	0.140761
O14	O	0.378298	1.555307	0.640761
Zn15	Zn	-0.129724	0.940825	0.155069
Zn16	Zn	0.370276	1.440825	0.655069
Zn17	Zn	-0.120780	0.932955	-0.028414
Zn18	Zn	0.379220	1.432955	0.471586
O19	O	-0.259873	0.933704	0.132537
O20	O	0.240127	1.433704	0.632537
C21	C	-0.131544	0.791914	0.053527
C22	C	0.368456	1.291914	0.553527
C23	C	-0.129590	0.703880	0.047576
C24	C	0.370410	1.203880	0.547576
C25	C	-0.132369	0.665782	0.120694
C26	C	0.367631	1.165782	0.620694
C27	C	-0.130519	0.583066	0.115105
C28	C	0.369481	1.083066	0.615105
C29	C	-0.125895	0.538449	0.036397
C30	C	0.374105	1.038449	0.536397
C31	C	-0.123112	0.576553	-0.036726
C32	C	0.376888	1.076553	0.463274
C33	C	-0.124956	0.659268	-0.031136
C34	C	0.375044	1.159268	0.468864
C35	C	-0.119976	0.290718	0.011538
C36	C	0.380024	0.790718	0.511538
C37	C	-0.118135	0.207997	0.005954
C38	C	0.381865	0.707997	0.505954
C39	C	-0.125540	0.214517	0.157785
C40	C	0.374460	0.714517	0.657785
C41	C	-0.127389	0.297233	0.163368
C42	C	0.372611	0.797233	0.663368
C43	C	-0.124602	0.335330	0.090245
C44	C	0.375398	0.835330	0.590245
N45	N	-0.124006	0.453900	0.030682
N46	N	0.375994	0.953900	0.530682
N47	N	-0.126484	0.419878	0.095961
N48	N	0.373516	0.919878	0.595961
C49	C	-0.290068	0.931275	0.062943
C50	C	0.209932	1.431275	0.562943
C51	C	-0.390153	0.932945	0.063052
C52	C	0.109847	1.432945	0.563052
C53	C	-0.809636	0.936790	-0.012373
C54	C	-0.309636	1.436790	0.487627
C55	C	-0.817022	0.943302	0.139455
C56	C	-0.317022	1.443302	0.639455
C57	C	-0.722988	0.941723	0.139348
C58	C	-0.222988	1.441723	0.639348
C59	C	-0.672274	0.937678	0.063379
C60	C	-0.172274	1.437678	0.563379
C61	C	-0.715593	0.935213	-0.012483
C62	C	-0.215593	1.435213	0.487517
C63	C	-0.679660	0.944196	0.215208
C64	C	-0.179660	1.444196	0.715208
C65	C	-0.585620	0.942618	0.215104
C66	C	-0.085620	1.442618	0.715104
C67	C	-0.534905	0.938567	0.139134
C68	C	-0.034905	1.438567	0.639134
C69	C	-0.578230	0.936101	0.063269
C70	C	-0.078230	1.436101	0.563269
C71	C	-0.527516	0.932057	-0.012700
C72	C	-0.027516	1.432057	0.487300
C73	C	-0.570840	0.929584	-0.088566
C74	C	-0.070840	1.429584	0.411434
C75	C	-0.664878	0.931162	-0.088453
C76	C	-0.164878	1.431162	0.411547
C77	C	-0.440868	0.936990	0.139021
C78	C	0.059132	1.436990	0.639021
C79	C	-0.433473	0.930480	-0.012810
C80	C	0.066527	1.430480	0.487190
C81	C	0.039564	0.942505	0.063711
C82	C	0.539564	1.442505	0.563711
C83	C	0.139649	0.940834	0.063596
C84	C	0.639649	1.440834	0.563596
C85	C	-0.118960	1.081866	0.073126
C86	C	0.381040	1.581866	0.573126
C87	C	-0.120914	1.169900	0.079071
C88	C	0.379086	1.669900	0.579071
N89	N	-0.135827	0.946202	0.280292
N90	N	0.364173	1.446202	0.780292
N91	N	-0.114670	0.927584	-0.153637
N92	N	0.385330	1.427584	0.346363
C93	C	-0.167340	0.973853	0.805789
C94	C	0.332660	1.473853	1.305789
C95	C	-0.163065	0.970096	0.718129
C96	C	0.336935	1.470096	1.218129
C97	C	-0.106113	0.920073	0.671045
C98	C	0.393887	1.420073	1.171045
C99	C	-0.053441	0.873799	0.711625
C100	C	0.446559	1.373799	1.211625
C101	C	-0.057722	0.877553	0.799283
C102	C	0.442278	1.377553	1.299283
C103	C	-0.087436	0.903681	0.408530
C104	C	0.412564	1.403681	0.908530
C105	C	-0.083157	0.899933	0.320866
C106	C	0.416843	1.399933	0.820866
C107	C	-0.192782	0.996229	0.327376
C108	C	0.307218	1.496229	0.827376
C109	C	-0.197054	0.999981	0.415036
C110	C	0.302946	1.499981	0.915036
C111	C	-0.144386	0.953704	0.455608
C112	C	0.355614	1.453704	0.955608
N113	N	-0.101739	0.916234	0.581442
N114	N	0.398261	1.416234	1.081442
N115	N	-0.148765	0.957540	0.545209
N116	N	0.351235	1.457540	1.045209
H117	H	-0.117703	0.321727	-0.048004
H118	H	0.382297	0.821727	0.451996
C119	C	-0.029499	0.852773	0.453148
C120	C	0.470501	1.352773	0.953148
N121	N	0.014140	0.814426	0.486757
N122	N	0.514140	1.314426	0.986757
C123	C	-0.020507	0.844899	0.269075
C124	C	0.479493	1.344899	0.769075
N125	N	0.026679	0.803449	0.230066
N126	N	0.526679	1.303449	0.730066
H127	H	-0.131150	0.333555	0.227461
H128	H	0.368850	0.833555	0.727461
C129	C	-0.128596	0.172604	0.238215
C130	C	0.371404	0.672604	0.738215
N131	N	-0.130894	0.141036	0.298798
N132	N	0.369106	0.641036	0.798798
H133	H	-0.007074	0.833067	0.673282
H134	H	0.492926	1.333067	1.173282
C135	C	-0.515042	0.925137	-0.172129
C136	C	-0.015042	1.425137	0.327871
N137	N	-0.473012	0.921785	-0.235067
N138	N	0.026988	1.421785	0.264933
C139	C	-0.735452	0.948639	0.298768
C140	C	-0.235452	1.448639	0.798768
N141	N	-0.777480	0.951981	0.361708
N142	N	-0.277480	1.451981	0.861708
C143	C	-0.229996	1.028879	0.857574
C144	C	0.270004	1.528879	1.357574
N145	N	-0.277194	1.070322	0.896575
N146	N	0.222806	1.570322	1.396575
C147	C	0.000221	0.826655	0.843914
C148	C	0.500221	1.326655	1.343914
N149	N	0.043864	0.788315	0.877529
N150	N	0.543864	1.288315	1.377529
C151	C	-0.118023	0.527471	-0.123306
C152	C	0.381977	1.027471	0.376694
N153	N	-0.114193	0.490503	-0.188519
N154	N	0.385807	0.990503	0.311481
H155	H	-0.136142	0.702103	0.184786
H156	H	0.363858	1.202103	0.684786
H157	H	-0.114372	0.171671	-0.058143
H158	H	0.385628	0.671671	0.441857
H159	H	-0.132767	0.552053	0.174645
H160	H	0.367233	1.052053	0.674645
C161	C	-0.121900	0.701174	-0.111572
C162	C	0.378100	1.201174	0.388428
N163	N	-0.119596	0.732737	-0.172158
N164	N	0.380404	1.232737	0.327842
H165	H	-0.392188	0.927180	-0.074674
H166	H	0.107812	1.427180	0.425326
H167	H	-0.205953	1.007774	0.685098
H168	H	0.294047	1.507774	1.185098
H169	H	-0.844916	0.934774	-0.074142
H170	H	-0.344916	1.434774	0.425858
C171	C	-0.872811	0.947747	0.223016
C172	C	-0.372811	1.447747	0.723016
N173	N	-0.914836	0.951092	0.285957
N174	N	-0.414836	1.451092	0.785957
C175	C	-0.712540	0.928458	-0.171897
C176	C	-0.212540	1.428458	0.328103
N177	N	-0.748441	0.926427	-0.234746
N178	N	-0.248441	1.426427	0.265254
H179	H	-0.405597	0.939005	0.200790
H180	H	0.094403	1.439005	0.700790
C181	C	-0.537974	0.945327	0.298557
C182	C	-0.037974	1.445327	0.798557
N183	N	-0.502086	0.947363	0.361414
N184	N	-0.002086	1.447363	0.861414
H185	H	-0.243428	1.040716	0.453367
H186	H	0.256572	1.540716	0.953367
H187	H	-0.235663	1.033904	0.294333
H188	H	0.264337	1.533904	0.794333
