data_functionalizedCrystal
_audit_creation_method	'MofGen! by Chris Wilmer'
_symmetry_space_group_name_H-M	'P1'
_symmetry_Int_Tables_number	1
_symmetry_cell_setting	triclinic
loop_
_symmetry_equiv_pos_as_xyz
  x,y,z
_cell_length_a	20.919309
_cell_length_b	20.919309
_cell_length_c	15.698487
_cell_angle_alpha	57.441887
_cell_angle_beta	90.000558
_cell_angle_gamma	65.116200
loop_
_atom_site_label
_atom_site_type_symbol
_atom_site_fract_x
_atom_site_fract_y
_atom_site_fract_z
Zr1	Zr	0.621723	0.749228	-0.182883
O2	O	0.528066	0.875492	-0.320590
O3	O	0.646949	0.617631	-0.135672
O4	O	0.651970	0.751588	-0.320593
O5	O	0.523048	0.741533	0.004515
O6	O	0.753673	0.759515	-0.326279
O7	O	0.523044	0.741535	-0.135669
O8	O	0.744690	0.519890	0.004510
O9	O	0.532030	0.981158	-0.326274
O10	O	0.737817	0.679649	-0.125818
O11	O	0.661920	0.673732	-0.016956
O12	O	0.667832	0.831449	-0.234676
O13	O	0.591935	0.825531	-0.125814
Zr14	Zr	0.783932	0.761867	0.031625
Zr15	Zr	0.783926	0.761871	-0.191953
Zr16	Zr	0.621728	0.749224	0.040695
Zr17	Zr	0.628045	0.917752	-0.191949
Zr18	Zr	0.777609	0.593343	0.040691
O19	O	0.758706	0.893464	-0.015586
O20	O	0.758698	0.893469	-0.333485
O21	O	0.528073	0.875487	-0.002691
O22	O	0.877589	0.635602	0.169331
O23	O	0.877582	0.635607	-0.148568
O24	O	0.646956	0.617625	0.182227
O25	O	0.882607	0.769562	-0.155773
O26	O	0.753684	0.759507	0.169335
O27	O	0.651982	0.751580	0.175021
O28	O	0.882610	0.769559	-0.015589
O29	O	0.660960	0.991207	-0.333482
O30	O	0.744695	0.519887	0.182224
O31	O	0.873625	0.529937	0.175015
O32	O	0.873621	0.529940	-0.002699
O33	O	0.532034	0.981155	-0.148559
O34	O	0.660964	0.991205	-0.155768
O35	O	0.737822	0.679646	0.083418
O36	O	0.813719	0.685564	-0.025444
O37	O	0.743734	0.837363	-0.134302
O38	O	0.667837	0.831445	-0.025440
C39	C	0.694919	0.544749	-0.064290
C40	C	0.692235	0.473206	-0.060441
C41	C	0.730589	0.442684	-0.115458
C42	C	0.728069	0.375457	-0.111832
C43	C	0.687190	0.338758	-0.053195
C44	C	0.648835	0.369283	0.001829
C45	C	0.651359	0.436504	-0.001792
C46	C	0.677589	0.135635	-0.039414
C47	C	0.675065	0.068411	-0.035800
C48	C	0.754301	0.074588	-0.149460
C49	C	0.756819	0.141814	-0.153080
C50	C	0.718467	0.172330	-0.098053
C51	C	0.684611	0.270043	-0.049489
C52	C	0.721050	0.241040	-0.101752
C53	C	0.499935	0.739733	-0.064285
C54	C	0.431076	0.734366	-0.060435
C55	C	0.362194	0.811080	-0.115446
C56	C	0.297495	0.806031	-0.111832
C57	C	0.301680	0.724268	-0.053200
C58	C	0.370570	0.647548	0.001813
C59	C	0.435266	0.652597	-0.001808
C60	C	0.108165	0.705058	-0.039431
C61	C	0.043461	0.700015	-0.035812
C62	C	-0.029609	0.858499	-0.149459
C63	C	0.035092	0.863541	-0.153070
C64	C	0.103976	0.786821	-0.098061
C65	C	0.235549	0.719106	-0.049502
C66	C	0.170106	0.791984	-0.101766
C67	C	0.905719	0.771362	-0.086973
C68	C	0.974579	0.776729	-0.090823
C69	C	0.702821	0.755552	-0.355291
C70	C	0.702819	0.755553	-0.450206
C71	C	0.710736	0.966345	-0.086968
C72	C	0.713420	1.037888	-0.090817
C73	C	0.702835	0.755539	-0.623970
C74	C	0.702828	0.755543	-0.527273
C75	C	0.702834	0.755543	0.204033
C76	C	0.702836	0.755541	0.298948
C77	C	0.897811	0.560564	-0.075634
C78	C	0.963986	0.494388	-0.075636
C79	C	0.694925	0.544745	0.215372
C80	C	0.692244	0.473200	0.314135
C81	C	0.897817	0.560559	0.204028
C82	C	0.963995	0.494382	0.298941
C83	C	0.507837	0.950535	-0.355286
C84	C	0.441659	1.016713	-0.450199
C85	C	0.507844	0.950531	-0.075624
C86	C	0.441668	1.016707	-0.075623
C87	C	0.710729	0.966350	-0.366630
C88	C	0.713411	1.037894	-0.465394
C89	C	0.955443	0.460224	-0.128040
C90	C	1.017616	0.398054	-0.128063
C91	C	1.088332	0.370044	-0.075674
C92	C	1.096874	0.404215	-0.023268
C93	C	1.034702	0.466388	-0.023252
C94	C	0.730604	0.442689	0.412919
C95	C	0.728082	0.375475	0.505726
C96	C	0.687203	0.338768	0.499746
C97	C	0.648838	0.369285	0.400952
C98	C	0.651356	0.436503	0.308148
C99	C	1.034697	0.466394	0.286688
C100	C	1.096885	0.404223	0.375860
C101	C	1.088369	0.370037	0.477283
C102	C	1.017659	0.398031	0.489534
C103	C	0.955473	0.460205	0.400363
C104	C	0.370958	1.044709	-0.437947
C105	C	0.308771	1.106900	-0.527119
C106	C	0.317287	1.141090	-0.628543
C107	C	0.387996	1.113092	-0.640794
C108	C	0.450182	1.050906	-0.551623
C109	C	0.450212	1.050878	-0.023228
C110	C	0.388039	1.113066	-0.023231
C111	C	0.317324	1.141078	-0.075623
C112	C	0.308782	1.106905	-0.128024
C113	C	0.370954	1.044722	-0.128027
C114	C	0.754297	1.074580	-0.459380
C115	C	0.756831	1.141796	-0.552170
C116	C	0.718475	1.172329	-0.650973
C117	C	0.677587	1.135636	-0.656984
C118	C	0.675058	1.068418	-0.564195
H119	H	0.763874	0.472564	-0.163212
H120	H	0.785532	1.049731	-0.378938
Br121	Br	0.546175	1.012878	0.047881
H122	H	0.615554	0.339389	0.396099
Br123	Br	0.528752	0.548481	0.072846
Br124	Br	0.859480	0.498225	-0.199152
Br125	Br	1.006006	0.351691	-0.199187
H126	H	0.364009	1.016874	-0.355370
Br127	Br	0.232884	1.225486	-0.749553
Br128	Br	0.683792	0.247544	0.625707
Br129	Br	0.812321	1.191583	-0.543987
Br130	Br	0.399649	1.159430	0.047894
H131	H	0.166701	0.858555	-0.149508
H132	H	0.241411	0.868500	-0.156629
H133	H	0.620125	0.461356	0.043006
H134	H	0.238949	0.652534	-0.001759
H135	H	0.251197	1.129722	-0.170680
H136	H	0.373972	0.580975	0.049548
H137	H	0.358778	0.877660	-0.163176
Br138	Br	0.232954	1.225471	-0.075609
H139	H	0.363987	1.016901	-0.170690
Br140	Br	0.780154	0.334073	0.639789
H141	H	0.046876	0.633430	0.011935
H142	H	0.646359	1.160507	-0.737442
H143	H	1.010736	0.370188	0.572125
H144	H	0.720540	1.227064	-0.726520
Br145	Br	0.859522	0.498177	0.417012
H146	H	-0.085699	0.920960	-0.194246
H147	H	0.641761	1.038555	-0.569106
H148	H	0.394922	1.140937	-0.723384
Br149	Br	0.599292	0.477898	0.174087
Br150	Br	0.780108	0.334053	-0.186525
H151	H	1.041645	0.494220	0.204112
H152	H	0.507749	1.028112	-0.561611
Br153	Br	0.812292	0.191624	-0.232674
Br154	Br	0.806349	0.033169	-0.224134
H155	H	0.031676	0.930121	-0.200835
Br156	Br	1.192838	0.366243	0.359209
Br157	Br	0.629147	0.220219	0.030106
Br158	Br	0.201642	0.600938	0.035228
H159	H	0.641773	0.038533	0.011949
H160	H	0.615554	0.339393	0.049578
Br161	Br	1.172702	0.285664	-0.075706
Br162	Br	1.172772	0.285658	0.598292
H163	H	0.646363	0.160469	0.005398
Br164	Br	1.192851	0.366190	0.047830
H165	H	0.251202	1.129685	-0.517124
H166	H	0.763892	0.472569	0.417808
Br167	Br	1.046309	0.512742	0.047882
H168	H	0.754337	0.270919	-0.149490
