data_functionalizedCrystal
_audit_creation_method	'MofGen! by Chris Wilmer'
_symmetry_space_group_name_H-M	'P1'
_symmetry_Int_Tables_number	1
_symmetry_cell_setting	triclinic
loop_
_symmetry_equiv_pos_as_xyz
  x,y,z
_cell_length_a	14.971494
_cell_length_b	14.971486
_cell_length_c	14.750488
_cell_angle_alpha	77.333571
_cell_angle_beta	102.657683
_cell_angle_gamma	83.615843
loop_
_atom_site_label
_atom_site_type_symbol
_atom_site_fract_x
_atom_site_fract_y
_atom_site_fract_z
O1	O	0.135923	1.167574	0.079717
O2	O	0.149888	0.907168	0.079742
O3	O	0.012705	1.044347	0.079727
O4	O	0.273105	1.030395	0.079732
O5	O	-0.026076	1.083139	-0.079935
O6	O	0.111107	0.945960	-0.079919
O7	O	0.097142	1.206366	-0.079945
Zn8	Zn	0.097967	1.082322	-0.105282
Zn9	Zn	0.149062	1.031212	0.105079
O10	O	0.234325	1.069187	-0.079929
C11	C	0.129874	0.893239	-0.000085
C12	C	0.128006	0.793939	-0.000075
C13	C	0.208595	0.736716	-0.000075
C14	C	0.206828	0.643420	-0.000089
C15	C	0.124473	0.607347	-0.000097
C16	C	0.043877	0.664578	-0.000100
C17	C	0.045643	0.757874	-0.000093
C18	C	0.040203	0.470119	-0.000114
C19	C	0.038437	0.376816	-0.000119
C20	C	0.201388	0.355665	-0.000110
C21	C	0.203154	0.448961	-0.000103
C22	C	0.122558	0.506185	-0.000104
C23	C	-0.040010	1.063118	-0.000103
C24	C	-0.139305	1.061243	-0.000098
C25	C	-0.164810	1.039219	0.086935
C26	C	-0.258109	1.037452	0.086936
C27	C	-0.325902	1.057716	-0.000096
C28	C	-0.300392	1.079739	-0.087136
C29	C	-0.207094	1.081499	-0.087136
C30	C	-0.494853	1.076071	-0.087129
C31	C	-0.588158	1.074313	-0.087129
C32	C	-0.545869	1.032025	0.086943
C33	C	-0.452570	1.033785	0.086943
C34	C	-0.427067	1.055809	-0.000097
C35	C	0.287040	1.050416	-0.000098
C36	C	0.386337	1.052289	-0.000096
C37	C	0.117156	1.220295	-0.000115
C38	C	0.119026	1.319593	-0.000119
N39	N	0.063096	1.117209	-0.248848
C40	C	-0.034240	1.214612	-0.399601
C41	C	-0.009819	1.190168	-0.299095
C42	C	0.111615	1.068663	-0.299096
C43	C	0.087201	1.093094	-0.399605
C44	C	0.014273	1.166070	-0.449849
C45	C	0.135714	1.044552	-0.449852
C46	C	0.111305	1.068985	-0.550352
C47	C	0.038382	1.141960	-0.600604
C48	C	-0.010136	1.190503	-0.550349
C49	C	0.208645	0.971580	-0.399606
C50	C	0.257158	0.923038	-0.449854
C51	C	0.232745	0.947466	-0.550355
C52	C	0.159823	1.020441	-0.600607
C53	C	0.281263	0.898923	-0.600610
C54	C	0.256854	0.923356	-0.701110
C55	C	0.135414	1.044874	-0.701107
N56	N	0.183927	0.996332	0.248645
H57	H	-0.019981	0.804465	-0.000093
F58	F	-0.111867	1.292275	-0.453078
F59	F	0.189230	0.991001	-0.245614
H60	H	-0.643353	1.090806	-0.157999
F61	F	0.292603	0.582521	-0.000085
F62	F	-0.285248	1.014012	0.179569
F63	F	0.334773	0.845376	-0.396371
F64	F	0.290807	0.487348	-0.000084
F65	F	0.358884	0.821267	-0.547125
F66	F	-0.573011	1.008579	0.179578
F67	F	-0.372543	1.101295	-0.179763
H68	H	-0.028624	0.347449	-0.000127
F69	F	-0.179951	1.104939	-0.179769
F70	F	0.057787	1.122536	-0.754583
F71	F	0.287164	0.294762	-0.000110
F72	F	-0.061460	1.241844	-0.245624
F73	F	0.012408	1.167966	-0.707566
H74	H	-0.069527	1.249921	-0.591260
H75	H	0.228519	0.951693	-0.317773
H76	H	0.275658	0.766078	-0.000068
F77	F	-0.045578	0.531020	-0.000118
F78	F	-0.043773	0.626186	-0.000115
F79	F	-0.092667	1.017657	0.179569
H80	H	0.296360	0.883828	-0.742022
H81	H	-0.397375	1.017291	0.157813
F82	F	-0.467714	1.099514	-0.179767
