data_functionalizedCrystal
_audit_creation_method	'MofGen! by Chris Wilmer'
_symmetry_space_group_name_H-M	'P1'
_symmetry_Int_Tables_number	1
_symmetry_cell_setting	triclinic
loop_
_symmetry_equiv_pos_as_xyz
  x,y,z
_cell_length_a	17.019383
_cell_length_b	17.019294
_cell_length_c	12.503572
_cell_angle_alpha	89.649141
_cell_angle_beta	82.619237
_cell_angle_gamma	83.133350
loop_
_atom_site_label
_atom_site_type_symbol
_atom_site_fract_x
_atom_site_fract_y
_atom_site_fract_z
O1	O	1.056512	0.090567	-0.195322
O2	O	1.389845	0.423900	0.138012
O3	O	1.723178	0.757234	0.471345
O4	O	0.825813	0.104394	-0.175285
O5	O	1.159147	0.437728	0.158048
O6	O	1.492480	0.771061	0.491382
O7	O	0.947058	-0.016846	-0.175269
O8	O	1.280391	0.316487	0.158065
O9	O	1.613725	0.649821	0.491398
O10	O	0.935267	0.211807	-0.195338
O11	O	1.268600	0.545140	0.137995
O12	O	1.601934	0.878474	0.471329
O13	O	0.937940	-0.007713	0.003371
O14	O	1.271273	0.325620	0.336704
O15	O	1.604606	0.658954	0.670037
O16	O	0.816695	0.113527	0.003354
O17	O	1.150028	0.446861	0.336688
O18	O	1.483362	0.780194	0.670021
O19	O	1.047393	0.099700	-0.016682
O20	O	1.380727	0.433033	0.316651
O21	O	1.714060	0.766367	0.649984
Cu22	Cu	0.931212	0.107447	0.009647
Cu23	Cu	1.264545	0.440781	0.342981
Cu24	Cu	1.597878	0.774114	0.676314
Cu25	Cu	0.941995	0.096647	-0.201615
Cu26	Cu	1.275328	0.429980	0.131719
Cu27	Cu	1.608662	0.763313	0.465052
O28	O	0.926149	0.220940	-0.016699
O29	O	1.259482	0.554273	0.316635
O30	O	1.592815	0.887607	0.649968
C31	C	0.791725	0.108614	-0.083205
C32	C	1.125059	0.441948	0.250128
C33	C	1.458392	0.775281	0.583462
C34	C	0.703738	0.107573	-0.074979
C35	C	1.037072	0.440906	0.258354
C36	C	1.370405	0.774240	0.591688
C37	C	0.667365	0.102107	-0.168483
C38	C	1.000698	0.435441	0.164850
C39	C	1.334031	0.768774	0.498184
C40	C	0.584689	0.101142	-0.160739
C41	C	0.918023	0.434476	0.172594
C42	C	1.251356	0.767809	0.505928
C43	C	0.538390	0.105637	-0.059490
C44	C	0.871723	0.438970	0.273844
C45	C	1.205056	0.772303	0.607177
C46	C	0.574769	0.111105	0.034021
C47	C	0.908102	0.444438	0.367354
C48	C	1.241435	0.777772	0.700688
C49	C	0.657442	0.112076	0.026276
C50	C	0.990775	0.445409	0.359609
C51	C	1.324109	0.778742	0.692942
C52	C	0.288521	0.102960	-0.031232
C53	C	0.621854	0.436293	0.302101
C54	C	0.955188	0.769626	0.635434
C55	C	0.205842	0.101986	-0.023494
C56	C	0.539176	0.435320	0.309839
C57	C	0.872509	0.768653	0.643173
C58	C	0.215769	0.092025	-0.218255
C59	C	0.549102	0.425358	0.115078
C60	C	0.882435	0.758692	0.448412
C61	C	0.298444	0.092991	-0.225991
C62	C	0.631777	0.426325	0.107342
C63	C	0.965110	0.759658	0.440676
C64	C	0.334815	0.098464	-0.132481
C65	C	0.668148	0.431797	0.200853
C66	C	1.001481	0.765130	0.534186
C67	C	0.453882	0.104648	-0.051572
C68	C	0.787216	0.437981	0.281762
C69	C	1.120549	0.771314	0.615095
C70	C	0.419320	0.099458	-0.140400
C71	C	0.752653	0.432792	0.192933
C72	C	1.085987	0.766125	0.526266
C73	C	0.941872	-0.041527	-0.083187
C74	C	1.275205	0.291807	0.250146
C75	C	1.608539	0.625140	0.583480
C76	C	0.939995	-0.128675	-0.074956
C77	C	1.273328	0.204659	0.258377
C78	C	1.606661	0.537992	0.591711
C79	C	0.944085	-0.174591	-0.168465
C80	C	1.277418	0.158742	0.164869
C81	C	1.610752	0.492076	0.498202
C82	C	0.942316	-0.256475	-0.160727
C83	C	1.275649	0.076859	0.172606
C84	C	1.608982	0.410192	0.505940
C85	C	0.936462	-0.292442	-0.059480
C86	C	1.269795	0.040892	0.273853
C87	C	1.603129	0.374225	0.607187
C88	C	0.932369	-0.246519	0.034036
C89	C	1.265702	0.086814	0.367369
C90	C	1.599036	0.420148	0.700703
C91	C	0.934133	-0.164636	0.026298
C92	C	1.267466	0.168697	0.359631
C93	C	1.600799	0.502031	0.692965
C94	C	0.930883	-0.539426	-0.031243
C95	C	1.264216	-0.206093	0.302090
C96	C	1.597550	0.127241	0.635423
C97	C	0.929122	-0.621316	-0.023512
C98	C	1.262456	-0.287982	0.309821
C99	C	1.595789	0.045351	0.643155
C100	C	0.939067	-0.631265	-0.218276
C101	C	1.272401	-0.297932	0.115057
C102	C	1.605734	0.035401	0.448391
C103	C	0.940835	-0.549381	-0.226006
C104	C	1.274169	-0.216048	0.107328
C105	C	1.607502	0.117286	0.440661
C106	C	0.936738	-0.503465	-0.132489
C107	C	1.270072	-0.170132	0.200844
C108	C	1.603405	0.163202	0.534177
C109	C	0.934656	-0.376140	-0.051568
C110	C	1.267989	-0.042807	0.281765
C111	C	1.601323	0.290526	0.615098
C112	C	0.938539	-0.419767	-0.140401
C113	C	1.271872	-0.086434	0.192932
C114	C	1.605205	0.246900	0.526265
C115	C	1.081481	0.095480	-0.108765
C116	C	1.414815	0.428813	0.224569
C117	C	1.748148	0.762146	0.557902
C118	C	1.169469	0.096521	-0.116998
C119	C	1.502802	0.429854	0.216336
C120	C	1.836135	0.763187	0.549669
C121	C	0.931335	0.245621	-0.108783
C122	C	1.264668	0.578954	0.224551
C123	C	1.598001	0.912287	0.557884
C124	C	0.933212	0.332768	-0.117021
C125	C	1.266546	0.666102	0.216312
C126	C	1.599879	0.999435	0.549646
N127	N	0.923633	0.115044	0.158237
N128	N	1.256966	0.448377	0.491570
N129	N	1.590300	0.781710	0.824903
N130	N	0.949580	0.089044	-0.350204
N131	N	1.282913	0.422378	-0.016871
N132	N	1.616247	0.755711	0.316463
C133	C	0.912484	0.126225	0.377347
C134	C	1.245818	0.459558	0.710681
C135	C	1.579151	0.792891	1.044014
C136	C	0.960726	0.077866	0.430692
C137	C	1.294059	0.411199	0.764025
C138	C	1.627393	0.744533	1.097359
C139	C	0.954523	0.084087	0.552613
C140	C	1.287856	0.417420	0.885946
C141	C	1.621189	0.750754	1.219279
C142	C	0.918687	0.120004	0.255416
C143	C	1.252020	0.453338	0.588749
C144	C	1.585353	0.786671	0.922082
H145	H	0.168144	0.105669	0.058958
H146	H	0.501477	0.439002	0.392291
H147	H	0.834811	0.772335	0.725624
F148	F	0.347714	0.088204	-0.333754
F149	F	0.681047	0.421537	-0.000421
F150	F	1.014381	0.754870	0.332913
H151	H	0.945603	-0.520103	-0.308452
H152	H	1.278937	-0.186770	0.024881
H153	H	1.612270	0.146564	0.358215
H154	H	0.186146	0.087571	-0.294386
H155	H	0.519479	0.420905	0.038948
H156	H	0.852812	0.754238	0.372281
H157	H	0.318125	0.107411	0.044911
H158	H	0.651458	0.440744	0.378244
H159	H	0.984791	0.774077	0.711578
F160	F	0.943427	-0.680138	-0.317795
F161	F	1.276760	-0.346804	0.015538
F162	F	1.610094	-0.013471	0.348871
F163	F	0.468596	0.094678	-0.248154
F164	F	0.801930	0.428011	0.085179
F165	F	1.135263	0.761345	0.418513
F166	F	0.852416	0.186444	0.437331
F167	F	1.185750	0.519777	0.770664
F168	F	1.519083	0.853111	1.103997
H169	H	0.945650	-0.293857	-0.236872
H170	H	1.278983	0.039476	0.096461
H171	H	1.612316	0.372810	0.429794
F172	F	0.944771	-0.381487	-0.248153
F173	F	1.278104	-0.048154	0.085181
F174	F	1.611437	0.285180	0.418514
H175	H	0.927563	-0.502053	0.044903
H176	H	1.260896	-0.168720	0.378237
H177	H	1.594229	0.164614	0.711570
H178	H	0.924351	-0.650596	0.058940
H179	H	1.257685	-0.317263	0.392273
H180	H	1.591018	0.016071	0.725607
F181	F	0.929778	-0.115769	0.125823
F182	F	1.263112	0.217565	0.459156
F183	F	1.596445	0.550898	0.792490
F184	F	0.716634	0.097318	-0.276247
F185	F	1.049967	0.430651	0.057087
F186	F	1.383300	0.763985	0.390420
H187	H	0.537064	0.114769	0.116460
H188	H	0.870398	0.448103	0.449793
H189	H	1.203731	0.781436	0.783127
F190	F	0.926130	-0.284799	0.141792
F191	F	1.259463	0.048535	0.475126
F192	F	1.592797	0.381868	0.808459
H193	H	0.687055	0.116530	0.102416
H194	H	1.020389	0.449863	0.435750
H195	H	1.353722	0.783196	0.769083
H196	H	0.555078	0.096692	-0.236880
H197	H	0.888411	0.430025	0.096453
H198	H	1.221744	0.763358	0.429787
H199	H	0.416176	0.108305	0.030866
H200	H	0.749510	0.441638	0.364200
H201	H	1.082843	0.774972	0.697533
H202	H	0.948856	-0.145314	-0.250911
H203	H	1.282189	0.188020	0.082422
H204	H	1.615523	0.521353	0.415755
H205	H	0.929892	-0.405434	0.030867
H206	H	1.263226	-0.072101	0.364200
H207	H	1.596559	0.261233	0.697534
H208	H	1.006686	0.031793	0.384796
H209	H	1.340019	0.365126	0.718129
H210	H	1.673353	0.698460	1.051463
