data_functionalizedCrystal
_audit_creation_method	'MofGen! by Chris Wilmer'
_symmetry_space_group_name_H-M	'P1'
_symmetry_Int_Tables_number	1
_symmetry_cell_setting	triclinic
loop_
_symmetry_equiv_pos_as_xyz
  x,y,z
_cell_length_a	6.817900
_cell_length_b	9.582889
_cell_length_c	19.453114
_cell_angle_alpha	93.805745
_cell_angle_beta	101.709288
_cell_angle_gamma	111.207298
loop_
_atom_site_label
_atom_site_type_symbol
_atom_site_fract_x
_atom_site_fract_y
_atom_site_fract_z
V1	V	-4.047104	-0.208613	-0.218869
O2	O	-3.993116	0.008421	-0.214835
O3	O	-4.038024	-0.412102	-0.217245
O4	O	-3.989535	-0.206108	-0.314384
O5	O	-4.041940	-0.199000	-0.117024
V6	V	-4.526825	-0.182570	-0.206703
O7	O	-4.316702	-0.265740	-0.245557
O8	O	-4.707424	-0.125443	-0.180016
O9	O	-4.312698	0.020919	-0.208328
O10	O	-4.698210	-0.399604	-0.210737
O11	O	-4.649385	-0.192184	-0.308549
O12	O	-4.361187	-0.185075	-0.111189
C13	C	-3.892887	-0.461687	-0.213760
C14	C	-3.966688	-0.628047	-0.213068
C15	C	-3.831033	-0.198918	-0.337669
C16	C	-3.865507	-0.198216	-0.415752
C17	C	-4.064937	-0.205398	-0.456004
C18	C	-4.097330	-0.204739	-0.529372
C19	C	-3.930296	-0.196927	-0.562485
C20	C	-3.730834	-0.189736	-0.522223
C21	C	-3.698440	-0.190380	-0.448856
N22	N	-3.885824	-0.275959	-0.681225
N23	N	-3.916612	-0.275351	-0.750921
C24	C	-4.027887	-0.194982	-0.783535
N25	N	-4.107251	-0.115265	-0.743821
N26	N	-4.076470	-0.115880	-0.674120
C27	C	-3.965402	-0.196227	-0.642039
C28	C	-4.262452	-0.201447	-0.903341
C29	C	-4.294834	-0.200778	-0.976708
C30	C	-3.928340	-0.185790	-0.969559
C31	C	-3.895957	-0.186444	-0.896192
C32	C	-4.063024	-0.194280	-0.863088
C33	C	-4.121179	0.070496	-0.211811
C34	C	-4.026615	0.236854	-0.212507
C35	C	-4.183032	-0.192270	-0.087900
C36	C	-4.127795	-0.192964	-0.009817
H37	H	-4.259739	-0.210595	-0.562152
N38	N	-3.680856	-0.178722	-0.852780
H39	H	-3.703959	-0.271904	-0.828941
H40	H	-3.614633	-0.085349	-0.815458
H41	H	-3.594834	-0.183371	-0.549188
N42	N	-4.245116	-0.213836	-0.420298
H43	H	-4.376370	-0.218281	-0.456935
H44	H	-4.194943	-0.121174	-0.383255
N45	N	-3.483329	-0.182646	-0.405442
H46	H	-3.506432	-0.275830	-0.381606
H47	H	-3.417116	-0.089276	-0.368119
N48	N	-4.442627	-0.209893	-0.867628
H49	H	-4.573881	-0.214330	-0.904263
H50	H	-4.392456	-0.117240	-0.830580
N51	N	-4.509944	-0.208503	-1.020118
H52	H	-4.629127	-0.305145	-1.015676
H53	H	-4.504930	-0.206830	-1.071600
N54	N	-3.748139	-0.177377	-1.005245
H55	H	-3.708656	-0.083530	-1.028767
H56	H	-3.798236	-0.270096	-1.042249
