data_functionalizedCrystal
_audit_creation_method	'MofGen! by Chris Wilmer'
_symmetry_space_group_name_H-M	'P1'
_symmetry_Int_Tables_number	1
_symmetry_cell_setting	triclinic
loop_
_symmetry_equiv_pos_as_xyz
  x,y,z
_cell_length_a	19.288840
_cell_length_b	15.995350
_cell_length_c	18.366186
_cell_angle_alpha	90.002895
_cell_angle_beta	90.016305
_cell_angle_gamma	83.309196
loop_
_atom_site_label
_atom_site_type_symbol
_atom_site_fract_x
_atom_site_fract_y
_atom_site_fract_z
O1	O	0.921635	0.104350	0.060668
O2	O	0.719408	0.118462	0.060642
O3	O	0.826050	-0.010503	0.060655
O4	O	0.814994	0.233315	0.060655
O5	O	0.826031	-0.010506	-0.060444
O6	O	0.719390	0.118459	-0.060457
O7	O	0.921616	0.104347	-0.060432
Zn8	Zn	0.820500	0.111402	-0.079672
Zn9	Zn	0.820525	0.111407	0.079882
O10	O	0.814975	0.233312	-0.060444
C11	C	0.693521	0.118010	0.000089
C12	C	0.616413	0.116657	0.000079
C13	C	0.580218	0.116010	0.066093
C14	C	0.507768	0.114729	0.066101
C15	C	0.471517	0.114080	0.000094
C16	C	0.507721	0.114733	-0.065928
C17	C	0.580169	0.116021	-0.065935
C18	C	0.362049	0.062994	-0.050468
C19	C	0.289603	0.061700	-0.050458
C20	C	0.248063	0.110109	0.000113
C21	C	0.278980	0.159801	0.050685
C22	C	0.351428	0.161090	0.050678
C23	C	0.392960	0.112683	0.000094
C24	C	0.133309	0.108074	0.066140
C25	C	0.060857	0.106799	0.066146
C26	C	0.060812	0.106794	-0.065886
C27	C	0.133262	0.108078	-0.065890
C28	C	0.169507	0.108714	0.000125
C29	C	0.825583	-0.041698	0.000107
C30	C	0.824213	-0.134643	0.000111
C31	C	0.819292	-0.472371	0.000107
C32	C	0.743344	-0.424642	0.000369
C33	C	0.744715	-0.327957	0.000097
C34	C	0.821733	-0.304820	0.000109
C35	C	0.859183	-0.346045	-0.069038
C36	C	0.857275	-0.442673	-0.069096
C37	C	0.858865	-0.443033	0.068616
C38	C	0.858847	-0.346088	0.069530
C39	C	0.823116	-0.210128	0.000108
C40	C	0.817911	-0.567064	0.000104
C41	C	0.947504	0.104799	0.000123
C42	C	1.024612	0.106152	0.000137
C43	C	0.815441	0.264507	0.000105
C44	C	0.816812	0.357452	0.000106
N45	N	0.820489	0.111398	-0.188563
C46	C	0.862608	0.162052	-0.226651
C47	C	0.862620	0.162050	-0.302879
C48	C	0.820498	0.111403	-0.341015
C49	C	0.778376	0.060740	-0.302918
C50	C	0.778371	0.060737	-0.226691
C51	C	0.757880	0.109293	-0.461804
C52	C	0.757884	0.109301	-0.538029
C53	C	0.820514	0.111406	-0.576123
C54	C	0.883142	0.113521	-0.537982
C55	C	0.883137	0.113518	-0.461756
C56	C	0.820499	0.111400	-0.423670
C57	C	0.862650	0.162060	-0.696867
C58	C	0.862662	0.162052	-0.773096
C59	C	0.778412	0.060747	-0.773133
C60	C	0.778406	0.060750	-0.696905
C61	C	0.820524	0.111411	-0.658776
N62	N	0.820542	0.111404	0.188773
H63	H	0.162820	0.108601	0.119893
H64	H	0.031388	0.106277	0.119904
O65	O	0.259558	0.013325	-0.099482
C66	C	0.189956	-0.100598	-0.117849
C67	C	0.223954	-0.045884	-0.062251
H68	H	0.161150	-0.148470	-0.087769
H69	H	0.232066	-0.135030	-0.153989
H70	H	0.151439	-0.058750	-0.152956
H71	H	0.262465	-0.087671	-0.027095
H72	H	0.181806	-0.011444	-0.026161
O73	O	0.709250	-0.294519	-0.059071
C74	C	0.612794	-0.198602	-0.103207
C75	C	0.652884	-0.236416	-0.036132
H76	H	0.567223	-0.151605	-0.084685
H77	H	0.592134	-0.251051	-0.135846
H78	H	0.649384	-0.165114	-0.138753
H79	H	0.616338	-0.269897	-0.000531
H80	H	0.673554	-0.183932	-0.003548
O81	O	0.943934	0.115462	-0.424620
C82	C	1.025288	0.045397	-0.338546
C83	C	0.956418	0.043097	-0.380547
H84	H	1.035410	-0.013111	-0.302914
H85	H	1.021426	0.104034	-0.302810
H86	H	1.070044	0.046949	-0.378867
H87	H	0.911626	0.041514	-0.340278
H88	H	0.960339	-0.015532	-0.416294
H89	H	0.478292	0.114203	0.119859
O90	O	0.903434	0.211310	-0.339968
C91	C	0.907423	0.324397	-0.425986
C92	C	0.861122	0.268654	-0.384045
H93	H	0.873231	0.370785	-0.461621
H94	H	0.945777	0.283148	-0.461714
H95	H	0.937541	0.360562	-0.385626
H96	H	0.830959	0.232479	-0.424353
H97	H	0.822812	0.309948	-0.348306
H98	H	0.744082	0.019502	-0.333973
O99	O	0.402300	0.015882	-0.099621
C100	C	0.405188	-0.081536	-0.199957
C101	C	0.359526	-0.028239	-0.144324
H102	H	0.370623	-0.117207	-0.236123
H103	H	0.444243	-0.128308	-0.169937
H104	H	0.434504	-0.038494	-0.235029
H105	H	0.330166	-0.071214	-0.109236
H106	H	0.320514	0.018542	-0.174389
O107	O	0.925708	-0.481050	0.069152
C108	C	1.047894	-0.462496	0.067589
C109	C	0.972233	-0.419330	0.066970
H110	H	1.085530	-0.412614	0.065841
H111	H	1.056902	-0.505362	0.018071
H112	H	1.057261	-0.501477	0.119372
H113	H	0.962813	-0.380305	0.015220
H114	H	0.963262	-0.376514	0.116523
H115	H	0.829951	-0.460870	-0.120794
O116	O	0.903526	0.211381	-0.659902
C117	C	0.930616	0.352221	-0.636525
C118	C	0.884288	0.296463	-0.678443
H119	H	0.915070	0.421023	-0.651488
H120	H	0.987659	0.333438	-0.651503
H121	H	0.923387	0.343478	-0.575505
H122	H	0.891456	0.305178	-0.739472
H123	H	0.827262	0.315259	-0.663404
O124	O	0.025596	0.106010	-0.129990
C125	C	-0.048375	0.032047	-0.206588
C126	C	-0.008508	0.032819	-0.133969
H127	H	-0.075969	-0.027112	-0.209822
H128	H	-0.010078	0.032671	-0.253798
H129	H	-0.088632	0.090055	-0.209881
H130	H	0.031750	-0.025178	-0.130604
H131	H	-0.046847	0.032239	-0.086792
O132	O	0.707030	-0.446621	0.059444
C133	C	0.606416	-0.507575	0.103262
C134	C	0.647467	-0.482704	0.036295
H135	H	0.558259	-0.536770	0.084570
H136	H	0.589607	-0.449223	0.137432
H137	H	0.641027	-0.555202	0.137365
H138	H	0.612897	-0.435099	0.002136
H139	H	0.664284	-0.541096	0.002179
H140	H	0.896966	0.203297	-0.804106
O141	O	0.828234	-0.312141	-0.130513
C142	C	0.827285	-0.311416	-0.261710
C143	C	0.862414	-0.349867	-0.192152
H144	H	0.854896	-0.341914	-0.311563
H145	H	0.830799	-0.240769	-0.262631
H146	H	0.770113	-0.323138	-0.262427
H147	H	0.919598	-0.338208	-0.191389
H148	H	0.858844	-0.420502	-0.191259
H149	H	0.831466	-0.318731	0.120684
H150	H	0.896906	0.203301	-0.195612
H151	H	0.162733	0.108600	-0.119645
O152	O	0.472599	0.113989	-0.130095
C153	C	0.458247	0.041041	-0.242918
C154	C	0.498086	0.041785	-0.170281
H155	H	0.478827	-0.017338	-0.275422
H156	H	0.466129	0.099839	-0.275523
H157	H	0.400247	0.040047	-0.231557
H158	H	0.556097	0.042750	-0.181576
H159	H	0.490145	-0.017009	-0.137698
H160	H	0.915765	-0.332139	-0.071601
O161	O	0.737386	0.011512	-0.189801
C162	C	0.653857	-0.089007	-0.197882
C163	C	0.700228	-0.033287	-0.239752
H164	H	0.623814	-0.125255	-0.238249
H165	H	0.615446	-0.047740	-0.162229
H166	H	0.688027	-0.135323	-0.162162
H167	H	0.666115	0.013037	-0.275511
H168	H	0.738644	-0.074606	-0.275359
H169	H	0.609638	0.116550	-0.119693
H170	H	0.934141	0.115239	-0.568997
O171	O	0.709540	-0.294037	0.059244
C172	C	0.644364	-0.320017	0.167185
C173	C	0.684173	-0.358534	0.100222
H174	H	0.623857	-0.372146	0.200343
H175	H	0.598706	-0.273207	0.148541
H176	H	0.681108	-0.286179	0.202274
H177	H	0.647485	-0.392415	0.065106
H178	H	0.729840	-0.405300	0.118917
O179	O	0.829257	-0.467273	0.131196
C180	C	0.772289	-0.423165	0.243849
C181	C	0.805824	-0.395601	0.173022
H182	H	0.753321	-0.365232	0.277678
H183	H	0.812500	-0.465855	0.276311
H184	H	0.726172	-0.458820	0.229964
H185	H	0.851935	-0.359912	0.186842
H186	H	0.765569	-0.352951	0.140579
H187	H	0.744117	0.019509	-0.804183
H188	H	0.915012	-0.330944	0.073715
H189	H	0.744105	0.019506	-0.665893
H190	H	0.713116	-0.444121	-0.048949
O191	O	0.923750	-0.481544	-0.072811
C192	C	0.998032	-0.613447	-0.077208
C193	C	0.922719	-0.569540	-0.072973
H194	H	0.997223	-0.684599	-0.077355
H195	H	1.028933	-0.594656	-0.028124
H196	H	1.023697	-0.593582	-0.129337
H197	H	0.896994	-0.589383	-0.020874
H198	H	0.891870	-0.588332	-0.122093
H199	H	0.706888	0.107584	-0.569078
H200	H	0.609724	0.116528	0.119847
H201	H	0.706875	0.107584	-0.430795
H202	H	0.376596	0.201553	0.091855
O203	O	0.238600	0.206932	0.099720
C204	C	0.144573	0.317946	0.118113
C205	C	0.190262	0.264651	0.062502
H206	H	0.105471	0.364612	0.088044
H207	H	0.179082	0.353739	0.154243
H208	H	0.115309	0.274893	0.153229
H209	H	0.219534	0.307643	0.027337
H210	H	0.155717	0.228849	0.026423
