data_functionalizedCrystal
_audit_creation_method	'MofGen! by Chris Wilmer'
_symmetry_space_group_name_H-M	'P1'
_symmetry_Int_Tables_number	1
_symmetry_cell_setting	triclinic
loop_
_symmetry_equiv_pos_as_xyz
  x,y,z
_cell_length_a	15.298068
_cell_length_b	25.639240
_cell_length_c	15.296720
_cell_angle_alpha	99.632790
_cell_angle_beta	88.354818
_cell_angle_gamma	99.690536
loop_
_atom_site_label
_atom_site_type_symbol
_atom_site_fract_x
_atom_site_fract_y
_atom_site_fract_z
Zn1	Zn	1.253340	-0.155536	-0.727307
Zn2	Zn	1.753340	0.344464	-0.227307
Zn3	Zn	1.278584	-0.225754	-0.580812
Zn4	Zn	1.778584	0.274246	-0.080812
Zn5	Zn	1.132221	-0.150455	-0.555475
Zn6	Zn	1.632221	0.349545	-0.055475
Zn7	Zn	1.106806	-0.255065	-0.701824
Zn8	Zn	1.606806	0.244935	-0.201824
O9	O	1.192738	-0.196703	-0.641355
O10	O	1.692738	0.303297	-0.141355
O11	O	1.379267	-0.154710	-0.729142
O12	O	1.879267	0.345290	-0.229142
O13	O	1.280370	-0.201373	-0.454895
O14	O	1.780370	0.298627	0.045105
O15	O	1.148359	-0.077963	-0.578330
O16	O	1.648359	0.422037	-0.078330
O17	O	1.397814	-0.206299	-0.621512
O18	O	1.897814	0.293701	-0.121512
O19	O	1.237344	-0.081695	-0.704574
O20	O	1.737344	0.418305	-0.204574
O21	O	1.172837	-0.146051	-0.436280
O22	O	1.672837	0.353949	0.063720
O23	O	1.006271	-0.174472	-0.553621
O24	O	1.506271	0.325528	-0.053621
O25	O	1.105043	-0.256255	-0.827761
O26	O	1.605043	0.243745	-0.327761
O27	O	0.987599	-0.251329	-0.661143
O28	O	1.487599	0.248671	-0.161143
O29	O	1.212700	-0.183131	-0.846483
O30	O	1.712700	0.316869	-0.346483
O31	O	1.255726	-0.302809	-0.596803
O32	O	1.755726	0.197191	-0.096803
O33	O	1.129521	-0.324343	-0.685711
O34	O	1.629521	0.175657	-0.185711
C35	C	0.965152	-0.215530	-0.601868
C36	C	1.465152	0.284470	-0.101868
C37	C	0.867786	-0.223600	-0.584996
C38	C	1.367786	0.276400	-0.084996
C39	C	0.554643	-0.139159	-0.761941
C40	C	1.054643	0.360841	-0.261941
C41	C	0.646122	-0.131579	-0.777798
C42	C	1.146122	0.368421	-0.277798
C43	C	0.701542	-0.154583	-0.729599
C44	C	1.201542	0.345417	-0.229599
C45	C	0.665475	-0.185169	-0.665540
C46	C	1.165475	0.314831	-0.165540
C47	C	0.573986	-0.192753	-0.649687
C48	C	1.073986	0.307247	-0.149687
C49	C	0.720885	-0.208178	-0.617344
C50	C	1.220885	0.291822	-0.117344
C51	C	0.684818	-0.238764	-0.553286
C52	C	1.184818	0.261236	-0.053286
C53	C	0.593337	-0.246346	-0.537435
C54	C	1.093337	0.253654	-0.037435
C55	C	0.537917	-0.223342	-0.585634
C56	C	1.037917	0.276658	-0.085634
C57	C	0.812374	-0.200594	-0.633198
C58	C	1.312374	0.299406	-0.133198
C59	C	0.831717	-0.254188	-0.520944
C60	C	1.331717	0.245812	-0.020944
C61	C	0.740238	-0.261768	-0.505087
C62	C	1.240238	0.238232	-0.005087
C63	C	1.192626	-0.332547	-0.641264
C64	C	1.692626	0.167453	-0.141264
C65	C	1.192653	-0.390659	-0.641269
C66	C	1.692653	0.109341	-0.141269
C67	C	1.239083	-0.752937	-0.707196
C68	C	1.739083	-0.252937	-0.207196
C69	C	1.239105	-0.807541	-0.707218
C70	C	1.739105	-0.307541	-0.207218
O71	O	1.278447	-0.837410	-0.763175
O72	O	1.778447	-0.337410	-0.263175
N73	N	1.192844	-0.832941	-0.641460
N74	N	1.692844	-0.332941	-0.141460
C75	C	1.146550	-0.803736	-0.575681
C76	C	1.646550	-0.303736	-0.075681
O77	O	1.107203	-0.830355	-0.519752
O78	O	1.607203	-0.330355	-0.019752
C79	C	1.146523	-0.749134	-0.575663
C80	C	1.646523	-0.249134	-0.075663
C81	C	1.192794	-0.723735	-0.641420
C82	C	1.692794	-0.223735	-0.141420
C83	C	1.285349	-0.727538	-0.772948
C84	C	1.785349	-0.227538	-0.272948
C85	C	1.285328	-0.672937	-0.772924
C86	C	1.785328	-0.172937	-0.272924
C87	C	1.239039	-0.643735	-0.707149
C88	C	1.739039	-0.143735	-0.207149
C89	C	1.192773	-0.669134	-0.641397
C90	C	1.692773	-0.169134	-0.141397
C91	C	1.100224	-0.719930	-0.509889
C92	C	1.600224	-0.219930	-0.009889
C93	C	1.100200	-0.665324	-0.509877
C94	C	1.600200	-0.165324	-0.009877
C95	C	1.146472	-0.639925	-0.575634
C96	C	1.646472	-0.139925	-0.075634
C97	C	1.146463	-0.585331	-0.575598
C98	C	1.646463	-0.085331	-0.075598
N99	N	1.192724	-0.559931	-0.641355
N100	N	1.692724	-0.059931	-0.141355
C101	C	1.239012	-0.589133	-0.707131
C102	C	1.739012	-0.089133	-0.207131
C103	C	1.146610	-0.918405	-0.575725
C104	C	1.646610	-0.418405	-0.075725
C105	C	1.146642	-0.973005	-0.575738
C106	C	1.646642	-0.473005	-0.075738
C107	C	1.239196	-0.976807	-0.707276
C108	C	1.739196	-0.476807	-0.207276
C109	C	1.239169	-0.922205	-0.707258
C110	C	1.739169	-0.422205	-0.207258
C111	C	1.192871	-0.893004	-0.641482
C112	C	1.692871	-0.393004	-0.141482
C113	C	1.238964	-0.474467	-0.707076
C114	C	1.738964	0.025533	-0.207076
C115	C	1.238941	-0.419861	-0.707045
C116	C	1.738941	0.080139	-0.207045
C117	C	1.146384	-0.416065	-0.575510
C118	C	1.646384	0.083935	-0.075510
C119	C	1.146410	-0.470666	-0.575538
C120	C	1.646410	0.029334	-0.075538
C121	C	1.192702	-0.499866	-0.641329
C122	C	1.692702	0.000134	-0.141329
O123	O	1.107139	-0.555430	-0.519671
O124	O	1.607139	-0.055430	-0.019671
O125	O	1.278343	-0.562509	-0.763057
O126	O	1.778343	-0.062509	-0.263057
C127	C	1.421212	-0.177802	-0.680996
C128	C	1.921212	0.322198	-0.180996
C129	C	1.518574	-0.169747	-0.697888
C130	C	2.018574	0.330253	-0.197888
C131	C	1.153221	-0.223529	-0.869788
C132	C	1.653221	0.276471	-0.369788
C133	C	1.136381	-0.234961	-0.967133
C134	C	1.636381	0.265039	-0.467133
C135	C	1.192870	-0.060328	-0.641468
C136	C	1.692870	0.439672	-0.141468
C137	C	1.192927	-0.002213	-0.641517
C138	C	1.692927	0.497787	-0.141517
C139	C	1.313126	-0.114903	-1.280522
C140	C	1.813126	0.385097	-0.780522
C141	C	1.328954	-0.104162	-1.189063
C142	C	1.828954	0.395838	-0.689063
C143	C	1.280812	-0.136861	-1.133576
C144	C	1.780812	0.363139	-0.633576
C145	C	1.216840	-0.180302	-1.169557
C146	C	1.716840	0.319698	-0.669557
C147	C	1.201016	-0.191046	-1.261026
C148	C	1.701016	0.308954	-0.761026
C149	C	1.168701	-0.213004	-1.114080
C150	C	1.668701	0.286996	-0.614080
C151	C	1.104730	-0.256445	-1.150061
C152	C	1.604730	0.243555	-0.650061
C153	C	1.088908	-0.267187	-1.241521
C154	C	1.588908	0.232813	-0.741521
C155	C	1.137050	-0.234489	-1.297008
C156	C	1.637050	0.265511	-0.797008
C157	C	1.184525	-0.202260	-1.022611
C158	C	1.684525	0.297740	-0.522611
C159	C	1.072415	-0.278404	-1.003115
C160	C	1.572415	0.221596	-0.503115
C161	C	1.056588	-0.289144	-1.094574
C162	C	1.556588	0.210856	-0.594574
C163	C	1.232151	-0.169938	-0.413819
C164	C	1.732151	0.330062	0.086181
C165	C	1.249160	-0.158345	-0.316504
C166	C	1.749160	0.341655	0.183496
H167	H	0.841731	-0.175690	-0.685354
H168	H	1.341731	0.324310	-0.185354
C169	C	1.095748	-1.000936	-0.503395
C170	C	1.595748	-0.500936	-0.003395
N171	N	1.057408	-1.021973	-0.448907
N172	N	1.557408	-0.521973	0.051093
H173	H	1.276652	-0.498237	-0.760654
H174	H	1.776652	0.001763	-0.260654
C175	C	1.018541	-0.314976	-1.281098
C176	C	1.518541	0.185024	-0.781098
N177	N	0.965539	-0.350970	-1.310905
N178	N	1.465539	0.149030	-0.810905
H179	H	1.323042	-0.751309	-0.826515
H180	H	1.823042	-0.251309	-0.326515
C181	C	1.298217	-0.125041	-1.032967
C182	C	1.798217	0.374959	-0.532967
N183	N	1.311326	-0.116134	-0.957184
N184	N	1.811326	0.383866	-0.457184
H185	H	1.276624	-0.399183	-0.760592
H186	H	1.776624	0.100817	-0.260592
H187	H	1.276885	-1.000593	-0.760835
H188	H	1.776885	-0.500593	-0.260835
H189	H	1.323003	-0.652261	-0.826471
H190	H	1.823003	-0.152261	-0.326471
H191	H	1.276846	-0.901528	-0.760803
H192	H	1.776846	-0.401528	-0.260803
H193	H	1.381041	-0.068793	-1.159774
H194	H	1.881041	0.431207	-0.659774
H195	H	0.509511	-0.120436	-0.801183
H196	H	1.009511	0.379564	-0.301183
C197	C	0.986219	-0.336928	-1.134165
C198	C	1.486219	0.163072	-0.634165
N199	N	0.933216	-0.372918	-1.163986
N200	N	1.433216	0.127082	-0.663986
H201	H	1.108913	-0.894631	-0.522155
H202	H	1.608913	-0.394631	-0.022155
C203	C	1.366070	-0.078937	-1.341562
C204	C	1.866070	0.421063	-0.841562
N205	N	1.405949	-0.051845	-1.387538
N206	N	1.905949	0.448155	-0.887538
C207	C	1.049314	-0.747857	-0.437555
C208	C	1.549314	-0.247857	0.062445
N209	N	1.010962	-0.768892	-0.383071
N210	N	1.510962	-0.268892	0.116929
H211	H	1.108699	-0.392280	-0.521954
H212	H	1.608699	0.107720	-0.021954
C213	C	1.019454	-0.314374	-0.942082
C214	C	1.519454	0.185626	-0.442082
N215	N	0.979567	-0.341464	-0.896107
N216	N	1.479567	0.158536	-0.396107
H217	H	0.675481	-0.106678	-0.829957
H218	H	1.175481	0.393322	-0.329957
H219	H	1.062496	-0.641552	-0.456315
H220	H	1.562496	-0.141552	0.043685
C221	C	1.095515	-0.498604	-0.503199
C222	C	1.595515	0.001396	-0.003199
N223	N	1.057173	-0.519645	-0.448717
N224	N	1.557173	-0.019645	0.051283
C225	C	0.802173	-0.146239	-0.747036
C226	C	1.302173	0.353761	-0.247036
N227	N	0.877973	-0.139949	-0.760168
N228	N	1.377973	0.360051	-0.260168
C229	C	1.119656	-0.246307	-1.397622
C230	C	1.619656	0.253693	-0.897622
N231	N	1.106561	-0.255210	-1.473407
N232	N	1.606561	0.244790	-0.973407
H233	H	0.463425	-0.229516	-0.572733
H234	H	0.963425	0.270484	-0.072733
H235	H	0.563973	-0.271256	-0.485281
H236	H	1.063973	0.228744	0.014719
C237	C	0.700550	-0.295415	-0.434628
C238	C	1.200550	0.204585	0.065372
N239	N	0.670657	-0.320758	-0.381559
N240	N	1.170657	0.179242	0.118441
C241	C	0.892676	-0.279493	-0.467919
C242	C	1.392676	0.220507	0.032081
N243	N	0.938596	-0.298552	-0.427985
N244	N	1.438596	0.201448	0.072015
H245	H	1.236611	-0.166890	-0.993324
H246	H	1.736611	0.333110	-0.493324
