data_functionalizedCrystal
_audit_creation_method	'MofGen! by Chris Wilmer'
_symmetry_space_group_name_H-M	'P1'
_symmetry_Int_Tables_number	1
_symmetry_cell_setting	triclinic
loop_
_symmetry_equiv_pos_as_xyz
  x,y,z
_cell_length_a	17.019372
_cell_length_b	15.500227
_cell_length_c	14.971496
_cell_angle_alpha	92.830747
_cell_angle_beta	96.495192
_cell_angle_gamma	88.970414
loop_
_atom_site_label
_atom_site_type_symbol
_atom_site_fract_x
_atom_site_fract_y
_atom_site_fract_z
O1	O	1.046474	-0.005950	-0.114266
O2	O	1.546474	0.494050	0.385734
O3	O	0.817694	0.011082	-0.127820
O4	O	1.317694	0.511082	0.372180
O5	O	0.938211	0.002102	0.009146
O6	O	1.438211	0.502102	0.509146
O7	O	0.925956	0.003030	-0.251231
O8	O	1.425956	0.503030	0.248769
O9	O	0.930898	-0.141242	0.000867
O10	O	1.430898	0.358758	0.500867
O11	O	0.810380	-0.132262	-0.136098
O12	O	1.310380	0.367738	0.363902
O13	O	1.039161	-0.149294	-0.122544
O14	O	1.539161	0.350706	0.377456
Cu15	Cu	0.924103	-0.153866	-0.130077
Cu16	Cu	1.424103	0.346134	0.369923
Cu17	Cu	0.932752	0.015654	-0.120287
Cu18	Cu	1.432752	0.515654	0.379713
O19	O	0.918643	-0.140314	-0.259509
O20	O	1.418643	0.359686	0.240491
C21	C	0.784759	-0.058411	-0.131283
C22	C	1.284759	0.441589	0.368717
C23	C	0.697519	-0.051916	-0.129258
C24	C	1.197519	0.448084	0.370742
C25	C	0.204314	-0.011208	-0.117545
C26	C	0.704314	0.488792	0.382455
C27	C	0.286285	-0.017322	-0.119448
C28	C	0.786285	0.482678	0.380552
C29	C	0.323275	-0.098516	-0.124919
C30	C	0.823275	0.401484	0.375081
C31	C	0.278291	-0.173602	-0.128478
C32	C	0.778291	0.326398	0.371522
C33	C	0.196322	-0.167487	-0.126568
C34	C	0.696322	0.332513	0.373432
C35	C	0.570567	-0.120887	-0.130906
C36	C	1.070567	0.379113	0.369094
C37	C	0.652541	-0.126996	-0.132819
C38	C	1.152541	0.373004	0.367181
C39	C	0.660529	0.029284	-0.123787
C40	C	1.160529	0.529284	0.376213
C41	C	0.578558	0.035392	-0.121883
C42	C	1.078558	0.535392	0.378117
C43	C	0.533582	-0.039694	-0.125437
C44	C	1.033582	0.460306	0.374563
C45	C	0.407061	-0.104768	-0.126868
C46	C	0.907061	0.395232	0.373132
C47	C	0.449798	-0.033442	-0.123482
C48	C	0.949798	0.466558	0.376518
N49	N	0.918025	-0.273099	-0.136963
N50	N	1.418025	0.226901	0.363037
C51	C	0.969111	-0.322182	-0.078947
C52	C	1.469111	0.177818	0.421053
C53	C	0.964522	-0.412412	-0.084163
C54	C	1.464522	0.087588	0.415837
C55	C	0.908850	-0.453559	-0.147399
C56	C	1.408850	0.046441	0.352601
C57	C	0.857760	-0.404469	-0.205417
C58	C	1.357760	0.095531	0.294583
C59	C	0.862346	-0.314240	-0.200197
C60	C	1.362346	0.185760	0.299803
C61	C	0.892330	-0.725795	-0.166191
C62	C	1.392330	-0.225795	0.333809
C63	C	0.887750	-0.816031	-0.171409
C64	C	1.387750	-0.316031	0.328591
C65	C	0.994511	-0.823968	-0.050154
C66	C	1.494511	-0.323968	0.449846
C67	C	0.999095	-0.733737	-0.044942
C68	C	1.499095	-0.233737	0.455058
C69	C	0.948002	-0.684655	-0.102957
C70	C	1.448002	-0.184655	0.397043
C71	C	0.904160	-0.545789	-0.152734
C72	C	1.404160	-0.045789	0.347266
C73	C	0.952689	-0.592426	-0.097617
C74	C	1.452689	-0.092426	0.402383
C75	C	1.072096	-0.079800	-0.119081
C76	C	1.572096	0.420200	0.380919
C77	C	1.159336	-0.086288	-0.121106
C78	C	1.659336	0.413712	0.378894
C79	C	0.934005	-0.069529	0.038332
C80	C	1.434005	0.430471	0.538332
C81	C	0.932359	-0.069407	0.137631
C82	C	1.432359	0.430593	0.637631
N83	N	0.938835	0.134886	-0.113394
N84	N	1.438835	0.634886	0.386606
C85	C	0.922849	-0.068681	-0.288696
C86	C	1.422849	0.431319	0.211304
C87	C	0.924496	-0.068798	-0.387995
C88	C	1.424496	0.431202	0.112005
C89	C	0.929258	0.009280	0.569862
C90	C	1.429258	0.509280	1.069862
C91	C	0.930809	0.009161	0.476560
C92	C	1.430809	0.509161	0.976560
C93	C	0.927593	-0.069037	0.425402
C94	C	1.427593	0.430963	0.925402
C95	C	0.922833	-0.147121	0.467552
C96	C	1.422833	0.352879	0.967552
C97	C	0.921288	-0.147001	0.560853
C98	C	1.421288	0.352999	1.060853
C99	C	0.926053	-0.147365	0.273083
C100	C	1.426053	0.352635	0.773083
C101	C	0.927597	-0.147485	0.179775
C102	C	1.427597	0.352515	0.679775
C103	C	0.935574	0.008797	0.188789
C104	C	1.435574	0.508797	0.688789
C105	C	0.934029	0.008917	0.282090
C106	C	1.434029	0.508917	0.782090
C107	C	0.929268	-0.069167	0.324234
C108	C	1.429268	0.430833	0.824234
H109	H	0.308415	-0.239712	-0.132927
H110	H	0.808415	0.260288	0.367073
Cl111	Cl	0.936797	0.107320	0.423584
Cl112	Cl	1.436797	0.607320	0.923584
H113	H	1.006119	-0.452376	-0.036922
H114	H	1.506119	0.047624	0.463078
H115	H	0.437188	-0.170876	-0.131324
H116	H	0.937188	0.329124	0.368676
Cl117	Cl	0.787768	-0.456194	-0.284911
Cl118	Cl	1.287768	0.043806	0.215089
H119	H	0.697158	0.090414	-0.120893
H120	H	1.197158	0.590414	0.379107
H121	H	0.850729	-0.685839	-0.213431
H122	H	1.350729	-0.185839	0.286569
Cl123	Cl	0.938067	0.107224	0.346401
Cl124	Cl	1.438067	0.607224	0.846401
Cl125	Cl	0.933296	0.107592	0.634165
Cl126	Cl	1.433296	0.607592	1.134165
H127	H	0.924953	-0.211158	0.138121
H128	H	1.424953	0.288842	0.638121
H129	H	0.820746	-0.274277	-0.247438
H130	H	1.320746	0.225723	0.252562
Cl131	Cl	1.069084	-0.682010	0.034554
Cl132	Cl	1.569084	-0.182010	0.534554
H133	H	0.858833	-0.579298	-0.204224
H134	H	1.358833	-0.079298	0.295776
H135	H	1.014447	-0.288687	-0.027458
H136	H	1.514447	0.211313	0.472542
Cl137	Cl	0.699041	-0.229077	-0.139696
Cl138	Cl	1.199041	0.270923	0.360304
H139	H	0.159701	-0.228625	-0.129477
H140	H	0.659701	0.271375	0.370523
Cl141	Cl	0.157820	0.090870	-0.110673
Cl142	Cl	0.657820	0.590870	0.389327
Cl143	Cl	0.941520	0.106962	0.135804
Cl144	Cl	1.441520	0.606962	0.635804
Cl145	Cl	0.403296	0.068627	-0.116590
Cl146	Cl	0.903296	0.568627	0.383410
Cl147	Cl	0.915306	-0.245160	0.613834
Cl148	Cl	1.415306	0.254840	1.113834
Cl149	Cl	1.058736	-0.885674	0.022778
Cl150	Cl	1.558736	-0.385674	0.522778
Cl151	Cl	0.532063	0.137469	-0.115006
Cl152	Cl	1.032063	0.637469	0.384994
Cl153	Cl	0.342826	0.077069	-0.114967
Cl154	Cl	0.842826	0.577069	0.385033
H155	H	0.922177	-0.210949	0.307393
H156	H	1.422177	0.289051	0.807393
H157	H	0.533958	-0.182028	-0.133787
H158	H	1.033958	0.317972	0.366213
Cl159	Cl	0.817758	-0.867752	-0.250916
Cl160	Cl	1.317758	-0.367752	0.249084
Cl161	Cl	1.022671	-0.540698	-0.018120
Cl162	Cl	1.522671	-0.040698	0.481880
Cl163	Cl	0.918794	-0.245427	0.403240
Cl164	Cl	1.418794	0.254573	0.903240
