data_functionalizedCrystal
_audit_creation_method	'MofGen! by Chris Wilmer'
_symmetry_space_group_name_H-M	'P1'
_symmetry_Int_Tables_number	1
_symmetry_cell_setting	triclinic
loop_
_symmetry_equiv_pos_as_xyz
  x,y,z
_cell_length_a	16.120530
_cell_length_b	18.050589
_cell_length_c	16.120297
_cell_angle_alpha	92.875657
_cell_angle_beta	90.128140
_cell_angle_gamma	87.123928
loop_
_atom_site_label
_atom_site_type_symbol
_atom_site_fract_x
_atom_site_fract_y
_atom_site_fract_z
Zn1	Zn	1.247404	-0.376248	-0.534587
Zn2	Zn	1.747404	0.123752	-0.034587
Zn3	Zn	1.254344	-0.494473	-0.395537
Zn4	Zn	1.754344	0.005527	0.104463
Zn5	Zn	1.115396	-0.363698	-0.388504
Zn6	Zn	1.615396	0.136302	0.111496
Zn7	Zn	1.108300	-0.493789	-0.527506
Zn8	Zn	1.608300	0.006211	-0.027506
O9	O	1.181361	-0.432052	-0.461533
O10	O	1.681361	0.067948	0.038467
O11	O	1.364691	-0.397469	-0.522048
O12	O	1.864691	0.102531	-0.022048
O13	O	1.241786	-0.472159	-0.278238
O14	O	1.741786	0.027841	0.221762
O15	O	1.132972	-0.261442	-0.407903
O16	O	1.632972	0.238558	0.092097
O17	O	1.369789	-0.484328	-0.419888
O18	O	1.869789	0.015672	0.080112
O19	O	1.229959	-0.270662	-0.515230
O20	O	1.729959	0.229338	-0.015230
O21	O	1.139701	-0.376080	-0.273071
O22	O	1.639701	0.123920	0.226929
O23	O	0.998089	-0.375417	-0.401037
O24	O	1.498089	0.124583	0.098963
O25	O	1.120879	-0.483162	-0.644811
O26	O	1.620879	0.016838	-0.144811
O27	O	0.992876	-0.470994	-0.503160
O28	O	1.492876	0.029006	-0.003160
O29	O	1.223078	-0.396806	-0.650014
O30	O	1.723078	0.103194	-0.150014
O31	O	1.234906	-0.598303	-0.413022
O32	O	1.734906	-0.098303	0.086978
O33	O	1.127608	-0.597800	-0.509979
O34	O	1.627608	-0.097800	-0.009979
C35	C	0.965310	-0.421770	-0.450568
C36	C	1.465310	0.078230	0.049432
C37	C	0.872881	-0.417390	-0.445896
C38	C	1.372881	0.082610	0.054104
C39	C	0.703653	-0.409376	-0.437374
C40	C	1.203653	0.090624	0.062626
C41	C	0.659907	-0.454785	-0.485754
C42	C	1.159907	0.045215	0.014246
C43	C	0.565742	-0.450326	-0.481012
C44	C	1.065742	0.049674	0.018988
C45	C	0.797826	-0.413834	-0.442115
C46	C	1.297826	0.086166	0.057885
C47	C	1.181261	-0.624999	-0.461515
C48	C	1.681261	-0.124999	0.038485
C49	C	1.181293	-0.707547	-0.461538
C50	C	1.681293	-0.207547	0.038462
C51	C	1.123001	-0.906753	-0.514247
C52	C	1.623001	-0.406753	-0.014247
C53	C	1.106578	-0.951975	-0.437341
C54	C	1.606578	-0.451975	0.062659
C55	C	1.181375	-0.858682	-0.461553
C56	C	1.681375	-0.358682	0.038447
C57	C	1.197838	-0.960544	-0.538470
C58	C	1.697838	-0.460544	-0.038470
C59	C	1.181451	-1.004671	-0.461574
C60	C	1.681451	-0.504671	0.038426
C61	C	1.164914	-0.902813	-0.384605
C62	C	1.664914	-0.402813	0.115395
C63	C	1.256207	-0.911381	-0.485787
C64	C	1.756207	-0.411381	0.014213
C65	C	1.239815	-0.956580	-0.408830
C66	C	1.739815	-0.456580	0.091170
C67	C	1.181328	-0.774581	-0.461542
C68	C	1.681328	-0.274581	0.038458
C69	C	1.181498	-1.088770	-0.461577
C70	C	1.681498	-0.588770	0.038423
C71	C	1.398256	-0.442375	-0.472543
C72	C	1.898256	0.057625	0.027457
C73	C	1.490683	-0.446774	-0.477234
C74	C	1.990683	0.053226	0.022766
C75	C	1.170413	-0.441308	-0.678428
C76	C	1.670413	0.058692	-0.178428
C77	C	1.165748	-0.445252	-0.770856
C78	C	1.665748	0.054748	-0.270856
C79	C	1.181483	-0.238354	-0.461572
C80	C	1.681483	0.261646	0.038428
C81	C	1.181535	-0.155811	-0.461588
C82	C	1.681535	0.344189	0.038412
C83	C	1.157199	-0.452435	-0.940081
C84	C	1.657199	0.047565	-0.440081
C85	C	1.205687	-0.411454	-0.983846
C86	C	1.705687	0.088546	-0.483846
C87	C	1.200930	-0.415451	-1.078009
C88	C	1.700930	0.084549	-0.578009
C89	C	1.161955	-0.448439	-0.845910
C90	C	1.661955	0.051561	-0.345910
C91	C	1.192314	-0.422781	-0.245485
C92	C	1.692314	0.077219	0.254515
C93	C	1.197141	-0.418635	-0.153066
C94	C	1.697141	0.081365	0.346934
H95	H	0.670386	-0.367156	-0.392397
H96	H	1.170386	0.132844	0.107603
H97	H	1.112120	-0.490519	-0.973329
H98	H	1.612120	0.009481	-0.473329
C99	C	1.340598	-0.887487	-0.513030
C100	C	1.840598	-0.387487	-0.013030
C101	C	1.401756	-0.913878	-0.458578
C102	C	1.901756	-0.413878	0.041422
C103	C	1.479508	-0.891890	-0.483664
C104	C	1.979508	-0.391890	0.016336
H105	H	1.340222	-0.834820	-0.512319
H106	H	1.840222	-0.334820	-0.012319
H107	H	1.352238	-0.907352	-0.567695
H108	H	1.852238	-0.407352	-0.067695
H109	H	1.390119	-0.894010	-0.403927
H110	H	1.890119	-0.394010	0.096073
H111	H	1.402158	-0.966543	-0.459281
H112	H	1.902158	-0.466543	0.040719
H113	H	1.491148	-0.911755	-0.538329
H114	H	1.991148	-0.411755	-0.038329
H115	H	1.479123	-0.839223	-0.482954
H116	H	1.979123	-0.339223	0.017046
H117	H	1.521013	-0.909798	-0.446728
H118	H	2.021013	-0.409798	0.053272
C119	C	0.704105	-0.511119	-0.545808
C120	C	1.204105	-0.011119	-0.045808
C121	C	0.645236	-0.552128	-0.589523
C122	C	1.145236	-0.052128	-0.089523
C123	C	0.685923	-0.604022	-0.644855
C124	C	1.185923	-0.104022	-0.144855
H125	H	0.739571	-0.543711	-0.515695
H126	H	1.239571	-0.043711	-0.015695
H127	H	0.736165	-0.485905	-0.583815
H128	H	1.236165	0.014095	-0.083815
H129	H	0.613190	-0.577340	-0.551522
H130	H	1.113190	-0.077340	-0.051522
H131	H	0.609767	-0.519556	-0.619653
H132	H	1.109767	-0.019556	-0.119653
H133	H	0.717983	-0.578809	-0.682862
H134	H	1.217983	-0.078809	-0.182862
H135	H	0.721388	-0.636610	-0.614735
H136	H	1.221388	-0.136610	-0.114735
H137	H	0.645986	-0.631849	-0.674528
H138	H	1.145986	-0.131849	-0.174528
C139	C	1.216490	-0.994275	-0.625121
C140	C	1.716490	-0.494275	-0.125121
C141	C	1.289119	-1.040061	-0.623088
C142	C	1.789119	-0.540061	-0.123088
C143	C	1.306313	-1.071151	-0.702894
C144	C	1.806313	-0.571151	-0.202894
H145	H	1.223874	-0.955751	-0.662051
H146	H	1.723874	-0.455751	-0.162051
H147	H	1.171505	-1.022844	-0.643701
H148	H	1.671505	-0.522844	-0.143701
H149	H	1.334094	-1.011493	-0.604520
H150	H	1.834094	-0.511493	-0.104520
H151	H	1.281754	-1.078597	-0.586175
H152	H	1.781754	-0.578597	-0.086175
H153	H	1.261328	-1.099721	-0.721474
H154	H	1.761328	-0.599721	-0.221474
H155	H	1.313693	-1.032622	-0.739818
H156	H	1.813693	-0.532622	-0.239818
H157	H	1.355588	-1.102226	-0.701524
H158	H	1.855588	-0.602226	-0.201524
H159	H	1.250770	-0.373367	-0.950596
H160	H	1.750770	0.126633	-0.450596
H161	H	1.073570	-0.884877	-0.558738
H162	H	1.573570	-0.384877	-0.058738
C163	C	1.022175	-0.975913	-0.410171
C164	C	1.522175	-0.475913	0.089829
C165	C	0.961258	-0.950699	-0.465546
C166	C	1.461258	-0.450699	0.034454
C167	C	0.883497	-0.972742	-0.440556
C168	C	1.383497	-0.472742	0.059444
H169	H	1.009991	-0.955326	-0.355922
H170	H	1.509991	-0.455326	0.144078
H171	H	1.022930	-1.028564	-0.409920
H172	H	1.522930	-0.528564	0.090080
H173	H	0.960501	-0.898059	-0.465788
H174	H	1.460501	-0.398059	0.034212
H175	H	0.973414	-0.971283	-0.519799
H176	H	1.473414	-0.471283	-0.019799
H177	H	0.884251	-1.025393	-0.440305
H178	H	1.384251	-0.525393	0.059695
H179	H	0.871321	-0.952153	-0.386306
H180	H	1.371321	-0.452153	0.113694
H181	H	0.842156	-0.955643	-0.478127
H182	H	1.342156	-0.455643	0.021873
C183	C	1.146120	-0.869261	-0.297906
C184	C	1.646120	-0.369261	0.202094
C185	C	1.073850	-0.823021	-0.300073
C186	C	1.573850	-0.323021	0.199927
C187	C	1.056502	-0.792108	-0.220223
C188	C	1.556502	-0.292108	0.279777
H189	H	1.191238	-0.841042	-0.278963
H190	H	1.691238	-0.341042	0.221037
H191	H	1.138243	-0.907882	-0.261211
H192	H	1.638243	-0.407882	0.238789
H193	H	1.081732	-0.784406	-0.336755
H194	H	1.581732	-0.284406	0.163245
H195	H	1.028717	-0.851224	-0.319001
H196	H	1.528717	-0.351224	0.180999
H197	H	1.048625	-0.830729	-0.183528
H198	H	1.548625	-0.330729	0.316472
H199	H	1.101625	-0.763892	-0.201287
H200	H	1.601625	-0.263892	0.298713
H201	H	1.007462	-0.760736	-0.221681
H202	H	1.507462	-0.260736	0.278319
C203	C	1.305583	-0.985514	-0.349219
C204	C	1.805583	-0.485514	0.150781
C205	C	1.287993	-0.955993	-0.268844
C206	C	1.787993	-0.455993	0.231156
C207	C	1.348549	-0.982640	-0.213905
C208	C	1.848549	-0.482640	0.286095
H209	H	1.358613	-0.970965	-0.365849
H210	H	1.858613	-0.470965	0.134151
H211	H	1.305550	-1.038170	-0.349834
H212	H	1.805550	-0.538170	0.150166
H213	H	1.288035	-0.903348	-0.268231
H214	H	1.788035	-0.403348	0.231769
H215	H	1.234973	-0.970540	-0.252188
H216	H	1.734973	-0.470540	0.247812
H217	H	1.348516	-1.035296	-0.214520
H218	H	1.848516	-0.535296	0.285480
H219	H	1.401576	-0.968089	-0.230543
H220	H	1.901576	-0.468089	0.269457
H221	H	1.336619	-0.962619	-0.159363
H222	H	1.836619	-0.462619	0.340637
