data_functionalizedCrystal
_audit_creation_method	'MofGen! by Chris Wilmer'
_symmetry_space_group_name_H-M	'P1'
_symmetry_Int_Tables_number	1
_symmetry_cell_setting	triclinic
loop_
_symmetry_equiv_pos_as_xyz
  x,y,z
_cell_length_a	10.723024
_cell_length_b	27.732048
_cell_length_c	9.798715
_cell_angle_alpha	89.991917
_cell_angle_beta	89.996609
_cell_angle_gamma	83.555262
loop_
_atom_site_label
_atom_site_type_symbol
_atom_site_fract_x
_atom_site_fract_y
_atom_site_fract_z
O1	O	1.654382	0.067789	-0.113499
O2	O	1.290961	0.074278	-0.113505
O3	O	1.483959	0.000707	-0.113476
O4	O	1.461384	0.141360	-0.113528
O5	O	1.483944	0.000707	0.113507
O6	O	1.290947	0.074278	0.113477
O7	O	1.654368	0.067789	0.113483
Zn8	Zn	1.472655	0.071033	0.149519
Zn9	Zn	1.472674	0.071033	-0.149540
O10	O	1.461370	0.141360	0.113454
C11	C	1.244474	0.073806	-0.000014
C12	C	1.105978	0.072393	-0.000016
C13	C	1.483478	-0.017303	0.000019
C14	C	1.482051	-0.070967	0.000030
C15	C	1.029292	0.113559	-0.000032
C16	C	0.886149	0.112100	-0.000033
C17	C	1.587117	-0.409130	-0.000038
C18	C	1.581823	-0.610822	-0.000057
O19	O	1.677898	-0.641481	-0.000115
N20	N	1.467383	-0.630656	-0.000058
C21	C	1.354259	-0.600064	-0.000063
O22	O	1.256800	-0.621562	-0.000078
C23	C	1.359554	-0.398373	-0.000053
C24	C	1.474001	-0.378541	-0.000039
C25	C	1.701554	-0.389298	-0.000025
C26	C	1.702877	-0.338877	-0.000013
C27	C	1.589761	-0.308289	-0.000013
C28	C	1.475324	-0.328121	-0.000026
C29	C	1.246432	-0.367781	-0.000068
C30	C	1.247766	-0.317356	-0.000069
C31	C	1.362213	-0.297524	-0.000054
C32	C	1.363531	-0.247113	-0.000015
N33	N	1.477970	-0.227278	-0.000014
C34	C	1.591085	-0.257867	-0.000014
C35	C	1.351487	-0.705956	-0.000065
C36	C	1.350163	-0.756378	-0.000065
C37	C	1.577727	-0.767133	-0.000062
C38	C	1.579050	-0.716709	-0.000052
C39	C	1.465926	-0.686121	-0.000064
C40	C	1.593854	-0.151980	0.000013
C41	C	1.595166	-0.101555	0.000031
C42	C	1.367603	-0.090805	0.000021
C43	C	1.366290	-0.141226	0.000010
C44	C	1.479425	-0.171813	0.000002
O45	O	1.267507	-0.216425	0.000028
O46	O	1.688531	-0.236359	-0.000029
C47	C	1.585794	-0.459550	-0.000050
C48	C	1.471357	-0.479382	-0.000063
C49	C	1.358241	-0.448793	-0.000064
C50	C	1.470033	-0.529804	-0.000063
C51	C	1.583148	-0.560392	-0.000062
C52	C	1.697587	-0.540558	-0.000062
C53	C	1.698910	-0.490138	-0.000049
C54	C	1.243802	-0.468628	-0.000065
C55	C	1.242489	-0.519048	-0.000075
C56	C	1.355604	-0.549637	-0.000074
C57	C	1.700855	0.068261	-0.000010
C58	C	1.839351	0.069674	-0.000018
C59	C	1.461851	0.159370	-0.000044
C60	C	1.463278	0.213034	-0.000064
N61	N	1.472651	0.071033	0.353618
N62	N	1.472687	0.071030	-0.353640
C63	C	1.553691	0.040006	0.421408
C64	C	1.553711	0.040005	0.578570
H65	H	0.820258	0.147342	-0.000052
O66	O	1.058099	0.029014	0.000058
C67	C	1.102734	-0.058105	0.000000
C68	C	1.157119	-0.009011	-0.000050
H69	H	1.182765	-0.088862	-0.000116
H70	H	1.042620	-0.060929	0.095014
H71	H	1.042540	-0.060867	-0.094969
H72	H	1.217369	-0.006216	0.094855
H73	H	1.217162	-0.006208	-0.095127
O74	O	1.077233	0.156926	-0.000228
C75	C	1.090510	0.232485	-0.117890
C76	C	1.036113	0.183393	-0.117822
H77	H	1.057308	0.253893	-0.212968
H78	H	1.057196	0.253960	-0.022972
H79	H	1.197385	0.225927	-0.117818
H80	H	0.929238	0.189906	-0.117942
H81	H	1.069525	0.161933	-0.212731
O82	O	1.389738	0.102703	0.576982
C83	C	1.172409	0.130450	0.532963
C84	C	1.266209	0.094562	0.611655
H85	H	1.072515	0.123874	0.560945
H86	H	1.188075	0.169211	0.560988
H87	H	1.187206	0.124813	0.418609
H88	H	1.251467	0.100155	0.726027
H89	H	1.250519	0.055814	0.583517
H90	H	0.905234	0.034430	-0.000013
H91	H	1.669830	-0.792046	-0.000060
H92	H	1.688366	-0.085411	0.000047
H93	H	1.685980	-0.176879	0.000001
H94	H	1.796071	-0.322736	-0.000006
H95	H	1.793672	-0.414198	-0.000029
O96	O	1.636433	0.008246	0.647958
C97	C	1.710495	-0.075580	0.692027
C98	C	1.616762	-0.039665	0.613333
H99	H	1.694606	-0.114324	0.664084
H100	H	1.810434	-0.069090	0.663966
H101	H	1.695778	-0.069909	0.806381
H102	H	1.631364	-0.045314	0.498961
H103	H	1.516856	-0.046164	0.641508
O104	O	1.389941	0.102788	0.423023
C105	C	1.315873	0.186612	0.467061
C106	C	1.409596	0.150701	0.388358
H107	H	1.331748	0.225357	0.439085
H108	H	1.215930	0.180119	0.439041
H109	H	1.330614	0.180939	0.581413
H110	H	1.394969	0.156353	0.273988
H111	H	1.509505	0.157203	0.416492
H112	H	1.672242	-0.700566	-0.000041
O113	O	1.241476	-0.676315	-0.000004
C114	C	1.015627	-0.670983	-0.000071
C115	C	1.140120	-0.704603	-0.000119
H116	H	0.933648	-0.693840	-0.000193
H117	H	1.010461	-0.647122	0.094945
H118	H	1.010615	-0.647092	-0.095039
H119	H	1.145216	-0.728525	0.094784
H120	H	1.145234	-0.728431	-0.095198
H121	H	1.256969	-0.772520	-0.000053
H122	H	1.153237	-0.383919	-0.000088
H123	H	1.275507	-0.065891	0.000025
H124	H	1.155645	-0.292453	-0.000081
H125	H	1.273098	-0.157373	0.000036
O126	O	1.810116	-0.470901	-0.000287
C127	C	2.005062	-0.464698	-0.117839
C128	C	1.879146	-0.486502	-0.117752
H129	H	2.060920	-0.477312	-0.212784
H130	H	1.986674	-0.423403	-0.117923
H131	H	2.060850	-0.477266	-0.022805
H132	H	1.823294	-0.473972	-0.212769
H133	H	1.897623	-0.527795	-0.117596
O134	O	1.131338	-0.538333	0.000151
C135	C	0.997769	-0.589047	0.117650
C136	C	1.123671	-0.567233	0.117599
H137	H	0.991541	-0.612426	0.212582
H138	H	0.917106	-0.558538	0.117734
H139	H	0.991491	-0.612354	0.022603
H140	H	1.130072	-0.543931	0.212630
H141	H	1.204274	-0.597765	0.117444
O142	O	1.133998	-0.438868	0.000121
C143	C	1.003368	-0.375733	0.117777
C144	C	1.127787	-0.409398	0.117712
H145	H	0.998294	-0.351905	0.212854
H146	H	0.998273	-0.351816	0.022857
H147	H	0.921377	-0.398585	0.117707
H148	H	1.209848	-0.386585	0.117830
H149	H	1.132772	-0.433317	0.212624
O150	O	1.636644	0.008337	0.352031
C151	C	1.853988	-0.019396	0.308037
C152	C	1.760163	0.016490	0.386690
H153	H	1.953873	-0.012810	0.336008
H154	H	1.838341	-0.058157	0.336110
H155	H	1.839198	-0.013766	0.193677
H156	H	1.774896	0.010904	0.501068
H157	H	1.775834	0.055239	0.358504
H158	H	1.789690	-0.565472	-0.000055
