data_functionalizedCrystal
_audit_creation_method	'MofGen! by Chris Wilmer'
_symmetry_space_group_name_H-M	'P1'
_symmetry_Int_Tables_number	1
_symmetry_cell_setting	triclinic
loop_
_symmetry_equiv_pos_as_xyz
  x,y,z
_cell_length_a	12.759401
_cell_length_b	25.639240
_cell_length_c	12.759393
_cell_angle_alpha	90.043160
_cell_angle_beta	90.020938
_cell_angle_gamma	90.034283
loop_
_atom_site_label
_atom_site_type_symbol
_atom_site_fract_x
_atom_site_fract_y
_atom_site_fract_z
Zn1	Zn	1.606135	-0.208104	0.593928
Zn2	Zn	1.605970	-0.295549	0.418209
Zn3	Zn	1.430433	-0.208132	0.418263
Zn4	Zn	1.430370	-0.295513	0.593846
O5	O	1.518227	-0.251825	0.506061
O6	O	1.753134	-0.219708	0.570630
O7	O	1.582643	-0.283980	0.271195
O8	O	1.453836	-0.134963	0.441622
O9	O	1.753013	-0.283953	0.441530
O10	O	1.582923	-0.134943	0.570682
O11	O	1.453676	-0.219755	0.271235
O12	O	1.283404	-0.219720	0.441543
O13	O	1.453728	-0.283891	0.740878
O14	O	1.283357	-0.283918	0.570543
O15	O	1.582861	-0.219672	0.740938
O16	O	1.582581	-0.368710	0.441451
O17	O	1.453568	-0.368683	0.570491
C18	C	1.245260	-0.251818	0.506041
C19	C	1.128483	-0.251828	0.506057
C20	C	1.518078	-0.387667	0.505979
C21	C	1.518111	-0.445781	0.505979
C22	C	1.073624	-0.285307	0.573121
C23	C	0.963900	-0.285309	0.573142
C24	C	0.963903	-0.218352	0.439024
C25	C	1.073625	-0.218347	0.439010
C26	C	0.813992	-0.304070	0.696994
C27	C	0.759130	-0.337557	0.764050
C28	C	0.794695	-0.388581	0.779975
C29	C	0.885121	-0.406129	0.728829
C30	C	0.939978	-0.372645	0.661766
C31	C	0.904414	-0.321613	0.645861
C32	C	1.223535	-0.199592	0.315156
C33	C	1.278394	-0.166110	0.248087
C34	C	1.242831	-0.115085	0.232151
C35	C	1.152401	-0.097539	0.283278
C36	C	1.097542	-0.131021	0.350347
C37	C	1.133113	-0.182046	0.366285
C38	C	1.585476	-0.806095	0.573384
C39	C	1.585507	-0.860699	0.573406
O40	O	1.642606	-0.888894	0.630631
N41	N	1.518373	-0.888064	0.506163
C42	C	1.451196	-0.860821	0.438902
O43	O	1.394095	-0.889110	0.381710
C44	C	1.451160	-0.806217	0.438887
C45	C	1.518306	-0.778856	0.506126
C46	C	1.652616	-0.778734	0.640619
C47	C	1.652586	-0.724133	0.640596
C48	C	1.585416	-0.696894	0.573338
C49	C	1.518276	-0.724255	0.506103
C50	C	1.383979	-0.778975	0.371632
C51	C	1.383948	-0.724368	0.371623
C52	C	1.451094	-0.697007	0.438863
C53	C	1.451077	-0.642416	0.438822
N54	N	1.518211	-0.615052	0.506065
C55	C	1.585381	-0.642291	0.573323
C56	C	1.451274	-0.975491	0.438941
C57	C	1.451314	-1.030094	0.438950
C58	C	1.585624	-1.029969	0.573455
C59	C	1.585589	-0.975365	0.573440
C60	C	1.518408	-0.948127	0.506183
C61	C	1.585314	-0.527626	0.573269
C62	C	1.585281	-0.473020	0.573237
C63	C	1.450967	-0.473150	0.438736
C64	C	1.451003	-0.527751	0.438764
C65	C	1.518180	-0.554987	0.506039
O66	O	1.394004	-0.614186	0.381629
O67	O	1.642462	-0.613995	0.630516
C68	C	1.792260	-0.251831	0.506083
C69	C	1.909037	-0.251834	0.506092
C70	C	1.518306	-0.251774	0.780095
C71	C	1.518339	-0.251753	0.896872
C72	C	1.518405	-0.115452	0.506167
C73	C	1.518480	-0.057337	0.506212
C74	C	1.518209	-0.251837	0.233094
C75	C	1.518379	-0.251711	0.116318
C76	C	1.585584	-0.218309	0.951766
C77	C	1.585602	-0.218286	1.061491
C78	C	1.451127	-0.285156	1.061415
C79	C	1.451105	-0.285176	0.951693
C80	C	1.623253	-0.156599	1.211496
C81	C	1.690514	-0.123160	1.266395
C82	C	1.793032	-0.115142	1.230807
C83	C	1.828310	-0.140572	1.140322
C84	C	1.761054	-0.174015	1.085429
C85	C	1.658521	-0.182023	1.121016
C86	C	1.413464	-0.346864	0.801686
C87	C	1.346213	-0.380310	0.746791
C88	C	1.243693	-0.388333	0.782377
C89	C	1.208420	-0.362913	0.872865
C90	C	1.275671	-0.329466	0.927760
C91	C	1.378190	-0.321443	0.892166
H92	H	1.118286	-0.312568	0.627718
C93	C	1.436707	-0.914159	0.297571
C94	C	1.377435	-0.945552	0.364995
H95	H	1.391119	-0.895676	0.251927
H96	H	1.482512	-0.935458	0.257440
H97	H	1.476675	-0.890047	0.337624
H98	H	1.337473	-0.969668	0.324942
H99	H	1.331612	-0.924251	0.405129
C100	C	1.322376	-0.393732	0.562057
C101	C	1.384986	-0.408252	0.647321
H102	H	1.346310	-0.410983	0.500650
H103	H	1.326659	-0.357071	0.552280
H104	H	1.251699	-0.403302	0.575410
H105	H	1.455662	-0.398677	0.633971
H106	H	1.380713	-0.444920	0.657097
H107	H	1.396389	-0.312369	1.106065
H108	H	0.914065	-0.447681	0.741792
C109	C	1.132709	-0.315623	1.046871
C110	C	1.236898	-0.301520	1.027224
H111	H	1.108774	-0.298367	1.108272
H112	H	1.128434	-0.352282	1.056662
H113	H	1.090257	-0.305774	0.989008
H114	H	1.279352	-0.311372	1.085084
H115	H	1.241180	-0.264852	1.017440
C116	C	1.621873	-0.132296	1.440609
C117	C	1.651734	-0.095205	1.365848
H118	H	1.597931	-0.115038	1.502004
H119	H	1.680280	-0.153645	1.457533
H120	H	1.567144	-0.153355	1.412994
H121	H	1.706469	-0.074149	1.393460
H122	H	1.593321	-0.073848	1.348924
C123	C	1.436513	-0.589230	0.297440
C124	C	1.377206	-0.557827	0.364841
H125	H	1.390947	-0.607792	0.251803
H126	H	1.476503	-0.613269	0.337501
H127	H	1.482300	-0.567924	0.257291
H128	H	1.331424	-0.579134	0.404995
H129	H	1.337199	-0.533786	0.324775
H130	H	1.396648	-1.052367	0.384185
C131	C	1.058990	-0.443792	0.633662
C132	C	1.039361	-0.391930	0.605536
H133	H	1.120349	-0.455696	0.598951
H134	H	1.001096	-0.464903	0.613781
H135	H	1.068853	-0.445945	0.707330
H136	H	1.029490	-0.389777	0.531869
H137	H	1.097268	-0.370813	0.625410
H138	H	1.789778	-0.194722	1.011762
H139	H	1.847796	-0.087915	1.275513
C140	C	0.647520	-0.399214	0.895214
C141	C	0.734395	-0.425390	0.853689
H142	H	0.610298	-0.421935	0.940729
H143	H	0.602798	-0.388463	0.839775
H144	H	0.670551	-0.369494	0.933316
H145	H	0.711364	-0.455107	0.815580
H146	H	0.779125	-0.436148	0.909137
H147	H	1.124941	-0.369447	0.901842
H148	H	1.911794	-0.134045	1.111359
H149	H	1.639963	-0.450744	0.627991
H150	H	1.396281	-0.450964	0.383972
H151	H	0.919225	-0.191094	0.384436
C152	C	1.251196	-0.773591	0.238708
C153	C	1.310160	-0.809041	0.297727
H154	H	1.205615	-0.792153	0.193086
H155	H	1.296981	-0.752295	0.198552
H156	H	1.210990	-0.752288	0.284462
H157	H	1.350372	-0.830342	0.251972
H158	H	1.264369	-0.830346	0.337885
C159	C	1.636862	-0.129783	0.918065
C160	C	1.659475	-0.181565	0.891505
H161	H	1.682476	-0.107098	0.880859
H162	H	1.646501	-0.124989	0.991260
H163	H	1.566275	-0.122140	0.900071
H164	H	1.730060	-0.189209	0.909507
H165	H	1.649846	-0.186361	0.818294
C166	C	0.684809	-0.275440	0.883693
C167	C	0.659744	-0.318266	0.820278
H168	H	0.623452	-0.263536	0.918408
H169	H	0.712386	-0.248200	0.841478
H170	H	0.735578	-0.285546	0.934212
H171	H	0.608981	-0.308159	0.769754
H172	H	0.632152	-0.345512	0.862497
C173	C	0.978511	-0.059874	0.378414
C174	C	0.998145	-0.111733	0.406559
H175	H	0.917152	-0.047968	0.413123
H176	H	0.968652	-0.057726	0.304755
H177	H	1.036409	-0.038757	0.398294
H178	H	0.940250	-0.132850	0.386671
H179	H	1.007997	-0.113885	0.480234
C180	C	1.636714	-1.046680	0.751418
C181	C	1.659456	-1.059915	0.647396
H182	H	1.682298	-1.065167	0.797060
H183	H	1.566128	-1.055653	0.766721
H184	H	1.646312	-1.010244	0.761021
H185	H	1.649851	-1.096351	0.637791
H186	H	1.730060	-1.050945	0.632088
C187	C	1.137985	-0.465789	0.787930
C188	C	1.169770	-0.425101	0.722038
H189	H	1.092352	-0.488487	0.750679
H190	H	1.102308	-0.451791	0.846898
H191	H	1.197740	-0.484688	0.810885
H192	H	1.110014	-0.406200	0.699089
H193	H	1.205446	-0.439099	0.663051
C194	C	1.180554	-0.015765	0.196109
C195	C	1.113304	-0.041449	0.265768
H196	H	1.156419	0.018863	0.185302
H197	H	1.181553	-0.033849	0.131122
H198	H	1.249296	-0.014884	0.224673
H199	H	1.044562	-0.042334	0.237201
H200	H	1.112294	-0.023360	0.330768
C201	C	1.390009	-0.104455	0.116897
C202	C	1.303130	-0.078281	0.158421
H203	H	1.427233	-0.081731	0.071388
H204	H	1.366987	-0.134171	0.078800
H205	H	1.434735	-0.115205	0.172347
H206	H	1.258399	-0.067533	0.102972
H207	H	1.326151	-0.048555	0.196520
H208	H	1.496942	-0.340330	0.772697
H209	H	1.352026	-0.180401	0.206456
C210	C	1.363968	-0.254371	0.374751
C211	C	1.262629	-0.255683	0.332676
H212	H	1.388102	-0.289000	0.385557
H213	H	1.362962	-0.236289	0.439740
H214	H	1.409570	-0.236943	0.327479
H215	H	1.217025	-0.273108	0.379952
H216	H	1.263628	-0.273773	0.267677
C217	C	1.718069	-0.522002	0.706222
C218	C	1.659153	-0.557558	0.647220
H219	H	1.763658	-0.540483	0.751869
H220	H	1.672256	-0.500707	0.746349
H221	H	1.758264	-0.500710	0.660458
H222	H	1.618951	-0.578849	0.692984
H223	H	1.704972	-0.578863	0.607089
C224	C	1.785338	-0.729511	0.773553
C225	C	1.726387	-0.694062	0.714518
H226	H	1.830895	-0.710948	0.819196
H227	H	1.825559	-0.750809	0.727817
H228	H	1.739536	-0.750812	0.813695
H229	H	1.772188	-0.672764	0.674369
H230	H	1.686163	-0.672756	0.760259
C231	C	1.667206	-0.840061	0.781994
C232	C	1.726461	-0.808668	0.714556
H233	H	1.712804	-0.858535	0.827642
H234	H	1.627244	-0.864176	0.741960
H235	H	1.621395	-0.818759	0.822129
H236	H	1.772267	-0.829971	0.674415
H237	H	1.766440	-0.784550	0.754595
C238	C	1.242584	-0.663036	0.356879
C239	C	1.310100	-0.694429	0.297690
H240	H	1.196992	-0.644557	0.311234
H241	H	1.282566	-0.638926	0.396905
H242	H	1.202393	-0.684340	0.402627
H243	H	1.350297	-0.673125	0.251948
H244	H	1.270114	-0.718542	0.257646
H245	H	1.539772	-0.163120	1.240475
H246	H	0.785033	-0.262520	0.684045
C247	C	1.726876	-0.913893	0.588161
C248	C	1.659392	-0.945294	0.647358
H249	H	1.772442	-0.895333	0.633801
H250	H	1.686869	-0.889852	0.548120
H251	H	1.767095	-0.935200	0.542426
H252	H	1.619166	-0.923986	0.693088
H253	H	1.699402	-0.969337	0.687417
