data_functionalizedCrystal
_audit_creation_method	'MofGen! by Chris Wilmer'
_symmetry_space_group_name_H-M	'P1'
_symmetry_Int_Tables_number	1
_symmetry_cell_setting	triclinic
loop_
_symmetry_equiv_pos_as_xyz
  x,y,z
_cell_length_a	14.971482
_cell_length_b	11.804783
_cell_length_c	14.971494
_cell_angle_alpha	76.719036
_cell_angle_beta	83.615083
_cell_angle_gamma	76.731169
loop_
_atom_site_label
_atom_site_type_symbol
_atom_site_fract_x
_atom_site_fract_y
_atom_site_fract_z
O1	O	1.170824	0.099000	0.100403
O2	O	0.910423	0.099006	0.114365
O3	O	1.047599	0.099000	-0.022815
O4	O	1.033648	0.099006	0.237583
O5	O	1.079847	-0.099041	0.009473
O6	O	0.942670	-0.099035	0.146653
O7	O	1.203071	-0.099041	0.132692
Cu8	Cu	1.075815	-0.117121	0.142621
Cu9	Cu	1.037679	0.117086	0.104436
O10	O	1.065895	-0.099035	0.269872
C11	C	0.893222	-0.000014	0.129885
C12	C	0.793924	-0.000012	0.128015
C13	C	0.764858	-0.107965	0.144735
C14	C	0.671559	-0.107967	0.142965
C15	C	0.607328	-0.000013	0.124480
C16	C	0.636400	0.107948	0.107756
C17	C	0.729698	0.107948	0.109521
C18	C	0.441939	0.107940	0.104082
C19	C	0.348635	0.107941	0.102319
C20	C	0.383801	-0.107975	0.137526
C21	C	0.477098	-0.107975	0.139291
C22	C	0.506164	-0.000012	0.122568
N23	N	1.102645	-0.281849	0.169477
C24	C	0.946397	-0.655871	0.013073
C25	C	0.926084	-0.531219	-0.007250
C26	C	0.970222	-0.468870	0.036931
C27	C	1.034678	-0.531186	0.101436
C28	C	1.054999	-0.655850	0.121755
C29	C	1.078823	-0.468849	0.145613
C30	C	1.143279	-0.531165	0.210119
C31	C	1.163596	-0.655817	0.230435
C32	C	1.119458	-0.718166	0.186255
C33	C	1.058502	-0.344185	0.125294
C34	C	1.167104	-0.344164	0.233977
C35	C	1.187417	-0.468816	0.254299
C36	C	1.220272	-0.000018	0.117171
C37	C	1.319568	-0.000012	0.119039
C38	C	1.063097	-0.000018	-0.039996
C39	C	1.061223	-0.000013	-0.139293
N40	N	1.010857	0.281814	0.077572
C41	C	1.042766	0.107941	-0.203539
C42	C	1.041000	0.107942	-0.296838
C43	C	1.057696	-0.000011	-0.325891
C44	C	1.076152	-0.107973	-0.261637
C45	C	1.077911	-0.107973	-0.168339
C46	C	1.072484	-0.107965	-0.456102
C47	C	1.070726	-0.107965	-0.549407
C48	C	1.035573	0.107950	-0.584601
C49	C	1.037333	0.107950	-0.491302
C50	C	1.055789	-0.000012	-0.427055
C51	C	1.050396	-0.000014	0.287052
C52	C	1.052270	-0.000012	0.386348
H53	H	0.465599	0.195855	0.090465
H54	H	1.020543	0.195857	-0.636915
C55	C	1.024439	0.225193	-0.172038
C56	C	0.936502	0.290298	-0.195357
C57	C	0.919576	0.398315	-0.166350
H58	H	1.068961	0.269695	-0.201305
H59	H	1.028071	0.209798	-0.107265
H60	H	0.932877	0.305697	-0.260118
H61	H	0.891961	0.245832	-0.166092
H62	H	0.923208	0.382920	-0.101577
H63	H	0.964103	0.442806	-0.195619
H64	H	0.859906	0.442497	-0.182160
H65	H	0.360132	-0.195881	0.151143
H66	H	0.910473	-0.706646	-0.022898
H67	H	0.647901	-0.195873	0.156565
C68	C	0.855950	-0.463645	-0.077142
C69	C	0.770796	-0.493987	-0.047646
C70	C	0.706156	-0.431756	-0.112001
H71	H	0.875707	-0.484023	-0.135019
H72	H	0.850097	-0.380460	-0.082916
H73	H	0.776651	-0.577153	-0.041883
H74	H	0.751012	-0.473605	0.010222
H75	H	0.700303	-0.348571	-0.117775
H76	H	0.725922	-0.452139	-0.169874
H77	H	0.648371	-0.452326	-0.091993
H78	H	1.023743	0.195855	-0.467653
H79	H	1.092928	-0.195880	-0.116028
H80	H	0.296339	0.195846	0.087268
H81	H	0.817149	-0.195874	0.159795
H82	H	1.087494	-0.195879	-0.403790
C83	C	0.546702	-0.225304	0.159334
C84	C	0.501285	-0.319853	0.173577
C85	C	0.565376	-0.427954	0.192029
H86	H	0.577093	-0.229955	0.212886
H87	H	0.590590	-0.229855	0.108623
H88	H	0.457414	-0.315305	0.224283
H89	H	0.470898	-0.315242	0.120035
H90	H	0.609263	-0.432505	0.141318
H91	H	0.595763	-0.432593	0.245580
H92	H	0.534571	-0.492119	0.201687
C93	C	1.214995	-0.276641	0.282127
C94	C	1.195378	-0.306999	0.377166
C95	C	1.239486	-0.244826	0.421546
H96	H	1.193708	-0.193456	0.260908
H97	H	1.279518	-0.297077	0.268993
H98	H	1.130868	-0.286555	0.390293
H99	H	1.216666	-0.390173	0.398411
H100	H	1.304010	-0.265262	0.408413
H101	H	1.218196	-0.161644	0.400320
H102	H	1.226189	-0.265423	0.486035
H103	H	0.584096	0.195846	0.092699
H104	H	0.753360	0.195855	0.095907
H105	H	1.089741	-0.195870	-0.285299
C106	C	1.020794	0.225127	-0.366596
C107	C	0.941846	0.231493	-0.411198
C108	C	0.923200	0.339442	-0.475451
H109	H	1.071418	0.229729	-0.410569
H110	H	1.011059	0.289439	-0.335944
H111	H	0.951586	0.167198	-0.441849
H112	H	0.891206	0.226911	-0.367249
H113	H	0.913465	0.403755	-0.444799
H114	H	0.973828	0.344035	-0.519418
H115	H	0.869628	0.343781	-0.505715
H116	H	1.006022	-0.293460	0.072774
H117	H	1.216088	-0.706551	0.282952
C118	C	0.948004	-0.333532	0.014783
C119	C	0.882091	-0.292303	-0.051144
C120	C	0.861586	-0.167632	-0.071559
H121	H	1.002250	-0.305161	-0.008641
H122	H	0.924541	-0.305301	0.069084
H123	H	0.905557	-0.320522	-0.105435
H124	H	0.827831	-0.320641	-0.027739
H125	H	0.838123	-0.139401	-0.017257
H126	H	0.915837	-0.139273	-0.094979
H127	H	0.816856	-0.139642	-0.116285
C128	C	1.257408	-0.536696	0.324266
C129	C	1.265768	-0.659207	0.332583
C130	C	1.330243	-0.721775	0.397018
H131	H	1.237604	-0.516420	0.382169
H132	H	1.315288	-0.516323	0.304418
H133	H	1.207900	-0.679572	0.352435
H134	H	1.285584	-0.679519	0.274698
H135	H	1.388123	-0.701401	0.377170
H136	H	1.310433	-0.701489	0.454915
H137	H	1.335930	-0.804905	0.402663
H138	H	1.135991	-0.819668	0.202802
H139	H	1.084314	-0.195870	-0.573056
