data_functionalizedCrystal
_audit_creation_method	'MofGen! by Chris Wilmer'
_symmetry_space_group_name_H-M	'P1'
_symmetry_Int_Tables_number	1
_symmetry_cell_setting	triclinic
loop_
_symmetry_equiv_pos_as_xyz
  x,y,z
_cell_length_a	12.759401
_cell_length_b	16.120484
_cell_length_c	12.759393
_cell_angle_alpha	87.135992
_cell_angle_beta	90.019802
_cell_angle_gamma	92.924498
loop_
_atom_site_label
_atom_site_type_symbol
_atom_site_fract_x
_atom_site_fract_y
_atom_site_fract_z
Zn1	Zn	1.584981	-0.331886	0.615155
Zn2	Zn	1.575930	-0.471321	0.448367
Zn3	Zn	1.409277	-0.331924	0.439496
Zn4	Zn	1.400333	-0.471257	0.624004
O5	O	1.492630	-0.401597	0.531755
O6	O	1.730801	-0.350393	0.593039
O7	O	1.553778	-0.452873	0.300172
O8	O	1.440116	-0.215254	0.455381
O9	O	1.724151	-0.452835	0.470501
O10	O	1.569205	-0.215226	0.584437
O11	O	1.431339	-0.350458	0.293654
O12	O	1.261071	-0.350396	0.463962
O13	O	1.424872	-0.452726	0.769848
O14	O	1.254499	-0.452763	0.599519
O15	O	1.560532	-0.350331	0.763347
O16	O	1.545105	-0.587978	0.479082
O17	O	1.416095	-0.587930	0.608122
C18	C	1.219664	-0.401577	0.531739
C19	C	1.102887	-0.401589	0.531758
C20	C	1.478676	-0.618204	0.545548
C21	C	1.472802	-0.710869	0.551483
C22	C	0.941744	-0.348363	0.595682
C23	C	1.051469	-0.348347	0.595674
C24	C	1.044573	-0.454857	0.467854
C25	C	0.934850	-0.454877	0.467868
C26	C	1.462085	-0.880530	0.562342
C27	C	1.523364	-0.921823	0.501186
C28	C	1.517401	-1.016228	0.507228
C29	C	1.468047	-0.786117	0.556302
C30	C	1.766662	-0.401617	0.531773
C31	C	1.883438	-0.401626	0.531780
C32	C	1.492714	-0.401517	0.805784
C33	C	1.492750	-0.401483	0.922558
C34	C	1.506668	-0.184144	0.517932
C35	C	1.512650	-0.091478	0.512041
C36	C	1.492611	-0.401616	0.258789
C37	C	1.492794	-0.401416	0.142000
C38	C	1.563393	-0.348157	0.974036
C39	C	1.563413	-0.348121	1.083758
C40	C	1.422143	-0.454744	1.090515
C41	C	1.422119	-0.454775	0.980795
H42	H	1.098936	-0.304976	0.647710
H43	H	1.580305	-0.886274	0.444291
O44	O	1.353454	-0.506659	0.930950
C45	C	1.291108	-0.553680	1.005876
H46	H	1.333968	-0.556552	1.084280
H47	H	1.275652	-0.619373	0.978342
H48	H	1.213289	-0.523140	1.015592
H49	H	1.086447	-0.498212	0.415817
O50	O	0.891965	-0.296617	0.657869
C51	C	0.966962	-0.249590	0.714250
H52	H	1.042987	-0.283728	0.719977
H53	H	0.935866	-0.240785	0.796491
H54	H	0.982678	-0.186232	0.671877
H55	H	1.364640	-0.498134	1.137945
H56	H	1.405147	-0.916076	0.619231
O57	O	0.878366	-0.506646	0.405692
C58	C	0.947268	-0.553653	0.349292
H59	H	1.027673	-0.519489	0.343534
H60	H	0.914956	-0.562475	0.267064
H61	H	0.954892	-0.617004	0.391668
H62	H	1.620903	-0.304761	0.926623
H63	H	1.620937	-0.304697	1.125666
