data_functionalizedCrystal
_audit_creation_method	'MofGen! by Chris Wilmer'
_symmetry_space_group_name_H-M	'P1'
_symmetry_Int_Tables_number	1
_symmetry_cell_setting	triclinic
loop_
_symmetry_equiv_pos_as_xyz
  x,y,z
_cell_length_a	23.532407
_cell_length_b	23.532407
_cell_length_c	8.140239
_cell_angle_alpha	89.988012
_cell_angle_beta	90.002624
_cell_angle_gamma	82.848713
loop_
_atom_site_label
_atom_site_type_symbol
_atom_site_fract_x
_atom_site_fract_y
_atom_site_fract_z
O1	O	0.755258	0.069134	-0.136438
O2	O	0.589395	0.079137	-0.136491
O3	O	0.677328	-0.008796	-0.136417
O4	O	0.667325	0.157067	-0.136512
O5	O	0.677323	-0.008797	0.136810
O6	O	0.589390	0.079136	0.136736
O7	O	0.755253	0.069133	0.136789
Zn8	Zn	0.672321	0.074134	0.180143
Zn9	Zn	0.672327	0.074136	-0.179845
O10	O	0.667320	0.157066	0.136715
C11	C	0.568176	0.078882	0.000117
C12	C	0.504959	0.078116	0.000099
C13	C	0.105856	0.125350	0.000146
C14	C	0.046456	0.124638	0.000157
O15	O	0.009711	0.168424	0.000191
N16	N	0.023830	0.072362	0.000184
C17	C	0.060607	0.020794	0.000217
O18	O	0.035908	-0.023737	0.000243
C19	C	0.120006	0.021506	0.000219
C20	C	0.142629	0.073785	0.000175
C21	C	0.128480	0.177625	0.000104
C22	C	0.187876	0.178336	0.000090
C23	C	0.224649	0.126772	0.000119
C24	C	0.202025	0.074496	0.000161
C25	C	0.156783	-0.030062	0.000264
C26	C	0.216185	-0.029345	0.000267
C27	C	0.238808	0.022934	0.000223
C28	C	0.298194	0.023643	0.000176
N29	N	0.320821	0.075920	0.000149
C30	C	0.284048	0.127484	0.000120
C31	C	-0.064135	0.019302	0.000218
C32	C	-0.123533	0.018589	0.000205
C33	C	-0.137680	0.122434	0.000147
C34	C	-0.078281	0.123146	0.000148
C35	C	-0.041509	0.071578	0.000190
C36	C	0.408784	0.128974	0.000091
C37	C	0.468186	0.129680	0.000070
C38	C	0.482329	0.025836	0.000137
C39	C	0.422932	0.025129	0.000148
C40	C	0.386160	0.076702	0.000131
O41	O	0.334974	-0.020119	0.000149
O42	O	0.308756	0.172007	0.000116
C43	C	0.677071	-0.030013	0.000205
C44	C	0.676305	-0.093230	0.000229
C45	C	0.621110	-0.359397	0.000110
C46	C	0.621821	-0.299997	0.000122
O47	O	0.578035	-0.263252	0.000057
N48	N	0.674097	-0.277371	0.000158
C49	C	0.725666	-0.314148	0.000164
O50	O	0.770196	-0.289449	0.000194
C51	C	0.724954	-0.373547	0.000139
C52	C	0.672674	-0.396170	0.000120
C53	C	0.568834	-0.382020	0.000089
C54	C	0.568123	-0.441417	0.000079
C55	C	0.619687	-0.478189	0.000090
C56	C	0.671963	-0.455566	0.000111
C57	C	0.776521	-0.410324	0.000133
C58	C	0.775805	-0.469726	0.000107
C59	C	0.723525	-0.492349	0.000089
C60	C	0.722816	-0.551735	0.000112
N61	N	0.670539	-0.574361	0.000076
C62	C	0.618975	-0.537589	0.000065
C63	C	0.727157	-0.189406	0.000213
C64	C	0.727870	-0.130008	0.000249
C65	C	0.624025	-0.115861	0.000205
C66	C	0.623313	-0.175260	0.000180
C67	C	0.674881	-0.212032	0.000177
C68	C	0.617486	-0.662325	0.000046
C69	C	0.616779	-0.721727	0.000043
C70	C	0.720623	-0.735869	0.000079
C71	C	0.721330	-0.676473	0.000091
C72	C	0.669757	-0.639701	0.000069
O73	O	0.766579	-0.588514	0.000171
O74	O	0.574452	-0.562296	0.000014
C75	C	0.776472	0.069388	0.000178
C76	C	0.839689	0.070154	0.000185
C77	C	0.667577	0.178283	0.000089
C78	C	0.668343	0.241500	0.000054
N79	N	0.672321	0.074133	0.425826
N80	N	0.672332	0.074132	-0.425528
H81	H	0.486602	0.172255	0.000033
C82	C	0.212756	0.235843	0.000054
H83	H	0.253399	0.228889	0.000042
H84	H	0.200113	0.257058	0.095322
H85	H	0.200109	0.257057	-0.095251
H86	H	-0.141947	-0.023982	0.000215
C87	C	0.088038	0.234351	0.000058
H88	H	0.110027	0.265581	0.000021
H89	H	0.064569	0.236242	0.095330
H90	H	0.064575	0.236232	-0.095243
H91	H	0.770441	-0.111594	0.000290
H92	H	-0.034198	-0.022693	0.000237
C93	C	0.777341	-0.776324	0.000082
H94	H	0.808581	-0.754347	0.000106
H95	H	0.779217	-0.799779	-0.095206
H96	H	0.779220	-0.799800	0.095367
C97	C	0.522786	-0.030880	0.000181
H98	H	0.561400	-0.022964	0.000188
H99	H	0.515961	-0.052338	-0.095076
H100	H	0.515961	-0.052325	0.095497
H101	H	0.769152	-0.219343	0.000222
H102	H	-0.167632	0.164421	0.000131
C103	C	0.565806	-0.200139	0.000135
H104	H	0.535201	-0.169727	0.000121
H105	H	0.563362	-0.223030	0.095398
H106	H	0.563372	-0.223001	-0.095175
C107	C	0.834030	-0.385452	0.000131
H108	H	0.864632	-0.415867	0.000109
H109	H	0.836477	-0.362583	0.095410
H110	H	0.836465	-0.362568	-0.095163
C111	C	0.832531	-0.510173	0.000112
H112	H	0.863765	-0.488188	0.000139
H113	H	0.834415	-0.533630	-0.095170
H114	H	0.834412	-0.533646	0.095402
C115	C	0.559269	-0.746609	0.000009
H116	H	0.528663	-0.716198	-0.000015
H117	H	0.556827	-0.769496	0.095281
H118	H	0.556836	-0.769476	-0.095292
C119	C	0.778836	-0.651586	0.000131
H120	H	0.809443	-0.681996	0.000132
H121	H	0.781271	-0.628714	0.095410
H122	H	0.781275	-0.628704	-0.095163
C123	C	0.368345	0.185703	0.000050
H124	H	0.390333	0.216934	0.000005
H125	H	0.344879	0.187593	0.095326
H126	H	0.344879	0.187583	-0.095246
C127	C	0.131911	-0.087571	0.000335
H128	H	0.162326	-0.118173	0.000376
H129	H	0.109030	-0.090019	-0.094933
H130	H	0.109040	-0.090004	0.095639
C131	C	0.567303	-0.075405	0.000180
H132	H	0.536063	-0.097382	0.000171
H133	H	0.565428	-0.051930	-0.095094
H134	H	0.565422	-0.051950	0.095479
H135	H	-0.059866	0.165717	0.000122
C136	C	0.512108	-0.341579	0.000090
H137	H	0.480878	-0.363568	0.000087
H138	H	0.510219	-0.318098	-0.095174
H139	H	0.510225	-0.318128	0.095398
H140	H	0.246123	-0.071339	0.000302
H141	H	0.404512	-0.017441	0.000160
C142	C	0.560756	-0.621885	0.000035
H143	H	0.529525	-0.643874	0.000036
H144	H	0.558870	-0.598408	-0.095237
H145	H	0.558872	-0.598431	0.095335
C146	C	0.510615	-0.466294	0.000035
H147	H	0.480012	-0.435880	0.000013
H148	H	0.508169	-0.489182	0.095302
H149	H	0.508181	-0.489158	-0.095271
