data_functionalizedCrystal
_audit_creation_method	'MofGen! by Chris Wilmer'
_symmetry_space_group_name_H-M	'P1'
_symmetry_Int_Tables_number	1
_symmetry_cell_setting	triclinic
loop_
_symmetry_equiv_pos_as_xyz
  x,y,z
_cell_length_a	19.188930
_cell_length_b	17.699083
_cell_length_c	17.666332
_cell_angle_alpha	90.005452
_cell_angle_beta	89.980296
_cell_angle_gamma	96.786103
loop_
_atom_site_label
_atom_site_type_symbol
_atom_site_fract_x
_atom_site_fract_y
_atom_site_fract_z
O1	O	0.926252	-0.094491	-0.063193
O2	O	0.722955	-0.107211	-0.063141
O3	O	0.830347	0.009346	-0.063162
O4	O	0.818860	-0.211048	-0.063173
O5	O	0.830335	0.009348	0.062735
O6	O	0.722943	-0.107208	0.062755
O7	O	0.926240	-0.094488	0.062704
Cu8	Cu	0.824590	-0.100848	0.074225
Cu9	Cu	0.824605	-0.100851	-0.074663
O10	O	0.818848	-0.211045	0.062724
C11	C	0.696938	-0.106798	-0.000186
C12	C	0.619432	-0.105561	-0.000166
C13	C	0.829930	0.037543	-0.000214
C14	C	0.828695	0.121560	-0.000213
N15	N	0.824586	-0.100845	0.178944
C16	C	0.574584	-0.173953	-0.000182
C17	C	0.501759	-0.172791	-0.000190
C18	C	0.473785	-0.103234	-0.000198
C19	C	0.518642	-0.034833	-0.000179
C20	C	0.591465	-0.035997	-0.000163
N21	N	0.365749	-0.050067	-0.043074
N22	N	0.296569	-0.048966	-0.043091
C23	C	0.254372	-0.099724	-0.000244
N24	N	0.283967	-0.151635	0.042610
N25	N	0.353153	-0.152738	0.042623
C26	C	0.394821	-0.101965	-0.000215
C27	C	0.130559	-0.166861	-0.000267
C28	C	0.057733	-0.165696	-0.000271
C29	C	0.074617	-0.027736	-0.000268
C30	C	0.147442	-0.028903	-0.000256
C31	C	0.175408	-0.098467	-0.000260
C32	C	0.952258	-0.094902	-0.000253
C33	C	1.029763	-0.096138	-0.000278
C34	C	0.819266	-0.239243	-0.000226
C35	C	0.820500	-0.323259	-0.000232
C36	C	0.891732	0.170264	-0.000228
C37	C	0.890567	0.249206	-0.000234
C38	C	0.826365	0.279442	-0.000220
C39	C	0.763323	0.230732	-0.000208
C40	C	0.764489	0.151792	-0.000207
C41	C	0.758623	0.549089	-0.000213
C42	C	0.757463	0.628035	-0.000211
C43	C	0.884702	0.646503	-0.000240
C44	C	0.885867	0.567563	-0.000239
C45	C	0.822826	0.518859	-0.000231
C46	C	0.824089	0.433262	-0.000225
C47	C	0.825101	0.365038	-0.000220
N48	N	0.824615	-0.100848	-0.179382
C49	C	0.872170	-0.049251	0.780985
C50	C	0.872171	-0.049253	0.701738
C51	C	0.824605	-0.100845	0.662126
C52	C	0.777047	-0.152451	0.701768
C53	C	0.777052	-0.152453	0.781014
N54	N	0.762805	-0.110653	0.537729
N55	N	0.762802	-0.110647	0.462448
C56	C	0.824589	-0.100843	0.423362
N57	N	0.886380	-0.091031	0.462400
N58	N	0.886382	-0.091034	0.537687
C59	C	0.824595	-0.100849	0.576197
C60	C	0.872149	-0.049245	0.297800
C61	C	0.872151	-0.049252	0.218551
C62	C	0.777021	-0.152447	0.218583
C63	C	0.777025	-0.152444	0.297830
C64	C	0.824588	-0.100839	0.337434
H65	H	0.465238	-0.228486	-0.000200
C66	C	0.682319	0.706098	0.064519
C67	C	0.686886	0.661271	-0.000202
H68	H	0.638748	0.726612	0.064525
H69	H	0.719692	0.746397	0.064509
H70	H	0.685407	0.675680	0.108415
H71	H	0.683803	0.691691	-0.044099
H72	H	0.649502	0.620967	-0.000200
H73	H	0.183958	0.026790	-0.000248
H74	H	0.738320	-0.194460	0.669512
C75	C	0.066554	0.090208	0.064451
C76	C	0.043874	0.048723	-0.000274
H77	H	0.047567	0.137409	0.064450
H78	H	0.116337	0.099304	0.064454
H79	H	0.051126	0.062049	0.108345
H80	H	0.059306	0.076879	-0.044168
H81	H	-0.005920	0.039629	-0.000284
C82	C	0.994683	0.558992	-0.064989
C83	C	0.956439	0.534327	-0.000258
H84	H	1.038250	0.538469	-0.065004
H85	H	1.003011	0.612969	-0.064986
H86	H	0.968727	0.542251	-0.108879
H87	H	0.982392	0.551072	0.043632
H88	H	0.948113	0.480338	-0.000255
C89	C	0.683020	-0.254454	0.773084
C90	C	0.724771	-0.209167	0.824583
H91	H	0.650740	-0.289462	0.799984
H92	H	0.712033	-0.281602	0.742164
H93	H	0.657962	-0.223009	0.742185
H94	H	0.749833	-0.240612	0.855479
H95	H	0.695754	-0.182017	0.855516
C96	C	0.683124	0.042731	0.064574
C97	C	0.640766	0.039185	-0.000152
H98	H	0.713558	0.089148	0.064579
H99	H	0.710201	0.001143	0.064571
H100	H	0.654337	0.040319	0.108467
H101	H	0.669553	0.041591	-0.044046
H102	H	0.613686	0.080785	-0.000157
H103	H	0.936033	0.686167	-0.000251
H104	H	0.495860	0.021801	-0.000196
H105	H	0.707291	0.509443	-0.000205
H106	H	0.711049	0.255356	-0.000201
C107	C	1.017389	0.196456	-0.000269
C108	C	0.962306	0.137032	-0.000249
H109	H	1.060959	0.175941	-0.000289
H110	H	1.014287	0.226863	0.043633
H111	H	1.014282	0.226859	-0.044173
H112	H	0.965409	0.106633	0.043659
H113	H	0.965410	0.106613	-0.044155
H114	H	0.713157	0.112137	-0.000195
H115	H	0.941898	0.288858	-0.000245
H116	H	0.153330	-0.223504	-0.000259
C117	C	0.966207	0.052744	0.772987
C118	C	0.924462	0.007460	0.824517
H119	H	0.998495	0.087748	0.799865
H120	H	0.937191	0.079896	0.742102
H121	H	0.991256	0.021296	0.742057
H122	H	0.899409	0.038907	0.855444
H123	H	0.953482	-0.019694	0.855415
C124	C	0.887528	0.053753	0.612562
C125	C	0.924463	0.007425	0.658134
H126	H	0.919817	0.088727	0.585634
H127	H	0.858544	0.080940	0.643479
H128	H	0.859181	0.023010	0.577658
H129	H	0.952806	0.038168	0.693042
H130	H	0.953458	-0.019764	0.627214
C131	C	0.966174	0.052763	0.289811
C132	C	0.924428	0.007477	0.341338
H133	H	0.998449	0.087779	0.316691
H134	H	0.937157	0.079902	0.258915
H135	H	0.991236	0.021319	0.258892
H136	H	0.899361	0.038921	0.372254
H137	H	0.953449	-0.019664	0.372248
C138	C	0.735801	-0.283584	0.194195
C139	C	0.724738	-0.209163	0.175052
H140	H	0.703526	-0.318600	0.167315
H141	H	0.728995	-0.290961	0.247058
H142	H	0.782385	-0.291666	0.181183
H143	H	0.678156	-0.201079	0.188069
H144	H	0.731538	-0.201783	0.122177
H145	H	0.910879	-0.007238	0.186281
H146	H	0.738299	-0.194456	0.330101
C147	C	0.582623	-0.291902	-0.064906
C148	C	0.605314	-0.250423	-0.000181
H149	H	0.601590	-0.339114	-0.064902
H150	H	0.598057	-0.263753	-0.108795
H151	H	0.532832	-0.300979	-0.064909
H152	H	0.655105	-0.241341	-0.000181
H153	H	0.589883	-0.278579	0.043720
C154	C	0.048363	-0.302178	-0.000292
C155	C	0.008433	-0.240879	-0.000288
H156	H	0.017925	-0.348593	-0.000307
H157	H	0.077096	-0.299767	0.043614
H158	H	0.077141	-0.299754	-0.044193
H159	H	-0.020341	-0.243300	0.043616
H160	H	-0.020312	-0.243291	-0.044198
