data_functionalizedCrystal
_audit_creation_method	'MofGen! by Chris Wilmer'
_symmetry_space_group_name_H-M	'P1'
_symmetry_Int_Tables_number	1
_symmetry_cell_setting	triclinic
loop_
_symmetry_equiv_pos_as_xyz
  x,y,z
_cell_length_a	19.805407
_cell_length_b	19.805405
_cell_length_c	18.215399
_cell_angle_alpha	90.030610
_cell_angle_beta	90.020634
_cell_angle_gamma	90.026410
loop_
_atom_site_label
_atom_site_type_symbol
_atom_site_fract_x
_atom_site_fract_y
_atom_site_fract_z
Zn1	Zn	1.034743	-0.269470	0.416118
Zn2	Zn	1.034655	-0.382661	0.293046
Zn3	Zn	0.921555	-0.269491	0.293064
Zn4	Zn	0.921521	-0.382623	0.416069
O5	O	0.978119	-0.326061	0.354574
O6	O	1.129448	-0.284492	0.399805
O7	O	1.019630	-0.367674	0.190064
O8	O	0.936621	-0.174772	0.309415
O9	O	1.129384	-0.367653	0.309385
O10	O	1.019779	-0.174756	0.399822
O11	O	0.936536	-0.284529	0.190077
O12	O	0.826834	-0.284491	0.309368
O13	O	0.936562	-0.367588	0.519060
O14	O	0.826809	-0.367608	0.399739
O15	O	1.019746	-0.284455	0.519096
O16	O	1.019597	-0.477373	0.309337
O17	O	0.936478	-0.477344	0.399722
C18	C	0.802263	-0.326048	0.354550
C19	C	0.727031	-0.326059	0.354558
C20	C	0.691691	-0.369403	0.401538
C21	C	0.621003	-0.369404	0.401548
C22	C	0.585655	-0.326064	0.354574
C23	C	0.621000	-0.282715	0.307592
C24	C	0.691687	-0.282711	0.307586
C25	C	0.335926	-0.282730	0.307616
C26	C	0.265234	-0.282739	0.307624
C27	C	0.265242	-0.369423	0.401579
C28	C	0.335929	-0.369419	0.401573
C29	C	0.371268	-0.326068	0.354593
C30	C	0.447916	-0.326067	0.354584
C31	C	0.509008	-0.326069	0.354580
C32	C	0.978042	-0.501917	0.354539
C33	C	0.978072	-0.577149	0.354548
C34	C	1.021394	-0.612486	0.307534
C35	C	1.021423	-0.683174	0.307550
C36	C	0.978125	-0.718525	0.354577
C37	C	0.934801	-0.683183	0.401597
C38	C	0.934776	-0.612496	0.401583
C39	C	0.934901	-0.968257	0.401651
C40	C	0.934928	-1.038949	0.401659
C41	C	1.021548	-1.038935	0.307618
C42	C	1.021523	-0.968247	0.307605
C43	C	0.978201	-0.932912	0.354626
C44	C	0.978172	-0.856264	0.354609
C45	C	0.978151	-0.795172	0.354591
C46	C	1.154661	-0.326075	0.354598
C47	C	1.229893	-0.326081	0.354609
C48	C	0.978160	-0.326015	0.546527
C49	C	0.978177	-0.325995	0.628326
C50	C	0.978214	-0.149519	0.354626
C51	C	0.978254	-0.074287	0.354648
C52	C	0.978116	-0.326059	0.163368
C53	C	0.978230	-0.325888	0.081569
C54	C	1.021507	-0.282667	0.816540
C55	C	1.021515	-0.282647	0.893399
C56	C	0.934896	-0.369218	0.893350
C57	C	0.934885	-0.369233	0.816493
C58	C	0.978194	-0.325959	0.778090
C59	C	0.978213	-0.325924	0.931806
C60	C	0.978222	-0.325903	1.015140
C61	C	0.978185	-0.325979	0.694751
H62	H	0.236461	-0.404720	0.439834
H63	H	0.592232	-0.404700	0.439804
O64	O	0.892882	-0.411388	0.779170
C65	C	0.907631	-0.478845	0.797941
H66	H	0.961704	-0.482261	0.819082
H67	H	0.901779	-0.512291	0.747381
H68	H	0.871339	-0.496529	0.842537
H69	H	1.056825	-1.067713	0.269333
O70	O	1.063615	-0.933834	0.262025
C71	C	1.107304	-0.892896	0.303965
H72	H	1.083398	-0.882292	0.359710
H73	H	1.116373	-0.843199	0.273991
H74	H	1.157469	-0.920091	0.312107
O75	O	1.063516	-0.578254	0.261826
C76	C	1.101747	-0.624604	0.220321
H77	H	1.104093	-0.674970	0.250478
H78	H	1.155073	-0.604143	0.212519
H79	H	1.076992	-0.632180	0.164405
O80	O	0.726047	-0.240536	0.262051
C81	C	0.766982	-0.196877	0.304032
H82	H	0.745705	-0.192767	0.362004
H83	H	0.767792	-0.144757	0.277518
H84	H	0.820547	-0.217803	0.306519
H85	H	0.720466	-0.404698	0.439788
O86	O	0.892735	-0.411185	0.930623
C87	C	0.825281	-0.396406	0.911819
H88	H	0.821885	-0.342338	0.890712
H89	H	0.791846	-0.402228	0.962355
H90	H	0.807565	-0.432702	0.867189
O91	O	1.063498	-0.240530	0.779269
C92	C	1.048749	-0.173068	0.798086
H93	H	0.994681	-0.169649	0.819201
H94	H	1.054589	-0.139637	0.747556
H95	H	1.085050	-0.155368	0.842715
H96	H	0.364706	-0.404714	0.439821
O97	O	1.063492	-0.240520	0.930780
C98	C	1.024984	-0.196800	0.975252
H99	H	0.971675	-0.192626	0.952079
H100	H	1.049489	-0.144711	0.976141
H101	H	1.022651	-0.217710	1.033496
H102	H	0.236456	-0.247442	0.269372
O103	O	0.586697	-0.240516	0.262039
C104	C	0.604017	-0.173076	0.278245
H105	H	0.623471	-0.169728	0.337043
H106	H	0.557542	-0.139631	0.271973
H107	H	0.645042	-0.155335	0.238823
O108	O	0.370143	-0.240599	0.261913
C109	C	0.323784	-0.202337	0.220469
H110	H	0.273387	-0.230067	0.217867
H111	H	0.344187	-0.195039	0.162500
H112	H	0.316291	-0.150968	0.247527
H113	H	0.899670	-1.067729	0.439960
O114	O	1.063668	-0.717479	0.262039
C115	C	1.107365	-0.758242	0.304076
H116	H	1.111366	-0.736899	0.362049
H117	H	1.159517	-0.758921	0.277621
H118	H	1.086548	-0.811868	0.306548
H119	H	0.899626	-0.939492	0.439936
O120	O	0.892763	-0.717626	0.447210
C121	C	0.902084	-0.787594	0.437153
H122	H	0.924285	-0.797266	0.380383
H123	H	0.851391	-0.814495	0.442096
H124	H	0.938111	-0.807598	0.480845
H125	H	0.899500	-0.583726	0.439868
