data_functionalizedCrystal
_audit_creation_method	'MofGen! by Chris Wilmer'
_symmetry_space_group_name_H-M	'P1'
_symmetry_Int_Tables_number	1
_symmetry_cell_setting	triclinic
loop_
_symmetry_equiv_pos_as_xyz
  x,y,z
_cell_length_a	9.065218
_cell_length_b	9.616153
_cell_length_c	9.065218
_cell_angle_alpha	89.999628
_cell_angle_beta	94.984115
_cell_angle_gamma	90.006967
loop_
_atom_site_label
_atom_site_type_symbol
_atom_site_fract_x
_atom_site_fract_y
_atom_site_fract_z
O1	O	1.960407	0.115643	-0.216351
O2	O	2.460407	0.615643	0.283649
O3	O	1.531122	0.115644	-0.234097
O4	O	2.031122	0.615644	0.265903
O5	O	1.754638	0.115641	-0.010582
O6	O	2.254638	0.615641	0.489418
O7	O	1.736892	0.115647	-0.439867
O8	O	2.236892	0.615647	0.060133
O9	O	1.754607	-0.115651	-0.010586
O10	O	2.254607	0.384349	0.489414
O11	O	1.531091	-0.115647	-0.234102
O12	O	2.031091	0.384353	0.265898
O13	O	1.960376	-0.115648	-0.216355
O14	O	2.460376	0.384352	0.283645
Zn15	Zn	1.745729	-0.152370	-0.225229
Zn16	Zn	2.245729	0.347630	0.274771
Zn17	Zn	1.745770	0.152366	-0.225223
Zn18	Zn	2.245770	0.652366	0.274777
O19	O	1.736861	-0.115645	-0.439871
O20	O	2.236861	0.384355	0.060129
C21	C	1.476120	-0.000001	-0.232394
C22	C	1.976120	0.499999	0.267606
C23	C	1.312277	-0.000000	-0.227294
C24	C	1.812277	0.500000	0.272706
N25	N	1.745712	-0.360345	-0.225233
N26	N	2.245712	0.139655	0.274767
C27	C	1.625777	-0.580713	-0.344394
C28	C	2.125777	-0.080713	0.155606
C29	C	1.626044	-0.419545	-0.344844
C30	C	2.126044	0.080455	0.155156
C31	C	1.900127	-0.418794	-0.260920
C32	C	2.400127	0.081206	0.239080
C33	C	1.899474	-0.580012	-0.261764
C34	C	2.399474	-0.080012	0.238236
C35	C	1.712766	-0.580258	-0.069998
C36	C	2.212766	-0.080258	0.430002
C37	C	1.709229	-0.419031	-0.070988
C38	C	2.209229	0.080969	0.429012
C39	C	2.015378	0.000000	-0.218059
C40	C	2.515378	0.500000	0.281941
C41	C	2.179221	0.000009	-0.223158
C42	C	2.679221	0.500009	0.276842
C43	C	1.752917	-0.000003	0.044403
C44	C	2.252917	0.499997	0.544403
C45	C	1.747817	0.000004	0.208245
C46	C	2.247817	0.500004	0.708245
N47	N	1.745798	0.360341	-0.225209
N48	N	2.245798	0.860341	0.274791
C49	C	1.738582	0.000002	-0.494855
C50	C	2.238582	0.500002	0.005145
C51	C	1.743681	0.000004	-0.658698
C52	C	2.243681	0.500004	-0.158698
H53	H	1.511332	-0.380030	-0.323277
H54	H	2.011332	0.119970	0.176723
H55	H	1.991683	-0.619002	-0.178488
H56	H	2.491683	-0.119002	0.321512
H57	H	1.800267	-0.618376	0.018720
H58	H	2.300267	-0.118376	0.518720
C59	C	1.563781	-0.635241	-0.024357
C60	C	2.063781	-0.135241	0.475643
N61	N	1.451559	-0.676653	0.010003
N62	N	1.951559	-0.176653	0.510003
C63	C	1.470323	-0.633176	-0.315723
C64	C	1.970323	-0.133176	0.184277
N65	N	1.353233	-0.672710	-0.294132
N66	N	1.853233	-0.172710	0.205868
C67	C	1.819453	-0.364627	0.054657
C68	C	2.319453	0.135373	0.554657
N69	N	1.902495	-0.323661	0.149288
N70	N	2.402495	0.176339	0.649288
C71	C	1.654179	-0.635420	-0.499062
C72	C	2.154179	-0.135420	0.000938
N73	N	1.675577	-0.676627	-0.615557
N74	N	2.175577	-0.176627	-0.115557
C75	C	1.938344	-0.630793	-0.414779
C76	C	2.438344	-0.130793	0.085221
N77	N	1.967610	-0.669035	-0.530038
N78	N	2.467610	-0.169035	-0.030038
C79	C	1.654827	-0.367418	-0.500390
C80	C	2.154827	0.132582	-0.000390
N81	N	1.676515	-0.328157	-0.617552
N82	N	2.176515	0.171843	-0.117552
H83	H	1.991648	-0.380443	-0.176509
H84	H	2.491648	0.119557	0.323491
H85	H	1.929546	-0.378402	-0.372901
H86	H	2.429546	0.121598	0.127099
C87	C	1.555756	-0.367435	-0.034466
C88	C	2.055756	0.132565	0.465534
N89	N	1.440157	-0.328566	-0.006963
N90	N	1.940157	0.171434	0.493037
