data_functionalizedCrystal
_audit_creation_method	'MofGen! by Chris Wilmer'
_symmetry_space_group_name_H-M	'P1'
_symmetry_Int_Tables_number	1
_symmetry_cell_setting	triclinic
loop_
_symmetry_equiv_pos_as_xyz
  x,y,z
_cell_length_a	29.839134
_cell_length_b	18.050590
_cell_length_c	29.839125
_cell_angle_alpha	90.019325
_cell_angle_beta	89.987811
_cell_angle_gamma	89.996937
loop_
_atom_site_label
_atom_site_type_symbol
_atom_site_fract_x
_atom_site_fract_y
_atom_site_fract_z
Zn1	Zn	0.686779	0.296149	-0.254003
Zn2	Zn	1.186779	0.796149	0.245997
Zn3	Zn	0.686736	0.420315	-0.178870
Zn4	Zn	1.186736	0.920315	0.321130
Zn5	Zn	0.611661	0.296101	-0.178885
Zn6	Zn	1.111661	0.796101	0.321115
Zn7	Zn	0.611634	0.420259	-0.253972
Zn8	Zn	1.111634	0.920259	0.246028
O9	O	0.649202	0.358206	-0.216432
O10	O	1.149202	0.858206	0.283568
O11	O	0.749640	0.312663	-0.244043
O12	O	1.249640	0.812663	0.255957
O13	O	0.676770	0.403841	-0.116005
O14	O	1.176770	0.903841	0.383995
O15	O	0.621655	0.192183	-0.188869
O16	O	1.121655	0.692183	0.311131
O17	O	0.749608	0.403887	-0.188844
O18	O	1.249608	0.903887	0.311156
O19	O	0.676844	0.192218	-0.244057
O20	O	1.176844	0.692218	0.255943
O21	O	0.621614	0.312582	-0.116016
O22	O	1.121614	0.812582	0.383984
O23	O	0.548791	0.312528	-0.188839
O24	O	1.048791	0.812528	0.311161
O25	O	0.621609	0.403792	-0.316843
O26	O	1.121609	0.903792	0.183157
O27	O	0.548771	0.403746	-0.244004
O28	O	1.048771	0.903746	0.255996
O29	O	0.676817	0.312608	-0.316866
O30	O	1.176817	0.812608	0.183134
O31	O	0.676744	0.524232	-0.188814
O32	O	1.176744	1.024232	0.311186
O33	O	0.621567	0.524191	-0.243990
O34	O	1.121567	1.024191	0.256010
C35	C	0.532480	0.358126	-0.216420
C36	C	1.032480	0.858126	0.283580
C37	C	0.482545	0.358110	-0.216425
C38	C	0.982545	0.858110	0.283575
C39	C	0.649160	0.551158	-0.216407
C40	C	1.149160	1.051158	0.283593
C41	C	0.649183	0.633704	-0.216411
C42	C	1.149183	1.133704	0.283589
C43	C	0.125971	0.310804	-0.245231
C44	C	0.625971	0.810804	0.254769
C45	C	0.313644	0.310745	-0.245221
C46	C	0.813644	0.810745	0.254779
O47	O	0.337919	0.270429	-0.269711
O48	O	0.837919	0.770429	0.230289
N49	N	0.337100	0.358159	-0.216436
N50	N	0.837100	0.858159	0.283564
C51	C	0.313636	0.405595	-0.187653
C52	C	0.813636	0.905595	0.312347
O53	O	0.337893	0.445927	-0.163173
O54	O	0.837893	0.945927	0.336827
C55	C	0.125964	0.405658	-0.187666
C56	C	0.625964	0.905658	0.312334
C57	C	0.102509	0.358235	-0.216450
C58	C	0.602509	0.858235	0.283550
C59	C	0.102516	0.263386	-0.274013
C60	C	0.602516	0.763386	0.225987
C61	C	0.055601	0.263399	-0.274014
C62	C	0.555601	0.763399	0.225986
C63	C	0.032140	0.310829	-0.245232
C64	C	0.532140	0.810829	0.254768
C65	C	0.055594	0.358248	-0.216451
C66	C	0.555594	0.858248	0.283549
C67	C	0.102500	0.453097	-0.158887
C68	C	0.602500	0.953097	0.341113
C69	C	0.055579	0.453110	-0.158893
C70	C	0.555579	0.953110	0.341107
C71	C	0.032125	0.405687	-0.187677
C72	C	0.532125	0.905687	0.312323
C73	C	-0.014783	0.405691	-0.187670
C74	C	0.485217	0.905691	0.312330
N75	N	-0.038239	0.358277	-0.216455
N76	N	0.461761	0.858277	0.283545
C77	C	-0.014778	0.310846	-0.245236
C78	C	0.485222	0.810846	0.254764
C79	C	0.412166	0.405557	-0.187648
C80	C	0.912166	0.905557	0.312352
C81	C	0.459084	0.405541	-0.187644
C82	C	0.959084	0.905541	0.312356
C83	C	0.459089	0.310691	-0.245212
C84	C	0.959089	0.810691	0.254788
C85	C	0.412170	0.310705	-0.245214
C86	C	0.912170	0.810705	0.254786
C87	C	0.388710	0.358143	-0.216433
C88	C	0.888710	0.858143	0.283567
C89	C	-0.113304	0.310875	-0.245235
C90	C	0.386696	0.810875	0.254765
C91	C	-0.160224	0.310890	-0.245232
C92	C	0.339776	0.810890	0.254768
C93	C	-0.160224	0.405742	-0.187665
C94	C	0.339776	0.905742	0.312335
C95	C	-0.113309	0.405725	-0.187667
C96	C	0.386691	0.905725	0.312333
C97	C	-0.089850	0.358289	-0.216455
C98	C	0.410150	0.858289	0.283545
O99	O	-0.039087	0.445991	-0.163197
O100	O	0.460913	0.945991	0.336803
O101	O	-0.039044	0.270531	-0.269720
O102	O	0.460956	0.770531	0.230280
C103	C	0.172886	0.310792	-0.245231
C104	C	0.672886	0.810792	0.254769
C105	C	0.196340	0.358210	-0.216449
C106	C	0.696340	0.858210	0.283551
C107	C	0.172879	0.405641	-0.187668
C108	C	0.672879	0.905641	0.312332
C109	C	0.243258	0.358193	-0.216445
C110	C	0.743258	0.858193	0.283555
C111	C	0.266719	0.310763	-0.245226
C112	C	0.766719	0.810763	0.254774
C113	C	0.243263	0.263349	-0.274011
C114	C	0.743263	0.763349	0.225989
C115	C	0.196347	0.263361	-0.274012
C116	C	0.696347	0.763361	0.225988
C117	C	0.196336	0.453055	-0.158883
C118	C	0.696336	0.953055	0.341117
C119	C	0.243251	0.453038	-0.158884
C120	C	0.743251	0.953038	0.341116
C121	C	0.266712	0.405607	-0.187665
C122	C	0.766712	0.905607	0.312335
C123	C	0.679242	0.833150	-0.186440
C124	C	1.179242	1.333150	0.313560
C125	C	0.690209	0.882504	-0.227440
C126	C	1.190209	1.382504	0.272560
C127	C	0.649202	0.784834	-0.216423
C128	C	1.149202	1.284834	0.283577
C129	C	0.638275	0.882562	-0.175435
C130	C	1.138275	1.382562	0.324565
C131	C	0.649221	0.930819	-0.216431
C132	C	1.149221	1.430819	0.283569
C133	C	0.660190	0.833101	-0.257445
C134	C	1.160190	1.333101	0.242555
C135	C	0.608237	0.833155	-0.205412
C136	C	1.108237	1.333155	0.294588
C137	C	0.619188	0.882486	-0.246441
C138	C	1.119188	1.382486	0.253559
C139	C	0.649192	0.700736	-0.216418
C140	C	1.149192	1.200736	0.283582
C141	C	0.649231	1.014916	-0.216441
C142	C	1.149231	1.514916	0.283559
C143	C	0.766381	0.358286	-0.216445
C144	C	1.266381	0.858286	0.283555
C145	C	0.816315	0.358321	-0.216451
C146	C	1.316315	0.858321	0.283549
C147	C	0.649215	0.358199	-0.333611
C148	C	1.149215	0.858199	0.166389
C149	C	0.649220	0.358196	-0.383545
C150	C	1.149220	0.858196	0.116455
C151	C	0.649247	1.164500	-0.216458
C152	C	1.149247	1.664500	0.283542
C153	C	0.649239	1.081955	-0.216443
C154	C	1.149239	1.581955	0.283557
C155	C	0.677997	0.310593	-0.693204
C156	C	1.177997	0.810593	-0.193204
C157	C	0.678019	0.310530	-0.880877
C158	C	1.178019	0.810530	-0.380877
O159	O	0.702453	0.270126	-0.905154
O160	O	1.202453	0.770126	-0.405154
N161	N	0.649279	0.357998	-0.904331
N162	N	1.149279	0.857998	-0.404331
C163	C	0.620530	0.405481	-0.880863
C164	C	1.120530	0.905481	-0.380863
O165	O	0.596082	0.445849	-0.905118
O166	O	1.096082	0.945849	-0.405118
C167	C	0.620505	0.405540	-0.693191
C168	C	1.120505	0.905540	-0.193191
C169	C	0.649251	0.358075	-0.669740
C170	C	1.149251	0.858075	-0.169740
C171	C	0.706739	0.263130	-0.669752
C172	C	1.206739	0.763130	-0.169752
C173	C	0.706735	0.263149	-0.622837
C174	C	1.206735	0.763149	-0.122837
C175	C	0.677989	0.310631	-0.599373
C176	C	1.177989	0.810631	-0.099373
C177	C	0.649246	0.358094	-0.622824
C178	C	1.149246	0.858094	-0.122824
C179	C	0.591754	0.453020	-0.669724
C180	C	1.091754	0.953020	-0.169724
C181	C	0.591750	0.453029	-0.622803
C182	C	1.091750	0.953029	-0.122803
C183	C	0.620495	0.405563	-0.599352
C184	C	1.120495	0.905563	-0.099352
C185	C	0.620496	0.405595	-0.552445
C186	C	1.120496	0.905595	-0.052445
N187	N	0.649236	0.358127	-0.528991
N188	N	1.149236	0.858127	-0.028991
C189	C	0.677982	0.310645	-0.552455
C190	C	1.177982	0.810645	-0.052455
C191	C	0.620545	0.405448	-0.979394
C192	C	1.120545	0.905448	-0.479394
C193	C	0.620552	0.405434	-1.026312
C194	C	1.120552	0.905434	-0.526312
C195	C	0.678041	0.310481	-1.026322
C196	C	1.178041	0.810481	-0.526322
C197	C	0.678036	0.310499	-0.979403
C198	C	1.178036	0.810499	-0.479403
C199	C	0.649285	0.357980	-0.955940
C200	C	1.149285	0.857980	-0.455940
C201	C	0.677972	0.310689	-0.453929
C202	C	1.177972	0.810689	0.046071
C203	C	0.677966	0.310715	-0.407009
C204	C	1.177966	0.810715	0.092991
C205	C	0.620476	0.405665	-0.407003
C206	C	1.120476	0.905665	0.092997
C207	C	0.620482	0.405642	-0.453919
C208	C	1.120482	0.905642	0.046081
C209	C	0.649232	0.358148	-0.477380
C210	C	1.149232	0.858148	0.022620
O211	O	0.596071	0.445972	-0.528138
O212	O	1.096071	0.945972	-0.028138
O213	O	0.702419	0.270272	-0.528192
O214	O	1.202419	0.770272	-0.028192
C215	C	0.678001	0.310574	-0.740119
C216	C	1.178001	0.810574	-0.240119
C217	C	0.649259	0.358036	-0.763570
C218	C	1.149259	0.858036	-0.263570
C219	C	0.620512	0.405518	-0.740106
C220	C	1.120512	0.905518	-0.240106
C221	C	0.649265	0.358023	-0.810488
C222	C	1.149265	0.858023	-0.310488
C223	C	0.678012	0.310541	-0.833952
C224	C	1.178012	0.810541	-0.333952
C225	C	0.706752	0.263073	-0.810499
C226	C	1.206752	0.763073	-0.310499
C227	C	0.706748	0.263092	-0.763583
C228	C	1.206748	0.763092	-0.263583
C229	C	0.591772	0.452986	-0.763560
C230	C	1.091772	0.952986	-0.263560
C231	C	0.591779	0.452964	-0.810476
C232	C	1.091779	0.952964	-0.310476
C233	C	0.620526	0.405482	-0.833940
C234	C	1.120526	0.905482	-0.333940
C235	C	0.649216	0.358159	-0.099710
C236	C	1.149216	0.858159	0.400290
C237	C	0.649298	0.357953	-0.049776
C238	C	1.149298	0.857953	0.450224
H239	H	-0.179318	0.272269	-0.268671
H240	H	0.320682	0.772269	0.231329
H241	H	0.568372	0.491623	-0.829566
H242	H	1.068372	0.991623	-0.329566
H243	H	0.573595	0.811461	-0.196081
H244	H	1.073595	1.311461	0.303919
H245	H	0.724861	0.904182	-0.236759
H246	H	1.224861	1.404182	0.263241
H247	H	-0.094211	0.444334	-0.164225
H248	H	0.405789	0.944334	0.335775
C249	C	0.534950	0.546839	-0.768272
C250	C	1.034950	1.046839	-0.268272
C251	C	0.560172	0.505184	-0.737773
C252	C	1.060172	1.005184	-0.237773
H253	H	0.515443	0.579069	-0.752353
H254	H	1.015443	1.079069	-0.252353
H255	H	0.517779	0.514460	-0.786570
H256	H	1.017779	1.014460	-0.286570
H257	H	0.554525	0.575246	-0.786574
H258	H	1.054525	1.075246	-0.286574
H259	H	0.540598	0.476772	-0.719474
H260	H	1.040598	0.976772	-0.219474
H261	H	0.577345	0.537567	-0.719468
H262	H	1.077345	1.037567	-0.219468
H263	H	0.669406	0.811467	-0.292141
H264	H	1.169406	1.311467	0.207859
C265	C	0.728639	0.137408	-0.608427
C266	C	1.228639	0.637408	-0.108427
C267	C	0.738327	0.210955	-0.597069
C268	C	1.238327	0.710955	-0.097069
H269	H	0.748141	0.105180	-0.592521
H270	H	1.248141	0.605180	-0.092521
H271	H	0.732751	0.130625	-0.639726
H272	H	1.232751	0.630625	-0.139726
H273	H	0.698455	0.126537	-0.600730
H274	H	1.198455	0.626537	-0.100730
H275	H	0.768510	0.221828	-0.604769
H276	H	1.268510	0.721828	-0.104769
H277	H	0.734219	0.217741	-0.565763
H278	H	1.234219	0.717741	-0.065763
C279	C	0.560051	0.415893	-0.506670
C280	C	1.060051	0.915893	-0.006670
C281	C	0.588886	0.457818	-0.479698
C282	C	1.088886	0.957818	0.020302
H283	H	0.540544	0.448102	-0.522584
H284	H	1.040544	0.948102	-0.022584
H285	H	0.542880	0.383537	-0.488362
H286	H	1.042880	0.883537	0.011638
H287	H	0.577175	0.387616	-0.527360
H288	H	1.077175	0.887616	-0.027360
H289	H	0.571762	0.486091	-0.459006
H290	H	1.071762	0.986091	0.040994
H291	H	0.606059	0.490186	-0.498007
H292	H	1.106059	0.990186	0.001993
H293	H	0.701442	0.271847	-0.960312
H294	H	1.201442	0.771847	-0.460312
C295	C	0.713025	0.163203	-0.722514
C296	C	1.213025	0.663203	-0.222514
C297	C	0.738341	0.210929	-0.695537
C298	C	1.238341	0.710929	-0.195537
H299	H	0.732539	0.130973	-0.738427
H300	H	1.232539	0.630973	-0.238427
H301	H	0.695918	0.191463	-0.743201
H302	H	1.195918	0.691463	-0.243201
H303	H	0.693455	0.134796	-0.704208
H304	H	1.193455	0.634796	-0.204208
H305	H	0.757909	0.239340	-0.713843
H306	H	1.257909	0.739340	-0.213843
H307	H	0.755456	0.182665	-0.674847
H308	H	1.255456	0.682665	-0.174847
C309	C	0.596465	0.886449	-0.323588
C310	C	1.096465	1.386449	0.176412
C311	C	0.584905	0.911555	-0.280711
C312	C	1.084905	1.411555	0.219289
H313	H	0.575303	0.904401	-0.344746
H314	H	1.075303	1.404401	0.155254
H315	H	0.596445	0.833832	-0.323940
H316	H	1.096445	1.333832	0.176060
H317	H	0.625485	0.904100	-0.331160
H318	H	1.125485	1.404100	0.168840
H319	H	0.555886	0.893900	-0.273138
H320	H	1.055886	1.393900	0.226862
H321	H	0.584921	0.964183	-0.280358
H322	H	1.084921	1.464183	0.219642
C323	C	0.712903	0.726332	-0.152313
C324	C	1.212903	1.226332	0.347687
C325	C	0.713547	0.803897	-0.152248
C326	C	1.213547	1.303897	0.347752
H327	H	0.734080	0.708274	-0.131204
H328	H	1.234080	1.208274	0.368796
H329	H	0.720390	0.708675	-0.181355
H330	H	1.220390	1.208675	0.318645
H331	H	0.683803	0.709443	-0.144418
H332	H	1.183803	1.209443	0.355582
H333	H	0.742646	0.820786	-0.160146
H334	H	1.242646	1.320786	0.339854
H335	H	0.706063	0.821561	-0.123200
H336	H	1.206063	1.321561	0.376800
C337	C	0.143584	0.163485	-0.280374
C338	C	0.643584	0.663485	0.219626
C339	C	0.170571	0.211237	-0.305655
C340	C	0.670571	0.711237	0.194345
H341	H	0.127675	0.131303	-0.299912
H342	H	0.627675	0.631303	0.200088
H343	H	0.122893	0.191731	-0.263241
H344	H	0.622893	0.691731	0.236759
H345	H	0.161884	0.135029	-0.260831
H346	H	0.661884	0.635029	0.239169
H347	H	0.152270	0.239697	-0.325196
H348	H	0.652270	0.739697	0.174804
H349	H	0.191263	0.182988	-0.322796
H350	H	0.691263	0.682988	0.177204
C351	C	0.657279	0.886979	-0.097296
C352	C	1.157279	1.386979	0.402704
C353	C	0.625783	0.911888	-0.128638
C354	C	1.125783	1.411888	0.371362
H355	H	0.649567	0.905079	-0.068405
H356	H	1.149567	1.405079	0.431595
H357	H	0.686176	0.904605	-0.105326
H358	H	1.186176	1.404605	0.394674
H359	H	0.657447	0.834357	-0.096896
H360	H	1.157447	1.334357	0.403104
H361	H	0.625617	0.964510	-0.129041
H362	H	1.125617	1.464510	0.370959
H363	H	0.596878	0.894266	-0.120606
H364	H	1.096878	1.394266	0.379394
H365	H	0.568346	0.491672	-0.688811
H366	H	1.068346	0.991672	-0.188811
C367	C	0.734792	0.216850	-0.411739
C368	C	1.234792	0.716850	0.088261
C369	C	0.709563	0.258533	-0.381232
C370	C	1.209563	0.758533	0.118768
H371	H	0.754295	0.184633	-0.395826
H372	H	1.254295	0.684633	0.104174
H373	H	0.751968	0.249212	-0.430038
H374	H	1.251968	0.749212	0.069962
H375	H	0.715221	0.188427	-0.430039
H376	H	1.215221	0.688427	0.069961
H377	H	0.729133	0.286960	-0.362934
H378	H	1.229133	0.786960	0.137066
H379	H	0.692385	0.226167	-0.362926
H380	H	1.192385	0.726167	0.137074
H381	H	0.597072	0.444325	-0.387890
H382	H	1.097072	0.944325	0.112110
H383	H	0.701381	0.272013	-0.473026
H384	H	1.201381	0.772013	0.026974
C385	C	0.703563	0.268292	-1.098252
C386	C	1.203563	0.768292	-0.598252
C387	C	0.709634	0.258278	-1.052120
C388	C	1.209634	0.758278	-0.552120
H389	H	0.723062	0.236057	-1.114179
H390	H	1.223062	0.736057	-0.614179
H391	H	0.710132	0.318183	-1.105935
H392	H	1.210132	0.818183	-0.605935
H393	H	0.673377	0.257413	-1.105930
H394	H	1.173377	0.757413	-0.605930
H395	H	0.739819	0.269162	-1.044441
H396	H	1.239819	0.769162	-0.544441
H397	H	0.703067	0.208375	-1.044434
H398	H	1.203067	0.708375	-0.544434
H399	H	0.597149	0.444094	-1.045402
H400	H	1.097149	0.944094	-0.545402
C401	C	0.359422	0.505477	-0.181292
C402	C	0.859422	1.005477	0.318708
C403	C	0.386384	0.457706	-0.156007
C404	C	0.886384	0.957706	0.343993
H405	H	0.343509	0.537672	-0.161756
H406	H	0.843509	1.037672	0.338244
H407	H	0.338734	0.477246	-0.198428
H408	H	0.838734	0.977246	0.301572
H409	H	0.377738	0.533918	-0.200833
H410	H	0.877738	1.033918	0.299167
H411	H	0.368067	0.429260	-0.136468
H412	H	0.868067	0.929260	0.363532
H413	H	0.407074	0.485939	-0.138864
H414	H	0.907074	0.985939	0.361136
H415	H	0.597133	0.444117	-0.960294
H416	H	1.097133	0.944117	-0.460294
H417	H	0.568331	0.491687	-0.603702
H418	H	1.068331	0.991687	-0.103702
H419	H	0.730155	0.224440	-0.744493
H420	H	1.230155	0.724440	-0.244493
H421	H	0.262344	0.491654	-0.135441
H422	H	0.762344	0.991654	0.364559
C423	C	0.713019	0.163163	-0.863269
C424	C	1.213019	0.663163	-0.363269
C425	C	0.738349	0.210875	-0.836295
C426	C	1.238349	0.710875	-0.336295
H427	H	0.732524	0.130936	-0.879194
H428	H	1.232524	0.630936	-0.379194
H429	H	0.695906	0.191435	-0.883946
H430	H	1.195906	0.691435	-0.383946
H431	H	0.693454	0.134753	-0.844960
H432	H	1.193454	0.634753	-0.344960
H433	H	0.757912	0.239289	-0.854605
H434	H	1.257912	0.739289	-0.354605
H435	H	0.755470	0.182600	-0.815616
H436	H	1.255470	0.682600	-0.315616
C437	C	-0.118025	0.217116	-0.302136
C438	C	0.381975	0.717116	0.197864
C439	C	-0.087523	0.258731	-0.276877
C440	C	0.412477	0.758731	0.223123
H441	H	-0.102108	0.184920	-0.321666
H442	H	0.397892	0.684920	0.178334
H443	H	-0.136316	0.249522	-0.319283
H444	H	0.363684	0.749522	0.180717
H445	H	-0.136332	0.188674	-0.282586
H446	H	0.363668	0.688674	0.217414
H447	H	-0.069217	0.287177	-0.296427
H448	H	0.430783	0.787177	0.203573
H449	H	-0.069224	0.226320	-0.259728
H450	H	0.430776	0.726320	0.240272
H451	H	0.121614	0.224762	-0.297452
H452	H	0.621614	0.724762	0.202548
C453	C	0.060333	0.169653	-0.330919
C454	C	0.560333	0.669653	0.169081
C455	C	0.029824	0.211278	-0.305659
C456	C	0.529824	0.711278	0.194341
H457	H	0.044421	0.137479	-0.350459
H458	H	0.544421	0.637479	0.149541
H459	H	0.078622	0.141193	-0.311374
H460	H	0.578622	0.641193	0.188626
H461	H	0.078642	0.202059	-0.348061
H462	H	0.578642	0.702059	0.151939
H463	H	0.011517	0.178871	-0.288514
H464	H	0.511517	0.678871	0.211486
H465	H	0.011527	0.239739	-0.325206
H466	H	0.511527	0.739739	0.174794
H467	H	0.393077	0.272088	-0.268651
H468	H	0.893077	0.772088	0.231349
H469	H	0.478177	0.444149	-0.164201
H470	H	0.978177	0.944149	0.335799
C471	C	0.531017	0.268570	-0.270769
C472	C	1.031017	0.768570	0.229231
C473	C	0.484884	0.258561	-0.276853
C474	C	0.984884	0.758561	0.223147
H475	H	0.546942	0.236394	-0.290306
H476	H	1.046942	0.736394	0.209694
H477	H	0.538692	0.257615	-0.240600
H478	H	1.038692	0.757615	0.259400
H479	H	0.538703	0.318488	-0.277283
H480	H	1.038703	0.818488	0.222717
H481	H	0.477196	0.208644	-0.270336
H482	H	0.977196	0.708644	0.229664
H483	H	0.477205	0.269510	-0.307029
H484	H	0.977205	0.769510	0.192971
C485	C	-0.212983	0.505632	-0.181328
C486	C	0.287017	1.005632	0.318672
C487	C	-0.186019	0.457880	-0.156032
C488	C	0.313981	0.957880	0.343968
H489	H	-0.228906	0.537824	-0.161800
H490	H	0.271094	1.037824	0.338200
H491	H	-0.233661	0.477387	-0.198467
H492	H	0.266339	0.977387	0.301533
H493	H	-0.194666	0.534077	-0.200867
H494	H	0.305334	1.034077	0.299133
H495	H	-0.204336	0.429430	-0.136495
H496	H	0.295664	0.929430	0.363505
H497	H	-0.165338	0.486127	-0.138886
H498	H	0.334662	0.986127	0.361114
C499	C	0.097762	0.546864	-0.101995
C500	C	0.597762	1.046864	0.398005
C501	C	0.128272	0.505231	-0.127249
C502	C	0.628272	1.005231	0.372751
H503	H	0.113674	0.579055	-0.082464
H504	H	0.613674	1.079055	0.417536
H505	H	0.079458	0.514470	-0.084847
H506	H	0.579458	1.014470	0.415153
H507	H	0.079469	0.575313	-0.121548
H508	H	0.579469	1.075313	0.378452
H509	H	0.146564	0.476777	-0.107696
H510	H	0.646564	0.976777	0.392304
H511	H	0.146584	0.537629	-0.144398
H512	H	0.646584	1.037629	0.355602
C513	C	0.315191	0.221227	-0.299567
C514	C	0.815191	0.721227	0.200433
C515	C	0.269058	0.211215	-0.305650
C516	C	0.769058	0.711215	0.194350
H517	H	0.331116	0.189049	-0.319102
H518	H	0.831116	0.689049	0.180898
H519	H	0.322867	0.210278	-0.269398
H520	H	0.822867	0.710278	0.230602
H521	H	0.322877	0.271144	-0.306084
H522	H	0.822877	0.771144	0.193916
H523	H	0.261371	0.161299	-0.299130
H524	H	0.761371	0.661299	0.200870
H525	H	0.261378	0.222159	-0.335827
H526	H	0.761378	0.722159	0.164173
C527	C	0.002827	0.553017	-0.152543
C528	C	0.502827	1.053017	0.347457
C529	C	0.029792	0.505257	-0.127255
C530	C	0.529792	1.005257	0.372745
H531	H	-0.013090	0.585211	-0.133011
H532	H	0.486910	1.085211	0.366989
H533	H	-0.017857	0.524779	-0.169679
H534	H	0.482143	1.024779	0.330321
H535	H	0.021141	0.581461	-0.172086
H536	H	0.521141	1.081461	0.327914
H537	H	0.011477	0.476809	-0.107715
H538	H	0.511477	0.976809	0.392285
H539	H	0.050479	0.533498	-0.110112
H540	H	0.550479	1.033498	0.389888
H541	H	0.177238	0.491680	-0.135446
H542	H	0.677238	0.991680	0.364554
