data_functionalizedCrystal
_audit_creation_method	'MofGen! by Chris Wilmer'
_symmetry_space_group_name_H-M	'P1'
_symmetry_Int_Tables_number	1
_symmetry_cell_setting	triclinic
loop_
_symmetry_equiv_pos_as_xyz
  x,y,z
_cell_length_a	10.489741
_cell_length_b	18.266242
_cell_length_c	10.489741
_cell_angle_alpha	89.993983
_cell_angle_beta	95.460826
_cell_angle_gamma	90.006327
loop_
_atom_site_label
_atom_site_type_symbol
_atom_site_fract_x
_atom_site_fract_y
_atom_site_fract_z
O1	O	1.694062	0.060835	-0.179970
O2	O	1.322866	0.060847	-0.196863
O3	O	1.516910	0.060836	-0.002819
O4	O	1.500018	0.060846	-0.374014
O5	O	1.516877	-0.060926	-0.002808
O6	O	1.322833	-0.060915	-0.196852
O7	O	1.694029	-0.060927	-0.179960
Zn8	Zn	1.508425	-0.080253	-0.188404
Zn9	Zn	1.508469	0.080173	-0.188418
O10	O	1.499984	-0.060916	-0.374004
C11	C	1.275318	-0.000033	-0.195582
C12	C	1.133688	-0.000029	-0.191765
N13	N	1.508405	-0.189740	-0.188394
C14	C	1.065548	-0.000039	-0.068300
C15	C	0.973438	0.059996	-0.126629
C16	C	0.973439	-0.060052	-0.126648
C17	C	1.043443	0.060056	-0.250144
C18	C	1.043454	-0.060046	-0.250146
C19	C	0.951371	0.000004	-0.308564
C20	C	1.594356	-0.228054	-0.102514
C21	C	1.594365	-0.304699	-0.102508
C22	C	1.508433	-0.343027	-0.188405
C23	C	1.422465	-0.304705	-0.274291
C24	C	1.422451	-0.228061	-0.274286
N25	N	1.493234	-0.463356	-0.301127
N26	N	1.493255	-0.536165	-0.301128
C27	C	1.508469	-0.573950	-0.188424
N28	N	1.523687	-0.536176	-0.075715
N29	N	1.523672	-0.463361	-0.075715
C30	C	1.508439	-0.426134	-0.188419
C31	C	1.594434	-0.695370	-0.102530
C32	C	1.594434	-0.772017	-0.102523
C33	C	1.422541	-0.772021	-0.274316
C34	C	1.422535	-0.695376	-0.274313
C35	C	1.508489	-0.657055	-0.188421
C36	C	1.741577	-0.000046	-0.181241
C37	C	1.883206	-0.000045	-0.185058
C38	C	1.515618	-0.000044	0.044718
C39	C	1.511801	-0.000043	0.186348
N40	N	1.508500	0.189660	-0.188418
C41	C	1.501277	-0.000034	-0.421541
C42	C	1.505094	-0.000031	-0.563170
C43	C	1.388336	-0.000034	0.254488
C44	C	1.446643	-0.060070	0.346615
C45	C	1.446705	0.059977	0.346580
C46	C	1.570159	-0.060129	0.276610
C47	C	1.570204	0.059973	0.276565
C48	C	1.628600	-0.000079	0.368665
H49	H	1.115238	0.000034	0.033196
N50	N	1.084555	-0.127286	-0.319264
H51	H	1.180525	-0.126536	-0.322059
H52	H	1.041239	-0.127733	-0.409467
H53	H	1.664422	-0.803212	-0.032582
N54	N	0.932379	-0.127283	-0.057425
H55	H	0.974321	-0.127228	0.033327
H56	H	0.959079	-0.172589	-0.103240
H57	H	1.622340	-0.110942	0.245782
H58	H	1.664359	-0.335899	-0.032572
H59	H	1.352569	-0.803227	-0.344250
N60	N	1.763180	-0.000120	0.434140
H61	H	1.809620	-0.045487	0.408706
H62	H	1.759767	0.000340	0.530033
H63	H	0.942437	0.110750	-0.074392
N64	N	1.639373	0.127201	0.235435
H65	H	1.592670	0.172530	0.260613
H66	H	1.642154	0.126376	0.139470
N67	N	1.687055	-0.186722	-0.009874
H68	H	1.741506	-0.222629	0.044533
H69	H	1.637703	-0.154935	0.047002
H70	H	1.352550	-0.664179	-0.344250
H71	H	1.352497	-0.335915	-0.344227
N72	N	1.329744	-0.186740	-0.366930
H73	H	1.378997	-0.154931	-0.423887
H74	H	1.272839	-0.154992	-0.317541
N75	N	1.687131	-0.654032	-0.009893
H76	H	1.741578	-0.689936	0.044522
H77	H	1.637780	-0.622240	0.046977
H78	H	1.286824	-0.000091	0.204837
H79	H	1.074285	0.110868	-0.302348
H80	H	1.394463	0.110739	0.377539
H81	H	1.394389	-0.110824	0.377631
N82	N	0.885884	0.000044	-0.443139
H83	H	0.952541	0.000499	-0.506560
H84	H	0.830040	0.044971	-0.456111
