data_functionalizedCrystal
_audit_creation_method	'MofGen! by Chris Wilmer'
_symmetry_space_group_name_H-M	'P1'
_symmetry_Int_Tables_number	1
_symmetry_cell_setting	triclinic
loop_
_symmetry_equiv_pos_as_xyz
  x,y,z
_cell_length_a	12.827893
_cell_length_b	13.032721
_cell_length_c	12.827885
_cell_angle_alpha	97.149059
_cell_angle_beta	89.980728
_cell_angle_gamma	97.204243
loop_
_atom_site_label
_atom_site_type_symbol
_atom_site_fract_x
_atom_site_fract_y
_atom_site_fract_z
Zn1	Zn	1.544800	-0.415987	-0.643639
Zn2	Zn	2.044800	0.084013	-0.143639
Zn3	Zn	1.522480	-0.590766	-0.491081
Zn4	Zn	2.022480	-0.090766	0.008919
Zn5	Zn	1.370035	-0.416038	-0.468919
Zn6	Zn	1.870035	0.083962	0.031081
Zn7	Zn	1.347823	-0.590688	-0.665772
Zn8	Zn	1.847823	-0.090688	-0.165772
O9	O	1.446284	-0.503370	-0.567353
O10	O	1.946284	-0.003370	-0.067353
O11	O	1.688074	-0.439183	-0.623413
O12	O	2.188074	0.060817	-0.123413
O13	O	1.502212	-0.567642	-0.341912
O14	O	2.002212	-0.067642	0.158088
O15	O	1.411855	-0.269794	-0.473559
O16	O	1.911855	0.230206	0.026441
O17	O	1.671675	-0.567593	-0.511330
O18	O	2.171675	-0.067593	-0.011330
O19	O	1.540254	-0.269756	-0.601924
O20	O	2.040254	0.230244	-0.101924
O21	O	1.390211	-0.439270	-0.325630
O22	O	1.890211	0.060730	0.174370
O23	O	1.220854	-0.439194	-0.495020
O24	O	1.720854	0.060806	0.004980
O25	O	1.373998	-0.567460	-0.809065
O26	O	1.873998	-0.067460	-0.309065
O27	O	1.204535	-0.567509	-0.639647
O28	O	1.704535	-0.067509	-0.139647
O29	O	1.518716	-0.439108	-0.792804
O30	O	2.018716	0.060892	-0.292804
O31	O	1.480674	-0.736993	-0.532792
O32	O	1.980674	-0.236993	-0.032792
O33	O	1.352354	-0.736936	-0.661136
O34	O	1.852354	-0.236936	-0.161136
C35	C	1.174777	-0.503350	-0.567331
C36	C	1.674777	-0.003350	-0.067331
C37	C	1.058622	-0.503366	-0.567350
C38	C	1.558622	-0.003366	-0.067350
C39	C	0.998735	-0.566810	-0.511791
C40	C	1.498735	-0.066810	-0.011791
C41	C	0.878682	-0.566828	-0.511809
C42	C	1.378682	-0.066828	-0.011809
C43	C	1.411710	-0.774882	-0.601793
C44	C	1.911710	-0.274882	-0.101793
C45	C	1.397015	-0.891037	-0.616562
C46	C	1.897015	-0.391037	-0.116562
C47	C	1.454009	-0.942815	-0.559692
C48	C	1.954009	-0.442815	-0.059692
C49	C	1.438823	-1.062867	-0.574955
C50	C	1.938823	-0.562867	-0.074955
C51	C	1.718852	-0.503391	-0.567375
C52	C	2.218852	-0.003391	-0.067375
C53	C	1.835004	-0.503400	-0.567384
C54	C	2.335004	-0.003400	-0.067384
C55	C	1.446369	-0.503270	-0.839910
C56	C	1.946369	-0.003270	-0.339910
C57	C	1.446405	-0.503227	-0.956058
C58	C	1.946405	-0.003227	-0.456058
C59	C	1.481022	-0.230797	-0.532800
C60	C	1.981022	0.269203	-0.032800
C61	C	1.495825	-0.114643	-0.518076
C62	C	1.995825	0.385357	-0.018076
C63	C	1.501873	-0.566678	-1.135935
C64	C	2.001873	-0.066678	-0.635935
C65	C	1.501837	-0.566723	-1.015890
C66	C	2.001837	-0.066723	-0.515890
C67	C	1.446270	-0.503394	-0.295846
C68	C	1.946270	-0.003394	0.204154
C69	C	1.446473	-0.503143	-0.179661
C70	C	1.946473	-0.003143	0.320339
H71	H	0.886468	-0.449076	-0.614948
H72	H	1.386468	0.050924	-0.114948
H73	H	0.827213	-0.621142	-0.464240
H74	H	1.327213	-0.121142	0.035760
C75	C	0.937618	-0.489147	-0.706038
C76	C	1.437618	0.010853	-0.206038
C77	C	1.007863	-0.430057	-0.631585
C78	C	1.507863	0.069943	-0.131585
H79	H	0.906280	-0.443885	-0.745690
H80	H	1.406280	0.056115	-0.245690
H81	H	0.974429	-0.534668	-0.751742
H82	H	1.474429	-0.034668	-0.251742
H83	H	0.884496	-0.528950	-0.671172
H84	H	1.384496	-0.028950	-0.171172
H85	H	1.060990	-0.390259	-0.666452
H86	H	1.560990	0.109741	-0.166452
H87	H	0.971051	-0.384517	-0.585876
H88	H	1.471051	0.115483	-0.085876
H89	H	1.036342	-0.621115	-0.464215
H90	H	1.536342	-0.121115	0.035785
H91	H	1.514053	-0.898270	-0.499707
H92	H	2.014053	-0.398270	0.000293
H93	H	1.555872	-1.070100	-0.458087
H94	H	2.055872	-0.570100	0.041913
H95	H	1.549324	-0.621043	-1.187373
H96	H	2.049324	-0.121043	-0.687373
H97	H	1.549271	-0.621114	-0.978255
H98	H	2.049271	-0.121114	-0.478255
H99	H	1.378784	-1.107411	-0.634951
H100	H	1.878784	-0.607411	-0.134951
H101	H	1.398978	-0.448825	-0.993685
H102	H	1.898978	0.051175	-0.493685
C103	C	1.316604	-1.058453	-0.696990
C104	C	1.816604	-0.558453	-0.196990
C105	C	1.315961	-0.951164	-0.697547
C106	C	1.815961	-0.451164	-0.197547
H107	H	1.266559	-1.095568	-0.746985
H108	H	1.766559	-0.595568	-0.246985
H109	H	1.384571	-1.076209	-0.714591
H110	H	1.884571	-0.576209	-0.214591
H111	H	1.299101	-1.076344	-0.629018
H112	H	1.799101	-0.576344	-0.129018
H113	H	1.333472	-0.933271	-0.765517
H114	H	1.833472	-0.433271	-0.265517
H115	H	1.247979	-0.933400	-0.679952
H116	H	1.747979	-0.433400	-0.179952
C117	C	1.307821	-0.488775	-1.054949
C118	C	1.807821	0.011225	-0.554949
C119	C	1.382405	-0.429754	-1.110231
C120	C	1.882405	0.070246	-0.610231
H121	H	1.268273	-0.443464	-1.012084
H122	H	1.768273	0.056536	-0.512084
H123	H	1.262029	-0.534235	-1.103292
H124	H	1.762029	-0.034235	-0.603292
H125	H	1.342586	-0.528639	-1.011966
H126	H	1.842586	-0.028639	-0.511966
H127	H	1.347640	-0.389896	-1.153221
H128	H	1.847640	0.110104	-0.653221
H129	H	1.428203	-0.384275	-1.061883
H130	H	1.928203	0.115725	-0.561883
