data_functionalizedCrystal
_audit_creation_method	'MofGen! by Chris Wilmer'
_symmetry_space_group_name_H-M	'P1'
_symmetry_Int_Tables_number	1
_symmetry_cell_setting	triclinic
loop_
_symmetry_equiv_pos_as_xyz
  x,y,z
_cell_length_a	12.811438
_cell_length_b	16.109301
_cell_length_c	15.186229
_cell_angle_alpha	90.005167
_cell_angle_beta	84.565184
_cell_angle_gamma	96.246481
loop_
_atom_site_label
_atom_site_type_symbol
_atom_site_fract_x
_atom_site_fract_y
_atom_site_fract_z
O1	O	1.392636	-0.111984	-0.184438
O2	O	1.087047	-0.124160	-0.160038
O3	O	1.248236	0.002928	-0.172899
O4	O	1.231447	-0.239072	-0.171576
O5	O	1.248226	0.002930	-0.026441
O6	O	1.087037	-0.124158	-0.013580
O7	O	1.392625	-0.111982	-0.037980
Zn8	Zn	1.239829	-0.118070	-0.002526
Zn9	Zn	1.239843	-0.118072	-0.195491
O10	O	1.231436	-0.239070	-0.025118
C11	C	1.047938	-0.123477	-0.083686
C12	C	0.931421	-0.121433	-0.074383
C13	C	0.767189	-0.118553	0.018560
C14	C	0.876668	-0.120473	0.009822
C15	C	0.876688	-0.120476	-0.149855
C16	C	0.767209	-0.118555	-0.141117
C17	C	0.712464	-0.117593	-0.056907
C18	C	0.602985	-0.115666	-0.048170
C19	C	0.603006	-0.115675	-0.207847
C20	C	0.712484	-0.117595	-0.216584
C21	C	1.247551	0.033907	-0.099615
C22	C	1.245512	0.126209	-0.099451
C23	C	1.431735	-0.112665	-0.114333
C24	C	1.548252	-0.114708	-0.123643
C25	C	1.232122	-0.270048	-0.098404
C26	C	1.234161	-0.362351	-0.098574
N27	N	1.239827	-0.118068	0.129167
C28	C	1.336417	0.348148	-0.106724
C29	C	1.334493	0.434875	-0.106577
C30	C	1.143248	0.415704	-0.091304
C31	C	1.145173	0.328978	-0.091456
C32	C	1.241761	0.295202	-0.099162
C33	C	1.237912	0.468656	-0.098863
C34	C	1.235825	0.562689	-0.098704
C35	C	1.243848	0.201163	-0.099323
N36	N	1.239854	-0.118068	-0.327185
C37	C	1.311226	-0.061812	0.349192
C38	C	1.311229	-0.061810	0.441382
C39	C	1.168447	-0.174326	0.452784
C40	C	1.168440	-0.174323	0.360596
C41	C	1.239835	-0.118067	0.308803
C42	C	1.239846	-0.118068	0.493179
C43	C	1.239849	-0.118066	0.593135
C44	C	1.239831	-0.118068	0.208840
H45	H	0.921279	-0.121267	-0.218415
C46	C	1.089929	-0.236210	0.509758
H47	H	1.100164	-0.228162	0.570446
H48	H	1.019883	-0.226911	0.500255
H49	H	1.101316	-0.291744	0.493729
H50	H	1.110300	-0.220133	0.327709
C51	C	0.772704	-0.118655	-0.309210
H52	H	0.724428	-0.117813	-0.352904
H53	H	0.823436	-0.070982	-0.316575
H54	H	0.807385	-0.167838	-0.315300
C55	C	1.389763	0.000068	0.485807
H56	H	1.432284	0.033565	0.441754
H57	H	1.352028	0.034826	0.524791
H58	H	1.433446	-0.030018	0.518272
C59	C	0.542765	-0.114612	0.044456
H60	H	0.591040	-0.115468	0.088149
H61	H	0.508076	-0.065439	0.050553
H62	H	0.492039	-0.162295	0.051816
H63	H	1.415065	0.320651	-0.113000
H64	H	0.558437	-0.114896	-0.269298
H65	H	0.921220	-0.121257	0.071276
H66	H	1.369359	-0.016004	0.307024
H67	H	1.068087	0.285867	-0.085301
C68	C	1.438616	0.493112	-0.114889
H69	H	1.496411	0.460572	-0.119494
H70	H	1.441848	0.527337	-0.166221
H71	H	1.441834	0.527346	-0.064068
C72	C	1.037010	0.452860	-0.082816
H73	H	1.049419	0.512094	-0.083798
H74	H	0.998033	0.434706	-0.130773
H75	H	0.998041	0.434711	-0.028622
H76	H	0.722614	-0.117774	0.087127
