data_functionalizedCrystal
_audit_creation_method	'MofGen! by Chris Wilmer'
_symmetry_space_group_name_H-M	'P1'
_symmetry_Int_Tables_number	1
_symmetry_cell_setting	triclinic
loop_
_symmetry_equiv_pos_as_xyz
  x,y,z
_cell_length_a	19.121241
_cell_length_b	19.121063
_cell_length_c	19.120904
_cell_angle_alpha	94.741613
_cell_angle_beta	89.875472
_cell_angle_gamma	95.003121
loop_
_atom_site_label
_atom_site_type_symbol
_atom_site_fract_x
_atom_site_fract_y
_atom_site_fract_z
Zn1	Zn	1.043557	-0.254510	-0.452551
Zn2	Zn	1.293557	-0.004510	-0.202551
Zn3	Zn	1.543557	0.245490	0.047449
Zn4	Zn	1.793557	0.495490	0.297449
Zn5	Zn	1.043470	-0.367161	-0.339898
Zn6	Zn	1.293470	-0.117161	-0.089898
Zn7	Zn	1.543470	0.132839	0.160102
Zn8	Zn	1.793470	0.382839	0.410102
Zn9	Zn	0.931342	-0.254092	-0.330304
Zn10	Zn	1.181342	-0.004092	-0.080304
Zn11	Zn	1.431342	0.245908	0.169696
Zn12	Zn	1.681342	0.495908	0.419696
Zn13	Zn	0.920835	-0.377147	-0.452491
Zn14	Zn	1.170835	-0.127147	-0.202491
Zn15	Zn	1.420835	0.122853	0.047509
Zn16	Zn	1.670835	0.372853	0.297509
O17	O	0.984801	-0.313228	-0.393811
O18	O	1.234801	-0.063228	-0.143811
O19	O	1.484801	0.186772	0.106189
O20	O	1.734801	0.436772	0.356189
O21	O	1.141831	-0.265449	-0.441648
O22	O	1.391831	-0.015449	-0.191648
O23	O	1.641831	0.234551	0.058352
O24	O	1.891831	0.484551	0.308352
O25	O	1.032957	-0.347808	-0.240344
O26	O	1.282957	-0.097808	0.009656
O27	O	1.532957	0.152192	0.259656
O28	O	1.782957	0.402192	0.509656
O29	O	0.950661	-0.155504	-0.342530
O30	O	1.200661	0.094496	-0.092530
O31	O	1.450661	0.344496	0.157470
O32	O	1.700661	0.594496	0.407470
O33	O	1.141767	-0.348213	-0.358882
O34	O	1.391767	-0.098213	-0.108882
O35	O	1.641767	0.151787	0.141118
O36	O	1.891767	0.401787	0.391118
O37	O	1.033105	-0.155811	-0.432344
O38	O	1.283105	0.094189	-0.182344
O39	O	1.533105	0.344189	0.067656
O40	O	1.783105	0.594189	0.317656
O41	O	0.950577	-0.264736	-0.233295
O42	O	1.200577	-0.014736	0.016705
O43	O	1.450577	0.235264	0.266705
O44	O	1.700577	0.485264	0.516705
O45	O	0.831663	-0.274420	-0.342472
O46	O	1.081663	-0.024420	-0.092472
O47	O	1.331663	0.225580	0.157528
O48	O	1.581663	0.475580	0.407528
O49	O	0.932754	-0.365234	-0.550781
O50	O	1.182754	-0.115234	-0.300781
O51	O	1.432754	0.134766	-0.050781
O52	O	1.682754	0.384766	0.199219
O53	O	0.823943	-0.364828	-0.432242
O54	O	1.073943	-0.114828	-0.182242
O55	O	1.323943	0.135172	0.067758
O56	O	1.573943	0.385172	0.317758
O57	O	1.022917	-0.275133	-0.550825
O58	O	1.272917	-0.025133	-0.300825
O59	O	1.522917	0.224867	-0.050825
O60	O	1.772917	0.474867	0.199175
O61	O	1.022769	-0.467129	-0.358824
O62	O	1.272769	-0.217129	-0.108824
O63	O	1.522769	0.032871	0.141176
O64	O	1.772769	0.282871	0.391176
O65	O	0.932669	-0.474466	-0.441546
O66	O	1.182669	-0.224466	-0.191546
O67	O	1.432669	0.025534	0.058454
O68	O	1.682669	0.275534	0.308454
C69	C	0.802319	-0.320663	-0.386310
C70	C	1.052319	-0.070663	-0.136310
C71	C	1.302319	0.179337	0.113690
C72	C	1.552319	0.429337	0.363690
C73	C	0.724250	-0.323861	-0.383118
C74	C	0.974250	-0.073861	-0.133118
C75	C	1.224250	0.176139	0.116882
C76	C	1.474250	0.426139	0.366882
C77	C	0.687602	-0.282348	-0.424782
C78	C	0.937602	-0.032348	-0.174782
C79	C	1.187602	0.217652	0.075218
C80	C	1.437602	0.467652	0.325218
C81	C	0.614249	-0.285349	-0.421777
C82	C	0.864249	-0.035349	-0.171777
C83	C	1.114249	0.214651	0.078223
C84	C	1.364249	0.464651	0.328223
C85	C	0.577546	-0.329869	-0.377111
C86	C	0.827546	-0.079869	-0.127111
C87	C	1.077546	0.170131	0.122889
C88	C	1.327546	0.420131	0.372889
C89	C	0.614200	-0.371384	-0.335443
C90	C	0.864200	-0.121384	-0.085443
C91	C	1.114200	0.128616	0.164557
C92	C	1.364200	0.378616	0.414557
C93	C	0.687552	-0.368378	-0.338445
C94	C	0.937552	-0.118378	-0.088445
C95	C	1.187552	0.131622	0.161555
C96	C	1.437552	0.381622	0.411555
C97	C	0.356069	-0.341093	-0.365885
C98	C	0.606069	-0.091093	-0.115885
C99	C	0.856069	0.158907	0.134115
C100	C	1.106069	0.408907	0.384115
C101	C	0.282712	-0.344097	-0.362887
C102	C	0.532712	-0.094097	-0.112887
C103	C	0.782712	0.155903	0.137113
C104	C	1.032712	0.405903	0.387113
C105	C	0.282766	-0.258061	-0.449221
C106	C	0.532766	-0.008061	-0.199221
C107	C	0.782766	0.241939	0.050779
C108	C	1.032766	0.491939	0.300779
C109	C	0.356119	-0.255063	-0.452222
C110	C	0.606119	-0.005063	-0.202222
C111	C	0.856119	0.244937	0.047778
C112	C	1.106119	0.494937	0.297778
C113	C	0.392767	-0.296575	-0.410551
C114	C	0.642767	-0.046575	-0.160551
C115	C	0.892767	0.203425	0.089449
C116	C	1.142767	0.453425	0.339449
C117	C	0.502567	-0.332939	-0.374040
C118	C	0.752567	-0.082939	-0.124040
C119	C	1.002567	0.167061	0.125960
C120	C	1.252567	0.417061	0.375960
C121	C	0.467744	-0.293500	-0.413619
C122	C	0.717744	-0.043500	-0.163619
C123	C	0.967744	0.206500	0.086381
C124	C	1.217744	0.456500	0.336381
C125	C	0.976588	-0.496375	-0.401236
C126	C	1.226588	-0.246375	-0.151236
C127	C	1.476588	0.003625	0.098764
C128	C	1.726588	0.253625	0.348764
C129	C	0.973137	-0.574724	-0.404438
C130	C	1.223137	-0.324724	-0.154438
C131	C	1.473137	-0.074724	0.095562
C132	C	1.723137	0.175276	0.345562
C133	C	1.018459	-0.607690	-0.362913
C134	C	1.268459	-0.357690	-0.112913
C135	C	1.518459	-0.107690	0.137087
C136	C	1.768459	0.142310	0.387087
C137	C	1.015218	-0.681308	-0.365929
C138	C	1.265218	-0.431308	-0.115929
C139	C	1.515218	-0.181308	0.134071
C140	C	1.765218	0.068692	0.384071
C141	C	0.966651	-0.721959	-0.410467
C142	C	1.216651	-0.471959	-0.160467
C143	C	1.466651	-0.221959	0.089533
C144	C	1.716651	0.028041	0.339533
C145	C	0.921327	-0.688989	-0.451998
C146	C	1.171327	-0.438989	-0.201998
C147	C	1.421327	-0.188989	0.048002
C148	C	1.671327	0.061011	0.298002
C149	C	0.924572	-0.615372	-0.448985
C150	C	1.174572	-0.365372	-0.198985
C151	C	1.424572	-0.115372	0.051015
C152	C	1.674572	0.134628	0.301015
C153	C	0.954507	-0.944426	-0.421721
C154	C	1.204507	-0.694426	-0.171721
C155	C	1.454507	-0.444426	0.078279
C156	C	1.704507	-0.194426	0.328279
C157	C	0.951264	-1.018048	-0.424729
C158	C	1.201264	-0.768048	-0.174729
C159	C	1.451264	-0.518048	0.075271
C160	C	1.701264	-0.268048	0.325271
C161	C	1.045157	-1.010363	-0.338661
C162	C	1.295157	-0.760363	-0.088661
C163	C	1.545157	-0.510363	0.161339
C164	C	1.795157	-0.260363	0.411339
C165	C	1.048395	-0.936745	-0.335649
C166	C	1.298395	-0.686745	-0.085649
C167	C	1.548395	-0.436745	0.164351
C168	C	1.798395	-0.186745	0.414351
C169	C	1.003073	-0.903781	-0.377182
C170	C	1.253073	-0.653781	-0.127182
C171	C	1.503073	-0.403781	0.122818
C172	C	1.753073	-0.153781	0.372818
C173	C	0.963335	-0.797209	-0.413550
C174	C	1.213335	-0.547209	-0.163550
C175	C	1.463335	-0.297209	0.086450
C176	C	1.713335	-0.047209	0.336450
C177	C	1.006393	-0.828532	-0.374103
C178	C	1.256393	-0.578532	-0.124103
C179	C	1.506393	-0.328532	0.125897
C180	C	1.756393	-0.078532	0.375897
C181	C	1.167996	-0.305764	-0.401342
C182	C	1.417996	-0.055764	-0.151342
C183	C	1.667996	0.194236	0.098658
C184	C	1.917996	0.444236	0.348658
C185	C	1.246063	-0.302584	-0.404551
C186	C	1.496063	-0.052584	-0.154551
C187	C	1.746063	0.197416	0.095449
C188	C	1.996063	0.447416	0.345449
C189	C	0.976673	-0.321344	-0.576998
C190	C	1.226673	-0.071344	-0.326998
C191	C	1.476673	0.178656	-0.076998
C192	C	1.726673	0.428656	0.173002
C193	C	0.973209	-0.324803	-0.655062
C194	C	1.223209	-0.074803	-0.405062
C195	C	1.473209	0.175197	-0.155062
C196	C	1.723209	0.425197	0.094938
C197	C	0.993065	-0.129365	-0.386373
C198	C	1.243065	0.120635	-0.136373
C199	C	1.493065	0.370635	0.113627
C200	C	1.743065	0.620635	0.363627
C201	C	0.996587	-0.051014	-0.383204
C202	C	1.246587	0.198986	-0.133204
C203	C	1.496587	0.448986	0.116796
C204	C	1.746587	0.698986	0.366796
C205	C	1.018523	-0.279519	-0.691760
C206	C	1.268523	-0.029519	-0.441760
C207	C	1.518523	0.220481	-0.191760
C208	C	1.768523	0.470481	0.058240
C209	C	1.015260	-0.282766	-0.765109
C210	C	1.265260	-0.032766	-0.515109
C211	C	1.515260	0.217234	-0.265109
C212	C	1.765260	0.467234	-0.015109
C213	C	0.966686	-0.331301	-0.801758
C214	C	1.216686	-0.081301	-0.551758
C215	C	1.466686	0.168699	-0.301758
C216	C	1.716686	0.418699	-0.051758
C217	C	0.921368	-0.376587	-0.765054
C218	C	1.171368	-0.126587	-0.515054
C219	C	1.421368	0.123413	-0.265054
C220	C	1.671368	0.373413	-0.015054
C221	C	0.924628	-0.373336	-0.691707
C222	C	1.174628	-0.123336	-0.441707
C223	C	1.424628	0.126664	-0.191707
C224	C	1.674628	0.376664	0.058293
C225	C	0.954491	-0.343462	-1.023219
C226	C	1.204491	-0.093462	-0.773219
C227	C	1.454491	0.156538	-0.523219
C228	C	1.704491	0.406538	-0.273219
C229	C	0.951236	-0.346711	-1.096572
C230	C	1.201236	-0.096711	-0.846572
C231	C	1.451236	0.153289	-0.596572
C232	C	1.701236	0.403289	-0.346572
C233	C	1.045127	-0.252889	-1.096621
C234	C	1.295127	-0.002889	-0.846621
C235	C	1.545127	0.247111	-0.596621
C236	C	1.795127	0.497111	-0.346621
C237	C	1.048386	-0.249645	-1.023272
C238	C	1.298386	0.000355	-0.773272
C239	C	1.548386	0.250355	-0.523272
C240	C	1.798386	0.500355	-0.273272
C241	C	1.003065	-0.294928	-0.986575
C242	C	1.253065	-0.044928	-0.736575
C243	C	1.503065	0.205072	-0.486575
C244	C	1.753065	0.455072	-0.236575
C245	C	0.963351	-0.334623	-0.876732
C246	C	1.213351	-0.084623	-0.626732
C247	C	1.463351	0.165377	-0.376732
C248	C	1.713351	0.415377	-0.126732
C249	C	1.006397	-0.291602	-0.911602
C250	C	1.256397	-0.041602	-0.661602
C251	C	1.506397	0.208398	-0.411602
C252	C	1.756397	0.458398	-0.161602
C253	C	0.992940	-0.305090	-0.211336
C254	C	1.242940	-0.055090	0.038664
C255	C	1.492940	0.194910	0.288664
C256	C	1.742940	0.444910	0.538664
C257	C	0.996549	-0.301428	-0.133270
C258	C	1.246549	-0.051428	0.116730
C259	C	1.496549	0.198572	0.366730
C260	C	1.746549	0.448572	0.616730
H261	H	0.717480	-0.246097	-0.461155
H262	H	0.967480	0.003903	-0.211155
H263	H	1.217480	0.253903	0.038845
H264	H	1.467480	0.503903	0.288845
H265	H	0.917597	-0.380345	-0.993349
H266	H	1.167597	-0.130345	-0.743349
H267	H	1.417597	0.119655	-0.493349
H268	H	1.667597	0.369655	-0.243349
H269	H	0.881785	-0.722093	-0.488265
H270	H	1.131785	-0.472093	-0.238265
H271	H	1.381785	-0.222093	0.011735
H272	H	1.631785	0.027907	0.261735
H273	H	1.082056	-1.037210	-0.304849
H274	H	1.332056	-0.787210	-0.054849
H275	H	1.582056	-0.537210	0.195151
H276	H	1.832056	-0.287210	0.445151
H277	H	1.087942	-0.903648	-0.299382
H278	H	1.337942	-0.653648	-0.049382
H279	H	1.587942	-0.403648	0.200618
H280	H	1.837942	-0.153648	0.450618
H281	H	0.584311	-0.407629	-0.299072
H282	H	0.834311	-0.157629	-0.049072
H283	H	1.084311	0.092371	0.200928
H284	H	1.334311	0.342371	0.450928
H285	H	0.911723	-1.051145	-0.461011
H286	H	1.161723	-0.801145	-0.211011
H287	H	1.411723	-0.551145	0.038989
H288	H	1.661723	-0.301145	0.288989
H289	H	0.917604	-0.917593	-0.455537
H290	H	1.167604	-0.667593	-0.205537
H291	H	1.417604	-0.417593	0.044463
H292	H	1.667604	-0.167593	0.294463
H293	H	1.052160	-0.245893	-0.794986
H294	H	1.302160	0.004107	-0.544986
H295	H	1.552160	0.254107	-0.294986
H296	H	1.802160	0.504107	-0.044986
H297	H	0.887667	-0.588532	-0.482800
H298	H	1.137667	-0.338532	-0.232800
H299	H	1.387667	-0.088532	0.017200
H300	H	1.637667	0.161468	0.267200
H301	H	0.923805	-0.374144	-0.906580
H302	H	1.173805	-0.124144	-0.656580
H303	H	1.423805	0.125856	-0.406580
H304	H	1.673805	0.375856	-0.156580
H305	H	0.497631	-0.257250	-0.449982
H306	H	0.747631	-0.007250	-0.199982
H307	H	0.997631	0.242750	0.050018
H308	H	1.247631	0.492750	0.300018
H309	H	1.045939	-0.795432	-0.337842
H310	H	1.295939	-0.545432	-0.087842
H311	H	1.545939	-0.295432	0.162158
H312	H	1.795939	-0.045432	0.412158
H313	H	0.385997	-0.218813	-0.488596
H314	H	0.635997	0.031187	-0.238596
H315	H	0.885997	0.281187	0.011404
H316	H	1.135997	0.531187	0.261404
H317	H	0.252919	-0.224264	-0.483146
H318	H	0.502919	0.025736	-0.233146
H319	H	0.752919	0.275736	0.016854
H320	H	1.002919	0.525736	0.266854
H321	H	1.052124	-0.708145	-0.332114
H322	H	1.302124	-0.458145	-0.082114
H323	H	1.552124	-0.208145	0.167886
H324	H	1.802124	0.041855	0.417886
H325	H	1.082024	-0.216022	-1.126508
H326	H	1.332024	0.033978	-0.876508
H327	H	1.582024	0.283978	-0.626508
H328	H	1.832024	0.533978	-0.376508
H329	H	0.472675	-0.369187	-0.337673
H330	H	0.722675	-0.119187	-0.087673
H331	H	0.972675	0.130813	0.162327
H332	H	1.222675	0.380813	0.412327
H333	H	0.923790	-0.830315	-0.449812
H334	H	1.173790	-0.580315	-0.199812
H335	H	1.423790	-0.330315	0.050188
H336	H	1.673790	-0.080315	0.300188
H337	H	0.252830	-0.380353	-0.326515
H338	H	0.502830	-0.130353	-0.076515
H339	H	0.752830	0.119647	0.173485
H340	H	1.002830	0.369647	0.423485
H341	H	1.045943	-0.252083	-0.881759
H342	H	1.295943	-0.002083	-0.631759
H343	H	1.545943	0.247917	-0.381759
H344	H	1.795943	0.497917	-0.131759
H345	H	0.887722	-0.410204	-0.661827
H346	H	1.137722	-0.160204	-0.411827
H347	H	1.387722	0.089796	-0.161827
H348	H	1.637722	0.339796	0.088173
H349	H	1.058079	-0.239998	-0.661926
H350	H	1.308079	0.010002	-0.411926
H351	H	1.558079	0.260002	-0.161926
H352	H	1.808079	0.510002	0.088074
H353	H	0.385899	-0.374896	-0.331954
H354	H	0.635899	-0.124896	-0.081954
H355	H	0.885899	0.125104	0.168046
H356	H	1.135899	0.375104	0.418046
H357	H	1.087941	-0.210125	-0.993438
H358	H	1.337941	0.039875	-0.743438
H359	H	1.587941	0.289875	-0.493438
H360	H	1.837941	0.539875	-0.243438
H361	H	0.881815	-0.416103	-0.794900
H362	H	1.131815	-0.166103	-0.544900
H363	H	1.381815	0.083897	-0.294900
H364	H	1.631815	0.333897	-0.044900
H365	H	0.911679	-0.386236	-1.126409
H366	H	1.161679	-0.136236	-0.876409
H367	H	1.411679	0.113764	-0.626409
H368	H	1.661679	0.363764	-0.376409
H369	H	0.584412	-0.251546	-0.455705
H370	H	0.834412	-0.001546	-0.205705
H371	H	1.084412	0.248454	0.044295
H372	H	1.334412	0.498454	0.294295
H373	H	1.058005	-0.574597	-0.326641
H374	H	1.308005	-0.324597	-0.076641
H375	H	1.558005	-0.074597	0.173359
H376	H	1.808005	0.175403	0.423359
H377	H	0.717390	-0.402182	-0.304517
H378	H	0.967390	-0.152182	-0.054517
H379	H	1.217390	0.097818	0.195483
H380	H	1.467390	0.347818	0.445483
