data_functionalizedCrystal
_audit_creation_method	'MofGen! by Chris Wilmer'
_symmetry_space_group_name_H-M	'P1'
_symmetry_Int_Tables_number	1
_symmetry_cell_setting	triclinic
loop_
_symmetry_equiv_pos_as_xyz
  x,y,z
_cell_length_a	15.298068
_cell_length_b	13.897448
_cell_length_c	15.296720
_cell_angle_alpha	99.648320
_cell_angle_beta	91.645182
_cell_angle_gamma	80.320155
loop_
_atom_site_label
_atom_site_type_symbol
_atom_site_fract_x
_atom_site_fract_y
_atom_site_fract_z
Zn1	Zn	1.253389	0.286950	0.727378
Zn2	Zn	1.278656	0.416497	0.580916
Zn3	Zn	1.132268	0.277577	0.555545
Zn4	Zn	1.106887	0.470573	0.701942
O5	O	1.192800	0.362899	0.641445
O6	O	1.379316	0.285426	0.729213
O7	O	1.280434	0.371516	0.454987
O8	O	1.148383	0.143835	0.578366
O9	O	1.397879	0.380604	0.621608
O10	O	1.237370	0.150721	0.704612
O11	O	1.172884	0.269452	0.436347
O12	O	1.006326	0.321887	0.553701
O13	O	1.105124	0.472768	0.827879
O14	O	0.987679	0.463680	0.661259
O15	O	1.212759	0.337861	0.846567
O16	O	1.255822	0.558656	0.596943
O17	O	1.129624	0.598385	0.685860
C18	C	0.965220	0.397635	0.601967
C19	C	0.867857	0.412523	0.585099
C20	C	0.554687	0.256736	0.762005
C21	C	0.646164	0.242752	0.777859
C22	C	0.701591	0.285193	0.729670
C23	C	0.665534	0.341622	0.665626
C24	C	0.574047	0.355613	0.649776
C25	C	0.720951	0.384070	0.617440
C26	C	0.684893	0.440499	0.553396
C27	C	0.593416	0.454487	0.537549
C28	C	0.537988	0.412046	0.585737
C29	C	0.812438	0.370079	0.633290
C30	C	0.831798	0.468956	0.521061
C31	C	0.740321	0.482940	0.505208
C32	C	1.192731	0.613521	0.641418
C33	C	1.192777	0.720733	0.641449
C34	C	1.192852	0.917028	0.641527
C35	C	1.192807	0.807796	0.641486
C36	C	1.421268	0.328029	0.681078
C37	C	1.518628	0.313169	0.697967
C38	C	1.192880	1.111303	0.641505
C39	C	1.192891	1.004096	0.641554
C40	C	1.153292	0.412392	0.869891
C41	C	1.136456	0.433483	0.967241
C42	C	1.232205	0.313522	0.413897
C43	C	1.249211	0.292133	0.316577
C44	C	1.313163	0.211985	1.280575
C45	C	1.328987	0.192170	1.189111
C46	C	1.280855	0.252496	1.133639
C47	C	1.216897	0.332642	1.169640
C48	C	1.201077	0.352464	1.261114
C49	C	1.168769	0.392975	1.114178
C50	C	1.104811	0.473120	1.150179
C51	C	1.088993	0.492938	1.241644
C52	C	1.137125	0.432611	1.297116
C53	C	1.184590	0.373153	1.022704
C54	C	1.072504	0.513631	1.003243
C55	C	1.056680	0.533446	1.094707
H56	H	0.675515	0.196812	0.830006
C57	C	1.019553	0.579993	0.942227
N58	N	0.979675	0.629973	0.896265
H59	H	1.293743	0.236358	1.059165
H60	H	1.124244	0.448741	1.371595
C61	C	0.700644	0.545015	0.434764
N62	N	0.670758	0.591770	0.381707
C63	C	0.493714	0.210043	0.814994
N64	N	0.447788	0.174865	0.854903
H65	H	0.564059	0.500444	0.485406
H66	H	0.463498	0.423437	0.572839
H67	H	0.876927	0.503520	0.481826
C68	C	1.366095	0.145633	1.341598
N69	N	1.405966	0.095649	1.387562
H70	H	1.236664	0.307897	0.993401
H71	H	1.381063	0.126918	1.159806
H72	H	1.036922	0.558204	1.270954
H73	H	0.841787	0.324133	0.685435
C74	C	0.802220	0.269798	0.747104
N75	N	0.878017	0.258194	0.760233
H76	H	1.004604	0.598701	1.124032
