data_functionalizedCrystal
_audit_creation_method	'MofGen! by Chris Wilmer'
_symmetry_space_group_name_H-M	'P1'
_symmetry_Int_Tables_number	1
_symmetry_cell_setting	triclinic
loop_
_symmetry_equiv_pos_as_xyz
  x,y,z
_cell_length_a	23.532355
_cell_length_b	23.532407
_cell_length_c	9.130313
_cell_angle_alpha	89.990840
_cell_angle_beta	90.002298
_cell_angle_gamma	82.838088
loop_
_atom_site_label
_atom_site_type_symbol
_atom_site_fract_x
_atom_site_fract_y
_atom_site_fract_z
O1	O	0.755278	0.068994	-0.121615
O2	O	0.589410	0.079028	-0.121664
O3	O	0.677346	-0.008922	-0.121611
O4	O	0.667342	0.156944	-0.121668
O5	O	0.677340	-0.008924	0.121988
O6	O	0.589404	0.079026	0.121935
O7	O	0.755272	0.068992	0.121984
Cu8	Cu	0.672338	0.074008	0.144202
Cu9	Cu	0.672345	0.074011	-0.143882
O10	O	0.667336	0.156941	0.121931
C11	C	0.568191	0.078776	0.000130
C12	C	0.504972	0.078022	0.000113
C13	C	0.112955	0.073283	0.132961
C14	C	0.053556	0.072565	0.132967
O15	O	0.022834	0.072174	0.245895
N16	N	0.023850	0.072211	0.000182
C17	C	0.053548	0.072568	-0.132618
O18	O	0.022828	0.072200	-0.245561
C19	C	0.112947	0.073281	-0.132622
C20	C	0.142649	0.073641	0.000172
C21	C	0.142657	0.073642	0.265744
C22	C	0.202052	0.074361	0.265738
C23	C	0.231745	0.074719	0.132948
C24	C	0.202044	0.074360	0.000165
C25	C	0.142645	0.073634	-0.265420
C26	C	0.202048	0.074347	-0.265413
C27	C	0.231749	0.074708	-0.132619
C28	C	0.291133	0.075437	-0.132631
N29	N	0.320838	0.075792	0.000155
C30	C	0.291144	0.075433	0.132944
C31	C	-0.071193	0.071069	-0.132598
C32	C	-0.130591	0.070360	-0.132596
C33	C	-0.130580	0.070356	0.132990
C34	C	-0.071181	0.071069	0.132986
C35	C	-0.041488	0.071423	0.000187
C36	C	0.415878	0.076942	0.132920
C37	C	0.475278	0.077663	0.132902
C38	C	0.475262	0.077664	-0.132682
C39	C	0.415867	0.076946	-0.132665
C40	C	0.386177	0.076583	0.000148
O41	O	0.321892	0.075827	-0.245501
O42	O	0.321873	0.075793	0.245869
C43	C	0.677088	-0.030139	0.000192
C44	C	0.676322	-0.093356	0.000203
C45	C	0.723557	-0.492468	0.000137
C46	C	0.722845	-0.551868	0.000125
O47	O	0.766632	-0.588620	0.000084
N48	N	0.670568	-0.574484	0.000111
C49	C	0.618998	-0.537697	0.000093
O50	O	0.574467	-0.562388	0.000079
C51	C	0.619710	-0.478298	0.000094
C52	C	0.671991	-0.455685	0.000123
C53	C	0.775834	-0.469854	0.000164
C54	C	0.776545	-0.410458	0.000178
C55	C	0.724979	-0.373676	0.000165
C56	C	0.672703	-0.396289	0.000137
C57	C	0.568141	-0.441512	0.000066
C58	C	0.568858	-0.382110	0.000066
C59	C	0.621139	-0.359497	0.000095
C60	C	0.621848	-0.300110	0.000138
N61	N	0.674126	-0.277494	0.000152
C62	C	0.725691	-0.314277	0.000166
C63	C	0.617507	-0.662439	0.000089
C64	C	0.616794	-0.721837	0.000099
C65	C	0.720642	-0.736004	0.000128
C66	C	0.721354	-0.676605	0.000129
C67	C	0.669784	-0.639823	0.000103
C68	C	0.727181	-0.189540	0.000197
C69	C	0.727888	-0.130138	0.000217
C70	C	0.624041	-0.115977	0.000180
C71	C	0.623334	-0.175373	0.000167
C72	C	0.674909	-0.212154	0.000171
O73	O	0.578084	-0.263323	0.000173
O74	O	0.770216	-0.289577	0.000161
C75	C	0.776492	0.069244	0.000187
C76	C	0.839710	0.069998	0.000195
C77	C	0.667594	0.178158	0.000125
C78	C	0.668360	0.241375	0.000104
N79	N	0.672337	0.074006	0.346825
N80	N	0.672350	0.074009	-0.346504
C81	C	0.711288	0.035078	0.423500
C82	C	0.711293	0.035078	0.576837
C83	C	0.633395	0.112939	0.576810
C84	C	0.633387	0.112936	0.423476
H85	H	0.226230	0.074650	0.373872
O86	O	0.591397	0.154935	0.659487
H87	H	0.547039	0.147912	0.630090
O88	O	0.507314	0.078061	0.276134
H89	H	0.476683	0.077689	0.368468
O90	O	0.383858	0.076558	0.276164
H91	H	0.414497	0.076935	0.368483
H92	H	0.118486	0.073349	0.373883
H93	H	0.769178	-0.219481	0.000194
O94	O	-0.039147	0.071461	0.276210
H95	H	-0.069780	0.071091	0.368539
O96	O	0.591367	0.154921	0.340771
H97	H	0.597899	0.148370	0.221271
H98	H	0.575510	-0.632494	0.000081
O99	O	0.831456	-0.509522	0.000184
H100	H	0.833612	-0.536929	0.099470
O101	O	0.110633	0.073235	-0.408669
H102	H	0.078272	0.111730	-0.415099
O103	O	0.832934	-0.386071	0.000167
H104	H	0.868666	-0.421635	0.000150
H105	H	-0.154767	0.070062	0.241115
H106	H	0.743002	0.003378	0.361094
O107	O	0.234075	0.074734	-0.408649
H108	H	0.203438	0.074368	-0.500976
H109	H	-0.154771	0.070076	-0.240730
O110	O	0.383826	0.076560	-0.275886
H111	H	0.414456	0.076927	-0.368223
O112	O	0.511752	-0.465893	0.000029
H113	H	0.476021	-0.430329	0.000002
H114	H	-0.047021	0.071363	-0.240746
O115	O	0.507295	0.078038	-0.275904
H116	H	0.553589	0.078587	-0.253585
H117	H	0.770463	-0.111731	0.000244
H118	H	0.763925	-0.658198	0.000151
H119	H	0.762629	-0.765963	0.000133
O120	O	0.560406	-0.746225	0.000086
H121	H	0.524672	-0.710663	0.000071
O122	O	0.513236	-0.342436	0.000056
H123	H	0.476767	-0.368144	0.000050
O124	O	0.568424	-0.076300	0.000163
H125	H	0.577707	-0.031198	0.000161
O126	O	0.566947	-0.199769	0.000141
H127	H	0.531211	-0.164210	0.000127
H128	H	0.743009	0.003379	0.639261
