data_functionalizedCrystal
_audit_creation_method	'MofGen! by Chris Wilmer'
_symmetry_space_group_name_H-M	'P1'
_symmetry_Int_Tables_number	1
_symmetry_cell_setting	triclinic
loop_
_symmetry_equiv_pos_as_xyz
  x,y,z
_cell_length_a	12.759401
_cell_length_b	16.120444
_cell_length_c	12.759393
_cell_angle_alpha	92.863363
_cell_angle_beta	89.981503
_cell_angle_gamma	92.926722
loop_
_atom_site_label
_atom_site_type_symbol
_atom_site_fract_x
_atom_site_fract_y
_atom_site_fract_z
Zn1	Zn	1.584952	-0.331851	-0.615182
Zn2	Zn	1.575904	-0.471290	-0.448397
Zn3	Zn	1.409255	-0.331895	-0.439521
Zn4	Zn	1.400301	-0.471225	-0.624031
O5	O	1.492603	-0.401565	-0.531783
O6	O	1.730773	-0.350356	-0.593069
O7	O	1.553758	-0.452844	-0.300201
O8	O	1.440096	-0.215224	-0.455404
O9	O	1.724125	-0.452801	-0.470533
O10	O	1.569180	-0.215191	-0.584462
O11	O	1.431322	-0.350432	-0.293680
O12	O	1.261047	-0.350369	-0.463985
O13	O	1.424835	-0.452691	-0.769875
O14	O	1.254468	-0.452734	-0.599544
O15	O	1.560498	-0.350294	-0.763374
O16	O	1.545076	-0.587947	-0.479113
O17	O	1.416061	-0.587900	-0.608151
C18	C	1.219637	-0.401550	-0.531762
C19	C	1.102859	-0.401564	-0.531779
C20	C	1.044545	-0.454822	-0.467878
C21	C	0.934820	-0.454836	-0.467897
C22	C	0.941734	-0.348328	-0.595722
C23	C	1.051456	-0.348318	-0.595708
C24	C	1.095947	-0.508067	-0.403950
C25	C	1.037632	-0.561329	-0.340042
C26	C	0.927907	-0.561343	-0.340061
C27	C	0.876497	-0.508096	-0.403988
C28	C	1.478643	-0.618173	-0.545578
C29	C	1.472767	-0.710839	-0.551515
C30	C	1.523342	-0.921784	-0.501210
C31	C	1.462059	-0.880495	-0.562366
C32	C	1.468019	-0.786090	-0.556327
C33	C	1.517383	-1.016198	-0.507248
C34	C	1.766635	-0.401581	-0.531804
C35	C	1.883411	-0.401588	-0.531813
C36	C	1.492677	-0.401481	-0.805811
C37	C	1.492708	-0.401444	-0.922585
C38	C	1.506646	-0.184112	-0.517956
C39	C	1.512630	-0.091446	-0.512064
C40	C	1.428985	-0.348108	-0.974057
C41	C	1.429018	-0.348083	-1.083779
C42	C	1.556507	-0.454733	-1.090549
C43	C	1.556467	-0.454761	-0.980829
C44	C	1.365225	-0.294791	-0.915813
C45	C	1.301497	-0.241450	-0.967285
C46	C	1.301531	-0.241425	-1.077007
C47	C	1.365292	-0.294742	-1.135258
C48	C	1.492594	-0.401590	-0.258817
C49	C	1.492781	-0.401391	-0.142028
H50	H	1.405116	-0.916047	-0.619258
H51	H	1.079497	-0.604686	-0.288002
N52	N	1.621574	-0.509239	-0.928258
N53	N	1.718881	-0.503716	-0.940156
H54	H	1.764862	-0.542194	-0.903028
N55	N	1.594763	-0.877205	-0.429820
N56	N	1.652379	-0.915966	-0.372307
H57	H	1.702817	-0.884475	-0.321884
H58	H	1.185291	-0.508060	-0.403924
H59	H	1.365193	-0.294804	-0.826471
N60	N	0.868342	-0.615734	-0.274769
N61	N	0.808980	-0.586339	-0.206018
H62	H	0.766914	-0.624751	-0.159897
N63	N	1.111034	-0.293903	-0.660959
N64	N	1.175664	-0.240740	-0.620703
H65	H	1.217742	-0.202309	-0.666789
N66	N	0.764414	-0.508129	-0.404007
N67	N	0.712356	-0.555690	-0.346952
H68	H	0.633199	-0.555712	-0.346962
N69	N	0.889206	-0.293948	-0.661012
N70	N	0.791240	-0.293965	-0.661016
H71	H	0.754141	-0.255557	-0.707127
N72	N	1.236365	-0.187006	-0.907773
N73	N	1.236340	-0.187036	-0.809810
H74	H	1.190337	-0.148585	-0.767780
N75	N	1.621642	-0.509171	-1.150067
N76	N	1.690501	-0.479816	-1.209427
H77	H	1.736507	-0.518260	-1.251465
N78	N	1.236420	-0.186946	-1.129570
N79	N	1.179496	-0.139353	-1.077551
H80	H	1.133511	-0.100873	-1.114670
N81	N	1.365302	-0.294716	-1.247338
N82	N	1.308393	-0.247095	-1.293286
H83	H	1.308400	-0.247075	-1.372441
