data_functionalizedCrystal
_audit_creation_method	'MofGen! by Chris Wilmer'
_symmetry_space_group_name_H-M	'P1'
_symmetry_Int_Tables_number	1
_symmetry_cell_setting	triclinic
loop_
_symmetry_equiv_pos_as_xyz
  x,y,z
_cell_length_a	12.645331
_cell_length_b	12.645330
_cell_length_c	19.077569
_cell_angle_alpha	92.319435
_cell_angle_beta	92.310267
_cell_angle_gamma	90.018103
loop_
_atom_site_label
_atom_site_type_symbol
_atom_site_fract_x
_atom_site_fract_y
_atom_site_fract_z
Zn1	Zn	1.644749	-0.397978	0.397898
Zn2	Zn	2.144749	0.102022	0.897898
Zn3	Zn	1.637527	-0.582376	0.280211
Zn4	Zn	2.137527	-0.082376	0.780211
Zn5	Zn	1.460360	-0.405128	0.280223
Zn6	Zn	1.960360	0.094872	0.780223
Zn7	Zn	1.467444	-0.575202	0.397878
Zn8	Zn	1.967444	-0.075202	0.897878
O9	O	1.552520	-0.490171	0.339052
O10	O	2.052520	0.009829	0.839052
O11	O	1.792138	-0.422449	0.382289
O12	O	2.292138	0.077551	0.882289
O13	O	1.608038	-0.564859	0.181722
O14	O	2.108038	-0.064859	0.681722
O15	O	1.484878	-0.255831	0.295847
O16	O	1.984878	0.244169	0.795847
O17	O	1.786832	-0.557926	0.295826
O18	O	2.286832	-0.057926	0.795826
O19	O	1.620347	-0.250578	0.382301
O20	O	2.120347	0.249422	0.882301
O21	O	1.477875	-0.434635	0.181731
O22	O	1.977875	0.065365	0.681731
O23	O	1.312953	-0.427679	0.295827
O24	O	1.812953	0.072321	0.795827
O25	O	1.496951	-0.545698	0.496371
O26	O	1.996951	-0.045698	0.996371
O27	O	1.318157	-0.552631	0.382267
O28	O	1.818157	-0.052631	0.882267
O29	O	1.627216	-0.415492	0.496386
O30	O	2.127216	0.084508	0.996386
O31	O	1.614907	-0.729773	0.295806
O32	O	2.114907	-0.229773	0.795806
O33	O	1.489948	-0.724502	0.382255
O34	O	1.989948	-0.224502	0.882255
C35	C	1.277090	-0.490153	0.339047
C36	C	1.777090	0.009847	0.839047
C37	C	1.159261	-0.490170	0.339061
C38	C	1.659261	0.009830	0.839061
C39	C	1.117684	-0.568922	0.393361
C40	C	1.617684	-0.068922	0.893361
C41	C	0.995114	-0.569269	0.393200
C42	C	1.495114	-0.069269	0.893200
C43	C	0.986824	-0.524496	0.264797
C44	C	1.486824	-0.024496	0.764797
C45	C	1.109442	-0.525056	0.265112
C46	C	1.609442	-0.025056	0.765112
C47	C	1.115281	-0.376957	0.358376
C48	C	1.615281	0.123043	0.858376
C49	C	0.992774	-0.377477	0.360012
C50	C	1.492774	0.122523	0.860012
C51	C	1.552442	-0.765601	0.339043
C52	C	2.052442	-0.265601	0.839043
C53	C	1.552507	-0.883430	0.339062
C54	C	2.052507	-0.383430	0.839062
C55	C	1.474243	-1.047712	0.393615
C56	C	1.974243	-0.547712	0.893615
C57	C	1.473815	-0.925163	0.393439
C58	C	1.973815	-0.425163	0.893439
C59	C	1.517785	-0.932506	0.264889
C60	C	2.017785	-0.432506	0.764889
C61	C	1.517307	-1.055085	0.265220
C62	C	2.017307	-0.555085	0.765220
C63	C	1.665956	-1.049370	0.358080
C64	C	2.165956	-0.549370	0.858080
C65	C	1.665366	-0.926665	0.359702
C66	C	2.165366	-0.426665	0.859702
C67	C	1.829026	-0.490190	0.339058
C68	C	2.329026	0.009810	0.839058
C69	C	1.946856	-0.490198	0.339061
C70	C	2.446856	0.009802	0.839061
C71	C	1.563679	-0.478997	0.522630
C72	C	2.063679	0.021003	1.022630
C73	C	1.568434	-0.474235	0.600860
C74	C	2.068434	0.025765	1.100860
C75	C	1.552628	-0.213664	0.339078
C76	C	2.052628	0.286336	0.839078
C77	C	1.552674	-0.095833	0.339088
C78	C	2.052674	0.404167	0.839088
C79	C	1.541465	-0.501225	0.156189
C80	C	2.041465	-0.001225	0.656189
C81	C	1.536915	-0.505688	0.077959
C82	C	2.036915	-0.005688	0.577959
C83	C	1.502848	-0.539784	0.637606
C84	C	2.002848	-0.039784	1.137606
C85	C	1.507325	-0.535310	0.711112
C86	C	2.007325	-0.035310	1.211112
C87	C	1.577384	-0.465281	0.747870
C88	C	2.077384	0.034719	1.247870
C89	C	1.642977	-0.399729	0.711118
C90	C	2.142977	0.100271	1.211118
C91	C	1.638505	-0.404209	0.637614
C92	C	2.138505	0.095791	1.137614
C93	C	1.598037	-0.444617	0.967704
C94	C	2.098037	0.055383	1.467704
C95	C	1.602502	-0.440139	1.041213
C96	C	2.102502	0.059861	1.541213
C97	C	1.466850	-0.575722	1.041201
C98	C	1.966850	-0.075722	1.541201
C99	C	1.462380	-0.580192	0.967696
C100	C	1.962380	-0.080192	1.467696
C101	C	1.527977	-0.514644	0.930951
C102	C	2.027977	-0.014644	1.430951
N103	N	1.581959	-0.460703	0.823004
N104	N	2.081959	0.039297	1.323004
N105	N	1.523406	-0.519228	0.855818
N106	N	2.023406	-0.019228	1.355818
H107	H	0.964982	-0.653077	0.380386
H108	H	1.464982	-0.153077	0.880386
H109	H	1.724444	-1.080757	0.318367
H110	H	2.224444	-0.580757	0.818367
H111	H	1.691912	-0.350832	0.607697
H112	H	2.191912	0.149168	1.107697
H113	H	1.413445	-0.629088	1.071127
H114	H	1.913445	-0.129088	1.571127
H115	H	0.968384	-0.547346	0.448256
H116	H	1.468384	-0.047346	0.948256
H117	H	1.572901	-0.905869	0.223153
H118	H	2.072901	-0.405869	0.723153
H119	H	0.967024	-0.351687	0.414666
H120	H	1.467024	0.148313	0.914666
H121	H	0.959938	-0.315347	0.323377
H122	H	1.459938	0.184653	0.823377
H123	H	1.141902	-0.318233	0.318831
H124	H	1.641902	0.181767	0.818831
H125	H	1.496059	-0.891686	0.448438
H126	H	1.996059	-0.391686	0.948438
H127	H	1.727237	-0.898239	0.322880
H128	H	2.227237	-0.398239	0.822880
H129	H	1.405347	-0.637234	0.937773
H130	H	1.905347	-0.137234	1.437773
H131	H	1.150535	-0.547203	0.448589
H132	H	1.650535	-0.047203	0.948589
H133	H	1.496324	-1.073790	0.448794
H134	H	1.996324	-0.573790	0.948794
H135	H	1.445786	-0.596797	0.607683
H136	H	1.945786	-0.096797	1.107683
H137	H	1.147697	-0.652242	0.380702
H138	H	1.647697	-0.152242	0.880702
H139	H	1.137021	-0.607931	0.248786
H140	H	1.637021	-0.107931	0.748786
H141	H	1.136586	-0.470388	0.223266
H142	H	1.636586	0.029612	0.723266
H143	H	1.435678	-0.902885	0.248509
H144	H	1.935678	-0.402885	0.748509
H145	H	1.390881	-1.079364	0.381194
H146	H	1.890881	-0.579364	0.881194
H147	H	0.955093	-0.606498	0.248194
H148	H	1.455093	-0.106498	0.748194
H149	H	1.434364	-1.084749	0.249131
H150	H	1.934364	-0.584749	0.749131
H151	H	1.659549	-0.383103	1.071139
H152	H	2.159549	0.116897	1.571139
H153	H	1.453918	-0.588688	0.741027
H154	H	1.953918	-0.088688	1.241027
H155	H	1.389924	-0.896689	0.380857
H156	H	1.889924	-0.396689	0.880857
H157	H	0.955172	-0.469092	0.223229
H158	H	1.455172	0.030908	0.723229
H159	H	1.691470	-0.894216	0.414290
H160	H	2.191470	-0.394216	0.914290
H161	H	1.651451	-0.391244	0.937795
H162	H	2.151451	0.108756	1.437795
H163	H	1.571711	-1.087280	0.223209
H164	H	2.071711	-0.587280	0.723209
H165	H	1.149449	-0.346502	0.411617
H166	H	1.649449	0.153498	0.911617
H167	H	1.696755	-1.077001	0.411248
H168	H	2.196755	-0.577001	0.911248
H169	H	1.700026	-0.342714	0.741053
H170	H	2.200026	0.157286	1.241053
