data_functionalizedCrystal
_audit_creation_method	'MofGen! by Chris Wilmer'
_symmetry_space_group_name_H-M	'P1'
_symmetry_Int_Tables_number	1
_symmetry_cell_setting	triclinic
loop_
_symmetry_equiv_pos_as_xyz
  x,y,z
_cell_length_a	15.944551
_cell_length_b	15.944551
_cell_length_c	15.021413
_cell_angle_alpha	89.999557
_cell_angle_beta	89.988701
_cell_angle_gamma	83.498738
loop_
_atom_site_label
_atom_site_type_symbol
_atom_site_fract_x
_atom_site_fract_y
_atom_site_fract_z
O1	O	1.114511	0.108326	0.073941
O2	O	0.869961	0.121682	0.073964
O3	O	0.998914	-0.007271	0.073944
O4	O	0.985558	0.237279	0.073961
O5	O	0.998929	-0.007263	-0.074121
O6	O	0.869976	0.121690	-0.074101
O7	O	1.114526	0.108334	-0.074123
Zn8	Zn	0.992254	0.115013	-0.097620
Zn9	Zn	0.992234	0.115003	0.097461
O10	O	0.985573	0.237287	-0.074103
C11	C	0.838675	0.121132	-0.000066
C12	C	0.745429	0.119470	-0.000057
C13	C	0.530572	0.035565	-0.000081
C14	C	0.469545	0.074524	0.072926
C15	C	0.574703	0.116462	-0.000068
C16	C	0.469582	0.074551	-0.073054
C17	C	0.409790	0.113551	-0.000083
C18	C	0.514904	0.155443	0.072998
C19	C	0.514947	0.155459	-0.073047
C20	C	0.453937	0.194476	-0.000023
C21	C	0.669705	0.118137	-0.000059
C22	C	0.314789	0.111883	-0.000085
C23	C	0.998367	-0.038561	-0.000089
C24	C	0.996705	-0.131807	-0.000089
C25	C	0.912801	-0.346663	-0.000069
C26	C	0.951771	-0.407677	-0.073077
C27	C	0.993698	-0.302533	-0.000082
C28	C	0.951775	-0.407668	0.072903
C29	C	0.990787	-0.467445	-0.000071
C30	C	1.032690	-0.362318	-0.073150
C31	C	1.032683	-0.362303	0.072895
C32	C	1.071711	-0.423298	-0.000131
C33	C	0.995372	-0.207530	-0.000089
C34	C	0.989119	-0.562446	-0.000070
C35	C	1.145813	0.108885	-0.000092
C36	C	1.239059	0.110547	-0.000094
C37	C	0.986120	0.268577	-0.000069
C38	C	0.987782	0.361823	-0.000063
N39	N	0.992273	0.115020	-0.230758
C40	C	1.051913	0.055379	-0.470426
C41	C	0.976013	0.039061	-0.529750
C42	C	0.992254	0.115010	-0.412365
C43	C	1.068135	0.131277	-0.529783
C44	C	0.992242	0.114997	-0.587789
C45	C	0.916316	0.098655	-0.470382
C46	C	1.008487	0.190904	-0.470410
C47	C	0.932533	0.174619	-0.529706
C48	C	0.992262	0.115014	-0.311307
C49	C	0.992225	0.114993	-0.688844
N50	N	0.992221	0.114990	0.230598
H51	H	0.535085	0.189650	-0.134767
H52	H	1.102312	0.004923	-0.444397
H53	H	0.882021	0.225045	-0.555571
N54	N	0.444389	0.031635	-0.150492
N55	N	0.394603	0.069607	-0.205159
H56	H	0.376813	0.039294	-0.259847
N57	N	1.075558	-0.337033	0.150316
N58	N	1.084228	-0.260922	0.162338
H59	H	1.114504	-0.243073	0.217023
N60	N	1.025762	0.271401	-0.437693
N61	N	1.093913	0.298909	-0.456698
H62	H	1.106123	0.355761	-0.433592
H63	H	0.845652	-0.313356	-0.000136
H64	H	0.917561	-0.427782	-0.134794
H65	H	0.563905	-0.031573	0.000005
H66	H	1.138919	-0.456457	-0.000178
N67	N	0.908816	-0.432873	0.150322
N68	N	0.833319	-0.405100	0.163315
H69	H	0.802973	-0.422899	0.217989
H70	H	0.852124	0.084817	-0.444399
N71	N	0.444321	0.031592	0.150351
N72	N	0.472089	-0.043901	0.163358
H73	H	0.454281	-0.074225	0.218039
N74	N	0.958778	-0.041464	-0.562441
N75	N	1.007152	-0.106229	-0.543444
H76	H	0.994985	-0.163103	-0.566529
N77	N	0.539974	0.198348	0.150497
N78	N	0.616120	0.206529	0.163020
H79	H	0.633828	0.236835	0.217749
N80	N	1.075588	-0.337230	-0.150661
N81	N	1.083758	-0.261080	-0.163190
H82	H	1.114052	-0.243358	-0.217931
N83	N	1.148638	0.148544	-0.562531
N84	N	1.190925	0.096029	-0.611212
H85	H	1.247782	0.108217	-0.634340
N86	N	0.412346	0.278788	0.000039
N87	N	0.424049	0.327626	0.062780
H88	H	0.394675	0.387172	0.062828
