data_functionalizedCrystal
_audit_creation_method	'MofGen! by Chris Wilmer'
_symmetry_space_group_name_H-M	'P1'
_symmetry_Int_Tables_number	1
_symmetry_cell_setting	triclinic
loop_
_symmetry_equiv_pos_as_xyz
  x,y,z
_cell_length_a	17.640112
_cell_length_b	17.637015
_cell_length_c	17.639145
_cell_angle_alpha	114.331741
_cell_angle_beta	65.715363
_cell_angle_gamma	114.336372
loop_
_atom_site_label
_atom_site_type_symbol
_atom_site_fract_x
_atom_site_fract_y
_atom_site_fract_z
Zn1	Zn	1.158997	-0.038711	0.205161
Zn2	Zn	1.158939	-0.204422	0.039452
Zn3	Zn	1.041054	-0.086453	0.087137
Zn4	Zn	0.993321	-0.204465	0.205013
O5	O	1.088078	-0.133513	0.134191
O6	O	1.277661	-0.040694	0.163285
O7	O	1.163254	-0.208735	-0.072903
O8	O	1.076701	0.038619	0.122811
O9	O	1.277619	-0.162442	0.041539
O10	O	1.163353	0.073695	0.209523
O11	O	1.076644	-0.122064	-0.037869
O12	O	0.916051	-0.122106	0.122668
O13	O	0.995346	-0.162515	0.323713
O14	O	0.880981	-0.208809	0.209271
O15	O	1.117068	-0.040736	0.323822
O16	O	1.116969	-0.323167	0.041396
O17	O	0.995289	-0.323198	0.163033
C18	C	0.867745	-0.170643	0.171128
C19	C	0.773479	-0.186544	0.186947
C20	C	1.050963	-0.353963	0.097038
C21	C	1.035157	-0.448255	0.081160
C22	C	0.554623	-0.012694	0.014027
C23	C	0.466041	-0.027651	0.028900
C24	C	0.429583	-0.118116	0.118867
C25	C	0.518164	-0.103163	0.104005
C26	C	0.580677	-0.050452	0.051584
C27	C	0.544219	-0.140921	0.141562
C28	C	0.632792	-0.125972	0.126698
C29	C	0.695310	-0.073266	0.074277
C30	C	0.669251	-0.035504	0.036720
C31	C	0.481704	-0.193636	0.193978
C32	C	0.507758	-0.231394	0.231535
C33	C	0.596333	-0.216441	0.216676
C34	C	0.658851	-0.163735	0.164255
C35	C	0.622392	-0.254204	0.254233
C36	C	0.710966	-0.239255	0.239368
C37	C	0.747424	-0.148787	0.149390
C38	C	0.967810	-0.599488	0.013574
C39	C	0.982666	-0.510884	0.028499
C40	C	1.072817	-0.474211	0.118912
C41	C	1.057971	-0.562814	0.103990
C42	C	1.005466	-0.625446	0.051321
C43	C	1.095628	-0.588772	0.141738
C44	C	1.080780	-0.677366	0.126820
C45	C	1.028275	-0.740003	0.074156
C46	C	0.990618	-0.714040	0.036404
C47	C	1.148127	-0.526138	0.194411
C48	C	1.185784	-0.552096	0.232159
C49	C	1.170941	-0.640692	0.217237
C50	C	1.118436	-0.703329	0.164573
C51	C	1.208597	-0.666655	0.254989
C52	C	1.193749	-0.755249	0.240072
C53	C	1.103588	-0.791924	0.149655
C54	C	1.309271	-0.096238	0.097109
C55	C	1.403530	-0.080353	0.081308
C56	C	1.050888	-0.096305	0.355401
C57	C	1.035041	-0.080449	0.449667
C58	C	1.125358	0.087806	0.171503
C59	C	1.141245	0.182119	0.187403
C60	C	1.208396	-0.253928	0.668470
C61	C	1.193495	-0.239021	0.757051
C62	C	1.103315	-0.148776	0.793528
C63	C	1.118204	-0.163679	0.704948
C64	C	1.170747	-0.216254	0.642425
C65	C	1.080555	-0.126005	0.678904
C66	C	1.095447	-0.140903	0.590332
C67	C	1.147989	-0.193474	0.527804
C68	C	1.185639	-0.231152	0.553853
C69	C	1.028018	-0.073425	0.741429
C70	C	0.990369	-0.035751	0.715385
C71	C	1.005256	-0.050654	0.626811
C72	C	1.057798	-0.103225	0.564283
C73	C	0.967606	-0.012976	0.600762
C74	C	0.982498	-0.027874	0.512190
C75	C	1.072690	-0.118123	0.475711
C76	C	1.125115	-0.170596	0.913839
C77	C	1.140967	-0.186454	0.819571
H78	H	0.798328	-0.105849	0.106718
H79	H	0.571482	-0.297128	0.296907
H80	H	0.924833	0.029838	0.651681
H81	H	1.016180	-0.812142	0.062018
H82	H	0.409583	-0.205806	0.206079
H83	H	0.456849	-0.274314	0.274213
F84	F	0.738697	-0.279443	0.279338
F85	F	1.012175	-0.057565	0.835696
H86	H	0.947591	0.007058	0.766302
F87	F	0.735788	0.020604	-0.019067
H88	H	1.060839	-0.842923	0.106762
F89	F	1.241655	-0.485431	0.288218
F90	F	1.128600	-0.174091	0.409164
F91	F	0.942588	-0.483263	-0.011686
F92	F	1.264306	-0.309896	0.601922
H93	H	1.224402	-0.776383	0.270821
H94	H	0.947869	-0.765040	-0.006490
H95	H	1.251340	-0.615649	0.297879
F96	F	0.942430	0.012225	0.484470
F97	F	0.911939	-0.666151	-0.042494
H98	H	1.115564	-0.423207	0.161798
F99	F	1.163654	-0.431848	0.210560
H100	H	0.767431	-0.061098	0.062173
H101	H	1.160116	-0.205600	0.455684
F102	F	1.241549	-0.287121	0.487306
F103	F	1.047400	-0.092821	0.860077
F104	F	0.621160	0.043413	-0.041759
F105	F	0.438317	0.012535	-0.011083
H106	H	0.378673	-0.161036	0.161546
H107	H	1.224160	-0.269702	0.778249
