data_functionalizedCrystal
_audit_creation_method	'MofGen! by Chris Wilmer'
_symmetry_space_group_name_H-M	'P1'
_symmetry_Int_Tables_number	1
_symmetry_cell_setting	triclinic
loop_
_symmetry_equiv_pos_as_xyz
  x,y,z
_cell_length_a	11.169417
_cell_length_b	18.215405
_cell_length_c	11.169409
_cell_angle_alpha	89.960202
_cell_angle_beta	89.980176
_cell_angle_gamma	90.025764
loop_
_atom_site_label
_atom_site_type_symbol
_atom_site_fract_x
_atom_site_fract_y
_atom_site_fract_z
Zn1	Zn	1.834841	-0.292907	-0.678481
Zn2	Zn	1.834679	-0.415999	-0.477771
Zn3	Zn	1.634127	-0.292952	-0.477815
Zn4	Zn	1.634083	-0.415939	-0.678416
O5	O	1.734433	-0.354449	-0.578121
O6	O	2.002769	-0.309242	-0.651865
O7	O	1.808026	-0.399720	-0.309827
O8	O	1.660838	-0.189962	-0.504479
O9	O	2.002651	-0.399677	-0.504404
O10	O	1.808302	-0.189929	-0.651907
O11	O	1.660681	-0.309319	-0.309859
O12	O	1.466171	-0.309260	-0.504416
O13	O	1.660764	-0.399574	-0.846375
O14	O	1.466140	-0.399618	-0.651797
O15	O	1.808260	-0.309184	-0.846422
O16	O	1.807984	-0.518975	-0.504342
O17	O	1.660607	-0.518931	-0.651755
C18	C	1.422608	-0.354438	-0.578105
C19	C	1.289208	-0.354451	-0.578127
C20	C	1.734306	-0.545656	-0.578063
C21	C	1.734362	-0.627454	-0.578078
C22	C	1.811281	-0.815647	-0.501462
C23	C	1.811335	-0.892506	-0.501491
C24	C	1.657738	-0.892500	-0.654866
C25	C	1.657691	-0.815642	-0.654842
C26	C	1.734461	-0.777218	-0.578133
C27	C	1.734561	-0.930934	-0.578186
C28	C	1.734619	-1.014268	-0.578218
C29	C	1.734405	-0.693879	-0.578102
C30	C	2.047475	-0.354461	-0.578137
C31	C	2.180875	-0.354466	-0.578144
C32	C	1.734525	-0.354368	-0.891163
C33	C	1.734564	-0.354333	-1.024563
C34	C	1.734593	-0.162496	-0.578205
C35	C	1.734661	-0.080697	-0.578241
C36	C	1.734410	-0.354478	-0.266296
C37	C	1.734603	-0.354305	-0.132897
H38	H	1.873793	-0.784363	-0.439002
H39	H	1.873891	-0.923791	-0.439059
H40	H	1.595233	-0.923794	-0.717318
O41	O	1.582950	-0.778421	-0.729363
C42	C	1.515216	-0.828815	-0.797088
H43	H	1.511113	-0.883631	-0.747945
H44	H	1.420637	-0.806645	-0.809801
H45	H	1.559122	-0.836917	-0.888281
