data_functionalizedCrystal
_audit_creation_method	'MofGen! by Chris Wilmer'
_symmetry_space_group_name_H-M	'P1'
_symmetry_Int_Tables_number	1
_symmetry_cell_setting	triclinic
loop_
_symmetry_equiv_pos_as_xyz
  x,y,z
_cell_length_a	6.817900
_cell_length_b	11.353959
_cell_length_c	16.305550
_cell_angle_alpha	105.314283
_cell_angle_beta	103.455250
_cell_angle_gamma	107.526623
loop_
_atom_site_label
_atom_site_type_symbol
_atom_site_fract_x
_atom_site_fract_y
_atom_site_fract_z
V1	V	-4.066893	-0.182120	-0.289783
O2	O	-4.012141	0.007615	-0.256906
O3	O	-4.058049	-0.360021	-0.314116
O4	O	-4.017785	-0.179817	-0.404162
O5	O	-4.052684	-0.173836	-0.166236
V6	V	-4.545487	-0.159367	-0.271809
O7	O	-4.338963	-0.232032	-0.329210
O8	O	-4.723614	-0.109455	-0.232382
O9	O	-4.331124	0.018534	-0.247476
O10	O	-4.717635	-0.349102	-0.304686
O11	O	-4.677092	-0.167651	-0.395355
O12	O	-4.371388	-0.161669	-0.157430
C13	C	-3.912695	-0.403373	-0.316334
C14	C	-3.986747	-0.548813	-0.336991
C15	C	-3.977613	-0.595591	-0.270129
C16	C	-4.054148	-0.745910	-0.291477
C17	C	-3.861333	-0.173504	-0.431196
C18	C	-3.902727	-0.172799	-0.524874
C19	C	-4.053204	-0.170064	-0.865217
C20	C	-3.815344	-0.161946	-0.823096
C21	C	-3.772435	-0.163222	-0.725789
C22	C	-3.978549	-0.171420	-0.696369
C23	C	-4.174421	-0.300631	-0.765975
C24	C	-4.216121	-0.299900	-0.863417
C25	C	-4.081163	-0.050004	-0.801739
C26	C	-4.033006	-0.048981	-0.703746
C27	C	-3.936371	-0.172191	-0.600944
C28	C	-4.095393	-0.169302	-0.960645
C29	C	-4.139821	0.061880	-0.245256
C30	C	-4.045008	0.207318	-0.224605
C31	C	-4.191183	-0.167987	-0.130392
C32	C	-4.129025	-0.168686	-0.036713
H33	H	-3.688373	-0.068605	-0.821749
H34	H	-4.139278	-0.391544	-0.762516
H35	H	-4.392486	-0.311232	-0.893073
H36	H	-3.913144	-0.524354	-0.197080
N37	N	-3.959596	-0.698367	-0.127827
H38	H	-4.053614	-0.645363	-0.119767
H39	H	-3.803899	-0.636373	-0.112779
H40	H	-4.051233	-0.620050	-0.410040
N41	N	-4.139593	-0.840253	-0.388248
H42	H	-4.182171	-0.934263	-0.389783
H43	H	-4.022001	-0.820206	-0.416321
N44	N	-3.931162	0.079680	-0.800397
H45	H	-3.951760	0.155369	-0.759267
H46	H	-3.966994	0.081508	-0.863621
N47	N	-3.577407	-0.040170	-0.661313
H48	H	-3.518598	0.015392	-0.695993
H49	H	-3.460003	-0.066317	-0.630193
N50	N	-3.710177	-0.278780	-0.721189
H51	H	-3.833292	-0.364090	-0.765145
H52	H	-3.681935	-0.279983	-0.657861
N53	N	-3.844403	0.077622	-0.639632
H54	H	-3.724180	0.055772	-0.605942
H55	H	-3.896256	0.129592	-0.595061
N56	N	-4.195124	-0.420290	-0.921353
H57	H	-4.158917	-0.473332	-0.883478
H58	H	-4.074684	-0.391212	-0.946664
H59	H	-3.789505	-0.248204	-0.867279
H60	H	-4.329958	-0.311303	-0.748630
N61	N	-4.227518	-0.046780	-0.675087
H62	H	-4.283363	-0.125481	-0.656846
H63	H	-4.346973	-0.050906	-0.727132
H64	H	-4.254299	-0.054802	-0.829259
