data_functionalizedCrystal
_audit_creation_method	'MofGen! by Chris Wilmer'
_symmetry_space_group_name_H-M	'P1'
_symmetry_Int_Tables_number	1
_symmetry_cell_setting	triclinic
loop_
_symmetry_equiv_pos_as_xyz
  x,y,z
_cell_length_a	29.839131
_cell_length_b	19.077105
_cell_length_c	19.077174
_cell_angle_alpha	94.516248
_cell_angle_beta	87.729939
_cell_angle_gamma	87.737628
loop_
_atom_site_label
_atom_site_type_symbol
_atom_site_fract_x
_atom_site_fract_y
_atom_site_fract_z
Zn1	Zn	0.218280	-1.093604	-0.441818
Zn2	Zn	0.718280	-0.593604	0.058182
Zn3	Zn	0.290261	-1.088756	-0.323922
Zn4	Zn	0.790261	-0.588756	0.176078
Zn5	Zn	0.212000	-0.970992	-0.319217
Zn6	Zn	0.712000	-0.470992	0.180783
Zn7	Zn	0.290232	-0.975650	-0.437040
Zn8	Zn	0.790232	-0.475650	0.062960
O9	O	0.252693	-1.032251	-0.380499
O10	O	0.752693	-0.532251	0.119501
O11	O	0.230469	-1.191610	-0.430148
O12	O	0.730469	-0.691610	0.069852
O13	O	0.277264	-1.069156	-0.224649
O14	O	0.777264	-0.569156	0.275351
O15	O	0.149969	-0.987337	-0.335510
O16	O	0.649969	-0.487337	0.164490
O17	O	0.283353	-1.188048	-0.343531
O18	O	0.783353	-0.688048	0.156469
O19	O	0.154583	-1.077420	-0.425585
O20	O	0.654583	-0.577420	0.074415
O21	O	0.219766	-0.982636	-0.221191
O22	O	0.719766	-0.482636	0.278809
O23	O	0.219737	-0.872961	-0.330877
O24	O	0.719737	-0.372961	0.169123
O25	O	0.283303	-0.995275	-0.536324
O26	O	0.783303	-0.495275	-0.036324
O27	O	0.277214	-0.876383	-0.417442
O28	O	0.777214	-0.376383	0.082558
O29	O	0.230441	-1.081936	-0.539834
O30	O	0.730441	-0.581936	-0.039834
O31	O	0.353121	-1.073672	-0.338898
O32	O	0.853121	-0.573672	0.161102
O33	O	0.353100	-0.990574	-0.422005
O34	O	0.853100	-0.490574	0.077995
C35	C	0.369412	-1.032122	-0.380459
C36	C	0.869412	-0.532122	0.119541
C37	C	0.419346	-1.032132	-0.380468
C38	C	0.919346	-0.532132	0.119532
C39	C	0.247791	-0.849094	-0.373131
C40	C	0.747791	-0.349094	0.126869
C41	C	0.245705	-0.770739	-0.369995
C42	C	0.745705	-0.270739	0.130005
C43	C	0.135520	-1.032400	-0.380556
C44	C	0.635520	-0.532400	0.119444
C45	C	0.085588	-1.032463	-0.380580
C46	C	0.585588	-0.532463	0.119420
C47	C	0.728996	-1.075605	-0.337295
C48	C	1.228996	-0.575605	0.162705
C49	C	0.916672	-1.075693	-0.337326
C50	C	1.416672	-0.575693	0.162674
O51	O	0.940939	-1.112552	-0.300587
O52	O	1.440939	-0.612552	0.199413
N53	N	0.940141	-1.032399	-0.380559
N54	N	1.440141	-0.532399	0.119441
C55	C	0.916687	-0.989083	-0.423790
C56	C	1.416687	-0.489083	0.076210
O57	O	0.940955	-0.952267	-0.460568
O58	O	1.440955	-0.452267	0.039432
C59	C	0.729012	-0.988999	-0.423763
C60	C	1.229012	-0.488999	0.076237
C61	C	0.705546	-1.032291	-0.380522
C62	C	1.205546	-0.532291	0.119478
C63	C	0.705530	-1.118893	-0.294058
C64	C	1.205530	-0.618893	0.205942
C65	C	0.658614	-1.118868	-0.294048
C66	C	1.158614	-0.618868	0.205952
C67	C	0.635163	-1.075554	-0.337275
C68	C	1.135163	-0.575554	0.162725
C69	C	0.658630	-1.032266	-0.380511
C70	C	1.158630	-0.532266	0.119489
C71	C	0.705560	-0.945688	-0.466997
C72	C	1.205560	-0.445688	0.033003
C73	C	0.658638	-0.945672	-0.466988
C74	C	1.158638	-0.445672	0.033012
C75	C	0.635172	-0.988964	-0.423747
C76	C	1.135172	-0.488964	0.076253
C77	C	0.588263	-0.988926	-0.423728
C78	C	1.088263	-0.488926	0.076272
N79	N	0.564795	-1.032220	-0.380495
N80	N	1.064795	-0.532220	0.119505
C81	C	0.588245	-1.075534	-0.337268
C82	C	1.088245	-0.575534	0.162732
C83	C	1.015219	-0.989129	-0.423801
C84	C	1.515219	-0.489129	0.076199
C85	C	1.062138	-0.989149	-0.423807
C86	C	1.562138	-0.489149	0.076193
C87	C	1.062120	-1.075760	-0.337343
C88	C	1.562120	-0.575760	0.162657
C89	C	1.015200	-1.075736	-0.337334
C90	C	1.515200	-0.575736	0.162666
C91	C	0.991751	-1.032423	-0.380568
C92	C	1.491751	-0.532423	0.119432
C93	C	0.489717	-1.075477	-0.337250
C94	C	0.989717	-0.575477	0.162750
C95	C	0.442797	-1.075446	-0.337242
C96	C	0.942797	-0.575446	0.162758
C97	C	0.442819	-0.988839	-0.423708
C98	C	0.942819	-0.488839	0.076292
C99	C	0.489735	-0.988867	-0.423714
C100	C	0.989735	-0.488867	0.076286
C101	C	0.513183	-1.032192	-0.380483
C102	C	1.013183	-0.532192	0.119517
O103	O	0.563968	-0.952092	-0.460453
O104	O	1.063968	-0.452092	0.039547
O105	O	0.563970	-1.112357	-0.300507
O106	O	1.063970	-0.612357	0.199493
C107	C	0.775913	-1.075630	-0.337305
C108	C	1.275913	-0.575630	0.162695
C109	C	0.799379	-1.032341	-0.380542
C110	C	1.299379	-0.532341	0.119458
C111	C	0.775929	-0.989028	-0.423769
C112	C	1.275929	-0.489028	0.076231
C113	C	0.846297	-1.032361	-0.380548
C114	C	1.346297	-0.532361	0.119452
C115	C	0.869747	-1.075675	-0.337321
C116	C	1.369747	-0.575675	0.162679
C117	C	0.846279	-1.118969	-0.294088
C118	C	1.346279	-0.618969	0.205912
C119	C	0.799363	-1.118944	-0.294078
C120	C	1.299363	-0.618944	0.205922
C121	C	0.799397	-0.945734	-0.467001
C122	C	1.299397	-0.445734	0.032999
C123	C	0.846313	-0.945762	-0.467007
C124	C	1.346313	-0.445762	0.032993
C125	C	0.869763	-0.989076	-0.423781
C126	C	1.369763	-0.489076	0.076219
C127	C	0.257569	-1.039666	-0.564373
C128	C	0.757569	-0.539666	-0.064373
C129	C	0.259647	-1.042826	-0.642729
C130	C	0.759647	-0.542826	-0.142729
C131	C	0.257615	-1.216123	-0.387897
C132	C	0.757615	-0.716123	0.112103
C133	C	0.259712	-1.294478	-0.391050
C134	C	0.759712	-0.794478	0.108950
C135	C	0.274692	-0.735725	-0.413521
C136	C	0.774692	-0.235725	0.086479
C137	C	0.272726	-0.662102	-0.410578
C138	C	0.772726	-0.162102	0.089422
C139	C	0.241776	-0.623495	-0.364105
C140	C	0.741776	-0.123495	0.135895
C141	C	0.212786	-0.658514	-0.320578
C142	C	0.712786	-0.158514	0.179422
C143	C	0.214750	-0.732136	-0.323525
C144	C	0.714750	-0.232136	0.176475
C145	C	0.232687	-0.403119	-0.350470
C146	C	0.732687	0.096881	0.149530
C147	C	0.230726	-0.329492	-0.347525
C148	C	0.730726	0.170508	0.152475
C149	C	0.290665	-0.333085	-0.437525
C150	C	0.790665	0.166915	0.062475
C151	C	0.292628	-0.406708	-0.440465
C152	C	0.792628	0.093292	0.059535
C153	C	0.263637	-0.441721	-0.396941
C154	C	0.763637	0.058279	0.103059
N155	N	0.239767	-0.548241	-0.361094
N156	N	0.739767	-0.048241	0.138906
N157	N	0.265644	-0.516973	-0.399956
N158	N	0.765644	-0.016973	0.100044
C159	C	0.230687	-0.999266	-0.677740
C160	C	0.730687	-0.499266	-0.177740
C161	C	0.232643	-1.002232	-0.751363
C162	C	0.732643	-0.502232	-0.251363
C163	C	0.263557	-1.048762	-0.789974
C164	C	0.763557	-0.548762	-0.289974
C165	C	0.292519	-1.092324	-0.754958
C166	C	0.792519	-0.592324	-0.254958
C167	C	0.290565	-1.089354	-0.681336
C168	C	0.790565	-0.589354	-0.181336
C169	C	0.272613	-1.062473	-1.010355
C170	C	0.772613	-0.562473	-0.510355
C171	C	0.274564	-1.065442	-1.083982
C172	C	0.774564	-0.565442	-0.583982
C173	C	0.214688	-0.975348	-1.080382
C174	C	0.714688	-0.475348	-0.580382
C175	C	0.212735	-0.972385	-1.006759
C176	C	0.712735	-0.472385	-0.506759
C177	C	0.241699	-1.015944	-0.971749
C178	C	0.741699	-0.515944	-0.471749
N179	N	0.265556	-1.051797	-0.865230
N180	N	0.765556	-0.551797	-0.365230
N181	N	0.239702	-1.012905	-0.896495
N182	N	0.739702	-0.512905	-0.396495
C183	C	0.247805	-1.024905	-0.197343
C184	C	0.747805	-0.524905	0.302657
C185	C	0.245605	-1.021882	-0.118993
C186	C	0.745605	-0.521882	0.381007
H187	H	0.423692	-1.110699	-0.302027
H188	H	0.923692	-0.610699	0.197973
C189	C	0.632807	-1.166498	-0.246491
C190	C	1.132807	-0.666498	0.253509
H191	H	0.653499	-1.192299	-0.220758
H192	H	1.153499	-0.692299	0.279242
H193	H	0.612992	-1.138318	-0.214662
H194	H	1.112992	-0.638318	0.285338
H195	H	0.616017	-1.198276	-0.274722
H196	H	1.116017	-0.698276	0.225278
C197	C	0.322420	-1.137269	-0.642823
C198	C	0.822420	-0.637269	-0.142823
H199	H	0.341109	-1.165411	-0.676362
H200	H	0.841109	-0.665411	-0.176362
H201	H	0.340509	-1.109117	-0.613009
H202	H	0.840509	-0.609117	-0.113009
H203	H	0.305295	-1.166852	-0.615347
H204	H	0.805295	-0.666852	-0.115347
H205	H	0.187584	-0.627075	-0.282742
H206	H	0.687584	-0.127075	0.217258
C207	C	0.196686	-0.948076	-0.635274
C208	C	0.696686	-0.448076	-0.135274
H209	H	0.179723	-0.922552	-0.666672
H210	H	0.679723	-0.422552	-0.166672
H211	H	0.177070	-0.973901	-0.607645
H212	H	0.677070	-0.473901	-0.107645
H213	H	0.212293	-0.916179	-0.605313
H214	H	0.712293	-0.416179	-0.105313
C215	C	0.196676	-0.287025	-0.296407
C216	C	0.696676	0.212975	0.203593
H217	H	0.179689	-0.318422	-0.270912
H218	H	0.679689	0.181578	0.229088
H219	H	0.212247	-0.257041	-0.264490
H220	H	0.712247	0.242959	0.235510
H221	H	0.177082	-0.259422	-0.322291
H222	H	0.677082	0.240578	0.177709
C223	C	0.326688	-0.449173	-0.491557
C224	C	0.826688	0.050827	0.008443
H225	H	0.323714	-0.498033	-0.487065
H226	H	0.823714	0.001967	0.012935
H227	H	0.321115	-0.439051	-0.538470
H228	H	0.821115	0.060949	-0.038470
H229	H	0.356259	-0.436638	-0.480637
H230	H	0.856259	0.063362	0.019363
H231	H	0.314267	-0.304570	-0.472962
H232	H	0.814267	0.195430	0.027038
H233	H	0.724618	-1.154168	-0.258857
H234	H	1.224618	-0.654168	0.241143
H235	H	0.191144	-0.760643	-0.288086
H236	H	0.691144	-0.260643	0.211914
C237	C	0.200785	-0.954320	-0.789873
C238	C	0.700785	-0.454320	-0.289873
H239	H	0.182091	-0.926190	-0.756334
H240	H	0.682091	-0.426190	-0.256334
H241	H	0.217907	-0.924738	-0.817349
H242	H	0.717907	-0.424738	-0.317349
H243	H	0.182696	-0.982478	-0.819687
H244	H	0.682696	-0.482478	-0.319687
C245	C	0.872080	-1.166612	-0.246539
C246	C	1.372080	-0.666612	0.253461
H247	H	0.903383	-1.160425	-0.252746
H248	H	1.403383	-0.660425	0.247254
H249	H	0.862881	-1.154423	-0.198749
H250	H	1.362881	-0.654423	0.301251
H251	H	0.865900	-1.214386	-0.258803
H252	H	1.365900	-0.714386	0.241197
H253	H	0.187564	-0.934493	-0.975326
H254	H	0.687564	-0.434493	-0.475326
H255	H	0.423718	-0.953571	-0.458901
H256	H	0.923718	-0.453571	0.041099
C257	C	0.182833	-0.927432	-1.118891
C258	C	0.682833	-0.427432	-0.618891
H259	H	0.164141	-0.899298	-1.085351
H260	H	0.664141	-0.399298	-0.585351
H261	H	0.199957	-0.897853	-1.146367
H262	H	0.699957	-0.397853	-0.646367
H263	H	0.164741	-0.955585	-1.148705
H264	H	0.664741	-0.455585	-0.648705
H265	H	0.299738	-1.103335	-1.115418
H266	H	0.799738	-0.603335	-0.615418
H267	H	0.780307	-0.910463	-0.502203
H268	H	1.280307	-0.410463	-0.002203
H269	H	0.296202	-1.097934	-0.981858
H270	H	0.796202	-0.597934	-0.481858
C271	C	0.326521	-1.143512	-0.797425
C272	C	0.826521	-0.643512	-0.297425
H273	H	0.343490	-1.169026	-0.766027
H274	H	0.843490	-0.669026	-0.266027
H275	H	0.310919	-1.175407	-0.827387
H276	H	0.810919	-0.675407	-0.327387
H277	H	0.346138	-1.117679	-0.825052
H278	H	0.846138	-0.617679	-0.325052
C279	C	0.989392	-1.123361	-0.289775
C280	C	1.489392	-0.623361	0.210225
H281	H	1.010082	-1.149161	-0.264037
H282	H	1.510082	-0.649161	0.235963
H283	H	0.969576	-1.095178	-0.257950
H284	H	1.469576	-0.595178	0.242050
H285	H	0.972602	-1.155142	-0.318004
H286	H	1.472602	-0.655142	0.181996
C287	C	1.087920	-1.123402	-0.289792
C288	C	1.587920	-0.623402	0.210208
H289	H	1.119224	-1.117212	-0.295995
H290	H	1.619224	-0.617212	0.204005
H291	H	1.078719	-1.111214	-0.242003
H292	H	1.578719	-0.611214	0.257997
H293	H	1.081742	-1.171177	-0.302058
H294	H	1.581742	-0.671177	0.197942
C295	C	0.515503	-1.123128	-0.289692
C296	C	1.015503	-0.623128	0.210308
H297	H	0.494802	-1.148897	-0.263938
H298	H	0.994802	-0.648897	0.236062
H299	H	0.535316	-1.154925	-0.317913
H300	H	1.035316	-0.654925	0.182087
H301	H	0.532294	-1.094950	-0.257869
H302	H	1.032294	-0.594950	0.242131
C303	C	0.632847	-0.898028	-0.514547
C304	C	1.132847	-0.398028	-0.014547
H305	H	0.653545	-0.872248	-0.540295
H306	H	1.153545	-0.372248	-0.040295
H307	H	0.616053	-0.926200	-0.546364
H308	H	1.116053	-0.426200	-0.046364
H309	H	0.613035	-0.866229	-0.486317
H310	H	1.113035	-0.366229	0.013683
C311	C	0.304637	-0.623588	-0.458413
C312	C	0.804637	-0.123588	0.041587
H313	H	0.323362	-0.657124	-0.486493
H314	H	0.823362	-0.157124	0.013507
H315	H	0.287559	-0.596113	-0.488045
H316	H	0.787559	-0.096113	0.011955
H317	H	0.322692	-0.593772	-0.430196
H318	H	0.822692	-0.093772	0.069804
C319	C	1.087945	-0.941524	-0.471367
C320	C	1.587945	-0.441524	0.028633
H321	H	1.067256	-0.915733	-0.497114
H322	H	1.567256	-0.415733	0.002886
H323	H	1.104739	-0.909748	-0.443149
H324	H	1.604739	-0.409748	0.056851
H325	H	1.107757	-0.969719	-0.503196
H326	H	1.607757	-0.469719	-0.003196
H327	H	0.724658	-0.910432	-0.502205
H328	H	1.224658	-0.410432	-0.002205
C329	C	0.989430	-0.941475	-0.471353
C330	C	1.489430	-0.441475	0.028647
H331	H	1.010131	-0.915691	-0.497092
H332	H	1.510131	-0.415691	0.002908
H333	H	0.972637	-0.969638	-0.503178
H334	H	1.472637	-0.469638	-0.003178
H335	H	0.969620	-0.909680	-0.443118
H336	H	1.469620	-0.409680	0.056882
H337	H	0.508843	-0.953618	-0.458926
H338	H	1.008843	-0.453618	0.041074
C339	C	0.773556	-1.166570	-0.246518
C340	C	1.273556	-0.666570	0.253482
H341	H	0.794248	-1.192371	-0.220784
H342	H	1.294248	-0.692371	0.279216
H343	H	0.753742	-1.138387	-0.214690
H344	H	1.253742	-0.638387	0.285310
H345	H	0.756765	-1.198349	-0.274745
H346	H	1.256765	-0.698349	0.225255
H347	H	0.299896	-0.767154	-0.451361
H348	H	0.799896	-0.267154	0.048639
C349	C	0.872123	-0.898141	-0.514576
C350	C	1.372123	-0.398141	-0.014576
H351	H	0.903426	-0.904353	-0.508394
H352	H	1.403426	-0.404353	-0.008394
H353	H	0.865942	-0.910332	-0.562359
H354	H	1.365942	-0.410332	-0.062359
H355	H	0.862929	-0.850359	-0.502314
H356	H	1.362929	-0.350359	-0.002314
C357	C	0.200805	-0.441623	-0.302582
C358	C	0.700805	0.058377	0.197418
H359	H	0.182097	-0.408084	-0.274476
H360	H	0.682097	0.091916	0.225524
H361	H	0.182738	-0.471462	-0.330746
H362	H	0.682738	0.028538	0.169254
H363	H	0.217916	-0.469074	-0.272965
H364	H	0.717916	0.030926	0.227035
