data_functionalizedCrystal
_audit_creation_method	'MofGen! by Chris Wilmer'
_symmetry_space_group_name_H-M	'P1'
_symmetry_Int_Tables_number	1
_symmetry_cell_setting	triclinic
loop_
_symmetry_equiv_pos_as_xyz
  x,y,z
_cell_length_a	13.897449
_cell_length_b	21.295417
_cell_length_c	13.897441
_cell_angle_alpha	90.036423
_cell_angle_beta	90.020733
_cell_angle_gamma	90.031786
loop_
_atom_site_label
_atom_site_type_symbol
_atom_site_fract_x
_atom_site_fract_y
_atom_site_fract_z
Zn1	Zn	1.474617	-0.250568	0.545342
Zn2	Zn	1.474475	-0.355847	0.384027
Zn3	Zn	1.313306	-0.250598	0.384060
Zn4	Zn	1.313252	-0.355805	0.545280
O5	O	1.393912	-0.303204	0.464677
O6	O	1.609579	-0.264538	0.523955
O7	O	1.453059	-0.341915	0.249050
O8	O	1.334786	-0.162504	0.405495
O9	O	1.609475	-0.341886	0.405438
O10	O	1.453301	-0.162482	0.523988
O11	O	1.334649	-0.264589	0.249074
O12	O	1.178317	-0.264549	0.405434
O13	O	1.334694	-0.341815	0.680270
O14	O	1.178277	-0.341844	0.523881
O15	O	1.453248	-0.264498	0.680316
O16	O	1.453006	-0.443931	0.405378
O17	O	1.334556	-0.443900	0.523849
C18	C	1.143298	-0.303196	0.464655
C19	C	1.036084	-0.303207	0.464669
C20	C	0.839789	-0.303210	0.464694
C21	C	0.949021	-0.303207	0.464677
C22	C	1.393786	-0.466756	0.464624
C23	C	1.393820	-0.536724	0.464633
C24	C	1.455552	-0.569586	0.403008
C25	C	1.455597	-0.635328	0.403030
C26	C	1.393893	-0.668207	0.464667
C27	C	1.332157	-0.635337	0.526304
C28	C	1.332120	-0.569596	0.526287
N29	N	1.309512	-0.771473	0.472013
N30	N	1.309550	-0.833925	0.472023
C31	C	1.394001	-0.866281	0.464722
N32	N	1.478416	-0.833827	0.457392
N33	N	1.478377	-0.771370	0.457376
C34	C	1.393926	-0.739492	0.464692
C35	C	1.455787	-0.970428	0.403117
C36	C	1.455834	-1.036172	0.403146
C37	C	1.332386	-1.036180	0.526414
C38	C	1.332347	-0.970437	0.526391
C39	C	1.394047	-0.937565	0.464737
C40	C	1.645505	-0.303213	0.464700
C41	C	1.752719	-0.303217	0.464710
C42	C	1.393981	-0.303149	0.716270
C43	C	1.394010	-0.303125	0.823484
C44	C	1.394065	-0.139014	0.464752
C45	C	1.394131	-0.069046	0.464784
C46	C	1.393900	-0.303214	0.214063
C47	C	1.394057	-0.303061	0.106850
C48	C	1.394036	-0.303082	1.019780
C49	C	1.394018	-0.303108	0.910547
H50	H	1.505870	-0.662089	0.352848
O51	O	1.515537	-0.537584	0.343262
C52	C	1.577805	-0.499504	0.398227
H53	H	1.543741	-0.489639	0.471294
H54	H	1.590727	-0.453287	0.358939
H55	H	1.649295	-0.524793	0.408893
O56	O	1.272351	-0.667341	0.586224
C57	C	1.327257	-0.705293	0.648596
H58	H	1.400380	-0.715116	0.614642
H59	H	1.287985	-0.751539	0.661498
H60	H	1.337805	-0.679915	0.720083
H61	H	1.281850	-0.542839	0.576471
O62	O	1.515813	-0.938589	0.343203
C63	C	1.570299	-0.981695	0.288802
H64	H	1.573651	-1.028533	0.328331
H65	H	1.646291	-0.962657	0.278571
H66	H	1.535017	-0.988752	0.215516
O67	O	1.515986	-1.068095	0.343462
C68	C	1.578265	-1.106025	0.398510
H69	H	1.584054	-1.086168	0.474489
H70	H	1.652557	-1.106690	0.363772
H71	H	1.548548	-1.155887	0.401783
O72	O	1.272480	-1.068207	0.586202
C73	C	1.285770	-1.133280	0.573025
H74	H	1.317402	-1.142280	0.498615
H75	H	1.213531	-1.158306	0.579516
H76	H	1.337122	-1.151871	0.630290
O77	O	1.272280	-0.938609	0.586275
C78	C	1.217843	-0.981723	0.640700
H79	H	1.214553	-1.028609	0.601202
H80	H	1.141827	-0.962769	0.650912
H81	H	1.253127	-0.988654	0.713994
