data_functionalizedCrystal
_audit_creation_method	'MofGen! by Chris Wilmer'
_symmetry_space_group_name_H-M	'P1'
_symmetry_Int_Tables_number	1
_symmetry_cell_setting	triclinic
loop_
_symmetry_equiv_pos_as_xyz
  x,y,z
_cell_length_a	15.298708
_cell_length_b	15.297327
_cell_length_c	15.296720
_cell_angle_alpha	107.319222
_cell_angle_beta	107.326883
_cell_angle_gamma	107.405650
loop_
_atom_site_label
_atom_site_type_symbol
_atom_site_fract_x
_atom_site_fract_y
_atom_site_fract_z
Zn1	Zn	1.290660	-0.190887	-0.320087
Zn2	Zn	1.290550	-0.319532	-0.191505
Zn3	Zn	1.162063	-0.190951	-0.191482
Zn4	Zn	1.093955	-0.387553	-0.388037
O5	O	1.209307	-0.272231	-0.272778
O6	O	1.426740	-0.179459	-0.274603
O7	O	1.301963	-0.274035	-0.055430
O8	O	1.207671	-0.054826	-0.180095
O9	O	1.426659	-0.273974	-0.180134
O10	O	1.302151	-0.054779	-0.274581
O11	O	1.207564	-0.179567	-0.055413
O12	O	1.016934	-0.245524	-0.245983
O13	O	1.091591	-0.389905	-0.515095
O14	O	0.966895	-0.389966	-0.390391
O15	O	1.236110	-0.245416	-0.465173
O16	O	1.235921	-0.464672	-0.246022
O17	O	1.091484	-0.514646	-0.390413
C18	C	0.956626	-0.325134	-0.325559
C19	C	0.848519	-0.347794	-0.348166
C20	C	0.647884	-0.110567	-0.111486
C21	C	0.749457	-0.089271	-0.090245
C22	C	0.774228	-0.153900	-0.154723
C23	C	0.697415	-0.239829	-0.240447
C24	C	0.595831	-0.261122	-0.261695
C25	C	0.722175	-0.304456	-0.304932
C26	C	0.645362	-0.390384	-0.390655
C27	C	0.543790	-0.411675	-0.411899
C28	C	0.519019	-0.347045	-0.347420
C29	C	0.823759	-0.283162	-0.283684
C30	C	0.771706	-0.433717	-0.433892
C31	C	0.670133	-0.455013	-0.455133
C32	C	1.156322	-0.524952	-0.325609
C33	C	1.133737	-0.633055	-0.348225
C34	C	1.371057	-0.833569	-0.111389
C35	C	1.392278	-0.731999	-0.090136
C36	C	1.327645	-0.707258	-0.154657
C37	C	1.241787	-0.784096	-0.240434
C38	C	1.220560	-0.885676	-0.261685
C39	C	1.177147	-0.759365	-0.304952
C40	C	1.091290	-0.836203	-0.390729
C41	C	1.070067	-0.937772	-0.411977
C42	C	1.134700	-0.962513	-0.347456
C43	C	1.198374	-0.657786	-0.283701
C44	C	1.047877	-0.709893	-0.433996
C45	C	1.026657	-0.811462	-0.455249
C46	C	1.462974	-0.219122	-0.219792
C47	C	1.571071	-0.196490	-0.197212
C48	C	1.156265	-0.325241	-0.526402
C49	C	1.133662	-0.347830	-0.634482
C50	C	1.262521	-0.018522	-0.219756
C51	C	1.285197	0.089594	-0.197161
C52	C	1.370927	-0.110601	-0.835172
C53	C	1.392170	-0.089377	-0.733625
C54	C	1.327544	-0.153988	-0.708834
C55	C	1.241673	-0.239827	-0.785601
C56	C	1.220433	-0.261058	-0.887158
C57	C	1.177050	-0.304445	-0.760819
C58	C	1.091179	-0.390284	-0.837586
C59	C	1.069942	-0.411510	-0.939132
C60	C	1.134567	-0.346899	-0.963923
C61	C	1.198291	-0.283215	-0.659262
C62	C	1.047797	-0.433671	-0.711247
C63	C	1.026554	-0.454895	-0.812794
C64	C	1.262213	-0.219345	-0.020114
C65	C	1.285062	-0.196442	0.088062
H66	H	0.436312	-0.364384	-0.364707
O67	O	0.984961	-0.685923	-0.496615
C68	C	0.816105	-0.699499	-0.571821
C69	C	0.887246	-0.726705	-0.500872
H70	H	0.737083	-0.732477	-0.575303
H71	H	0.845944	-0.613709	-0.541913
H72	H	0.812611	-0.732231	-0.650836
H73	H	0.890771	-0.694040	-0.421838
H74	H	0.857380	-0.812501	-0.530864
O75	O	1.281775	-0.199939	-0.584661
C76	C	1.439773	-0.135378	-0.439804
C77	C	1.345286	-0.229782	-0.524255
H78	H	1.491137	-0.159470	-0.390930
H79	H	1.482388	-0.092836	-0.474909
H80	H	1.415701	-0.083923	-0.391008
H81	H	1.369270	-0.281312	-0.573080
H82	H	1.302693	-0.272246	-0.489084
H83	H	0.886291	-0.213195	-0.213889
O84	O	0.872946	-0.133095	-0.133916
C85	C	1.047272	-0.019900	-0.021041
C86	C	0.935511	-0.043354	-0.044481
H87	H	1.097888	0.052667	0.051256
H88	H	1.063382	-0.085116	-0.010631
H89	H	1.063283	-0.009854	-0.086448
H90	H	0.919421	-0.053381	0.020895
H91	H	0.919457	0.021873	-0.054930
O92	O	0.469297	-0.495210	-0.495188
C93	C	0.428391	-0.642267	-0.641958
C94	C	0.512851	-0.547711	-0.547657
H95	H	0.463573	-0.684729	-0.684417
H96	H	0.379543	-0.693744	-0.617843
H97	H	0.379522	-0.618286	-0.693466
H98	H	0.561792	-0.571600	-0.496108
H99	H	0.561626	-0.496257	-0.571844
O100	O	0.595599	-0.538432	-0.538512
C101	C	0.519985	-0.626926	-0.720258
C102	C	0.604459	-0.532421	-0.625916
H103	H	0.527107	-0.622088	-0.790949
H104	H	0.527110	-0.697584	-0.715355
H105	H	0.443148	-0.631037	-0.724311
H106	H	0.681335	-0.528212	-0.621803
H107	H	0.597245	-0.461808	-0.630858
H108	H	1.344927	-0.624554	-0.137346
O109	O	0.943338	-0.886071	-0.538676
C110	C	0.854899	-0.961577	-0.720424
C111	C	0.949316	-0.877047	-0.626032
H112	H	0.859690	-0.954297	-0.791073
H113	H	0.850821	-1.038448	-0.724610
H114	H	0.784244	-0.954522	-0.715456
H115	H	1.020022	-0.884006	-0.630934
H116	H	0.953304	-0.800210	-0.621878
H117	H	1.462181	-0.669441	-0.020297
H118	H	1.423668	-0.853725	-0.058861
O119	O	0.823943	-0.005787	-0.006915
C120	C	0.864846	0.141337	0.139787
C121	C	0.780388	0.046806	0.045459
H122	H	0.829664	0.183896	0.182146
H123	H	0.913701	0.117433	0.191405
H124	H	0.913709	0.192704	0.115596
H125	H	0.731453	-0.004602	0.069556
H126	H	0.731606	0.070783	-0.006137
H127	H	1.344846	-0.136703	-0.626148
O128	O	1.114147	-1.061194	-0.368241
C129	C	1.089074	-1.221175	-0.486790
C130	C	1.112373	-1.109436	-0.463372
H131	H	1.087611	-1.260217	-0.563713
H132	H	1.150035	-1.225707	-0.426005
H133	H	1.012249	-1.260341	-0.488013
H134	H	1.189169	-1.070201	-0.462164
H135	H	1.051351	-1.104977	-0.524162
O136	O	1.475594	-0.005932	-0.659185
C137	C	1.622654	0.141026	-0.618346
C138	C	1.528193	0.046565	-0.702752
H139	H	1.665218	0.183485	-0.653538
H140	H	1.598673	0.192548	-0.569501
H141	H	1.674042	0.116931	-0.569499
H142	H	1.476764	0.070568	-0.751670
H143	H	1.552247	-0.004935	-0.751523
H144	H	1.000147	-1.000333	-0.481813
O145	O	0.623643	-0.047915	-0.048952
C146	C	0.490216	-0.013947	-0.015180
C147	C	0.517524	-0.085011	-0.086072
H148	H	0.404418	-0.043901	-0.045177
H149	H	0.522940	-0.010324	0.063898
H150	H	0.523084	0.065045	-0.011813
H151	H	0.484662	-0.164038	-0.089526
H152	H	0.484816	-0.088547	-0.165113
O153	O	0.795880	-0.496358	-0.496531
C154	C	0.880311	-0.513047	-0.606621
C155	C	0.853017	-0.442001	-0.535694
H156	H	0.926492	-0.469132	-0.638322
H157	H	0.926624	-0.544505	-0.562604
H158	H	0.807950	-0.578129	-0.671507
H159	H	0.925324	-0.376867	-0.470796
H160	H	0.806664	-0.410622	-0.579784
H161	H	0.956637	-0.524786	-0.875311
O162	O	1.281664	-0.583117	-0.200303
C163	C	1.346268	-0.438244	-0.042319
C164	C	1.251849	-0.522771	-0.136710
H165	H	1.322198	-0.389419	0.009112
H166	H	1.388822	-0.473321	0.000219
H167	H	1.397699	-0.389371	-0.066449
H168	H	1.200343	-0.571674	-0.112667
H169	H	1.209373	-0.487629	-0.179226
O170	O	1.113902	-0.367692	-1.062605
C171	C	1.088914	-0.486137	-1.222592
C172	C	1.112297	-0.462731	-1.110865
H173	H	1.087630	-0.562965	-1.261638
H174	H	1.012041	-0.487558	-1.261743
H175	H	1.149839	-0.425167	-1.227089
H176	H	1.051437	-0.523674	-1.106276
H177	H	1.189201	-0.461273	-1.071763
H178	H	1.423540	-0.058009	-0.855369
O179	O	0.986466	-0.494915	-1.013579
C180	C	0.839471	-0.641938	-1.054421
C181	C	0.933959	-0.547506	-0.970013
H182	H	0.797003	-0.684497	-1.019230
H183	H	0.787974	-0.617918	-1.103251
H184	H	0.863528	-0.693351	-1.103281
H185	H	0.909994	-0.496052	-0.921081
H186	H	0.985432	-0.571599	-0.921256
O187	O	0.985079	-0.496567	-0.687228
C188	C	0.909621	-0.665424	-0.700634
C189	C	0.980681	-0.594305	-0.727897
H190	H	0.906026	-0.744465	-0.733521
H191	H	0.939539	-0.635585	-0.614872
H192	H	0.830626	-0.668882	-0.733387
H193	H	1.059694	-0.590816	-0.695211
H194	H	0.950679	-0.624171	-0.813665
