data_functionalizedCrystal
_audit_creation_method	'MofGen! by Chris Wilmer'
_symmetry_space_group_name_H-M	'P1'
_symmetry_Int_Tables_number	1
_symmetry_cell_setting	triclinic
loop_
_symmetry_equiv_pos_as_xyz
  x,y,z
_cell_length_a	11.026607
_cell_length_b	8.559649
_cell_length_c	7.088929
_cell_angle_alpha	95.344185
_cell_angle_beta	82.422854
_cell_angle_gamma	89.182341
loop_
_atom_site_label
_atom_site_type_symbol
_atom_site_fract_x
_atom_site_fract_y
_atom_site_fract_z
O1	O	-1.535813	-0.664139	-0.158970
O2	O	-1.189421	-0.589938	-0.158975
O3	O	-1.393134	-0.403214	-0.158970
O4	O	-1.332099	-0.850862	-0.158975
O5	O	-1.420365	-0.378188	0.159005
O6	O	-1.216652	-0.564912	0.159001
O7	O	-1.563043	-0.639113	0.159005
Cu8	Cu	-1.392334	-0.599727	0.188037
Cu9	Cu	-1.360130	-0.629323	-0.188006
O10	O	-1.359330	-0.825836	0.159001
C11	C	-1.159102	-0.563736	0.000012
C12	C	-1.028190	-0.522929	0.000010
C13	C	-1.593363	-0.665315	0.000014
C14	C	-1.724273	-0.706123	0.000003
C15	C	-0.943884	-0.635604	0.000008
C16	C	-0.808580	-0.593431	0.000006
C17	C	-1.411375	-0.332502	0.000014
C18	C	-1.425142	-0.159083	0.000004
C19	C	-1.341089	-0.896549	0.000012
C20	C	-1.327321	-1.069969	0.000010
N21	N	-1.414993	-0.578912	0.452525
N22	N	-1.337482	-0.650128	-0.452495
H23	H	-0.971876	-0.763290	0.000017
H24	H	-1.519432	-0.102696	0.000020
C25	C	-0.990382	-0.350426	0.000012
N26	N	-0.961907	-0.220492	0.000010
H27	H	-1.257151	-0.723927	0.465857
H28	H	-1.233039	-0.126346	0.000015
H29	H	-1.495337	-0.505123	0.534183
H30	H	-0.752257	-0.833817	0.000015
C31	C	-0.770778	-0.420919	0.000007
N32	N	-0.742303	-0.290986	0.000006
