data_functionalizedCrystal
_audit_creation_method	'MofGen! by Chris Wilmer'
_symmetry_space_group_name_H-M	'P1'
_symmetry_Int_Tables_number	1
_symmetry_cell_setting	triclinic
loop_
_symmetry_equiv_pos_as_xyz
  x,y,z
_cell_length_a	12.759401
_cell_length_b	17.637651
_cell_length_c	12.759393
_cell_angle_alpha	78.751097
_cell_angle_beta	89.979062
_cell_angle_gamma	101.220604
loop_
_atom_site_label
_atom_site_type_symbol
_atom_site_fract_x
_atom_site_fract_y
_atom_site_fract_z
Zn1	Zn	1.521705	-0.314700	-0.509352
Zn2	Zn	1.486064	-0.446936	-0.298095
Zn3	Zn	1.345992	-0.314742	-0.333676
Zn4	Zn	1.310478	-0.446881	-0.473747
O5	O	1.416060	-0.380814	-0.403718
O6	O	1.663997	-0.332247	-0.481339
O7	O	1.467430	-0.429441	-0.155783
O8	O	1.399080	-0.204094	-0.386772
O9	O	1.637811	-0.429400	-0.326129
O10	O	1.528175	-0.204063	-0.515840
O11	O	1.364520	-0.332318	-0.181924
O12	O	1.194262	-0.332265	-0.352247
O13	O	1.338551	-0.429306	-0.625502
O14	O	1.168170	-0.429347	-0.455156
O15	O	1.493738	-0.332193	-0.651661
O16	O	1.432993	-0.557571	-0.291604
O17	O	1.303991	-0.557530	-0.420655
C18	C	1.143095	-0.380805	-0.403699
C19	C	1.026314	-0.380820	-0.403711
C20	C	0.957873	-0.431447	-0.457170
C21	C	0.848148	-0.431450	-0.457190
C22	C	0.875316	-0.330196	-0.350284
C23	C	0.985040	-0.330190	-0.350271
C24	C	0.690629	-0.459820	-0.573418
C25	C	0.622180	-0.510460	-0.626864
C26	C	0.637045	-0.587621	-0.622052
C27	C	0.720352	-0.614157	-0.563775
C28	C	0.788793	-0.563522	-0.510320
C29	C	0.773933	-0.486350	-0.515154
C30	C	1.142559	-0.301827	-0.234040
C31	C	1.211002	-0.251195	-0.180578
C32	C	1.196140	-0.174033	-0.185379
C33	C	1.112829	-0.147500	-0.243637
C34	C	1.044386	-0.198132	-0.297099
C35	C	1.059256	-0.275293	-0.292300
C36	C	1.360799	-0.586238	-0.348428
C37	C	1.337254	-0.674120	-0.324810
C38	C	1.595609	-0.962775	-0.583473
C39	C	1.573452	-1.045353	-0.561262
C40	C	1.439114	-1.045493	-0.426733
C41	C	1.461264	-0.962913	-0.448929
C42	C	1.539512	-0.921561	-0.527301
C43	C	1.405166	-0.921699	-0.392757
C44	C	1.427311	-0.839126	-0.414956
C45	C	1.505553	-0.797768	-0.493327
C46	C	1.561656	-0.838989	-0.549500
C47	C	1.326914	-0.963052	-0.314391
C48	C	1.270816	-0.921838	-0.258219
C49	C	1.292966	-0.839264	-0.280412
C50	C	1.371207	-0.797906	-0.358783
C51	C	1.236862	-0.798044	-0.224239
C52	C	1.259007	-0.715472	-0.246438
C53	C	1.393352	-0.715334	-0.380981
C54	C	1.690090	-0.380825	-0.403736
C55	C	1.806866	-0.380829	-0.403744
C56	C	1.416159	-0.380739	-0.677772
C57	C	1.416201	-0.380706	-0.794557
C58	C	1.471565	-0.174588	-0.459246
C59	C	1.495218	-0.086707	-0.482910
C60	C	1.497014	-0.330131	-0.863044
C61	C	1.497041	-0.330097	-0.972777
C62	C	1.335437	-0.431220	-0.945525
C63	C	1.335407	-0.431249	-0.835795
C64	C	1.559719	-0.236813	-1.147853
C65	C	1.640547	-0.186245	-1.216341
C66	C	1.746318	-0.174121	-1.184012
C67	C	1.771278	-0.212576	-1.083192
C68	C	1.690454	-0.263150	-1.014708
C69	C	1.584673	-0.275259	-1.047040
C70	C	1.272739	-0.524535	-0.660717
C71	C	1.191918	-0.575113	-0.592229
C72	C	1.086144	-0.587245	-0.624555
C73	C	1.061183	-0.548804	-0.725374
C74	C	1.142004	-0.498226	-0.793862
C75	C	1.247778	-0.486092	-0.761529
C76	C	1.416037	-0.380833	-0.130745
C77	C	1.416258	-0.380643	-0.014020
H78	H	0.856619	-0.585127	-0.462871
O79	O	1.637546	-0.798722	-0.625702
C80	C	1.590494	-0.750970	-0.706357
H81	H	1.514189	-0.738670	-0.672540
H82	H	1.570394	-0.782754	-0.775665
C83	C	1.763043	-0.687595	-0.788053
C84	C	1.669329	-0.672483	-0.746516
H85	H	1.811672	-0.639182	-0.812830
H86	H	1.794744	-0.719769	-0.733717
H87	H	1.746279	-0.714084	-0.845804
H88	H	1.686092	-0.646004	-0.688758
H89	H	1.637633	-0.640303	-0.800843
H90	H	1.154674	-0.364657	-0.230134
H91	H	1.659334	-0.929105	-0.647284
H92	H	0.991475	-0.472671	-0.500687
H93	H	0.554354	-0.488847	-0.674316
O94	O	1.007747	-0.636480	-0.557990
C95	C	1.030920	-0.712829	-0.534819
H96	H	1.120443	-0.708781	-0.547478
H97	H	0.985300	-0.750052	-0.590104
C98	C	0.886975	-0.756388	-0.402177
C99	C	0.996930	-0.751415	-0.417717
H100	H	0.866004	-0.780193	-0.329945
H101	H	0.871359	-0.704952	-0.417791
H102	H	0.848972	-0.787406	-0.448256
H103	H	1.034931	-0.720391	-0.371649
H104	H	1.012551	-0.802848	-0.402093
H105	H	0.581307	-0.628852	-0.665570
H106	H	1.207105	-0.955518	-0.194411
H107	H	1.710778	-0.294462	-0.932625
H108	H	0.841697	-0.288976	-0.306774
H109	H	0.678527	-0.396988	-0.577354
H110	H	1.212252	-0.606421	-0.510142
O111	O	1.257067	-0.480293	-0.985755
C112	C	1.274407	-0.469410	-1.097296
H113	H	1.362460	-0.443517	-1.119267
H114	H	1.223433	-0.427293	-1.139764
C115	C	1.135111	-0.581196	-1.105102
C116	C	1.243261	-0.549400	-1.132087
H117	H	1.115895	-0.630536	-1.126565
H118	H	1.123425	-0.588526	-1.029956
H119	H	1.092646	-0.546091	-1.140495
H120	H	1.285725	-0.584500	-1.096684
H121	H	1.254953	-0.542077	-1.207228
O122	O	0.963542	-0.172221	-0.353690
C123	C	0.965078	-0.093264	-0.346444
H124	H	1.048733	-0.064582	-0.326576
H125	H	0.905368	-0.091671	-0.280805
C126	C	0.831665	-0.083137	-0.478440
C127	C	0.934413	-0.047908	-0.454046
H128	H	0.812745	-0.055159	-0.544811
H129	H	0.830626	-0.136332	-0.483319
H130	H	0.781919	-0.081807	-0.423732
H131	H	0.984158	-0.049247	-0.508746
H132	H	0.935459	0.005289	-0.449179
O133	O	1.117569	-0.460915	-0.891744
C134	C	1.006882	-0.482484	-0.905607
H135	H	0.963190	-0.503300	-0.824042
H136	H	0.991473	-0.532198	-0.952322
C137	C	1.019476	-0.385199	-1.068011
C138	C	0.965811	-0.410760	-0.967830
H139	H	0.994141	-0.340959	-1.106396
H140	H	1.094049	-0.370670	-1.058674
H141	H	1.006631	-0.426635	-1.106926
H142	H	0.978669	-0.369329	-0.928912
H143	H	0.891240	-0.425281	-0.977162
O144	O	1.628065	-1.085267	-0.615916
C145	C	1.701842	-1.031058	-0.689877
H146	H	1.721309	-0.972223	-0.662654
H147	H	1.665659	-1.022242	-0.771988
C148	C	1.781101	-1.135491	-0.729959
C149	C	1.805018	-1.063231	-0.696518
H150	H	1.844744	-1.155337	-0.734060
H151	H	1.731394	-1.172013	-0.680133
H152	H	1.750947	-1.128134	-0.798382
H153	H	1.835159	-1.070590	-0.628091
H154	H	1.854733	-1.026710	-0.746333
O155	O	1.305385	-1.043263	-0.293020
C156	C	1.270939	-1.070808	-0.386278
H157	H	1.301644	-1.023185	-0.459612
H158	H	1.179822	-1.085490	-0.384486
C159	C	1.277203	-1.203885	-0.301439
C160	C	1.314924	-1.145396	-0.391509
H161	H	1.304331	-1.249896	-0.304665
H162	H	1.300407	-1.185329	-0.238608
H163	H	1.201275	-1.216110	-0.299956
H164	H	1.390850	-1.133164	-0.392984
H165	H	1.291735	-1.163951	-0.454341
O166	O	1.160778	-0.838306	-0.148239
C167	C	1.080065	-0.886052	-0.195165
H168	H	1.113776	-0.898357	-0.271511
H169	H	1.010728	-0.854260	-0.215181
C170	C	0.998618	-0.949417	-0.022484
C171	C	1.040025	-0.964536	-0.116249
H172	H	0.973915	-0.997828	0.026195
H173	H	1.052993	-0.917248	0.009131
H174	H	0.940842	-0.922922	-0.039179
H175	H	1.097807	-0.991021	-0.099556
H176	H	0.985658	-0.996711	-0.147860
H177	H	0.732437	-0.676992	-0.559851
H178	H	1.100716	-0.084673	-0.247530
H179	H	0.975054	-0.558685	-0.751696
H180	H	1.251870	-0.132812	-0.141835
H181	H	1.473593	-0.246674	-1.174182
O182	O	1.874077	-0.200689	-1.051942
C183	C	1.940066	-0.147822	-1.134017
H184	H	1.889689	-0.110509	-1.187348
H185	H	1.979371	-0.182476	-1.183831
C186	C	2.088979	-0.139496	-1.018836
C187	C	2.027106	-0.093662	-1.084333
H188	H	2.142673	-0.106089	-0.988191
H189	H	2.044523	-0.175115	-0.963542
H190	H	2.121723	-0.168371	-1.060359
H191	H	1.994353	-0.064795	-1.042808
H192	H	2.071559	-0.058036	-1.139620
O193	O	1.526874	-0.717557	-0.514902
C194	C	1.433565	-0.690006	-0.549227
H195	H	1.360284	-0.737628	-0.518414
H196	H	1.435231	-0.675318	-0.640350
C197	C	1.518381	-0.556935	-0.543100
C198	C	1.428377	-0.615422	-0.505246
H199	H	1.515182	-0.510926	-0.515975
H200	H	1.581248	-0.575496	-0.519978
H201	H	1.519760	-0.544704	-0.619034
H202	H	1.427007	-0.627659	-0.429314
H203	H	1.365510	-0.596862	-0.528354
H204	H	1.278836	-0.272806	-0.133139
H205	H	1.213325	-0.681915	-0.200697
H206	H	1.457077	-0.681663	-0.444792
H207	H	1.375403	-1.079173	-0.362925
H208	H	1.562800	-0.288974	-0.829472
H209	H	1.812129	-0.132947	-1.239784
H210	H	1.620215	-0.154935	-1.298429
H211	H	1.358868	-0.514655	-0.634384
