data_functionalizedCrystal
_audit_creation_method	'MofGen! by Chris Wilmer'
_symmetry_space_group_name_H-M	'P1'
_symmetry_Int_Tables_number	1
_symmetry_cell_setting	triclinic
loop_
_symmetry_equiv_pos_as_xyz
  x,y,z
_cell_length_a	14.044220
_cell_length_b	15.944551
_cell_length_c	13.101039
_cell_angle_alpha	93.361595
_cell_angle_beta	86.340132
_cell_angle_gamma	88.343808
loop_
_atom_site_label
_atom_site_type_symbol
_atom_site_fract_x
_atom_site_fract_y
_atom_site_fract_z
O1	O	1.262927	0.198266	-0.085109
O2	O	0.986959	0.190957	-0.085135
O3	O	1.132479	0.072901	-0.085112
O4	O	1.117408	0.316322	-0.085132
O5	O	1.122038	0.081387	0.085316
O6	O	0.976518	0.199443	0.085293
O7	O	1.252486	0.206752	0.085319
Zn8	Zn	1.112845	0.204444	0.112365
Zn9	Zn	1.126601	0.193264	-0.112181
O10	O	1.106967	0.324807	0.085296
C11	C	0.946424	0.192001	0.000076
C12	C	0.841198	0.182459	0.000066
C13	C	0.648535	0.165017	0.000088
C14	C	0.590906	0.232688	0.000087
C15	C	0.483701	0.222982	0.000099
C16	C	0.755749	0.174721	0.000076
C17	C	1.126633	0.045803	0.000102
C18	C	1.124757	-0.047583	0.000102
C19	C	1.030074	-0.269531	0.000079
C20	C	1.068894	-0.323071	0.084115
C21	C	1.121364	-0.218563	0.000094
C22	C	1.079209	-0.331419	-0.083914
C23	C	1.118080	-0.383723	0.000082
C24	C	1.160204	-0.270871	0.084199
C25	C	1.170512	-0.279217	-0.083905
C26	C	1.209397	-0.332734	0.000151
C27	C	1.123253	-0.123419	0.000102
C28	C	1.116197	-0.478865	0.000081
C29	C	1.293021	0.205707	0.000106
C30	C	1.398248	0.215249	0.000108
C31	C	1.112813	0.351905	0.000079
C32	C	1.114689	0.445291	0.000072
N33	N	1.103463	0.212075	0.265612
N34	N	1.135990	0.185628	-0.265429
C35	C	1.090699	0.222464	0.474653
C36	C	1.148750	0.175242	0.525537
C37	C	1.141649	0.181022	0.641855
C38	C	1.097800	0.216684	0.358325
H39	H	0.622082	0.297911	0.000076
H40	H	1.035671	0.267230	0.518441
H41	H	1.285236	-0.360212	0.000205
C42	C	0.642471	0.028919	-0.087524
C43	C	0.606458	0.076970	0.000089
H44	H	0.616490	-0.025438	-0.087522
H45	H	0.625310	0.055618	-0.146941
H46	H	0.710040	0.023978	-0.087517
H47	H	0.538890	0.081916	0.000078
H48	H	0.623614	0.050264	0.059522
H49	H	0.954293	-0.241893	0.000156
H50	H	1.025929	-0.342534	0.155153
C51	C	1.230310	-0.165085	-0.178262
C52	C	1.228469	-0.252906	-0.179805
H53	H	1.266091	-0.148842	-0.237469
H54	H	1.166933	-0.142510	-0.177670
H55	H	1.259173	-0.144345	-0.118604
H56	H	1.199600	-0.273645	-0.239458
H57	H	1.291859	-0.275490	-0.180406
H58	H	1.044938	-0.357926	-0.154965
C59	C	1.207692	-0.147475	0.179377
C60	C	1.206399	-0.235211	0.180219
H61	H	1.236203	-0.125461	0.238660
H62	H	1.243554	-0.132141	0.119791
H63	H	1.144192	-0.125322	0.179128
H64	H	1.269900	-0.257366	0.180460
H65	H	1.170538	-0.250553	0.239822
H66	H	1.203784	0.130473	0.481744
