data_functionalizedCrystal
_audit_creation_method	'MofGen! by Chris Wilmer'
_symmetry_space_group_name_H-M	'P1'
_symmetry_Int_Tables_number	1
_symmetry_cell_setting	triclinic
loop_
_symmetry_equiv_pos_as_xyz
  x,y,z
_cell_length_a	19.121063
_cell_length_b	19.121224
_cell_length_c	19.120904
_cell_angle_alpha	89.871359
_cell_angle_beta	85.258387
_cell_angle_gamma	84.998699
loop_
_atom_site_label
_atom_site_type_symbol
_atom_site_fract_x
_atom_site_fract_y
_atom_site_fract_z
Zn1	Zn	-0.254550	-1.043555	0.452629
Zn2	Zn	0.245450	-0.543555	0.952629
Zn3	Zn	-0.367201	-1.043468	0.339976
Zn4	Zn	0.132799	-0.543468	0.839976
Zn5	Zn	-0.254127	-0.931340	0.330373
Zn6	Zn	0.245873	-0.431340	0.830373
Zn7	Zn	-0.377182	-0.920833	0.452560
Zn8	Zn	0.122818	-0.420833	0.952560
O9	O	-0.313265	-0.984799	0.393885
O10	O	0.186735	-0.484799	0.893885
O11	O	-0.265493	-1.141828	0.441733
O12	O	0.234507	-0.641828	0.941733
O13	O	-0.347847	-1.032955	0.240421
O14	O	0.152153	-0.532955	0.740421
O15	O	-0.155540	-0.950659	0.342601
O16	O	0.344460	-0.450659	0.842601
O17	O	-0.348257	-1.141765	0.358968
O18	O	0.151743	-0.641765	0.858968
O19	O	-0.155851	-1.033103	0.432422
O20	O	0.344149	-0.533103	0.932422
O21	O	-0.264773	-0.950575	0.233366
O22	O	0.235227	-0.450575	0.733366
O23	O	-0.274451	-0.831661	0.342534
O24	O	0.225549	-0.331661	0.842534
O25	O	-0.365269	-0.932751	0.550851
O26	O	0.134731	-0.432751	1.050851
O27	O	-0.364859	-0.823941	0.432304
O28	O	0.135141	-0.323941	0.932304
O29	O	-0.275172	-1.022915	0.550901
O30	O	0.224828	-0.522915	1.050901
O31	O	-0.467168	-1.022766	0.358901
O32	O	0.032832	-0.522766	0.858901
O33	O	-0.474502	-0.932667	0.441616
O34	O	0.025498	-0.432667	0.941616
C35	C	-0.320693	-0.802317	0.386370
C36	C	0.179307	-0.302317	0.886370
C37	C	-0.323889	-0.724249	0.383172
C38	C	0.176111	-0.224249	0.883172
C39	C	-0.344120	-0.282709	0.362946
C40	C	0.155880	0.217291	0.862946
C41	C	-0.341114	-0.356062	0.365945
C42	C	0.158886	0.143938	0.865945
C43	C	-0.296597	-0.392768	0.410612
C44	C	0.203403	0.107232	0.910612
C45	C	-0.255078	-0.356117	0.452278
C46	C	0.244922	0.143883	0.952278
C47	C	-0.258082	-0.282765	0.449275
C48	C	0.241918	0.217235	0.949275
C49	C	-0.285374	-0.614245	0.421835
C50	C	0.214626	-0.114245	0.921835
C51	C	-0.282375	-0.687602	0.424837
C52	C	0.217625	-0.187602	0.924837
C53	C	-0.368410	-0.687543	0.338502
C54	C	0.131590	-0.187543	0.838502
C55	C	-0.371412	-0.614190	0.335506
C56	C	0.128588	-0.114190	0.835506
C57	C	-0.329891	-0.577545	0.377169
C58	C	0.170109	-0.077545	0.877169
C59	C	-0.293524	-0.467747	0.413680
C60	C	0.206476	0.032253	0.913680
C61	C	-0.332960	-0.502567	0.374097
C62	C	0.167040	-0.002567	0.874097
C63	C	-0.496412	-0.976586	0.401309
C64	C	0.003588	-0.476586	0.901309
C65	C	-0.574762	-0.973135	0.404511
C66	C	-0.074762	-0.473135	0.904511
C67	C	-0.607729	-1.018457	0.362989
C68	C	-0.107729	-0.518457	0.862989
C69	C	-0.681347	-1.015216	0.366005
C70	C	-0.181347	-0.515216	0.866005
C71	C	-0.721996	-0.966649	0.410540
C72	C	-0.221996	-0.466649	0.910540
C73	C	-0.689024	-0.921325	0.452067
C74	C	-0.189024	-0.421325	0.952067
C75	C	-0.615407	-0.924570	0.449054
C76	C	-0.115407	-0.424570	0.949054
C77	C	-0.944463	-0.954505	0.421793
C78	C	-0.444463	-0.454505	0.921793
C79	C	-1.018084	-0.951262	0.424801
C80	C	-0.518084	-0.451262	0.924801
C81	C	-1.010402	-1.045155	0.338739
C82	C	-0.510402	-0.545155	0.838739
C83	C	-0.936785	-1.048393	0.335728
C84	C	-0.436785	-0.548393	0.835728
C85	C	-0.903819	-1.003071	0.377257
C86	C	-0.403819	-0.503071	0.877257
C87	C	-0.797246	-0.963333	0.413622
C88	C	-0.297246	-0.463333	0.913622
C89	C	-0.828571	-1.006391	0.374178
C90	C	-0.328571	-0.506391	0.874178
C91	C	-0.129403	-0.993063	0.386448
C92	C	0.370597	-0.493063	0.886448
C93	C	-0.051052	-0.996584	0.383278
C94	C	0.448948	-0.496584	0.883278
C95	C	-0.321381	-0.976671	0.577072
C96	C	0.178619	-0.476671	1.077072
C97	C	-0.324840	-0.973207	0.655135
C98	C	0.175160	-0.473207	1.155135
C99	C	-0.305802	-0.167994	0.401421
C100	C	0.194198	0.332006	0.901421
C101	C	-0.302606	-0.246062	0.404610
C102	C	0.197394	0.253938	0.904610
C103	C	-0.305128	-0.992938	0.211410
C104	C	0.194872	-0.492938	0.711410
C105	C	-0.301466	-0.996547	0.133345
C106	C	0.198534	-0.496547	0.633345
C107	C	-0.279558	-1.018520	0.691837
C108	C	0.220442	-0.518520	1.191837
C109	C	-0.282805	-1.015257	0.765185
C110	C	0.217195	-0.515257	1.265185
C111	C	-0.331338	-0.966684	0.801831
C112	C	0.168662	-0.466684	1.301831
C113	C	-0.376622	-0.921366	0.765123
C114	C	0.123378	-0.421366	1.265123
C115	C	-0.373371	-0.924626	0.691776
C116	C	0.126629	-0.424626	1.191776
C117	C	-0.343498	-0.954489	1.023290
C118	C	0.156502	-0.454489	1.523290
C119	C	-0.346748	-0.951233	1.096643
C120	C	0.153252	-0.451233	1.596643
C121	C	-0.252929	-1.045125	1.096699
C122	C	0.247071	-0.545125	1.596699
C123	C	-0.249685	-1.048383	1.023351
C124	C	0.250315	-0.548383	1.523351
C125	C	-0.294967	-1.003063	0.986650
C126	C	0.205033	-0.503063	1.486650
C127	C	-0.334660	-0.963349	0.876804
C128	C	0.165340	-0.463349	1.376804
C129	C	-0.291641	-1.006395	0.911677
C130	C	0.208359	-0.506395	1.411677
H131	H	-0.407662	-0.584309	0.299133
H132	H	0.092338	-0.084309	0.799133
N133	N	-0.410816	-0.724986	0.295953
N134	N	0.089184	-0.224986	0.795953
N135	N	-0.408132	-0.790478	0.298638
N136	N	0.091868	-0.290478	0.798638
H137	H	-0.438082	-0.816924	0.268585
H138	H	0.061918	-0.316924	0.768585
H139	H	-1.037251	-1.082054	0.304930
H140	H	-0.537251	-0.582054	0.804930
N141	N	-0.787062	-1.056007	0.328688
N142	N	-0.287062	-0.556007	0.828688
N143	N	-0.792791	-1.120245	0.336394
N144	N	-0.292791	-0.620245	0.836394
H145	H	-0.763471	-1.155286	0.304265
H146	H	-0.263471	-0.655286	0.804265
N147	N	-0.910790	-0.908222	0.464218
N148	N	-0.410790	-0.408222	0.964218
N149	N	-0.870658	-0.932729	0.508331
N150	N	-0.370658	-0.432729	1.008331
H151	H	-0.846875	-0.900042	0.538300
H152	H	-0.346875	-0.400042	1.038300
N153	N	-0.895269	-1.097982	0.290209
N154	N	-0.395269	-0.597982	0.790209
N155	N	-0.853274	-1.077075	0.242735
N156	N	-0.353274	-0.577075	0.742735
H157	H	-0.823958	-1.112090	0.210574
H158	H	-0.323958	-0.612090	0.710574
H159	H	-0.218828	-0.386008	0.488644
H160	H	0.281172	0.113992	0.988644
N161	N	-0.236563	-1.061555	0.802678
N162	N	0.263437	-0.561555	1.302678
N163	N	-0.261362	-1.103374	0.846456
N164	N	0.238638	-0.603374	1.346456
H165	H	-0.228702	-1.136073	0.872936
H166	H	0.271298	-0.636073	1.372936
H167	H	-0.708186	-1.052121	0.332193
H168	H	-0.208186	-0.552121	0.832193
N169	N	-0.206674	-1.091400	1.134200
N170	N	0.293326	-0.591400	1.634200
N171	N	-0.164577	-1.066884	1.172293
N172	N	0.335423	-0.566884	1.672293
H173	H	-0.131906	-1.099566	1.198779
H174	H	0.368094	-0.599566	1.698779
H175	H	-0.722126	-0.881783	0.488331
H176	H	-0.222126	-0.381783	0.988331
H177	H	-0.246119	-0.717486	0.461209
H178	H	0.253881	-0.217486	0.961209
H179	H	-0.224274	-0.252928	0.483200
H180	H	0.275726	0.247072	0.983200
N181	N	-0.383513	-0.393494	0.323377
N182	N	0.116487	0.106506	0.823377
N183	N	-0.376201	-0.388371	0.258049
N184	N	0.123799	0.111629	0.758049
H185	H	-0.406146	-0.414806	0.227982
H186	H	0.093854	0.085194	0.727982
H187	H	-0.574637	-1.058003	0.326721
H188	H	-0.074637	-0.558003	0.826721
H189	H	-0.380374	-0.252828	0.326576
H190	H	0.119626	0.247172	0.826576
H191	H	-1.051179	-0.911721	0.461079
H192	H	-0.551179	-0.411721	0.961079
H193	H	-0.252122	-1.045940	0.881837
H194	H	0.247878	-0.545940	1.381837
N195	N	-0.581740	-0.878274	0.491477
N196	N	-0.081740	-0.378274	0.991477
N197	N	-0.618040	-0.834914	0.531240
N198	N	-0.118040	-0.334914	1.031240
H199	H	-0.594265	-0.802218	0.561206
H200	H	-0.094265	-0.302218	1.061206
H201	H	-0.830350	-0.923788	0.449881
H202	H	-0.330350	-0.423788	0.949881
N203	N	-0.229982	-1.068146	0.654419
N204	N	0.270018	-0.568146	1.154419
N205	N	-0.189555	-1.108599	0.687201
N206	N	0.310445	-0.608599	1.187201
H207	H	-0.154538	-1.143649	0.660777
H208	H	0.345462	-0.643649	1.160777
N209	N	-0.200111	-1.098011	0.985932
N210	N	0.299889	-0.598011	1.485932
N211	N	-0.159687	-1.138469	1.018711
N212	N	0.340313	-0.638469	1.518711
H213	H	-0.124677	-1.173523	0.992285
H214	H	0.375323	-0.673523	1.492285
H215	H	-0.369204	-0.472679	0.337727
H216	H	0.130796	0.027321	0.837727
N217	N	-0.396308	-0.901588	1.134064
N218	N	0.103692	-0.401588	1.634064
N219	N	-0.436719	-0.861112	1.101287
N220	N	0.063281	-0.361112	1.601287
H221	H	-0.471711	-0.826044	1.127714
H222	H	0.028289	-0.326044	1.627714
N223	N	-0.389756	-0.908192	0.985818
N224	N	0.110244	-0.408192	1.485818
N225	N	-0.433086	-0.864829	1.018549
N226	N	0.066914	-0.364829	1.518549
H227	H	-0.465759	-0.832129	0.992083
H228	H	0.034241	-0.332129	1.492083
H229	H	-0.257280	-0.497641	0.450050
H230	H	0.242720	0.002359	0.950050
H231	H	-0.416136	-0.881813	0.794966
H232	H	0.083864	-0.381813	1.294966
N233	N	-0.419626	-0.878330	0.654294
N234	N	0.080374	-0.378330	1.154294
N235	N	-0.462955	-0.834961	0.687019
N236	N	0.037045	-0.334961	1.187019
H237	H	-0.495622	-0.802260	0.660549
H238	H	0.004378	-0.302260	1.160549
N239	N	-0.384220	-0.913727	0.914248
N240	N	0.115780	-0.413727	1.414248
N241	N	-0.363036	-0.868275	0.952325
N242	N	0.136964	-0.368275	1.452325
H243	H	-0.398033	-0.833228	0.978775
H244	H	0.101967	-0.333228	1.478775
H245	H	-0.251568	-0.584418	0.455764
H246	H	0.248432	-0.084418	0.955764
