data_functionalizedCrystal
_audit_creation_method	'MofGen! by Chris Wilmer'
_symmetry_space_group_name_H-M	'P1'
_symmetry_Int_Tables_number	1
_symmetry_cell_setting	triclinic
loop_
_symmetry_equiv_pos_as_xyz
  x,y,z
_cell_length_a	12.759401
_cell_length_b	18.050590
_cell_length_c	12.759393
_cell_angle_alpha	89.964247
_cell_angle_beta	89.981504
_cell_angle_gamma	90.018713
loop_
_atom_site_label
_atom_site_type_symbol
_atom_site_fract_x
_atom_site_fract_y
_atom_site_fract_z
Zn1	Zn	1.606227	-0.295612	-0.593951
Zn2	Zn	2.106227	0.204388	-0.093951
Zn3	Zn	1.606110	-0.419823	-0.418258
Zn4	Zn	2.106110	0.080177	0.081742
Zn5	Zn	1.430529	-0.295651	-0.418290
Zn6	Zn	1.930529	0.204349	0.081710
Zn7	Zn	1.430506	-0.419765	-0.593900
Zn8	Zn	1.930506	0.080235	-0.093900
O9	O	1.518343	-0.357713	-0.506100
O10	O	2.018343	0.142287	-0.006100
O11	O	1.753233	-0.312097	-0.570653
O12	O	2.253233	0.187903	-0.070653
O13	O	1.582779	-0.403391	-0.271241
O14	O	2.082779	0.096609	0.228759
O15	O	1.453895	-0.191722	-0.441627
O16	O	1.953895	0.308278	0.058373
O17	O	1.753146	-0.403354	-0.441572
O18	O	2.253146	0.096646	0.058428
O19	O	1.582979	-0.191693	-0.570684
O20	O	2.082979	0.308307	-0.070684
O21	O	1.453781	-0.312163	-0.271265
O22	O	1.953781	0.187837	0.228735
O23	O	1.283505	-0.312108	-0.441577
O24	O	1.783505	0.187892	0.058423
O25	O	1.453855	-0.403256	-0.740927
O26	O	1.953855	0.096744	-0.240927
O27	O	1.283488	-0.403294	-0.570597
O28	O	1.783488	0.096706	-0.070597
O29	O	1.582957	-0.312041	-0.740965
O30	O	2.082957	0.187959	-0.240965
O31	O	1.582757	-0.523740	-0.441522
O32	O	2.082757	-0.023740	0.058478
O33	O	1.453741	-0.523698	-0.570565
O34	O	1.953741	-0.023698	-0.070565
C35	C	1.245376	-0.357699	-0.506085
C36	C	1.745376	0.142301	-0.006085
C37	C	1.128599	-0.357711	-0.506104
C38	C	1.628599	0.142289	-0.006104
C39	C	1.073756	-0.405268	-0.573173
C40	C	1.573756	0.094732	-0.073173
C41	C	0.964032	-0.405277	-0.573185
C42	C	1.464032	0.094723	-0.073185
C43	C	0.964004	-0.310171	-0.439049
C44	C	1.464004	0.189829	0.060951
C45	C	1.073726	-0.310159	-0.439043
C46	C	1.573726	0.189841	0.060957
C47	C	1.128629	-0.452820	-0.640234
C48	C	1.628629	0.047180	-0.140234
C49	C	1.073785	-0.500382	-0.707308
C50	C	1.573785	-0.000382	-0.207308
C51	C	0.964061	-0.500391	-0.707320
C52	C	1.464061	-0.000391	-0.207320
C53	C	0.909181	-0.452839	-0.640257
C54	C	1.409181	0.047161	-0.140257
C55	C	1.518262	-0.550665	-0.506058
C56	C	2.018262	-0.050665	-0.006058
C57	C	1.518324	-0.633211	-0.506075
C58	C	2.018324	-0.133211	-0.006075
C59	C	1.588628	-0.832657	-0.435999
C60	C	2.088628	-0.332657	0.064001
C61	C	1.614296	-0.881981	-0.531886
C62	C	2.114296	-0.381981	-0.031886
C63	C	1.518384	-0.784341	-0.506117
C64	C	2.018384	-0.284341	-0.006117
C65	C	1.492823	-0.882099	-0.410274
C66	C	1.992823	-0.382099	0.089726
C67	C	1.518443	-0.930326	-0.506149
C68	C	2.018443	-0.430326	-0.006149
C69	C	1.544100	-0.832578	-0.602054
C70	C	2.044100	-0.332578	-0.102054
C71	C	1.422583	-0.832691	-0.480377
C72	C	1.922583	-0.332691	0.019623
C73	C	1.448214	-0.881993	-0.576329
C74	C	1.948214	-0.381993	-0.076329
C75	C	1.518352	-0.700243	-0.506097
C76	C	2.018352	-0.200243	-0.006097
C77	C	1.518475	-1.014423	-0.506180
C78	C	2.018475	-0.514423	-0.006180
C79	C	1.792376	-0.357727	-0.506115
C80	C	2.292376	0.142273	-0.006115
C81	C	1.909153	-0.357733	-0.506121
C82	C	2.409153	0.142267	-0.006121
C83	C	1.518417	-0.357638	-0.780133
C84	C	2.018417	0.142362	-0.280133
C85	C	1.518448	-0.357606	-0.896910
C86	C	2.018448	0.142394	-0.396910
C87	C	1.518453	-0.164007	-0.506165
C88	C	2.018453	0.335993	-0.006165
C89	C	1.518500	-0.081462	-0.506192
C90	C	2.018500	0.418538	-0.006192
C91	C	1.585680	-0.310106	-0.951793
C92	C	2.085680	0.189894	-0.451793
C93	C	1.585705	-0.310079	-1.061517
C94	C	2.085705	0.189921	-0.561517
C95	C	1.451263	-0.405059	-1.061465
C96	C	1.951263	0.094941	-0.561465
C97	C	1.451233	-0.405081	-0.951743
C98	C	1.951233	0.094919	-0.451743
C99	C	1.652895	-0.262631	-0.896960
C100	C	2.152895	0.237369	-0.396960
C101	C	1.720134	-0.215128	-0.951844
C102	C	2.220134	0.284872	-0.451844
C103	C	1.720159	-0.215101	-1.061568
C104	C	2.220159	0.284899	-0.561568
C105	C	1.652945	-0.262577	-1.116408
C106	C	2.152945	0.237423	-0.616408
C107	C	1.518330	-0.357734	-0.233132
C108	C	2.018330	0.142266	0.266868
C109	C	1.518502	-0.357557	-0.116356
C110	C	2.018502	0.142443	0.383644
H111	H	1.118476	-0.539092	-0.761914
H112	H	1.618476	-0.039092	-0.261914
Cl113	Cl	1.577678	-0.799142	-0.727248
Cl114	Cl	2.077678	-0.299142	-0.227248
H115	H	1.648052	-0.810994	-0.376764
H116	H	2.148052	-0.310994	0.123236
H117	H	1.652885	-0.262649	-0.807617
H118	H	2.152885	0.237351	-0.307617
H119	H	0.819836	-0.452844	-0.640281
H120	H	1.319836	0.047156	-0.140281
H121	H	1.652959	-0.262543	-1.205753
H122	H	2.152959	0.237457	-0.705753
H123	H	1.341564	-0.811022	-0.458557
H124	H	1.841564	-0.311022	0.041443
H125	H	1.774850	-0.176469	-0.907185
H126	H	2.274850	0.323531	-0.407185
H127	H	1.695338	-0.903634	-0.553677
H128	H	2.195338	-0.403634	-0.053677
Cl129	Cl	0.895118	-0.560175	-0.791647
Cl130	Cl	1.395118	-0.060175	-0.291647
Cl131	Cl	0.895010	-0.250399	-0.354745
Cl132	Cl	1.395010	0.249601	0.145255
H133	H	1.118381	-0.271429	-0.384437
H134	H	1.618381	0.228571	0.115563
Cl135	Cl	1.356538	-0.915232	-0.668000
Cl136	Cl	1.856538	-0.415232	-0.168000
H137	H	1.774900	-0.176416	-1.106251
H138	H	2.274900	0.323584	-0.606251
H139	H	1.396540	-0.443712	-1.106125
H140	H	1.896540	0.056288	-0.606125
Cl141	Cl	1.366709	-0.464796	-0.882741
Cl142	Cl	1.866709	0.035204	-0.382741
Cl143	Cl	1.266567	-0.452814	-0.640221
Cl144	Cl	1.766567	0.047186	-0.140221
Cl145	Cl	1.459406	-0.915683	-0.285115
Cl146	Cl	1.959406	-0.415683	0.214885
