data_functionalizedCrystal
_audit_creation_method	'MofGen! by Chris Wilmer'
_symmetry_space_group_name_H-M	'P1'
_symmetry_Int_Tables_number	1
_symmetry_cell_setting	triclinic
loop_
_symmetry_equiv_pos_as_xyz
  x,y,z
_cell_length_a	10.654559
_cell_length_b	10.654558
_cell_length_c	16.053802
_cell_angle_alpha	92.590492
_cell_angle_beta	87.393302
_cell_angle_gamma	84.488408
loop_
_atom_site_label
_atom_site_type_symbol
_atom_site_fract_x
_atom_site_fract_y
_atom_site_fract_z
O1	O	1.673092	0.171211	-0.069439
O2	O	1.307616	0.188005	-0.069439
O3	O	1.498752	-0.003130	-0.069433
O4	O	1.481957	0.362346	-0.069445
O5	O	1.488231	0.007347	0.069425
O6	O	1.297095	0.198482	0.069420
O7	O	1.662571	0.181688	0.069419
Zn8	Zn	1.478163	0.191748	0.091466
Zn9	Zn	1.492025	0.177944	-0.091486
O10	O	1.471436	0.372823	0.069414
C11	C	1.255558	0.192008	-0.000009
C12	C	1.116115	0.188311	-0.000009
C13	C	1.064571	0.072300	-0.000005
C14	C	0.933550	0.068833	-0.000012
C15	C	0.905625	0.297401	-0.000025
C16	C	1.036645	0.300865	-0.000023
C17	C	0.774955	-0.076870	-0.048657
C18	C	0.723407	-0.192887	-0.048638
C19	C	0.774569	-0.288990	0.000026
C20	C	0.877277	-0.269079	0.048691
C21	C	0.928817	-0.153060	0.048679
C22	C	0.877659	-0.056963	-0.000004
C23	C	1.195242	0.446562	0.048629
C24	C	1.246784	0.562583	0.048623
C25	C	1.195623	0.658696	-0.000035
C26	C	1.092909	0.638799	-0.048688
C27	C	1.041367	0.522778	-0.048682
C28	C	1.092537	0.426664	-0.000025
C29	C	1.492256	-0.044690	-0.000004
C30	C	1.488560	-0.184133	-0.000005
C31	C	1.481087	-0.243943	0.075683
C32	C	1.477625	-0.374967	0.075675
C33	C	1.489105	-0.386357	-0.075716
C34	C	1.492576	-0.255337	-0.075707
C35	C	1.539439	-0.556159	0.166603
C36	C	1.531944	-0.615971	0.242296
C37	C	1.454540	-0.559441	0.309128
C38	C	1.384601	-0.443096	0.300271
C39	C	1.392085	-0.383290	0.224577
C40	C	1.469517	-0.439822	0.157748
C41	C	1.430751	-0.074140	-0.166629
C42	C	1.438226	-0.014330	-0.242324
C43	C	1.515623	-0.070857	-0.309163
C44	C	1.585544	-0.187204	-0.300315
C45	C	1.578069	-0.247015	-0.224620
C46	C	1.500675	-0.190478	-0.157781
C47	C	1.714630	0.177684	-0.000012
C48	C	1.854073	0.181381	-0.000018
C49	C	1.477932	0.414382	-0.000017
C50	C	1.481628	0.553824	-0.000022
N51	N	1.468711	0.201168	0.216326
N52	N	1.501486	0.168514	-0.216346
C53	C	1.550070	0.119869	0.260023
C54	C	1.543471	0.126471	0.347429
C55	C	1.455518	0.214378	0.391138
C56	C	1.374150	0.295680	0.347436
C57	C	1.380745	0.289072	0.260031
C58	C	1.426713	0.243208	0.652547
C59	C	1.420127	0.249813	0.739958
C60	C	1.589446	0.080601	0.739946
C61	C	1.596038	0.074006	0.652539
C62	C	1.514666	0.155304	0.608844
N63	N	1.448773	0.221130	0.480482
N64	N	1.521406	0.148544	0.519502
H65	H	0.732588	-0.383452	0.000041
H66	H	1.330415	0.578781	0.088247
C67	C	0.929902	0.501384	-0.101605
C68	C	0.896146	0.610373	-0.144242
C69	C	0.793488	0.590703	-0.193013
H70	H	0.860393	0.482978	-0.066626
H71	H	0.952684	0.432519	-0.140761
H72	H	0.873358	0.679217	-0.105091
H73	H	0.965624	0.628797	-0.179236
H74	H	0.816270	0.521839	-0.232168
H75	H	0.723988	0.572296	-0.158027
H76	H	0.770579	0.664644	-0.221953
H77	H	1.051246	0.717065	-0.088305
H78	H	1.602485	-0.602191	0.112191
H79	H	0.733299	0.001370	-0.088295
C80	C	0.932954	-0.373242	0.101622
C81	C	1.033907	-0.330963	0.144250
C82	C	1.085222	-0.426880	0.193025
H83	H	0.962245	-0.445373	0.066645
H84	H	0.869990	-0.394841	0.140782
H85	H	1.096860	-0.309381	0.105094
H86	H	1.004649	-0.258845	0.179241
H87	H	1.022258	-0.448478	0.232185
H88	H	1.114506	-0.499005	0.158042
H89	H	1.153717	-0.398203	0.221959
C90	C	1.669534	-0.248369	-0.372972
C91	C	1.661133	-0.171079	-0.441150
C92	C	1.738484	-0.227379	-0.508099
H93	H	1.642741	-0.328404	-0.388144
H94	H	1.754511	-0.258933	-0.356967
H95	H	1.576174	-0.160530	-0.457153
H96	H	1.687936	-0.091044	-0.426005
H97	H	1.823461	-0.237943	-0.492094
H98	H	1.711684	-0.307413	-0.523263
H99	H	1.732803	-0.174942	-0.554363
C100	C	1.362104	0.111900	-0.251870
C101	C	1.233377	0.098298	-0.238910
C102	C	1.163226	0.214557	-0.247690
H103	H	1.377487	0.139521	-0.306504
H104	H	1.386444	0.172369	-0.211967
H105	H	1.209045	0.037849	-0.278811
H106	H	1.217955	0.070696	-0.184278
H107	H	1.187566	0.275027	-0.207787
H108	H	1.178620	0.242169	-0.302325
H109	H	1.075879	0.205347	-0.238890
H110	H	1.367732	-0.028097	-0.112203
H111	H	1.588897	-0.710702	0.249501
H112	H	1.335169	-0.288547	0.217374
H113	H	0.639781	-0.209091	-0.088266
H114	H	0.840905	0.389038	-0.000035
H115	H	1.621696	0.048291	0.224441
H116	H	1.609718	0.060270	0.383006
H117	H	1.667656	0.002425	0.616953
H118	H	1.237592	0.753171	-0.000028
C119	C	1.677922	-0.007744	0.787236
C120	C	1.756373	-0.086127	0.730249
C121	C	1.837900	-0.167527	0.773781
H122	H	1.629855	-0.057983	0.821345
H123	H	1.728098	0.040456	0.821305
H124	H	1.706203	-0.134323	0.696195
H125	H	1.804467	-0.035923	0.696138
H126	H	1.888076	-0.119327	0.807850
H127	H	1.789823	-0.217757	0.807889
H128	H	1.891146	-0.220711	0.735123
H129	H	1.236916	0.368299	0.088248
H130	H	1.477806	-0.185971	0.137325
C131	C	1.324485	0.345289	0.787264
C132	C	1.254605	0.415045	0.730292
C133	C	1.166480	0.502988	0.773840
H134	H	1.367386	0.400695	0.821353
H135	H	1.269187	0.302212	0.821355
H136	H	1.309894	0.458120	0.696216
H137	H	1.211676	0.359673	0.696201
H138	H	1.111182	0.459911	0.807931
H139	H	1.209392	0.558385	0.807927
H140	H	1.119048	0.550320	0.735191
H141	H	1.360459	0.309407	0.616977
C142	C	1.300669	-0.381900	0.372944
C143	C	1.309108	-0.459161	0.441135
C144	C	1.231822	-0.402816	0.508101
H145	H	1.215681	-0.371311	0.356996
H146	H	1.327525	-0.301858	0.388071
H147	H	1.282245	-0.539180	0.426010
H148	H	1.394077	-0.469756	0.457107
H149	H	1.258678	-0.322774	0.523228
H150	H	1.146839	-0.392229	0.492145
H151	H	1.237546	-0.455223	0.554378
H152	H	1.448439	-0.608150	0.370758
H153	H	1.129273	-0.019350	0.000004
H154	H	1.302531	0.367252	0.383028
H155	H	1.314492	0.355272	0.224454
H156	H	1.012437	-0.136848	0.088303
H157	H	1.492372	-0.444347	-0.137350
H158	H	1.635000	-0.341757	-0.217422
H159	H	1.521647	-0.022180	-0.370813
