data_functionalizedCrystal
_audit_creation_method	'MofGen! by Chris Wilmer'
_symmetry_space_group_name_H-M	'P1'
_symmetry_Int_Tables_number	1
_symmetry_cell_setting	triclinic
loop_
_symmetry_equiv_pos_as_xyz
  x,y,z
_cell_length_a	16.959455
_cell_length_b	16.959453
_cell_length_c	18.215399
_cell_angle_alpha	89.971557
_cell_angle_beta	89.975868
_cell_angle_gamma	90.017008
loop_
_atom_site_label
_atom_site_type_symbol
_atom_site_fract_x
_atom_site_fract_y
_atom_site_fract_z
Zn1	Zn	1.208414	-0.314749	-0.416209
Zn2	Zn	1.208328	-0.446936	-0.293143
Zn3	Zn	1.076233	-0.314768	-0.293146
Zn4	Zn	1.076207	-0.446883	-0.416158
O5	O	1.142295	-0.380834	-0.354664
O6	O	1.319013	-0.332298	-0.399905
O7	O	1.190780	-0.429433	-0.190159
O8	O	1.093814	-0.204155	-0.309494
O9	O	1.318950	-0.429415	-0.309488
O10	O	1.190927	-0.204141	-0.399908
O11	O	1.093731	-0.332330	-0.190162
O12	O	0.965619	-0.332279	-0.309444
O13	O	1.093769	-0.429325	-0.519149
O14	O	0.965600	-0.429343	-0.399820
O15	O	1.190901	-0.332247	-0.519187
O16	O	1.190754	-0.557539	-0.309438
O17	O	1.093686	-0.557501	-0.399816
C18	C	0.936929	-0.380808	-0.354627
C19	C	0.849073	-0.380816	-0.354629
C20	C	0.477553	-0.431353	-0.307560
C21	C	0.477641	-0.330381	-0.401857
C22	C	0.560186	-0.330368	-0.401840
C23	C	0.601420	-0.380849	-0.354682
C24	C	0.560107	-0.431343	-0.307542
C25	C	0.601505	-0.279881	-0.448984
C26	C	0.684056	-0.279866	-0.448968
C27	C	0.725291	-0.330344	-0.401806
C28	C	0.683973	-0.380839	-0.354664
C29	C	0.725206	-0.431320	-0.307507
C30	C	0.683890	-0.481812	-0.260360
C31	C	0.601342	-0.481820	-0.260381
C32	C	0.807839	-0.330335	-0.401786
C33	C	0.807760	-0.431310	-0.307489
C34	C	1.142229	-0.586200	-0.354637
C35	C	1.142274	-0.674057	-0.354650
C36	C	1.192926	-1.045467	-0.401831
C37	C	1.091885	-1.045598	-0.307606
C38	C	1.091856	-0.963052	-0.307589
C39	C	1.142362	-0.921710	-0.354695
C40	C	1.192897	-0.962913	-0.401817
C41	C	1.041316	-0.921843	-0.260473
C42	C	1.041284	-0.839292	-0.260454
C43	C	1.091794	-0.797948	-0.307557
C44	C	1.142332	-0.839156	-0.354681
C45	C	1.192838	-0.797814	-0.401787
C46	C	1.243381	-0.839021	-0.448907
C47	C	1.243408	-0.921569	-0.448920
C48	C	1.091768	-0.715399	-0.307544
C49	C	1.192809	-0.715260	-0.401773
C50	C	1.348464	-0.380860	-0.354702
C51	C	1.436320	-0.380872	-0.354718
C52	C	1.142342	-0.380778	-0.546617
C53	C	1.142362	-0.380754	-0.628416
C54	C	1.142383	-0.174666	-0.354707
C55	C	1.142420	-0.086809	-0.354726
C56	C	1.192967	-0.330137	-0.893495
C57	C	1.192958	-0.330159	-0.816636
C58	C	1.091820	-0.431256	-0.816586
C59	C	1.091834	-0.431238	-0.893443
C60	C	1.142406	-0.380674	-0.931896
C61	C	1.142383	-0.380714	-0.778180
C62	C	1.142373	-0.380737	-0.694846
C63	C	1.142418	-0.380652	-1.015235
C64	C	1.142295	-0.380833	-0.163458
C65	C	1.142428	-0.380634	-0.081659
H66	H	0.717689	-0.238752	-0.487357
O67	O	1.037263	-0.485779	-0.775114
H68	H	1.072611	-0.526004	-0.740087
O69	O	1.037291	-0.485746	-0.934864
H70	H	1.072660	-0.525960	-0.969874
H71	H	1.284556	-0.955127	-0.487284
O72	O	1.247518	-0.275612	-0.934972
H73	H	1.282681	-0.240481	-0.895354
O74	O	0.852229	-0.485754	-0.256619
H75	H	0.889859	-0.526010	-0.289478
H76	H	0.717473	-0.522917	-0.221969
H77	H	0.841475	-0.289227	-0.440173
H78	H	1.234130	-0.289007	-0.785373
H79	H	0.567695	-0.522928	-0.221996
H80	H	0.443910	-0.472460	-0.269173
H81	H	0.444063	-0.289286	-0.440255
H82	H	0.567927	-0.238787	-0.487381
H83	H	1.284500	-0.805350	-0.487265
O84	O	1.247296	-0.670674	-0.452573
H85	H	1.233715	-0.686480	-0.510324
O86	O	1.247432	-1.089902	-0.452661
H87	H	1.238966	-1.154250	-0.444765
H88	H	1.050762	-1.079264	-0.269258
O89	O	0.986857	-0.966429	-0.209655
H90	H	0.995382	-1.030753	-0.217571
H91	H	1.050613	-0.681852	-0.269183
O92	O	0.986787	-0.794848	-0.209623
H93	H	0.951679	-0.837465	-0.176865
