data_functionalizedCrystal
_audit_creation_method	'MofGen! by Chris Wilmer'
_symmetry_space_group_name_H-M	'P1'
_symmetry_Int_Tables_number	1
_symmetry_cell_setting	triclinic
loop_
_symmetry_equiv_pos_as_xyz
  x,y,z
_cell_length_a	12.594517
_cell_length_b	25.639239
_cell_length_c	25.639234
_cell_angle_alpha	90.021106
_cell_angle_beta	90.011310
_cell_angle_gamma	90.038486
loop_
_atom_site_label
_atom_site_type_symbol
_atom_site_fract_x
_atom_site_fract_y
_atom_site_fract_z
Zn1	Zn	1.626994	-0.208205	0.295624
Zn2	Zn	1.960328	0.125128	0.628958
Zn3	Zn	2.293661	0.458462	0.962291
Zn4	Zn	1.626846	-0.295627	0.208189
Zn5	Zn	1.960179	0.037706	0.541522
Zn6	Zn	2.293513	0.371039	0.874855
Zn7	Zn	1.449029	-0.208208	0.208201
Zn8	Zn	1.782363	0.125126	0.541535
Zn9	Zn	2.115696	0.458459	0.874868
Zn10	Zn	1.448910	-0.295611	0.295591
Zn11	Zn	1.782243	0.037722	0.628925
Zn12	Zn	2.115577	0.371056	0.962258
O13	O	1.537945	-0.251913	0.251901
O14	O	1.871278	0.081421	0.585235
O15	O	2.204612	0.414754	0.918568
O16	O	1.775920	-0.219808	0.284034
O17	O	2.109254	0.113526	0.617368
O18	O	2.442587	0.446859	0.950701
O19	O	1.603246	-0.284039	0.135025
O20	O	1.936579	0.049294	0.468358
O21	O	2.269913	0.382628	0.801692
O22	O	1.472749	-0.135042	0.219817
O23	O	1.806082	0.198291	0.553151
O24	O	2.139415	0.531625	0.886484
O25	O	1.775811	-0.284037	0.219796
O26	O	2.109145	0.049297	0.553129
O27	O	2.442478	0.382630	0.886462
O28	O	1.603499	-0.135040	0.284046
O29	O	1.936832	0.198293	0.617380
O30	O	2.270165	0.531627	0.950713
O31	O	1.472605	-0.219812	0.135034
O32	O	1.805938	0.113521	0.468368
O33	O	2.139271	0.446855	0.801701
O34	O	1.300068	-0.219796	0.219785
O35	O	1.633401	0.113537	0.553119
O36	O	1.966734	0.446871	0.886452
O37	O	1.472545	-0.284008	0.368761
O38	O	1.805879	0.049325	0.702094
O39	O	2.139212	0.382658	1.035428
O40	O	1.299980	-0.284011	0.283991
O41	O	1.633313	0.049322	0.617324
O42	O	1.966647	0.382656	0.950657
O43	O	1.603383	-0.219792	0.368785
O44	O	1.936717	0.113542	0.702119
O45	O	2.270050	0.446875	1.035452
O46	O	1.603130	-0.368790	0.219764
O47	O	1.936464	-0.035457	0.553097
O48	O	2.269797	0.297876	0.886430
O49	O	1.472402	-0.368778	0.283978
O50	O	1.805735	-0.035445	0.617312
O51	O	2.139068	0.297888	0.950645
C52	C	1.261404	-0.251902	0.251886
C53	C	1.594737	0.081431	0.585219
C54	C	1.928071	0.414764	0.918553
C55	C	1.143098	-0.251910	0.251892
C56	C	1.476432	0.081423	0.585225
C57	C	1.809765	0.414756	0.918559
C58	C	1.537766	-0.387755	0.251877
C59	C	1.871099	-0.054422	0.585211
C60	C	2.204433	0.278911	0.918544
C61	C	1.537787	-0.445869	0.251885
C62	C	1.871120	-0.112536	0.585218
C63	C	2.204453	0.220797	0.918551
C64	C	1.073862	-0.216936	0.217037
C65	C	1.407195	0.116397	0.550371
C66	C	1.740529	0.449730	0.883704
C67	C	1.003017	-0.264625	0.204172
C68	C	1.336351	0.068708	0.537506
C69	C	1.669684	0.402041	0.870839
C70	C	1.003144	-0.204245	0.264766
C71	C	1.336478	0.129089	0.598099
C72	C	1.669811	0.462422	0.931432
C73	C	1.073812	-0.299624	0.239002
C74	C	1.407145	0.033709	0.572335
C75	C	1.740479	0.367042	0.905669
C76	C	1.073945	-0.239212	0.299618
C77	C	1.407278	0.094122	0.632951
C78	C	1.740612	0.427455	0.966284
C79	C	1.003132	-0.286934	0.286771
C80	C	1.336466	0.046400	0.620104
C81	C	1.669799	0.379733	0.953437
C82	C	1.606193	-0.806226	0.218522
C83	C	1.939526	-0.472893	0.551855
C84	C	2.272860	-0.139559	0.885189
C85	C	1.606234	-0.860830	0.218529
C86	C	1.939567	-0.527497	0.551862
C87	C	2.272901	-0.194164	0.885196
O88	O	1.664210	-0.889062	0.190136
O89	O	1.997543	-0.555728	0.523470
O90	O	2.330877	-0.222395	0.856803
N91	N	1.538132	-0.888152	0.251936
N92	N	1.871465	-0.554818	0.585269
N93	N	2.204799	-0.221485	0.918603
C94	C	1.469992	-0.860866	0.285342
C95	C	1.803325	-0.527533	0.618676
C96	C	2.136658	-0.194199	0.952009
O97	O	1.412070	-0.889119	0.313759
O98	O	1.745403	-0.555786	0.647092
O99	O	2.078737	-0.222452	0.980425
C100	C	1.469957	-0.806263	0.285337
C101	C	1.803290	-0.472929	0.618671
C102	C	2.136623	-0.139596	0.952004
C103	C	1.538056	-0.778944	0.251924
C104	C	1.871389	-0.445611	0.585258
C105	C	2.204722	-0.112277	0.918591
C106	C	1.674287	-0.778908	0.185112
C107	C	2.007621	-0.445574	0.518445
C108	C	2.340954	-0.112241	0.851779
C109	C	1.674244	-0.724307	0.185104
C110	C	2.007578	-0.390974	0.518438
C111	C	2.340911	-0.057640	0.851771
C112	C	1.606107	-0.697025	0.218507
C113	C	1.939440	-0.363692	0.551840
C114	C	2.272774	-0.030358	0.885174
C115	C	1.538013	-0.724344	0.251917
C116	C	1.871346	-0.391010	0.585250
C117	C	2.204679	-0.057677	0.918583
C118	C	1.401822	-0.778978	0.318746
C119	C	1.735156	-0.445645	0.652079
C120	C	2.068489	-0.112311	0.985412
C121	C	1.401794	-0.724371	0.318738
C122	C	1.735127	-0.391038	0.652072
C123	C	2.068460	-0.057704	0.985405
C124	C	1.469893	-0.697052	0.285325
C125	C	1.803226	-0.363719	0.618659
C126	C	2.136560	-0.030386	0.951992
C127	C	1.469832	-0.642461	0.285312
C128	C	1.803166	-0.309128	0.618645
C129	C	2.136499	0.024206	0.951978
N130	N	1.537935	-0.615140	0.251904
N131	N	1.871268	-0.281806	0.585238
N132	N	2.204601	0.051527	0.918571
C133	C	1.606072	-0.642422	0.218502
C134	C	1.939405	-0.309088	0.551835
C135	C	2.272739	0.024245	0.885169
C136	C	1.470072	-0.975537	0.285350
C137	C	1.803405	-0.642203	0.618684
C138	C	2.136739	-0.308870	0.952017
C139	C	1.470101	-1.030139	0.285353
C140	C	1.803434	-0.696806	0.618686
C141	C	2.136767	-0.363472	0.952019
C142	C	1.606345	-1.030100	0.218540
C143	C	1.939678	-0.696766	0.551873
C144	C	2.273012	-0.363433	0.885207
C145	C	1.606310	-0.975496	0.218535
C146	C	1.939643	-0.642163	0.551869
C147	C	2.272977	-0.308830	0.885202
C148	C	1.538174	-0.948215	0.251943
C149	C	1.871507	-0.614882	0.585276
C150	C	2.204841	-0.281549	0.918610
C151	C	1.605976	-0.527757	0.218488
C152	C	1.939309	-0.194423	0.551822
C153	C	2.272643	0.138910	0.885155
C154	C	1.605924	-0.473151	0.218482
C155	C	1.939257	-0.139818	0.551816
C156	C	2.272591	0.193515	0.885149
C157	C	1.469684	-0.473195	0.285297
C158	C	1.803018	-0.139862	0.618630
C159	C	2.136351	0.193471	0.951963
C160	C	1.469732	-0.527796	0.285301
C161	C	1.803065	-0.194463	0.618634
C162	C	2.136399	0.138871	0.951968
C163	C	1.537886	-0.555075	0.251895
C164	C	1.871220	-0.221742	0.585229
C165	C	2.204553	0.111591	0.918562
O166	O	1.411889	-0.614195	0.313691
O167	O	1.745223	-0.280862	0.647025
O168	O	2.078556	0.052472	0.980358
O169	O	1.663994	-0.614162	0.190095
O170	O	1.997327	-0.280829	0.523429
O171	O	2.330661	0.052505	0.856762
C172	C	1.815566	-0.251924	0.251917
C173	C	2.148899	0.081410	0.585251
C174	C	2.482232	0.414743	0.918584
C175	C	1.933871	-0.251928	0.251924
C176	C	2.267204	0.081405	0.585257
C177	C	2.600538	0.414738	0.918591
C178	C	1.537968	-0.251898	0.388274
C179	C	1.871301	0.081435	0.721608
C180	C	2.204634	0.414769	1.054941
C181	C	1.537977	-0.251892	0.446389
C182	C	1.871311	0.081442	0.779722
C183	C	2.204644	0.414775	1.113055
C184	C	1.538154	-0.115540	0.251937
C185	C	1.871487	0.217794	0.585270
C186	C	2.204820	0.551127	0.918604
C187	C	1.538242	-0.057426	0.251952
C188	C	1.871576	0.275908	0.585285
C189	C	2.204909	0.609241	0.918619
C190	C	1.537984	-0.251890	0.116059
C191	C	1.871317	0.081444	0.449392
C192	C	2.204650	0.414777	0.782726
C193	C	1.538180	-0.251749	0.057945
C194	C	1.871513	0.081585	0.391279
C195	C	2.204847	0.414918	0.724612
C196	C	1.469921	-0.285264	0.697564
C197	C	1.803254	0.048070	1.030897
C198	C	2.136588	0.381403	1.364230
C199	C	1.469902	-0.285275	0.642959
C200	C	1.803236	0.048058	0.976293
C201	C	2.136569	0.381391	1.309626
O202	O	1.411937	-0.313702	0.614707
O203	O	1.745270	0.019632	0.948041
O204	O	2.078603	0.352965	1.281374
N205	N	1.538018	-0.251849	0.615663
N206	N	1.871351	0.081484	0.948996
N207	N	2.204685	0.414817	1.282329
C208	C	1.606149	-0.218406	0.642973
C209	C	1.939482	0.114928	0.976306
C210	C	2.272815	0.448261	1.309639
O211	O	1.664084	-0.189975	0.614741
O212	O	1.997417	0.143358	0.948074
O213	O	2.330750	0.476691	1.281407
C214	C	1.606161	-0.218392	0.697576
C215	C	1.939495	0.114942	1.030909
C216	C	2.272828	0.448275	1.364243
C217	C	1.538049	-0.251824	0.724870
C218	C	1.871382	0.081510	1.058204
C219	C	2.204716	0.414843	1.391537
C220	C	1.401814	-0.318692	0.724858
C221	C	1.735147	0.014641	1.058191
C222	C	2.068480	0.347974	1.391525
C223	C	1.401834	-0.318681	0.779459
C224	C	1.735167	0.014652	1.112792
C225	C	2.068501	0.347986	1.446125
C226	C	1.469962	-0.285241	0.806765
C227	C	1.803295	0.048092	1.140098
C228	C	2.136628	0.381426	1.473432
C229	C	1.538069	-0.251812	0.779471
C230	C	1.871403	0.081521	1.112804
C231	C	2.204736	0.414854	1.446137
C232	C	1.674286	-0.184946	0.724885
C233	C	2.007619	0.148387	1.058219
C234	C	2.340953	0.481721	1.391552
C235	C	1.674292	-0.184934	0.779492
C236	C	2.007625	0.148399	1.112826
C237	C	2.340959	0.481732	1.446159
C238	C	1.606180	-0.218366	0.806786
C239	C	1.939513	0.114967	1.140120
C240	C	2.272846	0.448300	1.473453
C241	C	1.606218	-0.218361	0.861378
C242	C	1.939551	0.114972	1.194711
C243	C	2.272884	0.448305	1.528044
N244	N	1.538102	-0.251787	0.888675
N245	N	1.871435	0.081546	1.222008
N246	N	2.204769	0.414879	1.555341
C247	C	1.469974	-0.285227	0.861368
C248	C	1.803308	0.048106	1.194702
C249	C	2.136641	0.381440	1.528035
C250	C	1.606116	-0.218437	0.528302
C251	C	1.939449	0.114896	0.861635
C252	C	2.272783	0.448229	1.194969
C253	C	1.606110	-0.218453	0.473700
C254	C	1.939443	0.114880	0.807033
C255	C	2.272776	0.448213	1.140366
C256	C	1.469862	-0.285322	0.473690
C257	C	1.803195	0.048011	0.807024
C258	C	2.136528	0.381344	1.140357
C259	C	1.469874	-0.285308	0.528294
C260	C	1.803207	0.048025	0.861627
C261	C	2.136541	0.381358	1.194960
C262	C	1.538001	-0.251863	0.555599
C263	C	1.871334	0.081470	0.888932
C264	C	2.204667	0.414804	1.222266
C265	C	1.470023	-0.285201	0.976033
C266	C	1.803356	0.048132	1.309367
C267	C	2.136689	0.381465	1.642700
C268	C	1.470052	-0.285189	1.030639
C269	C	1.803386	0.048145	1.363972
C270	C	2.136719	0.381478	1.697305
C271	C	1.606296	-0.218318	1.030644
C272	C	1.939629	0.115015	1.363977
C273	C	2.272962	0.448349	1.697310
C274	C	1.606271	-0.218332	0.976043
C275	C	1.939604	0.115001	1.309376
C276	C	2.272937	0.448334	1.642710
C277	C	1.538126	-0.251776	0.948739
C278	C	1.871459	0.081558	1.282073
C279	C	2.204792	0.414891	1.615406
O280	O	1.664151	-0.189948	0.889665
O281	O	1.997484	0.143385	1.222998
O282	O	2.330817	0.476719	1.556331
O283	O	1.412039	-0.313648	0.889607
O284	O	1.745372	0.019685	1.222940
O285	O	2.078706	0.353019	1.556274
H286	H	1.104917	-0.187389	0.187526
H287	H	1.438251	0.145945	0.520859
H288	H	1.771584	0.479278	0.854192
F289	F	0.962793	-0.325645	0.325316
F290	F	1.296126	0.007688	0.658649
F291	F	1.629460	0.341021	0.991982
H292	H	1.661830	-1.052322	0.191344
H293	H	1.995163	-0.718989	0.524677
H294	H	2.328496	-0.385656	0.858010
H295	H	1.414579	-0.953327	0.312553
H296	H	1.747912	-0.619994	0.645887
H297	H	2.081245	-0.286660	0.979220
H298	H	1.346311	-0.702161	0.345945
H299	H	1.679644	-0.368828	0.679278
H300	H	2.012977	-0.035495	1.012611
F301	F	1.746794	-0.149332	0.808550
F302	F	2.080128	0.184002	1.141883
F303	F	2.413461	0.517335	1.475216
F304	F	1.397379	-0.320890	0.557337
F305	F	1.730712	0.012443	0.890670
F306	F	2.064046	0.345777	1.224004
H307	H	1.414586	-0.312415	1.052859
H308	H	1.747920	0.020918	1.386193
H309	H	2.081253	0.354252	1.719526
H310	H	1.414283	-0.550040	0.312510
H311	H	1.747617	-0.216707	0.645844
H312	H	2.080950	0.116627	0.979177
F313	F	1.329350	-0.808041	0.354314
F314	F	1.662683	-0.474707	0.687647
F315	F	1.996016	-0.141374	1.020980
F316	F	0.962562	-0.151548	0.278980
F317	F	1.295895	0.181786	0.612313
F318	F	1.629229	0.515119	0.945647
H319	H	1.105124	-0.228445	0.339953
H320	H	1.438457	0.104888	0.673286
H321	H	1.771790	0.438221	1.006619
H322	H	1.104725	-0.339954	0.228082
H323	H	1.438058	-0.006621	0.561415
H324	H	1.771392	0.326712	0.894748
F325	F	1.397496	-0.320796	0.946982
F326	F	1.730829	0.012538	1.280316
F327	F	2.064162	0.345871	1.613649
H328	H	1.414386	-0.312550	0.451447
H329	H	1.747720	0.020783	0.784781
H330	H	2.081053	0.354116	1.118114
F331	F	1.678801	-0.182732	1.059715
F332	F	2.012134	0.150602	1.393048
F333	F	2.345468	0.483935	1.726381
F334	F	1.397609	-1.059207	0.320910
F335	F	1.730942	-0.725874	0.654243
F336	F	2.064275	-0.392541	0.987576
F337	F	1.678513	-0.556782	0.182934
F338	F	2.011847	-0.223448	0.516267
F339	F	2.345180	0.109885	0.849601
F340	F	1.678618	-0.182877	0.444657
F341	F	2.011951	0.150456	0.777990
F342	F	2.345284	0.483789	1.111324
H343	H	1.346367	-0.345903	0.801677
H344	H	1.679700	-0.012570	1.135010
H345	H	2.013034	0.320763	1.468343
F346	F	1.678407	-0.444080	0.182918
F347	F	2.011740	-0.110747	0.516251
F348	F	2.345074	0.222587	0.849584
F349	F	1.678642	-0.182843	0.557358
F350	F	2.011976	0.150490	0.890691
F351	F	2.345309	0.483823	1.224025
F352	F	1.329294	-0.354286	0.695805
F353	F	1.662627	-0.020953	1.029138
F354	F	1.995961	0.312381	1.362471
F355	F	1.746738	-0.695239	0.149547
F356	F	2.080071	-0.361906	0.482881
F357	F	2.413404	-0.028573	0.816214
F358	F	1.746780	-0.149362	0.695848
F359	F	2.080113	0.183972	1.029182
F360	F	2.413447	0.517305	1.362515
F361	F	1.678775	-0.182757	0.946993
F362	F	2.012108	0.150577	1.280327
F363	F	2.345442	0.483910	1.613660
H364	H	0.971864	-0.275377	0.163825
H365	H	1.305197	0.057956	0.497159
H366	H	1.638531	0.391290	0.830492
F367	F	1.678790	-0.946427	0.182973
F368	F	2.012123	-0.613093	0.516307
F369	F	2.345457	-0.279760	0.849640
F370	F	1.746817	-0.807935	0.149558
F371	F	2.080150	-0.474602	0.482892
F372	F	2.413483	-0.141268	0.816225
H373	H	1.414204	-0.450974	0.312491
H374	H	1.747538	-0.117641	0.645824
H375	H	2.080871	0.215693	0.979158
