data_functionalizedCrystal
_audit_creation_method	'MofGen! by Chris Wilmer'
_symmetry_space_group_name_H-M	'P1'
_symmetry_Int_Tables_number	1
_symmetry_cell_setting	triclinic
loop_
_symmetry_equiv_pos_as_xyz
  x,y,z
_cell_length_a	18.426585
_cell_length_b	17.052863
_cell_length_c	17.052832
_cell_angle_alpha	78.839511
_cell_angle_beta	102.317082
_cell_angle_gamma	50.257996
loop_
_atom_site_label
_atom_site_type_symbol
_atom_site_fract_x
_atom_site_fract_y
_atom_site_fract_z
Zr1	Zr	-0.038479	0.878582	0.908850
O2	O	-0.197936	1.046045	0.806526
O3	O	0.023075	0.711125	0.922296
O4	O	-0.146607	0.878587	0.948134
O5	O	0.091178	0.878577	0.780693
O6	O	-0.120532	0.878585	1.080224
O7	O	-0.028254	0.878583	0.780687
O8	O	0.182997	0.579025	1.034004
O9	O	-0.212351	1.178137	0.826913
O10	O	0.053476	0.779999	1.048261
O11	O	0.123148	0.779996	0.949688
O12	O	-0.076630	0.977162	0.980109
O13	O	-0.006957	0.977159	0.881536
Zr14	Zr	0.193589	0.878570	1.119529
Zr15	Zr	0.003107	0.878579	1.119520
Zr16	Zr	0.152003	0.878573	0.908860
Zr17	Zr	-0.061469	1.089253	0.941366
Zr18	Zr	0.216579	0.667899	1.087013
O19	O	0.132035	1.046028	1.106084
O20	O	-0.138806	1.046040	1.106070
O21	O	0.072905	1.046033	0.806539
O22	O	0.353045	0.711107	1.221854
O23	O	0.082205	0.711120	1.221840
O24	O	0.293915	0.711112	0.922309
O25	O	0.063931	0.878575	1.247686
O26	O	0.301716	0.878565	1.080246
O27	O	0.275641	0.878567	0.948155
O28	O	0.183364	0.878569	1.247692
O29	O	-0.179295	1.178134	0.994367
O30	O	0.334405	0.579018	1.034012
O31	O	0.367460	0.579015	1.201466
O32	O	0.216053	0.579022	1.201458
O33	O	-0.060943	1.178130	0.826921
O34	O	-0.027888	1.178127	0.994375
O35	O	0.231739	0.779991	1.048270
O36	O	0.162067	0.779993	1.146843
O37	O	0.031961	0.977156	1.078691
O38	O	0.101633	0.977153	0.980118
C39	C	0.106312	0.615059	0.973517
C40	C	0.116071	0.525624	0.959713
C41	C	0.157028	0.483607	0.901772
C42	C	0.166189	0.399586	0.888794
C43	C	0.134403	0.357567	0.933761
C44	C	0.093452	0.399578	0.991708
C45	C	0.084282	0.483614	1.004682
C46	C	0.061657	0.357574	1.036671
C47	C	0.020707	0.399585	1.094618
C48	C	0.011540	0.483611	1.107590
C49	C	0.043326	0.525630	1.062623
C50	C	0.070827	0.273539	1.023697
C51	C	-0.001918	0.273545	1.126607
C52	C	-0.011079	0.357566	1.139585
C53	C	-0.160709	0.878587	1.014178
C54	C	-0.241573	0.878591	1.014174
C55	C	-0.537646	0.878557	1.014206
C56	C	-0.455266	0.878562	1.014198
C57	C	-0.389612	0.878574	1.014189
C58	C	-0.307227	0.878579	1.014183
C59	C	0.315818	0.878565	1.014202
C60	C	0.396683	0.878561	1.014206
C61	C	0.025537	0.878581	0.750675
C62	C	0.007882	0.878582	0.661240
C63	C	0.048798	1.142093	1.054862
C64	C	0.039038	1.231529	1.068666
C65	C	0.221324	0.878563	0.409159
C66	C	0.237917	0.878555	0.493190
C67	C	0.180410	0.878562	0.535206
C68	C	0.106306	0.878577	0.493184
C69	C	0.089717	0.878577	0.409148
C70	C	0.048803	0.878575	0.535195
C71	C	-0.025300	0.878590	0.493173
C72	C	-0.041886	0.878591	0.409145
C73	C	0.015621	0.878583	0.367129
C74	C	0.065392	0.878576	0.619231
C75	C	-0.066214	0.878589	0.619221
C76	C	-0.082807	0.878597	0.535190
C77	C	0.129573	0.878572	1.277705
C78	C	0.147227	0.878570	1.367139
C79	C	0.158330	0.615054	1.237032
C80	C	0.185744	0.525618	1.312663
C81	C	0.344575	0.615048	0.973529
C82	C	0.435199	0.525609	0.959729
C83	C	0.396593	0.615043	1.237044
C84	C	0.504872	0.525603	1.312679
C85	C	-0.241483	1.142109	0.791335
C86	C	-0.349762	1.231550	0.715700
C87	C	-0.003220	1.142098	0.791347
C88	C	-0.030634	1.231535	0.715716
C89	C	-0.189466	1.142105	1.054850
C90	C	-0.280090	1.231544	1.068650
C91	C	0.141927	0.483620	1.296721
C92	C	0.167664	0.399596	1.367778
C93	C	0.237225	0.357566	1.454775
C94	C	0.281043	0.399572	1.470716
C95	C	0.255299	0.483600	1.399661
C96	C	0.534449	0.483604	1.004708
C97	C	0.619605	0.399578	0.991739
C98	C	0.605512	0.357553	0.933797
C99	C	0.506251	0.399566	0.888814
C100	C	0.421095	0.483596	0.901778
C101	C	0.519354	0.483602	1.399661
C102	C	0.621086	0.399574	1.470738
C103	C	0.708336	0.357544	1.454830
C104	C	0.693849	0.399553	1.367839
C105	C	0.592117	0.483585	1.296765
C106	C	-0.364246	1.273561	0.628720
C107	C	-0.465981	1.357614	0.557647
C108	C	-0.553230	1.399649	0.573556
C109	C	-0.538743	1.357634	0.660546
C110	C	-0.437010	1.273588	0.731617
C111	C	0.013174	1.273541	0.731660
C112	C	-0.012587	1.357588	0.660606
C113	C	-0.082151	1.399621	0.573610
C114	C	-0.125965	1.357612	0.557668
C115	C	-0.100209	1.273572	0.628721
C116	C	-0.265963	1.273542	1.126598
C117	C	-0.351102	1.357569	1.139582
C118	C	-0.450368	1.399601	1.094612
C119	C	-0.464493	1.357594	1.036661
C120	C	-0.379353	1.273563	1.023683
H121	H	0.035881	0.594038	1.073195
F122	F	0.282527	0.878543	0.364444
H123	H	-0.609794	1.391870	0.673489
F124	F	-0.120742	0.878590	0.364428
F125	F	-0.661499	1.489099	0.497905
F126	F	0.209769	0.354881	0.827125
F127	F	-0.035754	0.228834	1.174464
H128	H	0.764901	0.365319	1.354899
H129	H	0.069824	1.239324	0.802490
H130	H	0.340286	0.517785	0.865152
H131	H	0.494791	0.365336	0.841637
H132	H	-0.425228	1.239384	0.802439
F133	F	0.067888	0.528340	1.204138
H134	H	0.448323	0.517811	1.412630
F135	F	0.144256	0.878560	0.663945
H136	H	0.298252	0.878541	0.527401
H137	H	0.580339	0.517771	1.225942
H138	H	-0.021815	0.517826	1.154767
H139	H	0.002109	0.878595	0.298702
H140	H	0.131978	0.365406	1.354781
H141	H	0.023100	1.391778	0.673603
H142	H	0.258180	0.289144	1.512625
F143	F	-0.271401	1.228837	0.611768
F144	F	-0.109552	1.489064	0.497996
H145	H	-0.477757	1.391808	0.486822
H146	H	-0.339582	1.391762	1.186769
H147	H	0.674860	0.289130	0.923249
F148	F	-0.161671	0.878613	0.490458
F149	F	0.636483	0.354877	1.563312
H150	H	-0.182606	1.391848	0.486826
H151	H	0.193923	0.878555	0.603628
F152	F	-0.146837	1.228868	0.611738
F153	F	-0.127417	0.878591	0.663936
H154	H	0.337681	0.365338	1.541559
F155	F	0.190844	0.528338	0.853916
F156	F	0.725237	0.354877	1.039624
F157	F	0.301948	0.528282	1.416641
F158	F	-0.160323	1.228824	1.174468
F159	F	-0.570150	1.402346	0.988800
H160	H	0.791166	0.289120	1.512711
F161	F	0.549472	0.528312	1.066382
H162	H	-0.519686	1.468024	1.105188
F163	F	-0.394406	1.228882	0.961998
H164	H	0.104168	0.239342	0.976515
H165	H	0.141864	0.289154	0.923190
H166	H	-0.044422	0.391782	1.186766
