data_functionalizedCrystal
_audit_creation_method	'MofGen! by Chris Wilmer'
_symmetry_space_group_name_H-M	'P1'
_symmetry_Int_Tables_number	1
_symmetry_cell_setting	triclinic
loop_
_symmetry_equiv_pos_as_xyz
  x,y,z
_cell_length_a	14.971486
_cell_length_b	11.026607
_cell_length_c	14.048226
_cell_angle_alpha	89.996210
_cell_angle_beta	89.998499
_cell_angle_gamma	96.100073
loop_
_atom_site_label
_atom_site_type_symbol
_atom_site_fract_x
_atom_site_fract_y
_atom_site_fract_z
O1	O	1.212292	0.158180	-0.079046
O2	O	1.712292	0.658180	0.420954
O3	O	0.954927	0.177123	-0.079071
O4	O	1.454927	0.677123	0.420929
O5	O	1.062279	-0.009032	-0.079057
O6	O	1.562279	0.490968	0.420943
O7	O	1.104939	0.344336	-0.079060
O8	O	1.604939	0.844336	0.420940
O9	O	1.062261	-0.009043	0.079264
O10	O	1.562261	0.490957	0.579264
O11	O	0.954908	0.177112	0.079250
O12	O	1.454908	0.677112	0.579250
O13	O	1.212274	0.158169	0.079275
O14	O	1.712274	0.658169	0.579275
Zn15	Zn	1.083588	0.167639	0.104399
Zn16	Zn	1.583588	0.667639	0.604399
Zn17	Zn	1.083612	0.167653	-0.104196
Zn18	Zn	1.583612	0.667653	0.395804
O19	O	1.104921	0.344325	0.079261
O20	O	1.604921	0.844325	0.579261
C21	C	0.921457	0.176270	0.000086
C22	C	1.421457	0.676270	0.500086
C23	C	0.821753	0.173732	0.000076
C24	C	1.321753	0.673732	0.500076
C25	C	1.054400	-0.054260	0.000101
C26	C	1.554400	0.445740	0.500101
C27	C	1.030939	-0.189008	0.000096
C28	C	1.530939	0.310992	0.500096
C29	C	0.782051	0.283093	0.000077
C30	C	1.282051	0.783093	0.500077
C31	C	0.688368	0.280700	0.000091
C32	C	1.188368	0.780700	0.500091
C33	C	0.634389	0.168945	0.000098
C34	C	1.134389	0.668945	0.500098
C35	C	0.674098	0.059576	0.000100
C36	C	1.174098	0.559576	0.500100
C37	C	0.767779	0.061969	0.000093
C38	C	1.267779	0.561969	0.500093
C39	C	0.478837	0.054594	0.000113
C40	C	0.978837	0.554594	0.500113
C41	C	0.385150	0.052200	0.000119
C42	C	0.885150	0.552200	0.500119
C43	C	0.399426	0.273325	0.000111
C44	C	0.899426	0.773325	0.500111
C45	C	0.493107	0.275718	0.000104
C46	C	0.993107	0.775718	0.500104
C47	C	0.532809	0.166348	0.000105
C48	C	1.032809	0.666348	0.500105
C49	C	1.095719	-0.262720	0.000101
C50	C	1.595719	0.237280	0.500101
C51	C	1.071472	-0.401989	0.000095
C52	C	1.571472	0.098011	0.500095
C53	C	1.245743	0.159022	0.000116
C54	C	1.745743	0.659022	0.500116
C55	C	1.345447	0.161561	0.000119
C56	C	1.845447	0.661561	0.500119
C57	C	1.112800	0.389552	0.000100
C58	C	1.612800	0.889552	0.500100
C59	C	1.136261	0.524300	0.000100
C60	C	1.636261	1.024300	0.500100
N61	N	1.083578	0.167628	0.246760
N62	N	1.583578	0.667628	0.746760
N63	N	1.083628	0.167654	-0.246556
N64	N	1.583628	0.667654	0.253444
C65	C	1.131138	0.085233	0.296584
C66	C	1.631138	0.585233	0.796584
C67	C	1.131144	0.085232	0.396242
C68	C	1.631144	0.585232	0.896242
C69	C	1.083595	0.167634	0.446074
C70	C	1.583595	0.667634	0.946074
C71	C	1.036029	0.250033	0.396242
C72	C	1.536029	0.750033	0.896242
C73	C	1.036018	0.250027	0.296587
C74	C	1.536018	0.750027	0.796587
C75	C	1.036056	0.250042	0.603957
C76	C	1.536056	0.750042	1.103957
C77	C	1.036068	0.250050	0.703619
C78	C	1.536068	0.750050	1.203619
C79	C	1.131182	0.085247	0.703612
C80	C	1.631182	0.585247	1.203612
C81	C	1.131171	0.085241	0.603956
C82	C	1.631171	0.585241	1.103956
C83	C	1.083607	0.167642	0.554132
C84	C	1.583607	0.667642	1.054132
H85	H	0.825994	0.374096	0.000070
H86	H	1.325994	0.874096	0.500070
F87	F	0.975512	-0.454257	0.000077
F88	F	1.475512	0.045743	0.500077
F89	F	0.357171	0.389725	0.000113
F90	F	0.857171	0.889725	0.500113
H91	H	0.630141	-0.031417	0.000119
H92	H	1.130141	0.468583	0.500119
F93	F	0.550554	0.394660	0.000087
F94	F	1.050554	0.894660	0.500087
F95	F	0.810033	-0.054428	0.000095
F96	F	1.310033	0.445572	0.500095
H97	H	0.997347	0.317148	0.744187
H98	H	1.497347	0.817148	1.244187
H99	H	0.511159	-0.034467	0.000115
H100	H	1.011159	0.465533	0.500115
F101	F	1.191674	-0.210447	0.000105
F102	F	1.691674	0.289553	0.500105
F103	F	0.985417	0.337727	0.449278
F104	F	1.485417	0.837727	0.949278
H105	H	1.209677	-0.435709	0.000035
H106	H	1.709677	0.064291	0.500035
H107	H	1.169895	0.018150	0.563384
H108	H	1.669895	0.518150	1.063384
H109	H	0.997288	0.317120	0.256021
H110	H	1.497288	0.817120	0.756021
F111	F	0.646118	0.397098	0.000087
F112	F	1.146118	0.897098	0.500087
H113	H	1.169871	0.018139	0.436809
H114	H	1.669871	0.518139	0.936809
H115	H	0.957528	-0.229006	0.000082
H116	H	1.457528	0.270994	0.500082
H117	H	0.341202	-0.038801	0.000126
H118	H	0.841202	0.461199	0.500126
F119	F	1.181753	-0.002466	0.243559
F120	F	1.681753	0.497534	0.743559
H121	H	1.169911	0.018153	0.744185
H122	H	1.669911	0.518153	1.244185
F123	F	0.985428	0.337740	0.550934
F124	F	1.485428	0.837740	1.050934
