data_functionalizedCrystal
_audit_creation_method	'MofGen! by Chris Wilmer'
_symmetry_space_group_name_H-M	'P1'
_symmetry_Int_Tables_number	1
_symmetry_cell_setting	triclinic
loop_
_symmetry_equiv_pos_as_xyz
  x,y,z
_cell_length_a	6.817900
_cell_length_b	17.284672
_cell_length_c	12.200875
_cell_angle_alpha	91.039880
_cell_angle_beta	107.143593
_cell_angle_gamma	103.040903
loop_
_atom_site_label
_atom_site_type_symbol
_atom_site_fract_x
_atom_site_fract_y
_atom_site_fract_z
V1	V	-4.060284	-0.109232	-0.347868
V2	V	-3.560284	0.390768	0.152132
O3	O	-4.055412	0.005065	-0.351307
O4	O	-3.555412	0.505065	0.148693
O5	O	-4.003634	-0.216412	-0.335812
O6	O	-3.503634	0.283588	0.164188
O7	O	-4.030124	-0.107633	-0.503999
O8	O	-3.530124	0.392367	-0.003999
O9	O	-4.028738	-0.104467	-0.181955
O10	O	-3.528738	0.395533	0.318045
V11	V	-4.542617	-0.095551	-0.329199
V12	V	-4.042617	0.404449	0.170801
O13	O	-4.324152	-0.139242	-0.388819
O14	O	-3.824152	0.360758	0.111181
O15	O	-4.728946	-0.065541	-0.288247
O16	O	-4.228946	0.434459	0.211753
O17	O	-4.376060	0.011628	-0.341254
O18	O	-3.876060	0.511628	0.158746
O19	O	-4.664886	-0.209848	-0.325760
O20	O	-4.164886	0.290152	0.174240
O21	O	-4.691560	-0.100316	-0.495111
O22	O	-4.191560	0.399684	0.004889
O23	O	-4.349570	-0.097151	-0.173067
O24	O	-3.849570	0.402849	0.326933
C25	C	-3.846038	-0.242538	-0.327827
C26	C	-3.346038	0.257462	0.172173
C27	C	-3.881129	-0.330159	-0.319011
C28	C	-3.381129	0.169841	0.180989
C29	C	-3.949235	-0.382635	-0.418901
C30	C	-3.449235	0.117365	0.081099
C31	C	-3.982182	-0.464963	-0.410606
C32	C	-3.482182	0.035037	0.089394
C33	C	-3.947037	-0.494814	-0.302422
C34	C	-3.447037	0.005186	0.197578
C35	C	-3.878919	-0.442331	-0.202525
C36	C	-3.378919	0.057669	0.297475
C37	C	-3.845958	-0.360004	-0.210820
C38	C	-3.345958	0.139996	0.289180
C39	C	-4.040067	-0.739820	-0.266457
C40	C	-3.540067	-0.239820	0.233543
C41	C	-4.073040	-0.822154	-0.258169
C42	C	-3.573040	-0.322154	0.241831
C43	C	-4.176298	-0.844780	-0.466252
C44	C	-3.676298	-0.344780	0.033748
C45	C	-4.143344	-0.762451	-0.474538
C46	C	-3.643344	-0.262451	0.025462
C47	C	-4.075218	-0.709975	-0.374640
C48	C	-3.575218	-0.209975	0.125360
N49	N	-3.980720	-0.578966	-0.293941
N50	N	-3.480720	-0.078966	0.206059
N51	N	-4.041522	-0.625824	-0.383122
N52	N	-3.541522	-0.125824	0.116878
C53	C	-3.879828	-0.103778	-0.542366
C54	C	-3.379828	0.396222	-0.042366
C55	C	-3.936398	-0.103179	-0.669940
C56	C	-3.436398	0.396821	-0.169940
C57	C	-4.039930	-0.102085	-0.903513
C58	C	-3.539930	0.397915	-0.403513
C59	C	-3.982309	-0.102694	-0.773536
C60	C	-3.482309	0.397306	-0.273536
C61	C	-4.196998	0.037750	-0.349235
C62	C	-3.696998	0.537750	0.150765
C63	C	-4.141146	0.125370	-0.358059
C64	C	-3.641146	0.625370	0.141941
C65	C	-4.163208	-0.101008	-0.134694
C66	C	-3.663208	0.398992	0.365306
C67	C	-4.085876	-0.101603	-0.007119
C68	C	-3.585876	0.398397	0.492881
H69	H	-4.044409	-0.846454	-0.170068
H70	H	-3.544409	-0.346454	0.329932
H71	H	-3.984614	-0.697104	-0.185113
H72	H	-3.484614	-0.197104	0.314887
H73	H	-4.231762	-0.887514	-0.547582
H74	H	-3.731762	-0.387514	-0.047582
H75	H	-3.850293	-0.466642	-0.114438
H76	H	-3.350293	0.033358	0.385562
H77	H	-3.790491	-0.317278	-0.129479
H78	H	-3.290491	0.182722	0.370521
H79	H	-4.037639	-0.507686	-0.491947
H80	H	-3.537639	-0.007686	0.008053
H81	H	-4.171937	-0.738152	-0.562632
H82	H	-3.671937	-0.238152	-0.062632
H83	H	-3.977885	-0.358338	-0.506997
H84	H	-3.477885	0.141662	-0.006997
