data_functionalizedCrystal
_audit_creation_method	'MofGen! by Chris Wilmer'
_symmetry_space_group_name_H-M	'P1'
_symmetry_Int_Tables_number	1
_symmetry_cell_setting	triclinic
loop_
_symmetry_equiv_pos_as_xyz
  x,y,z
_cell_length_a	16.959455
_cell_length_b	16.959454
_cell_length_c	18.215399
_cell_angle_alpha	89.976304
_cell_angle_beta	89.981058
_cell_angle_gamma	90.019503
loop_
_atom_site_label
_atom_site_type_symbol
_atom_site_fract_x
_atom_site_fract_y
_atom_site_fract_z
Zn1	Zn	1.208417	-0.314702	-0.416120
Zn2	Zn	1.708417	0.185298	0.083880
Zn3	Zn	1.208330	-0.446887	-0.293063
Zn4	Zn	1.708330	0.053113	0.206937
Zn5	Zn	1.076236	-0.314725	-0.293069
Zn6	Zn	1.576236	0.185275	0.206931
Zn7	Zn	1.076210	-0.446841	-0.416090
Zn8	Zn	1.576210	0.053159	0.083910
O9	O	1.142298	-0.380789	-0.354586
O10	O	1.642298	0.119211	0.145414
O11	O	1.319016	-0.332246	-0.399806
O12	O	1.819016	0.167754	0.100194
O13	O	1.190781	-0.429385	-0.190080
O14	O	1.690781	0.070615	0.309920
O15	O	1.093817	-0.204111	-0.309408
O16	O	1.593817	0.295889	0.190592
O17	O	1.318952	-0.429362	-0.309397
O18	O	1.818952	0.070638	0.190603
O19	O	1.190930	-0.204094	-0.399813
O20	O	1.690930	0.295906	0.100187
O21	O	1.093732	-0.332286	-0.190084
O22	O	1.593732	0.167714	0.309916
O23	O	0.965621	-0.332241	-0.309378
O24	O	1.465621	0.167759	0.190622
O25	O	1.093773	-0.429283	-0.519078
O26	O	1.593773	0.070717	-0.019078
O27	O	0.965602	-0.429306	-0.399761
O28	O	1.465602	0.070694	0.100239
O29	O	1.190905	-0.332201	-0.519100
O30	O	1.690905	0.167799	-0.019100
O31	O	1.190756	-0.557492	-0.309367
O32	O	1.690756	-0.057492	0.190633
O33	O	1.093689	-0.557458	-0.399755
O34	O	1.593689	-0.057458	0.100245
C35	C	0.936932	-0.380772	-0.354567
C36	C	1.436932	0.119228	0.145433
C37	C	0.849075	-0.380783	-0.354577
C38	C	1.349075	0.119217	0.145423
C39	C	0.807766	-0.431275	-0.307438
C40	C	1.307766	0.068725	0.192562
C41	C	0.807831	-0.330298	-0.401722
C42	C	1.307831	0.169702	0.098278
C43	C	0.725285	-0.330304	-0.401731
C44	C	1.225285	0.169696	0.098269
C45	C	0.683976	-0.380796	-0.354592
C46	C	1.183976	0.119204	0.145408
C47	C	0.725212	-0.431281	-0.307444
C48	C	1.225212	0.068719	0.192556
C49	C	0.684042	-0.279813	-0.448873
C50	C	1.184042	0.220187	0.051127
C51	C	0.601491	-0.279817	-0.448883
C52	C	1.101491	0.220183	0.051117
C53	C	0.560180	-0.330314	-0.401747
C54	C	1.060180	0.169686	0.098253
C55	C	0.601422	-0.380802	-0.354598
C56	C	1.101422	0.119198	0.145402
C57	C	0.560113	-0.431294	-0.307458
C58	C	1.060113	0.068706	0.192542
C59	C	0.601353	-0.481786	-0.260312
C60	C	1.101353	0.018214	0.239688
C61	C	0.683902	-0.481778	-0.260308
C62	C	1.183902	0.018222	0.239692
C63	C	0.477632	-0.330322	-0.401751
C64	C	0.977632	0.169678	0.098249
C65	C	0.477559	-0.431300	-0.307464
C66	C	0.977559	0.068700	0.192536
C67	C	1.142232	-0.586155	-0.354573
C68	C	1.642232	-0.086155	0.145427
C69	C	1.142276	-0.674012	-0.354592
C70	C	1.642276	-0.174012	0.145408
C71	C	1.091828	-1.045499	-0.401645
C72	C	1.591828	-0.545499	0.098355
C73	C	1.192988	-1.045475	-0.307601
C74	C	1.692988	-0.545475	0.192399
C75	C	1.192960	-0.962929	-0.307594
C76	C	1.692960	-0.462929	0.192406
C77	C	1.142365	-0.921664	-0.354613
C78	C	1.642365	-0.421664	0.145387
C79	C	1.091797	-0.962946	-0.401638
C80	C	1.591797	-0.462946	0.098362
C81	C	1.243521	-0.921641	-0.260564
C82	C	1.743521	-0.421641	0.239436
C83	C	1.243495	-0.839091	-0.260555
C84	C	1.743495	-0.339091	0.239445
C85	C	1.192903	-0.797825	-0.307578
C86	C	1.692903	-0.297825	0.192422
C87	C	1.142334	-0.839111	-0.354606
C88	C	1.642334	-0.339111	0.145394
C89	C	1.091739	-0.797846	-0.401625
C90	C	1.591739	-0.297846	0.098375
C91	C	1.041173	-0.839131	-0.448657
C92	C	1.541173	-0.339131	0.051343
C93	C	1.041205	-0.921680	-0.448661
C94	C	1.541205	-0.421680	0.051339
C95	C	1.192871	-0.715276	-0.307574
C96	C	1.692871	-0.215276	0.192426
C97	C	1.091708	-0.715293	-0.401618
C98	C	1.591708	-0.215293	0.098382
C99	C	1.348466	-0.380807	-0.354604
C100	C	1.848466	0.119193	0.145396
C101	C	1.436323	-0.380814	-0.354612
C102	C	1.936323	0.119186	0.145388
C103	C	1.142346	-0.380734	-0.546539
C104	C	1.642346	0.119266	-0.046539
C105	C	1.142367	-0.380711	-0.628338
C106	C	1.642367	0.119289	-0.128338
C107	C	1.142386	-0.174620	-0.354614
C108	C	1.642386	0.325380	0.145386
C109	C	1.142424	-0.086764	-0.354626
C110	C	1.642424	0.413236	0.145374
C111	C	1.192961	-0.330113	-0.816544
C112	C	1.692961	0.169887	-0.316544
C113	C	1.192971	-0.330090	-0.893403
C114	C	1.692971	0.169910	-0.393403
C115	C	1.091828	-0.431187	-0.893369
C116	C	1.591828	0.068813	-0.393369
C117	C	1.091815	-0.431205	-0.816511
C118	C	1.591815	0.068795	-0.316511
C119	C	1.142386	-0.380670	-0.778101
C120	C	1.642386	0.119330	-0.278101
C121	C	1.142409	-0.380628	-0.931817
C122	C	1.642409	0.119372	-0.431817
C123	C	1.142418	-0.380603	-1.015151
C124	C	1.642418	0.119397	-0.515151
C125	C	1.142376	-0.380693	-0.694762
C126	C	1.642376	0.119307	-0.194762
C127	C	1.142296	-0.380786	-0.163379
C128	C	1.642296	0.119214	0.336621
C129	C	1.142428	-0.380587	-0.081581
C130	C	1.642428	0.119413	0.418419
H131	H	0.567708	-0.522894	-0.221929
H132	H	1.067708	-0.022894	0.278071
C133	C	1.036210	-1.090904	-0.453379
C134	C	1.536210	-0.590904	0.046621
H135	H	1.006079	-1.054503	-0.481383
H136	H	1.506079	-0.554503	0.018617
H137	H	1.001799	-1.123151	-0.425207
H138	H	1.501799	-0.623151	0.074793
H139	H	1.066447	-1.123062	-0.485478
H140	H	1.566447	-0.623062	0.014522
C141	C	1.248607	-0.274482	-0.935688
C142	C	1.748607	0.225518	-0.435688
H143	H	1.278725	-0.244394	-0.901802
H144	H	1.778725	0.255606	-0.401802
H145	H	1.218393	-0.240030	-0.965671
H146	H	1.718393	0.259970	-0.465671
H147	H	1.283042	-0.304719	-0.965669
H148	H	1.783042	0.195281	-0.465669
C149	C	0.556130	-0.224287	-0.500745
C150	C	1.056130	0.275713	-0.000745
H151	H	0.501051	-0.231519	-0.493997
H152	H	1.001051	0.268481	0.006003
H153	H	0.569682	-0.235919	-0.550171
H154	H	1.069682	0.264081	-0.050171
H155	H	0.569665	-0.171159	-0.490051
H156	H	1.069665	0.328841	0.009949
H157	H	1.284708	-0.955245	-0.222279
H158	H	1.784708	-0.455245	0.277721
C159	C	0.432122	-0.486843	-0.255614
C160	C	0.932122	0.013157	0.244386
H161	H	0.377052	-0.479621	-0.262371
H162	H	0.877052	0.020379	0.237629
H163	H	0.445633	-0.475216	-0.206184
H164	H	0.945633	0.024784	0.293816
H165	H	0.445640	-0.539967	-0.266313
H166	H	0.945640	-0.039967	0.233687
C167	C	0.985522	-0.793735	-0.500375
C168	C	1.485522	-0.293735	-0.000375
H169	H	0.992752	-0.738660	-0.493633
H170	H	1.492752	-0.238660	0.006367
H171	H	0.932424	-0.807307	-0.489566
H172	H	1.432424	-0.307307	0.010434
H173	H	0.997073	-0.807222	-0.549836
H174	H	1.497073	-0.307222	-0.049836
H175	H	0.717487	-0.522884	-0.221922
H176	H	1.217487	-0.022884	0.278078
C177	C	1.036055	-0.669904	-0.453340
C178	C	1.536055	-0.169904	0.046660
H179	H	1.043280	-0.614828	-0.446604
H180	H	1.543280	-0.114828	0.053396
H181	H	0.982958	-0.683479	-0.442530
H182	H	1.482958	-0.183479	0.057470
H183	H	1.047607	-0.683397	-0.502799
H184	H	1.547607	-0.183397	-0.002799
H185	H	1.284669	-0.805481	-0.222260
H186	H	1.784669	-0.305481	0.277740
C187	C	1.036211	-0.486778	-0.935622
C188	C	1.536211	0.013222	-0.435622
H189	H	1.043467	-0.479533	-0.986902
H190	H	1.543467	0.020467	-0.486902
H191	H	0.983104	-0.475214	-0.923022
H192	H	1.483104	0.024786	-0.423022
H193	H	1.047764	-0.539892	-0.923017
H194	H	1.547764	-0.039892	-0.423017
C195	C	1.248580	-0.274523	-0.774292
C196	C	1.748580	0.225477	-0.274292
H197	H	1.241336	-0.281778	-0.723012
H198	H	1.741336	0.218222	-0.223012
H199	H	1.237034	-0.221411	-0.786895
H200	H	1.737034	0.278589	-0.286895
H201	H	1.301689	-0.286095	-0.786896
H202	H	1.801689	0.213905	-0.286896
H203	H	0.841347	-0.472387	-0.269055
H204	H	1.341347	0.027613	0.230945
H205	H	1.234037	-0.681666	-0.269277
H206	H	1.734037	-0.181666	0.230723
C207	C	1.248642	-1.090863	-0.255889
C208	C	1.748642	-0.590863	0.244111
H209	H	1.241422	-1.145939	-0.262632
H210	H	1.741422	-0.645939	0.237368
H211	H	1.237109	-1.077371	-0.206429
H212	H	1.737109	-0.577371	0.293571
H213	H	1.301740	-1.077291	-0.266715
H214	H	1.801740	-0.577291	0.233285
H215	H	1.050625	-0.472374	-0.785210
H216	H	1.550625	0.027626	-0.285210
H217	H	0.841470	-0.289186	-0.440097
H218	H	1.341470	0.210814	0.059903
H219	H	0.444058	-0.289206	-0.440131
H220	H	0.944058	0.210794	0.059869
C221	C	0.729478	-0.224279	-0.500723
C222	C	1.229478	0.275721	-0.000723
H223	H	0.693096	-0.194205	-0.528797
H224	H	1.193096	0.305795	-0.028797
H225	H	0.761683	-0.254558	-0.532740
H226	H	1.261683	0.245442	-0.032740
H227	H	0.761680	-0.189799	-0.472618
H228	H	1.261680	0.310201	0.027382
C229	C	0.985586	-0.967090	-0.500389
C230	C	1.485586	-0.467090	-0.000389
H231	H	0.955453	-0.930694	-0.528397
H232	H	1.455453	-0.430694	-0.028397
H233	H	0.951176	-0.999332	-0.472210
H234	H	1.451176	-0.499332	0.027790
H235	H	1.015820	-0.999254	-0.532484
H236	H	1.515820	-0.499254	-0.032484
