data_functionalizedCrystal
_audit_creation_method	'MofGen! by Chris Wilmer'
_symmetry_space_group_name_H-M	'P1'
_symmetry_Int_Tables_number	1
_symmetry_cell_setting	triclinic
loop_
_symmetry_equiv_pos_as_xyz
  x,y,z
_cell_length_a	19.805407
_cell_length_b	21.295417
_cell_length_c	19.805399
_cell_angle_alpha	90.030843
_cell_angle_beta	90.019573
_cell_angle_gamma	90.030507
loop_
_atom_site_label
_atom_site_type_symbol
_atom_site_fract_x
_atom_site_fract_y
_atom_site_fract_z
Zn1	Zn	1.034716	-0.250624	0.382704
Zn2	Zn	1.534716	0.249376	0.882704
Zn3	Zn	1.034623	-0.355893	0.269510
Zn4	Zn	1.534623	0.144107	0.769510
Zn5	Zn	0.921531	-0.250641	0.269529
Zn6	Zn	1.421531	0.249359	0.769529
Zn7	Zn	0.921486	-0.355859	0.382656
Zn8	Zn	1.421486	0.144141	0.882656
O9	O	0.978089	-0.303254	0.326100
O10	O	1.478089	0.196746	0.826100
O11	O	1.129421	-0.264595	0.367701
O12	O	1.629421	0.235405	0.867701
O13	O	1.019601	-0.341952	0.174796
O14	O	1.519601	0.158048	0.674796
O15	O	0.936603	-0.162549	0.284570
O16	O	1.436603	0.337451	0.784570
O17	O	1.129352	-0.341935	0.284537
O18	O	1.629352	0.158065	0.784537
O19	O	1.019760	-0.162537	0.367719
O20	O	1.519760	0.337463	0.867719
O21	O	0.936513	-0.264624	0.174810
O22	O	1.436513	0.235376	0.674810
O23	O	0.826809	-0.264592	0.284523
O24	O	1.326809	0.235408	0.784523
O25	O	0.936527	-0.341878	0.477379
O26	O	1.436527	0.158122	0.977379
O27	O	0.826776	-0.341895	0.367638
O28	O	1.326776	0.158105	0.867638
O29	O	1.019717	-0.264562	0.477415
O30	O	1.519717	0.235438	0.977415
O31	O	1.019558	-0.443977	0.284491
O32	O	1.519558	0.056023	0.784491
O33	O	0.936437	-0.443953	0.367619
O34	O	1.436437	0.056047	0.867619
C35	C	0.802233	-0.303242	0.326078
C36	C	1.302233	0.196758	0.826078
C37	C	0.727001	-0.303252	0.326085
C38	C	1.227001	0.196748	0.826085
C39	C	0.978001	-0.466806	0.326062
C40	C	1.478001	0.033194	0.826062
C41	C	0.978024	-0.536774	0.326069
C42	C	1.478024	-0.036774	0.826069
C43	C	0.691658	-0.343564	0.369292
C44	C	1.191658	0.156436	0.869292
C45	C	0.620969	-0.343566	0.369302
C46	C	1.120969	0.156434	0.869302
C47	C	0.585626	-0.303257	0.326100
C48	C	1.085626	0.196743	0.826100
C49	C	0.620974	-0.262940	0.282890
C50	C	1.120974	0.237060	0.782890
C51	C	0.691661	-0.262936	0.282885
C52	C	1.191661	0.237064	0.782885
C53	C	0.335901	-0.262954	0.282913
C54	C	0.835901	0.237046	0.782913
C55	C	0.265209	-0.262962	0.282920
C56	C	0.765209	0.237038	0.782920
C57	C	0.265209	-0.343583	0.369330
C58	C	0.765209	0.156417	0.869330
C59	C	0.335896	-0.343579	0.369324
C60	C	0.835896	0.156421	0.869324
C61	C	0.371238	-0.303261	0.326117
C62	C	0.871238	0.196739	0.826117
C63	C	0.447887	-0.303259	0.326109
C64	C	0.947887	0.196741	0.826109
C65	C	0.508979	-0.303261	0.326105
C66	C	1.008979	0.196739	0.826105
C67	C	1.021344	-0.569632	0.282828
C68	C	1.521344	-0.069632	0.782828
C69	C	1.021376	-0.635375	0.282844
C70	C	1.521376	-0.135375	0.782844
C71	C	0.978076	-0.668256	0.326092
C72	C	1.478076	-0.168256	0.826092
C73	C	0.934753	-0.635390	0.369341
C74	C	1.434753	-0.135390	0.869341
C75	C	0.934728	-0.569649	0.369330
C76	C	1.434728	-0.069649	0.869330
N77	N	0.918865	-0.771522	0.331245
N78	N	1.418865	-0.271522	0.831245
N79	N	0.918892	-0.833974	0.331252
N80	N	1.418892	-0.333974	0.831252
C81	C	0.978152	-0.866331	0.326131
C82	C	1.478152	-0.366331	0.826131
N83	N	1.037386	-0.833878	0.320989
N84	N	1.537386	-0.333878	0.820989
N85	N	1.037358	-0.771421	0.320979
N86	N	1.537358	-0.271421	0.820979
C87	C	0.978099	-0.739542	0.326110
C88	C	1.478099	-0.239542	0.826110
C89	C	1.021509	-0.970475	0.282905
C90	C	1.521509	-0.470475	0.782905
C91	C	1.021542	-1.036219	0.282925
C92	C	1.521542	-0.536219	0.782925
C93	C	0.934914	-1.036233	0.369419
C94	C	1.434914	-0.536233	0.869419
C95	C	0.934887	-0.970490	0.369402
C96	C	1.434887	-0.470490	0.869402
C97	C	0.978184	-0.937615	0.326142
C98	C	1.478184	-0.437615	0.826142
C99	C	1.154632	-0.303267	0.326122
C100	C	1.654632	0.196733	0.826122
C101	C	1.229864	-0.303272	0.326132
C102	C	1.729864	0.196728	0.826132
C103	C	0.978127	-0.303214	0.502643
C104	C	1.478127	0.196786	1.002643
C105	C	0.978143	-0.303198	0.577875
C106	C	1.478143	0.196802	1.077875
C107	C	0.978197	-0.139064	0.326152
C108	C	1.478197	0.360936	0.826152
C109	C	0.978243	-0.069096	0.326175
C110	C	1.478243	0.430904	0.826175
C111	C	0.978090	-0.303248	0.150244
C112	C	1.478090	0.196752	0.650244
C113	C	0.978205	-0.303088	0.075012
C114	C	1.478205	0.196912	0.575012
C115	C	1.021461	-0.262937	0.613238
C116	C	1.521461	0.237063	1.113238
C117	C	1.021468	-0.262919	0.683927
C118	C	1.521468	0.237081	1.183927
C119	C	0.978160	-0.303165	0.719250
C120	C	1.478160	0.196835	1.219250
C121	C	0.934838	-0.343427	0.683882
C122	C	1.434838	0.156573	1.183882
C123	C	0.934828	-0.343442	0.613195
C124	C	1.434828	0.156558	1.113195
C125	C	0.934876	-0.343368	0.968955
C126	C	1.434876	0.156632	1.468955
C127	C	0.934891	-0.343352	1.039647
C128	C	1.434891	0.156648	1.539647
C129	C	1.021516	-0.262846	1.039687
C130	C	1.521516	0.237154	1.539687
C131	C	1.021506	-0.262860	0.969000
C132	C	1.521506	0.237140	1.469000
C133	C	0.978182	-0.303120	0.933638
C134	C	1.478182	0.196880	1.433638
C135	C	0.978174	-0.303138	0.856989
C136	C	1.478174	0.196862	1.356989
C137	C	0.978171	-0.303150	0.795897
C138	C	1.478171	0.196850	1.295897
H139	H	0.592196	-0.376393	0.404485
H140	H	1.092196	0.123607	0.904485
H141	H	1.056654	-0.662134	0.247632
H142	H	1.556654	-0.162134	0.747632
C143	C	1.069196	-1.072363	0.235357
C144	C	1.569196	-0.572363	0.735357
H145	H	1.094971	-1.043366	0.209588
H146	H	1.594971	-0.543366	0.709588
H147	H	1.098685	-1.097967	0.261277
H148	H	1.598685	-0.597967	0.761277
H149	H	1.043324	-1.098050	0.205847
H150	H	1.543324	-0.598050	0.705847
C151	C	0.374771	-0.387917	0.416848
C152	C	0.874771	0.112083	0.916848
H153	H	0.343596	-0.411922	0.442588
H154	H	0.843596	0.088078	0.942588
H155	H	0.402323	-0.415311	0.390903
H156	H	0.902323	0.084689	0.890903
H157	H	0.402368	-0.363864	0.446386
H158	H	0.902368	0.136136	0.946386
H159	H	0.899661	-1.063004	0.404636
H160	H	1.399661	-0.563004	0.904636
H161	H	0.720429	-0.376391	0.404470
H162	H	1.220429	0.123609	0.904470
H163	H	0.236425	-0.376411	0.404513
H164	H	0.736425	0.123589	0.904513
H165	H	1.056601	-0.542868	0.247605
H166	H	1.556601	-0.042868	0.747605
C167	C	1.069169	-0.218556	1.078588
C168	C	1.569169	0.281444	1.578588
H169	H	1.062970	-0.224304	1.125746
H170	H	1.562970	0.275696	1.625746
H171	H	1.114637	-0.227777	1.067009
H172	H	1.614637	0.272223	1.567009
H173	H	1.059287	-0.176260	1.067013
H174	H	1.559287	0.323740	1.567013
C175	C	0.226332	-0.218616	0.235401
C176	C	0.726332	0.281384	0.735401
H177	H	0.257504	-0.194598	0.209673
H178	H	0.757504	0.305402	0.709673
H179	H	0.198732	-0.242659	0.205863
H180	H	0.698732	0.257341	0.705863
H181	H	0.198782	-0.191224	0.261360
H182	H	0.698782	0.308776	0.761360
H183	H	0.899608	-0.376159	0.940172
H184	H	1.399608	0.123841	1.440172
H185	H	0.899547	-0.376219	0.584402
H186	H	1.399547	0.123781	1.084402
H187	H	0.899573	-0.376193	0.712648
H188	H	1.399573	0.123807	1.212648
C189	C	0.887124	-0.671554	0.416916
C190	C	1.387124	-0.171554	0.916916
H191	H	0.861324	-0.642566	0.442672
H192	H	1.361324	-0.142566	0.942672
H193	H	0.857657	-0.697241	0.391003
H194	H	1.357657	-0.197241	0.891003
H195	H	0.913015	-0.697158	0.446437
H196	H	1.413015	-0.197158	0.946437
H197	H	0.899609	-0.943735	0.404610
H198	H	1.399609	-0.443735	0.904610
C199	C	0.887073	-0.533500	0.416893
C200	C	1.387073	-0.033500	0.916893
H201	H	0.893262	-0.489638	0.410693
H202	H	1.393262	0.010362	0.910693
H203	H	0.841606	-0.544319	0.406950
H204	H	1.341606	-0.044319	0.906950
H205	H	0.896963	-0.544234	0.462384
H206	H	1.396963	-0.044234	0.962384
C207	C	1.069140	-0.934310	0.235328
C208	C	1.569140	-0.434310	0.735328
H209	H	1.094953	-0.963298	0.209584
H210	H	1.594953	-0.463298	0.709584
H211	H	1.043258	-0.908706	0.205806
H212	H	1.543258	-0.408706	0.705806
H213	H	1.098606	-0.908623	0.261249
H214	H	1.598606	-0.408623	0.761249
H215	H	0.364668	-0.230129	0.247726
H216	H	0.864668	0.269871	0.747726
H217	H	0.592192	-0.230118	0.247718
H218	H	1.092192	0.269882	0.747718
C219	C	0.730539	-0.218592	0.235358
C220	C	1.230539	0.281408	0.735358
H221	H	0.699367	-0.194589	0.209625
H222	H	1.199367	0.305411	0.709625
H223	H	0.758138	-0.191196	0.261305
H224	H	1.258138	0.308804	0.761305
H225	H	0.758090	-0.242635	0.205813
H226	H	1.258090	0.257365	0.705813
C227	C	1.069097	-0.218663	0.574388
C228	C	1.569097	0.281337	1.074388
H229	H	1.094891	-0.194678	0.605576
H230	H	1.594891	0.305322	1.105576
H231	H	1.098571	-0.242746	0.546809
H232	H	1.598571	0.257254	1.046809
H233	H	1.043212	-0.191238	0.546820
H234	H	1.543212	0.308762	1.046820
H235	H	1.056743	-0.230136	0.712717
H236	H	1.556743	0.269864	1.212717
C237	C	1.069142	-0.218588	0.930148
C238	C	1.569142	0.281412	1.430148
H239	H	1.094938	-0.194603	0.961334
H240	H	1.594938	0.305397	1.461334
H241	H	1.098614	-0.242673	0.902568
H242	H	1.598614	0.257327	1.402568
H243	H	1.043257	-0.191163	0.902580
H244	H	1.543257	0.308837	1.402580
C245	C	0.887250	-0.387622	1.078505
C246	C	1.387250	0.112378	1.578505
H247	H	0.893469	-0.381851	1.125669
H248	H	1.393469	0.118149	1.625669
H249	H	0.841776	-0.378408	1.066920
H250	H	1.341776	0.121592	1.566920
H251	H	0.897128	-0.429923	1.066907
H252	H	1.397128	0.070077	1.566907
