data_functionalizedCrystal
_audit_creation_method	'MofGen! by Chris Wilmer'
_symmetry_space_group_name_H-M	'P1'
_symmetry_Int_Tables_number	1
_symmetry_cell_setting	triclinic
loop_
_symmetry_equiv_pos_as_xyz
  x,y,z
_cell_length_a	13.262522
_cell_length_b	15.625429
_cell_length_c	12.376457
_cell_angle_alpha	83.658771
_cell_angle_beta	63.170097
_cell_angle_gamma	79.415625
loop_
_atom_site_label
_atom_site_type_symbol
_atom_site_fract_x
_atom_site_fract_y
_atom_site_fract_z
O1	O	1.514056	0.017698	-0.566730
O2	O	1.189731	0.046957	-0.479016
O3	O	1.349193	-0.089581	-0.472070
O4	O	1.354595	0.154236	-0.573676
O5	O	1.309338	-0.055491	-0.285780
O6	O	1.149877	0.081047	-0.292726
O7	O	1.474202	0.051788	-0.380440
Zn8	Zn	1.305712	0.071830	-0.307005
Zn9	Zn	1.358221	0.026915	-0.552451
O10	O	1.314741	0.188327	-0.387386
C11	C	1.128087	0.065498	-0.373659
C12	C	1.003783	0.069943	-0.337266
C13	C	0.923666	0.090617	-0.218617
C14	C	0.806875	0.094788	-0.184412
C15	C	0.770188	0.078292	-0.268856
C16	C	0.850305	0.057624	-0.387510
C17	C	0.967108	0.053446	-0.421716
C18	C	0.813630	0.041120	-0.471955
C19	C	0.893747	0.020452	-0.590610
C20	C	1.010539	0.016276	-0.624810
C21	C	1.047225	0.032772	-0.540366
C22	C	0.696827	0.045298	-0.437750
C23	C	0.740269	0.008127	-0.640849
C24	C	0.857061	0.003956	-0.675054
C25	C	1.325561	-0.103588	-0.365060
C26	C	1.314509	-0.196115	-0.323741
C27	C	1.386743	-0.593328	-0.695534
C28	C	1.376346	-0.680263	-0.656672
C29	C	1.332900	-0.643087	-0.453592
C30	C	1.343299	-0.556147	-0.492437
C31	C	1.370219	-0.531275	-0.613409
C32	C	1.326775	-0.494094	-0.410313
C33	C	1.337168	-0.407161	-0.449154
C34	C	1.364084	-0.382281	-0.570120
C35	C	1.380612	-0.444342	-0.652251
C36	C	1.299847	-0.518967	-0.289339
C37	C	1.283323	-0.456914	-0.207215
C38	C	1.293724	-0.369981	-0.246058
C39	C	1.320640	-0.345101	-0.367024
C40	C	1.277196	-0.307920	-0.163928
C41	C	1.287589	-0.220987	-0.202769
C42	C	1.331033	-0.258168	-0.405865
C43	C	1.535847	0.033248	-0.485800
C44	C	1.660152	0.028800	-0.522199
C45	C	1.338373	0.202334	-0.494399
C46	C	1.349426	0.294859	-0.535725
N47	N	1.269884	0.102483	-0.139497
N48	N	1.394058	-0.003744	-0.719959
C49	C	1.477225	-0.074915	0.224463
C50	C	1.502295	-0.096369	0.107210
C51	C	1.444194	-0.046658	0.045528
C52	C	1.361019	0.024511	0.101109
C53	C	1.335953	0.045971	0.218370
C54	C	1.302922	0.074228	0.039435
C55	C	1.219747	0.145397	0.095017
C56	C	1.194685	0.166852	0.212267
C57	C	1.252786	0.117141	0.273949
C58	C	1.327988	0.052768	-0.077826
C59	C	1.186716	0.173654	-0.083918
C60	C	1.161646	0.195107	0.033334
H61	H	0.710401	-0.005304	-0.709612
H62	H	1.093924	0.253055	0.078604
H63	H	1.291374	-0.589753	-0.257716
H64	H	1.524530	-0.115380	0.274689
H65	H	1.310977	-0.663350	-0.355095
H66	H	1.232371	0.134606	0.369428
H67	H	0.953550	0.104039	-0.149873
H68	H	1.402543	-0.424092	-0.750760
N69	N	1.173198	0.028274	-0.577265
H70	H	1.188669	0.086707	-0.565741
H71	H	1.196855	-0.017606	-0.525511
H72	H	1.126968	0.224808	0.257516
H73	H	1.408674	-0.573078	-0.794043
N74	N	0.644222	0.082798	-0.231978
H75	H	0.628742	0.024370	-0.243507
H76	H	0.599114	0.098430	-0.144010
H77	H	1.395710	-0.005177	-0.123070
N78	N	1.254303	-0.483749	-0.076748
H79	H	1.245416	-0.431245	-0.030618
H80	H	1.180406	-0.508841	-0.039266
N81	N	1.124046	0.227281	-0.150434
H82	H	1.152543	0.202886	-0.233146
H83	H	1.039408	0.225253	-0.102882
H84	H	1.274110	-0.170458	-0.135889
N85	N	0.720465	0.117074	-0.056445
H86	H	0.761467	0.126304	-0.007912
H87	H	0.667417	0.172090	-0.057880
N88	N	1.096955	-0.006035	-0.752776
H89	H	1.055996	-0.015853	-0.801082
H90	H	1.142238	0.043559	-0.791504
N91	N	1.394138	-0.747204	-0.745230
H92	H	1.336795	-0.730030	-0.779431
H93	H	1.474101	-0.750360	-0.813266
N94	N	0.943471	-0.018342	-0.803027
H95	H	0.988770	0.031236	-0.841849
H96	H	0.996950	-0.073062	-0.801537
H97	H	1.372533	-0.311492	-0.601740
N98	N	1.360034	-0.231266	-0.536317
H99	H	1.436361	-0.264649	-0.590950
H100	H	1.299011	-0.244329	-0.556912
N101	N	1.591997	-0.173124	0.047268
H102	H	1.599066	-0.179172	-0.036374
H103	H	1.667868	-0.163584	0.040709
H104	H	0.631606	0.062133	-0.341143
H105	H	1.255266	-0.328183	-0.065429
H106	H	1.464610	-0.064129	-0.049945
