data_functionalizedCrystal
_audit_creation_method	'MofGen! by Chris Wilmer'
_symmetry_space_group_name_H-M	'P1'
_symmetry_Int_Tables_number	1
_symmetry_cell_setting	triclinic
loop_
_symmetry_equiv_pos_as_xyz
  x,y,z
_cell_length_a	12.837943
_cell_length_b	10.654550
_cell_length_c	9.730223
_cell_angle_alpha	90.004253
_cell_angle_beta	90.002123
_cell_angle_gamma	89.656935
loop_
_atom_site_label
_atom_site_type_symbol
_atom_site_fract_x
_atom_site_fract_y
_atom_site_fract_z
O1	O	-1.377801	-0.326750	-0.114265
O2	O	-1.075880	-0.310609	-0.114273
O3	O	-1.233782	-0.136698	-0.114260
O4	O	-1.219899	-0.500662	-0.114278
O5	O	-1.233772	-0.136692	0.114320
O6	O	-1.075869	-0.310603	0.114307
O7	O	-1.377791	-0.326744	0.114315
Zn8	Zn	-1.226829	-0.318672	0.150603
Zn9	Zn	-1.226842	-0.318681	-0.150561
O10	O	-1.219888	-0.500655	0.114302
C11	C	-1.037215	-0.305153	0.000016
C12	C	-0.922021	-0.288891	0.000013
C13	C	-1.232758	-0.089786	0.000029
C14	C	-1.229708	0.049990	0.000027
C15	C	-1.416456	-0.332200	0.000023
C16	C	-1.531650	-0.348462	0.000017
C17	C	-0.682468	-0.484395	0.000023
C18	C	-0.574232	-0.469121	0.000021
C19	C	-0.597312	-0.243070	0.000018
C20	C	-0.705547	-0.258344	0.000019
C21	C	-0.748121	-0.379010	0.000020
C22	C	-0.856359	-0.394284	0.000012
C23	C	-0.879436	-0.168233	0.000018
C24	C	-0.771201	-0.152959	0.000016
C25	C	-1.220913	-0.547568	0.000010
C26	C	-1.223963	-0.687344	0.000003
N27	N	-1.226827	-0.318667	0.356139
C28	C	-1.322678	0.119331	0.000029
C29	C	-1.319806	0.250665	0.000012
C30	C	-1.130985	0.243307	-0.000003
C31	C	-1.133858	0.111975	0.000004
N32	N	-1.226852	-0.318677	-0.356098
C33	C	-1.296770	-0.241698	0.428071
C34	C	-1.296781	-0.241699	0.571954
C35	C	-1.156901	-0.395650	0.571961
C36	C	-1.156886	-0.395641	0.428080
H37	H	-0.891020	-0.492536	0.000015
H38	H	-0.717132	-0.582647	0.000022
H39	H	-0.932904	-0.082421	0.000006
N40	N	-1.372187	-0.158674	0.350457
H41	H	-1.445928	-0.182008	0.375469
H42	H	-1.359511	-0.068058	0.375538
N43	N	-0.725265	-0.022824	0.000010
H44	H	-0.749146	0.023921	-0.084728
H45	H	-0.749154	0.023841	0.084797
N46	N	-0.551366	-0.112941	0.000024
H47	H	-0.575238	-0.066183	-0.084711
H48	H	-0.575253	-0.066280	0.084815
N49	N	-0.503438	-0.582802	0.000063
H50	H	-0.517228	-0.634897	-0.084659
H51	H	-0.428433	-0.554741	0.000127
N52	N	-1.372229	-0.158695	0.649539
H53	H	-1.418502	-0.212272	0.709217
H54	H	-1.332124	-0.098281	0.709174
N55	N	-1.081449	-0.478672	0.350490
H56	H	-1.092052	-0.466981	0.248426
H57	H	-1.007750	-0.455293	0.375657
N58	N	-1.426053	0.052473	0.000042
H59	H	-1.431449	-0.001837	0.084784
H60	H	-1.484451	0.116412	-0.000012
H61	H	-1.395513	0.307116	0.000010
H62	H	-1.099958	-0.458322	0.630550
H63	H	-1.058146	0.055516	-0.000002
N64	N	-1.027609	0.310162	-0.000022
H65	H	-1.039894	0.403882	-0.000021
H66	H	-0.986880	0.285605	0.084714
