data_functionalizedCrystal
_audit_creation_method	'MofGen! by Chris Wilmer'
_symmetry_space_group_name_H-M	'P1'
_symmetry_Int_Tables_number	1
_symmetry_cell_setting	triclinic
loop_
_symmetry_equiv_pos_as_xyz
  x,y,z
_cell_length_a	14.044220
_cell_length_b	13.596369
_cell_length_c	14.519709
_cell_angle_alpha	90.006934
_cell_angle_beta	91.565489
_cell_angle_gamma	89.999747
loop_
_atom_site_label
_atom_site_type_symbol
_atom_site_fract_x
_atom_site_fract_y
_atom_site_fract_z
O1	O	1.258085	-0.081691	-0.222370
O2	O	1.758085	0.418309	0.277630
O3	O	0.982102	-0.081716	-0.214346
O4	O	1.482102	0.418284	0.285654
O5	O	1.127410	-0.081694	-0.084710
O6	O	1.627410	0.418306	0.415290
O7	O	1.112776	-0.081713	-0.352006
O8	O	1.612776	0.418287	0.147994
O9	O	1.127396	0.081889	-0.084701
O10	O	1.627396	0.581889	0.415299
O11	O	0.982087	0.081867	-0.214337
O12	O	1.482087	0.581867	0.285663
O13	O	1.258070	0.081892	-0.222361
O14	O	1.758070	0.581892	0.277639
Zn15	Zn	1.120076	0.107852	-0.218348
Zn16	Zn	1.620076	0.607852	0.281652
Zn17	Zn	1.120095	-0.107676	-0.218359
Zn18	Zn	1.620095	0.392324	0.281641
O19	O	1.112761	0.081870	-0.351997
O20	O	1.612761	0.581870	0.148003
C21	C	0.946774	0.000073	-0.210829
C22	C	1.446774	0.500073	0.289171
C23	C	0.841531	0.000064	-0.200352
C24	C	1.341531	0.500064	0.299648
C25	C	1.126721	0.000098	-0.050290
C26	C	1.626721	0.500098	0.449710
C27	C	1.124677	0.000098	0.052256
C28	C	1.624677	0.500098	0.552256
N29	N	1.120070	0.254944	-0.218340
N30	N	1.620070	0.754944	0.281660
C31	C	0.648837	0.000084	-0.181197
C32	C	1.148837	0.500084	0.318803
C33	C	0.591329	0.000083	-0.255505
C34	C	1.091329	0.500083	0.244495
C35	C	0.484108	0.000095	-0.244848
C36	C	0.984108	0.500095	0.255152
C37	C	0.756068	0.000073	-0.191854
C38	C	1.256068	0.500073	0.308146
C39	C	1.293398	0.000101	-0.225878
C40	C	1.793398	0.500101	0.274122
C41	C	1.398641	0.000104	-0.236355
C42	C	1.898641	0.500104	0.263645
N43	N	1.120109	-0.254767	-0.218360
N44	N	1.620109	0.245233	0.281640
C45	C	1.120094	0.656235	-0.218360
C46	C	1.620094	1.156235	0.281640
C47	C	1.120085	0.544583	-0.218357
C48	C	1.620085	1.044583	0.281643
C49	C	1.120083	0.455593	-0.218351
C50	C	1.620083	0.955593	0.281649
C51	C	1.120072	0.343934	-0.218347
C52	C	1.620072	0.843934	0.281653
C53	C	1.113451	0.000076	-0.386416
C54	C	1.613451	0.500076	0.113584
C55	C	1.115494	0.000070	-0.488963
C56	C	1.615494	0.500070	0.011037
C57	C	1.117153	0.000072	0.427758
C58	C	1.617153	0.500072	0.927758
C59	C	1.119243	0.000079	0.323282
C60	C	1.619243	0.500079	0.823282
C61	C	1.120915	0.000086	0.240010
C62	C	1.620915	0.500086	0.740010
C63	C	1.123005	0.000092	0.135527
C64	C	1.623005	0.500092	0.635527
H65	H	0.617546	0.000095	-0.109582
H66	H	1.117546	0.500095	0.390418
H67	H	0.622622	0.000073	-0.327127
H68	H	1.122622	0.500073	0.172873
