data_functionalizedCrystal
_audit_creation_method	'MofGen! by Chris Wilmer'
_symmetry_space_group_name_H-M	'P1'
_symmetry_Int_Tables_number	1
_symmetry_cell_setting	triclinic
loop_
_symmetry_equiv_pos_as_xyz
  x,y,z
_cell_length_a	21.295120
_cell_length_b	16.625548
_cell_length_c	16.625545
_cell_angle_alpha	89.971982
_cell_angle_beta	89.645918
_cell_angle_gamma	90.067019
loop_
_atom_site_label
_atom_site_type_symbol
_atom_site_fract_x
_atom_site_fract_y
_atom_site_fract_z
Zn1	Zn	0.355956	1.233026	0.318364
Zn2	Zn	0.689289	1.566360	0.651698
Zn3	Zn	1.022623	1.899693	0.985031
Zn4	Zn	0.250692	1.232809	0.453980
Zn5	Zn	0.584025	1.566143	0.787314
Zn6	Zn	0.917358	1.899476	1.120647
Zn7	Zn	0.250697	1.098078	0.319168
Zn8	Zn	0.584031	1.431412	0.652501
Zn9	Zn	0.917364	1.764745	0.985834
Zn10	Zn	0.355927	1.098148	0.453162
Zn11	Zn	0.689260	1.431481	0.786495
Zn12	Zn	1.022594	1.764815	1.119828
O13	O	0.303318	1.165515	0.386169
O14	O	0.636651	1.498849	0.719502
O15	O	0.969985	1.832182	1.052835
O16	O	0.342002	1.345830	0.336361
O17	O	0.675335	1.679163	0.669694
O18	O	1.008669	2.012497	1.003027
O19	O	0.162600	1.214817	0.436776
O20	O	0.495934	1.548150	0.770109
O21	O	0.829267	1.881484	1.103443
O22	O	0.264675	1.116041	0.206229
O23	O	0.598008	1.449375	0.539562
O24	O	0.931341	1.782708	0.872895
O25	O	0.264665	1.345670	0.435997
O26	O	0.597998	1.679004	0.769330
O27	O	0.931332	2.012337	1.102664
O28	O	0.342008	1.215187	0.205639
O29	O	0.675341	1.548520	0.538972
O30	O	1.008674	1.881854	0.872305
O31	O	0.162604	1.115831	0.337730
O32	O	0.495938	1.449164	0.671063
O33	O	0.829271	1.782497	1.004396
O34	O	0.264647	0.985255	0.336936
O35	O	0.597980	1.318589	0.670269
O36	O	0.931313	1.651922	1.003603
O37	O	0.444023	1.116160	0.434602
O38	O	0.777357	1.449493	0.767935
O39	O	1.110690	1.782826	1.101268
O40	O	0.341958	0.985306	0.435381
O41	O	0.675292	1.318640	0.768714
O42	O	1.008625	1.651973	1.102047
O43	O	0.444044	1.215254	0.335567
O44	O	0.777378	1.548588	0.668900
O45	O	1.110711	1.881921	1.002233
O46	O	0.264637	1.214884	0.566704
O47	O	0.597970	1.548218	0.900037
O48	O	0.931304	1.881551	1.233371
O49	O	0.341953	1.115949	0.566103
O50	O	0.675286	1.449283	0.899436
O51	O	1.008620	1.782616	1.232769
C52	C	0.303300	0.956025	0.386157
C53	C	0.636634	1.289358	0.719490
C54	C	0.969967	1.622691	1.052824
C55	C	0.303308	0.866403	0.386172
C56	C	0.636641	1.199737	0.719505
C57	C	0.969975	1.533070	1.052838
C58	C	0.303335	0.538228	0.386177
C59	C	0.636668	0.871561	0.719510
C60	C	0.970001	1.204895	1.052843
C61	C	0.303325	0.629536	0.386173
C62	C	0.636659	0.962870	0.719506
C63	C	0.969992	1.296203	1.052840
C64	C	0.303321	0.702313	0.386175
C65	C	0.636654	1.035646	0.719508
C66	C	0.969987	1.368979	1.052841
C67	C	0.303312	0.793627	0.386170
C68	C	0.636646	1.126960	0.719503
C69	C	0.969979	1.460294	1.052837
C70	C	0.139761	1.165339	0.387371
C71	C	0.473094	1.498673	0.720704
C72	C	0.806428	1.832006	1.054037
C73	C	0.069791	1.165400	0.387683
C74	C	0.403124	1.498734	0.721016
C75	C	0.736458	1.832067	1.054349
C76	C	0.037446	1.216637	0.335539
C77	C	0.370779	1.549970	0.668872
C78	C	0.704112	1.883303	1.002205
C79	C	-0.028295	1.216696	0.335131
C80	C	0.305038	1.550029	0.668465
C81	C	0.638372	1.883362	1.001798
C82	C	-0.061688	1.165504	0.386860
C83	C	0.271646	1.498838	0.720193
C84	C	0.604979	1.832171	1.053526
C85	C	-0.029335	1.114265	0.439014
C86	C	0.303999	1.447598	0.772347
C87	C	0.637332	1.780931	1.105681
C88	C	0.036405	1.114212	0.439425
C89	C	0.369738	1.447546	0.772759
C90	C	0.703071	1.780879	1.106092
N91	N	-0.165061	1.095050	0.392907
N92	N	0.168273	1.428383	0.726240
N93	N	0.501606	1.761717	1.059573
N94	N	-0.227510	1.095102	0.392511
N95	N	0.105823	1.428435	0.725844
N96	N	0.439156	1.761768	1.059178
C97	C	-0.259757	1.165660	0.385624
C98	C	0.073577	1.498993	0.718958
C99	C	0.406910	1.832326	1.052291
N100	N	-0.227194	1.236165	0.379132
N101	N	0.106139	1.569499	0.712466
N102	N	0.439472	1.902832	1.045799
N103	N	-0.164739	1.236112	0.379524
N104	N	0.168594	1.569446	0.712857
N105	N	0.501928	1.902779	1.046191
C106	C	-0.132971	1.165556	0.386420
C107	C	0.200362	1.498889	0.719753
C108	C	0.533696	1.832222	1.053086
C109	C	-0.363386	1.216964	0.333036
C110	C	-0.030052	1.550298	0.666369
C111	C	0.303281	1.883631	0.999703
C112	C	-0.429127	1.217025	0.332634
C113	C	-0.095794	1.550359	0.665968
C114	C	0.237539	1.883692	0.999301
C115	C	-0.430166	1.114587	0.436512
C116	C	-0.096832	1.447920	0.769846
C117	C	0.236501	1.781253	1.103179
C118	C	-0.364425	1.114533	0.436918
C119	C	-0.031092	1.447867	0.770252
C120	C	0.302241	1.781200	1.103585
C121	C	-0.331039	1.165721	0.385176
C122	C	0.002294	1.499054	0.718509
C123	C	0.335628	1.832388	1.051842
C124	C	0.467514	1.165739	0.384903
C125	C	0.800847	1.499072	0.718237
C126	C	1.134181	1.832406	1.051570
C127	C	0.537484	1.165834	0.384364
C128	C	0.870818	1.499168	0.717697
C129	C	1.204151	1.832501	1.051031
C130	C	0.303305	1.165423	0.595659
C131	C	0.636638	1.498756	0.928993
C132	C	0.969972	1.832089	1.262326
C133	C	0.303320	1.165457	0.685280
C134	C	0.636654	1.498790	1.018614
C135	C	0.969987	1.832124	1.351947
C136	C	0.303336	1.375824	0.386181
C137	C	0.636669	1.709158	0.719514
C138	C	0.970003	2.042491	1.052847
C139	C	0.303344	1.465445	0.386186
C140	C	0.636677	1.798779	0.719519
C141	C	0.970010	2.132112	1.052852
C142	C	0.303335	1.165486	0.758063
C143	C	0.636669	1.498820	1.091396
C144	C	0.970002	1.832153	1.424729
C145	C	0.303352	1.165531	0.849371
C146	C	0.636685	1.498865	1.182704
C147	C	0.970019	1.832198	1.516038
C148	C	0.303362	1.165571	0.922147
C149	C	0.636696	1.498905	1.255481
C150	C	0.970029	1.832238	1.588814
C151	C	0.303378	1.165615	1.013462
C152	C	0.636711	1.498949	1.346795
C153	C	0.970045	1.832282	1.680128
C154	C	0.303353	1.165624	1.175859
C155	C	0.636686	1.498958	1.509193
C156	C	0.970020	1.832291	1.842526
C157	C	0.303388	1.165655	1.086238
C158	C	0.636722	1.498989	1.419571
C159	C	0.970055	1.832322	1.752905
H160	H	0.064625	1.258321	0.293409
H161	H	0.397958	1.591655	0.626743
H162	H	0.731291	1.924988	0.960076
H163	H	-0.054636	1.258418	0.292667
H164	H	0.278698	1.591752	0.626000
H165	H	0.612031	1.925085	0.959333
H166	H	-0.056527	1.072585	0.481133
H167	H	0.276806	1.405919	0.814466
H168	H	0.610139	1.739252	1.147799
N169	N	0.071296	1.058949	0.495669
N170	N	0.404629	1.392282	0.829002
N171	N	0.737963	1.725615	1.162336
H172	H	0.040169	1.026529	0.528381
H173	H	0.373502	1.359862	0.861714
H174	H	0.706836	1.693195	1.195047
H175	H	0.098799	1.021391	0.463288
H176	H	0.432132	1.354725	0.796621
H177	H	0.765466	1.688058	1.129954
H178	H	-0.336201	1.258644	0.290903
H179	H	-0.002868	1.591977	0.624237
H180	H	0.330466	1.925311	0.957570
N181	N	-0.464018	1.272296	0.276397
N182	N	-0.130684	1.605630	0.609730
N183	N	0.202649	1.938963	0.943063
H184	H	-0.432890	1.304712	0.243682
H185	H	-0.099556	1.638046	0.577016
H186	H	0.233777	1.971379	0.910349
H187	H	-0.491022	1.239246	0.239154
H188	H	-0.157689	1.572579	0.572487
H189	H	0.175644	1.905912	0.905821
H190	H	-0.457354	1.072909	0.478634
H191	H	-0.124020	1.406242	0.811967
H192	H	0.209313	1.739575	1.145300
N193	N	-0.329533	1.059268	0.493157
N194	N	0.003800	1.392601	0.826490
N195	N	0.337133	1.725934	1.159823
H196	H	-0.360661	1.026846	0.525865
H197	H	-0.027328	1.360179	0.859199
H198	H	0.306006	1.693512	1.192532
H199	H	-0.302029	1.021712	0.460776
H200	H	0.031304	1.355045	0.794109
H201	H	0.364638	1.688378	1.127443
