data_functionalizedCrystal
_audit_creation_method	'MofGen! by Chris Wilmer'
_symmetry_space_group_name_H-M	'P1'
_symmetry_Int_Tables_number	1
_symmetry_cell_setting	triclinic
loop_
_symmetry_equiv_pos_as_xyz
  x,y,z
_cell_length_a	12.759401
_cell_length_b	12.759394
_cell_length_c	12.759393
_cell_angle_alpha	89.968780
_cell_angle_beta	89.979062
_cell_angle_gamma	90.016362
loop_
_atom_site_label
_atom_site_type_symbol
_atom_site_fract_x
_atom_site_fract_y
_atom_site_fract_z
Zn1	Zn	1.606265	-0.418173	-0.594015
Zn2	Zn	1.606156	-0.593889	-0.418333
Zn3	Zn	1.430564	-0.418229	-0.418350
Zn4	Zn	1.430556	-0.593815	-0.593970
O5	O	1.518385	-0.506026	-0.506167
O6	O	1.753272	-0.441489	-0.570722
O7	O	1.582821	-0.570641	-0.271314
O8	O	1.453921	-0.271200	-0.441678
O9	O	1.753192	-0.570587	-0.441649
O10	O	1.583008	-0.271159	-0.570739
O11	O	1.453815	-0.441585	-0.271327
O12	O	1.283542	-0.441513	-0.441635
O13	O	1.453906	-0.570462	-0.740997
O14	O	1.283536	-0.570516	-0.570662
O15	O	1.582999	-0.441418	-0.741030
O16	O	1.582813	-0.740900	-0.441605
O17	O	1.453800	-0.740846	-0.570645
C18	C	1.245418	-0.506014	-0.506146
C19	C	1.128641	-0.506033	-0.506162
C20	C	1.073804	-0.573307	-0.573241
C21	C	0.964080	-0.573311	-0.573262
C22	C	0.964041	-0.438765	-0.439116
C23	C	1.073763	-0.438756	-0.439101
C24	C	1.518322	-0.778994	-0.506141
C25	C	1.518391	-0.895771	-0.506166
C26	C	1.652833	-0.895773	-0.371897
C27	C	1.720082	-0.950636	-0.304775
C28	C	1.720143	-1.060357	-0.304804
C29	C	1.652951	-1.115219	-0.371964
C30	C	1.585703	-1.060357	-0.439086
C31	C	1.585647	-0.950633	-0.439048
C32	C	1.451268	-1.060354	-0.573358
C33	C	1.451200	-0.950632	-0.573326
C34	C	1.384076	-1.115216	-0.640518
C35	C	1.316821	-1.060354	-0.707636
C36	C	1.316761	-0.950626	-0.707604
C37	C	1.383951	-0.895770	-0.640448
C38	C	1.792419	-0.506040	-0.506188
C39	C	1.909195	-0.506046	-0.506198
C40	C	1.518464	-0.505925	-0.780200
C41	C	1.518497	-0.505883	-0.896977
C42	C	1.518477	-0.231993	-0.506215
C43	C	1.518516	-0.115216	-0.506236
C44	C	1.585721	-0.438679	-0.951858
C45	C	1.585739	-0.438633	-1.061582
C46	C	1.451306	-0.573005	-1.061535
C47	C	1.451284	-0.573044	-0.951813
C48	C	1.518367	-0.506051	-0.233200
C49	C	1.518537	-0.505798	-0.116423
H50	H	0.919435	-0.628091	-0.627885
C51	C	1.138918	-1.094248	-0.758689
C52	C	1.242972	-1.120654	-0.781456
H53	H	1.093328	-1.131473	-0.804269
H54	H	1.123592	-1.112313	-0.688102
H55	H	1.129265	-1.021048	-0.768274
H56	H	1.252627	-1.193852	-0.771863
H57	H	1.258303	-1.102596	-0.852060
H58	H	1.640478	-0.383908	-1.106261
C59	C	1.410916	-1.272284	-0.740529
C60	C	1.384151	-1.235824	-0.640554
H61	H	1.410967	-1.346742	-0.740547
H62	H	1.361250	-1.247468	-0.790104
H63	H	1.478694	-1.247380	-0.758728
H64	H	1.316369	-1.260721	-0.622358
H65	H	1.433820	-1.260651	-0.590963
H66	H	1.118483	-0.628086	-0.627849
H67	H	1.396586	-0.627687	-1.106195
C68	C	1.318409	-0.705876	-0.962778
C69	C	1.377390	-0.646925	-0.891479
H70	H	1.272797	-0.751487	-0.925528
H71	H	1.278246	-0.660086	-1.005573
H72	H	1.364189	-0.746051	-1.005577
H73	H	1.331610	-0.606744	-0.848686
H74	H	1.417556	-0.692721	-0.848666
C75	C	1.265496	-0.916743	-0.885461
C76	C	1.242842	-0.890324	-0.781391
H77	H	1.219856	-0.879522	-0.931013
H78	H	1.336062	-0.898682	-0.900874
H79	H	1.255917	-0.989944	-0.895075
H80	H	1.252428	-0.817125	-0.771774
H81	H	1.172259	-0.908378	-0.765973
H82	H	1.652776	-0.806432	-0.371854
H83	H	1.640448	-0.383989	-0.907214
H84	H	1.774908	-1.105026	-0.250152
C85	C	0.840582	-0.424003	-0.297836
C86	C	0.903713	-0.364822	-0.365400
H87	H	0.803345	-0.378351	-0.252323
H88	H	0.792224	-0.464062	-0.337788
H89	H	0.883368	-0.469720	-0.257564
H90	H	0.860926	-0.319110	-0.405678
H91	H	0.952077	-0.324745	-0.325444
C92	C	1.062712	-0.305766	-0.306491
C93	C	1.134049	-0.364806	-0.365359
H94	H	1.099932	-0.260119	-0.260966
H95	H	1.019950	-0.265637	-0.352339
H96	H	1.019884	-0.351506	-0.266229
H97	H	1.176871	-0.319066	-0.405626
H98	H	1.176829	-0.404938	-0.319505
C99	C	1.779679	-0.782437	-0.245091
C100	C	1.793933	-0.890330	-0.230951
H101	H	1.825269	-0.745212	-0.199512
H102	H	1.795020	-0.764389	-0.315679
H103	H	1.709081	-0.764539	-0.229655
H104	H	1.864530	-0.908230	-0.246396
H105	H	1.778600	-0.908386	-0.160347
C106	C	1.310669	-0.738588	-0.713502
C107	C	1.383883	-0.775163	-0.640408
H108	H	1.310627	-0.664130	-0.713470
H109	H	1.328828	-0.763332	-0.781313
H110	H	1.242895	-0.763487	-0.695283
H111	H	1.451659	-0.750270	-0.658632
H112	H	1.365730	-0.750409	-0.572583
C113	C	1.726242	-1.272395	-0.298908
C114	C	1.653024	-1.235827	-0.372001
H115	H	1.726279	-1.346854	-0.298929
H116	H	1.794007	-1.247502	-0.317129
H117	H	1.708083	-1.247642	-0.231090
H118	H	1.671188	-1.260573	-0.439820
H119	H	1.585244	-1.260731	-0.353785
