data_functionalizedCrystal
_audit_creation_method	'MofGen! by Chris Wilmer'
_symmetry_space_group_name_H-M	'P1'
_symmetry_Int_Tables_number	1
_symmetry_cell_setting	triclinic
loop_
_symmetry_equiv_pos_as_xyz
  x,y,z
_cell_length_a	10.540510
_cell_length_b	10.540539
_cell_length_c	13.596369
_cell_angle_alpha	89.996161
_cell_angle_beta	89.994444
_cell_angle_gamma	84.519401
loop_
_atom_site_label
_atom_site_type_symbol
_atom_site_fract_x
_atom_site_fract_y
_atom_site_fract_z
O1	O	1.685911	0.178723	-0.081793
O2	O	1.316493	0.195618	-0.081793
O3	O	1.509630	0.002463	-0.081791
O4	O	1.492774	0.371878	-0.081794
O5	O	1.509610	0.002452	0.081792
O6	O	1.316473	0.195607	0.081790
O7	O	1.685891	0.178712	0.081790
Zn8	Zn	1.501179	0.187158	0.107763
Zn9	Zn	1.501205	0.187172	-0.107765
O10	O	1.492754	0.371867	0.081789
C11	C	1.269179	0.194354	-0.000001
C12	C	1.128229	0.190587	-0.000001
C13	C	0.910774	0.324771	-0.000378
C14	C	1.057370	0.328789	-0.000004
C15	C	1.083459	0.119835	0.093411
C16	C	0.936697	0.116796	0.093483
C17	C	0.936914	0.113929	-0.092541
C18	C	1.083255	0.120485	-0.093770
C19	C	1.508356	-0.044845	-0.000002
C20	C	1.504574	-0.185793	-0.000007
C21	C	1.359655	-0.369204	-0.000374
C22	C	1.363489	-0.222587	-0.000006
C23	C	1.572459	-0.247464	0.093407
C24	C	1.567644	-0.394008	0.093486
C25	C	1.570536	-0.394514	-0.092539
C26	C	1.571835	-0.247533	-0.093774
C27	C	1.733204	0.179976	-0.000003
C28	C	1.874154	0.183743	-0.000009
C29	C	1.494028	0.419175	-0.000003
C30	C	1.497810	0.560123	-0.000004
N31	N	1.501171	0.187148	0.254854
N32	N	1.501223	0.187172	-0.254857
C33	C	1.501203	0.187173	0.656145
C34	C	1.501190	0.187170	0.544494
C35	C	1.501188	0.187162	0.455503
C36	C	1.501174	0.187157	0.343845
H37	H	1.111881	0.171963	-0.162876
H38	H	0.913702	0.013429	0.097727
O39	O	1.148228	-0.013177	-0.101245
H40	H	1.213877	-0.031816	-0.037958
O41	O	1.292231	-0.167275	0.088851
H42	H	1.211701	-0.098989	0.064448
H43	H	1.114305	0.168962	0.162927
O44	O	1.708093	-0.215472	-0.101246
H45	H	1.752709	-0.260499	-0.168181
O46	O	1.146251	-0.014925	0.098029
H47	H	1.120523	-0.067831	0.031490
O48	O	0.853143	0.395678	0.087857
H49	H	0.879569	0.495110	0.086882
O50	O	0.880724	0.171793	-0.186335
H51	H	0.807430	0.250966	-0.168043
H52	H	1.522164	-0.206665	-0.162879
H53	H	1.086723	0.384139	-0.066968
O54	O	1.285820	-0.407065	-0.089102
H55	H	1.199684	-0.451085	-0.064489
O56	O	0.907569	-0.023514	-0.093391
H57	H	0.848580	-0.042074	-0.028268
O58	O	1.292710	-0.166121	-0.088690
H59	H	1.255425	-0.243531	-0.132226
H60	H	0.896473	0.165139	0.163309
H61	H	1.304142	-0.399410	0.066239
O62	O	1.501154	-0.431376	0.185972
H63	H	1.472730	-0.344814	0.230218
H64	H	1.085765	0.384467	0.067070
H65	H	1.669110	-0.441987	0.097724
H66	H	1.676068	-0.225121	0.096880
O67	O	1.705526	-0.457069	-0.093378
H68	H	1.721643	-0.514331	-0.161520
H69	H	0.868829	0.378617	-0.067370
H70	H	1.525286	-0.204864	0.162922
H71	H	1.524882	-0.426058	-0.163340
