data_functionalizedCrystal
_audit_creation_method	'MofGen! by Chris Wilmer'
_symmetry_space_group_name_H-M	'P1'
_symmetry_Int_Tables_number	1
_symmetry_cell_setting	triclinic
loop_
_symmetry_equiv_pos_as_xyz
  x,y,z
_cell_length_a	6.817900
_cell_length_b	9.514072
_cell_length_c	10.992410
_cell_angle_alpha	88.554233
_cell_angle_beta	108.764651
_cell_angle_gamma	118.843421
loop_
_atom_site_label
_atom_site_type_symbol
_atom_site_fract_x
_atom_site_fract_y
_atom_site_fract_z
V1	V	-4.172171	-0.222204	-0.401600
O2	O	-4.069593	0.010678	-0.392919
O3	O	-4.206678	-0.440594	-0.399849
O4	O	-4.148872	-0.218786	-0.576297
O5	O	-4.127799	-0.212665	-0.215250
V6	V	-4.641803	-0.194349	-0.379190
O7	O	-4.463899	-0.283307	-0.450758
O8	O	-4.800272	-0.133246	-0.330032
O9	O	-4.384090	0.024041	-0.380940
O10	O	-4.861778	-0.427231	-0.387870
O11	O	-4.803572	-0.203888	-0.565539
O12	O	-4.441896	-0.197767	-0.204493
C13	C	-4.071035	-0.493833	-0.393771
C14	C	-4.180703	-0.672369	-0.393504
C15	C	-3.997296	-0.210893	-0.618845
C16	C	-4.060079	-0.209543	-0.761668
C17	C	-3.923996	-0.197247	-0.956735
C18	C	-3.858986	-0.199316	-0.808261
C19	C	-4.299373	-0.367896	-0.839489
C20	C	-4.363322	-0.366496	-0.988049
C21	C	-4.161158	-0.059868	-0.948628
C22	C	-4.090253	-0.059117	-0.799612
C23	C	-4.183077	0.077271	-0.387015
C24	C	-4.052649	0.255805	-0.387290
C25	C	-4.256814	-0.205665	-0.161937
C26	C	-4.173267	-0.207007	-0.019114
H27	H	-3.680850	-0.085454	-0.754405
H28	H	-4.374274	-0.747478	-0.398665
N29	N	-3.739486	-0.053419	-0.979707
N30	N	-3.789539	0.043573	-1.042325
H31	H	-3.659229	0.145158	-1.058556
H32	H	-4.453190	-0.381098	-0.810746
N33	N	-3.927219	-0.329855	-1.017523
N34	N	-3.744936	-0.344066	-0.981578
H35	H	-3.747210	-0.437717	-1.024516
N36	N	-3.822302	-0.333785	-0.777750
N37	N	-3.844710	-0.426403	-0.866177
H38	H	-3.818809	-0.521381	-0.844632
N39	N	-4.380237	-0.506267	-1.046719
N40	N	-4.344818	-0.604166	-0.977872
H41	H	-4.356759	-0.702883	-1.019301
H42	H	-4.548913	-0.380266	-1.030743
H43	H	-4.341642	-0.065623	-0.989495
H44	H	-4.282724	-0.479581	-0.814390
H45	H	-4.026898	0.060382	-0.968442
H46	H	-3.859082	-0.669090	-0.382111
H47	H	-3.916464	0.058025	-0.746724
N48	N	-4.267896	-0.056779	-0.758790
N49	N	-4.375645	-0.166437	-0.700815
H50	H	-4.501122	-0.164799	-0.671985
