data_functionalizedCrystal
_audit_creation_method	'MofGen! by Chris Wilmer'
_symmetry_space_group_name_H-M	'P1'
_symmetry_Int_Tables_number	1
_symmetry_cell_setting	triclinic
loop_
_symmetry_equiv_pos_as_xyz
  x,y,z
_cell_length_a	16.109302
_cell_length_b	11.792241
_cell_length_c	15.186229
_cell_angle_alpha	89.996105
_cell_angle_beta	89.994701
_cell_angle_gamma	83.827598
loop_
_atom_site_label
_atom_site_type_symbol
_atom_site_fract_x
_atom_site_fract_y
_atom_site_fract_z
O1	O	1.103817	0.145889	-0.073268
O2	O	0.861840	0.164043	-0.073262
O3	O	0.988701	-0.010256	-0.073259
O4	O	0.976957	0.320188	-0.073271
O5	O	0.988692	-0.010258	0.073198
O6	O	0.861832	0.164041	0.073196
O7	O	1.103808	0.145887	0.073189
Zn8	Zn	0.982819	0.154963	0.096445
Zn9	Zn	0.982830	0.154967	-0.096518
O10	O	0.976948	0.320186	0.073186
C11	C	0.830858	0.163307	-0.000032
C12	C	0.738552	0.161102	-0.000029
C13	C	0.526183	0.156001	0.079796
C14	C	0.439453	0.153917	0.079793
C15	C	0.439472	0.153926	-0.079883
C16	C	0.526202	0.156002	-0.079879
C17	C	0.569554	0.157045	-0.000037
C18	C	0.396095	0.152885	-0.000044
C19	C	0.302059	0.150625	-0.000048
C20	C	0.663596	0.159303	-0.000033
C21	C	0.987959	-0.052541	-0.000031
C22	C	0.985751	-0.178536	-0.000031
C23	C	0.981690	-0.409212	-0.000046
C24	C	0.983946	-0.280847	-0.000038
C25	C	1.134791	0.146623	-0.000043
C26	C	1.227097	0.148829	-0.000051
C27	C	0.977690	0.362472	-0.000044
C28	C	0.979898	0.488466	-0.000049
N29	N	0.982817	0.154961	0.228138
N30	N	0.982838	0.154961	-0.228211
C31	C	1.039010	0.077807	0.453862
C32	C	1.039013	0.077804	0.546052
C33	C	0.926639	0.232118	0.546059
C34	C	0.926633	0.232114	0.453871
C35	C	0.982823	0.154960	0.407775
C36	C	0.982832	0.154961	0.592152
C37	C	0.982834	0.154959	0.692109
C38	C	0.982820	0.154961	0.307812
H39	H	0.561477	0.156851	0.144809
C40	C	0.864824	0.316989	0.403166
C41	C	0.803048	0.401899	0.453864
C42	C	0.741240	0.486765	0.403159
C43	C	0.741209	0.486722	0.301756
C44	C	0.802988	0.401808	0.251052
C45	C	0.864796	0.316942	0.301757
H46	H	0.803068	0.401934	0.528934
H47	H	0.695507	0.549624	0.440694
H48	H	0.695455	0.549545	0.264221
H49	H	0.802967	0.401773	0.175982
H50	H	0.910529	0.254084	0.264223
H51	H	0.561516	0.156849	-0.144892
H52	H	1.084763	0.014982	0.416333
H53	H	0.404144	0.153067	0.144801
H54	H	1.084764	0.014978	0.583574
H55	H	0.404164	0.153077	-0.144887
H56	H	0.880891	0.294937	0.583599
