data_functionalizedCrystal
_audit_creation_method	'MofGen! by Chris Wilmer'
_symmetry_space_group_name_H-M	'P1'
_symmetry_Int_Tables_number	1
_symmetry_cell_setting	triclinic
loop_
_symmetry_equiv_pos_as_xyz
  x,y,z
_cell_length_a	19.188933
_cell_length_b	19.188924
_cell_length_c	9.730223
_cell_angle_alpha	89.996615
_cell_angle_beta	90.001221
_cell_angle_gamma	83.143767
loop_
_atom_site_label
_atom_site_type_symbol
_atom_site_fract_x
_atom_site_fract_y
_atom_site_fract_z
O1	O	0.926138	0.087171	-0.114250
O2	O	0.722826	0.098904	-0.114264
O3	O	0.830352	-0.008618	-0.114241
O4	O	0.818612	0.194694	-0.114274
O5	O	0.830350	-0.008615	0.114339
O6	O	0.722825	0.098907	0.114316
O7	O	0.926136	0.087174	0.114330
Zn8	Zn	0.824481	0.093041	0.150615
Zn9	Zn	0.824482	0.093037	-0.150549
O10	O	0.818611	0.194696	0.114306
C11	C	0.696815	0.098525	0.000024
C12	C	0.619310	0.097384	0.000020
C13	C	0.829972	-0.034628	0.000051
C14	C	0.828833	-0.112133	0.000054
C15	C	0.066056	0.089237	-0.124563
C16	C	0.138880	0.090306	-0.124568
C17	C	0.175296	0.090844	0.000030
C18	C	0.138885	0.090297	0.124643
C19	C	0.066063	0.089222	0.124645
N20	N	0.284315	0.132264	0.092768
N21	N	0.353492	0.133287	0.092757
C22	C	0.394705	0.094082	0.000032
N23	N	0.364125	0.053825	-0.092704
N24	N	0.294941	0.052805	-0.092698
C25	C	0.254260	0.092010	0.000042
C26	C	0.510073	0.095783	-0.124579
C27	C	0.582899	0.096847	-0.124580
C28	C	0.582901	0.096845	0.124635
C29	C	0.510077	0.095774	0.124632
C30	C	0.473667	0.095246	0.000021
C31	C	0.828302	-0.148533	-0.124545
C32	C	0.827222	-0.221356	-0.124556
C33	C	0.826687	-0.257777	0.000040
C34	C	0.827214	-0.221368	0.124656
C35	C	0.828287	-0.148545	0.124663
N36	N	0.864734	-0.377439	0.092777
N37	N	0.863717	-0.446617	0.092762
C38	C	0.823453	-0.477186	0.000027
N39	N	0.784254	-0.435965	-0.092713
N40	N	0.785275	-0.366781	-0.092702
C41	C	0.825523	-0.336741	0.000047
C42	C	0.821750	-0.592549	-0.124592
C43	C	0.820666	-0.665373	-0.124598
C44	C	0.820665	-0.665384	0.124617
C45	C	0.821742	-0.592561	0.124619
C46	C	0.822288	-0.556149	0.000010
C47	C	0.952148	0.087553	0.000038
C48	C	1.029653	0.088694	0.000034
C49	C	0.818991	0.220706	0.000012
C50	C	0.820130	0.298211	-0.000001
N51	N	0.824485	0.093043	0.356151
N52	N	0.824484	0.093030	-0.356086
C53	C	0.872109	0.045448	0.428088
C54	C	0.872107	0.045439	0.571971
C55	C	0.776855	0.140627	0.571968
C56	C	0.776854	0.140632	0.428088
C57	C	0.919740	-0.002141	0.356151
C58	C	0.967369	-0.049739	0.428088
C59	C	0.967367	-0.049748	0.571971
C60	C	0.919736	-0.002158	0.643917
H61	H	0.168525	0.090752	-0.226033
H62	H	0.828745	-0.118890	-0.226011
H63	H	1.006143	-0.088508	0.630540
O64	O	1.013525	-0.096020	0.358081
C65	C	0.976251	-0.139009	0.274909
H66	H	0.921543	-0.111045	0.253324
H67	H	0.971641	-0.190585	0.330401
C68	C	1.082855	-0.188418	0.164767
C69	C	1.015664	-0.154069	0.138246
H70	H	1.107168	-0.197711	0.080469
H71	H	1.107968	-0.159457	0.220804
H72	H	1.079004	-0.231394	0.211013
H73	H	1.019516	-0.111090	0.092017
H74	H	0.990553	-0.183023	0.082197
H75	H	0.168540	0.090734	0.226092
H76	H	0.738076	0.179373	0.630556
H77	H	0.820230	-0.695008	-0.226066
H78	H	0.828716	-0.118908	0.226130
H79	H	0.480437	0.095334	0.226092
O80	O	0.919844	-0.002244	0.783686
C81	C	0.972075	-0.054474	0.831757
H82	H	1.013707	-0.066748	0.748850
H83	H	0.947310	-0.104033	0.857268
C84	C	0.955214	-0.012927	1.063628
C85	C	1.006350	-0.027998	0.961804
H86	H	0.976354	0.003402	1.143850
H87	H	0.920022	0.022260	1.031243
H88	H	0.934580	-0.054230	1.084870
H89	H	1.026976	0.013306	0.940551
H90	H	1.041546	-0.063178	0.994188
H91	H	0.738073	0.179387	0.369517
H92	H	0.036415	0.088805	-0.226031
O93	O	0.474811	0.095237	-0.245743
C94	C	0.522560	0.095959	-0.355721
H95	H	0.577429	0.074618	-0.319194
H96	H	0.522811	0.152075	-0.394032
C97	C	0.432871	0.075980	-0.518307
C98	C	0.500260	0.049764	-0.473447
H99	H	0.419114	0.047488	-0.590929
H100	H	0.400700	0.075497	-0.444214
H101	H	0.433089	0.122744	-0.550223
H102	H	0.500039	0.003006	-0.441516
H103	H	0.532430	0.050239	-0.547538
H104	H	0.036423	0.088782	0.226110
H105	H	0.826786	-0.250998	-0.226022
H106	H	0.612538	0.097284	-0.226046
H107	H	0.612551	0.097281	0.226086
H108	H	0.826776	-0.251026	0.226103
H109	H	0.822191	-0.562900	-0.226056
O110	O	0.820017	-0.700700	0.245695
C111	C	0.759830	-0.674792	0.321493
H112	H	0.717876	-0.649116	0.248570
H113	H	0.774121	-0.634350	0.399179
C114	C	0.782985	-0.767342	0.487418
C115	C	0.731453	-0.735812	0.397852
H116	H	0.765482	-0.804980	0.534526
H117	H	0.823535	-0.784796	0.436355
H118	H	0.794889	-0.733634	0.552145
H119	H	0.719557	-0.769517	0.333118
H120	H	0.690900	-0.718365	0.448906
H121	H	0.822180	-0.562924	0.226082
H122	H	0.919747	-0.002137	0.238994
