data_functionalizedCrystal
_audit_creation_method	'MofGen! by Chris Wilmer'
_symmetry_space_group_name_H-M	'P1'
_symmetry_Int_Tables_number	1
_symmetry_cell_setting	triclinic
loop_
_symmetry_equiv_pos_as_xyz
  x,y,z
_cell_length_a	13.897448
_cell_length_b	12.759401
_cell_length_c	12.759393
_cell_angle_alpha	90.020566
_cell_angle_beta	89.967728
_cell_angle_gamma	89.984099
loop_
_atom_site_label
_atom_site_type_symbol
_atom_site_fract_x
_atom_site_fract_y
_atom_site_fract_z
Zn1	Zn	-0.384014	-1.606244	-0.593997
Zn2	Zn	-0.050681	-1.272911	-0.260663
Zn3	Zn	0.282652	-0.939578	0.072670
Zn4	Zn	-0.545341	-1.606126	-0.418311
Zn5	Zn	-0.212007	-1.272793	-0.084978
Zn6	Zn	0.121326	-0.939460	0.248355
Zn7	Zn	-0.384056	-1.430543	-0.418333
Zn8	Zn	-0.050723	-1.097210	-0.085000
Zn9	Zn	0.282610	-0.763877	0.248334
Zn10	Zn	-0.545264	-1.430526	-0.593950
Zn11	Zn	-0.211931	-1.097193	-0.260616
Zn12	Zn	0.121403	-0.763859	0.072717
O13	O	-0.464669	-1.518360	-0.506148
O14	O	-0.131336	-1.185027	-0.172814
O15	O	0.201998	-0.851693	0.160519
O16	O	-0.405429	-1.753250	-0.570702
O17	O	-0.072096	-1.419917	-0.237369
O18	O	0.261237	-1.086583	0.095964
O19	O	-0.523996	-1.582793	-0.271293
O20	O	-0.190662	-1.249459	0.062040
O21	O	0.142671	-0.916126	0.395374
O22	O	-0.249069	-1.453907	-0.441664
O23	O	0.084264	-1.120574	-0.108331
O24	O	0.417598	-0.787240	0.225003
O25	O	-0.523955	-1.753163	-0.441627
O26	O	-0.190622	-1.419830	-0.108294
O27	O	0.142712	-1.086496	0.225040
O28	O	-0.249038	-1.582994	-0.570723
O29	O	0.084295	-1.249661	-0.237390
O30	O	0.417628	-0.916327	0.095943
O31	O	-0.405501	-1.453793	-0.271309
O32	O	-0.072167	-1.120459	0.062024
O33	O	0.261166	-0.787126	0.395358
O34	O	-0.405426	-1.283520	-0.441618
O35	O	-0.072093	-0.950187	-0.108285
O36	O	0.261240	-0.616853	0.225048
O37	O	-0.523824	-1.453878	-0.740977
O38	O	-0.190491	-1.120544	-0.407644
O39	O	0.142842	-0.787211	-0.074310
O40	O	-0.523865	-1.283507	-0.570643
O41	O	-0.190532	-0.950174	-0.237310
O42	O	0.142802	-0.616841	0.096024
O43	O	-0.405355	-1.582977	-0.741012
O44	O	-0.072021	-1.249644	-0.407678
O45	O	0.261312	-0.916311	-0.074345
O46	O	-0.680312	-1.582776	-0.441581
O47	O	-0.346979	-1.249443	-0.108248
O48	O	-0.013646	-0.916109	0.225085
O49	O	-0.680256	-1.453763	-0.570622
O50	O	-0.346922	-1.120430	-0.237289
O51	O	-0.013589	-0.787096	0.096044
C52	C	-0.464643	-1.245393	-0.506129
C53	C	-0.131309	-0.912059	-0.172795
C54	C	0.202024	-0.578726	0.160538
C55	C	-0.464655	-1.128616	-0.506145
C56	C	-0.131321	-0.795283	-0.172812
C57	C	0.202012	-0.461949	0.160521
C58	C	-0.403048	-1.073800	-0.573458
C59	C	-0.069714	-0.740467	-0.240124
C60	C	0.263619	-0.407133	0.093209
C61	C	-0.403054	-0.964076	-0.573463
C62	C	-0.069720	-0.630742	-0.240130
C63	C	0.263613	-0.297409	0.093204
C64	C	-0.526282	-0.963994	-0.438841
C65	C	-0.192948	-0.630660	-0.105507
C66	C	0.140385	-0.297327	0.227826
C67	C	-0.526270	-1.073716	-0.438831
C68	C	-0.192937	-0.740382	-0.105498
C69	C	0.140397	-0.407049	0.227836
C70	C	-0.715283	-1.518283	-0.506117
C71	C	-0.381950	-1.184950	-0.172784
C72	C	-0.048617	-0.851617	0.160549
C73	C	-0.822497	-1.518347	-0.506139
C74	C	-0.489164	-1.185013	-0.172806
C75	C	-0.155830	-0.851680	0.160527
C76	C	-1.018792	-1.518457	-0.506205
C77	C	-0.685459	-1.185124	-0.172872
C78	C	-0.352125	-0.851790	0.160461
C79	C	-0.909560	-1.518393	-0.506172
C80	C	-0.576226	-1.185059	-0.172838
C81	C	-0.242893	-0.851726	0.160495
C82	C	-0.213076	-1.518466	-0.506201
C83	C	0.120257	-1.185132	-0.172868
C84	C	0.453591	-0.851799	0.160465
C85	C	-0.105862	-1.518511	-0.506224
C86	C	0.227471	-1.185177	-0.172891
C87	C	0.560805	-0.851844	0.160443
C88	C	-0.464576	-1.518439	-0.780181
C89	C	-0.131243	-1.185105	-0.446848
C90	C	0.202090	-0.851772	-0.113514
C91	C	-0.464537	-1.518472	-0.896958
C92	C	-0.131203	-1.185139	-0.563625
C93	C	0.202130	-0.851805	-0.230291
C94	C	-0.464687	-0.792393	-0.506164
C95	C	-0.131354	-0.459060	-0.172830
C96	C	0.201980	-0.125727	0.160503
C97	C	-0.464672	-0.909170	-0.506160
C98	C	-0.131339	-0.575837	-0.172827
C99	C	0.201995	-0.242503	0.160506
C100	C	-0.402840	-1.585699	-0.951839
C101	C	-0.069507	-1.252366	-0.618506
C102	C	0.263827	-0.919033	-0.285173
C103	C	-0.402798	-1.585717	-1.061564
C104	C	-0.069465	-1.252384	-0.728230
C105	C	0.263868	-0.919050	-0.394897
C106	C	-0.526159	-1.451278	-1.061515
C107	C	-0.192826	-1.117944	-0.728182
C108	C	0.140508	-0.784611	-0.394848
C109	C	-0.526195	-1.451255	-0.951793
C110	C	-0.192862	-1.117922	-0.618459
C111	C	0.140472	-0.784589	-0.285126
C112	C	-0.464691	-1.518342	-0.233180
C113	C	-0.131358	-1.185009	0.100153
C114	C	0.201975	-0.851675	0.433486
C115	C	-0.464459	-1.518512	-0.116404
C116	C	-0.131126	-1.185179	0.216929
C117	C	0.202207	-0.851846	0.550262
H118	H	-0.352886	-0.919449	-0.628274
H119	H	-0.019552	-0.586116	-0.294940
H120	H	0.313781	-0.252783	0.038393
Br121	Br	-0.319070	-1.676966	-1.136042
Br122	Br	0.014263	-1.343632	-0.802709
Br123	Br	0.347597	-1.010299	-0.469376
H124	H	-0.352873	-1.118496	-0.628266
H125	H	-0.019540	-0.785163	-0.294933
H126	H	0.313793	-0.451830	0.038401
H127	H	-0.576448	-0.919281	-0.384037
H128	H	-0.243114	-0.585947	-0.050703
H129	H	0.090219	-0.252614	0.282630
Br130	Br	-0.609872	-1.148116	-0.347457
Br131	Br	-0.276539	-0.814783	-0.014124
Br132	Br	0.056795	-0.481450	0.319210
Br133	Br	-0.319160	-1.676919	-0.877424
Br134	Br	0.014174	-1.343586	-0.544090
Br135	Br	0.347507	-1.010253	-0.210757
H136	H	-0.576361	-1.396554	-1.106175
H137	H	-0.243027	-1.063221	-0.772841
H138	H	0.090306	-0.729888	-0.439508
Br139	Br	-0.609924	-1.360002	-0.877303
Br140	Br	-0.276591	-1.026669	-0.543970
Br141	Br	0.056743	-0.693335	-0.210637
