data_functionalizedCrystal
_audit_creation_method	'MofGen! by Chris Wilmer'
_symmetry_space_group_name_H-M	'P1'
_symmetry_Int_Tables_number	1
_symmetry_cell_setting	triclinic
loop_
_symmetry_equiv_pos_as_xyz
  x,y,z
_cell_length_a	30.700809
_cell_length_b	30.711276
_cell_length_c	30.700862
_cell_angle_alpha	59.998386
_cell_angle_beta	89.999414
_cell_angle_gamma	60.000191
loop_
_atom_site_label
_atom_site_type_symbol
_atom_site_fract_x
_atom_site_fract_y
_atom_site_fract_z
O1	O	-0.371254	-0.311651	0.012944
O2	O	-0.307913	-0.222487	-0.012907
O3	O	-0.307911	-0.311650	0.076286
O4	O	-0.371257	-0.222488	-0.076249
O5	O	-0.235466	-0.384070	0.076286
O6	O	-0.235468	-0.294907	-0.012907
O7	O	-0.298809	-0.384071	0.012944
Cu8	Cu	-0.260524	-0.346102	0.000018
Cu9	Cu	-0.346199	-0.260456	0.000019
O10	O	-0.298812	-0.294908	-0.076249
C11	C	-0.234796	-0.137097	-0.018777
C12	C	-0.261674	-0.083360	-0.015076
C13	C	-0.182374	-0.163176	-0.019143
C14	C	-0.234798	-0.215942	-0.018783
C15	C	-0.261678	-0.246507	-0.015089
C16	C	-0.182376	-0.241901	-0.019150
C17	C	-0.155920	-0.215947	-0.018777
C18	C	-0.098463	-0.246515	-0.015075
C19	C	-0.261132	-0.163172	-0.019150
C20	C	-0.574961	-0.535511	0.039265
C21	C	-0.548506	-0.588283	0.039634
C22	C	-0.496086	-0.535509	0.039262
C23	C	-0.469751	-0.588281	0.039632
C24	C	-0.496085	-0.614360	0.039265
C25	C	-0.548507	-0.509552	0.039632
C26	C	-0.765169	-0.393516	0.024987
C27	C	-0.819034	-0.364488	0.020950
C28	C	-0.846055	-0.389406	0.018925
C29	C	-0.904462	-0.357927	0.014538
C30	C	-0.819206	-0.443357	0.020941
C31	C	-0.765344	-0.472385	0.024984
C32	C	-0.738325	-0.447463	0.027007
C33	C	-0.447920	-0.790230	0.024988
C34	C	-0.423094	-0.840041	0.020951
C35	C	-0.371150	-0.865027	0.018921
C36	C	-0.344230	-0.919028	0.014536
C37	C	-0.344030	-0.840201	0.020935
C38	C	-0.368852	-0.790399	0.024981
C39	C	-0.420803	-0.765414	0.027004
C40	C	-0.447922	-0.393510	0.024977
C41	C	-0.423099	-0.364475	0.020931
C42	C	-0.371152	-0.389391	0.018903
C43	C	-0.344235	-0.357911	0.014513
C44	C	-0.344034	-0.443338	0.020916
C45	C	-0.368860	-0.472368	0.024960
C46	C	-0.420804	-0.447452	0.026995
C47	C	-0.679920	-0.478941	0.031387
C48	C	-0.633366	-0.504032	0.034880
C49	C	-0.469171	-0.504029	0.034875
C50	C	-0.447717	-0.478936	0.031380
C51	C	-0.469170	-0.668361	0.034880
C52	C	-0.447716	-0.711408	0.031386
C53	C	-0.496432	-0.071057	-0.503890
C54	C	-0.548853	-0.018285	-0.530226
C55	C	-0.496432	-0.071056	-0.425015
C56	C	-0.548854	-0.018284	-0.451470
C57	C	-0.575308	0.007793	-0.503892
C58	C	-0.470097	-0.097014	-0.451469
C59	C	-0.368666	-0.213054	-0.552051
C60	C	-0.343664	-0.242084	-0.576877
C61	C	-0.370616	-0.217167	-0.628824
C62	C	-0.343513	-0.248647	-0.655741
C63	C	-0.422570	-0.163216	-0.655945
C64	C	-0.447565	-0.134187	-0.631122
C65	C	-0.420611	-0.159108	-0.579173
C66	C	-0.765518	0.183662	-0.631659
C67	C	-0.819384	0.233473	-0.656662
C68	C	-0.846408	0.258459	-0.629712
C69	C	-0.904813	0.312461	-0.656813
C70	C	-0.819559	0.233635	-0.577758
C71	C	-0.765694	0.183833	-0.552761
C72	C	-0.738677	0.158847	-0.579717
C73	C	-0.368668	-0.213052	-0.234803
C74	C	-0.343669	-0.242086	-0.180935
C75	C	-0.370621	-0.217169	-0.153914
C76	C	-0.343519	-0.248648	-0.095506
C77	C	-0.422573	-0.163222	-0.180762
C78	C	-0.447570	-0.134193	-0.234627
C79	C	-0.420610	-0.159111	-0.261646
C80	C	-0.447720	-0.127629	-0.552258
C81	C	-0.469327	-0.102536	-0.530805
C82	C	-0.469328	-0.102535	-0.366609
C83	C	-0.447721	-0.127627	-0.320054
C84	C	-0.633714	0.061794	-0.530997
C85	C	-0.680269	0.104841	-0.552605
O86	O	0.076277	-0.384081	0.012960
O87	O	-0.076257	-0.294916	-0.012894
O88	O	0.012931	-0.384083	0.076300
O89	O	-0.012910	-0.294914	-0.076234
O90	O	0.012933	-0.311666	0.076306
O91	O	-0.076254	-0.222499	-0.012888
O92	O	0.076280	-0.311664	0.012966
Cu93	Cu	0.000013	-0.260469	0.000040
Cu94	Cu	0.000010	-0.346111	0.000033
O95	O	-0.012908	-0.222497	-0.076228
O96	O	-0.298805	0.063292	0.012964
O97	O	-0.235462	-0.063346	-0.012888
O98	O	-0.235465	-0.063353	0.076305
O99	O	-0.298803	0.063300	-0.076229
O100	O	-0.307912	-0.063350	0.076299
O101	O	-0.307909	-0.063342	-0.012895
O102	O	-0.371252	0.063295	0.012958
Cu103	Cu	-0.346196	-0.000023	0.000031
Cu104	Cu	-0.260519	-0.000027	0.000039
O105	O	-0.371250	0.063303	-0.076236
O106	O	-1.076607	0.456783	-0.692421
O107	O	-0.924074	0.330140	-0.629074
O108	O	-1.013262	0.330138	-0.629073
O109	O	-0.987418	0.456785	-0.692422
O110	O	-1.013261	0.330136	-0.701518
O111	O	-0.924072	0.330138	-0.701518
O112	O	-1.076605	0.456781	-0.764865
Cu113	Cu	-1.000338	0.393460	-0.739807
Cu114	Cu	-1.000340	0.393461	-0.654133
O115	O	-0.987417	0.456783	-0.764866
O116	O	-0.307911	-0.311650	-0.764507
O117	O	-0.371254	-0.222491	-0.701165
O118	O	-0.371252	-0.311652	-0.701162
O119	O	-0.307912	-0.222489	-0.764510
O120	O	-0.298806	-0.384074	-0.628716
O121	O	-0.298807	-0.294912	-0.628719
O122	O	-0.235464	-0.384072	-0.692061
Cu123	Cu	-0.260521	-0.346105	-0.653775
Cu124	Cu	-0.346197	-0.260458	-0.739451
O125	O	-0.235466	-0.294910	-0.692064
C126	C	-0.155920	-0.469469	0.234827
C127	C	-0.098464	-0.523208	0.261706
C128	C	-0.182375	-0.443392	0.261162
C129	C	-0.234797	-0.390619	0.155950
C130	C	-0.261676	-0.360052	0.098494
C131	C	-0.261132	-0.364662	0.182405
C132	C	-0.234797	-0.390620	0.234826
C133	C	-0.261675	-0.360052	0.261704
C134	C	-0.182375	-0.443391	0.182406
C135	C	0.018810	-0.390643	0.234846
C136	C	0.015111	-0.360079	0.261727
C137	C	0.019176	-0.443414	0.261179
C138	C	0.018812	-0.390637	0.155967
C139	C	0.015115	-0.360067	0.098511
C140	C	0.019178	-0.443408	0.182420
C141	C	0.018807	-0.469488	0.234841
C142	C	0.015106	-0.523226	0.261717
C143	C	0.019180	-0.364683	0.182425
C144	C	-0.234799	-0.215977	0.234834
C145	C	-0.261678	-0.246545	0.261708
C146	C	-0.182376	-0.241940	0.261172
C147	C	-0.234798	-0.137119	0.155964
C148	C	-0.261676	-0.083372	0.098509
C149	C	-0.182375	-0.163202	0.182421
C150	C	-0.155921	-0.215981	0.234841
C151	C	-0.098464	-0.246554	0.261721
C152	C	-0.261134	-0.163198	0.182415
C153	C	-0.039199	0.007461	-0.503869
C154	C	-0.039568	-0.018614	-0.530207
C155	C	-0.039203	-0.071390	-0.424995
C156	C	-0.039572	-0.097344	-0.451452
C157	C	-0.039201	-0.071385	-0.503874
C158	C	-0.039570	-0.018618	-0.451448
C159	C	-0.024912	0.183325	-0.552025
C160	C	-0.020873	0.233135	-0.576849
C161	C	-0.018844	0.258123	-0.628796
C162	C	-0.014454	0.312124	-0.655711
C163	C	-0.020859	0.233301	-0.655918
C164	C	-0.024906	0.183500	-0.631097
C165	C	-0.026932	0.158512	-0.579148
C166	C	-0.024920	-0.133799	-0.631644
C167	C	-0.020882	-0.162650	-0.656647
C168	C	-0.018855	-0.216605	-0.629699
C169	C	-0.014470	-0.247897	-0.656801
C170	C	-0.020872	-0.241704	-0.577746
C171	C	-0.024919	-0.212847	-0.552747
C172	C	-0.026939	-0.158893	-0.579702
C173	C	-0.024929	-0.133823	-0.234783
C174	C	-0.020887	-0.162684	-0.180915
C175	C	-0.018862	-0.216639	-0.153896
C176	C	-0.014477	-0.247936	-0.095488
C177	C	-0.020875	-0.241733	-0.180745
C178	C	-0.024915	-0.212872	-0.234610
C179	C	-0.026947	-0.158912	-0.261627
C180	C	-0.031316	0.104507	-0.552235
C181	C	-0.034811	0.061462	-0.530782
C182	C	-0.034820	-0.102682	-0.366590
C183	C	-0.031328	-0.127624	-0.320035
C184	C	-0.034816	-0.102672	-0.530980
C185	C	-0.031322	-0.127610	-0.552588
O186	O	-0.012940	-0.294936	0.371303
O187	O	0.012923	-0.384099	0.307961
O188	O	-0.076273	-0.294935	0.307950
O189	O	0.076257	-0.384100	0.371315
O190	O	-0.076265	-0.222515	0.235508
O191	O	0.012932	-0.311679	0.235520
O192	O	-0.012931	-0.222517	0.298862
Cu193	Cu	0.000001	-0.260485	0.260576
Cu194	Cu	-0.000009	-0.346130	0.346247
O195	O	0.076266	-0.311681	0.298873
C196	C	-0.574962	0.464558	-0.503864
C197	C	-0.548506	0.490518	-0.530195
C198	C	-0.496085	0.385697	-0.424987
C199	C	-0.469749	0.411776	-0.451438
C200	C	-0.496084	0.464555	-0.503857
C201	C	-0.548507	0.411779	-0.451444
C202	C	-0.765173	0.526994	-0.552039
C203	C	-0.819039	0.555852	-0.576867
C204	C	-0.846061	0.609814	-0.628812
C205	C	-0.904469	0.641114	-0.655732
C206	C	-0.819211	0.634913	-0.655928
C207	C	-0.765348	0.606050	-0.631102
C208	C	-0.738329	0.552088	-0.579155
C209	C	-0.447916	0.606561	-0.631604
C210	C	-0.423088	0.635592	-0.656601
C211	C	-0.371143	0.610674	-0.629648
C212	C	-0.344222	0.642150	-0.656742
C213	C	-0.344023	0.556716	-0.577696
C214	C	-0.368845	0.527681	-0.552704
C215	C	-0.420798	0.552613	-0.579664
C216	C	-0.447920	0.209802	-0.234786
C217	C	-0.423096	0.159988	-0.180919
C218	C	-0.371148	0.134996	-0.153895
C219	C	-0.344230	0.080987	-0.095489
C220	C	-0.344029	0.159823	-0.180737
C221	C	-0.368856	0.209637	-0.234602
C222	C	-0.420801	0.234620	-0.261624
C223	C	-0.679923	0.520797	-0.552238
C224	C	-0.633367	0.495853	-0.530781
C225	C	-0.469169	0.331687	-0.366583
C226	C	-0.447714	0.288634	-0.320030
C227	C	-0.469167	0.496035	-0.530956
C228	C	-0.447712	0.521128	-0.552558
H229	H	-0.569747	-0.610106	0.040228
C230	C	0.065825	-0.490430	0.139038
C231	C	0.019978	-0.472875	0.153753
H232	H	0.066319	-0.508625	0.121346
H233	H	0.065654	-0.455205	0.115762
H234	H	0.096597	-0.519373	0.170030
H235	H	-0.010795	-0.443928	0.122761
H236	H	0.020144	-0.508104	0.177030
H237	H	-0.490218	-0.769893	0.026639
C238	C	-0.025404	-0.430209	0.322303
C239	C	0.019967	-0.472882	0.319321
H240	H	-0.024918	-0.448403	0.358195
H241	H	-0.025565	-0.394992	0.310349
H242	H	-0.056500	-0.418298	0.300393
H243	H	0.051063	-0.484789	0.341228
H244	H	0.020132	-0.508109	0.331282
C245	C	-0.031132	-0.054480	-0.317430
C246	C	-0.027156	-0.074515	-0.264480
H247	H	-0.032509	-0.017865	-0.335764
H248	H	-0.000935	-0.085500	-0.318044
H249	H	-0.062655	-0.046477	-0.334393
H250	H	0.004370	-0.082522	-0.247516
H251	H	-0.057356	-0.043488	-0.263863
C252	C	-0.181999	-0.073178	-0.065870
C253	C	-0.153691	-0.133707	-0.019998
H254	H	-0.164290	-0.054983	-0.066413
H255	H	-0.183846	-0.073423	-0.096622
H256	H	-0.217057	-0.050075	-0.065680
H257	H	-0.118634	-0.156811	-0.020191
H258	H	-0.151838	-0.133465	0.010762
H259	H	-0.570092	0.003538	-0.430229
H260	H	-0.301733	-0.860548	0.019286
C261	C	-0.108021	-0.347558	0.025410
C262	C	-0.153701	-0.299224	-0.019953
H263	H	-0.090321	-0.382945	0.024915
H264	H	-0.084759	-0.335754	0.025569
H265	H	-0.118008	-0.356761	0.056512
H266	H	-0.143714	-0.290018	-0.051055
H267	H	-0.176968	-0.311029	-0.020117
H268	H	-0.161128	-0.465208	0.161163
H269	H	0.019773	-0.322218	0.161189
C270	C	-0.065126	-0.289191	-0.534928
C271	C	-0.018656	-0.301003	-0.548127
H272	H	-0.063758	-0.325800	-0.516646
H273	H	-0.067817	-0.275605	-0.512603
H274	H	-0.095320	-0.258161	-0.566584
H275	H	0.011537	-0.332030	-0.516470
H276	H	-0.015960	-0.314597	-0.570453
H277	H	-0.304205	-0.141373	0.161175
C278	C	-0.181988	-0.073203	0.139057
C279	C	-0.153698	-0.133741	0.153762
H280	H	-0.164280	-0.055019	0.121370
H281	H	-0.217051	-0.050105	0.115779
H282	H	-0.183809	-0.073430	0.170052
H283	H	-0.151880	-0.133513	0.122767
H284	H	-0.118625	-0.156845	0.177041
C285	C	-0.181993	-0.285704	0.351589
C286	C	-0.153702	-0.299270	0.319315
H287	H	-0.164291	-0.321097	0.387482
H288	H	-0.183811	-0.252913	0.349557
H289	H	-0.217062	-0.273913	0.339619
H290	H	-0.118633	-0.311058	0.331282
H291	H	-0.151877	-0.332072	0.321350
C292	C	-0.040643	-0.172038	-0.371097
C293	C	-0.040395	-0.154654	-0.422792
H294	H	-0.041160	-0.207411	-0.353409
H295	H	-0.009533	-0.181264	-0.351903
H296	H	-0.071410	-0.139230	-0.372921
H297	H	-0.009626	-0.187460	-0.420968
H298	H	-0.071508	-0.145431	-0.441991
C299	C	-0.040535	0.062722	-0.605958
C300	C	-0.040321	0.010819	-0.588337
H301	H	-0.040984	0.080879	-0.641838
H302	H	-0.071319	0.091691	-0.603963
H303	H	-0.009441	0.050792	-0.584027
H304	H	-0.071417	0.022750	-0.610265
H305	H	-0.009534	-0.018155	-0.590336
C306	C	-0.268182	-0.317118	-0.186518
C307	C	-0.286564	-0.301382	-0.151426
H308	H	-0.232926	-0.353722	-0.168301
H309	H	-0.290910	-0.323671	-0.199346
H310	H	-0.268237	-0.284636	-0.215702
H311	H	-0.286513	-0.333862	-0.122244
H312	H	-0.263830	-0.294832	-0.138590
C313	C	-0.040616	0.062764	-0.457078
C314	C	-0.040378	0.010844	-0.422774
H315	H	-0.041121	0.080954	-0.439377
H316	H	-0.009510	0.050847	-0.467047
H317	H	-0.071387	0.091707	-0.488071
H318	H	-0.009606	-0.018101	-0.391782
H319	H	-0.071488	0.022759	-0.412797
C320	C	-0.334286	-0.197386	-0.307533
C321	C	-0.339041	-0.240436	-0.264507
H322	H	-0.315996	-0.214291	-0.325871
H323	H	-0.368800	-0.161108	-0.331222
H324	H	-0.314828	-0.187570	-0.294682
H325	H	-0.358502	-0.250248	-0.277359
H326	H	-0.304520	-0.276725	-0.240814
H327	H	-0.743175	-0.373219	0.026636
H328	H	-0.019235	-0.142256	-0.159055
C329	C	-0.285704	0.527173	-0.501409
C330	C	-0.286922	0.529318	-0.548066
H331	H	-0.250452	0.510256	-0.483115
H332	H	-0.309216	0.567638	-0.510371
H333	H	-0.296610	0.502161	-0.479096
H334	H	-0.276020	0.554334	-0.570381
H335	H	-0.263403	0.488846	-0.539105
C336	C	-0.521083	0.597089	-0.628331
C337	C	-0.505017	0.633959	-0.661238
H338	H	-0.556336	0.614005	-0.646623
H339	H	-0.497571	0.556626	-0.619374
H340	H	-0.520248	0.595639	-0.596681
H341	H	-0.505848	0.635405	-0.692886
H342	H	-0.528536	0.674433	-0.670201
C343	C	-0.351543	-0.116157	-0.065810
C344	C	-0.319278	-0.133715	-0.019954
H345	H	-0.387437	-0.097977	-0.066304
H346	H	-0.349509	-0.087207	-0.096574
H347	H	-0.339567	-0.151383	-0.065646
H348	H	-0.331250	-0.098487	-0.020120
H349	H	-0.321314	-0.162667	0.010818
H350	H	-0.026564	-0.233284	-0.510448
H351	H	-0.026563	0.162985	-0.509727
C352	C	-0.021280	0.227959	-0.496197
C353	C	-0.018650	0.260411	-0.547034
H354	H	-0.019903	0.244796	-0.477789
H355	H	-0.053716	0.231217	-0.499500
H356	H	0.008003	0.185855	-0.476820
H357	H	-0.047936	0.302514	-0.566412
H358	H	0.013790	0.257158	-0.543733
H359	H	-0.019210	0.253653	-0.698214
C360	C	-0.292395	-0.577290	0.071696
C361	C	-0.339050	-0.531670	0.027182
H362	H	-0.273994	-0.613902	0.073069
H363	H	-0.270180	-0.563567	0.068993
H364	H	-0.301374	-0.585348	0.103217
H365	H	-0.330071	-0.523609	-0.004339
H366	H	-0.361270	-0.545396	0.029881
H367	H	-0.445184	-0.320548	0.019287
C368	C	-0.024482	0.188662	-0.711742
C369	C	-0.027118	0.156216	-0.660907
H370	H	-0.025843	0.171813	-0.730143
H371	H	-0.053764	0.230759	-0.731124
H372	H	0.007956	0.185408	-0.708434
H373	H	-0.059558	0.159474	-0.664215
H374	H	0.002167	0.114108	-0.641520
C375	C	-0.716554	0.477424	-0.461524
C376	C	-0.735477	0.467678	-0.494941
H377	H	-0.698223	0.440806	-0.426274
H378	H	-0.692857	0.488236	-0.474117
H379	H	-0.745750	0.509834	-0.461511
H380	H	-0.706280	0.435270	-0.494957
H381	H	-0.759175	0.456858	-0.482345
C382	C	-0.024531	-0.058550	-0.712152
C383	C	-0.027149	-0.074488	-0.661274
H384	H	-0.025910	-0.021933	-0.730443
H385	H	0.007904	-0.090958	-0.708920
H386	H	-0.053816	-0.051940	-0.731602
H387	H	0.002139	-0.081103	-0.641823
H388	H	-0.059588	-0.042073	-0.664504
C389	C	-0.901879	0.309746	-0.730013
C390	C	-0.848895	0.260754	-0.713763
H391	H	-0.920096	0.326589	-0.765266
H392	H	-0.918912	0.295262	-0.706555
H393	H	-0.902562	0.340618	-0.729245
H394	H	-0.848211	0.229879	-0.714527
H395	H	-0.831858	0.275237	-0.737227
H396	H	-0.019237	-0.142213	-0.698946
H397	H	-0.026556	-0.233307	-0.256467
C398	C	-0.014700	-0.321064	-0.098104
C399	C	-0.018663	-0.301033	-0.151051
H400	H	-0.013340	-0.357668	-0.079777
H401	H	0.016823	-0.329080	-0.081132
H402	H	-0.044899	-0.290031	-0.097497
H403	H	0.011538	-0.332064	-0.151658
H404	H	-0.050189	-0.293020	-0.168028
C405	C	-0.393970	-0.583703	0.040688
C406	C	-0.411602	-0.617755	0.040446
H407	H	-0.358070	-0.601905	0.041198
H408	H	-0.415857	-0.542640	0.009579
H409	H	-0.396016	-0.583479	0.071457
H410	H	-0.409560	-0.617975	0.009674
H411	H	-0.389708	-0.658829	0.071558
H412	H	-0.426677	0.389946	-0.430194
H413	H	-0.570087	0.003544	-0.573301
C414	C	-0.622848	-0.403886	-0.004943
C415	C	-0.577175	-0.452224	0.040427
H416	H	-0.640545	-0.368497	-0.004451
H417	H	-0.612857	-0.394695	-0.036037
H418	H	-0.646120	-0.415684	-0.005104
H419	H	-0.553901	-0.440429	0.040586
H420	H	-0.587165	-0.461416	0.071529
H421	H	-0.569746	0.532985	-0.573266
C422	C	-0.523589	-0.312628	0.024568
C423	C	-0.505024	-0.366114	0.027200
H424	H	-0.558843	-0.295715	0.025935
H425	H	-0.500926	-0.322452	0.053851
H426	H	-0.523596	-0.283440	-0.007871
H427	H	-0.505013	-0.395305	0.059641
H428	H	-0.527693	-0.356292	-0.002085
C429	C	-0.813457	-0.289439	0.021351
C430	C	-0.848545	-0.305184	0.018725
H431	H	-0.831678	-0.252824	0.019973
H432	H	-0.784279	-0.321906	0.053787
H433	H	-0.800624	-0.282898	-0.007934
H434	H	-0.861375	-0.311729	0.048012
H435	H	-0.877733	-0.272709	-0.013715
C436	C	-0.367621	0.478036	-0.462102
C437	C	-0.339039	0.468377	-0.495603
H438	H	-0.349221	0.441423	-0.426850
H439	H	-0.370915	0.510502	-0.462146
H440	H	-0.402110	0.488726	-0.474585
H441	H	-0.304551	0.457692	-0.483122
H442	H	-0.335739	0.435902	-0.495556
C443	C	-0.628878	0.416379	-0.457079
C444	C	-0.577179	0.382316	-0.422774
H445	H	-0.646576	0.398187	-0.439378
H446	H	-0.648057	0.457442	-0.467051
H447	H	-0.627062	0.416600	-0.488071
H448	H	-0.578995	0.382099	-0.391783
H449	H	-0.557995	0.341242	-0.412795
H450	H	-0.445174	0.679524	-0.698898
H451	H	-0.841210	-0.463642	0.019294
H452	H	-0.743487	-0.516312	0.026628
C453	C	-0.503740	0.165149	-0.186510
C454	C	-0.452905	0.132700	-0.151416
H455	H	-0.522141	0.148299	-0.168296
H456	H	-0.523121	0.207245	-0.199335
H457	H	-0.500433	0.161901	-0.215696
H458	H	-0.456213	0.135952	-0.122232
H459	H	-0.433520	0.090594	-0.138583
H460	H	-0.445180	-0.860248	0.019309
C461	C	-0.538424	0.299341	-0.283413
C462	C	-0.505020	0.237270	-0.264491
H463	H	-0.573674	0.316300	-0.301756
H464	H	-0.538438	0.302575	-0.254219
H465	H	-0.525817	0.321244	-0.307105
H466	H	-0.517625	0.215365	-0.240795
H467	H	-0.505008	0.234032	-0.293688
H468	H	-0.489870	-0.090268	-0.256484
H469	H	-0.743837	0.163627	-0.510462
C470	C	-0.902207	0.310056	-0.581043
C471	C	-0.849258	0.261100	-0.548133
H472	H	-0.920542	0.327008	-0.562751
H473	H	-0.902821	0.340858	-0.612689
H474	H	-0.919168	0.295500	-0.590002
H475	H	-0.832295	0.275657	-0.539178
H476	H	-0.848641	0.230292	-0.516478
C477	C	-0.288209	-0.795555	0.024556
C478	C	-0.339045	-0.763111	0.027192
H479	H	-0.269810	-0.778703	0.025917
H480	H	-0.268827	-0.837652	0.053841
H481	H	-0.291516	-0.792302	-0.007881
H482	H	-0.335738	-0.766367	0.059631
H483	H	-0.358431	-0.721003	-0.002095
C484	C	-0.270860	-0.433871	0.014729
C485	C	-0.286929	-0.470736	0.018698
H486	H	-0.235606	-0.450790	0.013365
H487	H	-0.294369	-0.393407	-0.016792
H488	H	-0.271701	-0.432423	0.044930
H489	H	-0.286093	-0.472181	-0.011505
H490	H	-0.263414	-0.511211	0.050223
H491	H	-0.840896	0.535415	-0.554785
H492	H	-0.346713	-0.233351	-0.509753
C493	C	-0.108042	-0.473153	0.322307
C494	C	-0.153716	-0.472846	0.319308
H495	H	-0.090357	-0.491331	0.358203
H496	H	-0.084765	-0.496258	0.310354
H497	H	-0.118033	-0.432077	0.300404
H498	H	-0.143725	-0.513923	0.341209
H499	H	-0.176998	-0.449742	0.331268
H500	H	-0.427024	-0.139478	-0.430231
C501	C	-0.901865	0.714270	-0.729085
C502	C	-0.848915	0.694231	-0.713020
H503	H	-0.920202	0.750895	-0.764330
H504	H	-0.902483	0.683259	-0.728266
H505	H	-0.918822	0.722255	-0.705557
H506	H	-0.831956	0.686241	-0.736546
H507	H	-0.848294	0.725249	-0.713843
H508	H	-0.444519	-0.142934	-0.158758
H509	H	-0.743490	0.626486	-0.653184
H510	H	-0.301364	-0.286010	-0.554791
H511	H	-0.346770	0.229846	-0.256454
C512	C	-0.270858	0.083388	-0.098090
C513	C	-0.286926	0.132355	-0.151035
H514	H	-0.235606	0.066430	-0.079756
H515	H	-0.294370	0.097931	-0.081122
H516	H	-0.271693	0.052588	-0.097485
H517	H	-0.286095	0.163157	-0.151640
H518	H	-0.263407	0.117812	-0.168007
C519	C	-0.456955	-0.178875	-0.713007
C520	C	-0.452196	-0.135829	-0.713042
H521	H	-0.475251	-0.161963	-0.748257
H522	H	-0.422442	-0.215150	-0.700413
H523	H	-0.476409	-0.188695	-0.690333
H524	H	-0.432739	-0.126012	-0.735713
H525	H	-0.486716	-0.099543	-0.725643
C526	C	-0.505793	-0.029264	-0.707590
C527	C	-0.504667	-0.074886	-0.660932
H528	H	-0.541047	0.007344	-0.725993
H529	H	-0.482339	-0.021202	-0.698617
H530	H	-0.494765	-0.042991	-0.729806
H531	H	-0.515692	-0.061161	-0.638713
H532	H	-0.528129	-0.082948	-0.669904
C533	C	-0.770755	0.188514	-0.712169
C534	C	-0.735819	0.156205	-0.661291
H535	H	-0.752417	0.171562	-0.730461
H536	H	-0.799942	0.185266	-0.708937
H537	H	-0.783594	0.230623	-0.731618
H538	H	-0.722984	0.114096	-0.641841
H539	H	-0.706623	0.159447	-0.664521
C540	C	-0.322241	-0.258991	0.108070
C541	C	-0.319270	-0.307323	0.153737
H542	H	-0.358130	-0.223591	0.090374
H543	H	-0.300328	-0.249818	0.118068
H544	H	-0.310287	-0.270784	0.084794
H545	H	-0.331220	-0.295532	0.177015
H546	H	-0.341190	-0.316496	0.143740
