data_functionalizedCrystal
_audit_creation_method	'MofGen! by Chris Wilmer'
_symmetry_space_group_name_H-M	'P1'
_symmetry_Int_Tables_number	1
_symmetry_cell_setting	triclinic
loop_
_symmetry_equiv_pos_as_xyz
  x,y,z
_cell_length_a	17.640112
_cell_length_b	25.639239
_cell_length_c	17.640968
_cell_angle_alpha	78.768889
_cell_angle_beta	92.139080
_cell_angle_gamma	101.263838
loop_
_atom_site_label
_atom_site_type_symbol
_atom_site_fract_x
_atom_site_fract_y
_atom_site_fract_z
Zn1	Zn	1.247772	-0.015023	-0.195080
Zn2	Zn	1.747772	0.484977	0.304920
Zn3	Zn	1.221957	-0.122899	-0.068099
Zn4	Zn	1.721957	0.377101	0.431901
Zn5	Zn	1.095090	-0.049036	-0.093726
Zn6	Zn	1.595090	0.450964	0.406274
Zn7	Zn	1.120701	-0.116017	-0.220680
Zn8	Zn	1.620701	0.383983	0.279320
O9	O	1.171380	-0.075744	-0.144396
O10	O	1.671380	0.424256	0.355604
O11	O	1.350622	-0.017980	-0.156797
O12	O	1.850622	0.482020	0.343203
O13	O	1.183606	-0.130216	0.034775
O14	O	1.683606	0.369784	0.534775
O15	O	1.115429	0.028654	-0.107183
O16	O	1.615429	0.528654	0.392817
O17	O	1.331655	-0.097236	-0.063504
O18	O	1.831655	0.402764	0.436496
O19	O	1.227604	0.053643	-0.181647
O20	O	1.727604	0.553643	0.318353
O21	O	1.090397	-0.075949	0.015946
O22	O	1.590397	0.424051	0.515946
O23	O	0.992213	-0.069275	-0.132006
O24	O	1.492213	0.430725	0.367994
O25	O	1.159079	-0.085505	-0.323557
O26	O	1.659079	0.414495	0.176443
O27	O	1.011029	-0.118485	-0.225279
O28	O	1.511029	0.381515	0.274721
O29	O	1.252438	-0.011306	-0.304749
O30	O	1.752438	0.488694	0.195251
O31	O	1.208439	-0.195165	-0.088327
O32	O	1.708439	0.304835	0.411673
O33	O	1.134047	-0.190108	-0.200429
O34	O	1.634047	0.309892	0.299571
C35	C	0.974065	-0.096824	-0.184202
C36	C	1.474065	0.403176	0.315798
C37	C	0.889657	-0.105852	-0.201249
C38	C	1.389657	0.394148	0.298751
C39	C	1.171245	-0.211606	-0.144387
C40	C	1.671245	0.288394	0.355613
C41	C	1.171262	-0.269716	-0.144395
C42	C	1.671262	0.230284	0.355605
C43	C	0.563036	-0.007149	-0.014898
C44	C	1.063036	0.492851	0.485102
C45	C	0.483724	-0.015641	-0.030927
C46	C	0.983724	0.484359	0.469073
C47	C	0.503337	-0.067003	-0.127884
C48	C	1.003337	0.432997	0.372116
C49	C	0.582654	-0.058513	-0.111866
C50	C	1.082654	0.441487	0.388134
C51	C	0.612496	-0.028586	-0.055372
C52	C	1.112496	0.471414	0.444628
C53	C	0.632114	-0.079950	-0.152340
C54	C	1.132114	0.420050	0.347660
C55	C	0.711422	-0.071463	-0.136320
C56	C	1.211422	0.428537	0.363680
C57	C	0.741271	-0.041538	-0.079827
C58	C	1.241271	0.458462	0.420173
C59	C	0.691805	-0.020099	-0.039352
C60	C	1.191805	0.479901	0.460648
C61	C	0.602269	-0.109880	-0.208830
C62	C	1.102269	0.390120	0.291170
C63	C	0.651729	-0.131317	-0.249304
C64	C	1.151729	0.368683	0.250696
C65	C	0.731040	-0.122827	-0.233288
C66	C	1.231040	0.377173	0.266712
C67	C	0.760888	-0.092902	-0.176795
C68	C	1.260888	0.407098	0.323205
C69	C	0.780506	-0.144266	-0.273763
C70	C	1.280506	0.355734	0.226237
C71	C	0.859815	-0.135779	-0.257743
C72	C	1.359815	0.364221	0.242257
C73	C	0.840197	-0.084415	-0.160775
C74	C	1.340197	0.415585	0.339225
C75	C	1.210259	-0.632657	-0.086082
C76	C	1.710259	-0.132657	0.413918
C77	C	1.210291	-0.687257	-0.086087
C78	C	1.710291	-0.187257	0.413913
O79	O	1.243308	-0.717705	-0.036496
O80	O	1.743308	-0.217705	0.463504
N81	N	1.171523	-0.711960	-0.144420
N82	N	1.671523	-0.211960	0.355580
C83	C	1.132728	-0.682060	-0.202757
C84	C	1.632728	-0.182060	0.297243
O85	O	1.099757	-0.708086	-0.252374
O86	O	1.599757	-0.208086	0.247626
C87	C	1.132702	-0.627461	-0.202755
C88	C	1.632702	-0.127461	0.297245
C89	C	1.171465	-0.602761	-0.144414
C90	C	1.671465	-0.102761	0.355586
C91	C	1.249020	-0.607957	-0.027746
C92	C	1.749020	-0.107957	0.472254
C93	C	1.248988	-0.553362	-0.027742
C94	C	1.748988	-0.053362	0.472258
C95	C	1.210194	-0.523466	-0.086073
C96	C	1.710194	-0.023466	0.413927
C97	C	1.171433	-0.548166	-0.144409
C98	C	1.671433	-0.048166	0.355591
C99	C	1.093912	-0.597561	-0.261094
C100	C	1.593912	-0.097561	0.238906
C101	C	1.093890	-0.542958	-0.261088
C102	C	1.593890	-0.042958	0.238912
C103	C	1.132653	-0.518258	-0.202747
C104	C	1.632653	-0.018258	0.297253
C105	C	1.132606	-0.463675	-0.202735
C106	C	1.632606	0.036325	0.297265
N107	N	1.171373	-0.438971	-0.144402
N108	N	1.671373	0.061029	0.355598
C109	C	1.210167	-0.468867	-0.086071
C110	C	1.710167	0.031133	0.413929
C111	C	1.132788	-0.796723	-0.202757
C112	C	1.632788	-0.296723	0.297243
C113	C	1.132809	-0.851323	-0.202756
C114	C	1.632809	-0.351323	0.297244
C115	C	1.210373	-0.856515	-0.086087
C116	C	1.710373	-0.356515	0.413913
C117	C	1.210347	-0.801915	-0.086085
C118	C	1.710347	-0.301915	0.413915
C119	C	1.171556	-0.772019	-0.144424
C120	C	1.671556	-0.272019	0.355576
C121	C	1.210095	-0.354212	-0.086065
C122	C	1.710095	0.145788	0.413935
C123	C	1.210056	-0.299612	-0.086064
C124	C	1.710056	0.200388	0.413936
C125	C	1.132496	-0.294424	-0.202735
C126	C	1.632496	0.205576	0.297265
C127	C	1.132531	-0.349020	-0.202735
C128	C	1.632531	0.150980	0.297265
C129	C	1.171336	-0.378912	-0.144396
C130	C	1.671336	0.121088	0.355604
O131	O	1.099609	-0.433192	-0.252303
O132	O	1.599609	0.066808	0.247697
O133	O	1.243141	-0.442832	-0.036467
O134	O	1.743141	0.057168	0.463533
C135	C	1.369465	-0.054581	-0.104436
C136	C	1.869465	0.445419	0.395564
C137	C	1.453877	-0.045563	-0.087407
C138	C	1.953877	0.454437	0.412593
C139	C	1.211495	-0.043844	-0.342479
C140	C	1.711495	0.456156	0.157521
C141	C	1.228589	-0.030250	-0.426890
C142	C	1.728589	0.469750	0.073110
C143	C	1.171539	0.060653	-0.144418
C144	C	1.671539	0.560653	0.355582
C145	C	1.171607	0.118778	-0.144427
C146	C	1.671607	0.618778	0.355573
C147	C	1.041806	-0.178700	-0.753464
C148	C	1.541806	0.321300	-0.253464
C149	C	1.057885	-0.165918	-0.832778
C150	C	1.557885	0.334082	-0.332778
C151	C	1.155091	-0.088661	-0.813184
C152	C	1.655091	0.411339	-0.313184
C153	C	1.139017	-0.101435	-0.733867
C154	C	1.639017	0.398565	-0.233867
C155	C	1.082375	-0.146456	-0.704014
C156	C	1.582375	0.353544	-0.204014
C157	C	1.179586	-0.069190	-0.684417
C158	C	1.679586	0.430810	-0.184417
C159	C	1.163517	-0.081965	-0.605107
C160	C	1.663517	0.418035	-0.105107
C161	C	1.106878	-0.126985	-0.575247
C162	C	1.606878	0.373015	-0.075247
C163	C	1.066305	-0.159230	-0.624704
C164	C	1.566305	0.340770	-0.124704
C165	C	1.236233	-0.024172	-0.714271
C166	C	1.736233	0.475828	-0.214271
C167	C	1.276802	0.008072	-0.664821
C168	C	1.776802	0.508072	-0.164821
C169	C	1.260728	-0.004700	-0.585510
C170	C	1.760728	0.495300	-0.085510
C171	C	1.204090	-0.049719	-0.555650
C172	C	1.704090	0.450281	-0.055650
C173	C	1.301302	0.027546	-0.536054
C174	C	1.801302	0.527546	-0.036054
C175	C	1.285232	0.014771	-0.456743
C176	C	1.785232	0.514771	0.043257
C177	C	1.188020	-0.062494	-0.476340
C178	C	1.688020	0.437506	0.023660
C179	C	1.131465	-0.107478	0.052925
C180	C	1.631465	0.392522	0.552925
C181	C	1.114517	-0.120908	0.137365
C182	C	1.614517	0.379092	0.637365
H183	H	0.864498	-0.060036	-0.114783
H184	H	1.364498	0.439964	0.385217
H185	H	1.347425	0.064198	-0.560372
H186	H	1.847425	0.564198	-0.060372
H187	H	1.241964	-0.880865	-0.038592
H188	H	1.741964	-0.380865	0.461408
C189	C	0.979495	-0.228225	-0.720622
C190	C	1.479495	0.271775	-0.220622
N191	N	0.932566	-0.265526	-0.695884
N192	N	1.432566	0.234474	-0.195884
C193	C	1.252777	-0.387087	-0.021886
C194	C	1.752777	0.112913	0.478114
N195	N	1.284920	-0.411849	0.026458
N196	N	1.784920	0.088151	0.526458
C197	C	1.089886	-0.376191	-0.266910
C198	C	1.589886	0.123809	0.233090
N199	N	1.057773	-0.396651	-0.315254
N200	N	1.557773	0.103349	0.184746
C201	C	1.217390	-0.039136	-0.846034
C202	C	1.717390	0.460864	-0.346034
N203	N	1.264310	-0.001830	-0.870776
N204	N	1.764310	0.498170	-0.370776
C205	C	1.089828	-0.261528	-0.266899
C206	C	1.589828	0.238472	0.233101
N207	N	1.057696	-0.236747	-0.315231
N208	N	1.557696	0.263253	0.184769
C209	C	1.329859	0.050243	-0.402346
C210	C	1.829859	0.550243	0.097654
N211	N	1.363474	0.076960	-0.361372
N212	N	1.863474	0.576960	0.138628
H213	H	0.537690	-0.116789	-0.221871
H214	H	1.037690	0.383211	0.278129
H215	H	1.062342	-0.617662	-0.308599
H216	H	1.562342	-0.117662	0.191401
C217	C	1.090158	-0.878488	-0.266931
C218	C	1.590158	-0.378488	0.233069
N219	N	1.058035	-0.898945	-0.315271
N220	N	1.558035	-0.398945	0.184729
H221	H	1.101193	-0.772385	-0.250263
H222	H	1.601193	-0.272385	0.249737
C223	C	1.291623	-0.526201	0.036444
C224	C	1.791623	-0.026201	0.536444
N225	N	1.323737	-0.505748	0.084794
N226	N	1.823737	-0.005748	0.584794
C227	C	0.828514	-0.032201	-0.062207
C228	C	1.328514	0.467799	0.437793
N229	N	0.894226	-0.025167	-0.048937
N230	N	1.394226	0.474833	0.451063
C231	C	0.914224	-0.159358	-0.302270
C232	C	1.414224	0.340642	0.197730
N233	N	0.955206	-0.177119	-0.335808
N234	N	1.455206	0.322881	0.164192
C235	C	0.618893	-0.164234	-0.311447
C236	C	1.118893	0.335766	0.188553
N237	N	0.594162	-0.189027	-0.358257
N238	N	1.094162	0.310973	0.141743
H239	H	0.716106	0.004281	0.006640
H240	H	1.216106	0.504281	0.506640
C241	C	1.013249	-0.201393	-0.887172
C242	C	1.513249	0.298607	-0.387172
N243	N	0.979630	-0.228112	-0.928142
N244	N	1.479630	0.271888	-0.428142
H245	H	1.062302	-0.518618	-0.308597
H246	H	1.562302	-0.018618	0.191403
C247	C	0.747667	-0.177188	-0.335901
C248	C	1.247667	0.322812	0.164099
N249	N	0.722933	-0.201985	-0.382704
N250	N	1.222933	0.298015	0.117296
H251	H	1.241621	-0.279504	-0.038553
H252	H	1.741621	0.220496	0.461447
H253	H	1.280615	-0.632292	0.019755
H254	H	1.780615	-0.132292	0.519755
H255	H	1.241912	-0.781808	-0.038579
H256	H	1.741912	-0.281808	0.461421
H257	H	1.141878	-0.099144	-0.452036
H258	H	1.641878	0.400856	0.047964
C259	C	1.089200	-0.141037	-0.488003
C260	C	1.589200	0.358963	0.011997
N261	N	1.075884	-0.151620	-0.422291
N262	N	1.575884	0.348380	0.077709
H263	H	0.587337	0.017230	0.031094
H264	H	1.087337	0.517230	0.531094
H265	H	0.443456	0.001823	0.002031
H266	H	0.943456	0.501823	0.502031
H267	H	0.479028	-0.091371	-0.173879
H268	H	0.979028	0.408629	0.326121
H269	H	1.020163	-0.195880	-0.600400
H270	H	1.520163	0.304120	-0.100400
H271	H	1.249316	-0.013774	-0.778851
H272	H	1.749316	0.486226	-0.278851
H273	H	1.322922	0.044727	-0.689139
H274	H	1.822922	0.544727	-0.189139
