data_functionalizedCrystal
_audit_creation_method	'MofGen! by Chris Wilmer'
_symmetry_space_group_name_H-M	'P1'
_symmetry_Int_Tables_number	1
_symmetry_cell_setting	triclinic
loop_
_symmetry_equiv_pos_as_xyz
  x,y,z
_cell_length_a	18.050591
_cell_length_b	25.639240
_cell_length_c	18.050582
_cell_angle_alpha	89.968180
_cell_angle_beta	89.980240
_cell_angle_gamma	90.029204
loop_
_atom_site_label
_atom_site_type_symbol
_atom_site_fract_x
_atom_site_fract_y
_atom_site_fract_z
Zn1	Zn	1.135269	-0.208234	-0.419961
Zn2	Zn	1.635269	0.291766	0.080039
Zn3	Zn	1.135170	-0.295661	-0.295751
Zn4	Zn	1.635170	0.204339	0.204249
Zn5	Zn	1.011088	-0.208236	-0.295774
Zn6	Zn	1.511088	0.291764	0.204226
Zn7	Zn	1.011026	-0.295634	-0.419889
Zn8	Zn	1.511026	0.204366	0.080111
O9	O	1.073138	-0.251941	-0.357844
O10	O	1.573138	0.248059	0.142156
O11	O	1.239180	-0.219841	-0.403504
O12	O	1.739180	0.280159	0.096496
O13	O	1.118695	-0.284077	-0.191829
O14	O	1.618695	0.215923	0.308171
O15	O	1.027629	-0.135071	-0.312288
O16	O	1.527629	0.364929	0.187712
O17	O	1.239108	-0.284074	-0.312248
O18	O	1.739108	0.215926	0.187752
O19	O	1.118864	-0.135069	-0.403527
O20	O	1.618864	0.364931	0.096473
O21	O	1.027532	-0.219846	-0.191846
O22	O	1.527532	0.280154	0.308154
O23	O	0.907156	-0.219820	-0.312218
O24	O	1.407156	0.280180	0.187782
O25	O	1.027523	-0.284028	-0.523823
O26	O	1.527523	0.215972	-0.023823
O27	O	0.907110	-0.284031	-0.403404
O28	O	1.407110	0.215969	0.096596
O29	O	1.118804	-0.219815	-0.523876
O30	O	1.618804	0.280185	-0.023876
O31	O	1.118635	-0.368823	-0.312178
O32	O	1.618635	0.131177	0.187822
O33	O	1.027427	-0.368803	-0.403381
O34	O	1.527427	0.131197	0.096619
C35	C	0.880186	-0.251923	-0.357806
C36	C	1.380186	0.248077	0.142194
C37	C	0.797641	-0.251928	-0.357808
C38	C	1.297641	0.248072	0.142192
C39	C	0.548818	-0.216974	-0.308338
C40	C	1.048818	0.283026	0.191662
C41	C	0.598252	-0.204244	-0.376117
C42	C	1.098252	0.295756	0.123883
C43	C	0.500520	-0.251954	-0.357869
C44	C	1.000520	0.248046	0.142131
C45	C	0.598168	-0.264646	-0.290064
C46	C	1.098168	0.235354	0.209936
C47	C	0.646505	-0.251940	-0.357835
C48	C	1.146505	0.248060	0.142165
C49	C	0.548866	-0.239200	-0.425684
C50	C	1.048866	0.260800	0.074316
C51	C	0.548779	-0.299624	-0.339585
C52	C	1.048779	0.200376	0.160415
C53	C	0.598190	-0.286913	-0.407410
C54	C	1.098190	0.213087	0.092590
C55	C	0.416422	-0.251961	-0.357887
C56	C	0.916422	0.248039	0.142113
C57	C	0.730602	-0.251933	-0.357825
C58	C	1.230602	0.248067	0.142175
C59	C	1.073033	-0.387784	-0.357785
C60	C	1.573033	0.112216	0.142215
C61	C	1.073057	-0.445898	-0.357785
C62	C	1.573057	0.054102	0.142215
C63	C	1.120668	-0.806221	-0.405437
C64	C	1.620668	-0.306221	0.094563
C65	C	1.120690	-0.860826	-0.405453
C66	C	1.620690	-0.360826	0.094547
O67	O	1.161046	-0.889029	-0.445908
O68	O	1.661046	-0.389029	0.054092
N69	N	1.073241	-0.888180	-0.357915
N70	N	1.573241	-0.388180	0.142085
C71	C	1.025763	-0.860928	-0.310365
C72	C	1.525763	-0.360928	0.189635
O73	O	0.985405	-0.889209	-0.269933
O74	O	1.485405	-0.389209	0.230067
C75	C	1.025738	-0.806325	-0.310354
C76	C	1.525738	-0.306325	0.189646
C77	C	1.073194	-0.778973	-0.357889
C78	C	1.573194	-0.278973	0.142111
C79	C	1.168121	-0.778870	-0.452969
C80	C	1.668121	-0.278870	0.047031
C81	C	1.168100	-0.724269	-0.452953
C82	C	1.668100	-0.224269	0.047047
C83	C	1.120626	-0.697020	-0.405405
C84	C	1.620626	-0.197020	0.094595
C85	C	1.073173	-0.724372	-0.357873
C86	C	1.573173	-0.224372	0.142127
C87	C	0.978255	-0.779073	-0.262809
C88	C	1.478255	-0.279073	0.237191
C89	C	0.978234	-0.724466	-0.262802
C90	C	1.478234	-0.224466	0.237198
C91	C	1.025691	-0.697114	-0.310337
C92	C	1.525691	-0.197114	0.189663
C93	C	1.025679	-0.642523	-0.310309
C94	C	1.525679	-0.142523	0.189691
N95	N	1.073127	-0.615168	-0.357846
N96	N	1.573127	-0.115168	0.142154
C97	C	1.120601	-0.642417	-0.405394
C98	C	1.620601	-0.142417	0.094606
C99	C	1.025818	-0.975599	-0.310392
C100	C	1.525818	-0.475599	0.189608
C101	C	1.025846	-1.030201	-0.310399
C102	C	1.525846	-0.530201	0.189601
C103	C	1.120773	-1.030095	-0.405487
C104	C	1.620773	-0.530095	0.094513
C105	C	1.120748	-0.975492	-0.405477
C106	C	1.620748	-0.475492	0.094523
C107	C	1.073267	-0.948244	-0.357930
C108	C	1.573267	-0.448244	0.142070
C109	C	1.120553	-0.527752	-0.405356
C110	C	1.620553	-0.027752	0.094644
C111	C	1.120530	-0.473147	-0.405333
C112	C	1.620530	0.026853	0.094667
C113	C	1.025601	-0.473257	-0.310248
C114	C	1.525601	0.026743	0.189752
C115	C	1.025627	-0.527858	-0.310267
C116	C	1.525627	-0.027858	0.189733
C117	C	1.073105	-0.555104	-0.357827
C118	C	1.573105	-0.055104	0.142173
O119	O	0.985341	-0.614285	-0.269876
O120	O	1.485341	-0.114285	0.230124
O121	O	1.160944	-0.614129	-0.445826
O122	O	1.660944	-0.114129	0.054174
C123	C	1.266844	-0.251960	-0.357881
C124	C	1.766844	0.248040	0.142119
C125	C	1.349390	-0.251968	-0.357897
C126	C	1.849390	0.248032	0.142103
C127	C	1.073168	-0.251918	-0.551549
C128	C	1.573168	0.248082	-0.051549
C129	C	1.073180	-0.251908	-0.634095
C130	C	1.573180	0.248092	-0.134095
C131	C	1.073264	-0.115568	-0.357918
C132	C	1.573264	0.384432	0.142082
C133	C	1.073318	-0.057454	-0.357950
C134	C	1.573318	0.442546	0.142050
C135	C	1.023580	-0.286780	-0.833517
C136	C	1.523580	0.213220	-0.333517
C137	C	1.091333	-0.299563	-0.882911
C138	C	1.591333	0.200437	-0.382911
C139	C	1.073217	-0.251868	-0.785225
C140	C	1.573217	0.248132	-0.285225
C141	C	1.005500	-0.239070	-0.882913
C142	C	1.505500	0.260930	-0.382913
C143	C	1.073246	-0.251831	-0.931211
C144	C	1.573246	0.248169	-0.431211
C145	C	1.141006	-0.264677	-0.833532
C146	C	1.641006	0.235323	-0.333532
C147	C	1.055127	-0.204162	-0.833530
C148	C	1.555127	0.295838	-0.333530
C149	C	1.122927	-0.216927	-0.882902
C150	C	1.622927	0.283073	-0.382902
C151	C	1.073199	-0.251891	-0.701127
C152	C	1.573199	0.248109	-0.201127
C153	C	1.073272	-0.251808	-1.015307
C154	C	1.573272	0.248192	-0.515307
C155	C	1.073152	-0.251927	-0.164891
C156	C	1.573152	0.248073	0.335109
C157	C	1.073284	-0.251789	-0.082346
C158	C	1.573284	0.248211	0.417654
H159	H	1.159178	-0.450879	-0.444042
H160	H	1.659178	0.049121	0.055958
H161	H	0.987155	-0.953416	-0.271668
H162	H	1.487155	-0.453416	0.228332
H163	H	1.206741	-0.702002	-0.491662
H164	H	1.706741	-0.202002	0.008338
H165	H	0.619731	-0.316489	-0.449331
H166	H	1.119731	0.183511	0.050669
H167	H	0.948221	-0.228262	-0.904605
H168	H	1.448221	0.271738	-0.404605
H169	H	1.106652	-0.339891	-0.904602
H170	H	1.606652	0.160109	-0.404602
O171	O	0.623968	-0.277556	-0.221695
O172	O	1.123968	0.222444	0.278305
C173	C	0.626911	-0.342001	-0.124521
C174	C	1.126911	0.157999	0.375479
C175	C	0.597660	-0.327457	-0.201962
C176	C	1.097660	0.172543	0.298038
H177	H	0.605639	-0.382341	-0.108537
H178	H	1.105639	0.117659	0.391463
H179	H	0.690063	-0.342285	-0.125272
H180	H	1.190063	0.157715	0.374728
H181	H	0.606643	-0.312120	-0.082399
H182	H	1.106643	0.187880	0.417601
H183	H	0.617873	-0.357323	-0.244128
H184	H	1.117873	0.142677	0.255872
H185	H	0.534509	-0.327156	-0.201150
H186	H	1.034509	0.172844	0.298850
O187	O	0.624215	-0.156178	-0.394683
O188	O	1.124215	0.343822	0.105317
C189	C	0.696628	-0.105345	-0.480592
C190	C	1.196628	0.394655	0.019408
C191	C	0.667265	-0.159807	-0.459668
C192	C	1.167265	0.340193	0.040332
H193	H	0.731453	-0.108262	-0.533126
H194	H	1.231453	0.391738	-0.033126
H195	H	0.647995	-0.077884	-0.490614
H196	H	1.147995	0.422116	0.009386
H197	H	0.732218	-0.089573	-0.433489
H198	H	1.232218	0.410427	0.066511
H199	H	0.631686	-0.175626	-0.506745
H200	H	1.131686	0.324374	-0.006745
H201	H	0.715932	-0.187233	-0.449620
H202	H	1.215932	0.312767	0.050380
O203	O	0.932042	-0.805608	-0.216715
O204	O	1.432042	-0.305608	0.283285
C205	C	0.805736	-0.822354	-0.180532
C206	C	1.305736	-0.322354	0.319468
C207	C	0.857995	-0.792283	-0.232792
C208	C	1.357995	-0.292283	0.267208
H209	H	0.745858	-0.811583	-0.193501
H210	H	1.245858	-0.311583	0.306499
H211	H	0.813827	-0.866070	-0.188698
H212	H	1.313827	-0.366070	0.311302
H213	H	0.818843	-0.811642	-0.120664
H214	H	1.318843	-0.311642	0.379336
H215	H	0.844919	-0.802950	-0.292680
H216	H	1.344919	-0.302950	0.207320
H217	H	0.849894	-0.748574	-0.224561
H218	H	1.349894	-0.248574	0.275439
H219	H	0.939567	-0.702284	-0.224084
H220	H	1.439567	-0.202284	0.275916
O221	O	0.522798	-0.347727	-0.321258
O222	O	1.022798	0.152273	0.178742
C223	C	0.450421	-0.422056	-0.359173
C224	C	0.950421	0.077944	0.140827
C225	C	0.479808	-0.367589	-0.380039
C226	C	0.979808	0.132411	0.119961
H227	H	0.415645	-0.438126	-0.406679
H228	H	0.915645	0.061874	0.093321
H229	H	0.499042	-0.449338	-0.348154
H230	H	0.999042	0.050662	0.151846
H231	H	0.414777	-0.419010	-0.307207
H232	H	0.914777	0.080990	0.192793
H233	H	0.515441	-0.370585	-0.432016
H234	H	1.015441	0.129415	0.067984
H235	H	0.431154	-0.340328	-0.391011
H236	H	0.931154	0.159672	0.108989
O237	O	1.166956	-1.056489	-0.451705
O238	O	1.666956	-0.556489	0.048295
C239	C	1.261073	-1.050637	-0.546055
C240	C	1.761073	-0.550637	-0.046055
C241	C	1.208824	-1.020679	-0.493745
C242	C	1.708824	-0.520679	0.006255
H243	H	1.294925	-1.021698	-0.580069
H244	H	1.794925	-0.521698	-0.080069
H245	H	1.299986	-1.076183	-0.512040
H246	H	1.799986	-0.576183	-0.012040
H247	H	1.226943	-1.076214	-0.584822
H248	H	1.726943	-0.576214	-0.084822
H249	H	1.242894	-0.995074	-0.454967
H250	H	1.742894	-0.495074	0.045033
H251	H	1.169908	-0.995166	-0.527806
H252	H	1.669908	-0.495166	-0.027806
H253	H	1.159391	-0.953225	-0.444184
H254	H	1.659391	-0.453225	0.055816
H255	H	0.986989	-0.550129	-0.271555
H256	H	1.486989	-0.050129	0.228445
H257	H	0.527142	-0.187375	-0.266518
H258	H	1.027142	0.312625	0.233482
H259	H	1.206779	-0.801050	-0.491693
H260	H	1.706779	-0.301050	0.008307
H261	H	1.198302	-0.275531	-0.811932
H262	H	1.698302	0.224469	-0.311932
O263	O	0.979510	-0.446702	-0.264133
O264	O	1.479510	0.053298	0.235867
C265	C	0.937440	-0.362622	-0.221957
C266	C	1.437440	0.137378	0.278043
C267	C	0.989668	-0.392633	-0.274227
C268	C	1.489668	0.107367	0.225773
H269	H	0.945646	-0.318902	-0.230089
H270	H	1.445646	0.181098	0.269911
H271	H	0.877536	-0.373344	-0.234947
H272	H	1.377536	0.126656	0.265053
H273	H	0.950509	-0.373409	-0.162095
H274	H	1.450509	0.126591	0.337905
H275	H	0.976665	-0.381862	-0.334107
H276	H	1.476665	0.118138	0.165893
H277	H	1.049556	-0.381908	-0.261173
H278	H	1.549556	0.118092	0.238827
O279	O	0.973632	-0.322115	-0.807678
O280	O	1.473632	0.177885	-0.307678
C281	C	0.936290	-0.412316	-0.803564
C282	C	1.436290	0.087684	-0.303564
C283	C	0.992912	-0.372355	-0.832862
C284	C	1.492912	0.127645	-0.332862
H285	H	0.951849	-0.452942	-0.823926
H286	H	1.451849	0.047058	-0.323926
H287	H	0.936368	-0.411784	-0.740411
H288	H	1.436368	0.088216	-0.240411
H289	H	0.878697	-0.401793	-0.824708
H290	H	1.378697	0.098207	-0.324708
H291	H	1.050533	-0.382851	-0.811773
H292	H	1.550533	0.117149	-0.311773
H293	H	0.992770	-0.372894	-0.896014
H294	H	1.492770	0.127106	-0.396014
H295	H	1.164965	-0.187388	-0.904448
H296	H	1.664965	0.312612	-0.404448
O297	O	1.166740	-0.554133	-0.451582
O298	O	1.666740	-0.054133	0.048418
C299	C	1.260855	-0.548250	-0.545929
C300	C	1.760855	-0.048250	-0.045929
C301	C	1.208599	-0.518310	-0.493607
C302	C	1.708599	-0.018310	0.006393
H303	H	1.294700	-0.519301	-0.579932
H304	H	1.794700	-0.019301	-0.079932
H305	H	1.299775	-0.573798	-0.511924
H306	H	1.799775	-0.073798	-0.011924
H307	H	1.226732	-0.573825	-0.584706
H308	H	1.726732	-0.073825	-0.084706
H309	H	1.242662	-0.492707	-0.454820
H310	H	1.742662	0.007293	0.045180
H311	H	1.169676	-0.492795	-0.527658
H312	H	1.669676	0.007205	-0.027658
H313	H	0.987210	-1.052466	-0.271683
H314	H	1.487210	-0.552466	0.228317
O315	O	1.036746	-0.156107	-0.807535
O316	O	1.536746	0.343893	-0.307535
C317	C	0.951676	-0.105403	-0.734121
C318	C	1.451676	0.394597	-0.234121
C319	C	0.972429	-0.159856	-0.763499
C320	C	1.472429	0.340144	-0.263499
H321	H	0.899666	-0.108415	-0.698525
H322	H	1.399666	0.391585	-0.198525
H323	H	0.999197	-0.089349	-0.699339
H324	H	1.499197	0.410651	-0.199339
H325	H	0.940775	-0.078124	-0.782803
H326	H	1.440775	0.421876	-0.282803
H327	H	0.983317	-0.187175	-0.714862
H328	H	1.483317	0.312825	-0.214862
H329	H	0.924896	-0.175868	-0.798302
H330	H	1.424896	0.324132	-0.298302
O331	O	0.523020	-0.226315	-0.494044
O332	O	1.023020	0.273685	0.005956
C333	C	0.415738	-0.211899	-0.570766
C334	C	0.915738	0.288101	-0.070766
C335	C	0.444910	-0.226489	-0.493313
C336	C	0.944910	0.273511	0.006687
H337	H	0.352584	-0.212046	-0.570205
H338	H	0.852584	0.287954	-0.070205
H339	H	0.436503	-0.171370	-0.586454
H340	H	0.936503	0.328630	-0.086454
H341	H	0.436539	-0.241520	-0.612999
H342	H	0.936539	0.258480	-0.112999
H343	H	0.424121	-0.196903	-0.451028
H344	H	0.924121	0.303097	0.048972
H345	H	0.424151	-0.267031	-0.477689
H346	H	0.924151	0.232969	0.022311
