data_functionalizedCrystal
_audit_creation_method	'MofGen! by Chris Wilmer'
_symmetry_space_group_name_H-M	'P1'
_symmetry_Int_Tables_number	1
_symmetry_cell_setting	triclinic
loop_
_symmetry_equiv_pos_as_xyz
  x,y,z
_cell_length_a	16.120490
_cell_length_b	18.101395
_cell_length_c	16.120256
_cell_angle_alpha	92.874436
_cell_angle_beta	90.129807
_cell_angle_gamma	87.123501
loop_
_atom_site_label
_atom_site_type_symbol
_atom_site_fract_x
_atom_site_fract_y
_atom_site_fract_z
Zn1	Zn	1.247390	-0.375265	-0.534537
Zn2	Zn	1.747390	0.124735	-0.034537
Zn3	Zn	1.254324	-0.493153	-0.395479
Zn4	Zn	1.754324	0.006847	0.104521
Zn5	Zn	1.115382	-0.362740	-0.388458
Zn6	Zn	1.615382	0.137260	0.111542
Zn7	Zn	1.108279	-0.492468	-0.527452
Zn8	Zn	1.608279	0.007532	-0.027452
O9	O	1.181344	-0.430907	-0.461482
O10	O	1.681344	0.069093	0.038518
O11	O	1.364676	-0.396431	-0.521994
O12	O	1.864676	0.103569	-0.021994
O13	O	1.241767	-0.470899	-0.278182
O14	O	1.741767	0.029101	0.221818
O15	O	1.132964	-0.260773	-0.407862
O16	O	1.632964	0.239227	0.092138
O17	O	1.369770	-0.483044	-0.419829
O18	O	1.869770	0.016956	0.080171
O19	O	1.229950	-0.269975	-0.515186
O20	O	1.729950	0.230025	-0.015186
O21	O	1.139687	-0.375085	-0.273023
O22	O	1.639687	0.124915	0.226977
O23	O	0.998074	-0.374420	-0.400992
O24	O	1.498074	0.125580	0.099008
O25	O	1.120859	-0.481875	-0.644758
O26	O	1.620859	0.018125	-0.144758
O27	O	0.992856	-0.469731	-0.503111
O28	O	1.492856	0.030269	-0.003111
O29	O	1.223063	-0.395767	-0.649964
O30	O	1.723063	0.104233	-0.149964
O31	O	1.234880	-0.596691	-0.412959
O32	O	1.734880	-0.096691	0.087041
O33	O	1.127582	-0.596187	-0.509919
O34	O	1.627582	-0.096187	-0.009919
C35	C	0.965292	-0.420643	-0.450522
C36	C	1.465292	0.079357	0.049478
C37	C	0.872863	-0.416271	-0.445852
C38	C	1.372863	0.083729	0.054148
C39	C	0.659896	-0.453580	-0.485702
C40	C	1.159896	0.046420	0.014298
C41	C	0.703640	-0.408295	-0.437327
C42	C	1.203640	0.091705	0.062673
C43	C	0.797805	-0.412734	-0.442072
C44	C	1.297805	0.087266	0.057928
C45	C	0.565723	-0.449142	-0.480958
C46	C	1.065723	0.050858	0.019042
C47	C	1.181234	-0.623311	-0.461452
C48	C	1.681234	-0.123311	0.038548
C49	C	1.181262	-0.705627	-0.461470
C50	C	1.681262	-0.205627	0.038530
C51	C	1.181442	-1.004728	-0.461524
C52	C	1.681442	-0.504728	0.038476
C53	C	1.114074	-0.973131	-0.522696
C54	C	1.614074	-0.473131	-0.022696
C55	C	1.113779	-0.887490	-0.522479
C56	C	1.613779	-0.387490	-0.022479
C57	C	1.181352	-0.856341	-0.461498
C58	C	1.681352	-0.356341	0.038502
C59	C	1.162070	-0.882614	-0.372659
C60	C	1.662070	-0.382614	0.127341
C61	C	1.161637	-0.968256	-0.373024
C62	C	1.661637	-0.468256	0.126976
C63	C	1.268271	-0.978206	-0.488428
C64	C	1.768271	-0.478206	0.011572
C65	C	1.267657	-0.892613	-0.490323
C66	C	1.767657	-0.392613	0.009677
C67	C	1.181303	-0.772478	-0.461478
C68	C	1.681303	-0.272478	0.038522
C69	C	1.181489	-1.088591	-0.461538
C70	C	1.681489	-0.588591	0.038462
C71	C	1.398239	-0.441211	-0.472485
C72	C	1.898239	0.058789	0.027515
C73	C	1.490667	-0.445602	-0.477174
C74	C	1.990667	0.054398	0.022826
C75	C	1.170395	-0.440142	-0.678377
C76	C	1.670395	0.059858	-0.178377
C77	C	1.165729	-0.444077	-0.770805
C78	C	1.665729	0.055923	-0.270805
C79	C	1.181476	-0.237753	-0.461531
C80	C	1.681476	0.262247	0.038469
C81	C	1.181532	-0.155442	-0.461552
C82	C	1.681532	0.344558	0.038448
C83	C	1.205674	-0.410365	-0.983788
C84	C	1.705674	0.089635	-0.483788
C85	C	1.157183	-0.451230	-0.940025
C86	C	1.657183	0.048770	-0.440025
C87	C	1.161940	-0.447249	-0.845862
C88	C	1.661940	0.052751	-0.345862
C89	C	1.200918	-0.414345	-1.077959
C90	C	1.700918	0.085655	-0.577959
C91	C	1.192298	-0.421656	-0.245433
C92	C	1.692298	0.078344	0.254567
C93	C	1.197125	-0.417520	-0.153013
C94	C	1.697125	0.082480	0.346987
H95	H	0.693163	-0.495681	-0.530677
H96	H	1.193163	0.004319	-0.030677
C97	C	1.096282	-0.502542	-0.984946
C98	C	1.596282	-0.002542	-0.484946
N99	N	1.050417	-0.541193	-1.018785
N100	N	1.550417	-0.041193	-0.518785
C101	C	1.266583	-0.359068	-0.938868
C102	C	1.766583	0.140932	-0.438868
N103	N	1.312462	-0.320434	-0.905024
N104	N	1.812462	0.179566	-0.405024
H105	H	0.670370	-0.366191	-0.392347
H106	H	1.170370	0.133809	0.107653
C107	C	1.293188	-1.012331	-0.574773
C108	C	1.793188	-0.512331	-0.074773
N109	N	1.311946	-1.038034	-0.639811
N110	N	1.811946	-0.538034	-0.139811
H111	H	1.125465	-0.997167	-0.588633
H112	H	1.625465	-0.497167	-0.088633
H113	H	1.320148	-0.871723	-0.449371
H114	H	1.820148	-0.371723	0.050629
C115	C	1.077440	-0.848536	-0.342158
C116	C	1.577440	-0.348536	0.157842
N117	N	1.013693	-0.822869	-0.319189
N118	N	1.513693	-0.322869	0.180811
C119	C	1.027524	-0.997280	-0.498421
C120	C	1.527524	-0.497280	0.001579
N121	N	0.962335	-1.015467	-0.480132
N122	N	1.462335	-0.515467	0.019868
C123	C	1.129378	-0.863742	-0.611284
C124	C	1.629378	-0.363742	-0.111284
N125	N	1.141124	-0.845858	-0.678177
N126	N	1.641124	-0.345858	-0.178177
H127	H	1.049329	-0.863337	-0.504308
H128	H	1.549329	-0.363337	-0.004308
H129	H	1.098298	-0.984435	-0.350751
H130	H	1.598298	-0.484435	0.149249
H131	H	1.208818	-0.988967	-0.325652
H132	H	1.708818	-0.488967	0.174348
H133	H	1.209790	-0.862278	-0.325644
H134	H	1.709790	-0.362278	0.174356
C135	C	1.287432	-0.869950	-0.578663
C136	C	1.787432	-0.369950	-0.078663
N137	N	1.302330	-0.852866	-0.645196
N138	N	1.802330	-0.352866	-0.145196
C139	C	1.336005	-1.005914	-0.428315
C140	C	1.836005	-0.505914	0.071685
N141	N	1.387017	-1.026789	-0.383036
N142	N	1.887017	-0.526789	0.116964
