data_functionalizedCrystal
_audit_creation_method	'MofGen! by Chris Wilmer'
_symmetry_space_group_name_H-M	'P1'
_symmetry_Int_Tables_number	1
_symmetry_cell_setting	triclinic
loop_
_symmetry_equiv_pos_as_xyz
  x,y,z
_cell_length_a	21.395362
_cell_length_b	18.101395
_cell_length_c	21.395355
_cell_angle_alpha	89.984273
_cell_angle_beta	89.956060
_cell_angle_gamma	90.046983
loop_
_atom_site_label
_atom_site_type_symbol
_atom_site_fract_x
_atom_site_fract_y
_atom_site_fract_z
Zn1	Zn	0.957858	-0.294602	-0.354598
Zn2	Zn	0.957760	-0.418425	-0.249825
Zn3	Zn	0.853073	-0.294636	-0.249799
Zn4	Zn	0.853041	-0.418440	-0.354530
O5	O	0.905433	-0.356526	-0.302188
O6	O	1.045523	-0.311006	-0.340739
O7	O	0.943845	-0.402012	-0.162144
O8	O	0.867027	-0.190998	-0.263718
O9	O	1.045450	-0.401979	-0.263763
O10	O	0.944012	-0.190973	-0.340713
O11	O	0.866932	-0.311065	-0.162125
O12	O	0.765391	-0.311080	-0.263652
O13	O	0.866973	-0.402005	-0.442217
O14	O	0.765367	-0.402038	-0.340598
O15	O	0.943982	-0.311021	-0.442267
O16	O	0.943814	-0.522060	-0.263697
O17	O	0.866878	-0.522071	-0.340623
C18	C	0.742645	-0.356565	-0.302115
C19	C	0.673004	-0.356599	-0.302099
C20	C	0.640295	-0.404024	-0.342105
C21	C	0.574860	-0.404006	-0.342133
C22	C	0.542136	-0.356571	-0.302144
C23	C	0.574852	-0.309137	-0.262135
C24	C	0.640286	-0.309151	-0.262113
C25	C	0.438411	-0.350605	-0.245738
C26	C	0.372978	-0.350596	-0.245760
C27	C	0.340315	-0.356523	-0.302213
C28	C	0.373093	-0.362474	-0.358647
C29	C	0.438527	-0.362488	-0.358624
C30	C	0.471183	-0.356550	-0.302164
C31	C	0.236654	-0.403930	-0.342252
C32	C	0.171217	-0.403907	-0.342281
C33	C	0.171211	-0.309042	-0.262278
C34	C	0.236646	-0.309061	-0.262255
C35	C	0.269364	-0.356509	-0.302241
C36	C	0.905349	-0.548936	-0.302170
C37	C	0.905370	-0.631250	-0.302183
C38	C	0.905508	-0.930341	-0.302216
C39	C	0.857214	-0.899054	-0.350736
C40	C	0.856985	-0.813436	-0.350585
C41	C	0.905440	-0.781959	-0.302200
C42	C	0.887557	-0.813100	-0.236161
C43	C	0.887246	-0.898745	-0.236451
C44	C	0.971790	-0.898667	-0.319154
C45	C	0.971400	-0.813017	-0.320602
C46	C	0.905402	-0.698099	-0.302187
C47	C	0.905544	-1.014201	-0.302225
C48	C	1.068856	-0.356487	-0.302261
C49	C	1.138497	-0.356470	-0.302293
C50	C	0.905485	-0.356511	-0.465611
C51	C	0.905507	-0.356504	-0.535253
C52	C	0.905534	-0.163364	-0.302220
C53	C	0.905577	-0.081050	-0.302234
C54	C	0.945603	-0.309127	-0.567993
C55	C	0.945603	-0.309095	-0.633428
C56	C	0.905512	-0.356454	-0.666121
C57	C	0.865408	-0.403834	-0.633373
C58	C	0.865405	-0.403859	-0.567939
C59	C	0.900536	-0.423137	-0.769788
C60	C	0.900542	-0.423113	-0.835221
C61	C	0.905516	-0.356375	-0.867942
C62	C	0.910495	-0.289660	-0.835222
C63	C	0.910493	-0.289685	-0.769788
C64	C	0.905510	-0.356431	-0.737073
C65	C	0.945613	-0.308960	-0.971635
C66	C	0.945608	-0.308927	-1.037071
C67	C	0.865416	-0.403672	-1.037015
C68	C	0.865418	-0.403699	-0.971580
C69	C	0.905520	-0.356344	-0.938893
C70	C	0.905417	-0.356487	-0.139400
C71	C	0.905516	-0.356285	-0.069760
H72	H	0.868173	-0.792380	-0.399551
N73	N	0.871148	-0.924792	-0.412371
N74	N	0.916829	-0.966501	-0.421258
H75	H	0.926684	-0.984665	-0.464792
N76	N	1.016922	-0.924043	-0.274817
N77	N	1.000428	-0.965275	-0.230917
H78	H	1.032297	-0.983200	-0.199601
N79	N	1.018937	-0.786136	-0.279511
N80	N	1.063503	-0.749185	-0.300815
H81	H	1.097075	-0.730201	-0.271789
N82	N	0.339502	-0.344499	-0.188117
N83	N	0.303027	-0.291573	-0.179438
H84	H	0.279386	-0.287264	-0.138726
N85	N	0.930299	-0.787521	-0.189576
N86	N	0.974523	-0.745954	-0.204564
H87	H	1.004711	-0.727888	-0.171665
H88	H	0.346500	-0.367299	-0.404617
N89	N	0.471762	-0.344537	-0.188064
N90	N	0.442492	-0.339226	-0.137683
H91	H	0.466045	-0.334936	-0.096951
N92	N	0.137802	-0.260588	-0.221421
N93	N	0.167018	-0.218251	-0.185699
H94	H	0.143421	-0.184028	-0.156843
H95	H	0.808383	-0.920654	-0.339656
N96	N	0.986570	-0.260753	-0.534615
N97	N	1.022369	-0.218455	-0.563861
H98	H	1.051303	-0.184291	-0.540288
H99	H	0.896491	-0.477437	-0.861856
N100	N	0.673717	-0.452476	-0.382957
N101	N	0.710296	-0.426500	-0.422910
H102	H	0.733902	-0.460719	-0.451763
H103	H	0.548223	-0.442625	-0.374712
N104	N	0.471989	-0.368545	-0.416278
N105	N	0.464754	-0.320920	-0.457960
H106	H	0.488382	-0.325192	-0.498682
H107	H	0.978253	-0.270511	-0.660090
N108	N	0.541419	-0.260683	-0.221296
N109	N	0.482996	-0.260676	-0.221321
H110	H	0.459383	-0.226451	-0.192479
H111	H	0.807855	-0.793026	-0.339363
N112	N	0.915564	-0.221487	-0.868644
N113	N	0.873019	-0.202082	-0.905120
H114	H	0.876598	-0.153937	-0.928727
N115	N	0.824457	-0.452100	-0.938142
N116	N	0.788662	-0.494379	-0.967337
H117	H	0.759729	-0.528564	-0.943723
N118	N	0.270069	-0.452399	-0.383098
N119	N	0.240853	-0.494737	-0.418819
H120	H	0.264450	-0.528970	-0.447667
H121	H	0.839618	-0.791728	-0.221559
H122	H	0.914546	-0.235363	-0.743150
H123	H	0.978263	-0.270396	-0.945020
H124	H	0.838794	-0.918801	-0.222106
N125	N	0.895448	-0.491318	-0.736377
N126	N	0.891008	-0.550878	-0.765595
H127	H	0.887414	-0.599030	-0.742000
H128	H	0.920895	-0.919443	-0.199066
N129	N	0.986568	-0.260519	-1.070507
N130	N	1.022366	-0.218244	-1.041312
H131	H	1.051295	-0.184054	-1.064926
H132	H	0.988093	-0.920221	-0.366491
H133	H	0.832767	-0.442225	-1.063633
N134	N	0.673700	-0.260720	-0.221234
N135	N	0.710142	-0.286718	-0.181255
H136	H	0.733742	-0.252514	-0.152382
H137	H	0.984886	-0.792661	-0.369204
H138	H	0.832763	-0.442392	-0.659996
H139	H	0.144587	-0.442524	-0.374862
N140	N	0.824438	-0.452249	-0.534493
N141	N	0.766626	-0.447342	-0.541756
H142	H	0.737692	-0.481518	-0.518134
N143	N	0.270052	-0.260614	-0.221384
N144	N	0.240829	-0.218262	-0.185684
H145	H	0.264421	-0.184042	-0.156817
