data_functionalizedCrystal
_audit_creation_method	'MofGen! by Chris Wilmer'
_symmetry_space_group_name_H-M	'P1'
_symmetry_Int_Tables_number	1
_symmetry_cell_setting	triclinic
loop_
_symmetry_equiv_pos_as_xyz
  x,y,z
_cell_length_a	10.654559
_cell_length_b	13.185407
_cell_length_c	9.130313
_cell_angle_alpha	89.999660
_cell_angle_beta	90.003271
_cell_angle_gamma	68.231084
loop_
_atom_site_label
_atom_site_type_symbol
_atom_site_fract_x
_atom_site_fract_y
_atom_site_fract_z
O1	O	1.614649	0.152816	0.121803
O2	O	1.244110	0.167361	0.121804
O3	O	1.492863	0.001822	0.121798
O4	O	1.365895	0.318355	0.121809
O5	O	1.492847	0.001831	-0.121801
O6	O	1.244093	0.167371	-0.121795
O7	O	1.614632	0.152826	-0.121796
Cu8	Cu	1.429361	0.160099	-0.144038
Cu9	Cu	1.429381	0.160087	0.144046
O10	O	1.365878	0.318365	-0.121790
C11	C	1.197676	0.166296	0.000005
C12	C	1.059347	0.163094	0.000005
C13	C	1.042776	0.062618	-0.000002
C14	C	0.912799	0.059617	0.000009
C15	C	0.815971	0.257576	0.000028
C16	C	0.945947	0.260576	0.000027
C17	C	1.098678	-0.051672	-0.000020
C18	C	0.968700	-0.054674	-0.000009
C19	C	1.505727	-0.038704	0.000001
C20	C	1.544066	-0.159474	0.000006
C21	C	1.178169	-0.451506	0.000020
C22	C	1.142143	-0.338037	0.000030
C23	C	1.242621	-0.293391	0.000023
C24	C	1.379130	-0.362225	0.000008
C25	C	1.415160	-0.475705	0.000010
C26	C	1.479611	-0.317589	0.000013
C27	C	1.616121	-0.386423	-0.000002
C28	C	1.652144	-0.499892	-0.000001
C29	C	1.551666	-0.544538	0.000005
C30	C	1.443582	-0.204109	0.000011
C31	C	1.680573	-0.228307	0.000001
C32	C	1.716598	-0.341776	-0.000009
C33	C	1.661066	0.153891	0.000007
C34	C	1.799394	0.157092	0.000016
C35	C	1.353015	0.358891	0.000011
C36	C	1.314676	0.479660	0.000015
N37	N	1.429357	0.160107	-0.346660
C38	C	1.483013	0.226689	-0.423324
C39	C	1.483039	0.226668	-0.576661
C40	C	1.375741	0.093482	-0.576657
C41	C	1.375725	0.093497	-0.423323
C42	C	1.544956	0.303587	-0.423328
C43	C	1.544981	0.303566	-0.576665
N44	N	1.429398	0.160071	0.346669
H45	H	1.156329	-0.086196	-0.105203
H46	H	1.653307	0.276865	-0.381697
H47	H	1.580991	-0.636933	-0.000019
O48	O	1.454828	0.412071	-0.360350
H49	H	1.458519	0.407608	-0.238945
H50	H	1.332050	0.039268	-0.360909
O51	O	1.799376	-0.574139	0.000000
H52	H	1.821443	-0.626421	-0.099279
O53	O	1.317894	0.021635	-0.659327
H54	H	1.232957	0.073217	-0.729203
H55	H	0.945747	-0.091080	0.105171
O56	O	1.863831	-0.416020	-0.000020
H57	H	1.871996	-0.502424	-0.000011
H58	H	1.651470	0.269379	-0.624199
H59	H	1.332435	-0.148075	0.000023
O60	O	1.464466	0.417170	-0.631842
H61	H	1.425015	0.472801	-0.537250
H62	H	0.954878	-0.099361	-0.101957
H63	H	0.959430	0.342393	0.000058
H64	H	1.030997	-0.282000	0.000047
H65	H	0.723626	0.336942	0.000046
O66	O	1.788960	-0.180170	0.000009
H67	H	1.852700	-0.207754	-0.099268
O68	O	1.203775	-0.171007	0.000005
H69	H	1.091973	-0.130642	-0.000003
H70	H	1.155422	-0.094747	0.101919
O71	O	1.069805	-0.499657	0.000016
H72	H	1.117795	-0.590125	0.000004
