data_functionalizedCrystal
_audit_creation_method	'MofGen! by Chris Wilmer'
_symmetry_space_group_name_H-M	'P1'
_symmetry_Int_Tables_number	1
_symmetry_cell_setting	triclinic
loop_
_symmetry_equiv_pos_as_xyz
  x,y,z
_cell_length_a	21.395364
_cell_length_b	12.594516
_cell_length_c	21.395356
_cell_angle_alpha	89.979423
_cell_angle_beta	89.976411
_cell_angle_gamma	90.031004
loop_
_atom_site_label
_atom_site_type_symbol
_atom_site_fract_x
_atom_site_fract_y
_atom_site_fract_z
Zn1	Zn	0.957917	-0.423344	-0.354292
Zn2	Zn	0.957848	-0.601337	-0.249528
Zn3	Zn	0.853134	-0.423420	-0.249529
Zn4	Zn	0.853128	-0.601328	-0.354268
O5	O	0.905507	-0.512357	-0.301904
O6	O	1.045586	-0.446928	-0.340405
O7	O	0.943931	-0.577771	-0.161850
O8	O	0.867065	-0.274464	-0.263437
O9	O	1.045535	-0.577699	-0.263435
O10	O	0.944049	-0.274409	-0.340406
O11	O	0.866998	-0.447056	-0.161851
O12	O	0.765455	-0.447047	-0.263413
O13	O	0.867055	-0.577682	-0.441949
O14	O	0.765451	-0.577755	-0.340365
O15	O	0.944043	-0.446919	-0.441967
O16	O	0.943925	-0.750282	-0.263411
O17	O	0.866988	-0.750275	-0.340363
C18	C	0.742719	-0.512409	-0.301887
C19	C	0.673078	-0.512457	-0.301894
C20	C	0.640413	-0.444476	-0.342034
C21	C	0.574978	-0.444448	-0.342037
C22	C	0.542210	-0.512419	-0.301906
C23	C	0.574882	-0.580405	-0.261758
C24	C	0.640316	-0.580424	-0.261752
C25	C	0.438500	-0.608274	-0.296875
C26	C	0.373067	-0.608257	-0.296885
C27	C	0.340389	-0.512361	-0.301920
C28	C	0.373152	-0.416478	-0.306957
C29	C	0.438586	-0.416497	-0.306951
C30	C	0.471257	-0.512406	-0.301907
C31	C	0.236772	-0.444343	-0.342065
C32	C	0.171335	-0.444313	-0.342063
C33	C	0.171240	-0.580280	-0.261787
C34	C	0.236676	-0.580300	-0.261785
C35	C	0.269438	-0.512334	-0.301928
C36	C	0.905466	-0.788898	-0.301898
C37	C	0.905505	-0.907204	-0.301917
C38	C	0.863655	-0.976492	-0.343741
C39	C	0.848387	-1.047354	-0.286569
C40	C	0.920831	-1.047140	-0.359098
C41	C	0.890207	-0.976508	-0.244714
C42	C	0.962678	-0.976288	-0.317282
C43	C	0.947431	-1.047118	-0.260070
C44	C	1.068930	-0.512306	-0.301922
C45	C	1.138571	-0.512284	-0.301930
C46	C	0.905556	-0.512291	-0.465328
C47	C	0.905577	-0.512263	-0.534969
C48	C	0.905565	-0.234736	-0.301924
C49	C	0.905590	-0.116431	-0.301933
C50	C	0.865529	-0.444192	-0.567673
C51	C	0.865527	-0.444172	-0.633108
C52	C	0.905584	-0.512213	-0.665837
C53	C	0.945635	-0.580297	-0.633126
C54	C	0.945632	-0.580322	-0.567692
C55	C	0.962037	-0.520556	-0.769524
C56	C	0.962042	-0.520523	-0.834957
C57	C	0.905594	-0.512141	-0.867658
C58	C	0.849141	-0.503769	-0.834918
C59	C	0.849137	-0.503794	-0.769484
C60	C	0.905592	-0.512193	-0.736790
C61	C	0.865540	-0.444044	-0.971315
C62	C	0.865537	-0.444032	-1.036751
C63	C	0.945651	-0.580151	-1.036768
C64	C	0.945649	-0.580169	-0.971332
C65	C	0.905594	-0.512110	-0.938610
C66	C	0.905494	-0.512346	-0.139117
C67	C	0.905594	-0.512074	-0.069476
H68	H	0.144741	-0.388949	-0.374748
H69	H	0.982859	-1.077934	-0.224667
N70	N	0.824613	-0.374549	-0.937888
N71	N	0.784676	-0.412022	-0.901358
H72	H	0.755769	-0.362940	-0.877752
N73	N	0.873918	-0.937767	-0.184038
N74	N	0.906902	-0.961117	-0.137832
H75	H	0.895396	-0.933753	-0.094980
N76	N	0.472053	-0.318566	-0.312102
N77	N	0.464798	-0.260945	-0.359120
H78	H	0.488435	-0.191779	-0.362757
H79	H	0.933759	-1.078166	-0.407450
N80	N	0.824616	-0.374670	-0.534250
N81	N	0.828793	-0.276451	-0.541567
H82	H	0.799897	-0.227351	-0.517962
N83	N	0.791482	-0.495244	-0.736031
N84	N	0.782723	-0.419235	-0.699518
H85	H	0.742004	-0.413198	-0.675891
N86	N	0.824611	-0.374631	-0.666514
N87	N	0.788851	-0.313875	-0.637290
H88	H	0.759955	-0.264760	-0.660880
H89	H	0.832920	-0.388604	-1.063378
H90	H	0.828200	-0.945479	-0.379060
N91	N	1.023263	-0.937092	-0.333616
N92	N	1.029856	-0.878972	-0.380529
H93	H	1.072644	-0.851289	-0.392073
H94	H	0.800077	-1.078593	-0.273587
N95	N	0.791482	-0.495195	-0.868322
N96	N	0.791490	-0.495176	-0.926744
H97	H	0.750770	-0.489117	-0.950339
H98	H	0.978268	-0.635549	-1.063415
N99	N	0.673875	-0.375025	-0.383023
N100	N	0.710400	-0.307154	-0.361041
H101	H	0.734033	-0.258099	-0.389988
H102	H	0.346547	-0.338390	-0.311057
N103	N	1.019701	-0.529063	-0.868405
N104	N	1.036139	-0.456761	-0.904928
H105	H	1.076862	-0.462792	-0.928550
H106	H	1.008007	-0.527372	-0.742905
N107	N	0.471888	-0.706225	-0.291729
N108	N	0.508375	-0.721042	-0.246958
H109	H	0.531957	-0.790215	-0.243324
N110	N	0.986563	-0.649709	-0.937932
N111	N	1.022324	-0.710459	-0.967159
H112	H	1.051220	-0.759578	-0.943571
H113	H	0.263448	-0.388994	-0.374747
H114	H	0.978250	-0.635696	-0.659778
N115	N	0.986556	-0.649853	-0.534294
N116	N	1.044371	-0.642770	-0.541630
H117	H	1.073277	-0.691876	-0.518044
N118	N	0.541606	-0.375032	-0.383060
N119	N	0.548942	-0.382261	-0.440865
H120	H	0.525372	-0.333246	-0.469842
N121	N	0.137778	-0.649694	-0.220781
N122	N	0.101266	-0.612138	-0.180892
H123	H	0.077631	-0.661160	-0.151927
N124	N	0.270045	-0.649737	-0.220779
N125	N	0.262712	-0.642543	-0.162972
H126	H	0.286279	-0.691582	-0.134006
N127	N	0.339616	-0.706204	-0.291733
N128	N	0.346880	-0.763812	-0.244711
H129	H	0.323258	-0.832992	-0.241072
N130	N	0.541403	-0.649822	-0.220764
N131	N	0.482980	-0.649797	-0.220774
H132	H	0.459335	-0.698821	-0.191819
H133	H	0.666911	-0.635784	-0.229064
