data_functionalizedCrystal
_audit_creation_method	'MofGen! by Chris Wilmer'
_symmetry_space_group_name_H-M	'P1'
_symmetry_Int_Tables_number	1
_symmetry_cell_setting	triclinic
loop_
_symmetry_equiv_pos_as_xyz
  x,y,z
_cell_length_a	17.077404
_cell_length_b	12.759399
_cell_length_c	17.077396
_cell_angle_alpha	90.026002
_cell_angle_beta	90.019501
_cell_angle_gamma	90.015341
loop_
_atom_site_label
_atom_site_type_symbol
_atom_site_fract_x
_atom_site_fract_y
_atom_site_fract_z
Zn1	Zn	1.200097	-0.418260	0.443856
Zn2	Zn	1.200022	-0.593961	0.312596
Zn3	Zn	1.068829	-0.418297	0.312604
Zn4	Zn	1.068815	-0.593898	0.443820
O5	O	1.134441	-0.506104	0.378219
O6	O	1.309934	-0.441578	0.426456
O7	O	1.182593	-0.570700	0.202750
O8	O	1.086279	-0.271271	0.330034
O9	O	1.309879	-0.570664	0.330020
O10	O	1.182721	-0.271244	0.426464
O11	O	1.086206	-0.441641	0.202756
O12	O	0.958980	-0.441580	0.329998
O13	O	1.086255	-0.570558	0.553671
O14	O	0.958970	-0.570594	0.426402
O15	O	1.182708	-0.441517	0.553698
O16	O	1.182580	-0.740973	0.329984
O17	O	1.086182	-0.740927	0.426394
C18	C	0.930493	-0.506085	0.378197
C19	C	0.843243	-0.506102	0.378207
C20	C	0.802268	-0.573381	0.428323
C21	C	0.720287	-0.573383	0.428336
C22	C	0.679284	-0.506111	0.378227
C23	C	0.720264	-0.438825	0.328108
C24	C	0.802243	-0.438818	0.328100
C25	C	0.549394	-0.438846	0.328127
C26	C	0.467410	-0.438854	0.328134
C27	C	0.467438	-0.573410	0.428363
C28	C	0.549417	-0.573404	0.428355
C29	C	0.590393	-0.506119	0.378235
C30	C	1.134392	-0.779071	0.378201
C31	C	1.134444	-0.895848	0.378220
C32	C	1.184695	-0.950699	0.328076
C33	C	1.184746	-1.060423	0.328103
C34	C	1.084286	-1.060435	0.428418
C35	C	1.084240	-0.950713	0.428395
C36	C	1.277400	-1.210298	0.300171
C37	C	1.327645	-1.265152	0.250016
C38	C	1.339725	-1.229604	0.173426
C39	C	1.301549	-1.139202	0.146975
C40	C	1.251299	-1.084353	0.197127
C41	C	1.239233	-1.119900	0.273728
C42	C	0.991585	-0.800836	0.456318
C43	C	0.941330	-0.745985	0.506466
C44	C	0.929242	-0.781532	0.583058
C45	C	0.967404	-0.871938	0.609505
C46	C	1.017658	-0.926789	0.559357
C47	C	1.029748	-0.891234	0.482766
C48	C	1.339185	-0.506124	0.378241
C49	C	1.426435	-0.506132	0.378251
C50	C	1.134488	-0.506026	0.582963
C51	C	1.134508	-0.505993	0.670213
C52	C	1.134510	-0.232071	0.378254
C53	C	1.134540	-0.115294	0.378269
C54	C	1.134438	-0.506105	0.174271
C55	C	1.134570	-0.505842	0.087022
C56	C	1.184733	-0.438796	0.711219
C57	C	1.184742	-0.438761	0.793199
C58	C	1.134531	-0.505930	0.834173
C59	C	1.084300	-0.573130	0.793161
C60	C	1.084288	-0.573159	0.711182
C61	C	1.084332	-0.573066	0.964032
C62	C	1.084346	-0.573039	1.046016
C63	C	1.184787	-0.438669	1.046048
C64	C	1.184774	-0.438698	0.964069
C65	C	1.134545	-0.505900	0.923064
H66	H	0.686872	-0.384046	0.287312
Cl67	Cl	0.952209	-0.916630	0.705795
H68	H	1.043414	-0.627815	0.826529
H69	H	1.048735	-1.000399	0.580899
Cl70	Cl	0.415863	-0.354287	0.265136
H71	H	1.043457	-0.627731	1.079375
Cl72	Cl	0.668779	-0.657966	0.491343
H73	H	0.582801	-0.628188	0.469153
Cl74	Cl	1.247810	-0.881729	0.265001
Cl75	Cl	0.600905	-0.354257	0.265118
H76	H	0.910261	-0.672368	0.484928
Cl77	Cl	1.021143	-0.657635	0.659632
Cl78	Cl	1.203305	-0.970716	0.163881
Cl79	Cl	0.415928	-0.657982	0.491382
H80	H	0.835647	-0.628165	0.469125
H81	H	0.835604	-0.384027	0.287294
Cl82	Cl	1.021175	-1.129416	0.491489
Cl83	Cl	0.866016	-0.712618	0.646082
Cl84	Cl	1.316730	-1.094525	0.050681
H85	H	1.043418	-0.627773	0.930647
H86	H	1.380636	-1.274273	0.132589
H87	H	1.358728	-1.338758	0.271559
Cl88	Cl	1.262228	-1.254985	0.396465
Cl89	Cl	1.006783	-0.756138	0.360028
H90	H	1.225624	-0.384103	0.677864
H91	H	1.225684	-0.383950	1.079439
Cl92	Cl	1.247920	-0.354328	0.844746
Cl93	Cl	1.247903	-0.354263	0.912561
