data_functionalizedCrystal
_audit_creation_method	'MofGen! by Chris Wilmer'
_symmetry_space_group_name_H-M	'P1'
_symmetry_Int_Tables_number	1
_symmetry_cell_setting	triclinic
loop_
_symmetry_equiv_pos_as_xyz
  x,y,z
_cell_length_a	13.897448
_cell_length_b	13.033304
_cell_length_c	13.032268
_cell_angle_alpha	90.922231
_cell_angle_beta	97.148041
_cell_angle_gamma	82.813841
loop_
_atom_site_label
_atom_site_type_symbol
_atom_site_fract_x
_atom_site_fract_y
_atom_site_fract_z
Zn1	Zn	-0.300132	-1.498457	-0.781522
Zn2	Zn	0.199868	-0.998457	-0.281522
Zn3	Zn	-0.438750	-1.520199	-0.609548
Zn4	Zn	0.061250	-1.020199	-0.109548
Zn5	Zn	-0.295035	-1.348318	-0.587693
Zn6	Zn	0.204965	-0.848318	-0.087693
Zn7	Zn	-0.478956	-1.326451	-0.759583
Zn8	Zn	0.021044	-0.826451	-0.259583
O9	O	-0.378218	-1.423356	-0.684587
O10	O	0.121782	-0.923356	-0.184587
O11	O	-0.303827	-1.645259	-0.777037
O12	O	0.196173	-1.145259	-0.277037
O13	O	-0.400726	-1.515650	-0.462741
O14	O	0.099274	-1.015650	0.037259
O15	O	-0.160728	-1.368286	-0.613440
O16	O	0.339272	-0.868286	-0.113440
O17	O	-0.405669	-1.661233	-0.650689
O18	O	0.094331	-1.161233	-0.150689
O19	O	-0.164473	-1.478592	-0.755845
O20	O	0.335527	-0.978592	-0.255845
O21	O	-0.295140	-1.389369	-0.446685
O22	O	0.204860	-0.889369	0.053315
O23	O	-0.334126	-1.201499	-0.592167
O24	O	0.165874	-0.701499	-0.092167
O25	O	-0.474194	-1.331017	-0.906401
O26	O	0.025806	-0.831017	-0.406401
O27	O	-0.469252	-1.185433	-0.718453
O28	O	0.030748	-0.685433	-0.218453
O29	O	-0.342813	-1.457389	-0.922519
O30	O	0.157187	-0.957389	-0.422519
O31	O	-0.579067	-1.494446	-0.629416
O32	O	-0.079067	-0.994446	-0.129416
O33	O	-0.608606	-1.352100	-0.739645
O34	O	-0.108606	-0.852100	-0.239645
C35	C	-0.405499	-1.156150	-0.650558
C36	C	0.094501	-0.656150	-0.150558
C37	C	-0.417197	-1.041834	-0.636025
C38	C	0.082803	-0.541834	-0.136025
C39	C	-0.372126	-0.982953	-0.692157
C40	C	0.127874	-0.482953	-0.192157
C41	C	-0.384215	-0.864802	-0.677138
C42	C	0.115785	-0.364802	-0.177138
C43	C	-0.628836	-1.423285	-0.684547
C44	C	-0.128836	-0.923285	-0.184547
C45	C	-0.736047	-1.423344	-0.684577
C46	C	-0.236047	-0.923344	-0.184577
C47	C	-0.932339	-1.423444	-0.684655
C48	C	-0.432339	-0.923444	-0.184655
C49	C	-0.823109	-1.423385	-0.684614
C50	C	-0.323109	-0.923385	-0.184614
C51	C	-0.126622	-1.423453	-0.684652
C52	C	0.373378	-0.923453	-0.184652
C53	C	-0.019406	-1.423494	-0.684680
C54	C	0.480594	-0.923494	-0.184680
C55	C	-0.413557	-1.389339	-0.952817
C56	C	0.086443	-0.889339	-0.452817
C57	C	-0.428617	-1.374842	-1.067121
C58	C	0.071383	-0.874842	-0.567121
C59	C	-0.350826	-0.691607	-0.718741
C60	C	0.149174	-0.191607	-0.218741
C61	C	-0.339138	-0.805922	-0.733278
C62	C	0.160862	-0.305922	-0.233278
C63	C	-0.370326	-1.430906	-1.126056
C64	C	0.129674	-0.930906	-0.626056
C65	C	-0.385889	-1.415925	-1.244195
C66	C	0.114111	-0.915925	-0.744195
C67	C	-0.342941	-1.457301	-0.417407
C68	C	0.157059	-0.957301	0.082593
C69	C	-0.327590	-1.471996	-0.303129
C70	C	0.172410	-0.971996	0.196871
H71	H	-0.464730	-1.004775	-0.576847
H72	H	0.035270	-0.504775	-0.076847
Br73	Br	-0.267914	-1.529365	-1.064386
Br74	Br	0.232086	-1.029365	-0.564386
H75	H	-0.291593	-0.842976	-0.792453
H76	H	0.208407	-0.342976	-0.292453
H77	H	-0.447314	-1.356825	-1.281195
H78	H	0.052686	-0.856825	-0.781195
H79	H	-0.266154	-1.531084	-1.266129
H80	H	0.233846	-1.031084	-0.766129
Br81	Br	-0.530996	-1.276344	-1.128786
Br82	Br	-0.030996	-0.776344	-0.628786
H83	H	-0.324586	-1.020013	-0.751329
H84	H	0.175414	-0.520013	-0.251329
H85	H	-0.431752	-0.827747	-0.617956
H86	H	0.068248	-0.327747	-0.117956
