data_functionalizedCrystal
_audit_creation_method	'MofGen! by Chris Wilmer'
_symmetry_space_group_name_H-M	'P1'
_symmetry_Int_Tables_number	1
_symmetry_cell_setting	triclinic
loop_
_symmetry_equiv_pos_as_xyz
  x,y,z
_cell_length_a	17.917603
_cell_length_b	21.606444
_cell_length_c	17.917567
_cell_angle_alpha	116.970438
_cell_angle_beta	89.758519
_cell_angle_gamma	57.014824
loop_
_atom_site_label
_atom_site_type_symbol
_atom_site_fract_x
_atom_site_fract_y
_atom_site_fract_z
Zr1	Zr	0.757819	0.615704	0.060929
O2	O	0.638397	0.744829	0.180371
O3	O	0.794427	0.486577	0.024296
O4	O	0.801536	0.603923	0.173228
O5	O	0.625680	0.636776	-0.086021
O6	O	0.930225	0.594633	0.167613
O7	O	0.631287	0.627482	0.031439
O8	O	0.917508	0.384721	-0.098799
O9	O	0.638398	0.846687	0.180390
O10	O	0.906081	0.532756	0.004503
O11	O	0.805857	0.546625	-0.078966
O12	O	0.814228	0.684786	0.096382
O13	O	0.714005	0.698654	0.012913
Zr14	Zr	0.954121	0.615709	-0.135362
Zr15	Zr	0.963063	0.600887	0.051974
Zr16	Zr	0.748877	0.630526	-0.126407
Zr17	Zr	0.757821	0.778156	0.060960
Zr18	Zr	0.954119	0.453256	-0.135393
O19	O	0.917513	0.744836	-0.098729
O20	O	0.930228	0.723761	0.167638
O21	O	0.625683	0.765904	-0.085996
O22	O	1.073544	0.486584	-0.254804
O23	O	1.086258	0.465509	0.011563
O24	O	0.781713	0.507651	-0.242071
O25	O	1.086260	0.594637	0.011588
O26	O	0.910404	0.627489	-0.247661
O27	O	0.781715	0.636780	-0.242046
O28	O	1.080653	0.603931	-0.105872
O29	O	0.801540	0.834910	0.173272
O30	O	0.910400	0.396503	-0.247705
O31	O	1.073542	0.384725	-0.254823
O32	O	1.080649	0.372944	-0.105917
O33	O	0.631291	0.858469	0.031484
O34	O	0.794433	0.846691	0.024366
O35	O	0.897712	0.546627	-0.170815
O36	O	0.997936	0.532758	-0.087346
O37	O	0.906083	0.684788	0.004533
O38	O	0.805860	0.698657	-0.078936
C39	C	0.855967	0.412503	-0.037256
C40	C	0.855966	0.343537	-0.037269
C41	C	0.788157	0.367269	0.030553
C42	C	0.788160	0.302478	0.030571
C43	C	0.855969	0.213957	-0.037237
C44	C	0.923785	0.190225	-0.105062
C45	C	0.923785	0.255015	-0.105076
C46	C	0.923787	-0.071066	-0.105007
C47	C	0.923780	-0.135855	-0.104990
C48	C	0.788162	-0.023602	0.030639
C49	C	0.788162	0.041188	0.030626
C50	C	0.855981	0.017450	-0.037197
C51	C	0.855977	0.087704	-0.037215
C52	C	0.855969	0.143704	-0.037223
C53	C	0.599241	0.634240	-0.026015
C54	C	0.512109	0.640530	-0.022213
C55	C	0.352597	0.652020	-0.015270
C56	C	0.359337	0.579397	-0.059160
C57	C	0.270579	0.585789	-0.055297
C58	C	0.441361	0.645629	-0.019132
C59	C	1.112699	0.597173	-0.048418
C60	C	1.199831	0.590883	-0.052220
C61	C	0.867155	0.597166	0.197112
C62	C	0.870951	0.590874	0.276640
C63	C	0.855973	0.818910	-0.037177
C64	C	0.855975	0.887875	-0.037164
C65	C	0.834024	0.652018	0.503293
C66	C	0.877900	0.579393	0.422268
C67	C	0.874032	0.585783	0.341234
C68	C	0.837891	0.645629	0.584335
C69	C	0.844782	0.634245	0.728455
C70	C	0.840976	0.640532	0.648923
C71	C	1.112696	0.393969	-0.048457
C72	C	1.199827	0.318714	-0.052272
C73	C	0.844782	0.431043	-0.271584
C74	C	0.840985	0.368370	-0.351126
C75	C	1.101511	0.412509	-0.282785
C76	C	1.184846	0.343546	-0.366129
C77	C	0.610429	0.818904	0.208352
C78	C	0.527094	0.887867	0.291696
C79	C	0.599244	0.837443	-0.025976
C80	C	0.512114	0.912699	-0.022161
C81	C	0.867158	0.800370	0.197151
C82	C	0.870955	0.863043	0.276693
C83	C	1.192797	0.283371	-0.006111
C84	C	1.274658	0.212669	-0.009678
C85	C	1.363548	0.177306	-0.059411
C86	C	1.370576	0.212655	-0.105573
C87	C	1.288716	0.283361	-0.102001
C88	C	0.887149	0.338940	-0.436432
C89	C	0.883577	0.280062	-0.511177
C90	C	0.833846	0.250610	-0.500615
C91	C	0.787677	0.280046	-0.415299
C92	C	0.791243	0.338928	-0.340556
C93	C	1.276305	0.303920	-0.361699
C94	C	1.354614	0.239130	-0.440002
C95	C	1.341463	0.213962	-0.522735
C96	C	1.249995	0.253595	-0.527163
C97	C	1.171687	0.318388	-0.448861
C98	C	0.435636	0.927500	0.287266
C99	C	0.357326	0.992311	0.365569
C100	C	0.370477	1.017482	0.448302
C101	C	0.461945	0.977845	0.452730
C102	C	0.540253	0.913040	0.374428
C103	C	0.519144	0.948048	-0.068314
C104	C	0.437283	1.018766	-0.064726
C105	C	0.348394	1.054131	-0.014991
C106	C	0.341366	1.018779	0.031168
C107	C	0.423225	0.948066	0.027585
C108	C	0.920694	0.892476	0.266102
C109	C	0.924280	0.951354	0.340832
C110	C	0.878121	0.980804	0.426153
C111	C	0.828381	0.951365	0.436742
C112	C	0.824801	0.892483	0.362012
H113	H	0.732943	0.321809	0.085798
O114	O	1.296301	0.321467	-0.151807
H115	H	1.371866	0.284985	-0.186995
O116	O	0.715028	0.001996	0.103804
H117	H	0.672672	-0.019443	0.074481
O118	O	0.933383	0.248313	-0.603190
H119	H	0.987053	0.175698	-0.641859
O120	O	1.453271	0.196380	-0.435237
H121	H	1.463342	0.163369	-0.399339
O122	O	0.286013	1.087378	0.532756
H123	H	0.287947	1.143302	0.572216
H124	H	1.239301	0.233093	-0.594535
O125	O	0.455275	0.490676	-0.112771
H126	H	0.464919	0.449904	-0.086710
H127	H	0.614721	0.880770	0.378045
H128	H	0.830950	0.202664	-0.561483
H129	H	0.417488	0.919287	0.065167
O130	O	1.425931	0.144063	-0.607185
H131	H	1.424016	0.172048	-0.646644
H132	H	0.747187	0.256057	-0.406712
O133	O	0.977932	0.983097	0.329395
H134	H	0.928852	1.055713	0.363479
H135	H	0.280172	0.718991	0.025204
H136	H	0.918363	0.512418	0.413759
H137	H	0.927645	0.362913	-0.445049
O138	O	0.715035	0.136664	0.103767
H139	H	0.667890	0.142281	0.150939
O140	O	0.476126	1.004994	0.541966
H141	H	0.442947	0.992208	0.579709
H142	H	0.958283	0.868507	0.196636
O143	O	1.451833	0.101046	-0.063255
H144	H	1.514831	0.082393	-0.105586
H145	H	0.591514	0.919260	-0.108820
O146	O	0.258677	1.035051	0.360784
H147	H	0.220494	1.022973	0.394382
H148	H	1.120426	0.312161	0.034397
H149	H	0.753654	0.362881	-0.271098
O150	O	0.996929	-0.096673	-0.178160
H151	H	0.961059	-0.064433	-0.213986
O152	O	1.073041	0.361108	-0.453643
H153	H	1.077062	0.332706	-0.524330
O154	O	0.421437	0.900358	0.198038
H155	H	0.454623	0.913127	0.160278
H156	H	0.979000	0.118144	-0.160269
H157	H	0.793559	0.718988	0.511800
O158	O	1.267068	0.174543	0.040105
H159	H	1.191503	0.211005	0.075271
H160	H	1.442961	0.183853	-0.146065
H161	H	1.287031	0.324401	-0.294341
H162	H	0.443024	1.047539	-0.102318
O163	O	0.260102	1.130379	-0.011158
H164	H	0.279933	1.148999	-0.051626
H165	H	0.268981	1.047584	0.071662
O166	O	0.881972	1.044325	0.506753
H167	H	0.924305	1.059849	0.485046
H168	H	0.790800	0.975352	0.506220
O169	O	0.996917	0.229425	-0.178229
H170	H	1.044064	0.156987	-0.225383
O171	O	0.771138	0.860751	0.373441
H172	H	0.739636	0.891134	0.445326
H173	H	0.979002	-0.207937	-0.160210
O174	O	0.715025	0.462745	0.103693
H175	H	0.667882	0.468358	0.150862
