data_functionalizedCrystal
_audit_creation_method	'MofGen! by Chris Wilmer'
_symmetry_space_group_name_H-M	'P1'
_symmetry_Int_Tables_number	1
_symmetry_cell_setting	triclinic
loop_
_symmetry_equiv_pos_as_xyz
  x,y,z
_cell_length_a	14.853566
_cell_length_b	15.712078
_cell_length_c	13.330367
_cell_angle_alpha	89.998477
_cell_angle_beta	89.995295
_cell_angle_gamma	101.607781
loop_
_atom_site_label
_atom_site_type_symbol
_atom_site_fract_x
_atom_site_fract_y
_atom_site_fract_z
O1	O	1.233446	0.112890	-0.083354
O2	O	1.733446	0.612890	0.416646
O3	O	0.975404	0.126340	-0.083370
O4	O	1.475404	0.626340	0.416630
O5	O	1.070096	-0.006254	-0.083359
O6	O	1.570096	0.493746	0.416641
O7	O	1.138753	0.245484	-0.083365
O8	O	1.638753	0.745484	0.416635
O9	O	1.070075	-0.006257	0.083488
O10	O	1.570075	0.493743	0.583488
O11	O	0.975383	0.126337	0.083477
O12	O	1.475383	0.626337	0.583477
O13	O	1.233425	0.112887	0.083494
O14	O	1.733425	0.612887	0.583494
Cu15	Cu	1.104402	0.119612	0.098720
Cu16	Cu	1.604402	0.619612	0.598720
Cu17	Cu	1.104427	0.119615	-0.098596
Cu18	Cu	1.604427	0.619615	0.401404
O19	O	1.138732	0.245481	0.083483
O20	O	1.638732	0.745481	0.583483
C21	C	0.941604	0.125729	0.000052
C22	C	1.441604	0.625729	0.500052
C23	C	0.840921	0.123903	0.000046
C24	C	1.340921	0.623903	0.500046
C25	C	0.415212	0.116183	-0.090885
C26	C	0.915212	0.616183	0.409115
C27	C	0.415210	0.116181	0.091018
C28	C	0.915210	0.616181	0.591018
C29	C	0.509807	0.117895	0.091015
C30	C	1.009807	0.617895	0.591015
C31	C	0.557111	0.118755	0.000061
C32	C	1.057111	0.618755	0.500061
C33	C	0.509818	0.117900	-0.090891
C34	C	1.009818	0.617900	0.409109
C35	C	0.557109	0.118758	0.181965
C36	C	1.057109	0.618758	0.681965
C37	C	0.651712	0.120474	0.181965
C38	C	1.151712	0.620474	0.681965
C39	C	0.699017	0.121327	0.091010
C40	C	1.199017	0.621327	0.591010
C41	C	0.651717	0.120472	0.000055
C42	C	1.151717	0.620472	0.500055
C43	C	0.699021	0.121332	-0.090900
C44	C	1.199021	0.621332	0.409100
C45	C	0.651723	0.120470	-0.181856
C46	C	1.151723	0.620470	0.318144
C47	C	0.557122	0.118754	-0.181847
C48	C	1.057122	0.618754	0.318153
C49	C	0.793617	0.123044	0.091000
C50	C	1.293617	0.623044	0.591000
C51	C	0.793628	0.123049	-0.090906
C52	C	1.293628	0.623049	0.409094
C53	C	1.058870	-0.038472	0.000063
C54	C	1.558870	0.461528	0.500063
C55	C	1.025438	-0.134467	0.000059
C56	C	1.525438	0.365533	0.500059
C57	C	1.309280	-0.501224	0.000067
C58	C	1.809280	-0.001224	0.500067
C59	C	1.277845	-0.591423	0.000065
C60	C	1.777845	-0.091423	0.500065
C61	C	1.120333	-0.570996	0.000055
C62	C	1.620333	-0.070996	0.500055
C63	C	1.151755	-0.480793	0.000061
C64	C	1.651755	0.019207	0.500061
C65	C	1.246229	-0.445914	0.000066
C66	C	1.746229	0.054086	0.500066
C67	C	1.088704	-0.425483	0.000061
C68	C	1.588704	0.074517	0.500061
C69	C	1.120124	-0.335288	0.000062
C70	C	1.620124	0.164712	0.500062
C71	C	1.214594	-0.300403	0.000064
C72	C	1.714594	0.199597	0.500064
C73	C	1.277649	-0.355719	0.000067
C74	C	1.777649	0.144281	0.500067
C75	C	0.994231	-0.460363	0.000049
C76	C	1.494231	0.039637	0.500049
C77	C	0.931180	-0.405054	0.000048
C78	C	1.431180	0.094946	0.500048
C79	C	0.962599	-0.314857	0.000056
C80	C	1.462599	0.185143	0.500056
C81	C	1.057069	-0.279972	0.000058
C82	C	1.557069	0.220028	0.500058
C83	C	0.899544	-0.259540	0.000053
C84	C	1.399544	0.240460	0.500053
C85	C	0.930964	-0.169345	0.000054
C86	C	1.430964	0.330655	0.500054
C87	C	1.088489	-0.189777	0.000059
C88	C	1.588489	0.310223	0.500059
C89	C	1.267224	0.113498	0.000070
C90	C	1.767224	0.613498	0.500070
C91	C	1.367908	0.115323	0.000070
C92	C	1.867908	0.615323	0.500070
C93	C	1.149959	0.277699	0.000058
C94	C	1.649959	0.777699	0.500058
C95	C	1.183390	0.373694	0.000056
C96	C	1.683390	0.873694	0.500056
N97	N	1.104391	0.119609	0.237501
N98	N	1.604391	0.619609	0.737501
N99	N	1.104443	0.119611	-0.237378
N100	N	1.604443	0.619611	0.262622
C101	C	1.062487	0.178305	0.710120
C102	C	1.562487	0.678305	1.210120
C103	C	1.146389	0.060919	0.710097
C104	C	1.646389	0.560919	1.210097
C105	C	1.146378	0.060916	0.605079
C106	C	1.646378	0.560916	1.105079
C107	C	1.104422	0.119610	0.552576
C108	C	1.604422	0.619610	1.052576
C109	C	1.062477	0.178305	0.605091
C110	C	1.562477	0.678305	1.105091
C111	C	1.188330	0.002227	0.552556
C112	C	1.688330	0.502227	1.052556
C113	C	1.188322	0.002223	0.447531
C114	C	1.688322	0.502223	0.947531
C115	C	1.146359	0.060913	0.395026
C116	C	1.646359	0.560913	0.895026
C117	C	1.104412	0.119610	0.447548
C118	C	1.604412	0.619610	0.947548
C119	C	1.062456	0.178304	0.395045
C120	C	1.562456	0.678304	0.895045
C121	C	1.020502	0.236998	0.447565
C122	C	1.520502	0.736998	0.947565
C123	C	1.020514	0.236995	0.552587
C124	C	1.520514	0.736995	1.052587
C125	C	1.146347	0.060915	0.290004
C126	C	1.646347	0.560915	0.790004
C127	C	1.062446	0.178305	0.290017
C128	C	1.562446	0.678305	0.790017
H129	H	0.832125	0.123754	0.165055
H130	H	1.332125	0.623754	0.665055
C131	C	0.505102	0.117833	-0.281889
C132	C	1.005102	0.617833	0.218111
H133	H	0.546821	0.118589	-0.336061
H134	H	1.046821	0.618589	0.163939
H135	H	0.477947	0.167556	-0.285652
H136	H	0.977947	0.667556	0.214348
H137	H	0.458451	0.066779	-0.285678
H138	H	0.958451	0.566779	0.214322
H139	H	0.690251	0.121176	-0.255911
H140	H	1.190251	0.621176	0.244089
H141	H	1.222482	-0.045569	0.404776
H142	H	1.722482	0.454431	0.904776
H143	H	1.240174	-0.226960	0.000065
H144	H	1.740174	0.273040	0.500065
H145	H	0.376691	0.115486	0.165069
H146	H	0.876691	0.615486	0.665069
C147	C	0.363190	0.115239	-0.190929
C148	C	0.863190	0.615239	0.309071
H149	H	0.300074	0.114098	-0.177904
H150	H	0.800074	0.614098	0.322096
H151	H	0.368960	0.065138	-0.228301
H152	H	0.868960	0.565138	0.271699
H153	H	0.388434	0.165915	-0.228297
H154	H	0.888434	0.665915	0.271703
C155	C	1.381569	-0.317343	0.000079
C156	C	1.881569	0.182657	0.500079
H157	H	1.391246	-0.255705	0.000086
H158	H	1.891246	0.244295	0.500086
H159	H	1.408795	-0.336318	-0.058099
H160	H	1.908795	0.163682	0.441901
H161	H	1.408770	-0.336321	0.058275
H162	H	1.908770	0.163679	0.558275
H163	H	0.518589	0.118064	0.256015
H164	H	1.018589	0.618064	0.756015
C165	C	0.861612	-0.108502	0.000055
C166	C	1.361612	0.391498	0.500055
H167	H	0.800847	-0.142192	0.000061
H168	H	1.300847	0.357808	0.500061
H169	H	0.870602	-0.072890	-0.058128
H170	H	1.370602	0.427110	0.441872
H171	H	0.870590	-0.072895	0.058246
H172	H	1.370590	0.427105	0.558246
H173	H	1.386210	-0.472824	0.000081
H174	H	1.886210	0.027176	0.500081
H175	H	1.028275	0.226097	0.247275
H176	H	1.528275	0.726097	0.747275
C177	C	0.974354	0.301558	0.389805
C178	C	1.474354	0.801558	0.889805
H179	H	0.980358	0.293146	0.319737
H180	H	1.480358	0.793146	0.819737
H181	H	1.003173	0.359287	0.407011
H182	H	1.503173	0.859287	0.907011
H183	H	0.911053	0.292053	0.407020
H184	H	1.411053	0.792053	0.907020
C185	C	0.703731	0.121414	0.282011
C186	C	1.203731	0.621414	0.782011
H187	H	0.662008	0.120650	0.336179
H188	H	1.162008	0.620650	0.836179
H189	H	0.750378	0.172465	0.285791
H190	H	1.250378	0.672465	0.785791
H191	H	0.730889	0.071688	0.285789
H192	H	1.230889	0.571688	0.785789
C193	C	0.974381	0.301558	0.610359
C194	C	1.474381	0.801558	1.110359
H195	H	0.980407	0.293158	0.680426
H196	H	1.480407	0.793158	1.180426
H197	H	0.911082	0.292067	0.593169
H198	H	1.411082	0.792067	1.093169
H199	H	1.003211	0.359289	0.593139
H200	H	1.503211	0.859289	1.093139
C201	C	1.347208	-0.652262	0.000068
C202	C	1.847208	-0.152262	0.500068
H203	H	1.407970	-0.618568	0.000077
H204	H	1.907970	-0.118568	0.500077
H205	H	1.338231	-0.687870	-0.058115
H206	H	1.838231	-0.187870	0.441885
H207	H	1.338220	-0.687873	0.058259
H208	H	1.838220	-0.187873	0.558259
H209	H	1.165419	-0.161377	0.000074
H210	H	1.665419	0.338623	0.500074
C211	C	1.016344	0.242866	0.767885
C212	C	1.516344	0.742866	1.267885
H213	H	1.022361	0.234465	0.837952
H214	H	1.522361	0.734465	1.337952
H215	H	0.953048	0.233371	0.750682
H216	H	1.453048	0.733371	1.250682
H217	H	1.045174	0.300597	0.750667
H218	H	1.545174	0.800597	1.250667
H219	H	1.043412	-0.599406	0.000047
H220	H	1.543412	-0.099406	0.500047
C221	C	0.959664	-0.559575	0.000048
C222	C	1.459664	-0.059575	0.500048
H223	H	0.894370	-0.572426	0.000032
H224	H	1.394370	-0.072426	0.500032
H225	H	0.981633	-0.583755	0.058235
H226	H	1.481633	-0.083755	0.558235
H227	H	0.981654	-0.583750	-0.058139
H228	H	1.481654	-0.083750	0.441861
C229	C	1.192537	-0.003637	0.767847
C230	C	1.692537	0.496363	1.267847
H231	H	1.186532	0.004766	0.837916
H232	H	1.686532	0.504766	1.337916
H233	H	1.255831	0.005855	0.750621
H234	H	1.755831	0.505855	1.250621
H235	H	1.163703	-0.061369	0.750645
H236	H	1.663703	0.438631	1.250645
C237	C	0.827265	-0.443425	0.000049
C238	C	1.327265	0.056575	0.500049
H239	H	0.817581	-0.505064	0.000055
H240	H	1.317581	-0.005064	0.500055
H241	H	0.800053	-0.424443	-0.058131
H242	H	1.300053	0.075557	0.441869
H243	H	0.800054	-0.424450	0.058243
H244	H	1.300054	0.075550	0.558243
C245	C	0.795630	-0.297914	0.000043
C246	C	1.295630	0.202086	0.500043
H247	H	0.785949	-0.359553	0.000045
H248	H	1.285949	0.140447	0.500045
H249	H	0.768424	-0.278930	-0.058139
H250	H	1.268424	0.221070	0.441861
H251	H	0.768411	-0.278943	0.058235
H252	H	1.268411	0.221057	0.558235
H253	H	1.222496	-0.045555	0.595307
H254	H	1.722496	0.454445	1.095307
H255	H	1.180510	0.013131	0.247247
H256	H	1.680510	0.513131	0.747247
H257	H	0.832135	0.123746	-0.164973
H258	H	1.332135	0.623746	0.335027
