data_functionalizedCrystal
_audit_creation_method	'MofGen! by Chris Wilmer'
_symmetry_space_group_name_H-M	'P1'
_symmetry_Int_Tables_number	1
_symmetry_cell_setting	triclinic
loop_
_symmetry_equiv_pos_as_xyz
  x,y,z
_cell_length_a	19.288840
_cell_length_b	11.792241
_cell_length_c	18.366186
_cell_angle_alpha	89.993644
_cell_angle_beta	89.983729
_cell_angle_gamma	83.659716
loop_
_atom_site_label
_atom_site_type_symbol
_atom_site_fract_x
_atom_site_fract_y
_atom_site_fract_z
O1	O	0.922167	0.141447	-0.060672
O2	O	0.720013	0.160576	-0.060646
O3	O	0.825996	-0.014235	-0.060655
O4	O	0.816184	0.316257	-0.060664
O5	O	0.825978	-0.014243	0.060445
O6	O	0.719995	0.160567	0.060453
O7	O	0.922149	0.141438	0.060428
Zn8	Zn	0.821069	0.151001	0.079667
Zn9	Zn	0.821093	0.151012	-0.079886
O10	O	0.816166	0.316248	0.060436
C11	C	0.694124	0.159961	-0.000094
C12	C	0.617009	0.158127	-0.000084
C13	C	0.580810	0.157251	-0.066097
C14	C	0.508353	0.155516	-0.066106
C15	C	0.472100	0.154634	-0.000098
C16	C	0.508307	0.155516	0.065924
C17	C	0.580761	0.157263	0.065931
C18	C	0.362371	0.085386	0.050465
C19	C	0.289918	0.083632	0.050456
C20	C	0.248625	0.149251	-0.000117
C21	C	0.279795	0.216610	-0.050691
C22	C	0.352250	0.218356	-0.050684
C23	C	0.393535	0.152740	-0.000098
C24	C	0.133861	0.146495	-0.066144
C25	C	0.061402	0.144767	-0.066150
C26	C	0.061358	0.144756	0.065882
C27	C	0.133814	0.146496	0.065886
C28	C	0.170062	0.147360	-0.000129
C29	C	0.825370	-0.056520	-0.000105
C30	C	0.823526	-0.182506	-0.000106
C31	C	0.820134	-0.413166	-0.000117
C32	C	0.822018	-0.284810	-0.000111
C33	C	0.948038	0.142053	-0.000127
C34	C	1.025153	0.143887	-0.000141
C35	C	0.816792	0.358534	-0.000115
C36	C	0.818636	0.484519	-0.000120
N37	N	0.821058	0.150993	0.188559
N38	N	0.821110	0.151012	-0.188777
C39	C	0.868003	0.073625	0.226655
C40	C	0.868007	0.073620	0.302883
C41	C	0.821073	0.151002	0.341011
C42	C	0.774120	0.228376	0.302905
C43	C	0.774112	0.228371	0.226679
C44	C	0.812362	0.254415	0.461770
C45	C	0.812375	0.254421	0.537994
C46	C	0.821093	0.151016	0.576119
C47	C	0.829813	0.047601	0.538009
C48	C	0.829806	0.047597	0.461783
C49	C	0.821076	0.151015	0.423666
C50	C	0.868045	0.073636	0.696871
C51	C	0.868045	0.073630	0.773100
C52	C	0.774161	0.228396	0.773120
C53	C	0.774158	0.228393	0.696893
C54	C	0.821104	0.151014	0.658772
H55	H	0.163288	0.147202	0.119641
H56	H	0.395987	0.031947	0.091651
H57	H	0.906227	0.010616	0.195620
H58	H	0.246175	0.270048	-0.091870
H59	H	0.031840	0.144045	0.119627
H60	H	0.906236	0.010615	0.333907
H61	H	0.377625	0.273205	-0.091862
C62	C	0.255638	0.009544	0.106085
H63	H	0.290604	-0.029269	0.136215
H64	H	0.231466	-0.044596	0.081048
H65	H	0.223701	0.056801	0.135327
C66	C	0.173734	0.147467	-0.138755
H67	H	0.141794	0.146716	-0.178073
H68	H	0.207055	0.081979	-0.141500
H69	H	0.196943	0.214327	-0.141493
C70	C	0.468424	0.154632	0.138531
H71	H	0.420087	0.153481	0.129073
H72	H	0.475250	0.221114	0.165618
H73	H	0.485324	0.088764	0.165692
C74	C	0.722533	0.313518	0.815049
H75	H	0.694571	0.359595	0.781439
H76	H	0.747695	0.360657	0.844771
H77	H	0.693468	0.272808	0.844798
H78	H	0.031930	0.144060	-0.119908
C79	C	0.722532	0.313517	0.654981
H80	H	0.729248	0.302430	0.604123
H81	H	0.730365	0.389229	0.667466
H82	H	0.676128	0.301395	0.667489
H83	H	0.610234	0.157978	0.119689
H84	H	0.836904	-0.036607	0.430756
H85	H	0.836912	-0.036600	0.569048
H86	H	0.805251	0.338624	0.430735
H87	H	0.906270	0.010626	0.665832
C88	C	0.919688	-0.011477	0.815007
H89	H	0.947649	-0.057550	0.781383
H90	H	0.894535	-0.058621	0.844757
H91	H	0.948753	0.029242	0.844726
H92	H	0.735904	0.291380	0.333953
H93	H	0.805279	0.338627	0.569018
C94	C	0.722479	0.313489	0.184767
H95	H	0.729197	0.302403	0.133910
H96	H	0.730307	0.389203	0.197253
H97	H	0.676076	0.301360	0.197275
C98	C	0.620680	0.158227	-0.138708
H99	H	0.669017	0.159390	-0.129252
H100	H	0.603755	0.224115	-0.165831
H101	H	0.613874	0.091766	-0.165834
C102	C	0.468526	0.154562	-0.138723
H103	H	0.500491	0.155326	-0.178037
H104	H	0.435208	0.220053	-0.141468
H105	H	0.445317	0.087705	-0.141467
