data_functionalizedCrystal
_audit_creation_method	'MofGen! by Chris Wilmer'
_symmetry_space_group_name_H-M	'P1'
_symmetry_Int_Tables_number	1
_symmetry_cell_setting	triclinic
loop_
_symmetry_equiv_pos_as_xyz
  x,y,z
_cell_length_a	13.635800
_cell_length_b	17.110515
_cell_length_c	13.610708
_cell_angle_alpha	69.066037
_cell_angle_beta	105.457367
_cell_angle_gamma	80.939177
loop_
_atom_site_label
_atom_site_type_symbol
_atom_site_fract_x
_atom_site_fract_y
_atom_site_fract_z
V1	V	2.035777	-0.185110	0.346007
O2	O	2.040461	-0.068959	0.339568
O3	O	2.000464	-0.292164	0.343498
O4	O	2.026327	-0.216423	0.496977
O5	O	2.014419	-0.145224	0.185027
V6	V	2.277120	-0.167180	0.326770
O7	O	2.167325	-0.224439	0.388205
O8	O	2.370671	-0.127851	0.284571
O9	O	2.200831	-0.060126	0.329278
O10	O	2.331135	-0.283331	0.333208
O11	O	2.357177	-0.207066	0.487750
O12	O	2.174968	-0.135866	0.175799
V13	V	2.535777	-0.185110	0.346007
O14	O	2.540461	-0.068959	0.339568
O15	O	2.500464	-0.292164	0.343498
O16	O	2.526327	-0.216423	0.496977
O17	O	2.514419	-0.145224	0.185027
V18	V	2.777120	-0.167180	0.326770
O19	O	2.667325	-0.224439	0.388205
O20	O	2.870671	-0.127851	0.284571
O21	O	2.700831	-0.060126	0.329278
O22	O	2.831135	-0.283331	0.333208
O23	O	2.857177	-0.207066	0.487750
O24	O	2.674968	-0.135866	0.175799
C25	C	1.919783	-0.317194	0.338003
C26	C	1.931652	-0.404933	0.336958
C27	C	1.994175	-0.900903	0.330781
C28	C	1.983032	-0.818465	0.331767
C29	C	2.068646	-0.782486	0.337787
C30	C	2.165412	-0.828954	0.342832
C31	C	2.176556	-0.911393	0.341854
C32	C	2.039562	-0.533839	0.341025
C33	C	2.028409	-0.451393	0.342000
C34	C	1.846030	-0.440910	0.330936
C35	C	1.857181	-0.523349	0.329952
C36	C	1.953948	-0.569811	0.335003
C37	C	2.057257	-0.698221	0.338792
C38	C	1.965337	-0.654078	0.334006
C39	C	1.952773	-0.220578	0.533779
C40	C	1.985614	-0.246889	0.657198
C41	C	2.020973	-0.017211	0.941787
C42	C	1.990070	0.007463	0.825836
C43	C	1.988954	-0.056122	0.783671
C44	C	2.018745	-0.144387	0.857468
C45	C	2.049659	-0.169064	0.973430
C46	C	2.017640	-0.207975	0.815314
C47	C	2.047432	-0.296240	0.889111
C48	C	2.078341	-0.320912	1.005062
C49	C	2.079457	-0.257326	1.047227
C50	C	1.986726	-0.183298	0.699351
C51	C	2.015413	-0.335151	0.730995
C52	C	2.046316	-0.359825	0.846945
C53	C	2.113181	-0.035099	0.334770
C54	C	2.090933	0.052637	0.335823
C55	C	2.419783	-0.317194	0.338003
C56	C	2.431652	-0.404933	0.336958
C57	C	2.528421	-0.451382	0.342009
C58	C	2.539592	-0.533827	0.341044
C59	C	2.453990	-0.569820	0.335020
C60	C	2.357214	-0.523366	0.329972
C61	C	2.346047	-0.440924	0.330945
C62	C	2.083659	-0.131732	1.138994
C63	C	2.050771	-0.105473	1.015584
C64	C	2.452773	-0.220578	0.533779
C65	C	2.485614	-0.246889	0.657198
C66	C	2.613181	-0.035099	0.334770
C67	C	2.590933	0.052637	0.335823
C68	C	2.580191	-0.131713	0.138991
C69	C	2.536970	-0.105398	0.015572
C70	C	2.592250	-0.264425	0.720810
C71	C	2.623120	-0.289136	0.836773
C72	C	2.547354	-0.296316	0.889123
C73	C	2.440708	-0.278775	0.825501
C74	C	2.409839	-0.254058	0.709539
C75	C	2.666658	0.099085	0.330775
C76	C	2.645759	0.181529	0.331745
C77	C	2.549138	0.217521	0.337771
C78	C	2.473407	0.171068	0.342816
C79	C	2.494303	0.088628	0.341838
C80	C	2.430509	-0.098216	-0.036749
C81	C	2.389881	-0.073480	-0.152716
C82	C	2.455717	-0.055934	-0.216358
C83	C	2.562187	-0.063115	-0.164030
C84	C	2.602811	-0.087844	-0.048067
H85	H	1.924458	-0.930191	0.325882
Br86	Br	2.245389	-0.063745	-0.223707
H87	H	2.104616	-0.277411	1.141642
Br88	Br	2.173442	-0.649386	0.346960
Br89	Br	2.670936	-0.596853	0.347892
H90	H	2.463097	-0.636950	0.334229
H91	H	2.287521	-0.552684	0.325068
H92	H	2.653957	-0.258586	0.678203
Br93	Br	2.214703	-0.377893	0.324082
Br94	Br	2.342279	0.219930	0.350984
H95	H	2.572504	-0.316443	0.983547
H96	H	1.962472	-0.111433	0.639276
Br97	Br	2.767855	-0.312942	0.923092
Br98	Br	2.651525	-0.039307	-0.250416
H99	H	2.379027	-0.284625	0.868143
H100	H	2.255346	-0.949221	0.345961
Br101	Br	2.265112	-0.230270	0.623224
H102	H	2.102611	-0.392783	1.065146
H103	H	1.963790	-0.036027	0.689257
H104	H	2.021893	0.034551	0.976131
H105	H	2.598132	-0.422086	0.346907
Br106	Br	2.747304	-0.097599	0.022928
Br107	Br	1.851714	-0.755415	0.324927
H108	H	1.965818	0.079328	0.765759
Br109	Br	2.144615	-0.402574	0.350196
H110	H	2.432637	0.050813	0.345958
Br111	Br	2.086769	-0.479610	0.947111
Br112	Br	2.013911	-0.421453	0.673781
Br113	Br	2.341137	-0.122025	0.049597
H114	H	2.532137	0.284649	0.338566
Br115	Br	1.740975	-0.572159	0.321745
Br116	Br	2.748551	0.244554	0.324897
Br117	Br	2.797796	0.050257	0.322598
H118	H	1.767247	-0.403072	0.326826
H119	H	2.118353	-0.571658	0.345136
Br120	Br	2.400567	-0.022375	-0.373738
H121	H	2.235121	-0.799656	0.347741
H122	H	1.895633	-0.683377	0.329111
