data_functionalizedCrystal
_audit_creation_method	'MofGen! by Chris Wilmer'
_symmetry_space_group_name_H-M	'P1'
_symmetry_Int_Tables_number	1
_symmetry_cell_setting	triclinic
loop_
_symmetry_equiv_pos_as_xyz
  x,y,z
_cell_length_a	15.944551
_cell_length_b	15.944551
_cell_length_c	14.421503
_cell_angle_alpha	89.999391
_cell_angle_beta	89.988429
_cell_angle_gamma	83.498738
loop_
_atom_site_label
_atom_site_type_symbol
_atom_site_fract_x
_atom_site_fract_y
_atom_site_fract_z
O1	O	1.114511	0.108326	0.077017
O2	O	1.614511	0.608326	0.577017
O3	O	0.869961	0.121682	0.077040
O4	O	1.369961	0.621682	0.577040
O5	O	0.998914	-0.007271	0.077020
O6	O	1.498914	0.492729	0.577020
O7	O	0.985558	0.237279	0.077038
O8	O	1.485558	0.737279	0.577038
O9	O	0.998930	-0.007262	-0.077204
O10	O	1.498930	0.492738	0.422796
O11	O	0.869977	0.121690	-0.077183
O12	O	1.369977	0.621690	0.422817
O13	O	1.114526	0.108334	-0.077206
O14	O	1.614526	0.608334	0.422794
Cu15	Cu	0.992253	0.115013	-0.091277
Cu16	Cu	1.492253	0.615013	0.408723
Cu17	Cu	0.992235	0.115003	0.091110
Cu18	Cu	1.492235	0.615003	0.591110
O19	O	0.985574	0.237287	-0.077186
O20	O	1.485574	0.737287	0.422814
C21	C	0.838675	0.121132	-0.000069
C22	C	1.338675	0.621132	0.499931
C23	C	0.745429	0.119470	-0.000060
C24	C	1.245429	0.619470	0.499940
C25	C	0.998367	-0.038561	-0.000092
C26	C	1.498367	0.461439	0.499908
C27	C	0.996705	-0.131807	-0.000093
C28	C	1.496705	0.368193	0.499907
C29	C	0.530572	0.035565	-0.000084
C30	C	1.030572	0.535565	0.499916
C31	C	0.469544	0.074523	0.075959
C32	C	0.969544	0.574523	0.575959
C33	C	0.574703	0.116462	-0.000071
C34	C	1.074703	0.616462	0.499929
C35	C	0.469582	0.074551	-0.076093
C36	C	0.969582	0.574551	0.423907
C37	C	0.409790	0.113551	-0.000086
C38	C	0.909790	0.613551	0.499914
C39	C	0.514903	0.155443	0.076035
C40	C	1.014903	0.655443	0.576035
C41	C	0.514947	0.155459	-0.076086
C42	C	1.014947	0.655459	0.423914
C43	C	0.453937	0.194476	-0.000024
C44	C	0.953937	0.694476	0.499976
C45	C	0.669705	0.118137	-0.000062
C46	C	1.169705	0.618137	0.499938
C47	C	0.314789	0.111883	-0.000089
C48	C	0.814789	0.611883	0.499911
C49	C	0.912801	-0.346663	-0.000072
C50	C	1.412801	0.153337	0.499928
C51	C	0.951771	-0.407676	-0.076117
C52	C	1.451771	0.092324	0.423883
C53	C	0.993698	-0.302533	-0.000085
C54	C	1.493698	0.197467	0.499915
C55	C	0.951775	-0.407668	0.075935
C56	C	1.451775	0.092332	0.575935
C57	C	0.990787	-0.467445	-0.000074
C58	C	1.490787	0.032555	0.499926
C59	C	1.032690	-0.362317	-0.076193
C60	C	1.532690	0.137683	0.423807
C61	C	1.032682	-0.362303	0.075927
C62	C	1.532682	0.137697	0.575927
C63	C	1.071711	-0.423298	-0.000136
C64	C	1.571711	0.076702	0.499864
C65	C	0.995372	-0.207530	-0.000092
C66	C	1.495372	0.292470	0.499908
C67	C	0.989119	-0.562446	-0.000073
C68	C	1.489119	-0.062446	0.499927
C69	C	1.145813	0.108885	-0.000096
C70	C	1.645813	0.608885	0.499904
C71	C	1.239059	0.110547	-0.000098
C72	C	1.739059	0.610547	0.499902
C73	C	0.986120	0.268577	-0.000072
C74	C	1.486120	0.768577	0.499928
C75	C	0.987782	0.361823	-0.000066
C76	C	1.487782	0.861823	0.499934
N77	N	0.992272	0.115020	-0.219558
N78	N	1.492272	0.615020	0.280442
C79	C	1.051913	0.055379	-0.469196
C80	C	1.551913	0.555379	0.030804
C81	C	0.976013	0.039061	-0.530987
C82	C	1.476013	0.539061	-0.030987
C83	C	0.992253	0.115009	-0.408719
C84	C	1.492253	0.615009	0.091281
C85	C	1.068135	0.131278	-0.531022
C86	C	1.568135	0.631278	-0.031022
C87	C	0.992242	0.114998	-0.591441
C88	C	1.492242	0.614998	-0.091441
C89	C	0.916316	0.098655	-0.469149
C90	C	1.416316	0.598655	0.030851
C91	C	1.008487	0.190904	-0.469179
C92	C	1.508487	0.690904	0.030821
C93	C	0.932533	0.174619	-0.530942
C94	C	1.432533	0.674619	-0.030942
C95	C	0.992261	0.115014	-0.303458
C96	C	1.492261	0.615014	0.196542
C97	C	0.992226	0.114994	-0.696700
C98	C	1.492226	0.614994	-0.196700
N99	N	0.992222	0.114990	0.219392
N100	N	1.492222	0.614990	0.719392
H101	H	0.563905	-0.031573	0.000005
H102	H	1.063905	0.468427	0.500005
Cl103	Cl	0.817209	0.077286	-0.427372
Cl104	Cl	1.317209	0.577286	0.072628
H105	H	0.917541	-0.427749	0.140230
H106	H	1.417541	0.072251	0.640230
Cl107	Cl	0.438582	0.021709	-0.175348
Cl108	Cl	0.938582	0.521709	0.324652
Cl109	Cl	1.085455	-0.331224	0.175182
Cl110	Cl	1.585455	0.168776	0.675182
Cl111	Cl	0.809130	-0.295238	-0.000173
Cl112	Cl	1.309130	0.204762	0.499827
Cl113	Cl	0.898956	-0.438718	-0.175367
Cl114	Cl	1.398956	0.061282	0.324633
H115	H	0.534885	0.189630	0.140394
H116	H	1.034885	0.689630	0.640394
H117	H	0.882021	0.225045	-0.557882
H118	H	1.382021	0.725045	-0.057882
H119	H	1.066884	-0.342324	-0.140554
H120	H	1.566884	0.157676	0.359446
Cl121	Cl	1.129725	-0.022517	-0.427333
Cl122	Cl	1.629725	0.477483	0.072667
Cl123	Cl	1.175472	-0.474497	-0.000209
Cl124	Cl	1.675472	0.025503	0.499791
Cl125	Cl	0.954789	-0.060038	-0.572897
Cl126	Cl	1.454789	0.439962	-0.072897
H127	H	1.022253	0.255071	-0.442009
H128	H	1.522253	0.755071	0.057991
Cl129	Cl	0.438486	0.021694	0.175211
Cl130	Cl	0.938486	0.521694	0.675211
H131	H	1.132312	0.145043	-0.558200
H132	H	1.632312	0.645043	-0.058200
Cl133	Cl	0.546043	0.208248	-0.175341
Cl134	Cl	1.046043	0.708248	0.324659
Cl135	Cl	0.402738	0.298236	0.000046
Cl136	Cl	0.902738	0.798236	0.500046
