data_functionalizedCrystal
_audit_creation_method	'MofGen! by Chris Wilmer'
_symmetry_space_group_name_H-M	'P1'
_symmetry_Int_Tables_number	1
_symmetry_cell_setting	triclinic
loop_
_symmetry_equiv_pos_as_xyz
  x,y,z
_cell_length_a	15.995350
_cell_length_b	10.723023
_cell_length_c	9.198806
_cell_angle_alpha	89.997827
_cell_angle_beta	89.999704
_cell_angle_gamma	83.979961
loop_
_atom_site_label
_atom_site_type_symbol
_atom_site_fract_x
_atom_site_fract_y
_atom_site_fract_z
O1	O	1.111909	0.160839	-0.120766
O2	O	1.611909	0.660839	0.379234
O3	O	0.868247	0.180701	-0.120796
O4	O	1.368247	0.680701	0.379204
O5	O	0.995699	-0.010878	-0.120774
O6	O	1.495699	0.489122	0.379226
O7	O	0.984457	0.352418	-0.120787
O8	O	1.484457	0.852418	0.379213
O9	O	0.995689	-0.010878	0.121011
O10	O	1.495689	0.489122	0.621011
O11	O	0.868237	0.180701	0.120990
O12	O	1.368237	0.680701	0.620990
O13	O	1.111898	0.160839	0.121019
O14	O	1.611898	0.660839	0.621019
Cu15	Cu	0.990067	0.170770	0.143081
Cu16	Cu	1.490067	0.670770	0.643081
Cu17	Cu	0.990079	0.170770	-0.142858
Cu18	Cu	1.490079	0.670770	0.357142
O19	O	0.984447	0.352418	0.120998
O20	O	1.484447	0.852418	0.620998
C21	C	0.837043	0.179880	0.000093
C22	C	1.337043	0.679880	0.500093
C23	C	0.744078	0.177418	0.000082
C24	C	1.244078	0.677418	0.500082
C25	C	0.994876	-0.057367	0.000117
C26	C	1.494876	0.442633	0.500117
C27	C	0.992429	-0.195890	0.000112
C28	C	1.492429	0.304110	0.500112
C29	C	0.988803	-0.400818	0.125353
C30	C	1.488803	0.099182	0.625353
C31	C	0.991332	-0.257647	0.125361
C32	C	1.491332	0.242353	0.625361
C33	C	0.406280	0.168577	0.000113
C34	C	0.906280	0.668577	0.500113
C35	C	0.452931	0.032138	0.000657
C36	C	0.952931	0.532138	0.500657
C37	C	0.549635	0.034601	0.000102
C38	C	1.049635	0.534601	0.500102
C39	C	0.573866	0.172962	0.000098
C40	C	1.073866	0.672962	0.500098
C41	C	0.533171	0.240259	-0.137970
C42	C	1.033171	0.740259	0.362030
C43	C	0.436515	0.236832	-0.138075
C44	C	0.936515	0.736832	0.361925
C45	C	0.436181	0.239650	0.136880
C46	C	0.936181	0.739650	0.636880
C47	C	0.533126	0.239618	0.138694
C48	C	1.033126	0.739618	0.638694
C49	C	0.668578	0.175448	0.000085
C50	C	1.168578	0.675448	0.500085
C51	C	0.311568	0.166096	0.000116
C52	C	0.811568	0.666096	0.500116
C53	C	1.143103	0.161660	0.000127
C54	C	1.643103	0.661660	0.500127
C55	C	1.236068	0.164122	0.000129
C56	C	1.736068	0.664122	0.500129
C57	C	0.985270	0.398907	0.000104
C58	C	1.485270	0.898907	0.500104
C59	C	0.987717	0.537430	0.000099
C60	C	1.487717	1.037430	0.500099
N61	N	0.990065	0.170769	0.344195
N62	N	1.490065	0.670769	0.844195
N63	N	0.990088	0.170761	-0.343972
N64	N	1.490088	0.670761	0.156028
C65	C	1.043578	0.089978	0.416401
C66	C	1.543578	0.589978	0.916401
C67	C	1.043591	0.089974	0.583813
C68	C	1.543591	0.589974	1.083813
H69	H	0.987856	-0.453943	0.232581
H70	H	1.487856	0.046057	0.732581
H71	H	0.944274	0.239937	0.593944
H72	H	1.444274	0.739937	1.093944
H73	H	0.992270	-0.204543	0.232595
H74	H	1.492270	0.295457	0.732595
F75	F	0.395114	0.367759	-0.146269
F76	F	0.895114	0.867759	0.353731
H77	H	1.089409	0.020810	0.645907
H78	H	1.589409	0.520810	1.145907
F79	F	0.991214	-0.265291	-0.140063
F80	F	1.491214	0.234709	0.359937
F81	F	0.586394	-0.034544	0.129465
F82	F	1.086394	0.465456	0.629465
H83	H	0.549070	0.340516	0.147031
H84	H	1.049070	0.840516	0.647031
F85	F	0.988944	-0.393136	-0.140062
F86	F	1.488944	0.106864	0.359938
H87	H	0.433029	-0.022148	-0.097807
H88	H	0.933029	0.477852	0.402193
F89	F	0.428302	-0.039147	0.130077
F90	F	0.928302	0.460853	0.630077
F91	F	0.585633	-0.034726	-0.129689
F92	F	1.085633	0.465274	0.370311
F93	F	0.569910	0.179167	-0.272275
F94	F	1.069910	0.679167	0.227725
F95	F	0.412220	0.172686	-0.272972
F96	F	0.912220	0.672686	0.227028
H97	H	0.547880	0.341910	-0.143106
H98	H	1.047880	0.841910	0.356894
H99	H	0.415385	0.195045	0.241532
H100	H	0.915385	0.695045	0.741532
H101	H	0.560157	0.190492	0.240837
H102	H	1.060157	0.690492	0.740837
H103	H	0.404997	0.340245	0.137811
H104	H	0.904997	0.840245	0.637811
H105	H	1.089380	0.020809	0.354283
H106	H	1.589380	0.520809	0.854283
H107	H	0.944256	0.239928	0.406316
H108	H	1.444256	0.739928	0.906316
