data_functionalizedCrystal
_audit_creation_method	'MofGen! by Chris Wilmer'
_symmetry_space_group_name_H-M	'P1'
_symmetry_Int_Tables_number	1
_symmetry_cell_setting	triclinic
loop_
_symmetry_equiv_pos_as_xyz
  x,y,z
_cell_length_a	13.897449
_cell_length_b	12.594516
_cell_length_c	13.897441
_cell_angle_alpha	89.972920
_cell_angle_beta	89.978743
_cell_angle_gamma	90.012642
loop_
_atom_site_label
_atom_site_type_symbol
_atom_site_fract_x
_atom_site_fract_y
_atom_site_fract_z
Zn1	Zn	1.474722	-0.423695	-0.545467
Zn2	Zn	1.474638	-0.601703	-0.384175
Zn3	Zn	1.313417	-0.423741	-0.384178
Zn4	Zn	1.313409	-0.601634	-0.545420
O5	O	1.394046	-0.512693	-0.464810
O6	O	1.609692	-0.447317	-0.524090
O7	O	1.453220	-0.578144	-0.249194
O8	O	1.334852	-0.274789	-0.405593
O9	O	1.609631	-0.578099	-0.405589
O10	O	1.453362	-0.274755	-0.524092
O11	O	1.334772	-0.447396	-0.249196
O12	O	1.178434	-0.447330	-0.405548
O13	O	1.334839	-0.577982	-0.680408
O14	O	1.178428	-0.578027	-0.524013
O15	O	1.453355	-0.447251	-0.680442
O16	O	1.453213	-0.750639	-0.405544
O17	O	1.334758	-0.750589	-0.524011
C18	C	1.143432	-0.512677	-0.464776
C19	C	1.036218	-0.512695	-0.464785
C20	C	1.394002	-0.789234	-0.464793
C21	C	1.394071	-0.907540	-0.464818
C22	C	0.949148	-0.512699	-0.464801
C23	C	0.839916	-0.512706	-0.464830
C24	C	1.458573	-0.976781	-0.400453
C25	C	1.482143	-1.047479	-0.488495
C26	C	1.370621	-1.047641	-0.376833
C27	C	1.417686	-0.976679	-0.552906
C28	C	1.306123	-0.976835	-0.441184
C29	C	1.329660	-1.047500	-0.529287
C30	C	1.645639	-0.512710	-0.464844
C31	C	1.752853	-0.512718	-0.464859
C32	C	1.394105	-0.512604	-0.716403
C33	C	1.394131	-0.512566	-0.823617
C34	C	1.394118	-0.235072	-0.464848
C35	C	1.394148	-0.116767	-0.464864
C36	C	1.394150	-0.512536	-0.910687
C37	C	1.394178	-0.512488	-1.019920
C38	C	1.394043	-0.512705	-0.214196
C39	C	1.394205	-0.512444	-0.106982
H40	H	1.513129	-0.945729	-0.346071
H41	H	1.350756	-1.078810	-0.302405
F42	F	1.208890	-0.936246	-0.414992
H43	H	1.556551	-1.078513	-0.508511
H44	H	1.437478	-0.945641	-0.627398
H45	H	1.275146	-1.078356	-0.583801
