data_functionalizedCrystal
_audit_creation_method	'MofGen! by Chris Wilmer'
_symmetry_space_group_name_H-M	'P1'
_symmetry_Int_Tables_number	1
_symmetry_cell_setting	triclinic
loop_
_symmetry_equiv_pos_as_xyz
  x,y,z
_cell_length_a	14.908520
_cell_length_b	21.395364
_cell_length_c	21.395355
_cell_angle_alpha	90.025600
_cell_angle_beta	93.280325
_cell_angle_gamma	86.681715
loop_
_atom_site_label
_atom_site_type_symbol
_atom_site_fract_x
_atom_site_fract_y
_atom_site_fract_z
Zn1	Zn	-0.359327	-0.943495	-0.368680
Zn2	Zn	-0.510169	-0.937368	-0.269948
Zn3	Zn	-0.359321	-0.838711	-0.263915
Zn4	Zn	-0.510140	-0.832651	-0.374686
O5	O	-0.434739	-0.888056	-0.319307
O6	O	-0.379352	-1.030360	-0.355595
O7	O	-0.490169	-0.924253	-0.181471
O8	O	-0.233076	-0.857711	-0.272774
O9	O	-0.490175	-1.025858	-0.283057
O10	O	-0.233080	-0.934696	-0.349745
O11	O	-0.379341	-0.851770	-0.177038
O12	O	-0.379312	-0.750230	-0.278597
O13	O	-0.490124	-0.847383	-0.461566
O14	O	-0.490118	-0.745778	-0.359980
O15	O	-0.379323	-0.928820	-0.457154
O16	O	-0.636411	-0.918377	-0.288880
O17	O	-0.636390	-0.841442	-0.365830
C18	C	-0.434712	-0.725270	-0.319286
C19	C	-0.434722	-0.655628	-0.319292
C20	C	-0.492526	-0.151526	-0.361637
C21	C	-0.492528	-0.216961	-0.361631
C22	C	-0.434746	-0.251989	-0.319318
C23	C	-0.376974	-0.221575	-0.276996
C24	C	-0.376981	-0.156141	-0.276998
C25	C	-0.353445	-0.358928	-0.311210
C26	C	-0.353437	-0.424361	-0.311211
C27	C	-0.434726	-0.453811	-0.319306
C28	C	-0.516026	-0.417819	-0.327413
C29	C	-0.516033	-0.352384	-0.327415
C30	C	-0.434733	-0.322942	-0.319310
C31	C	-0.492500	-0.555169	-0.361617
C32	C	-0.492503	-0.620605	-0.361607
C33	C	-0.376942	-0.625218	-0.276974
C34	C	-0.376947	-0.559783	-0.276981
C35	C	-0.434725	-0.524762	-0.319306
C36	C	-0.669135	-0.878604	-0.328675
C37	C	-0.769410	-0.874618	-0.332704
C38	C	-0.957800	-0.947322	-0.260211
C39	C	-1.052018	-0.943578	-0.263994
C40	C	-1.052065	-0.863391	-0.344056
C41	C	-0.957847	-0.867134	-0.340273
C42	C	-0.910718	-0.909101	-0.298348
C43	C	-0.816499	-0.912841	-0.294562
C44	C	-0.816548	-0.832657	-0.374627
C45	C	-0.910765	-0.828913	-0.378411
C46	C	-0.199429	-0.897563	-0.309917
C47	C	-0.099153	-0.901614	-0.305915
C48	C	-0.434721	-0.888109	-0.482730
C49	C	-0.434713	-0.888132	-0.552371
C50	C	-0.434762	-0.051479	-0.319325
C51	C	-0.434759	-0.121120	-0.319323
C52	C	-0.377017	-0.930534	-0.582788
C53	C	-0.376978	-0.930535	-0.648222
C54	C	-0.434652	-0.888139	-0.683237
C55	C	-0.492352	-0.845729	-0.652812
C56	C	-0.492383	-0.845725	-0.587379
C57	C	-0.515883	-0.879916	-0.790158
C58	C	-0.515854	-0.879924	-0.855590
C59	C	-0.434556	-0.888147	-0.885054
C60	C	-0.353286	-0.896375	-0.849078
C61	C	-0.353317	-0.896371	-0.783645
C62	C	-0.434624	-0.888138	-0.754188
C63	C	-0.376813	-0.930552	-0.986421
C64	C	-0.376773	-0.930549	-1.051856
C65	C	-0.492155	-0.845745	-1.056446
C66	C	-0.492187	-0.845746	-0.991012
C67	C	-0.434518	-0.888153	-0.956004
C68	C	-0.434692	-0.888043	-0.156518
C69	C	-0.434446	-0.888152	-0.086867
H70	H	-0.582220	-0.441795	-0.334009
H71	H	-0.949151	-0.794747	-0.412546
H72	H	-1.090453	-0.829228	-0.378193
H73	H	-0.329903	-0.535026	-0.242526
C74	C	-0.605462	-0.312796	-0.336320
N75	N	-0.672823	-0.282978	-0.343023
C76	C	-0.313383	-0.663745	-0.230427
N77	N	-0.265510	-0.692766	-0.195365
C78	C	-0.263920	-0.905413	-0.744074
N79	N	-0.196584	-0.912220	-0.714269
C80	C	-0.313422	-0.122694	-0.230452
N81	N	-0.265546	-0.097501	-0.195394
H82	H	-0.287245	-0.334956	-0.304607
C83	C	-0.264005	-0.463946	-0.302295
N84	N	-0.196643	-0.493760	-0.295578
H85	H	-0.582068	-0.873053	-0.766174
C86	C	-0.555663	-0.799102	-0.957553
N87	N	-0.603474	-0.763965	-0.932351
H88	H	-0.329929	-0.250099	-0.242543
H89	H	-0.539577	-0.123016	-0.396099
H90	H	-1.090348	-0.974703	-0.232940
H91	H	-0.778127	-0.947010	-0.260423
C92	C	-0.764750	-0.790610	-0.416581
N93	N	-0.725735	-0.758941	-0.448179
C94	C	-0.905956	-0.993483	-0.214092
N95	N	-0.866908	-1.028253	-0.179356
H96	H	-0.539308	-0.811208	-0.681326
H97	H	-0.287086	-0.903071	-0.873066
H98	H	-0.539569	-0.241723	-0.396091
H99	H	-0.330056	-0.965064	-0.554288
H100	H	-0.329784	-0.965077	-1.076620
C101	C	-0.313510	-0.977186	-0.681687
N102	N	-0.265708	-1.012326	-0.706892
C103	C	-0.555859	-0.799078	-0.553920
N104	N	-0.603671	-0.763944	-0.528718
C105	C	-0.313368	-0.977195	-0.947909
N106	N	-0.265578	-1.012326	-0.918904
H107	H	-0.539548	-0.526653	-0.396079
C108	C	-0.555598	-0.799109	-1.094959
N109	N	-0.603385	-0.763982	-1.123971
C110	C	-0.605252	-0.870873	-0.895157
N111	N	-0.672590	-0.864053	-0.924958
H112	H	-0.539551	-0.645360	-0.396063
