data_functionalizedCrystal
_audit_creation_method	'MofGen! by Chris Wilmer'
_symmetry_space_group_name_H-M	'P1'
_symmetry_Int_Tables_number	1
_symmetry_cell_setting	triclinic
loop_
_symmetry_equiv_pos_as_xyz
  x,y,z
_cell_length_a	16.776229
_cell_length_b	17.699104
_cell_length_c	17.699104
_cell_angle_alpha	96.708483
_cell_angle_beta	89.992410
_cell_angle_gamma	90.008863
loop_
_atom_site_label
_atom_site_type_symbol
_atom_site_fract_x
_atom_site_fract_y
_atom_site_fract_z
O1	O	-0.066321	-1.004076	0.095787
O2	O	-0.066316	-0.783700	0.108223
O3	O	-0.066312	-0.900106	-0.008183
O4	O	-0.066326	-0.887670	0.212193
O5	O	0.066265	-0.900091	-0.008190
O6	O	0.066260	-0.783685	0.108216
O7	O	0.066255	-1.004060	0.095780
Zn8	Zn	0.087307	-0.893870	0.101997
Zn9	Zn	-0.087368	-0.893891	0.102006
O10	O	0.066251	-0.887655	0.212186
C11	C	-0.000027	-0.755496	0.107771
C12	C	-0.000025	-0.671479	0.106426
N13	N	0.206518	-0.893862	0.101990
N14	N	-0.206579	-0.893905	0.102007
C15	C	-0.000023	-0.899650	-0.036383
C16	C	-0.000023	-0.898305	-0.120400
C17	C	0.248237	-0.945422	0.050467
C18	C	0.331690	-0.945426	0.050466
C19	C	0.373421	-0.893873	0.101993
C20	C	0.331696	-0.842308	0.153519
C21	C	0.248246	-0.842301	0.153515
C22	C	0.668243	-0.842335	0.153533
C23	C	0.751700	-0.842348	0.153535
C24	C	0.751687	-0.945461	0.050484
C25	C	0.668237	-0.945453	0.050481
C26	C	0.626519	-0.893886	0.102003
C27	C	0.536031	-0.893881	0.102003
C28	C	0.463908	-0.893881	0.101998
C29	C	-0.000029	-0.146612	0.167169
C30	C	-0.000033	-0.225556	0.168429
C31	C	-0.000029	-0.274168	0.100094
C32	C	-0.000030	-0.243833	0.030496
C33	C	-0.000032	-0.164891	0.029238
C34	C	-0.000022	-0.562200	0.035569
C35	C	-0.000018	-0.641147	0.036833
C36	C	-0.000023	-0.622865	0.174760
C37	C	-0.000025	-0.543922	0.173502
C38	C	-0.000030	-0.513594	0.103904
C39	C	-0.000028	-0.427994	0.102540
C40	C	-0.000026	-0.359767	0.101458
C41	C	-0.000032	-0.032265	0.096232
C42	C	-0.000028	-0.116282	0.097577
C43	C	-0.000047	-0.959048	-0.645267
C44	C	-0.000040	-0.960307	-0.566323
C45	C	-0.000037	-0.891973	-0.517711
C46	C	-0.000032	-0.822375	-0.548045
C47	C	-0.000034	-0.821117	-0.626988
C48	C	-0.000026	-0.827448	-0.229679
C49	C	-0.000027	-0.828712	-0.150732
C50	C	-0.000032	-0.966639	-0.169014
C51	C	-0.000034	-0.965381	-0.247957
C52	C	-0.000025	-0.895783	-0.278285
C53	C	-0.000031	-0.894418	-0.363885
C54	C	-0.000036	-0.893337	-0.432112
C55	C	-0.000039	-0.888111	0.240386
C56	C	-0.000045	-0.889456	0.324403
H57	H	0.214265	-0.987405	0.008511
F58	F	0.376111	-0.787437	0.208355
F59	F	-0.000058	-1.034378	-0.534047
H60	H	0.365657	-0.987410	0.008511
H61	H	-0.000025	-0.504345	0.229147
F62	F	0.796092	-1.000342	-0.004354
F63	F	-0.000043	-0.529933	-0.038503
F64	F	-0.000038	-1.040712	-0.136731
H65	H	0.214279	-0.800314	0.195469
F66	F	-0.000028	-0.295573	-0.042231
H67	H	-0.000028	-0.770777	-0.254362
H68	H	0.634261	-0.987435	0.008525
F69	F	-0.000023	-0.655148	0.248833
F70	F	-0.000015	-0.692884	-0.035902
H71	H	-0.000032	-0.140198	-0.027432
H72	H	-0.000057	-1.014695	-0.684842
F73	F	-0.000040	-1.038111	-0.299690
H74	H	-0.000025	-0.766736	-0.508459
H75	H	-0.000022	-0.773062	-0.111152
H76	H	0.634284	-0.800348	0.195486
F77	F	-0.000028	-0.747046	-0.659267
H78	H	0.785677	-0.800364	0.195495
H79	H	-0.000042	-0.250246	0.225098
F80	F	-0.000027	-0.094882	0.239902
