data_functionalizedCrystal
_audit_creation_method	'MofGen! by Chris Wilmer'
_symmetry_space_group_name_H-M	'P1'
_symmetry_Int_Tables_number	1
_symmetry_cell_setting	triclinic
loop_
_symmetry_equiv_pos_as_xyz
  x,y,z
_cell_length_a	23.532361
_cell_length_b	23.532407
_cell_length_c	16.053802
_cell_angle_alpha	92.540846
_cell_angle_beta	87.439726
_cell_angle_gamma	82.839208
loop_
_atom_site_label
_atom_site_type_symbol
_atom_site_fract_x
_atom_site_fract_y
_atom_site_fract_z
O1	O	0.757691	0.066599	-0.069360
O2	O	1.257691	0.566599	0.430640
O3	O	0.591824	0.076629	-0.069382
O4	O	1.091824	0.576629	0.430618
O5	O	0.679758	-0.011318	-0.069347
O6	O	1.179758	0.488682	0.430653
O7	O	0.669757	0.154546	-0.069395
O8	O	1.169757	0.654546	0.430605
O9	O	0.674918	-0.006497	0.069510
O10	O	1.174918	0.493503	0.569510
O11	O	0.586984	0.081450	0.069475
O12	O	1.086984	0.581450	0.569475
O13	O	0.752851	0.071420	0.069497
O14	O	1.252851	0.571420	0.569497
Zn15	Zn	0.669149	0.077201	0.091533
Zn16	Zn	1.169149	0.577201	0.591533
Zn17	Zn	0.675526	0.070849	-0.091418
Zn18	Zn	1.175526	0.570849	0.408582
O19	O	0.664917	0.159367	0.069462
O20	O	1.164917	0.659367	0.569462
C21	C	0.568188	0.078788	0.000044
C22	C	1.068188	0.578788	0.500044
C23	C	0.504970	0.078033	0.000037
C24	C	1.004970	0.578033	0.500037
C25	C	0.677083	-0.030123	0.000086
C26	C	1.177083	0.469877	0.500086
C27	C	0.676317	-0.093339	0.000098
C28	C	1.176317	0.406661	0.500098
C29	C	0.234364	0.072102	-0.075648
C30	C	0.734364	0.572102	0.424352
C31	C	0.293764	0.072817	-0.075651
C32	C	0.793764	0.572817	0.424349
O33	O	0.326733	0.070932	-0.140022
O34	O	0.826733	0.570932	0.359978
N35	N	0.320831	0.075806	0.000040
N36	N	0.820831	0.575806	0.500040
C37	C	0.288496	0.078074	0.075739
C38	C	0.788496	0.578074	0.575739
O39	O	0.316973	0.080682	0.140120
O40	O	0.816973	0.580682	0.640120
C41	C	0.229098	0.077355	0.075740
C42	C	0.729098	0.577355	0.575740
C43	C	0.202033	0.074372	0.000044
C44	C	0.702033	0.574372	0.500044
C45	C	0.207299	0.069118	-0.151338
C46	C	0.707299	0.569118	0.348662
C47	C	0.147903	0.068404	-0.151336
C48	C	0.647903	0.568404	0.348664
C49	C	0.115572	0.070674	-0.075643
C50	C	0.615572	0.570674	0.424357
C51	C	0.142637	0.073658	0.000047
C52	C	0.642637	0.573658	0.500047
C53	C	0.196765	0.079620	0.151438
C54	C	0.696765	0.579620	0.651438
C55	C	0.137363	0.078900	0.151433
C56	C	0.637363	0.578900	0.651433
C57	C	0.110298	0.075917	0.075736
C58	C	0.610298	0.575917	0.575736
C59	C	0.050911	0.075215	0.075742
C60	C	0.550911	0.575215	0.575742
N61	N	0.023843	0.072225	0.000051
N62	N	0.523843	0.572225	0.500051
C63	C	0.056174	0.069955	-0.075642
C64	C	0.556174	0.569955	0.424358
C65	C	0.413237	0.079583	0.075730
C66	C	0.913237	0.579583	0.575730
C67	C	0.472633	0.080306	0.075730
C68	C	0.972633	0.580306	0.575730
C69	C	0.477897	0.075047	-0.075660
C70	C	0.977897	0.575047	0.424340
C71	C	0.418499	0.074328	-0.075659
C72	C	0.918499	0.574328	0.424341
C73	C	0.386169	0.076594	0.000039
C74	C	0.886169	0.576594	0.500039
C75	C	-0.068562	0.068457	-0.075631
C76	C	0.431438	0.568457	0.424369
C77	C	-0.127964	0.067746	-0.075621
C78	C	0.372036	0.567746	0.424379
C79	C	-0.133222	0.073002	0.075768
C80	C	0.366778	0.573002	0.575768
C81	C	-0.073826	0.073716	0.075759
C82	C	0.426174	0.573716	0.575759
C83	C	-0.041497	0.071441	0.000053
C84	C	0.458503	0.571441	0.500053
O85	O	0.017905	0.077095	0.140080
O86	O	0.517905	0.577095	0.640080
O87	O	0.027690	0.067341	-0.140012
O88	O	0.527690	0.567341	0.359988
C89	C	0.621122	-0.359500	0.000039
C90	C	1.121122	0.140500	0.500039
C91	C	0.621834	-0.300099	0.000045
C92	C	1.121834	0.199901	0.500045
O93	O	0.578048	-0.263349	0.000013
O94	O	1.078048	0.236651	0.500013
N95	N	0.674111	-0.277481	0.000062
N96	N	1.174111	0.222519	0.500062
C97	C	0.725680	-0.314267	0.000064
C98	C	1.225680	0.185733	0.500064
O99	O	0.770211	-0.289575	0.000077
O100	O	1.270211	0.210425	0.500077
C101	C	0.724968	-0.373667	0.000051
C102	C	1.224968	0.126333	0.500051
C103	C	0.672688	-0.396281	0.000043
C104	C	1.172688	0.103719	0.500043
C105	C	0.568846	-0.382114	0.000030
C106	C	1.068846	0.117886	0.500030
C107	C	0.568135	-0.441511	0.000025
C108	C	1.068135	0.058489	0.500025
C109	C	0.619700	-0.478292	0.000029
C110	C	1.119700	0.021708	0.500029
C111	C	0.671977	-0.455677	0.000038
C112	C	1.171977	0.044323	0.500038
C113	C	0.776537	-0.410452	0.000047
C114	C	1.276537	0.089548	0.500047
C115	C	0.775821	-0.469855	0.000034
C116	C	1.275821	0.030145	0.500034
C117	C	0.723541	-0.492469	0.000025
C118	C	1.223541	0.007531	0.500025
C119	C	0.722831	-0.551855	0.000037
C120	C	1.222831	-0.051855	0.500037
N121	N	0.670554	-0.574473	0.000021
N122	N	1.170554	-0.074473	0.500021
C123	C	0.618989	-0.537691	0.000016
C124	C	1.118989	-0.037691	0.500016
C125	C	0.727170	-0.189524	0.000088
C126	C	1.227170	0.310476	0.500088
C127	C	0.727882	-0.130126	0.000107
C128	C	1.227882	0.369874	0.500107
C129	C	0.624036	-0.115962	0.000087
C130	C	1.124036	0.384038	0.500087
C131	C	0.623324	-0.175361	0.000075
C132	C	1.123324	0.324639	0.500075
C133	C	0.674894	-0.212142	0.000072
C134	C	1.174894	0.287858	0.500072
C135	C	0.617499	-0.662428	0.000007
C136	C	1.117499	-0.162428	0.500007
C137	C	0.616793	-0.721830	0.000005
C138	C	1.116793	-0.221830	0.500005
C139	C	0.720639	-0.735989	0.000021
C140	C	1.220639	-0.235989	0.500021
C141	C	0.721346	-0.676592	0.000026
C142	C	1.221346	-0.176592	0.500026
C143	C	0.669771	-0.639813	0.000017
C144	C	1.169771	-0.139813	0.500017
O145	O	0.766594	-0.588640	0.000066
O146	O	1.266594	-0.088640	0.500066
O147	O	0.574465	-0.562393	-0.000008
O148	O	1.074465	-0.062393	0.499992
C149	C	0.776487	0.069261	0.000069
C150	C	1.276487	0.569261	0.500069
C151	C	0.839706	0.070016	0.000071
C152	C	1.339706	0.570016	0.500071
C153	C	0.667592	0.178172	0.000027
C154	C	1.167592	0.678172	0.500027
C155	C	0.668358	0.241388	0.000009
C156	C	1.168358	0.741388	0.500009
N157	N	0.664801	0.081535	0.216391
N158	N	1.164801	0.581535	0.716391
N159	N	0.679878	0.066510	-0.216276
N160	N	1.179878	0.566510	0.283724
C161	C	0.702231	0.044127	0.260100
C162	C	1.202231	0.544127	0.760100
C163	C	0.699194	0.047164	0.347506
C164	C	1.199194	0.547164	0.847506
C165	C	0.658731	0.087613	0.391201
C166	C	1.158731	0.587613	0.891201
C167	C	0.621298	0.125023	0.347486
C168	C	1.121298	0.625023	0.847486
C169	C	0.624331	0.121983	0.260082
C170	C	1.124331	0.621983	0.760082
C171	C	0.645479	0.100879	0.652605
C172	C	1.145479	0.600879	1.152605
C173	C	0.642449	0.103918	0.740015
C174	C	1.142449	0.603918	1.240015
C175	C	0.720345	0.026058	0.740029
C176	C	1.220345	0.526058	1.240029
C177	C	0.723378	0.023023	0.652623
C178	C	1.223378	0.523023	1.152623
C179	C	0.685942	0.060431	0.608916
C180	C	1.185942	0.560431	1.108916
N181	N	0.655628	0.090720	0.480543
N182	N	1.155628	0.590720	0.980543
N183	N	0.689043	0.057321	0.519575
N184	N	1.189043	0.557321	1.019575
H185	H	-0.149997	0.065318	-0.137265
H186	H	0.350003	0.565318	0.362735
Br187	Br	0.111182	0.064351	-0.254072
Br188	Br	0.611182	0.564351	0.245928
Br189	Br	0.587532	0.158820	0.799310
Br190	Br	1.087532	0.658820	1.299310
H191	H	0.386916	0.081435	0.137376
H192	H	0.886916	0.581435	0.637376
Br193	Br	-0.024696	0.065370	-0.178375
Br194	Br	0.475304	0.565370	0.321625
Br195	Br	0.573528	0.172750	0.200762
Br196	Br	1.073528	0.672750	0.700762
Br197	Br	0.566377	0.179916	0.406783
Br198	Br	1.066377	0.679916	0.906783
Br199	Br	0.757152	-0.010767	0.200809
Br200	Br	1.257152	0.489233	0.700809
Br201	Br	0.251166	0.066035	-0.254078
Br202	Br	0.751166	0.566035	0.245922
Br203	Br	0.594676	0.151646	0.593292
Br204	Br	1.094676	0.651646	1.093292
H205	H	0.396467	0.071899	-0.137297
H206	H	0.896467	0.571899	0.362703
Br207	Br	0.771147	-0.024709	0.799349
Br208	Br	1.271147	0.475291	1.299349
Br209	Br	-0.037095	0.077774	0.178490
Br210	Br	0.462905	0.577774	0.678490
Br211	Br	0.509355	0.084370	0.178464
Br212	Br	1.009355	0.584370	0.678464
Br213	Br	0.521785	0.071970	-0.178387
Br214	Br	1.021785	0.571970	0.321613
H215	H	0.111042	0.080750	0.213076
H216	H	0.611042	0.580750	0.713076
Br217	Br	0.233480	0.083670	0.254175
Br218	Br	0.733480	0.583670	0.754175
Br219	Br	0.790617	-0.785917	0.000035
Br220	Br	1.290617	-0.285917	0.500035
H221	H	0.817816	-0.499800	0.000027
H222	H	1.317816	0.000200	0.500027
H223	H	0.580753	-0.193769	0.000071
H224	H	1.080753	0.306231	0.500071
H225	H	-0.159556	0.074852	0.137395
H226	H	0.340444	0.574852	0.637395
Br227	Br	0.547505	-0.612522	-0.000006
Br228	Br	1.047505	-0.112522	0.499994
Br229	Br	0.545836	-0.752517	-0.000001
Br230	Br	1.045836	-0.252517	0.499999
Br231	Br	0.497179	-0.472192	0.000005
Br232	Br	0.997179	0.027808	0.500005
H233	H	0.770454	-0.111719	0.000126
H234	H	1.270454	0.388281	0.500126
Br235	Br	0.749990	-0.003607	0.406828
Br236	Br	1.249990	0.496393	0.906828
Br237	Br	0.498855	-0.332207	0.000020
Br238	Br	0.998855	0.167793	0.500020
H239	H	0.582049	-0.086003	0.000084
H240	H	1.082049	0.413997	0.500084
Br241	Br	0.778295	-0.031870	0.593321
Br242	Br	1.278295	0.468130	1.093321
H243	H	0.769167	-0.219469	0.000092
H244	H	1.269167	0.280531	0.500092
H245	H	0.819110	-0.392050	0.000053
H246	H	1.319110	0.107950	0.500053
H247	H	0.763917	-0.658179	0.000045
H248	H	1.263917	-0.158179	0.500045
