data_functionalizedCrystal
_audit_creation_method	'MofGen! by Chris Wilmer'
_symmetry_space_group_name_H-M	'P1'
_symmetry_Int_Tables_number	1
_symmetry_cell_setting	triclinic
loop_
_symmetry_equiv_pos_as_xyz
  x,y,z
_cell_length_a	27.732048
_cell_length_b	9.730223
_cell_length_c	10.654550
_cell_angle_alpha	89.998044
_cell_angle_beta	83.563779
_cell_angle_gamma	89.993930
loop_
_atom_site_label
_atom_site_type_symbol
_atom_site_fract_x
_atom_site_fract_y
_atom_site_fract_z
O1	O	0.641854	0.114110	0.149407
O2	O	0.501203	0.114151	0.172126
O3	O	0.574762	0.114124	-0.022108
O4	O	0.568295	0.114136	0.343642
O5	O	0.574762	-0.114456	-0.022096
O6	O	0.501202	-0.114429	0.172139
O7	O	0.641854	-0.114470	0.149420
Zn8	Zn	0.571528	-0.150742	0.160781
Zn9	Zn	0.571529	0.150422	0.160765
O10	O	0.568295	-0.114444	0.343654
C11	C	0.483193	-0.000134	0.171655
C12	C	0.429529	-0.000118	0.170219
N13	N	0.571532	-0.356278	0.160792
C14	C	0.538951	-0.572111	0.246735
C15	C	0.538951	-0.428229	0.246756
C16	C	0.604111	-0.428218	0.074792
C17	C	0.604108	-0.572098	0.074766
C18	C	0.501333	-0.572117	0.346021
C19	C	0.501333	-0.428234	0.346042
C20	C	0.091372	-0.000174	0.275959
C21	C	-0.110321	-0.000187	0.270631
O22	O	-0.140974	-0.000243	0.367322
N23	N	-0.130162	-0.000188	0.155458
C24	C	-0.099576	-0.000195	0.041609
O25	O	-0.121080	-0.000211	-0.056475
C26	C	0.102116	-0.000193	0.046938
C27	C	0.121954	-0.000177	0.162118
C28	C	0.111211	-0.000160	0.391130
C29	C	0.161631	-0.000150	0.392461
C30	C	0.192213	-0.000153	0.278620
C31	C	0.172374	-0.000167	0.163449
C32	C	0.132701	-0.000210	-0.066910
C33	C	0.183126	-0.000213	-0.065567
C34	C	0.202964	-0.000197	0.049613
C35	C	0.253376	-0.000159	0.050940
N36	N	0.273217	-0.000158	0.166113
C37	C	0.242635	-0.000155	0.279953
C38	C	-0.205467	-0.000194	0.038819
C39	C	-0.255890	-0.000192	0.037486
C40	C	-0.266631	-0.000186	0.266509
C41	C	-0.216208	-0.000178	0.267840
C42	C	-0.185626	-0.000193	0.153992
C43	C	0.348522	-0.000131	0.282739
C44	C	0.398947	-0.000115	0.284060
C45	C	0.409684	-0.000128	0.055038
C46	C	0.359263	-0.000137	0.053716
C47	C	0.328683	-0.000144	0.167577
O48	O	0.284058	-0.000118	-0.045700
O49	O	0.264149	-0.000170	0.378023
C50	C	0.040952	-0.000185	0.274628
C51	C	0.021113	-0.000199	0.159457
C52	C	0.051695	-0.000202	0.045616
C53	C	-0.029309	-0.000197	0.158124
C54	C	-0.059891	-0.000194	0.271965
C55	C	-0.040050	-0.000192	0.387138
C56	C	0.010370	-0.000182	0.388469
C57	C	0.031854	-0.000203	-0.069557
C58	C	-0.018567	-0.000212	-0.070878
C59	C	-0.049148	-0.000209	0.042962
C60	C	0.659864	-0.000182	0.149890
C61	C	0.713528	-0.000189	0.151326
C62	C	0.574287	-0.000164	-0.068880
C63	C	0.572867	-0.000159	-0.208264
N64	N	0.571529	0.355959	0.160744
C65	C	0.616177	-0.000175	-0.289570
C66	C	0.614840	-0.000165	-0.420535
C67	C	0.526876	-0.000128	-0.388874
C68	C	0.528215	-0.000128	-0.257912
C69	C	0.666963	-0.000203	-0.307851
C70	C	0.665625	-0.000193	-0.438815
C71	C	0.568769	-0.000152	0.390426
C72	C	0.570190	-0.000149	0.529810
H73	H	0.630631	-0.630662	0.004735
H74	H	-0.200059	-0.000173	0.361630
Cl75	Cl	0.697629	0.147465	-0.263811
Cl76	Cl	-0.043499	-0.000214	-0.215692
Cl77	Cl	0.334323	-0.000163	-0.091083
H78	H	-0.291540	-0.000184	0.359202
Cl79	Cl	0.447145	-0.359286	0.301169
H80	H	0.490522	-0.000101	-0.429313
Cl81	Cl	0.186562	-0.000140	0.537267
H82	H	0.509586	-0.389213	0.442238
Cl83	Cl	-0.280823	-0.000177	-0.107318
Cl84	Cl	0.423883	-0.000092	0.428869
H85	H	0.683134	-0.098904	-0.272898
H86	H	0.630636	-0.369626	0.004789
Cl87	Cl	0.035302	-0.000164	0.533275
H88	H	-0.064959	-0.000184	0.479831
H89	H	0.513079	-0.616774	0.436729
Cl90	Cl	0.072773	-0.000153	0.534264
Cl91	Cl	0.310086	-0.000137	0.425881
Cl92	Cl	0.070293	-0.000208	-0.212686
H93	H	0.680973	0.098497	-0.485109
Cl94	Cl	-0.167029	-0.000208	-0.104321
H95	H	0.684760	-0.095857	-0.481375
H96	H	0.116558	-0.000223	-0.160702
Cl97	Cl	0.443988	-0.632373	0.315215
Cl98	Cl	0.221568	-0.000233	-0.208701
Cl99	Cl	0.448138	-0.000139	-0.088068
H100	H	0.492947	-0.000095	-0.191715
