data_functionalizedCrystal
_audit_creation_method	'MofGen! by Chris Wilmer'
_symmetry_space_group_name_H-M	'P1'
_symmetry_Int_Tables_number	1
_symmetry_cell_setting	triclinic
loop_
_symmetry_equiv_pos_as_xyz
  x,y,z
_cell_length_a	12.827892
_cell_length_b	19.077105
_cell_length_c	19.076919
_cell_angle_alpha	90.076224
_cell_angle_beta	87.724465
_cell_angle_gamma	92.288097
loop_
_atom_site_label
_atom_site_type_symbol
_atom_site_fract_x
_atom_site_fract_y
_atom_site_fract_z
Zn1	Zn	-0.505562	-1.058323	0.440440
Zn2	Zn	-0.005562	-0.558323	0.940440
Zn3	Zn	-0.673587	-1.062981	0.322941
Zn4	Zn	-0.173587	-0.562981	0.822941
Zn5	Zn	-0.491563	-0.945540	0.318233
Zn6	Zn	0.008437	-0.445540	0.818233
Zn7	Zn	-0.672957	-0.940802	0.435693
Zn8	Zn	-0.172957	-0.440802	0.935693
O9	O	-0.585917	-1.001912	0.379327
O10	O	-0.085917	-0.501912	0.879327
O11	O	-0.533973	-1.157274	0.428810
O12	O	-0.033973	-0.657274	0.928810
O13	O	-0.643846	-1.051334	0.223985
O14	O	-0.143846	-0.551334	0.723985
O15	O	-0.347187	-0.960534	0.334460
O16	O	0.152813	-0.460534	0.834460
O17	O	-0.657421	-1.160695	0.342484
O18	O	-0.157421	-0.660695	0.842484
O19	O	-0.357472	-1.043396	0.424245
O20	O	0.142528	-0.543396	0.924245
O21	O	-0.510114	-0.965050	0.220526
O22	O	-0.010114	-0.465050	0.720526
O23	O	-0.509503	-0.846579	0.329857
O24	O	-0.009503	-0.346579	0.829857
O25	O	-0.656347	-0.952460	0.534655
O26	O	-0.156347	-0.452460	1.034655
O27	O	-0.642772	-0.843098	0.416155
O28	O	-0.142772	-0.343098	0.916155
O29	O	-0.533362	-1.038802	0.538142
O30	O	-0.033362	-0.538802	1.038142
O31	O	-0.819737	-1.046740	0.337881
O32	O	-0.319737	-0.546740	0.837881
O33	O	-0.819274	-0.956976	0.420720
O34	O	-0.319274	-0.456976	0.920720
C35	C	-0.574551	-0.819342	0.371981
C36	C	-0.074551	-0.319342	0.871981
C37	C	-0.569714	-0.741237	0.368855
C38	C	-0.069714	-0.241237	0.868855
C39	C	-0.857424	-1.001868	0.379313
C40	C	-0.357424	-0.501868	0.879313
C41	C	-0.973581	-1.001913	0.379333
C42	C	-0.473581	-0.501913	0.879333
C43	C	-0.596346	-0.994583	0.562607
C44	C	-0.096346	-0.494583	1.062607
C45	C	-0.600790	-0.991460	0.640711
C46	C	-0.100790	-0.491460	1.140711
C47	C	-1.025566	-1.046380	0.338391
C48	C	-0.525566	-0.546380	0.838391
C49	C	-1.145620	-1.046427	0.338411
C50	C	-0.645620	-0.546427	0.838411
C51	C	-0.313353	-1.001974	0.379357
C52	C	0.186647	-0.501974	0.879357
C53	C	-0.197202	-1.002000	0.379370
C54	C	0.302798	-0.502000	0.879370
C55	C	-0.597329	-1.185194	0.386702
C56	C	-0.097329	-0.685194	0.886702
C57	C	-0.602192	-1.263298	0.389845
C58	C	-0.102192	-0.763298	0.889845
C59	C	-0.636925	-0.702753	0.412246
C60	C	-0.136925	-0.202753	0.912246
C61	C	-0.632367	-0.629365	0.409312
C62	C	-0.132367	-0.129365	0.909312
C63	C	-0.560602	-0.594463	0.362983
C64	C	-0.060602	-0.094463	0.862983
C65	C	-0.493385	-0.632953	0.319590
C66	C	0.006615	-0.132953	0.819590
C67	C	-0.497938	-0.706339	0.322528
C68	C	0.002062	-0.206339	0.822528
C69	C	-0.539528	-0.375174	0.349389
C70	C	-0.039528	0.124826	0.849389
C71	C	-0.534981	-0.301782	0.346453
C72	C	-0.034981	0.198218	0.846453
C73	C	-0.673963	-0.298199	0.436177
C74	C	-0.173963	0.201801	0.936177
C75	C	-0.678514	-0.371587	0.439108
C76	C	-0.178514	0.128413	0.939108
C77	C	-0.611293	-0.410071	0.395717
C78	C	-0.111293	0.089929	0.895717
N79	N	-0.555944	-0.519449	0.359982
N80	N	-0.055944	-0.019449	0.859982
N81	N	-0.615947	-0.485083	0.398723
N82	N	-0.115947	0.014917	0.898723
C83	C	-0.575456	-1.009252	0.196761
C84	C	-0.075456	-0.509252	0.696761
C85	C	-0.570727	-1.012511	0.118663
C86	C	-0.070727	-0.512511	0.618663
C87	C	-0.538849	-1.034945	0.679221
C88	C	-0.038849	-0.534945	1.179221
C89	C	-0.543020	-1.032002	0.752607
C90	C	-0.043020	-0.532002	1.252607
C91	C	-0.609138	-0.985578	0.787481
C92	C	-0.109138	-0.485578	1.287481
C93	C	-0.671081	-0.942089	0.748966
C94	C	-0.171081	-0.442089	1.248966
C95	C	-0.666904	-0.945028	0.675581
C96	C	-0.166904	-0.445028	1.175581
C97	C	-0.628492	-0.971962	1.006763
C98	C	-0.128492	-0.471962	1.506763
C99	C	-0.632667	-0.969027	1.080153
C100	C	-0.132667	-0.469027	1.580153
C101	C	-0.504604	-1.058939	1.083789
C102	C	-0.004604	-0.558939	1.583789
C103	C	-0.500438	-1.061878	1.010402
C104	C	-0.000438	-0.561878	1.510402
C105	C	-0.562376	-1.018386	0.971894
C106	C	-0.062376	-0.518386	1.471894
N107	N	-0.613406	-0.982570	0.862494
N108	N	-0.113406	-0.482570	1.362494
N109	N	-0.558103	-1.021391	0.896882
N110	N	-0.058103	-0.521391	1.396882
H111	H	-0.981195	-1.084418	0.303327
H112	H	-0.481195	-0.584418	0.803327
O113	O	-0.476214	-1.078905	0.794141
O114	O	0.023786	-0.578905	1.294141
H115	H	-0.527117	-1.113299	0.829016
H116	H	-0.027117	-0.613299	1.329016
O117	O	-0.467543	-1.085022	0.641608
O118	O	0.032457	-0.585022	1.141608
H119	H	-0.410520	-1.054927	0.606907
H120	H	0.089480	-0.554927	1.106907
H121	H	-0.484799	-0.406498	0.314053
H122	H	0.015201	0.093502	0.814053
O123	O	-1.204832	-1.096855	0.291976
O124	O	-0.704832	-0.596855	0.791976
H125	H	-1.148778	-1.129387	0.261966
H126	H	-0.648778	-0.629387	0.761966
H127	H	-0.724912	-0.904287	0.777367
H128	H	-0.224912	-0.404287	1.277367
O129	O	-0.416004	-0.595315	0.269601
O130	O	0.083996	-0.095315	0.769601
H131	H	-0.424144	-0.537820	0.274835
H132	H	0.075856	-0.037820	0.774835
H133	H	-0.695367	-0.731165	0.449970
H134	H	-0.195367	-0.231165	0.949970
H135	H	-1.152504	-0.963926	0.414421
H136	H	-0.652504	-0.463926	0.914421
O137	O	-1.032350	-0.951523	0.425778
O138	O	-0.532350	-0.451523	0.925778
H139	H	-1.086017	-0.981562	0.462795
H140	H	-0.586017	-0.481562	0.962795
H141	H	-0.446600	-1.099683	0.982013
H142	H	0.053400	-0.599683	1.482013
O143	O	-0.705049	-0.587859	0.455977
O144	O	-0.205049	-0.087859	0.955977
H145	H	-0.755795	-0.624460	0.488631
H146	H	-0.255795	-0.124460	0.988631
H147	H	-0.736955	-0.399999	0.476832
H148	H	-0.236955	0.100001	0.976832
H149	H	-0.454176	-1.094347	1.115150
H150	H	0.045824	-0.594347	1.615150
O151	O	-0.425460	-0.747854	0.275720
O152	O	0.074540	-0.247854	0.775720
H153	H	-0.374801	-0.711257	0.243003
H154	H	0.125199	-0.211257	0.743003
H155	H	-0.476530	-0.273368	0.308731
H156	H	0.023470	0.226632	0.808731
O157	O	-0.733695	-0.898119	0.634040
O158	O	-0.233695	-0.398119	1.134040
H159	H	-0.780375	-0.865344	0.670618
H160	H	-0.280375	-0.365344	1.170618
O161	O	-0.703975	-0.918948	1.117773
O162	O	-0.203975	-0.418948	1.617773
H163	H	-0.746336	-0.889194	1.078667
H164	H	-0.246336	-0.389194	1.578667
H165	H	-0.678943	-0.936558	0.975419
H166	H	-0.178943	-0.436558	1.475419
H167	H	-0.728689	-0.266859	0.471504
H168	H	-0.228689	0.233141	0.971504
