data_functionalizedCrystal
_audit_creation_method	'MofGen! by Chris Wilmer'
_symmetry_space_group_name_H-M	'P1'
_symmetry_Int_Tables_number	1
_symmetry_cell_setting	triclinic
loop_
_symmetry_equiv_pos_as_xyz
  x,y,z
_cell_length_a	15.995350
_cell_length_b	9.065218
_cell_length_c	7.540329
_cell_angle_alpha	89.996962
_cell_angle_beta	89.999470
_cell_angle_gamma	95.745870
loop_
_atom_site_label
_atom_site_type_symbol
_atom_site_fract_x
_atom_site_fract_y
_atom_site_fract_z
O1	O	-0.122770	1.957508	-0.147469
O2	O	-0.132840	1.527986	-0.147469
O3	O	-0.006007	1.754488	-0.147476
O4	O	-0.249604	1.731005	-0.147462
O5	O	-0.006005	1.754474	0.147489
O6	O	-0.132839	1.527972	0.147496
O7	O	-0.122769	1.957494	0.147497
Cu8	Cu	-0.127804	1.742732	0.174429
Cu9	Cu	-0.127805	1.742748	-0.174402
O10	O	-0.249602	1.730992	0.147503
C11	C	-0.131872	1.473015	0.000013
C12	C	-0.128978	1.309240	0.000012
C13	C	-0.280805	1.731969	0.000022
C14	C	-0.373778	1.734880	0.000027
C15	C	-0.711604	1.745332	-0.000001
C16	C	-0.665394	1.906643	-0.000659
C17	C	-0.568681	1.903732	0.000016
C18	C	-0.544005	1.740148	0.000012
C19	C	-0.584483	1.660576	0.168445
C20	C	-0.681150	1.664628	0.168576
C21	C	-0.681474	1.661311	-0.166854
C22	C	-0.584529	1.661349	-0.169071
C23	C	-0.449285	1.737209	0.000025
C24	C	-0.806324	1.748266	-0.000002
C25	C	0.025196	1.753510	0.000001
C26	C	0.118169	1.750600	-0.000015
C27	C	-0.123737	2.012465	0.000011
C28	C	-0.126631	2.176239	0.000000
N29	N	-0.127802	1.742731	0.419777
N30	N	-0.127801	1.742760	-0.419750
H31	H	-0.540730	1.966288	-0.120717
O32	O	-0.564970	1.519120	-0.181137
C33	C	-0.477012	1.518267	-0.191634
H34	H	-0.445250	1.625095	-0.132016
H35	H	-0.457552	1.509818	-0.336437
C36	C	-0.489134	1.253233	-0.161254
C37	C	-0.450124	1.384436	-0.088016
H38	H	-0.472548	1.170677	-0.097345
H39	H	-0.548393	1.253806	-0.154188
H40	H	-0.472914	1.246213	-0.281921
H41	H	-0.466352	1.391463	0.032641
H42	H	-0.390866	1.383861	-0.095059
H43	H	-0.556532	1.715844	0.293797
H44	H	-0.702414	1.714052	-0.294521
H45	H	-0.569446	1.540394	0.174705
O46	O	-0.718649	1.523421	0.177949
C47	C	-0.768540	1.507082	0.332202
H48	H	-0.786174	1.620259	0.376067
H49	H	-0.731704	1.456716	0.442383
C50	C	-0.827318	1.265382	0.238730
C51	C	-0.848983	1.404386	0.292598
H52	H	-0.876938	1.202029	0.214306
H53	H	-0.793704	1.276386	0.134810
H54	H	-0.796620	1.223430	0.330557
H55	H	-0.879671	1.446343	0.200764
H56	H	-0.882605	1.393386	0.396502
O57	O	-0.552370	1.730781	-0.317555
C58	C	-0.493518	1.850148	-0.268867
H59	H	-0.468547	1.829966	-0.130284
H60	H	-0.525204	1.957337	-0.269490
C61	C	-0.450829	1.887793	-0.572252
C62	C	-0.420154	1.862999	-0.402048
H63	H	-0.405577	1.895727	-0.654408
H64	H	-0.490481	1.807378	-0.605057
H65	H	-0.477234	1.977115	-0.572746
H66	H	-0.393760	1.773669	-0.401551
H67	H	-0.380496	1.943400	-0.369247
H68	H	-0.685555	1.970883	0.119339
H69	H	-0.712320	1.542369	-0.167975
H70	H	-0.541298	1.966685	0.120970
O71	O	-0.688209	1.983569	-0.144653
C72	C	-0.775685	1.992554	-0.141136
H73	H	-0.799543	1.977727	0.000845
H74	H	-0.808377	1.901665	-0.228464
C75	C	-0.765543	2.163384	-0.385505
C76	C	-0.794846	2.145185	-0.211119
H77	H	-0.777364	2.257530	-0.428681
H78	H	-0.706610	2.157327	-0.387880
H79	H	-0.792790	2.087634	-0.458257
H80	H	-0.767591	2.220923	-0.138367
H81	H	-0.853775	2.151258	-0.208733
H82	H	-0.699894	1.722644	0.294486
