data_functionalizedCrystal
_audit_creation_method	'MofGen! by Chris Wilmer'
_symmetry_space_group_name_H-M	'P1'
_symmetry_Int_Tables_number	1
_symmetry_cell_setting	triclinic
loop_
_symmetry_equiv_pos_as_xyz
  x,y,z
_cell_length_a	16.992694
_cell_length_b	15.944551
_cell_length_c	16.053802
_cell_angle_alpha	92.564789
_cell_angle_beta	87.249047
_cell_angle_gamma	87.083481
loop_
_atom_site_label
_atom_site_type_symbol
_atom_site_fract_x
_atom_site_fract_y
_atom_site_fract_z
O1	O	1.043704	0.174798	-0.069327
O2	O	0.815419	0.172843	-0.069352
O3	O	0.935795	0.051964	-0.069332
O4	O	0.923328	0.295677	-0.069348
O5	O	0.929169	0.058588	0.069526
O6	O	0.808793	0.179467	0.069506
O7	O	1.037078	0.181422	0.069530
Zn8	Zn	0.921884	0.181497	0.091565
Zn9	Zn	0.930613	0.172769	-0.091386
O10	O	0.916702	0.302301	0.069510
C11	C	0.782894	0.173641	0.000074
C12	C	0.695850	0.166141	0.000065
C13	C	0.645613	0.238506	0.000061
C14	C	0.563826	0.231454	0.000073
C15	C	0.532276	0.152037	0.000083
C16	C	0.582519	0.079667	0.000089
C17	C	0.664305	0.086719	0.000083
C18	C	0.288676	0.122807	0.000107
C19	C	0.206884	0.115759	0.000111
C20	C	0.188196	0.267548	0.000095
C21	C	0.269984	0.274593	0.000084
C22	C	0.320220	0.202223	0.000095
N23	N	0.448677	0.144827	0.000092
N24	N	0.403818	0.209434	0.000092
C25	C	0.931964	0.023948	0.000097
C26	C	0.930413	-0.069402	0.000098
C27	C	0.852090	-0.289513	0.000078
C28	C	0.885194	-0.344825	0.068547
C29	C	0.927606	-0.240317	0.000091
C30	C	0.891744	-0.351338	-0.068356
C31	C	0.924889	-0.405412	0.000081
C32	C	0.960728	-0.294396	0.068617
C33	C	0.967271	-0.300907	-0.068348
C34	C	1.000429	-0.356196	0.000138
C35	C	0.929169	-0.145209	0.000098
C36	C	0.923332	-0.500518	0.000080
C37	C	1.069603	0.180624	0.000103
C38	C	1.156648	0.188124	0.000106
C39	C	0.920533	0.330318	0.000079
C40	C	0.922085	0.423667	0.000073
N41	N	0.915931	0.187453	0.216424
N42	N	0.936572	0.166806	-0.216246
C43	C	0.967170	0.136040	0.260127
C44	C	0.963014	0.140215	0.347533
C45	C	0.907622	0.195808	0.391235
C46	C	0.856378	0.247223	0.347526
C47	C	0.860531	0.243043	0.260121
C48	C	0.889481	0.214042	0.652641
C49	C	0.885333	0.218220	0.740052
C50	C	0.991968	0.111209	0.740053
C51	C	0.996120	0.107038	0.652646
C52	C	0.944873	0.158450	0.608945
N53	N	0.903374	0.200078	0.480578
N54	N	0.949118	0.154175	0.519604
H55	H	0.671294	0.303176	0.000052
Cl56	Cl	0.825061	0.278676	0.597708
Cl57	Cl	0.542857	-0.020173	0.000108
H58	H	0.989876	-0.269501	0.126566
H59	H	0.840224	0.263494	0.775630
Cl60	Cl	0.846674	-0.389928	-0.157720
H61	H	0.811273	0.292485	0.383113
H62	H	0.522926	0.290381	0.000068
Cl63	Cl	0.796110	0.307677	0.205182
H64	H	1.063164	-0.385145	0.000184
Cl65	Cl	1.027429	0.075579	0.402475
H66	H	1.012279	0.090773	0.224550
Cl67	Cl	0.755310	-0.244574	0.000167
H68	H	1.041224	0.061770	0.617066
H69	H	0.850491	-0.364314	0.126426
Cl70	Cl	1.020807	-0.270782	-0.157713
H71	H	1.033690	0.069351	0.775642
H72	H	0.147286	0.326467	0.000088
Cl73	Cl	0.309640	0.374436	0.000066
H74	H	0.329568	0.063878	0.000117
Cl75	Cl	0.167223	0.015914	0.000142
H76	H	0.705207	0.027792	0.000086
