data_functionalizedCrystal
_audit_creation_method	'MofGen! by Chris Wilmer'
_symmetry_space_group_name_H-M	'P1'
_symmetry_Int_Tables_number	1
_symmetry_cell_setting	triclinic
loop_
_symmetry_equiv_pos_as_xyz
  x,y,z
_cell_length_a	15.538191
_cell_length_b	27.732048
_cell_length_c	14.750779
_cell_angle_alpha	77.459753
_cell_angle_beta	97.572172
_cell_angle_gamma	64.957374
loop_
_atom_site_label
_atom_site_type_symbol
_atom_site_fract_x
_atom_site_fract_y
_atom_site_fract_z
O1	O	1.231553	-0.143284	-0.079812
O2	O	1.731553	0.356716	0.420188
O3	O	0.956477	-0.087327	-0.079821
O4	O	1.456477	0.412673	0.420179
O5	O	1.102563	-0.187172	-0.079798
O6	O	1.602563	0.312828	0.420202
O7	O	1.085467	-0.043439	-0.079835
O8	O	1.585467	0.456561	0.420165
O9	O	1.143860	-0.215394	0.079859
O10	O	1.643860	0.284606	0.579859
O11	O	0.997774	-0.115550	0.079836
O12	O	1.497774	0.384450	0.579836
O13	O	1.272849	-0.171506	0.079845
O14	O	1.772849	0.328494	0.579845
Zn15	Zn	1.141868	-0.148009	0.105189
Zn16	Zn	1.641868	0.351991	0.605189
Zn17	Zn	1.087458	-0.110825	-0.105165
Zn18	Zn	1.587458	0.389175	0.394835
O19	O	1.126764	-0.071662	0.079822
O20	O	1.626764	0.428338	0.579822
C21	C	0.941944	-0.095584	0.000007
C22	C	1.441944	0.404416	0.500007
C23	C	0.837116	-0.078145	0.000004
C24	C	1.337116	0.421855	0.500004
C25	C	1.122853	-0.219229	0.000033
C26	C	1.622853	0.280771	0.500033
C27	C	1.121775	-0.272700	0.000041
C28	C	1.621775	0.227300	0.500041
C29	C	0.551855	-0.251395	0.000034
C30	C	1.051855	0.248605	0.500034
C31	C	0.453349	-0.234996	0.000029
C32	C	0.953349	0.265004	0.500029
C33	C	0.429558	-0.142756	0.000005
C34	C	0.929558	0.357244	0.500005
C35	C	0.528065	-0.159148	0.000015
C36	C	1.028065	0.340852	0.500015
C37	C	0.589206	-0.213468	0.000028
C38	C	1.089206	0.286532	0.500028
C39	C	0.565415	-0.121222	0.000009
C40	C	1.065415	0.378778	0.500009
C41	C	0.663912	-0.137612	0.000014
C42	C	1.163912	0.362388	0.500014
C43	C	0.725059	-0.191928	0.000024
C44	C	1.225059	0.308072	0.500024
C45	C	0.687703	-0.229858	0.000032
C46	C	1.187703	0.270142	0.500032
C47	C	0.504271	-0.066901	-0.000011
C48	C	1.004271	0.433099	0.499989
C49	C	0.541621	-0.028974	-0.000017
C50	C	1.041621	0.471026	0.499983
C51	C	0.640122	-0.045365	-0.000005
C52	C	1.140122	0.454635	0.499995
C53	C	0.701268	-0.099682	0.000005
C54	C	1.201268	0.400318	0.500005
C55	C	0.677478	-0.007436	-0.000014
C56	C	1.177478	0.492564	0.499986
C57	C	0.775975	-0.023826	-0.000009
C58	C	1.275975	0.476174	0.499991
C59	C	0.799765	-0.116072	0.000010
C60	C	1.299765	0.383928	0.500010
C61	C	1.201288	-0.625155	-0.000006
C62	C	1.701288	-0.125155	0.499994
C63	C	1.197277	-0.826125	-0.000019
C64	C	1.697277	-0.326125	0.499981
O65	O	1.269986	-0.869854	-0.000059
O66	O	1.769986	-0.369854	0.499941
N67	N	1.110657	-0.830382	-0.000021
N68	N	1.610657	-0.330382	0.499979
C69	C	1.025032	-0.784391	-0.000026
C70	C	1.525032	-0.284391	0.499974
O71	O	0.951262	-0.792622	-0.000038
O72	O	1.451262	-0.292622	0.499962
C73	C	1.029042	-0.583422	-0.000019
C74	C	1.529042	-0.083422	0.499981
C75	C	1.115670	-0.579170	-0.000008
C76	C	1.615670	-0.079170	0.499992
C77	C	1.287908	-0.620901	0.000005
C78	C	1.787908	-0.120901	0.500005
C79	C	1.288911	-0.570663	0.000014
C80	C	1.788911	-0.070663	0.500014
C81	C	1.203294	-0.524678	0.000012
C82	C	1.703294	-0.024678	0.500012
C83	C	1.116673	-0.528931	0.000001
C84	C	1.616673	-0.028931	0.500001
C85	C	0.943416	-0.537431	-0.000031
C86	C	1.443416	-0.037431	0.499969
C87	C	0.944426	-0.487187	-0.000032
C88	C	1.444426	0.012813	0.499968
C89	C	1.031054	-0.482935	-0.000020
C90	C	1.531054	0.017065	0.499980
C91	C	1.032059	-0.432708	0.000008
C92	C	1.532059	0.067292	0.500008
N93	N	1.118679	-0.428450	0.000010
N94	N	1.618679	0.071550	0.500010
C95	C	1.204296	-0.474435	0.000012
C96	C	1.704296	0.025565	0.500012
C97	C	1.022934	-0.889905	-0.000028
C98	C	1.522934	-0.389905	0.499972
C99	C	1.021931	-0.940147	-0.000028
C100	C	1.521931	-0.440147	0.499972
C101	C	1.194176	-0.981877	-0.000022
C102	C	1.694176	-0.481877	0.499978
C103	C	1.195179	-0.931635	-0.000016
C104	C	1.695179	-0.431635	0.499984
C105	C	1.109554	-0.885648	-0.000026
C106	C	1.609554	-0.385648	0.499974
C107	C	1.206396	-0.368929	0.000031
C108	C	1.706396	0.131071	0.500031
C109	C	1.207393	-0.318685	0.000043
C110	C	1.707393	0.181315	0.500043
C111	C	1.035147	-0.276959	0.000033
C112	C	1.535147	0.223041	0.500033
C113	C	1.034152	-0.327199	0.000025
C114	C	1.534152	0.172801	0.500025
C115	C	1.119783	-0.373185	0.000021
C116	C	1.619783	0.126815	0.500021
O117	O	0.959386	-0.388955	0.000036
O118	O	1.459386	0.111045	0.500036
O119	O	1.278050	-0.466189	0.000002
O120	O	1.778050	0.033811	0.500002
C121	C	1.200285	-0.675394	-0.000014
C122	C	1.700285	-0.175394	0.499986
C123	C	1.113664	-0.679647	-0.000025
C124	C	1.613664	-0.179647	0.499975
C125	C	1.028046	-0.633662	-0.000027
C126	C	1.528046	-0.133662	0.499973
C127	C	1.112662	-0.729890	-0.000025
C128	C	1.612662	-0.229890	0.499975
C129	C	1.198279	-0.775875	-0.000023
C130	C	1.698279	-0.275875	0.499977
C131	C	1.284899	-0.771617	-0.000021
C132	C	1.784899	-0.271617	0.499979
C133	C	1.285902	-0.721379	-0.000012
C134	C	1.785902	-0.221379	0.499988
C135	C	0.941427	-0.637920	-0.000029
C136	C	1.441427	-0.137920	0.499971
C137	C	0.940431	-0.688160	-0.000036
C138	C	1.440431	-0.188160	0.499964
C139	C	1.026048	-0.734145	-0.000034
C140	C	1.526048	-0.234145	0.499966
C141	C	1.287382	-0.163249	0.000015
C142	C	1.787382	0.336751	0.500015
C143	C	1.392208	-0.180687	0.000012
C144	C	1.892208	0.319313	0.500012
C145	C	1.106473	-0.039604	-0.000011
C146	C	1.606473	0.460396	0.499989
C147	C	1.107549	0.013868	-0.000025
C148	C	1.607549	0.513868	0.499975
N149	N	1.179009	-0.173388	0.248751
N150	N	1.679009	0.326612	0.748751
N151	N	1.050325	-0.085451	-0.248727
N152	N	1.550325	0.414549	0.251273
C153	C	0.946598	-0.014593	0.600532
C154	C	1.446598	0.485407	1.100532
C155	C	0.972630	-0.032375	0.701036
C156	C	1.472630	0.467625	1.201036
C157	C	1.102015	-0.120767	0.701019
C158	C	1.602015	0.379233	1.201019
C159	C	1.075991	-0.102994	0.600514
C160	C	1.575991	0.397006	1.100514
C161	C	0.998282	-0.049906	0.550278
C162	C	1.498282	0.450094	1.050278
C163	C	1.127675	-0.138307	0.550259
C164	C	1.627675	0.361693	1.050259
C165	C	1.101655	-0.120534	0.449763
C166	C	1.601655	0.379466	0.949763
C167	C	1.023951	-0.067447	0.399521
C168	C	1.523951	0.432553	0.899521
C169	C	0.972262	-0.032133	0.449782
C170	C	1.472262	0.467867	0.949782
C171	C	1.205388	-0.191393	0.600497
C172	C	1.705388	0.308607	1.100497
C173	C	1.257072	-0.226706	0.550242
C174	C	1.757072	0.273294	1.050242
C175	C	1.231048	-0.208935	0.449744
C176	C	1.731048	0.291065	0.949744
C177	C	1.153344	-0.155848	0.399502
C178	C	1.653344	0.344152	0.899502
C179	C	1.282737	-0.244249	0.399483
C180	C	1.782737	0.255751	0.899483
C181	C	1.256717	-0.226476	0.298986
C182	C	1.756717	0.273524	0.798986
C183	C	1.127325	-0.138075	0.299005
C184	C	1.627325	0.361925	0.799005
H185	H	0.849552	-0.160306	0.000026
H186	H	1.349552	0.339694	0.500026
O187	O	0.995882	-0.048278	0.291127
O188	O	1.495882	0.451722	0.791127
H189	H	1.003598	-0.010036	0.264616
H190	H	1.503598	0.489964	0.764616
O191	O	0.753653	-0.288449	0.000055
O192	O	1.253653	0.211551	0.500055
H193	H	0.815921	-0.309623	0.065137
H194	H	1.315921	0.190377	0.565137
H195	H	1.226573	-0.205861	0.682327
H196	H	1.726573	0.294139	1.182327
O197	O	0.617814	-0.309983	0.000050
O198	O	1.117814	0.190017	0.500050
H199	H	0.575296	-0.333605	0.000051
H200	H	1.075296	0.166395	0.500051
O201	O	1.300826	-0.314096	0.000041
O202	O	1.800826	0.185904	0.500041
H203	H	1.360187	-0.354513	0.000026
H204	H	1.860187	0.145487	0.500026
H205	H	1.320346	-0.269930	0.591155
H206	H	1.820346	0.230070	1.091155
O207	O	0.475680	0.029609	-0.000017
O208	O	0.975680	0.529609	0.499983
H209	H	0.400915	0.034634	-0.000010
H210	H	0.900915	0.534634	0.499990
O211	O	0.831301	-0.209615	0.000042
O212	O	1.331301	0.290385	0.500042
H213	H	0.835321	-0.182524	-0.065028
H214	H	1.335321	0.317476	0.434972
H215	H	1.165289	-0.163991	0.741932
H216	H	1.665289	0.336009	1.241932
H217	H	0.908977	0.011095	0.408878
H218	H	1.408977	0.511095	0.908878
H219	H	0.422944	-0.265884	0.000032
H220	H	0.922944	0.234116	0.500032
O221	O	0.862781	0.042667	0.546336
O222	O	1.362781	0.542667	1.046336
H223	H	0.831211	0.064240	0.598162
H224	H	1.331211	0.564240	1.098162
H225	H	0.953203	-0.852463	-0.000035
H226	H	1.453203	-0.352463	0.499965
O227	O	1.382348	-0.566084	0.000008
O228	O	1.882348	-0.066084	0.500008
H229	H	1.403782	-0.555709	0.065085
H230	H	1.903782	-0.055709	0.565085
H231	H	0.379763	-0.098528	-0.000010
H232	H	0.879763	0.401472	0.499990
O233	O	0.916877	0.005713	0.755243
O234	O	1.416877	0.505713	1.255243
H235	H	0.858468	0.045611	0.703424
H236	H	1.358468	0.545611	1.203424
O237	O	0.846991	-0.692744	-0.000047
O238	O	1.346991	-0.192744	0.499953
H239	H	0.787628	-0.652321	-0.000056
H240	H	1.287628	-0.152321	0.499944
H241	H	1.276125	-0.406366	0.000023
H242	H	1.776125	0.093634	0.500023
H243	H	1.298805	-0.255232	0.258069
H244	H	1.798805	0.244768	0.758069
H245	H	0.627680	0.036793	-0.000034
H246	H	1.127680	0.536793	0.499966
O247	O	0.398035	-0.049222	-0.000006
O248	O	0.898035	0.450778	0.499994
H249	H	0.360365	-0.053314	-0.065067
H250	H	0.860365	0.446686	0.434933
O251	O	1.043481	-0.080823	0.244817
O252	O	1.543481	0.419177	0.744817
H253	H	1.034064	-0.074404	0.166493
H254	H	1.534064	0.425596	0.666493
O255	O	0.940717	-0.331785	0.000024
O256	O	1.440717	0.168215	0.500024
H257	H	0.952966	-0.365184	0.065096
H258	H	1.452966	0.134816	0.565096
H259	H	0.806388	0.007056	-0.000005
H260	H	1.306388	0.507056	0.499995
H261	H	1.346015	-0.287472	0.440398
H262	H	1.846015	0.212528	0.940398
H263	H	0.871704	-0.600480	-0.000033
H264	H	1.371704	-0.100480	0.499967
H265	H	0.872873	-0.540881	-0.000046
H266	H	1.372873	-0.040881	0.499954
O267	O	1.380264	-0.670500	0.000021
O268	O	1.880264	-0.170500	0.500021
H269	H	1.440658	-0.659093	0.000038
H270	H	1.940658	-0.159093	0.500038
H271	H	1.265719	-0.928178	-0.000007
H272	H	1.765719	-0.428178	0.499993
O273	O	1.286523	-1.031478	-0.000027
O274	O	1.786523	-0.531478	0.499973
H275	H	1.271262	-1.067125	-0.000037
H276	H	1.771262	-0.567125	0.499963
H277	H	0.951395	-0.943606	-0.000020
H278	H	1.451395	-0.443606	0.499980
H279	H	0.965441	-0.239510	0.000035
H280	H	1.465441	0.260490	0.500035
O281	O	0.852074	-0.437587	-0.000031
O282	O	1.352074	0.062413	0.499969
H283	H	0.791678	-0.448991	-0.000030
H284	H	1.291678	0.051009	0.499970
H285	H	1.356444	-0.717924	-0.000003
H286	H	1.856444	-0.217924	0.499997
H287	H	1.354613	-0.809069	-0.000015
H288	H	1.854613	-0.309069	0.499985
