data_functionalizedCrystal
_audit_creation_method	'MofGen! by Chris Wilmer'
_symmetry_space_group_name_H-M	'P1'
_symmetry_Int_Tables_number	1
_symmetry_cell_setting	triclinic
loop_
_symmetry_equiv_pos_as_xyz
  x,y,z
_cell_length_a	10.686685
_cell_length_b	10.686220
_cell_length_c	11.169409
_cell_angle_alpha	94.347605
_cell_angle_beta	94.344473
_cell_angle_gamma	89.688259
loop_
_atom_site_label
_atom_site_type_symbol
_atom_site_fract_x
_atom_site_fract_y
_atom_site_fract_z
Zn1	Zn	-0.351966	1.956158	-0.561787
Zn2	Zn	-0.561767	1.972128	-0.375265
Zn3	Zn	-0.368150	1.746379	-0.377582
Zn4	Zn	-0.577763	1.762463	-0.592348
O5	O	-0.464911	1.859282	-0.476746
O6	O	-0.366330	2.133815	-0.523286
O7	O	-0.536162	1.942133	-0.207632
O8	O	-0.190477	1.760792	-0.390197
O9	O	-0.520469	2.145548	-0.386249
O10	O	-0.178587	1.914916	-0.525532
O11	O	-0.393912	1.776277	-0.209334
O12	O	-0.409423	1.572974	-0.419830
O13	O	-0.547732	1.788206	-0.756235
O14	O	-0.563424	1.584791	-0.577618
O15	O	-0.381840	1.930513	-0.733782
O16	O	-0.739415	1.957730	-0.415882
O17	O	-0.751167	1.803690	-0.575372
C18	C	-0.489916	1.533367	-0.502292
C19	C	-0.500644	1.393942	-0.513252
C20	C	-0.790800	1.884222	-0.498715
C21	C	-0.930208	1.895007	-0.508145
C22	C	-0.137747	1.834279	-0.454714
C23	C	0.001671	1.823624	-0.445325
C24	C	-0.464765	1.859372	-0.789771
C25	C	-0.464702	1.859410	-0.923164
C26	C	-0.439810	2.186469	-0.451100
C27	C	-0.429113	2.325897	-0.440171
C28	C	-0.464962	1.859258	-0.164926
C29	C	-0.464652	1.859435	-0.031491
H30	H	-0.570102	1.345528	-0.584202
H31	H	-0.949995	1.754260	-0.384324
O32	O	-0.346397	1.383593	-0.355366
C33	C	-0.282170	1.419072	-0.144069
C34	C	-0.375947	1.353672	-0.239985
H35	H	-0.306011	1.394883	-0.050763
H36	H	-0.287992	1.525016	-0.149910
H37	H	-0.183014	1.385661	-0.160541
H38	H	-0.475145	1.386981	-0.223576
H39	H	-0.370015	1.247737	-0.234119
H40	H	-0.978538	1.964374	-0.569132
