data_functionalizedCrystal
_audit_creation_method	'MofGen! by Chris Wilmer'
_symmetry_space_group_name_H-M	'P1'
_symmetry_Int_Tables_number	1
_symmetry_cell_setting	triclinic
loop_
_symmetry_equiv_pos_as_xyz
  x,y,z
_cell_length_a	23.532407
_cell_length_b	23.532361
_cell_length_c	22.010155
_cell_angle_alpha	90.011417
_cell_angle_beta	90.002989
_cell_angle_gamma	97.160828
loop_
_atom_site_label
_atom_site_type_symbol
_atom_site_fract_x
_atom_site_fract_y
_atom_site_fract_z
O1	O	-0.069007	0.755286	0.050455
O2	O	0.264326	1.088619	0.383788
O3	O	0.597659	1.421953	0.717121
O4	O	-0.079038	0.589419	0.050468
O5	O	0.254295	0.922752	0.383801
O6	O	0.587629	1.256086	0.717134
O7	O	0.008910	0.677354	0.050468
O8	O	0.342243	1.010688	0.383802
O9	O	0.675577	1.344021	0.717135
O10	O	-0.156955	0.667351	0.050454
O11	O	0.176378	1.000684	0.383787
O12	O	0.509711	1.334017	0.717121
O13	O	0.008910	0.677328	-0.050582
O14	O	0.342243	1.010661	0.282751
O15	O	0.675577	1.343995	0.616085
O16	O	-0.079038	0.589393	-0.050583
O17	O	0.254295	0.922726	0.282751
O18	O	0.587629	1.256059	0.616084
O19	O	-0.069007	0.755260	-0.050596
O20	O	0.264326	1.088593	0.282738
O21	O	0.597659	1.421926	0.616071
Cu22	Cu	-0.074023	0.672324	-0.059816
Cu23	Cu	0.259311	1.005657	0.273518
Cu24	Cu	0.592644	1.338990	0.606851
Cu25	Cu	-0.074023	0.672355	0.059688
Cu26	Cu	0.259311	1.005688	0.393021
Cu27	Cu	0.592644	1.339022	0.726355
O28	O	-0.156955	0.667324	-0.050596
O29	O	0.176378	1.000658	0.282737
O30	O	0.509711	1.333991	0.616070
C31	C	-0.078787	0.568189	-0.000056
C32	C	0.254546	0.901523	0.333278
C33	C	0.587880	1.234856	0.666611
C34	C	-0.078032	0.504971	-0.000050
C35	C	0.255302	0.838304	0.333283
C36	C	0.588635	1.171637	0.666617
C37	C	-0.074728	0.231741	0.055029
C38	C	0.258605	0.565075	0.388363
C39	C	0.591938	0.898408	0.721696
C40	C	-0.075443	0.291141	0.055031
C41	C	0.257890	0.624475	0.388364
C42	C	0.591224	0.957808	0.721697
O43	O	-0.075793	0.321879	0.101875
O44	O	0.257540	0.655213	0.435209
O45	O	0.590873	0.988546	0.768542
N46	N	-0.075804	0.320832	-0.000052
N47	N	0.257529	0.654166	0.333281
N48	N	0.590862	0.987499	0.666615
C49	C	-0.075445	0.291122	-0.055140
C50	C	0.257889	0.624455	0.278193
C51	C	0.591222	0.957788	0.611527
O52	O	-0.075817	0.321831	-0.101992
O53	O	0.257516	0.655164	0.231341
O54	O	0.590850	0.988498	0.564675
C55	C	-0.074726	0.231724	-0.055141
C56	C	0.258608	0.565057	0.278193
C57	C	0.591941	0.898390	0.611526
C58	C	-0.074370	0.202035	-0.000054
C59	C	0.258963	0.535368	0.333279
C60	C	0.592296	0.868701	0.666612
C61	C	-0.074372	0.202052	0.110111
C62	C	0.258961	0.535386	0.443445
C63	C	0.592294	0.868719	0.776778
C64	C	-0.073658	0.142657	0.110110
C65	C	0.259675	0.475990	0.443443
C66	C	0.593008	0.809323	0.776776
C67	C	-0.073301	0.112950	0.055026
C68	C	0.260033	0.446283	0.388359
C69	C	0.593366	0.779616	0.721693
C70	C	-0.073657	0.142639	-0.000056
C71	C	0.259677	0.475972	0.333277
C72	C	0.593010	0.809305	0.666611
C73	C	-0.074362	0.202015	-0.110228
C74	C	0.258971	0.535348	0.223105
C75	C	0.592305	0.868681	0.556439
C76	C	-0.073642	0.142612	-0.110224
C77	C	0.259691	0.475946	0.223109
C78	C	0.593024	0.809279	0.556443
C79	C	-0.073287	0.112923	-0.055138
C80	C	0.260046	0.446257	0.278196
C81	C	0.593380	0.779590	0.611529
C82	C	-0.072585	0.053536	-0.055141
C83	C	0.260748	0.386870	0.278192
C84	C	0.594082	0.720203	0.611525
N85	N	-0.072224	0.023845	-0.000058
N86	N	0.261110	0.357178	0.333275
N87	N	0.594443	0.690512	0.666608
C88	C	-0.072582	0.053552	0.055025
C89	C	0.260752	0.386885	0.388358
C90	C	0.594085	0.720218	0.721692
C91	C	-0.076954	0.415862	-0.055134
C92	C	0.256380	0.749195	0.278199
C93	C	0.589713	1.082529	0.611533
C94	C	-0.077677	0.475258	-0.055134
C95	C	0.255657	0.808592	0.278199
C96	C	0.588990	1.141925	0.611533
C97	C	-0.077674	0.475274	0.055037
C98	C	0.255659	0.808607	0.388370
C99	C	0.588993	1.141941	0.721704
C100	C	-0.076955	0.415876	0.055036
C101	C	0.256378	0.749209	0.388369
C102	C	0.589712	1.082542	0.721703
C103	C	-0.076593	0.386171	-0.000051
C104	C	0.256741	0.719504	0.333282
C105	C	0.590074	1.052837	0.666615
C106	C	-0.071083	-0.071184	0.055017
C107	C	0.262250	0.262149	0.388351
C108	C	0.595584	0.595483	0.721684
C109	C	-0.070372	-0.130585	0.055011
C110	C	0.262962	0.202748	0.388344
C111	C	0.596295	0.536081	0.721678
C112	C	-0.070371	-0.130595	-0.055160
C113	C	0.262962	0.202738	0.278174
C114	C	0.596295	0.536072	0.611507
C115	C	-0.071086	-0.071199	-0.055153
C116	C	0.262248	0.262134	0.278180
C117	C	0.595581	0.595467	0.611513
C118	C	-0.071440	-0.041495	-0.000060
C119	C	0.261894	0.291838	0.333273
C120	C	0.595227	0.625172	0.666607
O121	O	-0.072232	0.022761	-0.101962
O122	O	0.261101	0.356094	0.231372
O123	O	0.594435	0.689427	0.564705
O124	O	-0.072202	0.022836	0.101869
O125	O	0.261132	0.356170	0.435203
O126	O	0.594465	0.689503	0.768536
C127	C	-0.178171	0.667592	-0.000073
C128	C	0.155162	1.000926	0.333260
C129	C	0.488495	1.334259	0.666593
C130	C	-0.241388	0.668358	-0.000079
C131	C	0.091945	1.001692	0.333254
C132	C	0.425279	1.335025	0.666588
C133	C	-0.640499	0.621124	-0.000044
C134	C	-0.307166	0.954457	0.333289
C135	C	0.026168	1.287790	0.666623
C136	C	-0.699899	0.621835	-0.000040
C137	C	-0.366566	0.955169	0.333293
C138	C	-0.033233	1.288502	0.666627
O139	O	-0.736651	0.578048	-0.000014
O140	O	-0.403318	0.911382	0.333319
O141	O	-0.069984	1.244715	0.666653
N142	N	-0.722517	0.674113	-0.000045
N143	N	-0.389183	1.007446	0.333288
N144	N	-0.055850	1.340779	0.666622
C145	C	-0.685730	0.725682	-0.000048
C146	C	-0.352397	1.059015	0.333285
C147	C	-0.019064	1.392349	0.666619
O148	O	-0.710423	0.770214	-0.000051
O149	O	-0.377089	1.103547	0.333282
O150	O	-0.043756	1.436880	0.666616
C151	C	-0.626331	0.724970	-0.000048
C152	C	-0.292998	1.058303	0.333286
C153	C	0.040335	1.391637	0.666619
C154	C	-0.603718	0.672689	-0.000049
C155	C	-0.270384	1.006022	0.333284
C156	C	0.062949	1.339356	0.666618
C157	C	-0.617885	0.568847	-0.000045
C158	C	-0.284551	0.902180	0.333289
C159	C	0.048782	1.235514	0.666622
C160	C	-0.558489	0.568136	-0.000050
C161	C	-0.225155	0.901469	0.333283
C162	C	0.108178	1.234803	0.666617
C163	C	-0.521707	0.619701	-0.000055
C164	C	-0.188374	0.953035	0.333279
C165	C	0.144960	1.286368	0.666612
C166	C	-0.544322	0.671978	-0.000054
C167	C	-0.210988	1.005311	0.333279
C168	C	0.122345	1.338645	0.666612
C169	C	-0.589546	0.776539	-0.000046
C170	C	-0.256213	1.109872	0.333287
C171	C	0.077120	1.443205	0.666620
C172	C	-0.530144	0.775822	-0.000046
C173	C	-0.196811	1.109156	0.333288
C174	C	0.136523	1.442489	0.666621
C175	C	-0.507530	0.723541	-0.000047
C176	C	-0.174197	1.056875	0.333286
C177	C	0.159137	1.390208	0.666620
C178	C	-0.448144	0.722832	-0.000064
C179	C	-0.114811	1.056165	0.333269
C180	C	0.218523	1.389499	0.666602
N181	N	-0.425527	0.670555	-0.000059
N182	N	-0.092193	1.003888	0.333274
N183	N	0.241140	1.337221	0.666607
C184	C	-0.462308	0.618989	-0.000055
C185	C	-0.128975	0.952323	0.333279
C186	C	0.204359	1.285656	0.666612
C187	C	-0.810473	0.727174	-0.000047
C188	C	-0.477139	1.060507	0.333286
C189	C	-0.143806	1.393840	0.666620
C190	C	-0.869870	0.727886	-0.000052
C191	C	-0.536537	1.061220	0.333282
C192	C	-0.203204	1.394553	0.666615
C193	C	-0.884035	0.624039	-0.000043
C194	C	-0.550702	0.957372	0.333291
C195	C	-0.217369	1.290706	0.666624
C196	C	-0.824636	0.623327	-0.000042
C197	C	-0.491303	0.956660	0.333291
C198	C	-0.157970	1.289994	0.666624
C199	C	-0.787855	0.674896	-0.000042
C200	C	-0.454522	1.008229	0.333291
C201	C	-0.121189	1.341563	0.666625
C202	C	-0.337572	0.617499	-0.000066
C203	C	-0.004238	0.950833	0.333267
C204	C	0.329095	1.284166	0.666600
C205	C	-0.278170	0.616793	-0.000074
C206	C	0.055164	0.950126	0.333259
C207	C	0.388497	1.283459	0.666592
C208	C	-0.264010	0.720640	-0.000080
C209	C	0.069323	1.053973	0.333253
C210	C	0.402657	1.387306	0.666587
C211	C	-0.323407	0.721347	-0.000075
C212	C	0.009927	1.054680	0.333258
C213	C	0.343260	1.388013	0.666591
C214	C	-0.360187	0.669772	-0.000066
C215	C	-0.026853	1.003105	0.333267
C216	C	0.306480	1.336439	0.666600
O217	O	-0.411357	0.766596	-0.000088
O218	O	-0.078024	1.099929	0.333246
O219	O	0.255309	1.433263	0.666579
O220	O	-0.437608	0.574465	-0.000043
O221	O	-0.104274	0.907798	0.333290
O222	O	0.229059	1.241132	0.666623
C223	C	0.030126	0.677086	-0.000053
C224	C	0.363459	1.010420	0.333280
C225	C	0.696793	1.343753	0.666613
C226	C	0.093343	0.676320	-0.000044
C227	C	0.426676	1.009654	0.333290
C228	C	0.760009	1.342987	0.666623
C229	C	-0.069258	0.776489	-0.000071
C230	C	0.264075	1.109823	0.333262
C231	C	0.597408	1.443156	0.666596
C232	C	-0.070014	0.839708	-0.000073
C233	C	0.263320	1.173041	0.333261
C234	C	0.596653	1.506375	0.666594
N235	N	-0.074022	0.672306	-0.143868
N236	N	0.259311	1.005639	0.189465
N237	N	0.592644	1.338973	0.522798
C238	C	-0.108377	0.706701	-0.563654
C239	C	0.224956	1.040035	-0.230321
C240	C	0.558289	1.373368	0.103013
C241	C	-0.108376	0.706708	-0.627262
C242	C	0.224957	1.040041	-0.293928
C243	C	0.558291	1.373375	0.039405
O244	O	-0.137582	0.735932	-0.660158
O245	O	0.195751	1.069265	-0.326825
O246	O	0.529085	1.402598	0.006508
N247	N	-0.074016	0.672366	-0.659075
N248	N	0.259317	1.005699	-0.325742
N249	N	0.592651	1.339033	0.007591
C250	C	-0.039651	0.638020	-0.627278
C251	C	0.293682	0.971353	-0.293945
C252	C	0.627016	1.304686	0.039388
O253	O	-0.010425	0.608810	-0.660179
O254	O	0.322909	0.942144	-0.326846
O255	O	0.656242	1.275477	0.006487
C256	C	-0.039650	0.638016	-0.563672
C257	C	0.293683	0.971350	-0.230339
C258	C	0.627017	1.304683	0.102995
C259	C	-0.074016	0.672356	-0.531861
C260	C	0.259317	1.005689	-0.198528
C261	C	0.592650	1.339023	0.134805
C262	C	-0.142741	0.741039	-0.531843
C263	C	0.190593	1.074372	-0.198510
C264	C	0.523926	1.407705	0.134823
C265	C	-0.142743	0.741031	-0.468240
C266	C	0.190591	1.074364	-0.134907
C267	C	0.523924	1.407698	0.198427
C268	C	-0.108382	0.706686	-0.436447
C269	C	0.224952	1.040019	-0.103114
C270	C	0.558285	1.373353	0.230219
C271	C	-0.074018	0.672348	-0.468258
C272	C	0.259315	1.005682	-0.134925
C273	C	0.592648	1.339015	0.198409
C274	C	-0.005282	0.603673	-0.531876
C275	C	0.328051	0.937007	-0.198543
C276	C	0.661385	1.270340	0.134790
C277	C	-0.005284	0.603673	-0.468265
C278	C	0.328050	0.937007	-0.134932
C279	C	0.661383	1.270340	0.198401
C280	C	-0.039650	0.638013	-0.436455
C281	C	0.293683	0.971347	-0.103121
C282	C	0.627017	1.304680	0.230212
C283	C	-0.039659	0.637996	-0.372862
C284	C	0.293674	0.971329	-0.039529
C285	C	0.627007	1.304662	0.293804
N286	N	-0.074019	0.672338	-0.341048
N287	N	0.259314	1.005671	-0.007715
N288	N	0.592647	1.339004	0.325618
C289	C	-0.108380	0.706683	-0.372841
C290	C	0.224953	1.040016	-0.039508
C291	C	0.558286	1.373349	0.293826
C292	C	-0.039656	0.638030	-0.760856
C293	C	0.293678	0.971363	-0.427523
C294	C	0.627011	1.304697	-0.094190
C295	C	-0.039659	0.638030	-0.824462
C296	C	0.293674	0.971363	-0.491128
C297	C	0.627007	1.304696	-0.157795
C298	C	-0.108384	0.706719	-0.824440
C299	C	0.224950	1.040052	-0.491107
C300	C	0.558283	1.373386	-0.157774
C301	C	-0.108382	0.706716	-0.760834
C302	C	0.224951	1.040049	-0.427500
C303	C	0.558284	1.373382	-0.094167
C304	C	-0.074015	0.672372	-0.729042
C305	C	0.259318	1.005705	-0.395709
C306	C	0.592651	1.339038	-0.062376
C307	C	-0.108383	0.706664	-0.239270
C308	C	0.224951	1.039997	0.094064
C309	C	0.558284	1.373330	0.427397
C310	C	-0.108383	0.706651	-0.175661
C311	C	0.224950	1.039984	0.157672
C312	C	0.558283	1.373318	0.491006
C313	C	-0.039657	0.637964	-0.175688
C314	C	0.293676	0.971298	0.157646
C315	C	0.627010	1.304631	0.490979
C316	C	-0.039658	0.637974	-0.239291
C317	C	0.293675	0.971308	0.094042
C318	C	0.627008	1.304641	0.427376
C319	C	-0.074023	0.672329	-0.271080
C320	C	0.259311	1.005662	0.062253
C321	C	0.592644	1.338995	0.395586
O322	O	-0.010466	0.608789	-0.339925
O323	O	0.322867	0.942122	-0.006592
O324	O	0.656200	1.275455	0.326741
O325	O	-0.137596	0.735893	-0.339932
O326	O	0.195737	1.069226	-0.006599
O327	O	0.529071	1.402560	0.326734
N328	N	-0.074018	0.672377	0.143740
N329	N	0.259315	1.005711	0.477074
N330	N	0.592648	1.339044	0.810407
H331	H	-0.073367	0.118489	0.154967
H332	H	0.259967	0.451823	0.488300
H333	H	0.593300	0.785156	0.821633
H334	H	-0.077965	0.499472	0.099889
H335	H	0.255368	0.832805	0.433222
H336	H	0.588702	1.166139	0.766556
N337	N	-0.177833	0.776116	-0.435742
N338	N	0.155500	1.109450	-0.102409
N339	N	0.488833	1.442783	0.230925
N340	N	-0.177832	0.776118	-0.378951
N341	N	0.155501	1.109451	-0.045618
N342	N	0.488835	1.442784	0.287716
H343	H	-0.202614	0.800900	-0.356001
H344	H	0.130719	1.134234	-0.022668
H345	H	0.464053	1.467567	0.310665
N346	N	-0.492566	0.828495	-0.000055
N347	N	-0.159233	1.161829	0.333278
N348	N	0.174101	1.495162	0.666612
N349	N	-0.439532	0.827858	-0.000061
N350	N	-0.106199	1.161191	0.333272
N351	N	0.227135	1.494525	0.666605
H352	H	-0.412992	0.865058	-0.000070
H353	H	-0.079659	1.198391	0.333263
H354	H	0.253674	1.531724	0.666597
N355	N	-0.078052	0.505589	-0.111398
N356	N	0.255281	0.838922	0.221936
N357	N	0.588615	1.172256	0.555269
N358	N	-0.118602	0.533252	-0.123692
N359	N	0.214732	0.866585	0.209641
N360	N	0.548065	1.199918	0.542975
H361	H	-0.118865	0.554673	-0.163429
H362	H	0.214469	0.888006	0.169904
H363	H	0.547802	1.221339	0.503237
H364	H	0.022703	0.575706	-0.442384
H365	H	0.356037	0.909040	-0.109051
H366	H	0.689370	1.242373	0.224283
N367	N	-0.074734	0.232383	0.166388
N368	N	0.258599	0.565716	0.499722
N369	N	0.591933	0.899050	0.833055
N370	N	-0.074414	0.205857	0.215559
N371	N	0.258920	0.539190	0.548893
N372	N	0.592253	0.872523	0.882226
H373	H	-0.074672	0.227273	0.255309
H374	H	0.258661	0.560606	0.588643
H375	H	0.591994	0.893940	0.921976
H376	H	-0.076666	0.391679	-0.099996
H377	H	0.256668	0.725012	0.233338
H378	H	0.590001	1.058345	0.566671
N379	N	0.029824	0.568604	-0.564369
N380	N	0.363158	0.901937	-0.231035
N381	N	0.696491	1.235270	0.102298
N382	N	0.029829	0.568606	-0.621160
N383	N	0.363163	0.901939	-0.287826
N384	N	0.696496	1.235273	0.045507
H385	H	0.054625	0.543836	-0.644108
H386	H	0.387958	0.877169	-0.310774
H387	H	0.721292	1.210503	0.022559
N388	N	-0.801549	0.569919	-0.000048
N389	N	-0.468216	0.903252	0.333286
N390	N	-0.134882	1.236586	0.666619
N391	N	-0.834403	0.523885	-0.000049
N392	N	-0.501070	0.857218	0.333285
N393	N	-0.167736	1.190552	0.666618
H394	H	-0.818101	0.486163	-0.000053
H395	H	-0.484768	0.819496	0.333281
H396	H	-0.151434	1.152829	0.666614
N397	N	-0.143480	0.741752	-0.271746
N398	N	0.189853	1.075085	0.061587
N399	N	0.523187	1.408418	0.394921
N400	N	-0.121049	0.779539	-0.307225
N401	N	0.212284	1.112872	0.026108
N402	N	0.545617	1.446205	0.359441
H403	H	-0.145839	0.804317	-0.330163
H404	H	0.187494	1.137650	0.003170
H405	H	0.520828	1.470983	0.336504
H406	H	-0.234052	0.762623	-0.000087
H407	H	0.099281	1.095956	0.333247
H408	H	0.432615	1.429289	0.666580
H409	H	-0.136371	0.734614	-0.149763
H410	H	0.196962	1.067948	0.183570
H411	H	0.530295	1.401281	0.516903
H412	H	-0.607948	0.819111	-0.000045
H413	H	-0.274614	1.152445	0.333288
H414	H	0.058719	1.485778	0.666622
N415	N	-0.177843	0.776131	-0.564303
N416	N	0.155490	1.109464	-0.230969
N417	N	0.488823	1.442797	0.102364
N418	N	-0.208517	0.806785	-0.535880
N419	N	0.124816	1.140118	-0.202547
N420	N	0.458149	1.473452	0.130786
H421	H	-0.233314	0.831569	-0.558800
H422	H	0.100020	1.164902	-0.225467
H423	H	0.433353	1.498236	0.107866
H424	H	-0.136367	0.734678	-0.734938
H425	H	0.196966	1.068011	-0.401604
H426	H	0.530300	1.401344	-0.068271
H427	H	-0.341820	0.763918	-0.000083
H428	H	-0.008486	1.097251	0.333250
H429	H	0.324847	1.430585	0.666584
H430	H	-0.136363	0.734684	-0.850337
H431	H	0.196970	1.068017	-0.517004
H432	H	0.530304	1.401351	-0.183671
N433	N	-0.073281	0.112260	-0.166491
N434	N	0.260052	0.445594	0.166842
N435	N	0.593385	0.778927	0.500176
N436	N	-0.072645	0.059226	-0.166490
N437	N	0.260688	0.392559	0.166843
N438	N	0.594021	0.725893	0.500177
H439	H	-0.072392	0.037790	-0.206228
H440	H	0.260941	0.371123	0.127106
H441	H	0.594274	0.704456	0.460439
H442	H	-0.074649	0.226177	-0.155085
H443	H	0.258684	0.559511	0.178248
H444	H	0.592017	0.892844	0.511581
N445	N	-0.004561	0.602939	-0.856942
N446	N	0.328772	0.936272	-0.523608
N447	N	0.662105	1.269606	-0.190275
N448	N	0.026111	0.572276	-0.828540
N449	N	0.359445	0.905609	-0.495207
N450	N	0.692778	1.238942	-0.161874
H451	H	0.050903	0.547493	-0.851477
H452	H	0.384236	0.880826	-0.518144
H453	H	0.717569	1.214160	-0.184810
N454	N	-0.076593	0.385561	0.111310
N455	N	0.256741	0.718894	0.444644
N456	N	0.590074	1.052227	0.777977
N457	N	-0.076915	0.412098	0.160485
N458	N	0.256418	0.745432	0.493819
N459	N	0.589751	1.078765	0.827152
H460	H	-0.076658	0.390692	0.200232
H461	H	0.256675	0.724025	0.533565
H462	H	0.590008	1.057358	0.866899
N463	N	-0.921621	0.571370	-0.000026
N464	N	-0.588288	0.904703	0.333308
N465	N	-0.254955	1.238036	0.666641
N466	N	-0.956341	0.560202	0.042575
N467	N	-0.623008	0.893536	0.375908
N468	N	-0.289675	1.226869	0.709241
H469	H	-0.982888	0.523007	0.042587
H470	H	-0.649555	0.856341	0.375921
H471	H	-0.316222	1.189674	0.709254
N472	N	-0.071478	-0.040882	-0.111427
N473	N	0.261855	0.292451	0.221907
N474	N	0.595188	0.625784	0.555240
N475	N	-0.071176	-0.067419	-0.160604
N476	N	0.262158	0.265915	0.172729
N477	N	0.595491	0.599248	0.506063
H478	H	-0.071456	-0.046012	-0.200349
H479	H	0.261877	0.287322	0.132985
H480	H	0.595210	0.620655	0.466318
H481	H	-0.540082	0.525563	-0.000046
H482	H	-0.206749	0.858897	0.333288
H483	H	0.126584	1.192230	0.666621
N484	N	-0.070008	-0.160955	-0.111418
N485	N	0.263325	0.172378	0.221915
N486	N	0.596659	0.505711	0.555249
N487	N	-0.069367	-0.213989	-0.111405
N488	N	0.263966	0.119344	0.221929
N489	N	0.597299	0.452678	0.555262
H490	H	-0.069107	-0.235433	-0.151137
H491	H	0.264226	0.097901	0.182196
H492	H	0.597560	0.431234	0.515529
H493	H	-0.011672	0.610057	-0.734976
H494	H	0.321662	0.943391	-0.401642
H495	H	0.654995	1.276724	-0.068309
N496	N	-0.004561	0.602885	-0.271779
N497	N	0.328772	0.936218	0.061554
N498	N	0.662105	1.269551	0.394888
N499	N	0.026111	0.572218	-0.243382
N500	N	0.359444	0.905551	0.089951
N501	N	0.692778	1.238884	0.423285
H502	H	0.050902	0.547437	-0.266322
H503	H	0.384235	0.880770	0.067011
H504	H	0.717568	1.214104	0.400344
N505	N	-0.004557	0.602899	-0.143188
N506	N	0.328777	0.936232	0.190145
N507	N	0.662110	1.269566	0.523479
N508	N	0.033203	0.625369	-0.107685
N509	N	0.366537	0.958702	0.225648
N510	N	0.699870	1.292036	0.558982
H511	H	0.057997	0.600610	-0.084727
H512	H	0.391330	0.933943	0.248607
H513	H	0.724663	1.267276	0.581940
N514	N	-0.070013	-0.160903	0.111289
N515	N	0.263321	0.172431	0.444622
N516	N	0.596654	0.505764	0.777955
N517	N	-0.070332	-0.134367	0.160465
N518	N	0.263002	0.198966	0.493798
N519	N	0.596335	0.532300	0.827132
H520	H	-0.070078	-0.155776	0.200211
H521	H	0.263255	0.177557	0.533544
H522	H	0.596589	0.510890	0.866877
H523	H	-0.071372	-0.047006	0.099880
H524	H	0.261961	0.286328	0.433213
H525	H	0.595295	0.619661	0.766546
H526	H	-0.367511	0.575502	-0.000059
H527	H	-0.034178	0.908836	0.333274
H528	H	0.299155	1.242169	0.666608
N529	N	-0.255081	0.563382	-0.000081
N530	N	0.078253	0.896715	0.333253
N531	N	0.411586	1.230048	0.666586
N532	N	-0.287932	0.517346	-0.000076
N533	N	0.045401	0.850680	0.333257
N534	N	0.378734	1.184013	0.666590
H535	H	-0.271628	0.479625	-0.000081
H536	H	0.061705	0.812958	0.333252
H537	H	0.395038	1.146292	0.666586
H538	H	-0.647827	0.526854	-0.000039
H539	H	-0.314494	0.860187	0.333295
H540	H	0.018840	1.193521	0.666628
N541	N	-0.892966	0.781290	-0.000071
N542	N	-0.559633	1.114623	0.333263
N543	N	-0.226300	1.447957	0.666596
N544	N	-0.881592	0.815962	-0.042672
N545	N	-0.548258	1.149295	0.290662
N546	N	-0.214925	1.482628	0.623995
H547	H	-0.897901	0.853680	-0.042684
H548	H	-0.564568	1.187014	0.290650
H549	H	-0.231235	1.520347	0.623983
N550	N	-0.772912	0.779859	-0.000050
N551	N	-0.439578	1.113193	0.333283
N552	N	-0.106245	1.446526	0.666616
N553	N	-0.793119	0.826528	-0.000054
N554	N	-0.459786	1.159861	0.333279
N555	N	-0.126453	1.493195	0.666612
H556	H	-0.766595	0.863738	-0.000055
H557	H	-0.433262	1.197071	0.333278
H558	H	-0.099928	1.530405	0.666611
