data_functionalizedCrystal
_audit_creation_method	'MofGen! by Chris Wilmer'
_symmetry_space_group_name_H-M	'P1'
_symmetry_Int_Tables_number	1
_symmetry_cell_setting	triclinic
loop_
_symmetry_equiv_pos_as_xyz
  x,y,z
_cell_length_a	6.817900
_cell_length_b	14.125469
_cell_length_c	16.015280
_cell_angle_alpha	78.286956
_cell_angle_beta	104.490311
_cell_angle_gamma	100.398878
loop_
_atom_site_label
_atom_site_type_symbol
_atom_site_fract_x
_atom_site_fract_y
_atom_site_fract_z
V1	V	-3.987099	-0.038804	-0.269312
O2	O	-3.991441	0.099031	-0.264529
O3	O	-3.923429	-0.170394	-0.267139
O4	O	-3.928453	0.004428	-0.386918
O5	O	-3.986382	-0.077000	-0.143920
V6	V	-4.474034	-0.027355	-0.254354
O7	O	-4.240875	-0.063919	-0.302122
O8	O	-4.670456	-0.002241	-0.221543
O9	O	-4.314498	0.104234	-0.256526
O10	O	-4.587089	-0.165191	-0.259137
O11	O	-4.592148	0.010841	-0.379745
O12	O	-4.309473	-0.070587	-0.136747
C13	C	-3.765046	-0.203805	-0.262805
C14	C	-3.794207	-0.311106	-0.261813
C15	C	-3.771455	0.019198	-0.415595
C16	C	-3.804688	0.053675	-0.511737
C17	C	-3.822767	0.186120	-0.635116
C18	C	-3.791543	0.153714	-0.544777
C19	C	-3.849054	-0.013999	-0.569029
C20	C	-3.880273	0.018392	-0.659372
C21	C	-3.867128	0.118453	-0.692407
C22	C	-3.924634	-0.049275	-0.716663
C23	C	-3.955861	-0.016885	-0.806998
C24	C	-3.942726	0.083171	-0.840041
C25	C	-3.898355	0.150842	-0.782742
C26	C	-3.937792	-0.149335	-0.683626
C27	C	-3.982153	-0.217002	-0.740918
C28	C	-4.013367	-0.184613	-0.831254
C29	C	-4.000232	-0.084557	-0.864297
C30	C	-4.057738	-0.252284	-0.888553
C31	C	-4.088965	-0.219895	-0.978888
C32	C	-4.031459	-0.052167	-0.954632
C33	C	-3.847662	-0.507564	-0.260009
C34	C	-4.032838	-0.558607	-0.263660
C35	C	-4.062583	-0.667923	-0.262656
C36	C	-3.817909	-0.398238	-0.261013
C37	C	-4.136222	0.137639	-0.260858
C38	C	-4.086299	0.244942	-0.261856
C39	C	-4.129814	-0.085363	-0.108066
C40	C	-4.075820	-0.119834	-0.011923
H41	H	-4.020769	0.029312	-0.981531
H42	H	-3.887665	0.232321	-0.809641
H43	H	-3.711478	-0.545960	-0.256129
H44	H	-3.968137	0.109541	-0.913598
O45	O	-3.907683	-0.180692	-0.595865
C46	C	-4.053616	-0.148635	-0.563202
H47	H	-4.112197	-0.082031	-0.609563
H48	H	-4.186786	-0.209564	-0.557765
C49	C	-3.882053	-0.203088	-0.415298
C50	C	-3.953990	-0.121278	-0.472236
H51	H	-3.820604	-0.186217	-0.359185
H52	H	-3.783738	-0.224689	-0.437303
H53	H	-3.993042	-0.253854	-0.410778
H54	H	-3.842998	-0.070518	-0.476765
H55	H	-4.052284	-0.099668	-0.450230
H56	H	-4.169032	-0.520208	-0.267537
H57	H	-3.812077	0.267599	-0.662015
O58	O	-3.748718	0.219538	-0.489213
C59	C	-3.911000	0.275350	-0.508065
H60	H	-3.999233	0.273989	-0.578494
H61	H	-4.017936	0.243318	-0.461827
C62	C	-3.716255	0.383093	-0.409477
C63	C	-3.824615	0.381429	-0.495982
H64	H	-3.662973	0.448527	-0.402021
H65	H	-3.606925	0.345490	-0.396774
H66	H	-3.805387	0.356395	-0.370956
H67	H	-3.735477	0.408115	-0.534501
H68	H	-3.933929	0.419039	-0.508692
O69	O	-3.861245	-0.111190	-0.536949
C70	C	-3.713991	-0.151030	-0.562207
H71	H	-3.671437	-0.102658	-0.623031
H72	H	-3.571776	-0.155230	-0.506810
C73	C	-3.854996	-0.313633	-0.507763
C74	C	-3.802743	-0.254225	-0.582472
H75	H	-3.909736	-0.377290	-0.520260
H76	H	-3.954200	-0.286792	-0.490743
H77	H	-3.736472	-0.317121	-0.461605
H78	H	-3.921271	-0.250728	-0.628625
H79	H	-3.703561	-0.281068	-0.599501
O80	O	-3.994395	-0.314160	-0.708695
C81	C	-3.805852	-0.334655	-0.652978
H82	H	-3.678775	-0.275105	-0.670487
H83	H	-3.813329	-0.337274	-0.582210
C84	C	-3.917535	-0.507086	-0.642553
C85	C	-3.761454	-0.433950	-0.664064
H86	H	-3.890150	-0.568338	-0.649387
H87	H	-4.044563	-0.493279	-0.680088
H88	H	-3.923750	-0.509257	-0.583581
H89	H	-3.755258	-0.431773	-0.723038
H90	H	-3.634423	-0.447759	-0.626539
H91	H	-4.068454	-0.333754	-0.861642
O92	O	-4.131956	-0.285752	-1.034422
C93	C	-4.136912	-0.381013	-0.985895
H94	H	-4.043295	-0.378387	-0.916421
H95	H	-4.301872	-0.413116	-0.983880
C96	C	-4.160933	-0.448477	-1.114787
C97	C	-4.045936	-0.445253	-1.029459
H98	H	-4.104824	-0.488105	-1.141660
H99	H	-4.157602	-0.384299	-1.147481
H100	H	-4.298392	-0.475227	-1.113096
H101	H	-3.908487	-0.418492	-1.031152
H102	H	-4.049242	-0.509429	-0.996766
