data_functionalizedCrystal
_audit_creation_method	'MofGen! by Chris Wilmer'
_symmetry_space_group_name_H-M	'P1'
_symmetry_Int_Tables_number	1
_symmetry_cell_setting	triclinic
loop_
_symmetry_equiv_pos_as_xyz
  x,y,z
_cell_length_a	16.120530
_cell_length_b	18.215404
_cell_length_c	18.215399
_cell_angle_alpha	90.029924
_cell_angle_beta	87.086235
_cell_angle_gamma	92.880662
loop_
_atom_site_label
_atom_site_type_symbol
_atom_site_fract_x
_atom_site_fract_y
_atom_site_fract_z
Zn1	Zn	1.274516	0.350098	-0.473094
Zn2	Zn	1.524516	0.600098	-0.223094
Zn3	Zn	1.774516	0.850098	0.026906
Zn4	Zn	2.024516	1.100098	0.276906
Zn5	Zn	1.274422	0.473170	-0.350025
Zn6	Zn	1.524422	0.723170	-0.100025
Zn7	Zn	1.774422	0.973170	0.149975
Zn8	Zn	2.024422	1.223170	0.399975
Zn9	Zn	1.135107	0.343878	-0.343810
Zn10	Zn	1.385107	0.593878	-0.093810
Zn11	Zn	1.635107	0.843878	0.156190
Zn12	Zn	1.885107	1.093878	0.406190
Zn13	Zn	1.135063	0.466877	-0.466820
Zn14	Zn	1.385063	0.716877	-0.216820
Zn15	Zn	1.635063	0.966877	0.033180
Zn16	Zn	1.885063	1.216877	0.283180
O17	O	1.204777	0.408506	-0.408437
O18	O	1.454777	0.658506	-0.158437
O19	O	1.704777	0.908506	0.091563
O20	O	1.954777	1.158506	0.341563
O21	O	1.391169	0.371661	-0.461996
O22	O	1.641169	0.621661	-0.211996
O23	O	1.891169	0.871661	0.038004
O24	O	2.141169	1.121661	0.288004
O25	O	1.255920	0.456050	-0.246215
O26	O	1.505920	0.706050	0.003785
O27	O	1.755920	0.956050	0.253785
O28	O	2.005920	1.206050	0.503785
O29	O	1.153657	0.241721	-0.360984
O30	O	1.403657	0.491721	-0.110984
O31	O	1.653657	0.741721	0.139016
O32	O	1.903657	0.991721	0.389016
O33	O	1.391100	0.462081	-0.371577
O34	O	1.641100	0.712081	-0.121577
O35	O	1.891100	0.962081	0.128423
O36	O	2.141100	1.212081	0.378423
O37	O	1.256080	0.246291	-0.455969
O38	O	1.506080	0.496291	-0.205969
O39	O	1.756080	0.746291	0.044031
O40	O	2.006080	0.996291	0.294031
O41	O	1.153566	0.361059	-0.241649
O42	O	1.403566	0.611059	0.008351
O43	O	1.653566	0.861059	0.258351
O44	O	1.903566	1.111059	0.508351
O45	O	1.018435	0.354957	-0.354900
O46	O	1.268435	0.604957	-0.104900
O47	O	1.518435	0.854957	0.145100
O48	O	1.768435	1.104957	0.395100
O49	O	1.153583	0.451355	-0.570637
O50	O	1.403583	0.701355	-0.320637
O51	O	1.653583	0.951355	-0.070637
O52	O	1.903583	1.201355	0.179363
O53	O	1.018404	0.445324	-0.445275
O54	O	1.268404	0.695324	-0.195275
O55	O	1.518404	0.945324	0.054725
O56	O	1.768404	1.195324	0.304725
O57	O	1.256038	0.365558	-0.575247
O58	O	1.506038	0.615558	-0.325247
O59	O	1.756038	0.865558	-0.075247
O60	O	2.006038	1.115558	0.174753
O61	O	1.255878	0.575317	-0.365493
O62	O	1.505878	0.825317	-0.115493
O63	O	1.755878	1.075317	0.134507
O64	O	2.005878	1.325317	0.384507
O65	O	1.153492	0.570694	-0.451302
O66	O	1.403492	0.820694	-0.201302
O67	O	1.653492	1.070694	0.048698
O68	O	1.903492	1.320694	0.298698
C69	C	0.988169	0.398783	-0.398733
C70	C	1.238169	0.648783	-0.148733
C71	C	1.488169	0.898783	0.101267
C72	C	1.738169	1.148783	0.351267
C73	C	0.895504	0.394642	-0.394599
C74	C	1.145504	0.644642	-0.144599
C75	C	1.395504	0.894642	0.105401
C76	C	1.645504	1.144642	0.355401
C77	C	1.204693	0.599708	-0.408408
C78	C	1.454693	0.849708	-0.158408
C79	C	1.704693	1.099708	0.091592
C80	C	1.954693	1.349708	0.341592
C81	C	1.204733	0.681509	-0.408424
C82	C	1.454733	0.931509	-0.158424
C83	C	1.704733	1.181509	0.091576
C84	C	1.954733	1.431509	0.341576
C85	C	1.204816	0.408449	-0.600392
C86	C	1.454816	0.658449	-0.350392
C87	C	1.704816	0.908449	-0.100392
C88	C	1.954816	1.158449	0.149608
C89	C	1.204833	0.408424	-0.682192
C90	C	1.454833	0.658424	-0.432192
C91	C	1.704833	0.908424	-0.182192
C92	C	1.954833	1.158424	0.067808
C93	C	0.725843	0.387063	-0.387057
C94	C	0.975843	0.637063	-0.137057
C95	C	1.225843	0.887063	0.112943
C96	C	1.475843	1.137063	0.362943
C97	C	0.684552	0.430003	-0.429871
C98	C	0.934552	0.680003	-0.179871
C99	C	1.184552	0.930003	0.070129
C100	C	1.434552	1.180003	0.320129
C101	C	0.590146	0.425786	-0.425675
C102	C	0.840146	0.675786	-0.175675
C103	C	1.090146	0.925786	0.074325
C104	C	1.340146	1.175786	0.324325
C105	C	0.820257	0.391279	-0.391252
C106	C	1.070257	0.641279	-0.141252
C107	C	1.320257	0.891279	0.108748
C108	C	1.570257	1.141279	0.358748
C109	C	1.422230	0.418267	-0.418180
C110	C	1.672230	0.668267	-0.168180
C111	C	1.922230	0.918267	0.081820
C112	C	2.172230	1.168267	0.331820
C113	C	1.514896	0.422426	-0.422332
C114	C	1.764896	0.672426	-0.172332
C115	C	2.014896	0.922426	0.077668
C116	C	2.264896	1.172426	0.327668
C117	C	1.258175	0.872092	-0.363845
C118	C	1.508175	1.122092	-0.113845
C119	C	1.758175	1.372092	0.136155
C120	C	2.008175	1.622092	0.386155
C121	C	1.258214	0.948952	-0.363869
C122	C	1.508214	1.198952	-0.113869
C123	C	1.758214	1.448952	0.136131
C124	C	2.008214	1.698952	0.386131
C125	C	1.151507	0.944173	-0.453140
C126	C	1.401507	1.194173	-0.203140
C127	C	1.651507	1.444173	0.046860
C128	C	1.901507	1.694173	0.296860
C129	C	1.151473	0.867315	-0.453120
C130	C	1.401473	1.117315	-0.203120
C131	C	1.651473	1.367315	0.046880
C132	C	1.901473	1.617315	0.296880
C133	C	1.204805	0.831276	-0.408468
C134	C	1.454805	1.081276	-0.158468
C135	C	1.704805	1.331276	0.091532
C136	C	1.954805	1.581276	0.341532
C137	C	1.204878	0.984995	-0.408512
C138	C	1.454878	1.234995	-0.158512
C139	C	1.704878	1.484995	0.091488
C140	C	1.954878	1.734995	0.341488
C141	C	1.204920	1.068330	-0.408538
C142	C	1.454920	1.318330	-0.158538
C143	C	1.704920	1.568330	0.091462
C144	C	1.954920	1.818330	0.341462
C145	C	1.204765	0.747935	-0.408443
C146	C	1.454765	0.997935	-0.158443
C147	C	1.704765	1.247935	0.091557
C148	C	1.954765	1.497935	0.341557
C149	C	1.204889	1.216558	-0.408497
C150	C	1.454889	1.466558	-0.158497
C151	C	1.704889	1.716558	0.091503
C152	C	1.954889	1.966558	0.341503
C153	C	1.204951	1.134762	-0.408557
C154	C	1.454951	1.384762	-0.158557
C155	C	1.704951	1.634762	0.091443
C156	C	1.954951	1.884762	0.341443
C157	C	1.151582	0.358933	-0.868011
C158	C	1.401582	0.608933	-0.618011
C159	C	1.651582	0.858933	-0.368011
C160	C	1.901582	1.108933	-0.118011
C161	C	1.151597	0.358919	-0.944870
C162	C	1.401597	0.608919	-0.694870
C163	C	1.651597	0.858919	-0.444870
C164	C	1.901597	1.108919	-0.194870
C165	C	1.258184	0.457832	-0.949615
C166	C	1.508184	0.707832	-0.699615
C167	C	1.758184	0.957832	-0.449615
C168	C	2.008184	1.207832	-0.199615
C169	C	1.258164	0.457850	-0.872756
C170	C	1.508164	0.707850	-0.622756
C171	C	1.758164	0.957850	-0.372756
C172	C	2.008164	1.207850	-0.122756
C173	C	1.204865	0.408396	-0.831957
C174	C	1.454865	0.658396	-0.581957
C175	C	1.704865	0.908396	-0.331957
C176	C	1.954865	1.158396	-0.081957
C177	C	1.204899	0.408364	-0.985674
C178	C	1.454899	0.658364	-0.735674
C179	C	1.704899	0.908364	-0.485674
C180	C	1.954899	1.158364	-0.235674
C181	C	1.204915	0.408349	-1.069009
C182	C	1.454915	0.658349	-0.819009
C183	C	1.704915	0.908349	-0.569009
C184	C	1.954915	1.158349	-0.319009
C185	C	1.204847	0.408412	-0.748617
C186	C	1.454847	0.658412	-0.498617
C187	C	1.704847	0.908412	-0.248617
C188	C	1.954847	1.158412	0.001383
C189	C	1.204786	0.408512	-0.217231
C190	C	1.454786	0.658512	0.032769
C191	C	1.704786	0.908512	0.282769
C192	C	1.954786	1.158512	0.532769
C193	C	1.204930	0.408336	-0.135439
C194	C	1.454930	0.658336	0.114561
C195	C	1.704930	0.908336	0.364561
C196	C	1.954930	1.158336	0.614561
H197	H	0.720102	0.469930	-0.469677
H198	H	0.970102	0.719930	-0.219677
H199	H	1.220102	0.969930	0.030323
H200	H	1.470102	1.219930	0.280323
O201	O	1.315674	0.511169	-0.993617
O202	O	1.565674	0.761169	-0.743617
O203	O	1.815674	1.011169	-0.493617
O204	O	2.065674	1.261169	-0.243617
H205	H	1.358124	0.480127	-1.030537
H206	H	1.608124	0.730127	-0.780537
H207	H	1.858124	0.980127	-0.530537
H208	H	2.108124	1.230127	-0.280537
H209	H	1.108182	0.318665	-0.834794
H210	H	1.358182	0.568665	-0.584794
H211	H	1.608182	0.818665	-0.334794
H212	H	1.858182	1.068665	-0.084794
H213	H	0.690295	0.347139	-0.347254
H214	H	0.940295	0.597139	-0.097254
H215	H	1.190295	0.847139	0.152746
H216	H	1.440295	1.097139	0.402746
O217	O	1.315705	0.833218	-0.315697
O218	O	1.565705	1.083218	-0.065697
O219	O	1.815705	1.333218	0.184303
O220	O	2.065705	1.583218	0.434303
H221	H	1.352829	0.874516	-0.284679
H222	H	1.602829	1.124516	-0.034679
H223	H	1.852829	1.374516	0.215321
H224	H	2.102829	1.624516	0.465321
O225	O	1.093906	0.823289	-0.501255
O226	O	1.343906	1.073289	-0.251255
O227	O	1.593906	1.323289	-0.001255
O228	O	1.843906	1.573289	0.248745
H229	H	1.102851	0.763790	-0.493745
H230	H	1.352851	1.013790	-0.243745
H231	H	1.602851	1.263790	0.006255
H232	H	1.852851	1.513790	0.256255
H233	H	1.301674	0.982181	-0.327534
H234	H	1.551674	1.232181	-0.077534
H235	H	1.801674	1.482181	0.172466
H236	H	2.051674	1.732181	0.422466
H237	H	1.108084	0.973526	-0.489493
H238	H	1.358084	1.223526	-0.239493
H239	H	1.608084	1.473526	0.010507
H240	H	1.858084	1.723526	0.260507
O241	O	1.094134	0.305565	-0.983761
O242	O	1.344134	0.555565	-0.733761
O243	O	1.594134	0.805565	-0.483761
O244	O	1.844134	1.055565	-0.233761
H245	H	1.057077	0.271178	-0.942475
H246	H	1.307077	0.521178	-0.692475
H247	H	1.557077	0.771178	-0.442475
H248	H	1.807077	1.021178	-0.192475
H249	H	1.301556	0.498131	-0.843401
H250	H	1.551556	0.748131	-0.593401
H251	H	1.801556	0.998131	-0.343401
H252	H	2.051556	1.248131	-0.093401
