data_functionalizedCrystal
_audit_creation_method	'MofGen! by Chris Wilmer'
_symmetry_space_group_name_H-M	'P1'
_symmetry_Int_Tables_number	1
_symmetry_cell_setting	triclinic
loop_
_symmetry_equiv_pos_as_xyz
  x,y,z
_cell_length_a	17.038272
_cell_length_b	17.038272
_cell_length_c	15.500227
_cell_angle_alpha	93.033254
_cell_angle_beta	86.956295
_cell_angle_gamma	91.111556
loop_
_atom_site_label
_atom_site_type_symbol
_atom_site_fract_x
_atom_site_fract_y
_atom_site_fract_z
O1	O	1.052160	0.167139	-0.071836
O2	O	0.824350	0.164430	-0.071862
O3	O	0.936901	0.051879	-0.071842
O4	O	0.939609	0.279690	-0.071856
O5	O	0.930069	0.058680	0.072045
O6	O	0.817518	0.171231	0.072026
O7	O	1.045328	0.173940	0.072051
Cu8	Cu	0.930799	0.173207	0.085177
Cu9	Cu	0.938879	0.165164	-0.084987
O10	O	0.932777	0.286491	0.072032
C11	C	0.791641	0.165368	0.000079
C12	C	0.704358	0.158019	0.000069
C13	C	0.658749	0.225482	0.000066
C14	C	0.576737	0.218574	0.000078
C15	C	0.540335	0.144201	0.000088
C16	C	0.585950	0.076733	0.000094
C17	C	0.667961	0.083642	0.000088
C18	C	0.292946	0.119792	0.000112
C19	C	0.210929	0.112887	0.000116
C20	C	0.201721	0.254729	0.000102
C21	C	0.283734	0.261632	0.000091
C22	C	0.329342	0.194164	0.000101
C23	C	0.456505	0.137138	0.000098
C24	C	0.413170	0.201228	0.000098
C25	C	0.931022	0.025987	0.000101
C26	C	0.923674	-0.061297	0.000100
C27	C	0.991137	-0.106906	0.000108
C28	C	0.984229	-0.188918	0.000100
C29	C	0.909856	-0.225320	0.000088
C30	C	0.842388	-0.179705	0.000077
C31	C	0.849297	-0.097694	0.000080
C32	C	0.885446	-0.472708	0.000074
C33	C	0.878541	-0.554725	0.000074
C34	C	1.020383	-0.563932	0.000094
C35	C	1.027286	-0.481919	0.000102
C36	C	0.959818	-0.436312	0.000087
C37	C	0.902792	-0.309149	0.000082
C38	C	0.966882	-0.352484	0.000087
C39	C	1.078037	0.173003	0.000109
C40	C	1.165320	0.180351	0.000113
C41	C	0.938656	0.312383	0.000087
C42	C	0.946004	0.399667	0.000082
N43	N	0.925122	0.178864	0.204861
N44	N	0.944561	0.159501	-0.204671
C45	C	0.972833	0.131192	0.250145
C46	C	0.968547	0.135478	0.340718
C47	C	0.916555	0.187440	0.386003
C48	C	0.868839	0.235114	0.340712
C49	C	0.873121	0.230823	0.250142
C50	C	0.901128	0.202884	0.659467
C51	C	0.896851	0.207172	0.750044
C52	C	0.996559	0.107535	0.750044
C53	C	1.000840	0.103252	0.659471
C54	C	0.953121	0.150923	0.614188
C55	C	0.912174	0.191824	0.478582
C56	C	0.957498	0.146534	0.521610
H57	H	0.705095	0.028706	0.000090
O58	O	1.051117	0.052696	0.615252
C59	C	1.104852	0.095220	0.562554
H60	H	1.109509	0.158500	0.589834
H61	H	1.165027	0.066935	0.561156
H62	H	1.083474	0.094612	0.494059
H63	H	0.869842	0.234135	0.515461
H64	H	1.015175	0.088882	0.213280
O65	O	0.532551	0.284187	0.000036
C66	C	0.582265	0.351312	0.000043
H67	H	0.643363	0.334155	-0.027204
H68	H	0.557324	0.396940	-0.041734
H69	H	0.586307	0.377119	0.069069
H70	H	0.426857	0.076584	0.000130
H71	H	0.842237	-0.338796	0.000075
H72	H	1.087848	-0.452287	0.000111
O73	O	1.063322	-0.071421	0.000157
C74	C	1.054959	0.010744	0.000136
H75	H	0.993661	0.027191	0.027373
H76	H	1.100896	0.040940	0.041915
H77	H	1.063558	0.030540	-0.068893
O78	O	0.175692	0.040579	0.000163
C79	C	0.233532	-0.017491	0.000148
H80	H	0.289352	0.009509	0.027389
H81	H	0.211073	-0.067111	0.041925
H82	H	0.246942	-0.041826	-0.068881
H83	H	1.007397	0.096659	0.377588
O84	O	0.157496	0.320327	0.000214
C85	C	0.171193	0.368672	0.074741
H86	H	0.230872	0.354694	0.099583
H87	H	0.170581	0.432995	0.057978
H88	H	0.123205	0.357421	0.126928
O89	O	1.042865	0.061109	0.793940
C90	C	1.025956	-0.018535	0.771837
H91	H	0.998804	-0.023579	0.706080
H92	H	1.082558	-0.053403	0.768740
H93	H	0.982836	-0.043025	0.822819
H94	H	0.330070	0.064854	0.000122
H95	H	0.781832	-0.209350	0.000063
O96	O	0.694149	0.297705	-0.000099
C97	C	0.744851	0.302417	-0.074614
H98	H	0.725217	0.257626	-0.126694
H99	H	0.742888	0.364037	-0.099633
H100	H	0.807447	0.289400	-0.057770
O101	O	0.818288	0.285484	0.384797
C102	C	0.764557	0.242654	0.437188
H103	H	0.791110	0.183943	0.450761
H104	H	0.751304	0.277617	0.500873
H105	H	0.707810	0.231771	0.402295
O106	O	0.550716	0.004428	0.000139
C107	C	0.608562	-0.053636	0.000118
H108	H	0.664381	-0.026633	0.027358
H109	H	0.586110	-0.103260	0.041893
H110	H	0.621972	-0.077968	-0.068912
O111	O	0.318996	0.333921	-0.000036
C112	C	0.299683	0.371832	-0.074573
H113	H	0.242627	0.345459	-0.099405
H114	H	0.291855	0.437266	-0.057826
H115	H	0.348946	0.363427	-0.126761
O116	O	0.826860	0.277249	0.206187
C117	C	0.843732	0.356896	0.228317
H118	H	0.905455	0.362680	0.253205
H119	H	0.840133	0.392880	0.168747
H120	H	0.799251	0.379532	0.280891
H121	H	1.039164	-0.226049	0.000108
O122	O	1.085839	-0.608354	0.000063
C123	C	1.063796	-0.688544	0.000080
H124	H	1.003196	-0.697074	-0.027166
H125	H	1.108447	-0.724624	-0.041693
H126	H	1.061922	-0.708778	0.069109
H127	H	0.830508	-0.435584	0.000061
H128	H	0.854510	0.249490	0.786912
O129	O	0.854749	0.249274	0.615621
C130	C	0.807931	0.296043	0.675016
H131	H	0.837140	0.302147	0.739570
H132	H	0.801354	0.356718	0.648840
H133	H	0.747442	0.267086	0.684666
H134	H	0.794361	-0.060560	0.000073
O135	O	0.806234	-0.589963	0.000015
C136	C	0.748164	-0.532123	0.000019
H137	H	0.775173	-0.476297	-0.027214
H138	H	0.698559	-0.554574	-0.041770
H139	H	0.723805	-0.518727	0.069043
O140	O	0.448569	0.273448	-0.000068
C141	C	0.499274	0.278145	-0.074582
H142	H	0.479635	0.233352	-0.126658
H143	H	0.497321	0.339763	-0.099609
H144	H	0.561867	0.265120	-0.057735
O145	O	1.039088	-0.317043	-0.000018
C146	C	1.050875	-0.273414	-0.074547
H147	H	0.991514	-0.258310	-0.099405
H148	H	1.084944	-0.216897	-0.057780
H149	H	1.085696	-0.309752	-0.126723
O150	O	1.007881	0.095989	0.477546
C151	C	0.965053	0.042225	0.425213
H152	H	0.906333	0.068758	0.411639
H153	H	1.000009	0.028948	0.361524
H154	H	0.954185	-0.014504	0.460155
