data_functionalizedCrystal
_audit_creation_method	'MofGen! by Chris Wilmer'
_symmetry_space_group_name_H-M	'P1'
_symmetry_Int_Tables_number	1
_symmetry_cell_setting	triclinic
loop_
_symmetry_equiv_pos_as_xyz
  x,y,z
_cell_length_a	23.532407
_cell_length_b	14.044220
_cell_length_c	13.101039
_cell_angle_alpha	86.332523
_cell_angle_beta	93.331090
_cell_angle_gamma	88.018778
loop_
_atom_site_label
_atom_site_type_symbol
_atom_site_fract_x
_atom_site_fract_y
_atom_site_fract_z
O1	O	-0.764355	-0.109759	-0.085088
O2	O	-0.264355	0.390241	0.414912
O3	O	-0.599394	-0.126398	-0.085118
O4	O	-0.099394	0.373602	0.414882
O5	O	-0.679398	0.019883	-0.085094
O6	O	-0.179398	0.519883	0.414906
O7	O	-0.684351	-0.256039	-0.085113
O8	O	-0.184351	0.243961	0.414887
O9	O	-0.673659	0.009370	0.085335
O10	O	-0.173659	0.509370	0.585335
O11	O	-0.593655	-0.136910	0.085310
O12	O	-0.093655	0.363090	0.585310
O13	O	-0.758615	-0.120271	0.085340
O14	O	-0.258615	0.379729	0.585340
Zn15	Zn	-0.675224	-0.130260	0.112384
Zn16	Zn	-0.175224	0.369740	0.612384
Zn17	Zn	-0.682786	-0.116409	-0.112162
Zn18	Zn	-0.182786	0.383591	0.387838
O19	O	-0.678612	-0.266552	0.085315
O20	O	-0.178612	0.233448	0.585315
C21	C	-0.575286	-0.131230	0.000092
C22	C	-0.075286	0.368770	0.500092
C23	C	-0.512000	-0.129955	0.000081
C24	C	-0.012000	0.370045	0.500081
C25	C	-0.674361	0.049920	0.000121
C26	C	-0.174361	0.549920	0.500121
C27	C	-0.667895	0.155085	0.000121
C28	C	-0.167895	0.655085	0.500121
C29	C	-0.782724	-0.115439	0.000128
C30	C	-0.282724	0.384561	0.500128
C31	C	-0.846010	-0.116713	0.000132
C32	C	-0.346010	0.383287	0.500132
C33	C	-0.117154	-0.208533	0.000121
C34	C	0.382846	0.291467	0.500121
C35	C	-0.057690	-0.207350	0.000128
C36	C	0.442310	0.292650	0.500128
O37	O	-0.024892	-0.280192	0.000160
O38	O	0.475108	0.219808	0.500160
N39	N	-0.030350	-0.120386	0.000132
N40	N	0.469650	0.379614	0.500132
C41	C	-0.062478	-0.034600	0.000141
C42	C	0.437522	0.465400	0.500141
O43	O	-0.033763	0.039479	0.000146
O44	O	0.466237	0.539479	0.500146
C45	C	-0.121941	-0.035784	0.000142
C46	C	0.378059	0.464216	0.500142
C47	C	-0.149278	-0.122754	0.000127
C48	C	0.350722	0.377246	0.500127
C49	C	-0.144492	-0.295495	0.000108
C50	C	0.355508	0.204505	0.500108
C51	C	-0.203952	-0.296678	0.000100
C52	C	0.296048	0.203322	0.500100
C53	C	-0.236076	-0.210898	0.000105
C54	C	0.263924	0.289102	0.500105
C55	C	-0.208738	-0.123936	0.000119
C56	C	0.291262	0.376064	0.500119
C57	C	-0.154067	0.050000	0.000157
C58	C	0.345933	0.550000	0.500157
C59	C	-0.213534	0.048808	0.000159
C60	C	0.286466	0.548808	0.500159
C61	C	-0.240871	-0.038161	0.000144
C62	C	0.259129	0.461839	0.500144
C63	C	-0.300322	-0.039339	0.000116
C64	C	0.199678	0.460661	0.500116
N65	N	-0.327662	-0.126303	0.000111
N66	N	0.172338	0.373697	0.500111
C67	C	-0.295539	-0.212083	0.000106
C68	C	0.204461	0.287917	0.500106
C69	C	0.062399	-0.032119	0.000140
C70	C	0.562399	0.467881	0.500140
C71	C	0.121861	-0.030933	0.000132
C72	C	0.621861	0.469067	0.500132
C73	C	0.126645	-0.203683	0.000121
C74	C	0.626645	0.296317	0.500121
C75	C	0.067182	-0.204868	0.000122
C76	C	0.567182	0.295132	0.500122
C77	C	0.035060	-0.119083	0.000136
C78	C	0.535060	0.380917	0.500136
C79	C	-0.420411	-0.214560	0.000088
C80	C	0.079589	0.285440	0.500088
C81	C	-0.479877	-0.215735	0.000075
C82	C	0.020123	0.284265	0.500075
C83	C	-0.484655	-0.042985	0.000092
C84	C	0.015345	0.457015	0.500092
C85	C	-0.425194	-0.041809	0.000099
C86	C	0.074806	0.458191	0.500099
C87	C	-0.393073	-0.127605	0.000100
C88	C	0.106927	0.372395	0.500100
O89	O	-0.333156	0.033464	0.000088
O90	O	0.166844	0.533464	0.500088
O91	O	-0.324261	-0.286150	0.000114
O92	O	0.175739	0.213850	0.500114
C93	C	-0.683649	-0.296589	0.000099
C94	C	-0.183649	0.203411	0.500099
C95	C	-0.690115	-0.401754	0.000092
C96	C	-0.190115	0.098246	0.500092
N97	N	-0.670067	-0.139712	0.265631
N98	N	-0.170067	0.360288	0.765631
C99	C	-0.656074	0.347636	0.000104
C100	C	-0.156074	0.847636	0.500104
C101	C	-0.701933	0.405701	0.000109
C102	C	-0.201933	0.905701	0.500109
C103	C	-0.695356	0.512843	0.000100
C104	C	-0.195356	1.012843	0.500100
C105	C	-0.662651	0.240484	0.000113
C106	C	-0.162651	0.740484	0.500113
N107	N	-0.687946	-0.106949	-0.265409
N108	N	-0.187946	0.393051	0.234591
C109	C	-0.663052	-0.152581	0.474671
C110	C	-0.163052	0.347419	0.974671
C111	C	-0.694960	-0.094083	0.525557
C112	C	-0.194960	0.405917	1.025557
C113	C	-0.691057	-0.101244	0.641874
C114	C	-0.191057	0.398756	1.141874
C115	C	-0.666955	-0.145422	0.358344
C116	C	-0.166955	0.354578	0.858344
H117	H	-0.502131	-0.286558	0.000063
H118	H	-0.002131	0.213442	0.500063
H119	H	-0.725209	-0.038625	0.481764
H120	H	-0.225209	0.461375	0.981764
N121	N	-0.760482	0.364967	0.000145
N122	N	-0.260482	0.864967	0.500145
H123	H	-0.790171	0.418648	0.000153
H124	H	-0.290171	0.918648	0.500153
H125	H	-0.767333	0.328354	-0.063026
H126	H	-0.267333	0.828354	0.436974
H127	H	0.144113	0.039887	0.000128
H128	H	0.644113	0.539887	0.500128
H129	H	-0.632806	-0.208037	0.518459
H130	H	-0.132806	0.291963	1.018459
H131	H	-0.510821	0.026855	0.000092
H132	H	-0.010821	0.526855	0.500092
N133	N	-0.597530	0.388374	0.000103
N134	N	-0.097530	0.888374	0.500103
H135	H	-0.574023	0.362193	0.063282
H136	H	-0.074023	0.862193	0.563282
H137	H	-0.578316	0.369970	-0.063115
H138	H	-0.078316	0.869970	0.436885
N139	N	-0.385770	-0.307095	0.000114
N140	N	0.114230	0.192905	0.500114
H141	H	-0.412118	-0.362358	0.000110
H142	H	0.087882	0.137642	0.500110
H143	H	-0.363111	-0.306489	-0.063057
H144	H	0.136889	0.193511	0.436943
H145	H	-0.226205	-0.367497	0.000087
H146	H	0.273795	0.132503	0.500087
N147	N	-0.109848	-0.388026	0.000160
N148	N	0.390152	0.111974	0.500160
H149	H	-0.136197	-0.443288	0.000171
H150	H	0.363803	0.056712	0.500171
H151	H	-0.087184	-0.387442	-0.063004
H152	H	0.412816	0.112558	0.436996
H153	H	0.152811	-0.273530	0.000122
H154	H	0.652811	0.226470	0.500122
N155	N	0.037699	-0.298668	0.000103
N156	N	0.537699	0.201332	0.500103
H157	H	0.067077	-0.352824	0.000095
H158	H	0.567077	0.147176	0.500095
H159	H	0.015257	-0.306828	0.063283
H160	H	0.515257	0.193172	0.563283
N161	N	-0.124595	0.143806	0.000185
N162	N	0.375405	0.643806	0.500185
H163	H	-0.097910	0.144249	0.063367
H164	H	0.402090	0.644249	0.563367
H165	H	-0.102186	0.152010	-0.063031
H166	H	0.397814	0.652010	0.436969
H167	H	-0.239685	0.118666	0.000171
H168	H	0.260315	0.618666	0.500171
N169	N	0.027760	0.060419	0.000137
N170	N	0.527760	0.560419	0.500137
H171	H	0.000858	0.067679	-0.063041
H172	H	0.500858	0.567679	0.436959
H173	H	0.005142	0.059836	0.063356
H174	H	0.505142	0.559836	0.563356
N175	N	-0.395705	0.051991	0.000095
N176	N	0.104295	0.551991	0.500095
H177	H	-0.425081	0.106152	0.000092
H178	H	0.074919	0.606152	0.500092
H179	H	-0.369019	0.052350	0.063281
H180	H	0.130981	0.552350	0.563281
