data_functionalizedCrystal
_audit_creation_method	'MofGen! by Chris Wilmer'
_symmetry_space_group_name_H-M	'P1'
_symmetry_Int_Tables_number	1
_symmetry_cell_setting	triclinic
loop_
_symmetry_equiv_pos_as_xyz
  x,y,z
_cell_length_a	10.654562
_cell_length_b	10.654550
_cell_length_c	9.730223
_cell_angle_alpha	90.003237
_cell_angle_beta	90.006101
_cell_angle_gamma	84.487503
loop_
_atom_site_label
_atom_site_type_symbol
_atom_site_fract_x
_atom_site_fract_y
_atom_site_fract_z
O1	O	1.667830	0.176474	0.114377
O2	O	1.302353	0.193264	0.114359
O3	O	1.493495	0.002130	0.114363
O4	O	1.476689	0.367608	0.114373
O5	O	1.493482	0.002125	-0.114217
O6	O	1.302341	0.193258	-0.114221
O7	O	1.667817	0.176469	-0.114203
Zn8	Zn	1.485077	0.184863	-0.150504
Zn9	Zn	1.485094	0.184870	0.150660
O10	O	1.476676	0.367603	-0.114207
C11	C	1.255549	0.192025	0.000067
C12	C	1.116107	0.188327	0.000060
C13	C	1.050569	0.186599	-0.124528
C14	C	0.919547	0.183134	-0.124505
C15	C	0.919611	0.183130	0.124705
C16	C	1.050632	0.186586	0.124681
C17	C	1.116045	0.188339	-0.249149
C18	C	1.050507	0.186613	-0.373747
C19	C	0.919485	0.183148	-0.373724
C20	C	0.854000	0.181410	-0.249103
C21	C	1.492254	-0.044671	0.000075
C22	C	1.488563	-0.184114	0.000079
C23	C	1.601103	-0.263595	0.000081
C24	C	1.597627	-0.394615	0.000090
C25	C	1.369059	-0.366662	0.000091
C26	C	1.372537	-0.235644	0.000092
C27	C	1.717129	-0.212064	0.000068
C28	C	1.829680	-0.291546	0.000068
C29	C	1.826203	-0.422567	0.000077
C30	C	1.710176	-0.474106	0.000087
C31	C	1.714621	0.177708	0.000092
C32	C	1.854064	0.181406	0.000108
C33	C	1.477916	0.414403	0.000084
C34	C	1.481608	0.553847	0.000088
N35	N	1.485075	0.184857	-0.356040
C36	C	1.569742	0.100260	-0.427965
C37	C	1.569754	0.100260	-0.571848
C38	C	1.400430	0.269467	-0.571870
C39	C	1.400412	0.269460	-0.427989
N40	N	1.485105	0.184865	0.356196
H41	H	0.866283	0.181718	0.226166
H42	H	1.638696	0.031371	-0.630404
H43	H	0.866129	0.181732	-0.475178
H44	H	1.331501	0.338351	-0.630465
H45	H	0.747313	0.178585	-0.249094
Br46	Br	1.705461	-0.651923	0.000036
Br47	Br	1.285490	0.384269	-0.330366
H48	H	1.103993	0.187999	0.226132
Br49	Br	1.721854	-0.034252	0.000046
H50	H	1.638678	0.031369	-0.369387
H51	H	1.222729	0.191165	-0.249181
Br52	Br	1.139376	0.188952	-0.542867
Br53	Br	1.978945	-0.530433	0.000097
Br54	Br	1.987136	-0.221604	0.000080
H55	H	1.274595	-0.408637	0.000097
H56	H	1.280896	-0.170928	0.000089
