data_functionalizedCrystal
_audit_creation_method	'MofGen! by Chris Wilmer'
_symmetry_space_group_name_H-M	'P1'
_symmetry_Int_Tables_number	1
_symmetry_cell_setting	triclinic
loop_
_symmetry_equiv_pos_as_xyz
  x,y,z
_cell_length_a	14.853567
_cell_length_b	9.565339
_cell_length_c	14.853576
_cell_angle_alpha	89.998711
_cell_angle_beta	83.636707
_cell_angle_gamma	90.000587
loop_
_atom_site_label
_atom_site_type_symbol
_atom_site_fract_x
_atom_site_fract_y
_atom_site_fract_z
O1	O	1.196368	0.116160	0.117697
O2	O	0.933909	0.116184	0.131719
O3	O	1.072145	0.116166	-0.006521
O4	O	1.058132	0.116178	0.255937
O5	O	1.072134	-0.116354	-0.006513
O6	O	0.933898	-0.116336	0.131727
O7	O	1.196357	-0.116360	0.117706
Zn8	Zn	1.065126	-0.153266	0.124718
Zn9	Zn	1.065140	0.153090	0.124707
O10	O	1.058121	-0.116342	0.255946
C11	C	0.900315	-0.000073	0.131088
C12	C	0.800231	-0.000064	0.129184
N13	N	1.065122	-0.362345	0.124725
C14	C	0.387694	-0.000100	0.039018
C15	C	0.366418	-0.000091	0.203251
C16	C	0.460452	-0.000086	0.205041
C17	C	0.518112	-0.000086	0.123818
C18	C	0.481737	-0.000091	0.040806
C19	C	0.496834	-0.000067	0.288052
C20	C	0.590873	-0.000061	0.289845
C21	C	0.648534	-0.000071	0.208622
C22	C	0.612154	-0.000078	0.125606
C23	C	0.669814	-0.000078	0.044384
C24	C	0.633436	-0.000094	-0.038633
C25	C	0.539398	-0.000101	-0.040417
C26	C	0.742572	-0.000064	0.210406
C27	C	0.763856	-0.000069	0.046171
C28	C	1.001174	-0.453540	0.188635
C29	C	1.082664	-0.546725	0.206231
C30	C	0.983668	-0.546715	0.107137
C31	C	1.146654	-0.453479	0.142361
C32	C	1.047604	-0.453460	0.043232
C33	C	1.129153	-0.546604	0.060792
C34	C	1.229951	-0.000100	0.118337
C35	C	1.330035	-0.000100	0.120241
C36	C	1.071503	-0.000093	-0.040106
C37	C	1.069596	-0.000088	-0.140189
N38	N	1.065151	0.362169	0.124692
C39	C	1.068705	0.126665	-0.187208
C40	C	1.068703	-0.126837	-0.187212
C41	C	1.066916	-0.126837	-0.281247
C42	C	1.066025	-0.000084	-0.328266
C43	C	1.066921	0.126669	-0.281252
C44	C	1.066030	-0.253588	-0.328269
C45	C	1.064244	-0.253593	-0.422309
C46	C	1.063346	-0.126838	-0.469330
C47	C	1.064241	-0.000080	-0.422309
C48	C	1.063349	0.126673	-0.469329
C49	C	1.064237	0.253433	-0.422309
C50	C	1.066023	0.253424	-0.328272
C51	C	1.061561	-0.126829	-0.563367
C52	C	1.061565	0.126677	-0.563372
C53	C	1.058763	-0.000081	0.289530
C54	C	1.060670	-0.000076	0.389613
H55	H	0.810798	-0.000074	-0.019971
C56	C	1.066958	-0.391052	-0.277053
C57	C	1.068682	-0.363920	-0.184632
C58	C	1.069524	-0.490523	-0.137417
H59	H	1.119186	-0.443233	-0.299153
H60	H	1.014116	-0.443147	-0.285606
H61	H	1.121518	-0.311847	-0.176084
H62	H	1.016458	-0.311760	-0.162505
H63	H	1.016682	-0.542618	-0.145971
H64	H	1.121753	-0.542694	-0.159525
H65	H	1.070685	-0.472132	-0.074704
H66	H	1.060841	-0.230035	-0.601647
H67	H	0.680394	-0.000085	-0.104764
H68	H	0.509770	-0.000148	-0.108005
C69	C	0.434384	0.000015	0.376328
C70	C	0.486367	0.000075	0.449411
C71	C	0.428865	0.000171	0.530748
H72	H	0.397240	-0.081051	0.379180
H73	H	0.397269	0.081129	0.379083
H74	H	0.523466	-0.081031	0.446658
H75	H	0.523509	0.081135	0.446589
H76	H	0.391749	0.081285	0.533502
H77	H	0.391723	-0.080897	0.533590
H78	H	0.464126	0.000224	0.580344
H79	H	0.358071	-0.000118	-0.028572
C80	C	0.303712	0.000129	0.291360
C81	C	0.249087	0.119735	0.295116
C82	C	0.191299	0.119972	0.376267
H83	H	0.338730	0.000202	0.341131
H84	H	0.266533	-0.080916	0.294082
H85	H	0.286262	0.200759	0.292404
H86	H	0.214050	0.119687	0.245365
H87	H	0.154119	0.038928	0.378988
H88	H	0.226324	0.120042	0.426031
H89	H	0.154223	0.201117	0.378822
C90	C	0.630408	0.000252	0.379951
C91	C	0.683749	0.119905	0.385777
C92	C	0.720171	0.120255	0.468776
H93	H	0.666714	-0.080732	0.384167
H94	H	0.582619	0.000334	0.428088
H95	H	0.731532	0.119810	0.337654
H96	H	0.647464	0.200908	0.381577
H97	H	0.672382	0.120337	0.516913
H98	H	0.756473	0.039266	0.472985
H99	H	0.756361	0.201443	0.472744
C100	C	0.782121	0.000241	0.300500
C101	C	0.835469	0.119886	0.306325
C102	C	0.871905	0.120221	0.389316
H103	H	0.818424	-0.080748	0.304706
H104	H	0.734339	0.000322	0.348645
H105	H	0.883245	0.119793	0.258194
H106	H	0.799186	0.200894	0.302135
H107	H	0.824123	0.120302	0.437460
H108	H	0.908205	0.039227	0.393514
H109	H	0.908099	0.201405	0.393282
H110	H	0.947143	-0.412678	0.242732
C111	C	0.891716	-0.601125	0.087437
C112	C	0.825020	-0.553939	0.154563
C113	C	0.740301	-0.604011	0.136446
H114	H	0.892424	-0.700423	0.087040
H115	H	0.878775	-0.567776	0.030012
H116	H	0.837958	-0.587295	0.211973
H117	H	0.824283	-0.454647	0.154971
H118	H	0.727359	-0.570661	0.079021
H119	H	0.741018	-0.703307	0.136048
H120	H	0.695037	-0.571991	0.181982
H121	H	1.097500	-0.587691	0.275133
H122	H	1.215566	-0.412696	0.157306
C123	C	1.201489	-0.600686	-0.011184
C124	C	1.286584	-0.553215	0.007643
C125	C	1.353244	-0.603027	-0.058630
H126	H	1.189649	-0.567371	-0.068956
H127	H	1.200833	-0.700004	-0.011127
H128	H	1.287238	-0.453918	0.007576
H129	H	1.298453	-0.586527	0.065403
H130	H	1.352588	-0.702344	-0.058573
H131	H	1.341395	-0.569708	-0.116398
H132	H	1.410989	-0.570836	-0.045861
C133	C	1.060631	0.264446	-0.614260
C134	C	1.061805	0.375444	-0.552955
C135	C	1.060950	0.502376	-0.599800
H136	H	1.007415	0.269898	-0.644143
H137	H	1.112485	0.269812	-0.657735
H138	H	1.009956	0.370081	-0.509497
H139	H	1.115017	0.370038	-0.523070
H140	H	1.112804	0.507741	-0.643275
H141	H	1.007734	0.507813	-0.629681
H142	H	1.061755	0.577703	-0.558213
H143	H	1.032742	-0.412462	-0.025649
H144	H	1.063517	0.356635	-0.460606
H145	H	1.066749	0.356625	-0.289981
H146	H	1.069424	0.229870	-0.148921
H147	H	1.069436	-0.230033	-0.148924
H148	H	1.063521	-0.356808	-0.460585
