data_functionalizedCrystal
_audit_creation_method	'MofGen! by Chris Wilmer'
_symmetry_space_group_name_H-M	'P1'
_symmetry_Int_Tables_number	1
_symmetry_cell_setting	triclinic
loop_
_symmetry_equiv_pos_as_xyz
  x,y,z
_cell_length_a	12.645331
_cell_length_b	29.839126
_cell_length_c	12.645330
_cell_angle_alpha	89.981556
_cell_angle_beta	90.011881
_cell_angle_gamma	89.986835
loop_
_atom_site_label
_atom_site_type_symbol
_atom_site_fract_x
_atom_site_fract_y
_atom_site_fract_z
Zn1	Zn	1.620741	-0.253945	-0.422142
Zn2	Zn	1.620647	-0.178823	-0.599404
Zn3	Zn	1.443464	-0.178837	-0.422152
Zn4	Zn	1.443453	-0.253933	-0.599362
O5	O	1.532076	-0.216384	-0.510765
O6	O	1.769076	-0.243980	-0.445670
O7	O	1.597108	-0.115958	-0.575913
O8	O	1.467024	-0.188811	-0.273804
O9	O	1.769006	-0.188788	-0.575903
O10	O	1.597269	-0.243993	-0.273796
O11	O	1.466932	-0.115968	-0.445687
O12	O	1.295115	-0.188799	-0.445646
O13	O	1.467006	-0.316802	-0.575831
O14	O	1.295108	-0.243972	-0.575841
O15	O	1.597259	-0.316811	-0.445629
O16	O	1.597097	-0.188775	-0.747745
O17	O	1.466914	-0.243958	-0.747715
C18	C	1.256647	-0.216386	-0.510741
C19	C	1.138817	-0.216397	-0.510756
C20	C	0.971283	-0.250925	-0.593111
C21	C	1.093843	-0.251069	-0.592845
C22	C	1.094327	-0.229333	-0.399106
C23	C	0.971729	-0.229576	-0.399608
C24	C	0.971579	-0.168823	-0.539153
C25	C	1.094185	-0.169079	-0.541595
C26	C	1.532142	-0.333563	-0.510724
C27	C	1.532170	-0.383497	-0.510707
C28	C	1.464409	-0.693149	-0.442792
C29	C	1.464439	-0.880822	-0.442719
O30	O	1.406773	-0.905094	-0.385081
N31	N	1.532220	-0.904283	-0.510508
C32	C	1.599994	-0.880822	-0.578326
O33	O	1.657639	-0.905083	-0.635991
C34	C	1.599958	-0.693150	-0.578404
C35	C	1.532180	-0.669692	-0.510602
C36	C	1.396635	-0.669691	-0.374997
C37	C	1.396632	-0.622775	-0.375012
C38	C	1.464403	-0.599318	-0.442822
C39	C	1.532177	-0.622776	-0.510617
C40	C	1.667725	-0.669690	-0.646226
C41	C	1.667709	-0.622769	-0.646241
C42	C	1.599930	-0.599311	-0.578440
C43	C	1.599945	-0.552403	-0.578442
N44	N	1.532164	-0.528943	-0.510653
C45	C	1.464393	-0.552400	-0.442843
C46	C	1.600010	-0.979353	-0.578278
C47	C	1.600020	-1.026270	-0.578258
C48	C	1.464463	-1.026267	-0.442652
C49	C	1.464459	-0.979349	-0.442668
C50	C	1.532228	-0.955892	-0.510489
C51	C	1.464393	-0.453874	-0.442879
C52	C	1.464399	-0.406955	-0.442897
C53	C	1.599952	-0.406962	-0.578506
C54	C	1.599950	-0.453877	-0.578485
C55	C	1.532162	-0.477332	-0.510668
O56	O	1.657572	-0.528103	-0.636058
O57	O	1.406740	-0.528131	-0.385203
C58	C	1.464411	-0.740064	-0.442777
C59	C	1.532185	-0.763523	-0.510572
C60	C	1.599956	-0.740065	-0.578382
C61	C	1.532196	-0.810440	-0.510552
C62	C	1.464425	-0.833898	-0.442742
C63	C	1.396643	-0.810437	-0.374952
C64	C	1.396641	-0.763522	-0.374967
C65	C	1.667737	-0.763526	-0.646172
C66	C	1.667735	-0.810441	-0.646150
C67	C	1.599964	-0.833899	-0.578340
C68	C	1.808582	-0.216384	-0.510790
C69	C	1.926412	-0.216383	-0.510800
C70	C	1.532023	-0.216374	-0.786195
C71	C	1.532098	-0.216384	-0.904025
C72	C	1.532072	-0.099662	-0.510729
C73	C	1.532249	-0.049728	-0.510448
C74	C	1.613864	-0.181598	-1.071564
C75	C	1.614131	-0.181683	-0.949004
C76	C	1.562393	-0.263738	-0.948424
C77	C	1.563041	-0.263554	-1.071022
C78	C	1.420004	-0.204283	-1.071346
C79	C	1.420541	-0.203221	-0.948742
C80	C	1.532159	-0.216405	-0.234260
C81	C	1.532194	-0.216414	-0.116430
H82	H	0.940665	-0.157065	-0.619179
C83	C	1.134485	-0.240122	-0.704694
H84	H	1.076068	-0.235548	-0.750706
H85	H	1.176355	-0.213713	-0.702368
H86	H	1.176091	-0.264360	-0.730025
C87	C	1.389671	-0.156146	-0.909547
H88	H	1.444529	-0.144560	-0.866107
H89	H	1.379389	-0.136894	-0.968502
H90	H	1.326054	-0.157946	-0.869825
H91	H	1.341436	-0.603680	-0.319806
C92	C	0.929698	-0.298257	-0.568090
H93	H	0.885112	-0.297059	-0.507697
H94	H	0.890694	-0.309242	-0.626822
H95	H	0.987641	-0.317669	-0.554291
H96	H	1.409206	-0.387857	-0.387680
H97	H	1.506162	-0.290387	-1.100698
H98	H	1.356407	-0.226720	-0.918135
H99	H	1.504718	-0.290373	-0.919287
H100	H	1.645047	-0.273830	-1.099539
H101	H	0.941800	-0.242907	-0.676181
H102	H	1.722917	-0.688781	-0.701438
C103	C	1.322087	-0.695487	-0.300394
H104	H	1.281735	-0.674790	-0.260022
H105	H	1.275880	-0.713786	-0.340917
H106	H	1.362665	-0.713791	-0.254191
C107	C	1.725519	-0.192310	-1.113079
H108	H	1.774373	-0.171115	-1.085601
H109	H	1.745379	-0.221575	-1.091133
H110	H	1.725689	-0.190838	-1.188126
C111	C	1.742295	-0.836240	-0.720738
H112	H	1.782645	-0.815546	-0.761129
H113	H	1.788505	-0.854552	-0.680198
H114	H	1.701719	-0.854532	-0.766924
H115	H	1.124799	-0.141962	-0.485991
C116	C	1.742258	-0.596969	-0.720845
H117	H	1.782625	-0.617663	-0.761213
H118	H	1.701690	-0.578660	-0.767037
H119	H	1.788467	-0.578674	-0.680303
C120	C	1.588603	-0.134025	-1.111481
H121	H	1.638791	-0.113518	-1.083507
H122	H	1.591770	-0.133507	-1.186525
H123	H	1.519661	-0.125696	-1.089022
H124	H	0.942559	-0.143086	-0.479198
C125	C	1.389835	-0.479668	-0.368275
H126	H	1.349484	-0.458972	-0.327899
H127	H	1.343627	-0.497965	-0.408804
H128	H	1.430411	-0.497975	-0.322076
H129	H	1.655152	-0.472978	-0.633682
H130	H	1.595176	-0.146571	-0.918988
C131	C	1.389889	-0.953549	-0.368102
H132	H	1.349526	-0.974243	-0.327724
H133	H	1.430437	-0.935248	-0.321920
H134	H	1.343676	-0.935245	-0.408671
C135	C	1.671927	-0.277852	-0.906855
H136	H	1.699342	-0.254953	-0.862454
H137	H	1.665547	-0.304879	-0.867659
H138	H	1.718479	-0.282420	-0.964815
C139	C	1.389894	-1.052076	-0.368085
H140	H	1.399603	-1.083377	-0.377801
H141	H	1.405398	-1.044399	-0.296852
H142	H	1.318664	-1.044379	-0.383629
H143	H	1.341466	-0.829544	-0.319735
C144	C	1.382788	-0.158447	-1.113207
H145	H	1.435332	-0.146278	-1.158574
H146	H	1.318692	-0.162094	-1.151435
H147	H	1.371408	-0.138685	-1.055429
H148	H	1.123187	-0.286310	-0.574083
C149	C	1.674489	-0.381153	-0.653096
H150	H	1.664764	-0.349851	-0.643398
H151	H	1.745726	-0.388845	-0.637599
H152	H	1.658938	-0.388835	-0.724322
C153	C	0.933113	-0.276546	-0.367133
H154	H	0.992352	-0.295300	-0.353763
H155	H	0.891270	-0.274316	-0.304977
H156	H	0.891910	-0.289005	-0.422643
H157	H	1.655224	-1.045366	-0.633457
H158	H	1.341449	-0.744426	-0.319757
H159	H	1.359152	-0.229641	-1.100362
H160	H	0.942045	-0.205571	-0.336084
H161	H	1.722922	-0.744431	-0.701396
C162	C	1.133463	-0.155898	-0.652588
H163	H	1.106194	-0.127245	-0.670794
H164	H	1.208545	-0.154892	-0.652809
H165	H	1.109865	-0.177423	-0.702644
C166	C	1.133682	-0.196413	-0.314001
H167	H	1.177705	-0.174435	-0.345881
H168	H	1.074814	-0.182171	-0.281631
H169	H	1.172830	-0.212323	-0.261995
C170	C	1.674572	-0.953556	-0.652875
H171	H	1.714944	-0.974252	-0.693231
H172	H	1.634016	-0.935247	-0.699078
H173	H	1.720776	-0.935261	-0.612327
H174	H	1.125047	-0.263725	-0.374617
H175	H	1.697226	-0.189707	-0.919600
