data_functionalizedCrystal
_audit_creation_method	'MofGen! by Chris Wilmer'
_symmetry_space_group_name_H-M	'P1'
_symmetry_Int_Tables_number	1
_symmetry_cell_setting	triclinic
loop_
_symmetry_equiv_pos_as_xyz
  x,y,z
_cell_length_a	12.759401
_cell_length_b	12.759400
_cell_length_c	12.759393
_cell_angle_alpha	90.029805
_cell_angle_beta	90.020993
_cell_angle_gamma	90.013936
loop_
_atom_site_label
_atom_site_type_symbol
_atom_site_fract_x
_atom_site_fract_y
_atom_site_fract_z
Zn1	Zn	1.606267	-0.418235	0.594027
Zn2	Zn	1.606158	-0.593951	0.418349
Zn3	Zn	1.430565	-0.418284	0.418362
Zn4	Zn	1.430558	-0.593871	0.593986
O5	O	1.518387	-0.506085	0.506181
O6	O	1.753273	-0.441557	0.570734
O7	O	1.582823	-0.570702	0.271329
O8	O	1.453921	-0.271257	0.441686
O9	O	1.753193	-0.570655	0.441665
O10	O	1.583008	-0.271221	0.570747
O11	O	1.453816	-0.441641	0.271339
O12	O	1.283543	-0.441563	0.441647
O13	O	1.453908	-0.570518	0.741012
O14	O	1.283538	-0.570566	0.570677
O15	O	1.583001	-0.441480	0.741042
O16	O	1.582815	-0.740961	0.441625
O17	O	1.453802	-0.740902	0.570665
C18	C	1.245420	-0.506062	0.506160
C19	C	1.128643	-0.506077	0.506176
C20	C	0.964022	-0.438842	0.439128
C21	C	1.073746	-0.438817	0.439112
C22	C	1.073810	-0.573358	0.573267
C23	C	0.964088	-0.573377	0.573287
C24	C	1.223685	-0.314842	0.401759
C25	C	1.278514	-0.247573	0.334659
C26	C	1.242848	-0.231326	0.232179
C27	C	1.152354	-0.282363	0.196778
C28	C	1.097531	-0.349640	0.263873
C29	C	1.133196	-0.365867	0.366367
C30	C	0.814147	-0.697354	0.610629
C31	C	0.759322	-0.764637	0.677719
C32	C	0.794986	-0.780894	0.780201
C33	C	0.885483	-0.729876	0.815598
C34	C	0.940308	-0.662593	0.748508
C35	C	0.904637	-0.646333	0.646027
C36	C	1.518325	-0.779053	0.506162
C37	C	1.518394	-0.895829	0.506189
C38	C	1.585581	-0.950583	0.573448
C39	C	1.585640	-1.060307	0.573477
C40	C	1.451323	-1.060514	0.438978
C41	C	1.451260	-0.950792	0.438956
C42	C	1.623201	-1.210136	0.697446
C43	C	1.690404	-1.264893	0.764696
C44	C	1.792889	-1.229186	0.780908
C45	C	1.828193	-1.138724	0.729856
C46	C	1.760996	-1.083973	0.662599
C47	C	1.658496	-1.119678	0.646406
C48	C	1.413709	-0.800961	0.314985
C49	C	1.346516	-0.746207	0.247722
C50	C	1.244029	-0.781912	0.231498
C51	C	1.208729	-0.872378	0.282532
C52	C	1.275922	-0.927131	0.349795
C53	C	1.378408	-0.891419	0.366021
C54	C	1.792420	-0.506110	0.506203
C55	C	1.909197	-0.506120	0.506212
C56	C	1.518466	-0.505984	0.780214
C57	C	1.518499	-0.505941	0.896991
C58	C	1.518478	-0.232052	0.506223
C59	C	1.518517	-0.115275	0.506240
C60	C	1.518369	-0.506110	0.233213
C61	C	1.518539	-0.505857	0.116437
C62	C	1.585723	-0.438740	0.951870
C63	C	1.585740	-0.438695	1.061594
C64	C	1.451308	-0.573061	1.061550
C65	C	1.451286	-0.573100	0.951828
H66	H	1.123329	-0.269138	0.113324
H67	H	1.640479	-0.383972	1.106272
F68	F	1.379783	-0.644536	1.119921
H69	H	1.396537	-0.627823	0.907144
F70	F	0.905606	-0.367259	0.367743
F71	F	1.001229	-0.403958	0.226202
H72	H	1.539746	-1.239211	0.684261
H73	H	1.287497	-0.176553	0.177546
F74	F	1.657254	-0.367261	0.893512
F75	F	1.132238	-0.644944	0.644638
F76	F	0.663018	-0.818953	0.640036
F77	F	1.374820	-0.193256	0.372338
H78	H	1.013996	-0.621051	0.777337
F79	F	1.261647	-0.332122	0.510833
H80	H	0.914524	-0.743116	0.899046
F81	F	0.736636	-0.852512	0.851599
F82	F	1.238348	-1.023411	0.404114
F83	F	1.937279	-1.100737	0.747103
F84	F	1.099653	-0.910386	0.265260
F85	F	0.776182	-0.680052	0.501555
H86	H	1.640244	-0.905834	0.628195
F87	F	1.172523	-0.723642	0.159897
H88	H	1.789740	-1.010322	0.621031
F89	F	1.522791	-0.762955	0.332247
F90	F	1.864410	-1.287468	0.852480
H91	H	1.661650	-1.338548	0.806262
H92	H	1.396666	-1.105279	0.384238
H93	H	1.375268	-0.672549	0.206163
