data_functionalizedCrystal
_audit_creation_method	'MofGen! by Chris Wilmer'
_symmetry_space_group_name_H-M	'P1'
_symmetry_Int_Tables_number	1
_symmetry_cell_setting	triclinic
loop_
_symmetry_equiv_pos_as_xyz
  x,y,z
_cell_length_a	12.594517
_cell_length_b	18.050590
_cell_length_c	12.594510
_cell_angle_alpha	89.961465
_cell_angle_beta	89.984234
_cell_angle_gamma	90.018510
loop_
_atom_site_label
_atom_site_type_symbol
_atom_site_fract_x
_atom_site_fract_y
_atom_site_fract_z
Zn1	Zn	1.627264	-0.295596	-0.601627
Zn2	Zn	1.627142	-0.419812	-0.423634
Zn3	Zn	1.449263	-0.295641	-0.423677
Zn4	Zn	1.449242	-0.419749	-0.601586
O5	O	1.538228	-0.357699	-0.512631
O6	O	1.776193	-0.312082	-0.578014
O7	O	1.603504	-0.403386	-0.274694
O8	O	1.472935	-0.191710	-0.447318
O9	O	1.776104	-0.403343	-0.447244
O10	O	1.603711	-0.191677	-0.578057
O11	O	1.472817	-0.312158	-0.274726
O12	O	1.300315	-0.312096	-0.447278
O13	O	1.472899	-0.403234	-0.750537
O14	O	1.300299	-0.403277	-0.577987
O15	O	1.603691	-0.312020	-0.750567
O16	O	1.603484	-0.523729	-0.447204
O17	O	1.472781	-0.523682	-0.577945
C18	C	1.261687	-0.357685	-0.512633
C19	C	1.143381	-0.357697	-0.512660
C20	C	1.003387	-0.407380	-0.583620
C21	C	1.074154	-0.425464	-0.486477
C22	C	1.074186	-0.339646	-0.609793
C23	C	1.003363	-0.375839	-0.415433
C24	C	1.003388	-0.289991	-0.538814
C25	C	1.074123	-0.308048	-0.441604
C26	C	1.538146	-0.550652	-0.512588
C27	C	1.538208	-0.633197	-0.512606
C28	C	1.609432	-0.832646	-0.441608
C29	C	1.635437	-0.881967	-0.538749
C30	C	1.538269	-0.784328	-0.512648
C31	C	1.512372	-0.882089	-0.415552
C32	C	1.538329	-0.930313	-0.512681
C33	C	1.564323	-0.832561	-0.609840
C34	C	1.441214	-0.832678	-0.486577
C35	C	1.467181	-0.881977	-0.583784
C36	C	1.538237	-0.700229	-0.512628
C37	C	1.538361	-1.014409	-0.512712
C38	C	1.815849	-0.357714	-0.512629
C39	C	1.934154	-0.357721	-0.512628
C40	C	1.538306	-0.357615	-0.790252
C41	C	1.538340	-0.357579	-0.908557
C42	C	1.538339	-0.163994	-0.512697
C43	C	1.538386	-0.081448	-0.512725
C44	C	1.609502	-0.307953	-1.048591
C45	C	1.635486	-0.375717	-0.977759
C46	C	1.512403	-0.289822	-0.977818
C47	C	1.564418	-0.425357	-1.048511
C48	C	1.441290	-0.339416	-1.048576
C49	C	1.467237	-0.407227	-0.977777
C50	C	1.538211	-0.357730	-0.236090
C51	C	1.538384	-0.357557	-0.117785
H52	H	0.972384	-0.391186	-0.333253
N53	N	1.592100	-0.497252	-1.087277
N54	N	1.611765	-0.548488	-1.023436
H55	H	1.631319	-0.599263	-1.050814
H56	H	1.407075	-0.449234	-0.946881
N57	N	1.391699	-0.908976	-0.659234
N58	N	1.295816	-0.892235	-0.650306
H59	H	1.242507	-0.911302	-0.703595
N60	N	1.338244	-0.805501	-0.458844
N61	N	1.298664	-0.821365	-0.370687
H62	H	1.225940	-0.802171	-0.351088
H63	H	1.105237	-0.482732	-0.464333
N64	N	1.484873	-0.909376	-0.312522
N65	N	1.541393	-0.893577	-0.234171
H66	H	1.521980	-0.912846	-0.161404
N67	N	1.738420	-0.909149	-0.566449
N68	N	1.749991	-0.948705	-0.647048
H69	H	1.822725	-0.967902	-0.666607
N70	N	1.338337	-0.320118	-1.087624
N71	N	1.298734	-0.258628	-1.065028
H72	H	1.226022	-0.244991	-1.092606
N73	N	1.685009	-0.255371	-1.087604
N74	N	1.676312	-0.188450	-1.063691
H75	H	1.729639	-0.151316	-1.091244
N76	N	0.964351	-0.218168	-0.566602
N77	N	0.988292	-0.163212	-0.511214
H78	H	0.960719	-0.112486	-0.530847
H79	H	1.717576	-0.391074	-0.946649
H80	H	1.669633	-0.810985	-0.381594
N81	N	1.591952	-0.805404	-0.712905
N82	N	1.535936	-0.821701	-0.791407
H83	H	1.555451	-0.802520	-0.864196
N84	N	0.964429	-0.460120	-0.658818
N85	N	0.987126	-0.527174	-0.648868
H86	H	0.959611	-0.564423	-0.701971
N87	N	1.112834	-0.255354	-0.366215
N88	N	1.089911	-0.262082	-0.270119
H89	H	1.117250	-0.224870	-0.216872
N90	N	1.113213	-0.320490	-0.712860
N91	N	1.090542	-0.359965	-0.791149
H92	H	1.118103	-0.346442	-0.863943
H93	H	1.490449	-0.232531	-0.946761
