data_functionalizedCrystal
_audit_creation_method	'MofGen! by Chris Wilmer'
_symmetry_space_group_name_H-M	'P1'
_symmetry_Int_Tables_number	1
_symmetry_cell_setting	triclinic
loop_
_symmetry_equiv_pos_as_xyz
  x,y,z
_cell_length_a	10.489711
_cell_length_b	27.731996
_cell_length_c	9.565339
_cell_angle_alpha	89.994276
_cell_angle_beta	89.994873
_cell_angle_gamma	83.574198
loop_
_atom_site_label
_atom_site_type_symbol
_atom_site_fract_x
_atom_site_fract_y
_atom_site_fract_z
O1	O	1.691047	0.068120	-0.116331
O2	O	1.319562	0.074536	-0.116325
O3	O	1.516877	0.001002	-0.116298
O4	O	1.493732	0.141654	-0.116358
O5	O	1.516861	0.001007	0.116222
O6	O	1.319546	0.074541	0.116195
O7	O	1.691032	0.068125	0.116189
Zn8	Zn	1.505286	0.071334	0.153110
Zn9	Zn	1.505307	0.071328	-0.153245
O10	O	1.493717	0.141659	0.116162
C11	C	1.272043	0.074057	-0.000063
C12	C	1.130476	0.072616	-0.000059
C13	C	0.946124	0.116838	-0.000094
C14	C	1.039259	0.094746	-0.114727
C15	C	1.039217	0.094739	0.114519
C16	C	0.971388	0.047934	-0.114816
C17	C	0.971337	0.047933	0.114534
C18	C	1.064446	0.025808	-0.000127
C19	C	1.516393	-0.017006	-0.000033
C20	C	1.514961	-0.070671	-0.000019
C21	C	1.505960	-0.403446	-0.126834
C22	C	1.500522	-0.605138	-0.126858
O23	O	1.499771	-0.631216	-0.234652
N24	N	1.499838	-0.630357	-0.000112
C25	C	1.500506	-0.605150	0.126648
O26	O	1.499786	-0.631227	0.234452
C27	C	1.505934	-0.403458	0.126671
C28	C	1.506631	-0.378242	-0.000083
C29	C	1.506656	-0.378230	-0.253577
C30	C	1.508022	-0.327811	-0.253570
C31	C	1.508693	-0.302607	-0.126819
C32	C	1.507998	-0.327822	-0.000075
C33	C	1.506592	-0.378251	0.253430
C34	C	1.507946	-0.327824	0.253425
C35	C	1.508643	-0.302609	0.126671
C36	C	1.510035	-0.252199	0.126683
N37	N	1.510719	-0.226980	-0.000062
C38	C	1.510048	-0.252184	-0.126813
C39	C	1.497658	-0.711041	0.126627
C40	C	1.496303	-0.761464	0.126622
C41	C	1.496317	-0.761449	-0.126885
C42	C	1.497681	-0.711026	-0.126878
C43	C	1.498342	-0.685822	-0.000118
C44	C	1.512919	-0.146299	-0.126788
C45	C	1.514290	-0.095875	-0.126770
C46	C	1.514269	-0.095894	0.126736
C47	C	1.512904	-0.146314	0.126719
C48	C	1.512225	-0.171515	-0.000055
O49	O	1.510772	-0.226089	0.234421
O50	O	1.510739	-0.226096	-0.234602
C51	C	1.504594	-0.453866	-0.126841
C52	C	1.503898	-0.479082	-0.000097
C53	C	1.504569	-0.453878	0.126653
C54	C	1.502543	-0.529504	-0.000103
C55	C	1.501872	-0.554708	-0.126854
C56	C	1.502556	-0.529490	-0.253599
C57	C	1.503923	-0.479070	-0.253592
C58	C	1.503885	-0.479097	0.253399
C59	C	1.502521	-0.529516	0.253381
C60	C	1.501849	-0.554720	0.126630
C61	C	1.738550	0.068604	-0.000075
C62	C	1.880118	0.070045	-0.000088
C63	C	1.494200	0.159667	-0.000106
C64	C	1.495632	0.213332	-0.000129
N65	N	1.505282	0.071338	0.362189
N66	N	1.505322	0.071320	-0.362325
C67	C	1.414003	0.105333	0.453380
C68	C	1.529067	0.115108	0.546552
C69	C	1.390268	0.061566	0.546573
C70	C	1.620403	0.081135	0.453310
C71	C	1.481528	0.027573	0.453322
C72	C	1.596676	0.037330	0.546452
H73	H	0.894724	0.155298	-0.000225
H74	H	1.336880	0.134109	0.412515
F75	F	1.747588	0.091984	0.399995
H76	H	0.941465	0.028152	-0.211843
F77	F	1.078524	0.120630	0.241191
F78	F	1.505940	-0.405047	-0.388495
H79	H	1.549185	0.152111	0.587503
H80	H	1.514861	-0.075347	-0.229992
F81	F	1.697699	-0.000258	0.599539
H82	H	1.506027	-0.398773	0.356647
F83	F	1.504590	-0.452279	0.388312
H84	H	1.508465	-0.307305	0.356650
F85	F	1.131338	-0.024507	-0.000183
F86	F	1.512186	-0.173152	0.261623
F87	F	1.504663	-0.452240	-0.388502
F88	F	1.455186	-0.020777	0.399750
F89	F	1.498354	-0.684223	0.261552
H90	H	1.292985	0.053309	0.587542
H91	H	1.495755	-0.781991	0.229837
F92	F	1.078617	0.120621	-0.241428
H93	H	0.941187	0.028153	0.211469
F94	F	1.512195	-0.173113	-0.261715
H95	H	1.508585	-0.307284	-0.356786
H96	H	1.514821	-0.075364	0.229934
F97	F	1.498421	-0.684194	-0.261785
F98	F	1.495599	-0.788281	-0.261783
H99	H	1.502016	-0.550020	-0.356804
H100	H	1.501963	-0.550043	0.356607
