data_functionalizedCrystal
_audit_creation_method	'MofGen! by Chris Wilmer'
_symmetry_space_group_name_H-M	'P1'
_symmetry_Int_Tables_number	1
_symmetry_cell_setting	triclinic
loop_
_symmetry_equiv_pos_as_xyz
  x,y,z
_cell_length_a	14.519731
_cell_length_b	10.654562
_cell_length_c	9.730223
_cell_angle_alpha	89.996961
_cell_angle_beta	89.995895
_cell_angle_gamma	95.910521
loop_
_atom_site_label
_atom_site_type_symbol
_atom_site_fract_x
_atom_site_fract_y
_atom_site_fract_z
O1	O	-0.129583	1.666592	-0.114362
O2	O	-0.141911	1.300999	-0.114343
O3	O	-0.001560	1.493475	-0.114363
O4	O	-0.269934	1.474116	-0.114342
O5	O	-0.001564	1.493472	0.114217
O6	O	-0.141915	1.300996	0.114237
O7	O	-0.129586	1.666590	0.114218
Zn8	Zn	-0.135751	1.483793	0.150519
Zn9	Zn	-0.135747	1.483796	-0.150645
O10	O	-0.269937	1.474114	0.114238
C11	C	-0.141006	1.254208	-0.000051
C12	C	-0.138290	1.114792	-0.000045
C13	C	-0.137025	1.049272	0.124543
C14	C	-0.134481	0.918274	0.124520
C15	C	-0.134470	0.918326	-0.124690
C16	C	-0.137008	1.049323	-0.124666
C17	C	-0.138307	1.114740	0.249164
C18	C	-0.137044	1.049220	0.373762
C19	C	-0.134499	0.918222	0.373739
C20	C	-0.133219	0.852744	0.249118
C21	C	-0.304300	1.475022	-0.000050
C22	C	-0.406694	1.477740	-0.000043
C23	C	-0.489850	1.479949	-0.000048
C24	C	-0.594173	1.482708	-0.000062
C25	C	-0.677323	1.484899	-0.000073
C26	C	-0.781653	1.487658	-0.000083
C27	C	0.032802	1.492566	-0.000078
C28	C	0.135196	1.489848	-0.000095
C29	C	-0.130492	1.713380	-0.000077
C30	C	-0.133208	1.852797	-0.000093
N31	N	-0.135754	1.483800	0.356056
N32	N	-0.135737	1.483799	-0.356181
C33	C	-0.073628	1.569050	0.427973
C34	C	-0.073616	1.569047	0.571856
C35	C	-0.197866	1.398539	0.571892
C36	C	-0.197872	1.398537	0.428011
C37	C	-0.011510	1.654313	0.356017
C38	C	0.050621	1.739571	0.427935
C39	C	0.050632	1.739567	0.571818
C40	C	-0.011487	1.654306	0.643783
H41	H	-0.138079	1.102542	0.475224
C42	C	-0.062795	1.316321	0.181367
C43	C	-0.141093	1.258736	0.249195
H44	H	-0.064519	1.405217	0.181381
H45	H	-0.008552	1.296113	0.227390
H46	H	-0.062225	1.286700	0.089321
H47	H	-0.141660	1.288350	0.341245
H48	H	-0.195350	1.278955	0.203176
C49	C	0.103304	1.956835	0.383555
C50	C	0.118904	1.833258	0.348808
H51	H	0.145466	2.014664	0.334703
H52	H	0.041666	1.970611	0.359992
H53	H	0.112216	1.969042	0.479534
H54	H	0.109986	1.821048	0.252830
H55	H	0.180557	1.819477	0.372361
C56	C	-0.357024	1.325162	0.383725
C57	C	-0.266164	1.304838	0.348943
H58	H	-0.399182	1.267317	0.334902
H59	H	-0.365910	1.312952	0.479699
H60	H	-0.367604	1.408999	0.360139
H61	H	-0.255582	1.221003	0.372538
H62	H	-0.257274	1.317038	0.252947
H63	H	-0.133463	0.864880	0.475193
C64	C	-0.208687	0.651174	0.181225
C65	C	-0.130405	0.708751	0.249076
H66	H	-0.206944	0.562282	0.181191
H67	H	-0.262940	0.671334	0.227264
H68	H	-0.209255	0.680845	0.089195
H69	H	-0.129840	0.679087	0.341110
H70	H	-0.076138	0.688580	0.203040
H71	H	-0.011515	1.654325	0.238861
H72	H	-0.138042	1.102670	-0.226116
H73	H	-0.248442	1.329124	0.630495
H74	H	-0.133430	0.865003	-0.226151
H75	H	0.101227	1.808979	0.630371
C76	C	0.075600	1.628764	0.849867
C77	C	-0.011471	1.654294	0.801943
H78	H	0.075609	1.628766	0.947506
H79	H	0.088760	1.548483	0.817315
H80	H	0.121481	1.691745	0.817298
H81	H	-0.057351	1.591307	0.834504
H82	H	-0.024641	1.734586	0.834509
