data_functionalizedCrystal
_audit_creation_method	'MofGen! by Chris Wilmer'
_symmetry_space_group_name_H-M	'P1'
_symmetry_Int_Tables_number	1
_symmetry_cell_setting	triclinic
loop_
_symmetry_equiv_pos_as_xyz
  x,y,z
_cell_length_a	12.759393
_cell_length_b	12.759401
_cell_length_c	12.759399
_cell_angle_alpha	89.983359
_cell_angle_beta	89.968813
_cell_angle_gamma	90.020089
loop_
_atom_site_label
_atom_site_type_symbol
_atom_site_fract_x
_atom_site_fract_y
_atom_site_fract_z
Zn1	Zn	-0.594017	-1.606255	-0.418170
Zn2	Zn	-0.094017	-1.106255	0.081830
Zn3	Zn	-0.418336	-1.606147	-0.593886
Zn4	Zn	0.081664	-1.106147	-0.093886
Zn5	Zn	-0.418352	-1.430556	-0.418227
Zn6	Zn	0.081648	-0.930556	0.081773
Zn7	Zn	-0.593973	-1.430544	-0.593812
Zn8	Zn	-0.093973	-0.930544	-0.093812
O9	O	-0.506170	-1.518375	-0.506024
O10	O	-0.006170	-1.018375	-0.006024
O11	O	-0.570724	-1.753261	-0.441486
O12	O	-0.070724	-1.253261	0.058514
O13	O	-0.271317	-1.582814	-0.570639
O14	O	0.228683	-1.082814	-0.070639
O15	O	-0.441680	-1.453913	-0.271198
O16	O	0.058320	-0.953913	0.228802
O17	O	-0.441652	-1.753182	-0.570584
O18	O	0.058348	-1.253182	-0.070584
O19	O	-0.570740	-1.582998	-0.271156
O20	O	-0.070740	-1.082998	0.228844
O21	O	-0.271329	-1.453808	-0.441583
O22	O	0.228671	-0.953808	0.058417
O23	O	-0.441637	-1.283533	-0.441511
O24	O	0.058363	-0.783533	0.058489
O25	O	-0.741000	-1.453892	-0.570458
O26	O	-0.241000	-0.953892	-0.070458
O27	O	-0.570665	-1.283524	-0.570513
O28	O	-0.070665	-0.783524	-0.070513
O29	O	-0.741032	-1.582986	-0.441414
O30	O	-0.241032	-1.082986	0.058586
O31	O	-0.441609	-1.582803	-0.740897
O32	O	0.058391	-1.082803	-0.240897
O33	O	-0.570649	-1.453788	-0.740843
O34	O	-0.070649	-0.953788	-0.240843
C35	C	-0.506149	-1.245408	-0.506011
C36	C	-0.006149	-0.745408	-0.006011
C37	C	-0.506165	-1.128631	-0.506031
C38	C	-0.006165	-0.628631	-0.006031
C39	C	-0.506146	-1.518311	-0.778991
C40	C	-0.006146	-1.018311	-0.278991
C41	C	-0.506171	-1.518379	-0.895768
C42	C	-0.006171	-1.018379	-0.395768
C43	C	-0.780203	-1.518450	-0.505921
C44	C	-0.280203	-1.018450	-0.005921
C45	C	-0.896980	-1.518482	-0.505878
C46	C	-0.396980	-1.018482	-0.005878
C47	C	-1.061573	-1.451352	-0.438628
C48	C	-0.561573	-0.951352	0.061372
C49	C	-0.951848	-1.451329	-0.438665
C50	C	-0.451848	-0.951329	0.061335
C51	C	-0.951841	-1.585670	-0.573050
C52	C	-0.451841	-1.085670	-0.073050
C53	C	-1.061563	-1.585698	-0.573007
C54	C	-0.561563	-1.085698	-0.073007
C55	C	-1.116435	-1.384188	-0.371418
C56	C	-0.616435	-0.884188	0.128582
C57	C	-1.061582	-1.317000	-0.304244
C58	C	-0.561582	-0.817000	0.195756
C59	C	-0.951857	-1.316977	-0.304281
C60	C	-0.451857	-0.816977	0.195719
C61	C	-0.896987	-1.384141	-0.371492
C62	C	-0.396987	-0.884141	0.128508
C63	C	-0.233202	-1.518361	-0.506050
C64	C	0.266798	-1.018361	-0.006050
C65	C	-0.116426	-1.518533	-0.505797
C66	C	0.383574	-1.018533	-0.005797
C67	C	-0.506191	-1.792409	-0.506037
C68	C	-0.006191	-1.292409	-0.006037
C69	C	-0.506200	-1.909185	-0.506043
C70	C	-0.006200	-1.409185	-0.006043
C71	C	-0.573244	-1.073792	-0.573304
C72	C	-0.073244	-0.573792	-0.073304
C73	C	-0.573265	-0.964068	-0.573308
C74	C	-0.073265	-0.464068	-0.073308
C75	C	-0.439118	-0.964032	-0.438762
C76	C	0.060882	-0.464032	0.061238
C77	C	-0.439104	-1.073754	-0.438754
C78	C	0.060896	-0.573754	0.061246
C79	C	-0.439056	-1.585634	-0.950623
C80	C	0.060944	-1.085634	-0.450623
C81	C	-0.439091	-1.585702	-1.060347
C82	C	0.060909	-1.085702	-0.560347
C83	C	-0.573359	-1.451251	-1.060351
C84	C	-0.073359	-0.951251	-0.560351
C85	C	-0.573328	-1.451189	-0.950629
C86	C	-0.073328	-0.951189	-0.450629
C87	C	-0.506217	-1.518469	-0.231990
C88	C	-0.006217	-1.018469	0.268010
C89	C	-0.506237	-1.518508	-0.115214
C90	C	-0.006237	-1.018508	0.384786
H91	H	-1.205778	-1.384198	-0.371381
H92	H	-0.705778	-0.884198	0.128619
F93	F	-0.367583	-1.657145	-0.892240
F94	F	0.132417	-1.157145	-0.392240
H95	H	-0.627852	-1.118470	-0.628083
H96	H	-0.127852	-0.618470	-0.128083
H97	H	-0.807642	-1.384123	-0.371511
H98	H	-0.307642	-0.884123	0.128489
H99	H	-1.106264	-1.262325	-0.249516
H100	H	-0.606264	-0.762325	0.250484
F101	F	-0.367661	-1.657286	-1.118724
F102	F	0.132339	-1.157286	-0.618724
F103	F	-0.644769	-1.379608	-0.892244
F104	F	-0.144769	-0.879608	-0.392244
H105	H	-0.907198	-1.262278	-0.249577
H106	H	-0.407198	-0.762278	0.250423
H107	H	-0.907157	-1.640350	-0.627772
H108	H	-0.407157	-1.140350	-0.127772
F109	F	-1.119946	-1.657206	-0.644491
F110	F	-0.619946	-1.157206	-0.144491
F111	F	-0.644826	-1.379744	-1.118747
F112	F	-0.144826	-0.879744	-0.618747
F113	F	-0.367750	-0.905618	-0.367167
F114	F	0.132250	-0.405618	0.132833
F115	F	-0.644662	-0.905709	-0.644908
F116	F	-0.144662	-0.405709	-0.144908
F117	F	-0.367710	-1.132121	-0.367143
F118	F	0.132290	-0.632121	0.132857
