data_functionalizedCrystal
_audit_creation_method	'MofGen! by Chris Wilmer'
_symmetry_space_group_name_H-M	'P1'
_symmetry_Int_Tables_number	1
_symmetry_cell_setting	triclinic
loop_
_symmetry_equiv_pos_as_xyz
  x,y,z
_cell_length_a	13.897448
_cell_length_b	13.032831
_cell_length_c	13.032268
_cell_angle_alpha	89.113023
_cell_angle_beta	97.148041
_cell_angle_gamma	97.177601
loop_
_atom_site_label
_atom_site_type_symbol
_atom_site_fract_x
_atom_site_fract_y
_atom_site_fract_z
Zn1	Zn	-0.651422	-1.498483	-0.780818
Zn2	Zn	-0.795137	-1.520226	-0.608835
Zn3	Zn	-0.611127	-1.348341	-0.587060
Zn4	Zn	-0.789922	-1.326474	-0.758960
O5	O	-0.711902	-1.423381	-0.683918
O6	O	-0.689533	-1.645288	-0.776265
O7	O	-0.756047	-1.515676	-0.462030
O8	O	-0.481501	-1.368309	-0.612798
O9	O	-0.795119	-1.661262	-0.649909
O10	O	-0.511106	-1.478618	-0.755151
O11	O	-0.620856	-1.389393	-0.446032
O12	O	-0.615798	-1.201520	-0.591603
O13	O	-0.786231	-1.331040	-0.905776
O14	O	-0.747158	-1.185454	-0.717897
O15	O	-0.684476	-1.457414	-0.921835
O16	O	-0.929417	-1.494472	-0.628714
O17	O	-0.925585	-1.352124	-0.739010
C18	C	-0.676541	-1.156170	-0.650016
C19	C	-0.661439	-1.041852	-0.635536
C20	C	-0.962504	-1.423310	-0.683879
C21	C	-1.069728	-1.423369	-0.683909
C22	C	-0.739266	-1.389363	-0.952165
C23	C	-0.750927	-1.374866	-1.066476
C24	C	-1.266044	-1.423469	-0.683987
C25	C	-1.156800	-1.423410	-0.683946
C26	C	-0.460328	-1.423478	-0.683984
C27	C	-0.353122	-1.423519	-0.684012
C28	C	-0.747403	-1.691635	-0.717954
C29	C	-0.762531	-1.805950	-0.732458
C30	C	-0.719784	-0.982977	-0.691475
C31	C	-0.704177	-0.864824	-0.676511
C32	C	-0.705779	-1.430931	-1.125385
C33	C	-0.717831	-1.415949	-1.243531
C34	C	-0.684583	-1.457326	-0.416723
C35	C	-0.672677	-1.472021	-0.302438
H36	H	-0.781288	-1.020043	-0.750448
O37	O	-0.648951	-1.501440	-1.081378
C38	C	-0.545026	-1.630614	-1.109069
C39	C	-0.609338	-1.550780	-1.159033
H40	H	-0.512997	-1.670543	-1.171831
H41	H	-0.483195	-1.589793	-1.052830
H42	H	-0.591339	-1.690663	-1.065549
H43	H	-0.563106	-1.490710	-1.202607
H44	H	-0.671173	-1.591674	-1.215215
O45	O	-0.587986	-0.997806	-0.565171
C46	C	-0.453629	-1.025421	-0.436272
C47	C	-0.536763	-1.075431	-0.515943
H48	H	-0.412205	-1.088160	-0.396434
H49	H	-0.401426	-0.969177	-0.477215
H50	H	-0.485761	-0.981898	-0.376130
H51	H	-0.504718	-1.119009	-0.576106
H52	H	-0.588953	-1.131619	-0.474928
O53	O	-0.630720	-0.820782	-0.606142
C54	C	-0.496363	-0.848397	-0.477243
C55	C	-0.579497	-0.898407	-0.556914
H56	H	-0.454939	-0.911136	-0.437405
H57	H	-0.444160	-0.792153	-0.518186
H58	H	-0.528495	-0.804874	-0.417101
H59	H	-0.547452	-0.941985	-0.617077
H60	H	-0.631688	-0.954595	-0.515899
H61	H	-0.765401	-1.356848	-1.280558
O62	O	-0.835822	-0.850086	-0.802958
C63	C	-0.905110	-0.860957	-0.981962
C64	C	-0.822043	-0.810914	-0.902236
H65	H	-0.894010	-0.829291	-1.062243
H66	H	-0.904635	-0.948372	-0.981592
H67	H	-0.978230	-0.842204	-0.961053
H68	H	-0.748881	-0.829587	-0.923089
H69	H	-0.822605	-0.723512	-0.902621
O70	O	-0.615761	-1.542406	-1.258317
C71	C	-0.454960	-1.596579	-1.231709
C72	C	-0.519303	-1.516787	-1.281705
H73	H	-0.376966	-1.575908	-1.250617
H74	H	-0.455255	-1.596109	-1.144279
H75	H	-0.485052	-1.676845	-1.263278
H76	H	-0.489258	-1.436483	-1.250218
H77	H	-0.519006	-1.517348	-1.369131
O78	O	-0.807687	-1.304450	-1.110817
C79	C	-0.871374	-1.225245	-1.268990
C80	C	-0.807080	-1.305044	-1.218915
H81	H	-0.870889	-1.225683	-1.356392
H82	H	-0.949434	-1.245925	-1.250277
H83	H	-0.841341	-1.144991	-1.237352
H84	H	-0.837026	-1.385327	-1.250523
H85	H	-0.729030	-1.284275	-1.237621
