data_functionalizedCrystal
_audit_creation_method	'MofGen! by Chris Wilmer'
_symmetry_space_group_name_H-M	'P1'
_symmetry_Int_Tables_number	1
_symmetry_cell_setting	triclinic
loop_
_symmetry_equiv_pos_as_xyz
  x,y,z
_cell_length_a	15.944499
_cell_length_b	15.944493
_cell_length_c	15.021413
_cell_angle_alpha	90.009890
_cell_angle_beta	89.990095
_cell_angle_gamma	83.476327
loop_
_atom_site_label
_atom_site_type_symbol
_atom_site_fract_x
_atom_site_fract_y
_atom_site_fract_z
O1	O	1.114533	0.108117	-0.074074
O2	O	0.869975	0.121519	-0.074062
O3	O	0.998958	-0.007461	-0.074076
O4	O	0.985551	0.237097	-0.074060
O5	O	0.998937	-0.007443	0.073989
O6	O	0.869955	0.121537	0.074002
O7	O	1.114513	0.108135	0.073991
Zn8	Zn	0.992230	0.114839	0.097505
Zn9	Zn	0.992257	0.114815	-0.097576
O10	O	0.985530	0.237116	0.074004
C11	C	0.838670	0.120979	-0.000029
C12	C	0.745422	0.119334	-0.000025
C13	C	0.453871	0.194269	-0.000034
C14	C	0.514918	0.155307	-0.073041
C15	C	0.409787	0.113358	-0.000046
C16	C	0.514884	0.155303	0.072939
C17	C	0.574695	0.116299	-0.000034
C18	C	0.469606	0.074374	-0.073114
C19	C	0.469565	0.074382	0.072931
C20	C	0.530595	0.035361	-0.000094
C21	C	0.314787	0.111666	-0.000054
C22	C	0.669694	0.117984	-0.000033
C23	C	0.998400	-0.038747	-0.000047
C24	C	0.996757	-0.131995	-0.000059
C25	C	1.072679	-0.367769	-0.000045
C26	C	1.031747	-0.418339	-0.073046
C27	C	0.993713	-0.302716	-0.000048
C28	C	1.031709	-0.418297	0.072933
C29	C	0.990778	-0.467625	-0.000033
C30	C	0.952802	-0.352057	-0.073109
C31	C	0.952775	-0.352012	0.072936
C32	C	0.911785	-0.402548	-0.000082
C33	C	0.995405	-0.207716	-0.000057
C34	C	0.989079	-0.562622	-0.000030
C35	C	1.145818	0.108675	-0.000045
C36	C	1.239066	0.110320	-0.000054
C37	C	0.986088	0.268401	-0.000026
C38	C	0.987731	0.361650	-0.000021
N39	N	0.992218	0.114855	0.230642
N40	N	0.992276	0.114792	-0.230714
C41	C	0.932567	0.174468	0.470332
C42	C	1.008466	0.190761	0.529664
C43	C	0.992240	0.114834	0.412249
C44	C	0.916361	0.098560	0.529659
C45	C	0.992254	0.114816	0.587673
C46	C	1.068177	0.131165	0.470275
C47	C	0.976022	0.038931	0.470264
C48	C	1.051976	0.055192	0.529570
C49	C	0.992230	0.114847	0.311192
C50	C	0.992272	0.114803	0.688728
H51	H	0.449447	0.040195	0.134651
H52	H	1.065104	-0.447298	-0.134767
C53	C	1.027004	0.277459	0.564939
C54	C	1.105145	0.284344	0.623567
C55	C	1.123670	0.371042	0.658848
C56	C	1.064054	0.450855	0.635501
C57	C	0.985907	0.443972	0.576870
C58	C	0.967382	0.357274	0.541589
H59	H	1.149281	0.225260	0.640853
H60	H	1.181519	0.376137	0.702250
H61	H	1.077767	0.515034	0.661618
H62	H	0.941771	0.503057	0.559584
H63	H	0.909533	0.352180	0.498187
H64	H	0.535018	0.189524	-0.134755
H65	H	1.140699	-0.352153	-0.000122
C66	C	0.541984	0.201556	0.156322
C67	C	0.507717	0.294565	0.172346
C68	C	0.534812	0.340825	0.255724
C69	C	0.596175	0.294076	0.323078
C70	C	0.630445	0.201062	0.307055
C71	C	0.603350	0.154802	0.223677
H72	H	0.462289	0.329176	0.122485
H73	H	0.509442	0.409680	0.267584
H74	H	0.616233	0.328320	0.384799
H75	H	0.675873	0.166451	0.356916
H76	H	0.628720	0.085947	0.211817
C77	C	0.819827	-0.423435	-0.000131
C78	C	0.787756	-0.475595	-0.076665
C79	C	0.695800	-0.496484	-0.076720
C80	C	0.635916	-0.465212	-0.000239
C81	C	0.667986	-0.413049	0.076301
C82	C	0.759942	-0.392160	0.076356
H83	H	0.832087	-0.498746	-0.133286
H84	H	0.672060	-0.535098	-0.133381
H85	H	0.567845	-0.480676	-0.000280
H86	H	0.623655	-0.389898	0.132922
H87	H	0.783682	-0.353546	0.133017
H88	H	0.420527	0.261416	-0.000100
H89	H	1.102500	0.004751	0.555417
H90	H	0.919446	-0.323037	0.134660
H91	H	0.882155	0.224939	0.444321
C92	C	0.575448	-0.055427	-0.000156
C93	C	0.523187	-0.130923	-0.000943
C94	C	0.568040	-0.221709	-0.001011
C95	C	0.665153	-0.237000	-0.000292
C96	C	0.717419	-0.161502	0.000495
C97	C	0.672567	-0.070715	0.000563
H98	H	0.451293	-0.119606	-0.001475
H99	H	0.529349	-0.277598	-0.001594
H100	H	0.698356	-0.304206	-0.000342
H101	H	0.789313	-0.172819	0.001028
H102	H	0.711258	-0.014827	0.001146
H103	H	0.962269	-0.025230	0.444153
C104	C	0.907797	-0.313135	-0.156582
C105	C	0.901094	-0.217132	-0.172035
C106	C	0.856094	-0.178209	-0.255508
C107	C	0.817797	-0.235290	-0.323529
C108	C	0.824498	-0.331299	-0.308079
C109	C	0.869499	-0.370222	-0.224605
H110	H	0.929445	-0.174872	-0.121680
H111	H	0.851133	-0.107136	-0.266945
H112	H	0.784485	-0.206477	-0.385321
H113	H	0.796147	-0.373559	-0.358434
H114	H	0.874460	-0.441295	-0.213168
H115	H	1.065065	-0.447226	0.134646
H116	H	1.132365	0.144999	0.444300
C117	C	0.829668	0.079965	0.564896
C118	C	0.749833	0.139537	0.541520
C119	C	0.663138	0.120951	0.576755
C120	C	0.656278	0.042793	0.635365
C121	C	0.736116	-0.016784	0.658744
C122	C	0.822811	0.001802	0.623510
H123	H	0.754909	0.197399	0.498130
H124	H	0.604037	0.165055	0.559448
H125	H	0.592102	0.029035	0.661448
H126	H	0.731041	-0.074645	0.702134
H127	H	0.881912	-0.042301	0.640817
H128	H	0.449643	0.040176	-0.134905
