data_functionalizedCrystal
_audit_creation_method	'MofGen! by Chris Wilmer'
_symmetry_space_group_name_H-M	'P1'
_symmetry_Int_Tables_number	1
_symmetry_cell_setting	triclinic
loop_
_symmetry_equiv_pos_as_xyz
  x,y,z
_cell_length_a	12.827893
_cell_length_b	12.759399
_cell_length_c	12.827885
_cell_angle_alpha	90.027293
_cell_angle_beta	89.980728
_cell_angle_gamma	89.984308
loop_
_atom_site_label
_atom_site_type_symbol
_atom_site_fract_x
_atom_site_fract_y
_atom_site_fract_z
Zn1	Zn	1.597669	0.418211	-0.590867
Zn2	Zn	1.597562	0.593926	-0.416135
Zn3	Zn	1.422910	0.418263	-0.416140
Zn4	Zn	1.422895	0.593849	-0.590835
O5	O	1.510259	0.506062	-0.503494
O6	O	1.743891	0.441531	-0.567699
O7	O	1.574356	0.570678	-0.269899
O8	O	1.446143	0.271235	-0.439334
O9	O	1.743812	0.570628	-0.439324
O10	O	1.574537	0.271197	-0.567705
O11	O	1.446040	0.441619	-0.269904
O12	O	1.276672	0.441544	-0.439303
O13	O	1.446117	0.570496	-0.737075
O14	O	1.276661	0.570546	-0.567650
O15	O	1.574523	0.441456	-0.737099
O16	O	1.574341	0.740937	-0.439293
O17	O	1.446014	0.740880	-0.567644
C18	C	1.238749	0.506043	-0.503474
C19	C	1.122596	0.506060	-0.503491
C20	C	0.950728	0.569859	-0.439901
C21	C	1.070779	0.569843	-0.439882
C22	C	1.510193	0.779030	-0.503488
C23	C	1.510260	0.895806	-0.503520
C24	C	1.577154	0.950663	-0.436764
C25	C	1.577216	1.060387	-0.436802
C26	C	1.443483	1.060388	-0.570355
C27	C	1.443426	0.950666	-0.570321
C28	C	1.643987	0.895803	-0.369963
C29	C	1.710885	0.950660	-0.303201
C30	C	1.710948	1.060384	-0.303239
C31	C	1.644113	1.115252	-0.370039
C32	C	1.782829	0.506082	-0.503515
C33	C	1.898982	0.506091	-0.503523
C34	C	1.510330	0.505961	-0.776064
C35	C	1.510360	0.505918	-0.892218
C36	C	1.510350	1.232029	-0.503538
C37	C	1.510379	1.115252	-0.503592
C38	C	1.573906	0.442053	-0.944014
C39	C	1.573939	0.442007	-1.064065
C40	C	1.510248	0.506087	-0.231984
C41	C	1.510420	0.505834	-0.115832
H42	H	1.115279	0.624443	-0.385418
H43	H	0.943557	0.451480	-0.557975
O44	O	1.644367	1.221838	-0.370087
C45	C	1.744521	1.258388	-0.397053
H46	H	1.804688	1.195123	-0.379228
H47	H	1.763162	1.331819	-0.349962
H48	H	1.746698	1.277779	-0.483771
O49	O	1.644094	0.789219	-0.369827
C50	C	1.717404	0.752558	-0.296534
H51	H	1.778503	0.815748	-0.281969
H52	H	1.757001	0.679093	-0.328073
H53	H	1.675991	0.733189	-0.220296
H54	H	1.456017	0.560519	-1.071295
O55	O	1.638642	0.376811	-0.890781
C56	C	1.579097	0.309012	-0.827666
H57	H	1.499867	0.346077	-0.811416
H58	H	1.621576	0.295040	-0.750873
H59	H	1.567698	0.231096	-0.869671
O60	O	1.445533	0.571260	-0.945217
C61	C	1.468325	0.676008	-0.918633
H62	H	1.508405	0.678289	-0.839362
H63	H	1.392886	0.723119	-0.914998
H64	H	1.522111	0.711318	-0.980040
O65	O	1.775755	0.897482	-0.238171
C66	C	1.752967	0.924381	-0.134007
H67	H	1.712843	1.004083	-0.131836
H68	H	1.828412	0.928109	-0.087213
H69	H	1.699222	0.862704	-0.098743
H70	H	1.628347	0.387332	-1.108608
H71	H	0.906154	0.624461	-0.385440
O72	O	1.069408	0.441070	-0.568531
C73	C	1.006319	0.501034	-0.635899
H74	H	0.990046	0.580626	-0.598899
H75	H	0.929535	0.458338	-0.649918
H76	H	1.048358	0.512624	-0.713353
H77	H	1.389068	1.105069	-0.624739
O78	O	1.776104	1.113526	-0.238448
C79	C	1.880213	1.086582	-0.261414
H80	H	1.882265	1.006893	-0.301585
H81	H	1.927123	1.082805	-0.186045
H82	H	1.915436	1.148260	-0.315182
H83	H	1.388957	0.906001	-0.624681
