data_functionalizedCrystal
_audit_creation_method	'MofGen! by Chris Wilmer'
_symmetry_space_group_name_H-M	'P1'
_symmetry_Int_Tables_number	1
_symmetry_cell_setting	triclinic
loop_
_symmetry_equiv_pos_as_xyz
  x,y,z
_cell_length_a	9.065218
_cell_length_b	9.065215
_cell_length_c	18.366186
_cell_angle_alpha	89.994788
_cell_angle_beta	89.990902
_cell_angle_gamma	85.015291
loop_
_atom_site_label
_atom_site_type_symbol
_atom_site_fract_x
_atom_site_fract_y
_atom_site_fract_z
O1	O	1.960409	0.216359	-0.060550
O2	O	1.531124	0.234106	-0.060551
O3	O	1.754642	0.010590	-0.060547
O4	O	1.736891	0.439875	-0.060553
O5	O	1.754603	0.010578	0.060552
O6	O	1.531085	0.234094	0.060549
O7	O	1.960370	0.216348	0.060549
Zn8	Zn	1.745721	0.225219	0.079776
Zn9	Zn	1.745772	0.225234	-0.079778
O10	O	1.736852	0.439864	0.060546
C11	C	1.476118	0.232394	-0.000001
C12	C	1.312275	0.227295	-0.000002
C13	C	1.752917	-0.044403	0.000002
C14	C	1.747819	-0.208246	-0.000001
C15	C	2.015376	0.218059	-0.000002
C16	C	2.179219	0.223159	-0.000006
C17	C	1.738576	0.494856	-0.000005
C18	C	1.743674	0.658699	-0.000007
N19	N	1.745697	0.225208	0.188667
N20	N	1.745808	0.225234	-0.188669
C21	C	1.844705	0.126285	0.226769
C22	C	1.844714	0.126278	0.302997
C23	C	1.745730	0.225220	0.341120
C24	C	1.646704	0.324151	0.303009
C25	C	1.646688	0.324144	0.226782
C26	C	1.728193	0.359347	0.461878
C27	C	1.728219	0.359356	0.538103
C28	C	1.745773	0.225240	0.576228
C29	C	1.763330	0.091110	0.538117
C30	C	1.763314	0.091103	0.461891
C31	C	1.745737	0.225238	0.423775
C32	C	1.844795	0.126301	0.696984
C33	C	1.844794	0.126293	0.773214
C34	C	1.646792	0.324178	0.773224
C35	C	1.646786	0.324174	0.696996
C36	C	1.745795	0.225237	0.658881
H37	H	1.925321	0.045721	0.195738
H38	H	1.777623	-0.018101	0.569157
F39	F	1.541307	0.429437	0.186230
H40	H	1.566108	0.404709	0.334052
F41	F	1.950164	0.020998	0.656419
F42	F	1.541437	0.429471	0.813794
H43	H	1.566170	0.404732	0.665971
F44	F	1.781988	-0.051643	0.421334
F45	F	1.709543	0.502107	0.578656
H46	H	1.925340	0.045720	0.334025
F47	F	1.950168	0.020993	0.813766
H48	H	1.713873	0.468567	0.430844
