data_functionalizedCrystal
_audit_creation_method	'MofGen! by Chris Wilmer'
_symmetry_space_group_name_H-M	'P1'
_symmetry_Int_Tables_number	1
_symmetry_cell_setting	triclinic
loop_
_symmetry_equiv_pos_as_xyz
  x,y,z
_cell_length_a	19.288840
_cell_length_b	11.792241
_cell_length_c	18.366186
_cell_angle_alpha	89.993644
_cell_angle_beta	89.983729
_cell_angle_gamma	83.659716
loop_
_atom_site_label
_atom_site_type_symbol
_atom_site_fract_x
_atom_site_fract_y
_atom_site_fract_z
O1	O	0.922167	0.141447	-0.060672
O2	O	0.720013	0.160576	-0.060646
O3	O	0.825996	-0.014235	-0.060655
O4	O	0.816184	0.316257	-0.060664
O5	O	0.825978	-0.014243	0.060445
O6	O	0.719995	0.160567	0.060453
O7	O	0.922149	0.141438	0.060428
Zn8	Zn	0.821069	0.151001	0.079667
Zn9	Zn	0.821093	0.151012	-0.079886
O10	O	0.816166	0.316248	0.060436
C11	C	0.694124	0.159961	-0.000094
C12	C	0.617009	0.158127	-0.000084
C13	C	0.580810	0.157251	-0.066097
C14	C	0.508353	0.155516	-0.066106
C15	C	0.472100	0.154634	-0.000098
C16	C	0.508307	0.155516	0.065924
C17	C	0.580761	0.157263	0.065931
C18	C	0.362371	0.085386	0.050465
C19	C	0.289918	0.083632	0.050456
C20	C	0.248625	0.149251	-0.000117
C21	C	0.279795	0.216610	-0.050691
C22	C	0.352250	0.218356	-0.050684
C23	C	0.393535	0.152740	-0.000098
C24	C	0.133861	0.146495	-0.066144
C25	C	0.061402	0.144767	-0.066150
C26	C	0.061358	0.144756	0.065882
C27	C	0.133814	0.146496	0.065886
C28	C	0.170062	0.147360	-0.000129
C29	C	0.825370	-0.056520	-0.000105
C30	C	0.823526	-0.182506	-0.000106
C31	C	0.820134	-0.413166	-0.000117
C32	C	0.822018	-0.284810	-0.000111
C33	C	0.948038	0.142053	-0.000127
C34	C	1.025153	0.143887	-0.000141
C35	C	0.816792	0.358534	-0.000115
C36	C	0.818636	0.484519	-0.000120
N37	N	0.821058	0.150993	0.188559
N38	N	0.821110	0.151012	-0.188777
C39	C	0.868003	0.073625	0.226655
C40	C	0.868007	0.073620	0.302883
C41	C	0.821073	0.151002	0.341011
C42	C	0.774120	0.228376	0.302905
C43	C	0.774112	0.228371	0.226679
C44	C	0.812362	0.254415	0.461770
C45	C	0.812375	0.254421	0.537994
C46	C	0.821093	0.151016	0.576119
C47	C	0.829813	0.047601	0.538009
C48	C	0.829806	0.047597	0.461783
C49	C	0.821076	0.151015	0.423666
C50	C	0.868045	0.073636	0.696871
C51	C	0.868045	0.073630	0.773100
C52	C	0.774161	0.228396	0.773120
C53	C	0.774158	0.228393	0.696893
C54	C	0.821104	0.151014	0.658772
H55	H	0.246175	0.270048	-0.091870
N56	N	0.726177	0.307435	0.341837
N57	N	0.684264	0.376512	0.307809
H58	H	0.650400	0.432348	0.335303
H59	H	0.163288	0.147202	0.119641
H60	H	0.377625	0.273205	-0.091862
H61	H	0.264546	0.028779	0.091633
N62	N	0.726171	0.307413	0.187749
N63	N	0.726176	0.307405	0.119690
H64	H	0.692319	0.363232	0.092193
N65	N	0.404549	0.018379	0.102139
N66	N	0.395155	0.034946	0.168809
H67	H	0.424944	-0.012369	0.205304
N68	N	0.916000	-0.005421	0.812006
N69	N	0.957907	-0.074500	0.777957
H70	H	0.991776	-0.130333	0.805435
N71	N	0.024335	0.143888	0.133310
N72	N	-0.022205	0.222909	0.148031
H73	H	-0.048355	0.222306	0.195656
H74	H	0.805279	0.338627	0.569018
N75	N	0.838699	-0.058029	0.576947
N76	N	0.792199	-0.083300	0.619492
H77	H	0.798471	-0.157900	0.646994
H78	H	0.805251	0.338624	0.430735
H79	H	0.478874	0.154804	-0.119863
H80	H	0.610318	0.157955	-0.119851
H81	H	0.163374	0.147211	-0.119897
N82	N	0.024433	0.143888	-0.133591
N83	N	0.056809	0.144665	-0.192523
H84	H	0.030699	0.144046	-0.240156
N85	N	0.915914	-0.005549	0.657938
N86	N	0.957765	-0.074726	0.691966
H87	H	0.991540	-0.130705	0.664472
H88	H	0.478784	0.154801	0.119668
N89	N	0.726216	0.307423	0.812069
N90	N	0.726224	0.307413	0.880128
H91	H	0.692360	0.363224	0.907639
N92	N	0.617729	0.158166	0.133372
N93	N	0.585355	0.157392	0.192305
H94	H	0.611465	0.158030	0.239936
N95	N	0.838712	-0.058040	0.422865
N96	N	0.846498	-0.150362	0.456905
H97	H	0.852786	-0.224971	0.429420
N98	N	0.726200	0.307432	0.657985
N99	N	0.684294	0.376515	0.692033
H100	H	0.650419	0.432338	0.664555
H101	H	0.906236	0.010615	0.333907
N102	N	0.916018	-0.005325	0.187729
N103	N	0.957970	-0.074337	0.221760
H104	H	0.991904	-0.130061	0.194267
