data_functionalizedCrystal
_audit_creation_method	'MofGen! by Chris Wilmer'
_symmetry_space_group_name_H-M	'P1'
_symmetry_Int_Tables_number	1
_symmetry_cell_setting	triclinic
loop_
_symmetry_equiv_pos_as_xyz
  x,y,z
_cell_length_a	12.594517
_cell_length_b	12.759400
_cell_length_c	12.759393
_cell_angle_alpha	89.970739
_cell_angle_beta	89.972452
_cell_angle_gamma	90.008967
loop_
_atom_site_label
_atom_site_type_symbol
_atom_site_fract_x
_atom_site_fract_y
_atom_site_fract_z
Zn1	Zn	-1.627300	0.418357	0.594214
Zn2	Zn	-1.127300	0.918357	1.094214
Zn3	Zn	-1.627192	0.594073	0.418538
Zn4	Zn	-1.127192	1.094073	0.918538
Zn5	Zn	-1.449299	0.418393	0.418529
Zn6	Zn	-0.949299	0.918393	0.918529
Zn7	Zn	-1.449293	0.593979	0.594155
Zn8	Zn	-0.949293	1.093979	1.094155
O9	O	-1.538271	0.506201	0.506359
O10	O	-1.038271	1.006201	1.006359
O11	O	-1.776232	0.441691	0.570939
O12	O	-1.276232	0.941691	1.070939
O13	O	-1.603551	0.570823	0.271516
O14	O	-1.103551	1.070823	0.771516
O15	O	-1.472959	0.271367	0.441855
O16	O	-0.972959	0.771367	0.941855
O17	O	-1.776152	0.570788	0.441871
O18	O	-1.276152	1.070788	0.941871
O19	O	-1.603736	0.271341	0.570930
O20	O	-1.103736	0.771341	1.070930
O21	O	-1.472854	0.441751	0.271509
O22	O	-0.972854	0.941751	0.771509
O23	O	-1.300352	0.441661	0.441798
O24	O	-0.800352	0.941661	0.941798
O25	O	-1.472948	0.570628	0.741184
O26	O	-0.972948	1.070628	1.241184
O27	O	-1.300348	0.570663	0.570830
O28	O	-0.800348	1.070663	1.070830
O29	O	-1.603730	0.441600	0.741228
O30	O	-1.103730	0.941600	1.241228
O31	O	-1.603545	0.741081	0.441813
O32	O	-1.103545	1.241081	0.941813
O33	O	-1.472843	0.741013	0.570838
O34	O	-0.972843	1.241013	1.070838
C35	C	-1.261730	0.506156	0.506307
C36	C	-0.761730	1.006156	1.006307
C37	C	-1.143424	0.506163	0.506309
C38	C	-0.643424	1.006163	1.006309
C39	C	-1.538211	0.779168	0.506343
C40	C	-1.038211	1.279168	1.006343
C41	C	-1.538283	0.895945	0.506371
C42	C	-1.038283	1.395945	1.006371
C43	C	-1.538350	0.506100	0.780393
C44	C	-1.038350	1.006100	1.280393
C45	C	-1.538384	0.506057	0.897169
C46	C	-1.038384	1.006057	1.397169
C47	C	-1.074143	0.435897	0.436258
C48	C	-0.574143	0.935897	0.936258
C49	C	-1.003334	0.531726	0.410412
C50	C	-0.503334	1.031726	0.910412
C51	C	-1.003434	0.410363	0.532157
C52	C	-0.503434	0.910363	1.032157
C53	C	-1.074174	0.602042	0.480414
C54	C	-0.574174	1.102042	0.980414
C55	C	-1.074280	0.480615	0.602203
C56	C	-0.574280	0.980615	1.102203
C57	C	-1.003503	0.576510	0.576394
C58	C	-0.503503	1.076510	1.076394
C59	C	-0.815892	0.506225	0.506393
C60	C	-0.315892	1.006225	1.006393
C61	C	-0.934197	0.506181	0.506358
C62	C	-0.434197	1.006181	1.006358
C63	C	-1.538360	0.232167	0.506398
C64	C	-1.038360	0.732167	1.006398
C65	C	-1.538398	0.115391	0.506415
C66	C	-1.038398	0.615391	1.006415
C67	C	-1.606401	1.060440	0.573661
C68	C	-1.106401	1.560440	1.073661
C69	C	-1.606346	0.950716	0.573637
C70	C	-1.106346	1.450716	1.073637
C71	C	-1.470277	0.950903	0.439118
C72	C	-0.970277	1.450903	0.939118
C73	C	-1.470338	1.060625	0.439138
C74	C	-0.970338	1.560625	0.939138
C75	C	-1.538253	0.506225	0.233392
C76	C	-1.038253	1.006225	0.733392
C77	C	-1.538425	0.505972	0.116616
C78	C	-1.038425	1.005972	0.616616
C79	C	-1.606487	0.438861	0.952056
C80	C	-1.106487	0.938861	1.452056
C81	C	-1.606505	0.438815	1.061780
C82	C	-1.106505	0.938815	1.561780
C83	C	-1.470314	0.573171	1.061722
C84	C	-0.970314	1.073171	1.561722
C85	C	-1.470292	0.573210	0.952000
C86	C	-0.970292	1.073210	1.452000
H87	H	-1.105160	0.376541	0.376951
H88	H	-0.605160	0.876541	0.876951
H89	H	-1.105118	0.683091	0.458482
H90	H	-0.605118	1.183091	0.958482
Cl91	Cl	-0.955221	0.565112	0.285241
Cl92	Cl	-0.455221	1.065112	0.785241
H93	H	-0.972305	0.329349	0.553962
H94	H	-0.472305	0.829349	1.053962
Cl95	Cl	-1.384846	1.129711	0.354588
Cl96	Cl	-0.884846	1.629711	0.854588
Cl97	Cl	-1.692085	0.354435	0.883130
Cl98	Cl	-1.192085	0.854435	1.383130
H99	H	-0.972682	0.636008	0.635655
H100	H	-0.472682	1.136008	1.135655
H101	H	-1.661816	1.105027	0.628447
H102	H	-1.161816	1.605027	1.128447
Cl103	Cl	-1.122429	0.447187	0.727343
Cl104	Cl	-0.622429	0.947187	1.227343
Cl105	Cl	-1.691841	0.881639	0.658177
Cl106	Cl	-1.191841	1.381639	1.158177
H107	H	-1.414827	0.627929	0.907310
H108	H	-0.914827	1.127929	1.407310
H109	H	-1.661960	0.384096	1.106463
H110	H	-1.161960	0.884096	1.606463
Cl111	Cl	-1.384714	0.882048	0.354551
Cl112	Cl	-0.884714	1.382048	0.854551
H113	H	-1.414878	0.627848	1.106378
H114	H	-0.914878	1.127848	1.606378
