data_functionalizedCrystal
_audit_creation_method	'MofGen! by Chris Wilmer'
_symmetry_space_group_name_H-M	'P1'
_symmetry_Int_Tables_number	1
_symmetry_cell_setting	triclinic
loop_
_symmetry_equiv_pos_as_xyz
  x,y,z
_cell_length_a	19.288864
_cell_length_b	12.837942
_cell_length_c	17.766277
_cell_angle_alpha	89.994736
_cell_angle_beta	89.976791
_cell_angle_gamma	88.982593
loop_
_atom_site_label
_atom_site_type_symbol
_atom_site_fract_x
_atom_site_fract_y
_atom_site_fract_z
O1	O	0.930181	0.129276	-0.062838
O2	O	1.430181	0.629276	0.437162
O3	O	0.729111	0.146715	-0.062786
O4	O	1.229111	0.646715	0.437214
O5	O	0.825187	-0.012886	-0.062806
O6	O	1.325187	0.487114	0.437194
O7	O	0.834104	0.288878	-0.062818
O8	O	1.334104	0.788878	0.437182
O9	O	0.825168	-0.012894	0.062382
O10	O	1.325168	0.487106	0.562382
O11	O	0.729091	0.146707	0.062402
O12	O	1.229091	0.646707	0.562402
O13	O	0.930161	0.129268	0.062351
O14	O	1.430161	0.629268	0.562351
Cu15	Cu	0.829625	0.137987	0.073807
Cu16	Cu	1.329625	0.637987	0.573807
Cu17	Cu	0.829647	0.137996	-0.074243
Cu18	Cu	1.329647	0.637996	0.425757
O19	O	0.834085	0.288870	0.062371
O20	O	1.334085	0.788870	0.562371
C21	C	0.703186	0.146150	-0.000185
C22	C	1.203186	0.646150	0.499815
C23	C	0.625968	0.144466	-0.000166
C24	C	1.125968	0.644466	0.499834
C25	C	0.587666	0.238113	-0.000181
C26	C	1.087666	0.738113	0.499819
C27	C	0.515111	0.236530	-0.000189
C28	C	1.015111	0.736530	0.499811
C29	C	0.480860	0.141295	-0.000197
C30	C	0.980860	0.641295	0.499803
C31	C	0.519171	0.047636	-0.000178
C32	C	1.019171	0.547636	0.499822
C33	C	0.591725	0.049221	-0.000162
C34	C	1.091725	0.549221	0.499838
C35	C	0.367493	0.066433	-0.044079
C36	C	0.867493	0.566433	0.455921
C37	C	0.294941	0.064852	-0.044099
C38	C	0.794941	0.564852	0.455901
C39	C	0.257081	0.136402	-0.000243
C40	C	0.757081	0.636402	0.499757
C41	C	0.291782	0.209552	0.043625
C42	C	0.791782	0.709552	0.543625
C43	C	0.364335	0.211137	0.043640
C44	C	0.864335	0.711137	0.543640
C45	C	0.402188	0.139566	-0.000214
C46	C	0.902188	0.639566	0.499786
C47	C	0.140106	0.228340	-0.000266
C48	C	0.640106	0.728340	0.499734
C49	C	0.067550	0.226753	-0.000270
C50	C	0.567550	0.726753	0.499730
C51	C	0.071611	0.037857	-0.000265
C52	C	0.571611	0.537857	0.499735
C53	C	0.144166	0.039446	-0.000254
C54	C	0.644166	0.539446	0.499746
C55	C	0.178409	0.134690	-0.000258
C56	C	0.678409	0.634690	0.499742
C57	C	0.822165	-0.051497	-0.000212
C58	C	1.322165	0.448503	0.499788
C59	C	0.813181	-0.166532	-0.000211
C60	C	1.313181	0.333468	0.499789
C61	C	0.921187	-0.407995	-0.000254
C62	C	1.421187	0.092005	0.499746
C63	C	0.912748	-0.516081	-0.000253
C64	C	1.412748	-0.016081	0.499747
C65	C	0.787867	-0.490793	-0.000213
C66	C	1.287867	0.009207	0.499787
C67	C	0.796305	-0.382707	-0.000214
C68	C	1.296305	0.117293	0.499786
C69	C	0.862967	-0.341312	-0.000233
C70	C	1.362967	0.158688	0.499767
C71	C	0.871405	-0.233223	-0.000229
C72	C	1.371405	0.266777	0.499771
C73	C	0.746524	-0.207938	-0.000195
C74	C	1.246524	0.292062	0.499805
C75	C	0.738086	-0.316024	-0.000194
C76	C	1.238086	0.183976	0.499806
C77	C	0.956086	0.129833	-0.000252
C78	C	1.456086	0.629833	0.499748
C79	C	1.033304	0.131518	-0.000276
C80	C	1.533304	0.631518	0.499724
C81	C	0.837107	0.327480	-0.000225
C82	C	1.337107	0.827480	0.499775
C83	C	0.846091	0.442515	-0.000231
C84	C	1.346091	0.942515	0.499769
N85	N	0.829614	0.137979	0.177938
N86	N	1.329614	0.637979	0.677938
N87	N	0.829663	0.137996	-0.178373
N88	N	1.329663	0.637996	0.321627
C89	C	0.872174	0.067342	0.217316
C90	C	1.372174	0.567342	0.717316
C91	C	0.872178	0.067338	0.296118
C92	C	1.372178	0.567338	0.796118
C93	C	0.829629	0.137988	0.335538
C94	C	1.329629	0.637988	0.835538
C95	C	0.787060	0.208630	0.296151
C96	C	1.287060	0.708630	0.796151
C97	C	0.787052	0.208626	0.217350
C98	C	1.287052	0.708626	0.717350
C99	C	0.826778	0.232410	0.460374
C100	C	1.326778	0.732410	0.960374
C101	C	0.826790	0.232416	0.539173
C102	C	1.326790	0.732416	1.039173
C103	C	0.829648	0.138000	0.578584
C104	C	1.329648	0.638000	1.078584
C105	C	0.832508	0.043575	0.539188
C106	C	1.332508	0.543575	1.039188
C107	C	0.832501	0.043571	0.460387
C108	C	1.332501	0.543571	0.960387
C109	C	0.829632	0.138000	0.420984
C110	C	1.329632	0.638000	0.920984
C111	C	0.872215	0.067352	0.703409
C112	C	1.372215	0.567352	1.203409
C113	C	0.872213	0.067346	0.782212
C114	C	1.372213	0.567346	1.282212
C115	C	0.787100	0.208647	0.782243
C116	C	1.287100	0.708647	1.282243
C117	C	0.787097	0.208645	0.703442
C118	C	1.287097	0.708645	1.203442
C119	C	0.829658	0.137998	0.664029
C120	C	1.329658	0.637998	1.164029
H121	H	0.260958	0.267814	0.079337
H122	H	0.760958	0.767814	0.579337
O123	O	0.181271	-0.051620	-0.000281
O124	O	0.681271	0.448380	0.499719
C125	C	0.135486	-0.136018	-0.000270
C126	C	0.635486	0.363982	0.499730
H127	H	0.083185	-0.109460	-0.023983
H128	H	0.583185	0.390540	0.476017
H129	H	0.157889	-0.201612	-0.036610
H130	H	0.657889	0.298388	0.463390
H131	H	0.128361	-0.165231	0.059788
H132	H	0.628361	0.334769	0.559788
O133	O	0.985987	-0.367949	-0.000305
O134	O	1.485987	0.132051	0.499695
C135	C	1.035565	-0.449984	-0.000300
C136	C	1.535565	0.050016	0.499700
H137	H	1.011250	-0.523325	-0.023993
H138	H	1.511250	-0.023325	0.476007
H139	H	1.081677	-0.427592	-0.036659
H140	H	1.581677	0.072408	0.463341
H141	H	1.053859	-0.465372	0.059754
H142	H	1.553859	0.034628	0.559754
H143	H	0.398313	0.008166	-0.079797
H144	H	0.898313	0.508166	0.420203
H145	H	0.834835	-0.033307	0.571275
H146	H	1.334835	0.466693	1.071275
H147	H	0.266693	0.005293	-0.079822
H148	H	0.766693	0.505293	0.420178
H149	H	0.483920	0.312791	-0.000200
H150	H	0.983920	0.812791	0.499800
O151	O	0.913584	-0.001326	0.334264
O152	O	1.413584	0.498674	0.834264
C153	C	0.951129	-0.063704	0.282579
C154	C	1.451129	0.436296	0.782579
H155	H	0.954723	-0.021223	0.226401
H156	H	1.454723	0.478777	0.726401
H157	H	1.005536	-0.079725	0.305324
H158	H	1.505536	0.420275	0.805324
H159	H	0.923488	-0.140602	0.274220
H160	H	1.423488	0.359398	0.774220
H161	H	0.752444	0.266168	0.671378
H162	H	1.252444	0.766168	1.171378
H163	H	0.491280	-0.029905	-0.000194
H164	H	0.991280	0.470095	0.499806
O165	O	0.745691	0.277351	0.179211
O166	O	1.245691	0.777351	0.679211
C167	C	0.708120	0.339689	0.230898
C168	C	1.208120	0.839689	0.730898
H169	H	0.736668	0.340754	0.287056
H170	H	1.236668	0.840754	0.787056
H171	H	0.703000	0.422490	0.208126
H172	H	1.203000	0.922490	0.708126
H173	H	0.654312	0.306235	0.239307
H174	H	1.154312	0.806235	0.739307
O175	O	0.835244	-0.048240	0.422234
O176	O	1.335244	0.451760	0.922234
C177	C	0.837787	-0.131578	0.473909
C178	C	1.337787	0.368422	0.973909
H179	H	0.815147	-0.104809	0.530093
H180	H	1.315147	0.395191	1.030093
H181	H	0.806333	-0.199004	0.451162
H182	H	1.306333	0.300996	0.951162
H183	H	0.893936	-0.158311	0.482257
H184	H	1.393936	0.341689	0.982257
H185	H	0.615542	0.315668	-0.000186
H186	H	1.115542	0.815668	0.499814
H187	H	0.036366	0.303015	-0.000278
H188	H	0.536366	0.803015	0.499722
H189	H	0.043725	-0.039685	-0.000319
H190	H	0.543725	0.460315	0.499681
O191	O	0.723167	-0.531188	-0.000163
O192	O	1.223167	-0.031188	0.499837
C193	C	0.728208	-0.640886	-0.000191
C194	C	1.228208	-0.140886	0.499809
H195	H	0.780716	-0.666514	0.023492
H196	H	1.280716	-0.166514	0.523492
H197	H	0.685122	-0.673905	0.036166
H198	H	1.185122	-0.173905	0.536166
H199	H	0.722862	-0.670946	-0.060250
H200	H	1.222862	-0.170946	0.439750
H201	H	0.960157	-0.570371	-0.000272
H202	H	1.460157	-0.070371	0.499728
O203	O	0.673370	-0.356365	-0.000274
O204	O	1.173370	0.143635	0.499726
C205	C	0.664750	-0.418096	-0.065118
C206	C	1.164750	0.081904	0.434882
H207	H	0.717700	-0.445260	-0.086755
H208	H	1.217700	0.054740	0.413245
H209	H	0.632391	-0.488756	-0.050527
H210	H	1.132391	0.011244	0.449473
H211	H	0.637191	-0.370193	-0.110507
H212	H	1.137191	0.129807	0.389493
H213	H	0.824466	0.309302	0.571244
H214	H	1.324466	0.809302	1.071244
O215	O	0.913596	-0.001133	0.820550
O216	O	1.413596	0.498867	1.320550
C217	C	0.960115	0.054213	0.866091
C218	C	1.460115	0.554213	1.366091
H219	H	0.937819	0.135407	0.877900
H220	H	1.437819	0.635407	1.377900
H221	H	0.968243	0.010918	0.921503
H222	H	1.468243	0.510918	1.421503
H223	H	1.011898	0.061066	0.835696
H224	H	1.511898	0.561066	1.335696
O225	O	0.690039	-0.143013	-0.000211
O226	O	1.190039	0.356987	0.499789
C227	C	0.711778	-0.038735	-0.000194
C228	C	1.211778	0.461265	0.499806
H229	H	0.766595	-0.034833	-0.023911
H230	H	1.266595	0.465167	0.476089
H231	H	0.675112	0.010425	-0.036527
H232	H	1.175112	0.510425	0.463473
H233	H	0.711206	-0.007475	0.059867
H234	H	1.211206	0.492525	0.559867
H235	H	0.622910	-0.027040	-0.000150
H236	H	1.122910	0.472960	0.499850
H237	H	0.906828	0.009816	0.185228
H238	H	1.406828	0.509816	0.685228
O239	O	0.913570	-0.001378	0.665234
O240	O	1.413570	0.498622	1.165234
C241	C	0.951144	-0.063718	0.716893
C242	C	1.451144	0.436282	1.216893
H243	H	0.922601	-0.064780	0.773079
H244	H	1.422601	0.435220	1.273079
H245	H	0.956260	-0.146520	0.694128
H246	H	1.456260	0.353480	1.194128
H247	H	1.004954	-0.030267	0.725244
H248	H	1.504954	0.469733	1.225244
H249	H	0.392586	0.270694	0.079361
H250	H	0.892586	0.770694	0.579361
H251	H	0.925684	-0.199522	-0.000242
H252	H	1.425684	0.300478	0.499758
O253	O	0.745728	0.277135	0.820609
O254	O	1.245728	0.777135	1.320609
C255	C	0.699210	0.221798	0.866204
C256	C	1.199210	0.721798	1.366204
H257	H	0.721503	0.140602	0.878005
H258	H	1.221503	0.640602	1.378005
H259	H	0.691089	0.265097	0.921617
H260	H	1.191089	0.765097	1.421617
H261	H	0.647424	0.214949	0.835861
H262	H	1.147424	0.714949	1.335861
H263	H	0.824438	0.309300	0.428291
H264	H	1.324438	0.809300	0.928291
H265	H	0.752415	0.266153	0.328251
H266	H	1.252415	0.766153	0.828251
O267	O	0.173266	0.320946	-0.000228
O268	O	0.673266	0.820946	0.499772
C269	C	0.123897	0.403265	-0.000255
C270	C	0.623897	0.903265	0.499745
H271	H	0.072761	0.374445	0.023438
H272	H	0.572761	0.874445	0.523438
H273	H	0.143422	0.469773	0.036093
H274	H	0.643422	0.969773	0.536093
H275	H	0.115587	0.432142	-0.060316
H276	H	0.615587	0.932142	0.439684
