data_functionalizedCrystal
_audit_creation_method	'MofGen! by Chris Wilmer'
_symmetry_space_group_name_H-M	'P1'
_symmetry_Int_Tables_number	1
_symmetry_cell_setting	triclinic
loop_
_symmetry_equiv_pos_as_xyz
  x,y,z
_cell_length_a	9.065215
_cell_length_b	19.188930
_cell_length_c	8.140239
_cell_angle_alpha	90.008629
_cell_angle_beta	90.002190
_cell_angle_gamma	84.079739
loop_
_atom_site_label
_atom_site_type_symbol
_atom_site_fract_x
_atom_site_fract_y
_atom_site_fract_z
O1	O	1.956849	0.102360	0.136616
O2	O	1.527272	0.110759	0.136625
O3	O	1.754457	0.005000	0.136588
O4	O	1.729664	0.208119	0.136653
O5	O	1.754445	0.004999	-0.136639
O6	O	1.527260	0.110757	-0.136602
O7	O	1.956837	0.102359	-0.136611
Zn8	Zn	1.742046	0.106558	-0.179987
Zn9	Zn	1.742063	0.106559	0.180001
O10	O	1.729652	0.208117	-0.136574
C11	C	1.472308	0.109951	0.000012
C12	C	1.308548	0.107539	0.000015
C13	C	1.753648	-0.021018	-0.000030
C14	C	1.751238	-0.098541	-0.000044
C15	C	1.884543	-0.142430	-0.000055
C16	C	1.882279	-0.215272	-0.000028
C17	C	1.746702	-0.244221	-0.000024
C18	C	1.613380	-0.200322	-0.000004
C19	C	1.615648	-0.127482	-0.000014
N20	N	1.643065	-0.353031	-0.093006
N21	N	1.640920	-0.422226	-0.093000
C22	C	1.739860	-0.463683	0.000009
N23	N	1.841049	-0.433331	0.092992
N24	N	1.843199	-0.364130	0.092979
C25	C	1.744228	-0.323202	-0.000012
C26	C	1.870719	-0.586555	0.000029
C27	C	1.868449	-0.659397	0.000066
C28	C	1.599546	-0.644446	0.000073
C29	C	1.601820	-0.571605	0.000053
C30	C	1.737410	-0.542664	0.000024
C31	C	2.011802	0.103166	0.000005
C32	C	2.175561	0.105578	0.000014
C33	C	1.730461	0.234135	0.000048
C34	C	1.732871	0.311659	0.000073
N35	N	1.742046	0.106556	-0.425670
N36	N	1.742075	0.106556	0.425684
H37	H	1.994951	-0.118871	-0.000073
O38	O	1.467145	-0.231539	-0.000019
H39	H	1.487962	-0.289563	-0.000036
H40	H	1.493268	-0.535870	0.000053
H41	H	1.981125	-0.562990	0.000013
O42	O	1.471865	-0.080137	-0.000031
H43	H	1.377204	-0.112502	-0.000036
H44	H	1.489157	-0.668016	0.000085
O45	O	2.026061	-0.262623	-0.000062
H46	H	2.120724	-0.230261	-0.000098
O47	O	2.012234	-0.706741	0.000041
H48	H	2.106892	-0.674375	-0.000002
