data_functionalizedCrystal
_audit_creation_method	'MofGen! by Chris Wilmer'
_symmetry_space_group_name_H-M	'P1'
_symmetry_Int_Tables_number	1
_symmetry_cell_setting	triclinic
loop_
_symmetry_equiv_pos_as_xyz
  x,y,z
_cell_length_a	29.839131
_cell_length_b	14.908783
_cell_length_c	29.839125
_cell_angle_alpha	93.315207
_cell_angle_beta	90.011606
_cell_angle_gamma	93.332050
loop_
_atom_site_label
_atom_site_type_symbol
_atom_site_fract_x
_atom_site_fract_y
_atom_site_fract_z
Zn1	Zn	-0.139383	1.379091	0.293697
Zn2	Zn	0.360617	1.879091	0.793697
Zn3	Zn	-0.214491	1.378950	0.218563
Zn4	Zn	0.285509	1.878950	0.718563
Zn5	Zn	-0.143699	1.228236	0.214238
Zn6	Zn	0.356301	1.728236	0.714238
Zn7	Zn	-0.218817	1.228135	0.289324
Zn8	Zn	0.281183	1.728135	0.789324
O9	O	-0.179097	1.303603	0.253955
O10	O	0.320903	1.803603	0.753955
O11	O	-0.145729	1.505323	0.287370
O12	O	0.354271	2.005323	0.787370
O13	O	-0.205096	1.358941	0.155121
O14	O	0.294904	1.858941	0.655121
O15	O	-0.080256	1.248348	0.224798
O16	O	0.419744	1.748348	0.724798
O17	O	-0.200911	1.505219	0.232170
O18	O	0.299089	2.005219	0.732170
O19	O	-0.077085	1.359181	0.283176
O20	O	0.422915	1.859181	0.783176
O21	O	-0.153086	1.248212	0.151944
O22	O	0.346914	1.748212	0.651944
O23	O	-0.157280	1.101972	0.220558
O24	O	0.342720	1.601972	0.720558
O25	O	-0.208284	1.248176	0.352771
O26	O	0.291716	1.748176	0.852771
O27	O	-0.212469	1.101898	0.275723
O28	O	0.287531	1.601898	0.775723
O29	O	-0.149924	1.359083	0.355984
O30	O	0.350076	1.859083	0.855984
O31	O	-0.277935	1.358844	0.227929
O32	O	0.222065	1.858844	0.727929
O33	O	-0.281113	1.248040	0.279917
O34	O	0.218887	1.748040	0.779917
C35	C	-0.185813	1.069200	0.247197
C36	C	0.314187	1.569200	0.747197
C37	C	-0.188697	0.968921	0.244316
C38	C	0.311303	1.468921	0.744316
C39	C	-0.136733	0.780592	0.296471
C40	C	0.363267	1.280592	0.796471
C41	C	-0.139441	0.686371	0.293766
C42	C	0.360559	1.186371	0.793766
C43	C	-0.196818	0.686257	0.236199
C44	C	0.303182	1.186257	0.736199
C45	C	-0.194110	0.780478	0.238904
C46	C	0.305890	1.280478	0.738904
C47	C	-0.164067	0.827642	0.269042
C48	C	0.335933	1.327642	0.769042
C49	C	-0.161362	0.921865	0.271749
C50	C	0.338638	1.421865	0.771749
C51	C	-0.218736	0.921748	0.214179
C52	C	0.281264	1.421748	0.714179
C53	C	-0.221444	0.827528	0.211474
C54	C	0.278556	1.327528	0.711474
C55	C	-0.295825	1.303440	0.253928
C56	C	0.204175	1.803440	0.753928
C57	C	-0.345759	1.303453	0.253934
C58	C	0.154241	1.803453	0.753934
C59	C	-0.653727	1.361403	0.226930
C60	C	-0.153727	1.861403	0.726930
C61	C	-0.841397	1.361515	0.226951
C62	C	-0.341397	1.861515	0.726951
O63	O	-0.864241	1.410657	0.203970
O64	O	-0.364241	1.910657	0.703970
N65	N	-0.866534	1.303790	0.253994
N66	N	-0.366534	1.803790	0.753994
C67	C	-0.844751	1.246038	0.281037
C68	C	-0.344751	1.746038	0.781037
O69	O	-0.870437	1.196949	0.304043
O70	O	-0.370437	1.696949	0.804043
C71	C	-0.657081	1.245932	0.281018
C72	C	-0.157081	1.745932	0.781018
C73	C	-0.631947	1.303654	0.253970
C74	C	-0.131947	1.803654	0.753970
C75	C	-0.628593	1.419121	0.199884
C76	C	-0.128593	1.919121	0.699884
C77	C	-0.581678	1.419089	0.199877
C78	C	-0.081678	1.919089	0.699877
C79	C	-0.559898	1.361340	0.226917
C80	C	-0.059898	1.861340	0.726917
C81	C	-0.585032	1.303622	0.253963
C82	C	-0.085032	1.803622	0.753963
C83	C	-0.635299	1.188185	0.308063
C84	C	-0.135299	1.688185	0.808063
C85	C	-0.588378	1.188165	0.308057
C86	C	-0.088378	1.688165	0.808057
C87	C	-0.563244	1.245887	0.281008
C88	C	-0.063244	1.745887	0.781008
C89	C	-0.516338	1.245840	0.280996
C90	C	-0.016338	1.745840	0.780996
N91	N	-0.491201	1.303565	0.253952
N92	N	0.008799	1.803565	0.753952
C93	C	-0.512981	1.361314	0.226913
C94	C	-0.012981	1.861314	0.726913
C95	C	-0.943280	1.246096	0.281044
C96	C	-0.443280	1.746096	0.781044
C97	C	-0.990197	1.246122	0.281048
C98	C	-0.490197	1.746122	0.781048
C99	C	-0.986840	1.361600	0.226963
C100	C	-0.486840	1.861600	0.726963
C101	C	-0.939922	1.361569	0.226956
C102	C	-0.439922	1.861569	0.726956
C103	C	-0.918143	1.303821	0.254001
C104	C	-0.418143	1.803821	0.754001
C105	C	-0.414457	1.361242	0.226900
C106	C	0.085543	1.861242	0.726900
C107	C	-0.367539	1.361203	0.226895
C108	C	0.132461	1.861203	0.726895
C109	C	-0.370900	1.245728	0.280982
C110	C	0.129100	1.745728	0.780982
C111	C	-0.417814	1.245764	0.280986
C112	C	0.082186	1.745764	0.780986
C113	C	-0.439592	1.303529	0.253944
C114	C	0.060408	1.803529	0.753944
O115	O	-0.493463	1.196731	0.303968
O116	O	0.006537	1.696731	0.803968
O117	O	-0.487286	1.410410	0.203917
O118	O	0.012714	1.910410	0.703917
C119	C	-0.700642	1.361435	0.226937
C120	C	-0.200642	1.861435	0.726937
C121	C	-0.725776	1.303717	0.253983
C122	C	-0.225776	1.803717	0.753983
C123	C	-0.703996	1.245968	0.281023
C124	C	-0.203996	1.745968	0.781023
C125	C	-0.772693	1.303743	0.253987
C126	C	-0.272693	1.803743	0.753987
C127	C	-0.794473	1.361492	0.226948
C128	C	-0.294473	1.861492	0.726948
C129	C	-0.769336	1.419217	0.199904
C130	C	-0.269336	1.919217	0.699904
C131	C	-0.722422	1.419185	0.199897
C132	C	-0.222422	1.919185	0.699897
C133	C	-0.729133	1.188243	0.308066
C134	C	-0.229133	1.688243	0.808066
C135	C	-0.776047	1.188279	0.308070
C136	C	-0.276047	1.688279	0.808070
C137	C	-0.797828	1.246029	0.281031
C138	C	-0.297828	1.746029	0.781031
C139	C	-0.061913	1.303791	0.253993
C140	C	0.438087	1.803791	0.753993
C141	C	-0.011977	1.303871	0.254009
C142	C	0.488023	1.803871	0.754009
C143	C	-0.179105	1.303634	0.371134
C144	C	0.320895	1.803634	0.871134
C145	C	-0.179108	1.303648	0.421069
C146	C	0.320892	1.803648	0.921069
C147	C	-0.172356	1.538922	0.260740
C148	C	0.327644	2.038922	0.760740
C149	C	-0.169483	1.639200	0.263632
C150	C	0.330517	2.139200	0.763632
C151	C	-0.179056	1.303624	0.137233
C152	C	0.320944	1.803624	0.637233
C153	C	-0.178921	1.303786	0.087304
C154	C	0.321079	1.803786	0.587304
C155	C	-0.209391	1.245961	0.775985
C156	C	0.290609	1.745961	1.275985
C157	C	-0.209444	1.245929	0.588311
C158	C	0.290556	1.745929	1.088311
O159	O	-0.235279	1.196793	0.562623
O160	O	0.264721	1.696793	1.062623
N161	N	-0.179066	1.303668	0.566515
N162	N	0.320934	1.803668	1.066515
C163	C	-0.148671	1.361415	0.591640
C164	C	0.351329	1.861415	1.091640
O165	O	-0.122830	1.410518	0.568795
O166	O	0.377170	1.910518	1.068795
C167	C	-0.148616	1.361442	0.779313
C168	C	0.351384	1.861442	1.279313
C169	C	-0.178999	1.303705	0.801107
C170	C	0.321001	1.803705	1.301107
C171	C	-0.239771	1.188229	0.797779
C172	C	0.260229	1.688229	1.297779
C173	C	-0.239760	1.188241	0.844695
C174	C	0.260240	1.688241	1.344695
C175	C	-0.209367	1.245985	0.869817
C176	C	0.290633	1.745985	1.369817
C177	C	-0.178987	1.303718	0.848023
C178	C	0.321013	1.803718	1.348023
C179	C	-0.118219	1.419184	0.804437
C180	C	0.381781	1.919184	1.304437
C181	C	-0.118207	1.419184	0.851358
C182	C	0.381793	1.919184	1.351358
C183	C	-0.148590	1.361447	0.873152
C184	C	0.351410	1.861447	1.373152
C185	C	-0.148583	1.361474	0.920060
C186	C	0.351417	1.861474	1.420060
N187	N	-0.178961	1.303735	0.941857
N188	N	0.321039	1.803735	1.441857
C189	C	-0.209353	1.245991	0.916735
C190	C	0.290647	1.745991	1.416735
C191	C	-0.148702	1.361397	0.493109
C192	C	0.351298	1.861397	0.993109
C193	C	-0.148716	1.361392	0.446191
C194	C	0.351284	1.861392	0.946191
C195	C	-0.209489	1.245905	0.442865
C196	C	0.290511	1.745905	0.942865
C197	C	-0.209477	1.245915	0.489784
C198	C	0.290523	1.745915	0.989784
C199	C	-0.179080	1.303659	0.514905
C200	C	0.320920	1.803659	1.014905
C201	C	-0.209326	1.246021	1.015262
C202	C	0.290674	1.746021	1.515262
C203	C	-0.209313	1.246041	1.062182
C204	C	0.290687	1.746041	1.562182
C205	C	-0.148539	1.361525	1.065503
C206	C	0.351461	1.861525	1.565503
C207	C	-0.148554	1.361509	1.018587
C208	C	0.351446	1.861509	1.518587
C209	C	-0.178949	1.303750	0.993468
C210	C	0.321051	1.803750	1.493468
O211	O	-0.122759	1.410577	0.945776
O212	O	0.377241	1.910577	1.445776
O213	O	-0.235183	1.196881	0.939588
O214	O	0.264817	1.696881	1.439588
C215	C	-0.209403	1.245949	0.729070
C216	C	0.290597	1.745949	1.229070
C217	C	-0.179023	1.303681	0.707275
C218	C	0.320977	1.803681	1.207275
C219	C	-0.148631	1.361426	0.732397
C220	C	0.351369	1.861426	1.232397
C221	C	-0.179037	1.303676	0.660357
C222	C	0.320963	1.803676	1.160357
C223	C	-0.209429	1.245931	0.635236
C224	C	0.290571	1.745931	1.135236
C225	C	-0.239807	1.188192	0.657032
C226	C	0.260193	1.688192	1.157032
C227	C	-0.239795	1.188204	0.703948
C228	C	0.260205	1.688204	1.203948
C229	C	-0.118253	1.419165	0.710601
C230	C	0.381747	1.919165	1.210601
C231	C	-0.118267	1.419148	0.663685
C232	C	0.381733	1.919148	1.163685
C233	C	-0.148659	1.361404	0.638563
C234	C	0.351341	1.861404	1.138563
H235	H	-0.240996	0.960066	0.191847
H236	H	0.259004	1.460066	0.691847
H237	H	-0.353159	1.198706	0.302996
H238	H	0.146841	1.698706	0.802996
H239	H	-0.093452	1.466202	0.871809
H240	H	0.406548	1.966202	1.371809
H241	H	-0.925550	1.199068	0.303067
H242	H	-0.425550	1.699068	0.803067
H243	H	-0.117182	0.648067	0.316101
H244	H	0.382818	1.148067	0.816101
N245	N	-0.253849	0.776652	0.178975
N246	N	0.246151	1.276652	0.678975
H247	H	-0.270755	0.820758	0.162009
H248	H	0.229245	1.320758	0.662009
H249	H	-0.236654	0.737566	0.157092
H250	H	0.263346	1.237566	0.657092
N251	N	-0.792834	1.481511	0.170744
N252	N	-0.292834	1.981511	0.670744
H253	H	-0.769795	1.518079	0.153608
H254	H	-0.269795	2.018079	0.653608
H255	H	-0.813379	1.444827	0.148884
H256	H	-0.313379	1.944827	0.648884
H257	H	-0.221272	0.647839	0.211657
H258	H	0.278728	1.147839	0.711657
H259	H	-0.438280	1.198765	0.303013
H260	H	0.061720	1.698765	0.803013
H261	H	-0.136900	0.960264	0.296289
H262	H	0.363100	1.460264	0.796289
H263	H	-0.701960	1.466188	0.177872
H264	H	-0.201960	1.966188	0.677872
H265	H	-0.347075	1.408207	0.204867
H266	H	0.152925	1.908207	0.704867
N267	N	-0.115758	1.423804	1.092601
N268	N	0.384242	1.923804	1.592601
H269	H	-0.132811	1.465588	1.113276
H270	H	0.367189	1.965588	1.613276
H271	H	-0.095995	1.387102	1.110980
H272	H	0.404005	1.887102	1.610980
N273	N	-0.705645	1.125950	0.337230
N274	N	-0.205645	1.625950	0.837230
H275	H	-0.728692	1.089391	0.354361
H276	H	-0.228692	1.589391	0.854361
H277	H	-0.687406	1.084210	0.317719
H278	H	-0.187406	1.584210	0.817719
H279	H	-0.796508	1.141267	0.330096
H280	H	-0.296508	1.641267	0.830096
H281	H	-0.432183	1.408282	0.204881
H282	H	0.067817	1.908282	0.704881
H283	H	-0.234056	1.199025	1.079924
H284	H	0.265944	1.699025	1.579924
H285	H	-0.112273	0.818994	0.321013
H286	H	0.387727	1.318994	0.821013
H287	H	-0.234074	1.198980	0.994814
H288	H	0.265926	1.698980	1.494814
N289	N	-0.272528	1.125964	0.868198
N290	N	0.227472	1.625964	1.368198
H291	H	-0.291779	1.089384	0.845159
H292	H	0.208221	1.589384	1.345159
H293	H	-0.255432	1.084241	0.886458
H294	H	0.244568	1.584241	1.386458
N295	N	-0.554572	1.481360	0.170710
N296	N	-0.054572	1.981360	0.670710
H297	H	-0.575494	1.517949	0.153587
H298	H	-0.075494	2.017949	0.653587
H299	H	-0.533886	1.523074	0.190220
H300	H	-0.033886	2.023074	0.690220
H301	H	-0.646321	1.466153	0.177865
H302	H	-0.146321	1.966153	0.677865
H303	H	-0.919460	1.408572	0.204931
H304	H	-0.419460	1.908572	0.704931
N305	N	-0.272546	1.125926	0.770688
N306	N	0.227454	1.625926	1.270688
H307	H	-0.291784	1.089354	0.791620
H308	H	0.208216	1.589354	1.291620
H309	H	-0.292296	1.162599	0.752279
H310	H	0.207704	1.662599	1.252279
N311	N	-0.085466	1.481438	0.737693
N312	N	0.414534	1.981438	1.237693
H313	H	-0.066224	1.518006	0.716761
H314	H	0.433776	2.018006	1.216761
H315	H	-0.102546	1.523173	0.758365
H316	H	0.397454	2.023173	1.258365
N317	N	-1.010335	1.423886	0.197796
N318	N	-0.510335	1.923886	0.697796
H319	H	-1.043870	1.415138	0.201906
H320	H	-0.543870	1.915138	0.701906
H321	H	-1.000255	1.488306	0.206674
H322	H	-0.500255	1.988306	0.706674
N323	N	-1.017304	1.183850	0.310214
N324	N	-0.517304	1.683850	0.810214
H325	H	-0.996383	1.147265	0.327341
H326	H	-0.496383	1.647265	0.827341
H327	H	-1.035694	1.220550	0.332081
H328	H	-0.535694	1.720550	0.832081
H329	H	-0.655756	1.141177	0.330087
H330	H	-0.155756	1.641177	0.830087
H331	H	-0.570648	1.141140	0.330081
H332	H	-0.070648	1.641140	0.830081
H333	H	-0.264536	1.141189	0.721688
H334	H	0.235464	1.641189	1.221688
N335	N	-0.242246	1.183644	0.513289
N336	N	0.257754	1.683644	1.013289
H337	H	-0.261501	1.147067	0.490251
H338	H	0.238499	1.647067	0.990251
H339	H	-0.225151	1.141918	0.531548
H340	H	0.274849	1.641918	1.031548
H341	H	-0.123816	1.408529	1.000842
H342	H	0.376184	1.908529	1.500842
H343	H	-0.234236	1.198888	0.422403
H344	H	0.265764	1.698888	0.922403
H345	H	-0.123980	1.408416	0.428451
H346	H	0.376020	1.908416	0.928451
N347	N	-0.085494	1.481430	0.640185
N348	N	0.414506	1.981430	1.140185
H349	H	-0.065730	1.444792	0.619662
H350	H	0.434270	1.944792	1.119662
H351	H	-0.102587	1.523200	0.621949
H352	H	0.397413	2.023200	1.121949
H353	H	-0.123948	1.408423	0.513558
H354	H	0.376052	1.908423	1.013558
N355	N	-0.085449	1.481457	0.780938
N356	N	0.414551	1.981457	1.280938
H357	H	-0.066195	1.518029	0.803979
H358	H	0.433805	2.018029	1.303979
H359	H	-0.065714	1.444761	0.760413
H360	H	0.434286	1.944761	1.260413
H361	H	-0.264555	1.141178	0.636570
H362	H	0.235445	1.641178	1.136570
