data_functionalizedCrystal
_audit_creation_method	'MofGen! by Chris Wilmer'
_symmetry_space_group_name_H-M	'P1'
_symmetry_Int_Tables_number	1
_symmetry_cell_setting	triclinic
loop_
_symmetry_equiv_pos_as_xyz
  x,y,z
_cell_length_a	11.792254
_cell_length_b	15.995362
_cell_length_c	10.868271
_cell_angle_alpha	90.000252
_cell_angle_beta	90.004259
_cell_angle_gamma	96.152011
loop_
_atom_site_label
_atom_site_type_symbol
_atom_site_fract_x
_atom_site_fract_y
_atom_site_fract_z
O1	O	1.505949	-0.114813	0.102305
O2	O	2.005949	0.385187	0.602305
O3	O	1.175512	-0.126629	0.102306
O4	O	1.675512	0.373371	0.602306
O5	O	1.349756	0.001124	0.102315
O6	O	1.849756	0.501124	0.602315
O7	O	1.331705	-0.242567	0.102297
O8	O	1.831705	0.257433	0.602297
O9	O	1.349742	0.001129	-0.102330
O10	O	1.849742	0.501129	0.397670
O11	O	1.175498	-0.126624	-0.102338
O12	O	1.675498	0.373376	0.397662
O13	O	1.505935	-0.114808	-0.102339
O14	O	2.005935	0.385192	0.397661
Zn15	Zn	1.340714	-0.120715	-0.134831
Zn16	Zn	1.840714	0.379285	0.365169
Zn17	Zn	1.340733	-0.120722	0.134798
Zn18	Zn	1.840733	0.379278	0.634798
O19	O	1.331691	-0.242562	-0.102347
O20	O	1.831691	0.257438	0.397653
C21	C	1.133220	-0.125883	-0.000016
C22	C	1.633220	0.374117	0.499984
C23	C	1.007226	-0.123655	-0.000014
C24	C	1.507226	0.376345	0.499986
C25	C	0.904904	-0.121844	-0.000009
C26	C	1.404904	0.378156	0.499991
C27	C	0.776536	-0.119581	-0.000008
C28	C	1.276536	0.380419	0.499992
C29	C	1.349000	0.032325	-0.000003
C30	C	1.849000	0.532325	0.499997
C31	C	1.346756	0.125285	0.000012
C32	C	1.846756	0.625285	0.500012
C33	C	1.338694	0.463067	0.000035
C34	C	1.838694	0.963067	0.500035
C35	C	1.214598	0.416201	0.000491
C36	C	1.714598	0.916201	0.500491
C37	C	1.216844	0.319501	0.000022
C38	C	1.716844	0.819501	0.500022
C39	C	1.342693	0.295490	0.000024
C40	C	1.842693	0.795490	0.500024
C41	C	1.403892	0.336290	-0.116833
C42	C	1.903892	0.836290	0.383167
C43	C	1.400769	0.432939	-0.116923
C44	C	1.900769	0.932939	0.383077
C45	C	1.403349	0.433280	0.115796
C46	C	1.903349	0.933280	0.615796
C47	C	1.403325	0.336335	0.117333
C48	C	1.903325	0.836335	0.617333
C49	C	1.344959	0.200782	0.000014
C50	C	1.844959	0.700782	0.500014
C51	C	1.336432	0.557775	0.000037
C52	C	1.836432	1.057775	0.500037
C53	C	1.548226	-0.115555	-0.000015
C54	C	2.048226	0.384445	0.499985
C55	C	1.674221	-0.117783	-0.000008
C56	C	2.174221	0.382217	0.499992
N57	N	1.340709	-0.120710	-0.318845
N58	N	1.840709	0.379290	0.181155
C59	C	1.332432	0.726236	-0.000007
C60	C	1.832432	1.226236	0.499993
C61	C	1.334632	0.633272	0.000047
C62	C	1.834632	1.133272	0.500047
C63	C	1.340727	-0.120720	-0.569851
C64	C	1.840727	0.379280	-0.069851
C65	C	1.340713	-0.120717	-0.430173
C66	C	1.840713	0.379283	0.069827
N67	N	1.340746	-0.120720	0.318812
N68	N	1.840746	0.379280	0.818812
H69	H	1.168736	0.291297	0.083789
H70	H	1.668736	0.791297	0.583789
H71	H	1.491878	0.464771	-0.122220
H72	H	1.991878	0.964771	0.377780
H73	H	1.362780	0.454003	0.204371
H74	H	1.862780	0.954003	0.704371
H75	H	1.165002	0.434958	0.084295
H76	H	1.665002	0.934958	0.584295
H77	H	1.356127	0.451447	-0.204279
H78	H	1.856127	0.951447	0.295721
Br79	Br	1.557997	0.312047	-0.124081
Br80	Br	2.057997	0.812047	0.375919
Br81	Br	1.333031	0.289318	-0.261792
Br82	Br	1.833031	0.789318	0.238208
Br83	Br	1.329374	0.290715	0.261444
Br84	Br	1.829374	0.790715	0.761444
H85	H	1.168401	0.291860	-0.083893
H86	H	1.668401	0.791860	0.416107
Br87	Br	1.556290	0.310027	0.129110
Br88	Br	2.056290	0.810027	0.629110
H89	H	1.165210	0.436023	-0.082843
H90	H	1.665210	0.936023	0.417157
Br91	Br	1.555846	0.485518	0.117118
Br92	Br	2.055846	0.985518	0.617118
