data_functionalizedCrystal
_audit_creation_method	'MofGen! by Chris Wilmer'
_symmetry_space_group_name_H-M	'P1'
_symmetry_Int_Tables_number	1
_symmetry_cell_setting	triclinic
loop_
_symmetry_equiv_pos_as_xyz
  x,y,z
_cell_length_a	11.026607
_cell_length_b	15.537862
_cell_length_c	10.065875
_cell_angle_alpha	95.290622
_cell_angle_beta	79.302338
_cell_angle_gamma	77.925225
loop_
_atom_site_label
_atom_site_type_symbol
_atom_site_fract_x
_atom_site_fract_y
_atom_site_fract_z
O1	O	1.470653	0.356978	-0.113510
O2	O	1.135761	0.315181	-0.113510
O3	O	1.368408	0.210001	-0.113498
O4	O	1.238007	0.462158	-0.113522
O5	O	1.324000	0.230160	0.113488
O6	O	1.091353	0.335340	0.113477
O7	O	1.426246	0.377137	0.113477
Zn8	Zn	1.251749	0.359439	0.149516
Zn9	Zn	1.310258	0.332879	-0.149549
O10	O	1.193599	0.482317	0.113465
C11	C	1.071743	0.317550	-0.000016
C12	C	0.947156	0.294563	-0.000016
C13	C	1.359848	0.187297	-0.000005
C14	C	1.400490	0.089610	-0.000005
C15	C	0.845390	0.358032	-0.000023
C16	C	0.716622	0.334276	-0.000022
C17	C	1.565231	-0.041081	-0.000005
C18	C	1.527028	0.050710	-0.000005
C19	C	1.312105	0.036727	-0.000012
C20	C	1.350291	-0.055067	-0.000019
C21	C	1.476855	-0.093964	-0.000014
C22	C	1.261914	-0.107950	-0.000028
C23	C	1.300096	-0.199736	-0.000027
C24	C	1.426654	-0.238639	-0.000018
C25	C	1.515036	-0.185750	-0.000014
C26	C	1.135349	-0.069051	-0.000023
C27	C	1.046973	-0.121933	-0.000031
C28	C	1.085156	-0.213722	-0.000041
C29	C	1.211714	-0.252625	-0.000032
C30	C	0.996773	-0.266611	-0.000046
C31	C	1.034955	-0.358397	-0.000045
C32	C	1.249895	-0.344411	-0.000032
C33	C	1.490264	0.374768	-0.000020
C34	C	1.614853	0.397754	-0.000029
C35	C	1.202159	0.505020	-0.000031
C36	C	1.161519	0.602706	-0.000041
N37	N	1.211826	0.377567	0.353619
N38	N	1.350193	0.314745	-0.353652
C39	C	1.296363	0.339179	0.421402
C40	C	1.265643	0.353139	0.578568
H41	H	0.853594	0.429957	-0.000022
H42	H	1.104264	0.005688	-0.000014
C43	C	0.907764	-0.079143	-0.000044
H44	H	0.897681	-0.016905	-0.000052
H45	H	0.854370	-0.090033	0.079103
H46	H	0.885365	-0.104086	-0.079218
H47	H	1.618101	-0.217423	-0.000030
C48	C	0.857562	-0.223817	-0.000045
H49	H	0.847482	-0.161579	-0.000047
H50	H	0.804175	-0.234709	0.079105
H51	H	0.835153	-0.248755	-0.079216
H52	H	1.352960	-0.376084	-0.000048
C53	C	1.478715	0.256407	0.567580
H54	H	1.482516	0.254691	0.472280
H55	H	1.487494	0.197887	0.590923
H56	H	1.545433	0.280673	0.590929
H57	H	1.457740	-0.313378	-0.000024
C58	C	1.083330	0.435930	0.432395
H59	H	1.079543	0.437661	0.527694
H60	H	1.016585	0.411697	0.409064
H61	H	1.074597	0.494449	0.409037
C62	C	0.937749	-0.416573	-0.000072
H63	H	0.856908	-0.380264	-0.000092
H64	H	0.932684	-0.445647	0.079079
H65	H	0.963677	-0.459693	-0.079242
H66	H	1.391479	0.295975	0.363083
H67	H	0.938957	0.222635	-0.000044
H68	H	1.170516	0.396339	0.636884
H69	H	1.668296	-0.072754	-0.000022
H70	H	0.708430	0.262343	-0.000051
H71	H	1.599004	0.093765	0.000004
C72	C	0.625907	0.494927	-0.000033
H73	H	0.545358	0.531665	-0.000027
H74	H	0.685072	0.499506	-0.079185
H75	H	0.654091	0.513562	0.079135
C76	C	1.172896	0.079518	-0.000024
H77	H	1.162813	0.141756	-0.000032
H78	H	1.119502	0.068628	0.079122
H79	H	1.150497	0.054575	-0.079198
