data_functionalizedCrystal
_audit_creation_method	'MofGen! by Chris Wilmer'
_symmetry_space_group_name_H-M	'P1'
_symmetry_Int_Tables_number	1
_symmetry_cell_setting	triclinic
loop_
_symmetry_equiv_pos_as_xyz
  x,y,z
_cell_length_a	14.853566
_cell_length_b	14.853567
_cell_length_c	9.482900
_cell_angle_alpha	99.351342
_cell_angle_beta	80.700135
_cell_angle_gamma	83.634672
loop_
_atom_site_label
_atom_site_type_symbol
_atom_site_fract_x
_atom_site_fract_y
_atom_site_fract_z
O1	O	1.210387	0.103613	-0.120787
O2	O	0.947930	0.117633	-0.120809
O3	O	1.086169	-0.020607	-0.120802
O4	O	1.072147	0.241853	-0.120794
O5	O	1.058090	0.007585	0.120989
O6	O	0.919850	0.145826	0.120982
O7	O	1.182307	0.131806	0.121004
Cu8	Cu	1.048515	0.141390	0.143070
Cu9	Cu	1.081722	0.108049	-0.142875
O10	O	1.044067	0.270046	0.120997
C11	C	0.900301	0.131094	0.000083
C12	C	0.800219	0.129189	0.000074
C13	C	1.071495	-0.040100	0.000089
C14	C	1.069592	-0.140185	0.000077
C15	C	0.392337	0.105774	-0.131701
C16	C	0.361745	0.136511	0.131909
C17	C	0.455780	0.138298	0.131904
C18	C	0.518097	0.123824	0.000095
C19	C	0.486380	0.107563	-0.131709
C20	C	0.487503	0.154568	0.263707
C21	C	0.581542	0.156356	0.263708
C22	C	0.643863	0.141876	0.131897
C23	C	0.612141	0.125613	0.000087
C24	C	0.674458	0.111139	-0.131722
C25	C	0.642739	0.094870	-0.263534
C26	C	0.548701	0.093082	-0.263520
C27	C	0.737901	0.143663	0.131883
C28	C	0.768502	0.112928	-0.131731
C29	C	0.979424	-0.552716	0.000097
C30	C	1.143656	-0.573997	0.000111
C31	C	1.145447	-0.479964	0.000102
C32	C	1.064225	-0.422303	0.000093
C33	C	0.981212	-0.458674	0.000093
C34	C	1.228456	-0.443583	0.000117
C35	C	1.230250	-0.349545	0.000111
C36	C	1.149029	-0.291883	0.000091
C37	C	1.066013	-0.328260	0.000089
C38	C	0.984792	-0.270599	0.000080
C39	C	0.901776	-0.306976	0.000067
C40	C	0.899991	-0.401012	0.000073
C41	C	1.150814	-0.197847	0.000086
C42	C	0.986580	-0.176557	0.000076
C43	C	1.229936	0.118344	0.000109
C44	C	1.330019	0.120248	0.000108
C45	C	1.058742	0.289538	0.000102
C46	C	1.060646	0.389622	0.000106
N47	N	1.025165	0.164839	0.344189
N48	N	1.105079	0.084592	-0.343994
C49	C	1.074829	0.114961	0.416391
C50	C	1.055408	0.134478	0.583808
H51	H	0.819237	0.101139	-0.239067
C52	C	1.132633	-0.046588	0.369133
C53	C	1.151643	0.037820	0.332496
H54	H	1.180055	-0.094207	0.317322
H55	H	1.129681	-0.043612	0.470618
H56	H	1.075275	-0.059195	0.344280
H57	H	1.208998	0.050430	0.357358
H58	H	1.154604	0.034844	0.230987
C59	C	0.204009	0.147423	0.248961
C60	C	0.293248	0.152424	0.276788
H61	H	0.161721	0.157242	0.338410
H62	H	0.188083	0.193345	0.194816
H63	H	0.201700	0.088281	0.194804
H64	H	0.295558	0.211569	0.330936
H65	H	0.309178	0.106499	0.330956
C66	C	1.162700	-0.076947	0.609234
C67	C	1.181869	0.007353	0.572337
H68	H	1.210098	-0.124652	0.557626
H69	H	1.159656	-0.073841	0.710763
H70	H	1.105351	-0.089527	0.584313
H71	H	1.239216	0.019936	0.597268
H72	H	1.184924	0.004248	0.470785
C73	C	0.588385	0.062888	-0.524098
C74	C	0.513832	0.075216	-0.408398
H75	H	0.566854	0.051857	-0.613536
H76	H	0.617622	0.116749	-0.518610
H77	H	0.631235	0.011685	-0.518623
H78	H	0.470986	0.126424	-0.413867
H79	H	0.484581	0.021349	-0.413889
H80	H	0.366507	0.092524	-0.239019
C81	C	0.894058	0.193026	0.630998
C82	C	0.978591	0.211635	0.667661
H83	H	0.846636	0.240656	0.682775
H84	H	0.897037	0.190039	0.529505
H85	H	0.881166	0.135766	0.655875
H86	H	0.991486	0.268892	0.642774
H87	H	0.975613	0.214631	0.769176
H88	H	0.835644	-0.260014	0.000070
H89	H	1.294581	-0.490536	0.000138
H90	H	0.968265	0.221989	0.406316
H91	H	1.209781	-0.620948	0.000130
H92	H	0.436757	0.166358	0.371019
C93	C	0.800480	0.083971	-0.380575
C94	C	0.711246	0.078960	-0.408417
H95	H	0.842774	0.074144	-0.470019
H96	H	0.802784	0.143108	-0.326430
H97	H	0.816405	0.038047	-0.326413
H98	H	0.695318	0.124888	-0.462570
H99	H	0.708939	0.019815	-0.462585
H100	H	0.607359	0.169602	0.371037
C101	C	0.698212	0.173869	0.392449
C102	C	0.772769	0.161540	0.276755
H103	H	0.719740	0.184898	0.481890
H104	H	0.655366	0.225063	0.386970
H105	H	0.668975	0.119998	0.386959
H106	H	0.802002	0.215413	0.282239
H107	H	0.815630	0.110341	0.282237
C108	C	0.853329	-0.578019	-0.124225
C109	C	0.888178	-0.592699	0.000078
H110	H	0.797000	-0.602710	-0.124239
H111	H	0.842771	-0.513768	-0.124211
H112	H	0.896578	-0.607639	-0.208529
H113	H	0.844931	-0.563074	0.084382
H114	H	0.898732	-0.656963	0.000077
C115	C	0.824060	-0.164969	0.000060
C116	C	0.897296	-0.113178	0.000068
H117	H	0.768941	-0.125839	0.000063
H118	H	0.836572	-0.211917	-0.084254
H119	H	0.816992	-0.192261	0.084382
H120	H	0.904368	-0.085892	-0.084260
H121	H	0.884781	-0.066213	0.084391
C122	C	0.773892	-0.426337	-0.124239
C123	C	0.808748	-0.441003	0.000066
H124	H	0.717567	-0.451035	-0.124242
H125	H	0.763327	-0.362088	-0.124236
H126	H	0.817141	-0.455959	-0.208541
H127	H	0.765502	-0.411375	0.084369
H128	H	0.819309	-0.505264	0.000076
H129	H	1.297847	-0.319936	0.000119
C130	C	1.312968	-0.228331	0.000100
C131	C	1.242056	-0.157862	0.000088
H132	H	1.369302	-0.203647	0.000088
H133	H	1.299065	-0.254725	0.084419
H134	H	1.318640	-0.274406	-0.084217
H135	H	1.236381	-0.111790	0.084411
H136	H	1.255963	-0.131454	-0.084240
