data_functionalizedCrystal
_audit_creation_method	'MofGen! by Chris Wilmer'
_symmetry_space_group_name_H-M	'P1'
_symmetry_Int_Tables_number	1
_symmetry_cell_setting	triclinic
loop_
_symmetry_equiv_pos_as_xyz
  x,y,z
_cell_length_a	13.032831
_cell_length_b	15.297327
_cell_length_c	13.032268
_cell_angle_alpha	105.380838
_cell_angle_beta	90.886977
_cell_angle_gamma	93.742008
loop_
_atom_site_label
_atom_site_type_symbol
_atom_site_fract_x
_atom_site_fract_y
_atom_site_fract_z
Zn1	Zn	1.363663	-0.605893	-0.885100
Zn2	Zn	1.355662	-0.739564	-0.736122
Zn3	Zn	1.221861	-0.568414	-0.684891
Zn4	Zn	1.162990	-0.734713	-0.885413
O5	O	1.276044	-0.662146	-0.797881
O6	O	1.502581	-0.641340	-0.886647
O7	O	1.359203	-0.703205	-0.583060
O8	O	1.268657	-0.447848	-0.689878
O9	O	1.496703	-0.739547	-0.777194
O10	O	1.372838	-0.475384	-0.836970
O11	O	1.260899	-0.577463	-0.545420
O12	O	1.074072	-0.572759	-0.690181
O13	O	1.168320	-0.731280	-1.031638
O14	O	1.030820	-0.694938	-0.837504
O15	O	1.315754	-0.636636	-1.031408
O16	O	1.302118	-0.864458	-0.777497
O17	O	1.160562	-0.860894	-0.887180
C18	C	1.016151	-0.629256	-0.758318
C19	C	0.904960	-0.615209	-0.741421
C20	C	1.224108	-0.895233	-0.837959
C21	C	1.201976	-0.994963	-0.855153
C22	C	0.834008	-0.669477	-0.806700
C23	C	0.719086	-0.654961	-0.789238
C24	C	1.434586	-1.283427	-0.675411
C25	C	1.455381	-1.189725	-0.659251
C26	C	1.392032	-1.141030	-0.708225
C27	C	1.307884	-1.186046	-0.773362
C28	C	1.287082	-1.279756	-0.789517
C29	C	1.244528	-1.137359	-0.822332
C30	C	1.160380	-1.182375	-0.887469
C31	C	1.139583	-1.276076	-0.903621
C32	C	1.202932	-1.324771	-0.854647
C33	C	1.265329	-1.043649	-0.806176
C34	C	1.117825	-1.039978	-0.920283
C35	C	1.097031	-1.133680	-0.936443
C36	C	1.536951	-0.695165	-0.837600
C37	C	1.648135	-0.709236	-0.854526
C38	C	1.236363	-0.687598	-1.070508
C39	C	1.219453	-0.698444	-1.186686
C40	C	1.328207	-0.428155	-0.757674
C41	C	1.350436	-0.328442	-0.740540
C42	C	1.284861	-0.656451	-1.238367
C43	C	1.267385	-0.667660	-1.358443
C44	C	1.315643	-0.636736	-0.526313
C45	C	1.332803	-0.625662	-0.410122
H46	H	0.858346	-0.726682	-0.875518
O47	O	1.137248	-0.751356	-1.239854
C48	C	1.143037	-0.841073	-1.231968
H49	H	1.192536	-0.840449	-1.158851
H50	H	1.178854	-0.883489	-1.306409
C51	C	0.973320	-0.883388	-1.311369
C52	C	1.034108	-0.882621	-1.221560
H53	H	0.906128	-0.909020	-1.304953
H54	H	0.969420	-0.822945	-1.316685
H55	H	1.003179	-0.918734	-1.373394
H56	H	1.004256	-0.847267	-1.159539
H57	H	1.038000	-0.943059	-1.216233
H58	H	1.198439	-0.711906	-1.403086
H59	H	0.694754	-0.597746	-0.720421
H60	H	1.353794	-0.612199	-1.193718
H61	H	0.672465	-0.766443	-0.923352
H62	H	0.880623	-0.557999	-0.672609
O63	O	1.414932	-0.572780	-1.356735
C64	C	1.380007	-0.501763	-1.274989
H65	H	1.299503	-0.522316	-1.252632
H66	H	1.377744	-0.437795	-1.303920
C67	C	1.552540	-0.457592	-1.204277
C68	C	1.453667	-0.482838	-1.176811
H69	H	1.597978	-0.445915	-1.143717
H70	H	1.576071	-0.505435	-1.259352
H71	H	1.550639	-0.404288	-1.228387
H72	H	1.455566	-0.536147	-1.152714
H73	H	1.430138	-0.435003	-1.121729
H74	H	1.408967	-1.064733	-0.695062
O75	O	1.347017	-1.000006	-0.742775
C76	C	1.335290	-1.010454	-0.639218
H77	H	1.282047	-1.073448	-0.642903
H78	H	1.300716	-0.947971	-0.587062
C79	C	1.506502	-0.943805	-0.587046
C80	C	1.441115	-1.021180	-0.591574
H81	H	1.571780	-0.950417	-0.557654
H82	H	1.514402	-0.936762	-0.656814
H83	H	1.477678	-0.891744	-0.543585
H84	H	1.469933	-1.073237	-0.635045
H85	H	1.433222	-1.028231	-0.521812
O86	O	1.182803	-1.415824	-0.870530
C87	C	1.186873	-1.459662	-0.980018
H88	H	1.236140	-1.415153	-1.020576
H89	H	1.105738	-1.471595	-1.017329
C90	C	1.173856	-1.606216	-0.944617
C91	C	1.234375	-1.551554	-0.994429
H92	H	1.203153	-1.662901	-0.953508
H93	H	1.171110	-1.576682	-0.870853
H94	H	1.106247	-1.616151	-0.975715
H95	H	1.301978	-1.541611	-0.963322
H96	H	1.237133	-1.581088	-1.068189
O97	O	1.057748	-1.319820	-0.966732
C98	C	0.989820	-1.360383	-0.906707
H99	H	1.001941	-1.323714	-0.818586
H100	H	1.005518	-1.434956	-0.920076
C101	C	0.863154	-1.398528	-1.050349
C102	C	0.878035	-1.353485	-0.942118
H103	H	0.794199	-1.394278	-1.072195
H104	H	0.908919	-1.371203	-1.090791
H105	H	0.876242	-1.460668	-1.061477
H106	H	0.864959	-1.291345	-0.930995
H107	H	0.832264	-1.380800	-0.901675
O108	O	1.537188	-1.146148	-0.595994
C109	C	1.588630	-1.209214	-0.556215
H110	H	1.571004	-1.280425	-0.611063
H111	H	1.561398	-1.207192	-0.472960
C112	C	1.727067	-1.097179	-0.483768
C113	C	1.705425	-1.184641	-0.551139
H114	H	1.799111	-1.082020	-0.480632
H115	H	1.692408	-1.054689	-0.510564
H116	H	1.704365	-1.095505	-0.414396
H117	H	1.728114	-1.186310	-0.620512
H118	H	1.740090	-1.227131	-0.524354
O119	O	1.496011	-1.330865	-0.627923
C120	C	1.459573	-1.423214	-0.656107
H121	H	1.412212	-1.439398	-0.733978
H122	H	1.409422	-1.437311	-0.590573
C123	C	1.609663	-1.463310	-0.574585
C124	C	1.551501	-1.483189	-0.670232
H125	H	1.666367	-1.500306	-0.583294
H126	H	1.634211	-1.401092	-0.555593
H127	H	1.567859	-1.475057	-0.519983
H128	H	1.593301	-1.471431	-0.724828
H129	H	1.526962	-1.545406	-0.689234
O130	O	1.015383	-1.177400	-0.999869
C131	C	1.027080	-1.166918	-1.103416
H132	H	1.111941	-1.151699	-1.116471
H133	H	0.981518	-1.108323	-1.113159
C134	C	0.882542	-1.273875	-1.169696
C135	C	0.986771	-1.255190	-1.185733
H136	H	0.857674	-1.328322	-1.220473
H137	H	0.874658	-1.280934	-1.099934
H138	H	0.844587	-1.225038	-1.177814
H139	H	1.024726	-1.304020	-1.177601
H140	H	0.994660	-1.248140	-1.255496
H141	H	1.066239	-1.000330	-0.960160
