data_functionalizedCrystal
_audit_creation_method	'MofGen! by Chris Wilmer'
_symmetry_space_group_name_H-M	'P1'
_symmetry_Int_Tables_number	1
_symmetry_cell_setting	triclinic
loop_
_symmetry_equiv_pos_as_xyz
  x,y,z
_cell_length_a	17.077404
_cell_length_b	19.077068
_cell_length_c	17.077396
_cell_angle_alpha	92.267122
_cell_angle_beta	89.980499
_cell_angle_gamma	92.327269
loop_
_atom_site_label
_atom_site_type_symbol
_atom_site_fract_x
_atom_site_fract_y
_atom_site_fract_z
Zn1	Zn	1.187475	-0.280197	-0.456376
Zn2	Zn	1.520808	0.053136	-0.123042
Zn3	Zn	1.854141	0.386470	0.210291
Zn4	Zn	1.182097	-0.397901	-0.330375
Zn5	Zn	1.515430	-0.064568	0.002959
Zn6	Zn	1.848764	0.268766	0.336292
Zn7	Zn	1.056205	-0.280222	-0.325125
Zn8	Zn	1.389539	0.053112	0.008208
Zn9	Zn	1.722872	0.386445	0.341542
Zn10	Zn	1.050892	-0.397859	-0.461596
Zn11	Zn	1.384225	-0.064526	-0.128263
Zn12	Zn	1.717558	0.268808	0.205070
O13	O	1.119167	-0.339045	-0.393368
O14	O	1.452500	-0.005711	-0.060035
O15	O	1.785834	0.327622	0.273299
O16	O	1.296608	-0.295818	-0.439674
O17	O	1.629941	0.037515	-0.106340
O18	O	1.963275	0.370849	0.226993
O19	O	1.165371	-0.382318	-0.219833
O20	O	1.498704	-0.048985	0.113501
O21	O	1.832037	0.284348	0.446834
O22	O	1.078093	-0.181727	-0.338154
O23	O	1.411426	0.151606	-0.004820
O24	O	1.744759	0.484939	0.328513
O25	O	1.292657	-0.382294	-0.347101
O26	O	1.625990	-0.048961	-0.013768
O27	O	1.959324	0.284372	0.319565
O28	O	1.174536	-0.181709	-0.434583
O29	O	1.507869	0.151624	-0.101250
O30	O	1.841202	0.484957	0.232083
O31	O	1.072878	-0.295860	-0.215976
O32	O	1.406212	0.037473	0.117358
O33	O	1.739545	0.370807	0.450691
O34	O	0.945654	-0.295819	-0.343216
O35	O	1.278987	0.037514	-0.009883
O36	O	1.612321	0.370847	0.323451
O37	O	1.069036	-0.382223	-0.570750
O38	O	1.402370	-0.048890	-0.237416
O39	O	1.735703	0.284444	0.095917
O40	O	0.941750	-0.382247	-0.443481
O41	O	1.275083	-0.048914	-0.110148
O42	O	1.608417	0.284420	0.223186
O43	O	1.169383	-0.295777	-0.566914
O44	O	1.502717	0.037556	-0.233581
O45	O	1.836050	0.370889	0.099753
O46	O	1.160218	-0.496386	-0.352163
O47	O	1.493552	-0.163053	-0.018830
O48	O	1.826885	0.170280	0.314503
O49	O	1.063822	-0.496356	-0.448571
O50	O	1.397155	-0.163022	-0.115238
O51	O	1.730489	0.170311	0.218095
C52	C	0.915220	-0.339032	-0.393346
C53	C	1.248553	-0.005699	-0.060012
C54	C	1.581887	0.327635	0.273321
C55	C	0.827970	-0.339043	-0.393356
C56	C	1.161303	-0.005710	-0.060022
C57	C	1.494636	0.327623	0.273311
C58	C	0.784964	-0.384114	-0.445486
C59	C	1.118297	-0.050781	-0.112153
C60	C	1.451631	0.282552	0.221181
C61	C	0.702984	-0.384116	-0.445499
C62	C	1.036317	-0.050782	-0.112165
C63	C	1.369650	0.282551	0.221168
C64	C	0.664010	-0.339050	-0.393376
C65	C	0.997343	-0.005716	-0.060043
C66	C	1.330677	0.327617	0.273290
C67	C	0.707021	-0.293974	-0.341243
C68	C	1.040355	0.039360	-0.007910
C69	C	1.373688	0.372693	0.325423
C70	C	0.789000	-0.293969	-0.341235
C71	C	1.122334	0.039364	-0.007902
C72	C	1.455667	0.372697	0.325431
C73	C	0.536151	-0.293988	-0.341263
C74	C	0.869484	0.039346	-0.007930
C75	C	1.202817	0.372679	0.325404
C76	C	0.454166	-0.293993	-0.341270
C77	C	0.787499	0.039340	-0.007937
C78	C	1.120832	0.372674	0.325397
C79	C	0.450134	-0.384134	-0.445526
C80	C	0.783467	-0.050801	-0.112193
C81	C	1.116800	0.282533	0.221140
C82	C	0.532113	-0.384130	-0.445518
C83	C	0.865446	-0.050796	-0.112185
C84	C	1.198780	0.282537	0.221148
C85	C	0.575119	-0.339055	-0.393384
C86	C	0.908452	-0.005721	-0.060051
C87	C	1.241785	0.327612	0.273283
C88	C	1.110881	-0.521909	-0.401521
C89	C	1.444215	-0.188575	-0.068187
C90	C	1.777548	0.144758	0.265146
C91	C	1.107408	-0.600139	-0.405035
C92	C	1.440742	-0.266805	-0.071701
C93	C	1.774075	0.066528	0.261632
C94	C	1.156004	-0.636884	-0.356533
C95	C	1.489337	-0.303551	-0.023199
C96	C	1.822671	0.029783	0.310134
C97	C	1.152742	-0.710389	-0.359843
C98	C	1.486076	-0.377056	-0.026509
C99	C	1.819409	-0.043723	0.306824
C100	C	1.100880	-0.747148	-0.411651
C101	C	1.434214	-0.413815	-0.078317
C102	C	1.767547	-0.080481	0.255016
C103	C	1.052283	-0.710398	-0.460158
C104	C	1.385616	-0.377064	-0.126825
C105	C	1.718949	-0.043731	0.206509
C106	C	1.055549	-0.636894	-0.456852
C107	C	1.388882	-0.303560	-0.123518
C108	C	1.722216	0.029773	0.209815
C109	C	1.085729	-0.966982	-0.426921
C110	C	1.419063	-0.633649	-0.093588
C111	C	1.752396	-0.300316	0.239746
C112	C	1.082465	-1.040491	-0.430222
C113	C	1.415798	-0.707158	-0.096889
C114	C	1.749132	-0.373825	0.236445
C115	C	1.182926	-1.040478	-0.329907
C116	C	1.516259	-0.707145	0.003426
C117	C	1.849593	-0.373811	0.336760
C118	C	1.186184	-0.966973	-0.326602
C119	C	1.519518	-0.633639	0.006731
C120	C	1.852851	-0.300306	0.340065
C121	C	1.137590	-0.930229	-0.375112
C122	C	1.470923	-0.596895	-0.041779
C123	C	1.804256	-0.263562	0.291555
N124	N	1.097543	-0.822282	-0.415033
N125	N	1.430877	-0.488949	-0.081700
N126	N	1.764210	-0.155616	0.251633
N127	N	1.140931	-0.855096	-0.371733
N128	N	1.474265	-0.521762	-0.038400
N129	N	1.807598	-0.188429	0.294934
C130	C	1.323911	-0.339058	-0.393391
C131	C	1.657244	-0.005725	-0.060057
C132	C	1.990577	0.327609	0.273276
C133	C	1.411160	-0.339064	-0.393400
C134	C	1.744494	-0.005730	-0.060067
C135	C	2.077827	0.327603	0.273266
C136	C	1.119217	-0.338993	-0.598110
C137	C	1.452550	-0.005660	-0.264777
C138	C	1.785884	0.327674	0.068557
C139	C	1.119238	-0.338971	-0.685359
C140	C	1.452572	-0.005637	-0.352026
C141	C	1.785905	0.327696	-0.018692
C142	C	1.127507	-0.155467	-0.385201
C143	C	1.460840	0.177867	-0.051867
C144	C	1.794173	0.511200	0.281466
C145	C	1.131061	-0.077237	-0.381720
C146	C	1.464394	0.256097	-0.048387
C147	C	1.797727	0.589430	0.284947
C148	C	1.171491	-0.293955	-0.724353
C149	C	1.504824	0.039379	-0.391020
C150	C	1.838157	0.372712	-0.057686
C151	C	1.171501	-0.293931	-0.806332
C152	C	1.504835	0.039402	-0.472999
C153	C	1.838168	0.372735	-0.139666
C154	C	1.119262	-0.338928	-0.849316
C155	C	1.452596	-0.005595	-0.515983
C156	C	1.785929	0.327739	-0.182650
C157	C	1.067004	-0.383946	-0.810317
C158	C	1.400338	-0.050613	-0.476983
C159	C	1.733671	0.282721	-0.143650
C160	C	1.066990	-0.383965	-0.728339
C161	C	1.400324	-0.050632	-0.395005
C162	C	1.733657	0.282701	-0.061672
C163	C	1.067038	-0.383904	-0.981185
C164	C	1.400371	-0.050570	-0.647852
C165	C	1.733704	0.282763	-0.314518
C166	C	1.067052	-0.383885	-1.063169
C167	C	1.400385	-0.050552	-0.729835
C168	C	1.733719	0.282781	-0.396502
C169	C	1.171549	-0.293870	-1.059179
C170	C	1.504882	0.039464	-0.725845
C171	C	1.838215	0.372797	-0.392512
C172	C	1.171535	-0.293889	-0.977201
C173	C	1.504868	0.039444	-0.643867
C174	C	1.838201	0.372778	-0.310534
C175	C	1.119277	-0.338908	-0.938207
C176	C	1.452611	-0.005575	-0.604873
C177	C	1.785944	0.327759	-0.271540
C178	C	1.119165	-0.339046	-0.189420
C179	C	1.452498	-0.005712	0.143913
C180	C	1.785832	0.327621	0.477247
C181	C	1.119305	-0.338869	-0.102163
C182	C	1.452638	-0.005536	0.231170
C183	C	1.785971	0.327797	0.564504
H184	H	0.571164	-0.257277	-0.298816
H185	H	0.904497	0.076057	0.034517
H186	H	1.237830	0.409390	0.367850
N187	N	1.227841	-0.245429	-0.677993
N188	N	1.561174	0.087904	-0.344660
N189	N	1.894508	0.421238	-0.011327
H190	H	1.217940	-0.195135	-0.690015
H191	H	1.551274	0.138199	-0.356682
H192	H	1.884607	0.471532	-0.023348
H193	H	1.219876	-0.252336	-0.620161
H194	H	1.553210	0.080997	-0.286828
H195	H	1.886543	0.414330	0.046506
N196	N	1.227844	-0.245365	-0.848391
N197	N	1.561178	0.087969	-0.515057
N198	N	1.894511	0.421302	-0.181724
H199	H	1.260934	-0.216862	-0.808721
H200	H	1.594267	0.116472	-0.475388
H201	H	1.927600	0.449805	-0.142054
H202	H	1.262878	-0.273996	-0.883695
H203	H	1.596212	0.059337	-0.550361
H204	H	1.929545	0.392670	-0.217028
N205	N	1.010679	-0.432402	-1.109512
N206	N	1.344012	-0.099068	-0.776179
N207	N	1.677345	0.234265	-0.442845
H208	H	0.975616	-0.403771	-1.142236
H209	H	1.308949	-0.070438	-0.808903
H210	H	1.642282	0.262895	-0.475569
H211	H	1.041130	-0.465018	-1.144945
H212	H	1.374463	-0.131685	-0.811611
H213	H	1.707796	0.201648	-0.478278
H214	H	0.675282	-0.257277	-0.298808
H215	H	1.008616	0.076056	0.034526
H216	H	1.341949	0.409390	0.367859
N217	N	0.996340	-0.750039	-0.516035
N218	N	1.329673	-0.416705	-0.182701
N219	N	1.663006	-0.083372	0.150632
H220	H	1.009068	-0.737204	-0.571555
H221	H	1.342402	-0.403871	-0.238222
H222	H	1.675735	-0.070538	0.095111
H223	H	1.001665	-0.802167	-0.510701
H224	H	1.334999	-0.468834	-0.177368
H225	H	1.668332	-0.135500	0.155965
H226	H	1.040242	-1.070418	-0.472424
H227	H	1.373575	-0.737085	-0.139091
H228	H	1.706909	-0.403752	0.194242
H229	H	0.824015	-0.257264	-0.298789
H230	H	1.157348	0.076069	0.034544
H231	H	1.490681	0.409402	0.367878
H232	H	1.198232	-0.606960	-0.314342
H233	H	1.531565	-0.273626	0.018992
H234	H	1.864899	0.059707	0.352325
H235	H	0.816690	-0.420815	-0.487928
H236	H	1.150024	-0.087481	-0.154594
H237	H	1.483357	0.245852	0.178739
N238	N	1.010625	-0.432516	-0.686284
N239	N	1.343958	-0.099183	-0.352951
N240	N	1.677291	0.234150	-0.019618
H241	H	1.020530	-0.482803	-0.702787
H242	H	1.353863	-0.149470	-0.369454
H243	H	1.687196	0.183864	-0.036121
H244	H	1.018563	-0.425642	-0.627840
H245	H	1.351896	-0.092308	-0.294507
H246	H	1.685230	0.241025	0.038826
N247	N	1.033312	-0.927357	-0.479233
N248	N	1.366646	-0.594023	-0.145900
N249	N	1.699979	-0.260690	0.187433
H250	H	0.999960	-0.961799	-0.512549
H251	H	1.333293	-0.628465	-0.179216
H252	H	1.666626	-0.295132	0.154117
H253	H	0.998358	-0.896908	-0.445874
H254	H	1.331692	-0.563575	-0.112541
H255	H	1.665025	-0.230241	0.220793
N256	N	0.656598	-0.432734	-0.501718
N257	N	0.989932	-0.099401	-0.168385
N258	N	1.323265	0.233932	0.164949
H259	H	0.621096	-0.465309	-0.471206
H260	H	0.954429	-0.131976	-0.137872
H261	H	1.287762	0.201358	0.195461
H262	H	0.623941	-0.404129	-0.536868
H263	H	0.957275	-0.070795	-0.203535
H264	H	1.290608	0.262538	0.129798
N265	N	1.003126	-0.597260	-0.509157
N266	N	1.336459	-0.263927	-0.175824
N267	N	1.669793	0.069407	0.157510
H268	H	1.013065	-0.545118	-0.499202
H269	H	1.346398	-0.211785	-0.165869
H270	H	1.679731	0.121548	0.167464
H271	H	1.014740	-0.610063	-0.565807
H272	H	1.348073	-0.276729	-0.232473
H273	H	1.681407	0.056604	0.100860
H274	H	0.563843	-0.420830	-0.487957
H275	H	0.897176	-0.087497	-0.154623
H276	H	1.230510	0.245836	0.178710
H277	H	1.214077	-0.257253	-0.942205
H278	H	1.547410	0.076081	-0.608872
H279	H	1.880743	0.409414	-0.275539
N280	N	1.242132	-0.927331	-0.270731
N281	N	1.575465	-0.593997	0.062602
N282	N	1.908799	-0.260664	0.395936
H283	H	1.211611	-0.896880	-0.232951
H284	H	1.544945	-0.563547	0.100382
H285	H	1.878278	-0.230213	0.433716
H286	H	1.272410	-0.961811	-0.240566
H287	H	1.605743	-0.628478	0.092767
H288	H	1.939076	-0.295145	0.426101
H289	H	1.214097	-0.257212	-1.090932
H290	H	1.547431	0.076121	-0.757598
H291	H	1.880764	0.409454	-0.424265
N292	N	1.205156	-0.750022	-0.307530
N293	N	1.538489	-0.416689	0.025803
N294	N	1.871822	-0.083356	0.359137
H295	H	1.238501	-0.715582	-0.274204
H296	H	1.571835	-0.382249	0.059129
H297	H	1.905168	-0.048916	0.392462
H298	H	1.171864	-0.780568	-0.272551
H299	H	1.505198	-0.447235	0.060782
H300	H	1.838531	-0.113901	0.394116
H301	H	1.222490	-1.070403	-0.290414
H302	H	1.555823	-0.737069	0.042919
H303	H	1.889157	-0.403736	0.376253
N304	N	0.412127	-0.245387	-0.285055
N305	N	0.745460	0.087946	0.048279
N306	N	1.078793	0.421280	0.381612
H307	H	0.451809	-0.216828	-0.252031
H308	H	0.785142	0.116506	0.081303
H309	H	1.118475	0.449839	0.414636
H310	H	0.379598	-0.212860	-0.315625
H311	H	0.712931	0.120473	0.017708
H312	H	1.046264	0.453807	0.351041
H313	H	1.024472	-0.420552	-0.949438
H314	H	1.357806	-0.087219	-0.616105
H315	H	1.691139	0.246115	-0.282772
N316	N	0.403755	-0.432754	-0.501757
N317	N	0.737088	-0.099420	-0.168423
N318	N	1.070422	0.233913	0.164910
H319	H	0.345908	-0.425918	-0.493857
H320	H	0.679241	-0.092584	-0.160524
H321	H	1.012575	0.240749	0.172809
H322	H	0.418605	-0.421866	-0.557352
H323	H	0.751938	-0.088533	-0.224019
H324	H	1.085272	0.244800	0.109315
H325	H	1.024468	-0.420581	-0.845321
H326	H	1.357801	-0.087247	-0.511987
H327	H	1.691134	0.246086	-0.178654
