data_functionalizedCrystal
_audit_creation_method	'MofGen! by Chris Wilmer'
_symmetry_space_group_name_H-M	'P1'
_symmetry_Int_Tables_number	1
_symmetry_cell_setting	triclinic
loop_
_symmetry_equiv_pos_as_xyz
  x,y,z
_cell_length_a	18.050590
_cell_length_b	18.050590
_cell_length_c	18.050582
_cell_angle_alpha	90.024044
_cell_angle_beta	90.000128
_cell_angle_gamma	90.007719
loop_
_atom_site_label
_atom_site_type_symbol
_atom_site_fract_x
_atom_site_fract_y
_atom_site_fract_z
Zn1	Zn	1.135349	-0.295916	0.419598
Zn2	Zn	1.135279	-0.420101	0.295406
Zn3	Zn	1.011166	-0.295906	0.295456
Zn4	Zn	1.011137	-0.420045	0.419589
O5	O	1.073233	-0.357992	0.357512
O6	O	1.239264	-0.312417	0.403106
O7	O	1.118798	-0.403645	0.191488
O8	O	1.027681	-0.191983	0.311948
O9	O	1.239213	-0.403655	0.311863
O10	O	1.118917	-0.191990	0.403155
O11	O	1.027613	-0.312400	0.191525
O12	O	0.907238	-0.312346	0.311939
O13	O	1.027631	-0.403560	0.523514
O14	O	0.907216	-0.403550	0.403139
O15	O	1.118889	-0.312363	0.523521
O16	O	1.118769	-0.524018	0.311854
O17	O	1.027563	-0.523977	0.403091
C18	C	0.880281	-0.357941	0.357544
C19	C	0.797735	-0.357938	0.357575
C20	C	0.598294	-0.407677	0.407052
C21	C	0.548890	-0.339962	0.425328
C22	C	0.646604	-0.357979	0.357539
C23	C	0.548927	-0.425733	0.339262
C24	C	0.500619	-0.358025	0.357505
C25	C	0.598287	-0.290228	0.375850
C26	C	0.598329	-0.376045	0.289753
C27	C	0.548947	-0.308283	0.308004
C28	C	0.730703	-0.357954	0.357560
C29	C	0.416523	-0.358043	0.357484
C30	C	1.073176	-0.550944	0.357482
C31	C	1.073219	-0.633490	0.357495
C32	C	1.122920	-0.832936	0.307949
C33	C	1.141057	-0.882277	0.375725
C34	C	1.073261	-0.784620	0.357524
C35	C	1.055200	-0.882361	0.289779
C36	C	1.073303	-0.930605	0.357547
C37	C	1.091433	-0.832874	0.425335
C38	C	1.005545	-0.832954	0.339344
C39	C	1.023655	-0.882273	0.407166
C40	C	1.073239	-0.700522	0.357510
C41	C	1.073326	-1.014702	0.357568
C42	C	1.266938	-0.358044	0.357480
C43	C	1.349484	-0.358066	0.357467
C44	C	1.073265	-0.357957	0.551218
C45	C	1.073278	-0.357942	0.633763
C46	C	1.073310	-0.164287	0.357558
C47	C	1.073343	-0.081741	0.357578
C48	C	1.073243	-0.357974	0.164560
C49	C	1.073374	-0.357780	0.082014
C50	C	1.023699	-0.407454	0.882586
C51	C	1.005547	-0.339713	0.833204
C52	C	1.073341	-0.357833	0.930884
C53	C	1.091427	-0.425623	0.833184
C54	C	1.073309	-0.357890	0.784899
C55	C	1.055155	-0.290056	0.882589
C56	C	1.141066	-0.376012	0.882574
C57	C	1.122940	-0.308224	0.833215
C58	C	1.073358	-0.357801	1.014982
C59	C	1.073292	-0.357914	0.700802
H60	H	0.527241	-0.483012	0.323820
F61	F	0.626617	-0.462516	0.461839
H62	H	0.527416	-0.266227	0.266118
H63	H	1.164929	-0.811272	0.266069
H64	H	0.620061	-0.391331	0.232459
F65	F	0.626506	-0.215337	0.396123
F66	F	0.930688	-0.804615	0.319203
F67	F	0.520505	-0.320007	0.500236
F68	F	1.035056	-0.215131	0.910833
H69	H	1.164907	-0.266237	0.811674
F70	F	1.215934	-0.910584	0.395853
F71	F	1.035210	-0.910774	0.214885
F72	F	0.968788	-0.910412	0.462037
H73	H	1.106669	-0.811230	0.482685
F74	F	0.968805	-0.462202	0.910923
F75	F	0.930669	-0.319639	0.804858
F76	F	1.111435	-0.500524	0.804811
F77	F	1.215923	-0.396110	0.910945
