data_functionalizedCrystal
_audit_creation_method	'MofGen! by Chris Wilmer'
_symmetry_space_group_name_H-M	'P1'
_symmetry_Int_Tables_number	1
_symmetry_cell_setting	triclinic
loop_
_symmetry_equiv_pos_as_xyz
  x,y,z
_cell_length_a	17.699083
_cell_length_b	9.130307
_cell_length_c	17.699083
_cell_angle_alpha	89.995823
_cell_angle_beta	96.716985
_cell_angle_gamma	89.995487
loop_
_atom_site_label
_atom_site_type_symbol
_atom_site_fract_x
_atom_site_fract_y
_atom_site_fract_z
O1	O	1.004073	0.121597	-0.095710
O2	O	0.783694	0.121645	-0.108162
O3	O	0.900110	0.121607	0.008253
O4	O	0.887657	0.121635	-0.212125
O5	O	0.900106	-0.121992	0.008254
O6	O	0.783691	-0.121954	-0.108161
O7	O	1.004069	-0.122002	-0.095709
Cu8	Cu	0.893879	-0.144220	-0.101935
Cu9	Cu	0.893884	0.143864	-0.101936
O10	O	0.887653	-0.121964	-0.212124
C11	C	0.755495	-0.000148	-0.107716
C12	C	0.671477	-0.000130	-0.106377
N13	N	0.893882	-0.346843	-0.101934
C14	C	0.622856	-0.000122	-0.174710
C15	C	0.543913	-0.000141	-0.173448
C16	C	0.513592	-0.000158	-0.103852
C17	C	0.562219	-0.000171	-0.035513
C18	C	0.641161	-0.000162	-0.036776
C19	C	0.243856	-0.000207	-0.030418
C20	C	0.164908	-0.000212	-0.029160
C21	C	0.146608	-0.000186	-0.167090
C22	C	0.225550	-0.000178	-0.168353
C23	C	0.274170	-0.000198	-0.100015
C24	C	0.359769	-0.000180	-0.101384
C25	C	0.427995	-0.000165	-0.102481
C26	C	0.997009	-0.346867	0.001123
C27	C	1.048578	-0.423546	0.052649
C28	C	1.048586	-0.576879	0.052649
C29	C	0.997017	-0.653538	0.001120
C30	C	0.945449	-0.576859	-0.050406
C31	C	0.945448	-0.423522	-0.050403
C32	C	0.842319	-0.576835	-0.153458
C33	C	0.842313	-0.423501	-0.153463
C34	C	0.790750	-0.653493	-0.204987
C35	C	0.739184	-0.576814	-0.256518
C36	C	0.739179	-0.423471	-0.256517
C37	C	0.790745	-0.346823	-0.204989
C38	C	1.032268	-0.000205	-0.096156
C39	C	1.116286	-0.000214	-0.097494
C40	C	0.899662	-0.000193	0.036451
C41	C	0.898323	-0.000193	0.120469
N42	N	0.893887	0.346486	-0.101932
C43	C	0.888102	-0.000161	-0.240322
C44	C	0.889440	-0.000151	-0.324340
C45	C	0.966656	-0.000210	0.169090
C46	C	0.965394	-0.000197	0.248033
C47	C	0.895798	-0.000177	0.278354
C48	C	0.827459	-0.000156	0.229727
C49	C	0.828722	-0.000158	0.150785
C50	C	0.822364	-0.000143	0.548090
C51	C	0.821106	-0.000144	0.627038
C52	C	0.959036	-0.000181	0.645338
C53	C	0.960299	-0.000184	0.566396
C54	C	0.891961	-0.000155	0.517776
C55	C	0.893330	-0.000166	0.432177
C56	C	0.894427	-0.000176	0.363951
H57	H	0.504328	-0.000132	-0.229092
O58	O	0.258256	-0.000181	-0.243417
H59	H	0.211183	-0.000199	-0.290723
H60	H	1.021038	-0.000214	0.287618
H61	H	1.090575	-0.639312	0.094609
O62	O	1.035363	-0.000184	0.533690
H63	H	1.082669	-0.000174	0.580763
O64	O	0.529517	-0.000191	0.039552
H65	H	0.549058	-0.099491	0.072375
H66	H	0.140225	-0.000228	0.027517
H67	H	0.697183	-0.361048	-0.298473
O68	O	1.032749	-0.000200	0.697777
H69	H	1.020183	-0.000180	0.757765
H70	H	0.997015	-0.222015	0.001121
O71	O	0.997022	-0.818919	0.001117
H72	H	1.041545	-0.859360	0.045601
H73	H	0.773078	-0.000144	0.111198
H74	H	0.107012	-0.000177	-0.222734
O75	O	1.041723	-0.000235	0.136389
H76	H	1.045594	0.099045	0.100852
H77	H	0.283434	-0.000225	0.025228
O78	O	0.790732	-0.181441	-0.204985
H79	H	0.835247	-0.141025	-0.160493
H80	H	0.764429	-0.000131	0.651721
H81	H	0.766718	-0.000119	0.508512
H82	H	0.680748	-0.000168	0.018868
O83	O	1.104177	-0.340871	0.108247
H84	H	1.095508	-0.221365	0.099597
H85	H	0.770792	-0.000130	0.254420
H86	H	0.647537	-0.000107	-0.231384
H87	H	0.790756	-0.778345	-0.204981
O88	O	0.683571	-0.659487	-0.312095
H89	H	0.692240	-0.778991	-0.303438
