data_functionalizedCrystal
_audit_creation_method	'MofGen! by Chris Wilmer'
_symmetry_space_group_name_H-M	'P1'
_symmetry_Int_Tables_number	1
_symmetry_cell_setting	triclinic
loop_
_symmetry_equiv_pos_as_xyz
  x,y,z
_cell_length_a	16.109301
_cell_length_b	19.288864
_cell_length_c	15.186229
_cell_angle_alpha	90.021780
_cell_angle_beta	89.986602
_cell_angle_gamma	96.701137
loop_
_atom_site_label
_atom_site_type_symbol
_atom_site_fract_x
_atom_site_fract_y
_atom_site_fract_z
O1	O	0.103723	-0.921599	-0.073514
O2	O	0.117714	-0.719371	-0.073454
O3	O	-0.010331	-0.826040	-0.073477
O4	O	0.231769	-0.814930	-0.073491
O5	O	-0.010352	-0.826026	0.072981
O6	O	0.117694	-0.719357	0.073003
O7	O	0.103702	-0.921584	0.072944
Zn8	Zn	0.110695	-0.820468	0.096227
Zn9	Zn	0.110722	-0.820487	-0.096737
O10	O	0.231748	-0.814915	0.072966
C11	C	-0.041315	-0.825583	-0.000247
C12	C	-0.133606	-0.824234	-0.000246
C13	C	0.117254	-0.693487	-0.000218
C14	C	0.115902	-0.616380	-0.000194
C15	C	0.104163	-0.947469	-0.000295
C16	C	0.105514	-1.024576	-0.000324
C17	C	-0.356084	-0.884391	-0.000277
C18	C	-0.442800	-0.883118	-0.000284
C19	C	-0.422493	-0.756559	-0.000243
C20	C	-0.335778	-0.757833	-0.000243
C21	C	-0.302577	-0.821751	-0.000255
C22	C	-0.476007	-0.819204	-0.000263
C23	C	-0.570028	-0.817823	-0.000270
C24	C	-0.208549	-0.823133	-0.000250
C25	C	0.262732	-0.815372	-0.000265
C26	C	0.355022	-0.816722	-0.000273
N27	N	0.110676	-0.820460	0.227919
C28	C	0.191034	-0.571863	-0.000213
C29	C	0.189764	-0.499413	-0.000222
C30	C	0.113359	-0.471483	-0.000231
C31	C	0.038218	-0.516009	-0.000208
C32	C	0.039489	-0.588458	-0.000190
C33	C	0.053303	-0.363082	-0.051568
C34	C	0.052034	-0.290635	-0.051592
C35	C	0.109433	-0.248028	-0.000284
C36	C	0.168115	-0.277876	0.051035
C37	C	0.169386	-0.350324	0.051054
C38	C	0.111971	-0.392925	-0.000251
C39	C	0.183193	-0.124952	-0.000312
C40	C	0.181920	-0.052501	-0.000316
C41	C	0.030372	-0.069099	-0.000311
C42	C	0.031647	-0.141548	-0.000298
C43	C	0.108060	-0.169470	-0.000303
N44	N	0.110734	-0.820501	-0.228430
C45	C	0.060417	-0.778370	0.545888
C46	C	0.060405	-0.778364	0.453698
C47	C	0.160995	-0.862596	0.453608
C48	C	0.161002	-0.862605	0.545796
C49	C	0.110715	-0.820488	0.591934
C50	C	0.110695	-0.820473	0.407556
C51	C	0.110683	-0.820467	0.307600
C52	C	0.110726	-0.820495	0.691896
H53	H	-0.329054	-0.936438	-0.000290
Cl54	Cl	0.276380	0.003465	-0.000335
Cl55	Cl	-0.065682	-0.033994	-0.000312
H56	H	0.201961	-0.896906	0.583287
H57	H	0.006560	-0.397768	-0.093354
Cl58	Cl	-0.510063	-0.961870	-0.000314
Cl59	Cl	-0.464239	-0.676209	-0.000227
Cl60	Cl	-0.002806	-0.725427	0.603886
Cl61	Cl	-0.002825	-0.725410	0.395816
Cl62	Cl	0.284222	-0.443438	-0.000244
Cl63	Cl	-0.268507	-0.679079	-0.000223
Cl64	Cl	0.287095	-0.606961	-0.000215
H65	H	-0.029534	-0.177795	-0.000287
H66	H	0.217164	-0.374623	0.092843
H67	H	0.214854	-0.243186	0.092815
Cl68	Cl	-0.057835	-0.480899	-0.000214
Cl69	Cl	0.279253	-0.160057	-0.000309
Cl70	Cl	-0.021728	-0.253119	-0.116116
Cl71	Cl	-0.054970	-0.644425	-0.000167
Cl72	Cl	0.224214	-0.915536	0.395600
