data_functionalizedCrystal
_audit_creation_method	'MofGen! by Chris Wilmer'
_symmetry_space_group_name_H-M	'P1'
_symmetry_Int_Tables_number	1
_symmetry_cell_setting	triclinic
loop_
_symmetry_equiv_pos_as_xyz
  x,y,z
_cell_length_a	19.805407
_cell_length_b	18.101396
_cell_length_c	19.805399
_cell_angle_alpha	89.975513
_cell_angle_beta	90.017803
_cell_angle_gamma	89.965660
loop_
_atom_site_label
_atom_site_type_symbol
_atom_site_fract_x
_atom_site_fract_y
_atom_site_fract_z
Zn1	Zn	1.034686	0.294900	0.382702
Zn2	Zn	1.034580	0.418743	0.269520
Zn3	Zn	0.921500	0.294914	0.269530
Zn4	Zn	0.921443	0.418698	0.382670
O5	O	0.978052	0.356814	0.326106
O6	O	1.129388	0.311341	0.367697
O7	O	1.019559	0.402342	0.174805
O8	O	0.936583	0.191280	0.284560
O9	O	1.129310	0.402328	0.284543
O10	O	1.019740	0.191269	0.367707
O11	O	0.936480	0.311366	0.174812
O12	O	0.826776	0.311322	0.284529
O13	O	0.936485	0.402251	0.477391
O14	O	0.826734	0.402265	0.367653
O15	O	1.019684	0.311297	0.477415
O16	O	1.019503	0.522370	0.284512
O17	O	0.936382	0.522337	0.367643
C18	C	0.802196	0.356791	0.326089
C19	C	0.726964	0.356799	0.326098
C20	C	0.691661	0.309505	0.369463
C21	C	0.620973	0.309509	0.369465
C22	C	0.585589	0.356811	0.326106
C23	C	0.620896	0.404106	0.282737
C24	C	0.691584	0.404098	0.282732
C25	C	0.335823	0.404139	0.282758
C26	C	0.265131	0.404146	0.282768
C27	C	0.265212	0.309551	0.369492
C28	C	0.335899	0.309543	0.369486
C29	C	0.371201	0.356835	0.326115
C30	C	0.447850	0.356829	0.326111
C31	C	0.508941	0.356821	0.326113
C32	C	0.977943	0.549225	0.326088
C33	C	0.977959	0.631539	0.326103
C34	C	0.978079	0.930630	0.326142
C35	C	0.925906	0.899314	0.378575
C36	C	0.925666	0.813696	0.378411
C37	C	0.978019	0.782247	0.326123
C38	C	0.958706	0.813394	0.254789
C39	C	0.958361	0.899040	0.255104
C40	C	1.049683	0.898978	0.344414
C41	C	1.049270	0.813327	0.345978
C42	C	0.977987	0.698388	0.326108
C43	C	0.978110	1.014489	0.326152
C44	C	1.154595	0.356838	0.326123
C45	C	1.229827	0.356848	0.326130
C46	C	0.978090	0.356767	0.502648
C47	C	0.978106	0.356747	0.577881
C48	C	0.978156	1.163652	0.326141
C49	C	0.978140	1.081338	0.326163
C50	C	0.978053	0.356807	0.150250
C51	C	0.978168	0.356618	0.075018
C52	C	1.021429	0.309385	0.613238
C53	C	1.021436	0.309364	0.683926
C54	C	0.978123	0.356709	0.719256
C55	C	0.934796	0.404073	0.683894
C56	C	0.934786	0.404090	0.613207
C57	C	0.934834	0.404004	0.968967
C58	C	0.934849	0.403985	1.039659
C59	C	1.021484	0.309278	1.039687
C60	C	1.021474	0.309295	0.969000
C61	C	0.978145	0.356656	0.933644
C62	C	0.978137	0.356678	0.856995
C63	C	0.978134	0.356691	0.795903
H64	H	0.937750	0.792635	0.431304
N65	N	0.374059	0.258522	0.416253
H66	H	0.403392	0.224162	0.388798
H67	H	0.403346	0.288712	0.447561
N68	N	1.006488	0.926487	0.201572
H69	H	1.006634	0.982283	0.201354
H70	H	1.053467	0.907732	0.211618
H71	H	0.720466	0.270989	0.404772
H72	H	1.056702	0.270834	0.584478
N73	N	0.582733	0.455129	0.235976
H74	H	0.615826	0.485088	0.208503
H75	H	0.553404	0.424945	0.204703
N76	N	0.227142	0.258532	0.416269
H77	H	0.197811	0.288674	0.447590
H78	H	0.197860	0.224181	0.388775
H79	H	1.056746	0.270744	0.940238
N80	N	1.068218	0.258191	1.077821
H81	H	1.061653	0.265359	1.127962
H82	H	1.057720	0.205302	1.065471
N83	N	0.888072	0.455122	0.722007
H84	H	0.915555	0.489439	0.751337
H85	H	0.860626	0.485079	0.688844
N86	N	0.729661	0.455112	0.235963
H87	H	0.779810	0.447927	0.242536
H88	H	0.717290	0.443515	0.187643
H89	H	0.364557	0.442648	0.247443
H90	H	0.236323	0.442666	0.247458
H91	H	1.063835	0.792967	0.398476
N92	N	0.888065	0.455175	0.575063
H93	H	0.856716	0.425078	0.545737
H94	H	0.860672	0.485159	0.608208
H95	H	0.873154	0.920898	0.366624
H96	H	0.899575	0.442540	1.068423
N97	N	0.941738	0.926537	0.448868
H98	H	0.982883	0.959435	0.447410
H99	H	0.901989	0.955429	0.466858
H100	H	1.090203	0.791915	0.310571
H101	H	0.872595	0.793270	0.366307
H102	H	0.906019	0.919079	0.239626
N103	N	1.007459	0.786418	0.201624
H104	H	1.042618	0.753667	0.223320
H105	H	0.982024	0.757431	0.166261
N106	N	0.890114	0.785067	0.233911
H107	H	0.871453	0.752066	0.270551
H108	H	0.858576	0.828197	0.226581
H109	H	1.088555	0.919228	0.306225
H110	H	0.899562	0.442579	0.940189
N111	N	1.073008	0.927522	0.412141
H112	H	1.037390	0.961265	0.431665
H113	H	1.080719	0.884536	0.443748
H114	H	0.592232	0.271000	0.404778
N115	N	1.068149	0.258266	0.722063
H116	H	1.095585	0.228275	0.688956
H117	H	1.099458	0.288395	0.751400
