data_functionalizedCrystal
_audit_creation_method	'MofGen! by Chris Wilmer'
_symmetry_space_group_name_H-M	'P1'
_symmetry_Int_Tables_number	1
_symmetry_cell_setting	triclinic
loop_
_symmetry_equiv_pos_as_xyz
  x,y,z
_cell_length_a	18.215407
_cell_length_b	16.959453
_cell_length_c	18.215399
_cell_angle_alpha	90.028024
_cell_angle_beta	90.017368
_cell_angle_gamma	90.017431
loop_
_atom_site_label
_atom_site_type_symbol
_atom_site_fract_x
_atom_site_fract_y
_atom_site_fract_z
Zn1	Zn	1.125097	-0.314744	0.416067
Zn2	Zn	1.625097	0.185256	0.916067
Zn3	Zn	1.125016	-0.446929	0.293001
Zn4	Zn	1.625016	0.053071	0.793001
Zn5	Zn	1.002030	-0.314763	0.293020
Zn6	Zn	1.502030	0.185237	0.793020
Zn7	Zn	1.002006	-0.446878	0.416031
Zn8	Zn	1.502006	0.053122	0.916031
O9	O	1.063537	-0.380828	0.354530
O10	O	1.563537	0.119172	0.854530
O11	O	1.228070	-0.332292	0.399749
O12	O	1.728070	0.167708	0.899749
O13	O	1.108677	-0.429426	0.190019
O14	O	1.608677	0.070574	0.690019
O15	O	1.018398	-0.204149	0.309365
O16	O	1.518398	0.295851	0.809365
O17	O	1.228011	-0.429408	0.309333
O18	O	1.728011	0.070592	0.809333
O19	O	1.108816	-0.204135	0.399768
O20	O	1.608816	0.295865	0.899768
O21	O	1.018320	-0.332324	0.190033
O22	O	1.518320	0.167676	0.690033
O23	O	0.899042	-0.332275	0.309330
O24	O	1.399042	0.167725	0.809330
O25	O	1.018358	-0.429321	0.519020
O26	O	1.518358	0.070679	1.019020
O27	O	0.899025	-0.429339	0.399706
O28	O	1.399025	0.070661	0.899706
O29	O	1.108793	-0.332242	0.519047
O30	O	1.608793	0.167758	1.019047
O31	O	1.108655	-0.557533	0.309298
O32	O	1.608655	-0.057533	0.809298
O33	O	1.018280	-0.557496	0.399687
O34	O	1.518280	-0.057496	0.899687
C35	C	0.872331	-0.380804	0.354517
C36	C	1.372331	0.119196	0.854517
C37	C	0.790532	-0.380813	0.354529
C38	C	1.290532	0.119187	0.854529
C39	C	0.602368	-0.330348	0.401683
C40	C	1.102368	0.169652	0.901683
C41	C	0.525509	-0.330355	0.401685
C42	C	1.025509	0.169645	0.901685
C43	C	0.525458	-0.431330	0.307389
C44	C	1.025458	0.068670	0.807389
C45	C	0.602315	-0.431319	0.307384
C46	C	1.102315	0.068681	0.807384
C47	C	0.640768	-0.380829	0.354535
C48	C	1.140768	0.119171	0.854535
C49	C	0.487052	-0.380847	0.354543
C50	C	0.987052	0.119153	0.854543
C51	C	0.403719	-0.380855	0.354545
C52	C	0.903719	0.119145	0.854545
C53	C	0.724107	-0.380820	0.354531
C54	C	1.224107	0.119180	0.854531
C55	C	1.063476	-0.586195	0.354503
C56	C	1.563476	-0.086195	0.854503
C57	C	1.063517	-0.674051	0.354516
C58	C	1.563517	-0.174051	0.854516
C59	C	1.110678	-1.045461	0.401691
C60	C	1.610678	-0.545461	0.901691
C61	C	1.016602	-1.045592	0.307478
C62	C	1.516602	-0.545592	0.807478
C63	C	1.016575	-0.963047	0.307461
C64	C	1.516575	-0.463047	0.807461
C65	C	1.063599	-0.921704	0.354560
C66	C	1.563599	-0.421704	0.854560
C67	C	1.110650	-0.962907	0.401677
C68	C	1.610650	-0.462907	0.901677
C69	C	0.969519	-0.921837	0.260350
C70	C	1.469519	-0.421837	0.760350
C71	C	0.969489	-0.839286	0.260332
C72	C	1.469489	-0.339286	0.760332
C73	C	1.016518	-0.797942	0.307429
C74	C	1.516518	-0.297942	0.807429
C75	C	1.063571	-0.839151	0.354546
C76	C	1.563571	-0.339151	0.854546
C77	C	1.110595	-0.797808	0.401646
C78	C	1.610595	-0.297808	0.901646
C79	C	1.157653	-0.839015	0.448761
C80	C	1.657653	-0.339015	0.948761
C81	C	1.157678	-0.921563	0.448774
C82	C	1.657678	-0.421563	0.948774
C83	C	1.016493	-0.715394	0.307416
C84	C	1.516493	-0.215394	0.807416
C85	C	1.110568	-0.715255	0.401632
C86	C	1.610568	-0.215255	0.901632
C87	C	1.255490	-0.380853	0.354543
C88	C	1.755490	0.119147	0.854543
C89	C	1.337289	-0.380864	0.354549
C90	C	1.837289	0.119136	0.854549
C91	C	1.063582	-0.380774	0.546483
C92	C	1.563582	0.119226	1.046483
C93	C	1.063601	-0.380751	0.628281
C94	C	1.563601	0.119249	1.128281
C95	C	1.063619	-0.174660	0.354573
C96	C	1.563619	0.325340	0.854573
C97	C	1.063654	-0.086803	0.354591
C98	C	1.563654	0.413197	0.854591
C99	C	1.063535	-0.380826	0.163323
C100	C	1.563535	0.119174	0.663323
C101	C	1.063658	-0.380626	0.081525
C102	C	1.563658	0.119374	0.581525
C103	C	1.110707	-0.330154	0.816491
C104	C	1.610707	0.169846	1.316491
C105	C	1.110716	-0.330131	0.893349
C106	C	1.610716	0.169869	1.393349
C107	C	1.016547	-0.431224	0.893310
C108	C	1.516547	0.068776	1.393310
C109	C	1.016535	-0.431243	0.816453
C110	C	1.516535	0.068757	1.316453
C111	C	1.063619	-0.380709	0.778045
C112	C	1.563619	0.119291	1.278045
C113	C	1.063640	-0.380668	0.931761
C114	C	1.563640	0.119332	1.431761
C115	C	1.063649	-0.380643	1.015095
C116	C	1.563649	0.119357	1.515095
C117	C	1.063609	-0.380732	0.694706
C118	C	1.563609	0.119268	1.194706
H119	H	0.633582	-0.472427	0.268986
H120	H	1.133582	0.027573	0.768986
H121	H	0.978185	-0.472410	0.785150
H122	H	1.478185	0.027590	1.285150
H123	H	1.149044	-0.289004	0.785221
H124	H	1.649044	0.210996	1.285221
H125	H	0.494140	-0.472438	0.269001
H126	H	0.994140	0.027562	0.769001
H127	H	1.149058	-0.288963	0.924648
H128	H	1.649058	0.211037	1.424648
H129	H	0.978214	-0.472369	0.924591
H130	H	1.478214	0.027631	1.424591
H131	H	1.148864	-0.681598	0.439984
H132	H	1.648864	-0.181598	0.939984
H133	H	1.195938	-0.805344	0.487113
H134	H	1.695938	-0.305344	0.987113
N135	N	1.208429	-0.966006	0.499587
N136	N	1.708429	-0.466006	0.999587
H137	H	1.201307	-1.024573	0.492451
H138	H	1.701307	-0.524573	0.992451
H139	H	1.196939	-0.951546	0.552134
H140	H	1.696939	-0.451546	1.052134
H141	H	0.633674	-0.289234	0.440074
H142	H	1.133674	0.210766	0.940074
H143	H	0.978175	-0.681847	0.269059
H144	H	1.478175	-0.181847	0.769059
H145	H	0.494247	-0.289247	0.440077
H146	H	0.994247	0.210753	0.940077
H147	H	1.148993	-1.079015	0.440049
H148	H	1.648993	-0.579015	0.940049
H149	H	0.931233	-0.955504	0.222006
H150	H	1.431233	-0.455504	0.722006
N151	N	0.965889	-1.090178	0.256676
N152	N	1.465889	-0.590178	0.756676
H153	H	0.931778	-1.124432	0.286556
H154	H	1.431778	-0.624432	0.786556
H155	H	0.995887	-1.124385	0.222619
H156	H	1.495887	-0.624385	0.722619
N157	N	0.918742	-0.794844	0.209515
N158	N	1.418742	-0.294844	0.709515
H159	H	0.888958	-0.833562	0.179680
H160	H	1.388958	-0.333562	0.679680
H161	H	0.948712	-0.760603	0.175478
H162	H	1.448712	-0.260603	0.675478
