data_functionalizedCrystal
_audit_creation_method	'MofGen! by Chris Wilmer'
_symmetry_space_group_name_H-M	'P1'
_symmetry_Int_Tables_number	1
_symmetry_cell_setting	triclinic
loop_
_symmetry_equiv_pos_as_xyz
  x,y,z
_cell_length_a	14.519709
_cell_length_b	11.792241
_cell_length_c	13.596369
_cell_angle_alpha	89.999475
_cell_angle_beta	89.999684
_cell_angle_gamma	83.936780
loop_
_atom_site_label
_atom_site_type_symbol
_atom_site_fract_x
_atom_site_fract_y
_atom_site_fract_z
O1	O	-1.224415	-0.148773	0.081664
O2	O	-0.956002	-0.166294	0.081694
O3	O	-1.096722	0.007673	0.081671
O4	O	-1.083695	-0.322740	0.081686
O5	O	-1.096704	0.007664	-0.081912
O6	O	-0.955984	-0.166303	-0.081889
O7	O	-1.224397	-0.148782	-0.081919
Zn8	Zn	-1.090188	-0.157544	-0.107877
Zn9	Zn	-1.090211	-0.157532	0.107651
O10	O	-1.083677	-0.322749	-0.081897
C11	C	-0.921630	-0.165482	-0.000094
C12	C	-0.819240	-0.163035	-0.000083
N13	N	-1.090179	-0.157552	-0.254968
C14	C	-1.258769	-0.149594	-0.000129
C15	C	-1.361159	-0.152041	-0.000134
C16	C	-0.444311	-0.154027	-0.000128
C17	C	-0.548628	-0.156528	-0.000115
C18	C	-0.631772	-0.158531	-0.000104
C19	C	-0.736096	-0.161033	-0.000093
C20	C	-1.095895	0.049955	-0.000120
C21	C	-1.093446	0.175955	-0.000119
C22	C	-1.084504	-0.365031	-0.000103
C23	C	-1.086953	-0.491031	-0.000098
C24	C	-1.088942	0.406642	-0.000102
C25	C	-1.091444	0.278271	-0.000111
C26	C	-1.090184	-0.157555	-0.343966
C27	C	-1.090193	-0.157547	-0.455618
C28	C	-1.090205	-0.157534	-0.544608
C29	C	-1.090215	-0.157527	-0.656267
N30	N	-1.090227	-0.157515	0.254743
