data_functionalizedCrystal
_audit_creation_method	'MofGen! by Chris Wilmer'
_symmetry_space_group_name_H-M	'P1'
_symmetry_Int_Tables_number	1
_symmetry_cell_setting	triclinic
loop_
_symmetry_equiv_pos_as_xyz
  x,y,z
_cell_length_a	26.809956
_cell_length_b	15.944551
_cell_length_c	15.944551
_cell_angle_alpha	96.501262
_cell_angle_beta	90.003391
_cell_angle_gamma	90.004339
loop_
_atom_site_label
_atom_site_type_symbol
_atom_site_fract_x
_atom_site_fract_y
_atom_site_fract_z
O1	O	-0.041429	-1.114531	0.108320
O2	O	-0.041441	-0.869981	0.121676
O3	O	-0.041430	-0.998934	-0.007276
O4	O	-0.041440	-0.985578	0.237273
O5	O	0.041529	-0.998910	-0.007257
O6	O	0.041518	-0.869957	0.121696
O7	O	0.041531	-1.114506	0.108340
Zn8	Zn	0.054696	-0.992228	0.115021
Zn9	Zn	-0.054606	-0.992260	0.114995
O10	O	0.041519	-0.985553	0.237293
C11	C	0.000037	-0.838675	0.121132
C12	C	0.000032	-0.745429	0.119470
N13	N	0.129292	-0.992212	0.115038
N14	N	-0.129202	-0.992282	0.114971
C15	C	0.473923	-1.049353	0.057909
C16	C	0.682801	-1.049373	0.057896
O17	O	0.709809	-1.097922	0.009328
N18	N	0.708919	-0.992264	0.114977
C19	C	0.682815	-0.935143	0.172061
O20	O	0.709823	-0.886564	0.220605
C21	C	0.473938	-0.935120	0.172069
C22	C	0.447822	-0.992238	0.114990
C23	C	0.447807	-1.106465	0.000834
C24	C	0.395591	-1.106463	0.000841
C25	C	0.369490	-1.049348	0.057923
C26	C	0.395606	-0.992235	0.114997
C27	C	0.447835	-0.877996	0.229148
C28	C	0.395612	-0.877993	0.229144
C29	C	0.369497	-0.935111	0.172065
C30	C	0.317289	-0.935118	0.172085
N31	N	0.291171	-0.992226	0.115005
C32	C	0.317271	-1.049341	0.057923
C33	C	0.792478	-0.935161	0.172054
C34	C	0.844697	-0.935167	0.172053
C35	C	0.844679	-1.049396	0.057887
C36	C	0.792459	-1.049393	0.057892
C37	C	0.766360	-0.992269	0.114973
C38	C	0.207613	-1.049332	0.057943
C39	C	0.155392	-1.049327	0.057957
C40	C	0.155415	-0.935096	0.172119
C41	C	0.207631	-0.935104	0.172109
C42	C	0.233729	-0.992225	0.115013
O43	O	0.290249	-0.886588	0.220622
O44	O	0.290254	-1.097901	0.009374
C45	C	0.526139	-1.049355	0.057902
C46	C	0.552255	-0.992243	0.114977
C47	C	0.526154	-0.935128	0.172058
C48	C	0.604474	-0.992249	0.114976
C49	C	0.630574	-1.049364	0.057894
C50	C	0.604456	-1.106473	0.000814
C51	C	0.552240	-1.106470	0.000821
C52	C	0.552273	-0.878019	0.229139
C53	C	0.604489	-0.878027	0.229128
C54	C	0.630590	-0.935142	0.172046
C55	C	0.000050	-0.998367	-0.038561
C56	C	0.000050	-0.996705	-0.131807
C57	C	0.000051	-1.145813	0.108885
C58	C	0.000053	-1.239059	0.110547
C59	C	0.000045	-0.530572	0.035565
C60	C	-0.040860	-0.469564	0.074518
C61	C	0.000038	-0.574703	0.116462
C62	C	0.040932	-0.469562	0.074556
C63	C	0.000046	-0.409790	0.113551
C64	C	-0.040900	-0.514923	0.155437
C65	C	0.040928	-0.514928	0.155464
C66	C	0.000013	-0.453937	0.194476
C67	C	0.000033	-0.669705	0.118137
C68	C	0.000048	-0.314789	0.111883
C69	C	0.000039	-0.912801	-0.346663
C70	C	0.040945	-0.951751	-0.407671
C71	C	0.000046	-0.993698	-0.302533
C72	C	-0.040847	-0.951794	-0.407674
C73	C	0.000040	-0.990787	-0.467445
C74	C	0.040985	-1.032670	-0.362312
C75	C	-0.040843	-1.032702	-0.362308
C76	C	0.000073	-1.071711	-0.423298
C77	C	0.000050	-0.995372	-0.207530
C78	C	0.000039	-0.989119	-0.562446
C79	C	0.000039	-0.986120	0.268577
C80	C	0.000035	-0.987782	0.361823
H81	H	0.134131	-1.095842	0.011477
H82	H	-0.075424	-1.066899	-0.342186
O83	O	0.082253	-1.073579	-0.338520
C84	C	0.129176	-1.203295	-0.351584
C85	C	0.082415	-1.157078	-0.378585
H86	H	0.129328	-1.270807	-0.383979
H87	H	0.128858	-1.204271	-0.280203
H88	H	0.163982	-1.168992	-0.370626
H89	H	0.047584	-1.191344	-0.359601
H90	H	0.082777	-1.156094	-0.449964
H91	H	0.865957	-0.888665	0.218540
H92	H	0.075512	-0.449466	0.040333
H93	H	0.228856	-1.095845	0.011449
O94	O	0.130111	-0.879500	0.227530
C95	C	0.114116	-0.733451	0.276605
C96	C	0.142813	-0.796326	0.213824
H97	H	0.124367	-0.666190	0.265534
H98	H	0.124393	-0.744317	0.343912
H99	H	0.072311	-0.743305	0.266810
H100	H	0.184625	-0.786509	0.223542
H101	H	0.132495	-0.785443	0.146541
O102	O	-0.082141	-0.910985	-0.431508
C103	C	-0.157601	-0.836919	-0.386745
C104	C	-0.110866	-0.883139	-0.359644
H105	H	-0.180833	-0.814378	-0.328657
H106	H	-0.180756	-0.881818	-0.431915
H107	H	-0.145793	-0.780289	-0.419729
H108	H	-0.122630	-0.939768	-0.326625
H109	H	-0.087722	-0.838185	-0.314514
O110	O	0.000051	-0.414466	0.274688
C111	C	0.042788	-0.393755	0.408386
C112	C	0.042804	-0.438528	0.317579
H113	H	0.077356	-0.413179	0.443084
H114	H	0.007916	-0.412391	0.442763
H115	H	0.043095	-0.322494	0.406517
H116	H	0.042515	-0.509797	0.319371
H117	H	0.077673	-0.419823	0.283239
H118	H	0.000100	-1.138919	-0.456457
H119	H	0.000076	-0.845652	-0.313356
O120	O	0.629792	-1.162068	-0.054557
C121	C	0.645746	-1.308107	-0.103735
C122	C	0.617029	-1.245249	-0.040966
H123	H	0.635431	-1.375371	-0.092781
H124	H	0.687560	-1.298364	-0.093931
H125	H	0.635482	-1.297111	-0.171010
H126	H	0.627252	-1.256206	0.026334
H127	H	0.575223	-1.255006	-0.050843
O128	O	0.233060	-0.879592	0.227441
C129	C	0.291999	-0.764848	0.245227
C130	C	0.263245	-0.827687	0.182479
H131	H	0.316402	-0.722855	0.208900
H132	H	0.316485	-0.801063	0.287195
H133	H	0.264365	-0.724064	0.286046
H134	H	0.290843	-0.868487	0.141604
H135	H	0.238751	-0.791420	0.140568
O136	O	0.473079	-1.162035	-0.054649
C137	C	0.467532	-1.275309	-0.167906
C138	C	0.438855	-1.212424	-0.105106
H139	H	0.439875	-1.316053	-0.208729
H140	H	0.491961	-1.317334	-0.131659
H141	H	0.491997	-1.239046	-0.209864
H142	H	0.414364	-1.248619	-0.063132
H143	H	0.414458	-1.170400	-0.141406
H144	H	0.865939	-1.095903	0.011410
O145	O	0.370240	-1.161719	-0.054854
C146	C	0.311536	-1.179208	-0.169954
C147	C	0.340155	-1.116608	-0.106771
H148	H	0.287213	-1.142760	-0.211957
H149	H	0.286983	-1.221333	-0.134028
H150	H	0.339258	-1.219883	-0.210692
H151	H	0.312468	-1.075878	-0.066016
H152	H	0.364715	-1.074541	-0.142748
O153	O	0.767170	-1.104904	0.002362
C154	C	0.772678	-1.218238	-0.110838
C155	C	0.801376	-1.155404	-0.048004
H156	H	0.800321	-1.259096	-0.151563
H157	H	0.748248	-1.182019	-0.152887
H158	H	0.748213	-1.260159	-0.074533
H159	H	0.825868	-1.113468	-0.084240
H160	H	0.825775	-1.191676	-0.005956
O161	O	0.000091	-0.570352	-0.044524
C162	C	0.043213	-0.665757	-0.148035
C163	C	0.043232	-0.620744	-0.057325
H164	H	0.078084	-0.706523	-0.158408
H165	H	0.042864	-0.616766	-0.194859
H166	H	0.008651	-0.707353	-0.157976
H167	H	0.077788	-0.579151	-0.047303
H168	H	0.043556	-0.669779	-0.010548
O169	O	0.767206	-0.879639	0.227591
C170	C	0.772748	-0.766314	0.340798
C171	C	0.801428	-0.829155	0.277957
H172	H	0.800404	-0.725469	0.381523
H173	H	0.748314	-0.802527	0.382846
H174	H	0.748289	-0.724381	0.304498
H175	H	0.825914	-0.871103	0.314188
H176	H	0.825831	-0.792889	0.235910
O177	O	0.473118	-0.822427	0.284625
C178	C	0.467602	-0.709152	0.397883
C179	C	0.438908	-0.772029	0.335085
H180	H	0.439955	-0.668400	0.438708
H181	H	0.492035	-0.667134	0.361634
H182	H	0.492063	-0.745422	0.439839
H183	H	0.414420	-0.735828	0.293113
H184	H	0.414506	-0.814047	0.371386
O185	O	0.629778	-0.822458	0.284611
C186	C	0.624269	-0.709181	0.397869
C187	C	0.595571	-0.772058	0.335077
H188	H	0.596626	-0.668429	0.438699
H189	H	0.648700	-0.667164	0.361614
H190	H	0.648734	-0.745450	0.439820
H191	H	0.571079	-0.735858	0.293110
H192	H	0.571172	-0.814075	0.371384
H193	H	0.075524	-0.917525	-0.427771
O194	O	-0.082075	-0.445634	0.033557
C195	C	-0.128690	-0.457909	-0.096475
C196	C	-0.081991	-0.485059	-0.050188
H197	H	-0.128643	-0.489786	-0.164185
H198	H	-0.128480	-0.386456	-0.096871
H199	H	-0.163542	-0.477432	-0.062608
H200	H	-0.047114	-0.465594	-0.084019
H201	H	-0.082244	-0.556511	-0.049785
H202	H	0.530980	-1.152981	-0.045658
O203	O	0.370238	-0.822421	0.284481
C204	C	0.311270	-0.707738	0.302299
C205	C	0.339983	-0.770609	0.239536
H206	H	0.286794	-0.665844	0.265986
H207	H	0.338887	-0.666860	0.343078
H208	H	0.286846	-0.744013	0.344306
H209	H	0.364407	-0.734402	0.197474
H210	H	0.312339	-0.811487	0.198816
O211	O	-0.082188	-0.538921	0.196157
C212	C	-0.128496	-0.654273	0.243449
C213	C	-0.081723	-0.627211	0.197303
H214	H	-0.128131	-0.725654	0.244406
H215	H	-0.163328	-0.635270	0.209190
H216	H	-0.128640	-0.621911	0.310974
H217	H	-0.081531	-0.659560	0.129777
H218	H	-0.046913	-0.646199	0.231627
O219	O	0.082232	-0.538920	0.196136
C220	C	0.172046	-0.543242	0.199513
C221	C	0.125306	-0.516040	0.153368
H222	H	0.206883	-0.524739	0.164964
H223	H	0.171482	-0.614567	0.200892
H224	H	0.172372	-0.510505	0.266889
H225	H	0.124949	-0.548717	0.085973
H226	H	0.125888	-0.444707	0.152058
H227	H	0.531026	-0.831508	0.275620
