data_functionalizedCrystal
_audit_creation_method	'MofGen! by Chris Wilmer'
_symmetry_space_group_name_H-M	'P1'
_symmetry_Int_Tables_number	1
_symmetry_cell_setting	triclinic
loop_
_symmetry_equiv_pos_as_xyz
  x,y,z
_cell_length_a	19.121112
_cell_length_b	29.839131
_cell_length_c	19.120904
_cell_angle_alpha	92.409150
_cell_angle_beta	90.088845
_cell_angle_gamma	87.595571
loop_
_atom_site_label
_atom_site_type_symbol
_atom_site_fract_x
_atom_site_fract_y
_atom_site_fract_z
Zn1	Zn	1.054748	-0.219753	-0.442024
Zn2	Zn	1.388081	0.113580	-0.108691
Zn3	Zn	1.721415	0.446913	0.224643
Zn4	Zn	1.059636	-0.291815	-0.324779
Zn5	Zn	1.392969	0.041518	0.008554
Zn6	Zn	1.726302	0.374851	0.341888
Zn7	Zn	0.942520	-0.213363	-0.319810
Zn8	Zn	1.275853	0.119970	0.013523
Zn9	Zn	1.609187	0.453303	0.346857
Zn10	Zn	0.937447	-0.291513	-0.436983
Zn11	Zn	1.270781	0.041820	-0.103649
Zn12	Zn	1.604114	0.375153	0.229684
O13	O	0.998588	-0.254111	-0.380899
O14	O	1.331921	0.079222	-0.047566
O15	O	1.665254	0.412555	0.285768
O16	O	1.153501	-0.232113	-0.430661
O17	O	1.486834	0.101220	-0.097327
O18	O	1.820167	0.434554	0.236006
O19	O	1.048269	-0.278861	-0.226015
O20	O	1.381602	0.054473	0.107318
O21	O	1.714935	0.387806	0.440652
O22	O	0.957484	-0.151347	-0.336052
O23	O	1.290818	0.181986	-0.002719
O24	O	1.624151	0.515320	0.330614
O25	O	1.157092	-0.285057	-0.344521
O26	O	1.490425	0.048277	-0.011188
O27	O	1.823758	0.381610	0.322146
O28	O	1.039938	-0.156041	-0.425842
O29	O	1.373271	0.177292	-0.092509
O30	O	1.706605	0.510625	0.240824
O31	O	0.962224	-0.221222	-0.222364
O32	O	1.295557	0.112111	0.110969
O33	O	1.628891	0.445444	0.444302
O34	O	0.843743	-0.220930	-0.331164
O35	O	1.177076	0.112404	0.002169
O36	O	1.510410	0.445737	0.335503
O37	O	0.948839	-0.284542	-0.535756
O38	O	1.282173	0.048791	-0.202423
O39	O	1.615506	0.382125	0.130911
O40	O	0.840016	-0.278346	-0.417250
O41	O	1.173350	0.054987	-0.083917
O42	O	1.506683	0.388321	0.249417
O43	O	1.035020	-0.231820	-0.539460
O44	O	1.368353	0.101513	-0.206127
O45	O	1.701686	0.434847	0.127207
O46	O	1.043350	-0.354639	-0.339633
O47	O	1.376683	-0.021306	-0.006299
O48	O	1.710017	0.312027	0.327034
O49	O	0.953579	-0.354418	-0.422068
O50	O	1.286912	-0.021084	-0.088735
O51	O	1.620245	0.312249	0.244598
C52	C	0.816442	-0.248912	-0.373121
C53	C	1.149776	0.084421	-0.039788
C54	C	1.483109	0.417755	0.293545
C55	C	0.738519	-0.246699	-0.369810
C56	C	1.071852	0.086634	-0.036477
C57	C	1.405186	0.419968	0.296856
C58	C	0.297896	-0.232660	-0.348841
C59	C	0.631229	0.100673	-0.015508
C60	C	0.964563	0.434007	0.317825
C61	C	0.371113	-0.234742	-0.351956
C62	C	0.704446	0.098591	-0.018623
C63	C	1.037780	0.431925	0.314711
C64	C	0.405800	-0.265722	-0.398261
C65	C	0.739134	0.067611	-0.064928
C66	C	1.072467	0.400945	0.268406
C67	C	0.367267	-0.294619	-0.441459
C68	C	0.700600	0.038715	-0.108126
C69	C	1.033933	0.372048	0.225208
C70	C	0.294051	-0.292534	-0.438348
C71	C	0.627384	0.040799	-0.105014
C72	C	0.960717	0.374132	0.228319
C73	C	0.626769	-0.273511	-0.409897
C74	C	0.960102	0.059822	-0.076564
C75	C	1.293436	0.393155	0.256769
C76	C	0.699990	-0.275595	-0.413004
C77	C	1.033324	0.057739	-0.079671
C78	C	1.366657	0.391072	0.253663
C79	C	0.703832	-0.215717	-0.323501
C80	C	1.037165	0.117616	0.009832
C81	C	1.370498	0.450950	0.343165
C82	C	0.630614	-0.213637	-0.320391
C83	C	0.963948	0.119696	0.012942
C84	C	1.297281	0.453029	0.346276
C85	C	0.592087	-0.242532	-0.363592
C86	C	0.925420	0.090801	-0.030258
C87	C	1.258753	0.424134	0.303075
C88	C	0.480640	-0.267852	-0.401444
C89	C	0.813973	0.065482	-0.068111
C90	C	1.147307	0.398815	0.265223
C91	C	0.517248	-0.240400	-0.360412
C92	C	0.850582	0.092933	-0.027078
C93	C	1.183915	0.426267	0.306255
C94	C	0.998463	-0.370829	-0.380859
C95	C	1.331796	-0.037496	-0.047525
C96	C	1.665129	0.295837	0.285808
C97	C	0.998472	-0.420764	-0.380868
C98	C	1.331806	-0.087431	-0.047534
C99	C	1.665139	0.245902	0.285799
C100	C	1.045410	-0.730519	-0.338044
C101	C	1.378744	-0.397185	-0.004710
C102	C	1.712077	-0.063852	0.328623
C103	C	1.045496	-0.918195	-0.338075
C104	C	1.378829	-0.584861	-0.004741
C105	C	1.712162	-0.251528	0.328592
O106	O	1.085305	-0.942550	-0.301633
O107	O	1.418638	-0.609217	0.031700
O108	O	1.751972	-0.275884	0.365034
N109	N	0.998731	-0.941559	-0.380958
N110	N	1.332064	-0.608226	-0.047625
N111	N	1.665398	-0.274892	0.285709
C112	C	0.951945	-0.918001	-0.423840
C113	C	1.285278	-0.584668	-0.090507
C114	C	1.618611	-0.251335	0.242827
O115	O	0.912175	-0.942180	-0.460321
O116	O	1.245508	-0.608847	-0.126988
O117	O	1.578842	-0.275514	0.206346
C118	C	0.951863	-0.730326	-0.423812
C119	C	1.285196	-0.396993	-0.090479
C120	C	1.618530	-0.063659	0.242854
C121	C	0.998626	-0.706964	-0.380921
C122	C	1.331960	-0.373631	-0.047588
C123	C	1.665293	-0.040297	0.285746
C124	C	1.092170	-0.707157	-0.295156
C125	C	1.425504	-0.373823	0.038177
C126	C	1.758837	-0.040490	0.371510
C127	C	1.092146	-0.660240	-0.295146
C128	C	1.425479	-0.326907	0.038187
C129	C	1.758813	0.006426	0.371520
C130	C	1.045362	-0.636686	-0.338023
C131	C	1.378695	-0.303352	-0.004690
C132	C	1.712028	0.029981	0.328643
C133	C	0.998602	-0.660048	-0.380911
C134	C	1.331935	-0.326714	-0.047577
C135	C	1.665268	0.006619	0.285756
C136	C	0.905081	-0.706769	-0.466698
C137	C	1.238414	-0.373436	-0.133364
C138	C	1.571747	-0.040103	0.199969
C139	C	0.905066	-0.659848	-0.466688
C140	C	1.238399	-0.326514	-0.133355
C141	C	1.571732	0.006819	0.199978
C142	C	0.951829	-0.636486	-0.423797
C143	C	1.285162	-0.303152	-0.090463
C144	C	1.618495	0.030181	0.242870
C145	C	0.951793	-0.589577	-0.423778
C146	C	1.285126	-0.256244	-0.090445
C147	C	1.618460	0.077090	0.242889
N148	N	0.998558	-0.566213	-0.380895
N149	N	1.331891	-0.232879	-0.047561
N150	N	1.665225	0.100454	0.285772
C151	C	1.045342	-0.589767	-0.338017
C152	C	1.378676	-0.256434	-0.004684
C153	C	1.712009	0.076899	0.328649
C154	C	0.951990	-1.016533	-0.423851
C155	C	1.285323	-0.683200	-0.090517
C156	C	1.618656	-0.349867	0.242816
C157	C	0.952009	-1.063452	-0.423857
C158	C	1.285342	-0.730118	-0.090523
C159	C	1.618676	-0.396785	0.242810
C160	C	1.045561	-1.063642	-0.338092
C161	C	1.378895	-0.730309	-0.004759
C162	C	1.712228	-0.396976	0.328575
C163	C	1.045538	-1.016723	-0.338083
C164	C	1.378871	-0.683389	-0.004749
C165	C	1.712205	-0.350056	0.328584
C166	C	0.998755	-0.993169	-0.380967
C167	C	1.332088	-0.659836	-0.047634
C168	C	1.665421	-0.326503	0.285699
C169	C	1.045287	-0.491239	-0.337999
C170	C	1.378620	-0.157906	-0.004666
C171	C	1.711954	0.175427	0.328668
C172	C	1.045257	-0.444319	-0.337990
C173	C	1.378590	-0.110985	-0.004657
C174	C	1.711923	0.222348	0.328676
C175	C	0.951707	-0.444133	-0.423758
C176	C	1.285040	-0.110799	-0.090424
C177	C	1.618374	0.222534	0.242909
C178	C	0.951735	-0.491049	-0.423764
C179	C	1.285068	-0.157716	-0.090430
C180	C	1.618401	0.175618	0.242903
C181	C	0.998531	-0.514601	-0.380882
C182	C	1.331864	-0.181268	-0.047549
C183	C	1.665197	0.152065	0.285784
O184	O	0.912010	-0.565193	-0.460206
O185	O	1.245344	-0.231859	-0.126873
O186	O	1.578677	0.101474	0.206460
O187	O	1.085116	-0.565581	-0.301553
O188	O	1.418450	-0.232247	0.031780
O189	O	1.751783	0.101086	0.365113
C190	C	1.045435	-0.777435	-0.338054
C191	C	1.378768	-0.444102	-0.004720
C192	C	1.712101	-0.110768	0.328613
C193	C	0.998675	-0.800797	-0.380941
C194	C	1.332008	-0.467464	-0.047608
C195	C	1.665342	-0.134130	0.285726
C196	C	0.951891	-0.777242	-0.423818
C197	C	1.285224	-0.443909	-0.090485
C198	C	1.618557	-0.110576	0.242848
C199	C	0.998694	-0.847715	-0.380947
C200	C	1.332028	-0.514382	-0.047614
C201	C	1.665361	-0.181049	0.285719
C202	C	1.045479	-0.871270	-0.338070
C203	C	1.378812	-0.537937	-0.004737
C204	C	1.712145	-0.204603	0.328597
C205	C	1.092243	-0.847906	-0.295187
C206	C	1.425577	-0.514572	0.038147
C207	C	1.758910	-0.181239	0.371480
C208	C	1.092219	-0.800989	-0.295176
C209	C	1.425552	-0.467656	0.038157
C210	C	1.758886	-0.134323	0.371490
C211	C	0.905126	-0.800607	-0.466702
C212	C	1.238459	-0.467273	-0.133368
C213	C	1.571793	-0.133940	0.199965
C214	C	0.905154	-0.847523	-0.466708
C215	C	1.238487	-0.514190	-0.133375
C216	C	1.571820	-0.180856	0.199959
C217	C	0.951938	-0.871077	-0.423831
C218	C	1.285271	-0.537744	-0.090497
C219	C	1.618604	-0.204411	0.242836
C220	C	1.181445	-0.259331	-0.388707
C221	C	1.514778	0.074002	-0.055374
C222	C	1.848111	0.407335	0.277959
C223	C	1.259367	-0.261556	-0.392035
C224	C	1.592701	0.071778	-0.058702
C225	C	1.926034	0.405111	0.274632
C226	C	0.990818	-0.258860	-0.563757
C227	C	1.324152	0.074473	-0.230423
C228	C	1.657485	0.407807	0.102910
C229	C	0.987508	-0.260884	-0.641680
C230	C	1.320841	0.072450	-0.308346
C231	C	1.654174	0.405783	0.024987
C232	C	0.998732	-0.136938	-0.380955
C233	C	1.332065	0.196395	-0.047622
C234	C	1.665399	0.529728	0.285711
C235	C	0.998793	-0.087006	-0.380979
C236	C	1.332127	0.246327	-0.047646
C237	C	1.665460	0.579660	0.285687
C238	C	1.030819	-0.234386	-0.680218
C239	C	1.364153	0.098947	-0.346884
C240	C	1.697486	0.432280	-0.013551
C241	C	1.027700	-0.236286	-0.753434
C242	C	1.361033	0.097048	-0.420101
C243	C	1.694366	0.430381	-0.086768
C244	C	0.981272	-0.264685	-0.788112
C245	C	1.314605	0.068648	-0.454779
C246	C	1.647938	0.401981	-0.121445
C247	C	0.937955	-0.291184	-0.749569
C248	C	1.271289	0.042149	-0.416235
C249	C	1.604622	0.375483	-0.082902
C250	C	0.941072	-0.289282	-0.676353
C251	C	1.274405	0.044052	-0.343020
C252	C	1.607738	0.377385	-0.009687
C253	C	0.969614	-0.271800	-1.009079
C254	C	1.302947	0.061534	-0.675745
C255	C	1.636281	0.394867	-0.342412
C256	C	0.966502	-0.273701	-1.082299
C257	C	1.299836	0.059632	-0.748966
C258	C	1.633169	0.392966	-0.415633
C259	C	1.056246	-0.218802	-1.086160
C260	C	1.389580	0.114531	-0.752827
C261	C	1.722913	0.447865	-0.419493
C262	C	1.059362	-0.216904	-1.012943
C263	C	1.392695	0.116429	-0.679610
C264	C	1.726028	0.449762	-0.346276
C265	C	1.016043	-0.243401	-0.974406
C266	C	1.349376	0.089932	-0.641073
C267	C	1.682709	0.423266	-0.307739
C268	C	0.978084	-0.266629	-0.862951
C269	C	1.311417	0.066705	-0.529618
C270	C	1.644750	0.400038	-0.196284
C271	C	1.019228	-0.241455	-0.899568
C272	C	1.352561	0.091878	-0.566235
C273	C	1.685894	0.425212	-0.232901
C274	C	1.006367	-0.249350	-0.198754
C275	C	1.339701	0.083984	0.134579
C276	C	1.673034	0.417317	0.467912
C277	C	1.009814	-0.247203	-0.120837
C278	C	1.343147	0.086130	0.212496
C279	C	1.676481	0.419463	0.545829
H280	H	0.395515	-0.319842	-0.479165
H281	H	0.728848	0.013492	-0.145831
H282	H	1.062181	0.346825	0.187502
F283	F	0.917082	-0.303927	-1.119204
F284	F	1.250416	0.029406	-0.785871
F285	F	1.583749	0.362740	-0.452538
F286	F	0.260986	-0.199689	-0.299553
F287	F	0.594319	0.133644	0.033781
F288	F	0.927652	0.466978	0.367114
H289	H	1.057026	-0.218330	-0.871330
H290	H	1.390360	0.115003	-0.537997
H291	H	1.723693	0.448336	-0.204664
F292	F	0.480330	-0.207428	-0.311135
F293	F	0.813663	0.125905	0.022198
F294	F	1.146997	0.459239	0.355531
H295	H	0.934351	-0.293382	-0.977711
H296	H	1.267684	0.039951	-0.644378
H297	H	1.601018	0.373285	-0.311044
F298	F	0.253046	-0.323288	-0.484323
F299	F	0.586379	0.010046	-0.150989
F300	F	0.919712	0.343379	0.182344
F301	F	0.894972	-0.317483	-0.635339
F302	F	1.228305	0.015850	-0.302005
F303	F	1.561638	0.349184	0.031328
H304	H	0.867029	-0.781432	-0.501619
H305	H	1.200363	-0.448099	-0.168285
H306	H	1.533696	-0.114765	0.165048
H307	H	0.508891	-0.293077	-0.439144
H308	H	0.842224	0.040256	-0.105810
H309	H	1.175557	0.373590	0.227523
F310	F	0.736906	-0.308570	-0.462290
F311	F	1.070239	0.024764	-0.128957
F312	F	1.403572	0.358097	0.204377
F313	F	0.593703	-0.180662	-0.271110
F314	F	0.927036	0.152672	0.062223
F315	F	1.260369	0.486005	0.395556
F316	F	1.095030	-0.419458	-0.292337
F317	F	1.428363	-0.086125	0.040996
F318	F	1.761697	0.247209	0.374330
F319	F	1.080238	-0.204162	-0.643318
F320	F	1.413572	0.129172	-0.309985
F321	F	1.746905	0.462505	0.023349
F322	F	0.585774	-0.304266	-0.455873
F323	F	0.919108	0.029067	-0.122540
F324	F	1.252441	0.362401	0.210793
F325	F	1.141926	-0.635383	-0.249503
F326	F	1.475259	-0.302050	0.083830
F327	F	1.808592	0.031284	0.417164
H328	H	0.402480	-0.211214	-0.316780
H329	H	0.735813	0.122119	0.016553
H330	H	1.069147	0.455453	0.349887
F331	F	1.073822	-0.208100	-0.794447
F332	F	1.407156	0.125234	-0.461114
F333	F	1.740489	0.458567	-0.127780
F334	F	1.095092	-0.516299	-0.292359
F335	F	1.428426	-0.182966	0.040974
F336	F	1.761759	0.150368	0.374307
H337	H	1.130271	-0.726330	-0.260240
H338	H	1.463605	-0.392997	0.073093
H339	H	1.796938	-0.059663	0.406426
F340	F	1.108777	-0.186678	-0.976042
F341	F	1.442111	0.146656	-0.642709
F342	F	1.775444	0.479989	-0.309375
H343	H	0.913658	-0.510071	-0.458692
H344	H	1.246992	-0.176738	-0.125358
H345	H	1.580325	0.156595	0.207975
H346	H	0.900150	-0.314306	-0.777809
H347	H	1.233483	0.019028	-0.444476
H348	H	1.566817	0.352361	-0.111142
H349	H	1.091513	-0.197229	-1.117544
H350	H	1.424847	0.136104	-0.784211
H351	H	1.758180	0.469437	-0.450878
F352	F	1.095310	-0.991863	-0.292433
F353	F	1.428643	-0.658530	0.040901
F354	F	1.761976	-0.325197	0.374234
H355	H	0.940285	-0.289754	-0.891194
H356	H	1.273618	0.043579	-0.557861
H357	H	1.606952	0.376913	-0.224527
F358	F	1.095351	-1.088718	-0.292457
F359	F	1.428685	-0.755385	0.040877
F360	F	1.762018	-0.422052	0.374210
F361	F	0.744840	-0.184966	-0.277529
F362	F	1.078174	0.148368	0.055804
F363	F	1.411507	0.481701	0.389137
F364	F	0.902192	-0.991472	-0.469497
F365	F	1.235525	-0.658138	-0.136163
F366	F	1.568859	-0.324805	0.197170
F367	F	0.902230	-1.088310	-0.469499
F368	F	1.235563	-0.754977	-0.136166
F369	F	1.568896	-0.421643	0.197167
F370	F	0.855314	-0.731623	-0.512356
F371	F	1.188647	-0.398290	-0.179022
F372	F	1.521980	-0.064956	0.154311
H373	H	0.866969	-0.640673	-0.501612
H374	H	1.200303	-0.307339	-0.168279
H375	H	1.533636	0.025994	0.165054
F376	F	1.141993	-0.776132	-0.249527
F377	F	1.475327	-0.442799	0.083806
F378	F	1.808660	-0.109465	0.417139
F379	F	0.901920	-0.419056	-0.469390
F380	F	1.235254	-0.085723	-0.136057
F381	F	1.568587	0.247611	0.197276
F382	F	1.142033	-0.872982	-0.249551
F383	F	1.475366	-0.539649	0.083782
F384	F	1.808700	-0.206316	0.417115
F385	F	0.855376	-0.872381	-0.512360
F386	F	1.188710	-0.539048	-0.179027
F387	F	1.522043	-0.205715	0.154306
