data_functionalizedCrystal
_audit_creation_method	'MofGen! by Chris Wilmer'
_symmetry_space_group_name_H-M	'P1'
_symmetry_Int_Tables_number	1
_symmetry_cell_setting	triclinic
loop_
_symmetry_equiv_pos_as_xyz
  x,y,z
_cell_length_a	9.482900
_cell_length_b	11.026623
_cell_length_c	11.026607
_cell_angle_alpha	71.413640
_cell_angle_beta	101.386141
_cell_angle_gamma	101.381796
loop_
_atom_site_label
_atom_site_type_symbol
_atom_site_fract_x
_atom_site_fract_y
_atom_site_fract_z
O1	O	0.120896	-1.711169	0.549195
O2	O	0.120898	-1.344589	0.488429
O3	O	0.120892	-1.497498	0.335521
O4	O	0.120902	-1.558260	0.702103
O5	O	-0.120902	-1.528610	0.304391
O6	O	-0.120896	-1.375701	0.457299
O7	O	-0.120897	-1.742282	0.518064
Cu8	Cu	-0.142974	-1.561832	0.484839
Cu9	Cu	0.142975	-1.525038	0.521654
O10	O	-0.120891	-1.589373	0.670972
C11	C	0.000001	-1.312485	0.461654
C12	C	0.000002	-1.170471	0.428236
N13	N	-0.344095	-1.587721	0.458946
N14	N	0.344096	-1.499157	0.547539
C15	C	0.000006	-1.116821	0.520506
C16	C	0.000006	-0.970043	0.485969
C17	C	0.416293	-1.554207	0.492484
C18	C	0.583711	-1.532663	0.514009
C19	C	-0.000003	-1.501844	0.272296
C20	C	0.000002	-1.468426	0.130283
C21	C	0.000002	-0.774384	0.544838
C22	C	0.000010	-0.916397	0.578252
C23	C	0.000004	-1.560696	0.076634
C24	C	0.000010	-1.526159	-0.070144
C25	C	0.000007	-1.585026	0.734197
C26	C	0.000011	-1.618442	0.876212
H27	H	0.000040	-0.907309	0.381404
O28	O	0.000203	-1.743126	-0.048809
C29	C	0.125512	-1.893226	0.129880
C30	C	0.125458	-1.751972	0.045086
H31	H	0.226785	-1.900428	0.205797
H32	H	0.024390	-1.926540	0.179926
H33	H	0.125443	-1.957304	0.066619
H34	H	0.125578	-1.687795	0.108256
H35	H	0.226571	-1.718763	-0.004970
H36	H	0.000012	-1.363862	0.067550
H37	H	0.000003	-0.979125	0.682822
H38	H	0.000000	-1.179555	0.625068
H39	H	0.000036	-1.107733	0.323677
H40	H	-0.000005	-1.665260	0.139367
H41	H	0.000020	-1.421588	-0.132872
O42	O	0.657592	-1.457410	0.589342
C43	C	0.641910	-1.325041	0.721577
C44	C	0.558059	-1.410254	0.636321
H45	H	0.561474	-1.286869	0.759561
H46	H	0.713147	-1.384816	0.806462
H47	H	0.713202	-1.240272	0.661739
H48	H	0.486688	-1.495034	0.696049
H49	H	0.486913	-1.350387	0.551431
O50	O	0.342335	-1.629342	0.417066
C51	C	0.295339	-1.661491	0.205775
C52	C	0.379211	-1.576309	0.291055
H53	H	0.325099	-1.618632	0.103871
H54	H	0.325202	-1.763378	0.248413
H55	H	0.173530	-1.665482	0.201894
H56	H	0.501039	-1.572212	0.294971
H57	H	0.349227	-1.474468	0.248386
O58	O	0.581964	-1.662873	0.383533
C59	C	0.534988	-1.695057	0.172258
C60	C	0.618840	-1.609852	0.257522
H61	H	0.564749	-1.652208	0.070354
H62	H	0.564868	-1.796936	0.214912
H63	H	0.413176	-1.699061	0.168372
H64	H	0.740671	-1.605741	0.261442
H65	H	0.588839	-1.508017	0.214836
O66	O	0.418141	-1.424075	0.622980
C67	C	0.464984	-1.391810	0.834216
C68	C	0.381070	-1.476972	0.748931
H69	H	0.435020	-1.434530	0.936058
H70	H	0.586820	-1.387863	0.838286
H71	H	0.435158	-1.289923	0.791405
H72	H	0.410775	-1.578900	0.791677
H73	H	0.259255	-1.480809	0.744863
