data_functionalizedCrystal
_audit_creation_method	'MofGen! by Chris Wilmer'
_symmetry_space_group_name_H-M	'P1'
_symmetry_Int_Tables_number	1
_symmetry_cell_setting	triclinic
loop_
_symmetry_equiv_pos_as_xyz
  x,y,z
_cell_length_a	18.101395
_cell_length_b	21.395364
_cell_length_c	21.395356
_cell_angle_alpha	90.024718
_cell_angle_beta	89.975103
_cell_angle_gamma	89.974863
loop_
_atom_site_label
_atom_site_type_symbol
_atom_site_fract_x
_atom_site_fract_y
_atom_site_fract_z
Zn1	Zn	-0.294966	-0.957851	-0.354292
Zn2	Zn	0.205034	-0.457851	0.145708
Zn3	Zn	-0.418809	-0.957755	-0.249520
Zn4	Zn	0.081191	-0.457755	0.250480
Zn5	Zn	-0.294973	-0.853068	-0.249527
Zn6	Zn	0.205027	-0.353068	0.250473
Zn7	Zn	-0.418758	-0.853035	-0.354258
Zn8	Zn	0.081242	-0.353035	0.145742
O9	O	-0.356877	-0.905427	-0.301899
O10	O	0.143123	-0.405427	0.198101
O11	O	-0.311413	-1.045516	-0.340405
O12	O	0.188587	-0.545516	0.159595
O13	O	-0.402407	-0.943842	-0.161843
O14	O	0.097593	-0.443842	0.338157
O15	O	-0.191339	-0.867022	-0.263442
O16	O	0.308661	-0.367022	0.236558
O17	O	-0.402400	-1.045446	-0.263430
O18	O	0.097600	-0.545446	0.236570
O19	O	-0.191334	-0.944006	-0.340412
O20	O	0.308666	-0.444006	0.159588
O21	O	-0.311425	-0.866929	-0.161848
O22	O	0.188575	-0.366929	0.338152
O23	O	-0.311375	-0.765386	-0.263408
O24	O	0.188625	-0.265386	0.236592
O25	O	-0.402312	-0.866965	-0.441941
O26	O	0.097688	-0.366965	0.058059
O27	O	-0.402319	-0.765361	-0.340354
O28	O	0.097681	-0.265361	0.159646
O29	O	-0.311363	-0.943974	-0.441966
O30	O	0.188637	-0.443974	0.058034
O31	O	-0.522435	-0.943809	-0.263396
O32	O	-0.022435	-0.443809	0.236604
O33	O	-0.522397	-0.866872	-0.340347
O34	O	-0.022397	-0.366872	0.159653
C35	C	-0.356842	-0.742640	-0.301879
C36	C	0.143158	-0.242640	0.198121
C37	C	-0.356846	-0.672998	-0.301885
C38	C	0.143154	-0.172998	0.198115
C39	C	-0.309585	-0.171239	-0.342040
C40	C	0.190415	0.328761	0.157960
C41	C	-0.309582	-0.236674	-0.342041
C42	C	0.190418	0.263326	0.157959
C43	C	-0.356877	-0.269360	-0.301901
C44	C	0.143123	0.230640	0.198099
C45	C	-0.404191	-0.236605	-0.261767
C46	C	0.095809	0.263395	0.238233
C47	C	-0.404198	-0.171171	-0.261772
C48	C	0.095802	0.328829	0.238228
C49	C	-0.362626	-0.372998	-0.245436
C50	C	0.137374	0.127002	0.254564
C51	C	-0.362613	-0.438430	-0.245430
C52	C	0.137387	0.061570	0.254570
C53	C	-0.356859	-0.471181	-0.301887
C54	C	0.143141	0.028819	0.198113
C55	C	-0.351102	-0.438490	-0.358352
C56	C	0.148898	0.061510	0.141648
C57	C	-0.351109	-0.373056	-0.358356
C58	C	0.148891	0.126944	0.141644
C59	C	-0.356875	-0.340312	-0.301892
C60	C	0.143125	0.159688	0.198108
C61	C	-0.309548	-0.574880	-0.342023
C62	C	0.190452	-0.074880	0.157977
C63	C	-0.309550	-0.640317	-0.342025
C64	C	0.190450	-0.140317	0.157975
C65	C	-0.404155	-0.640247	-0.261745
C66	C	0.095845	-0.140247	0.238255
C67	C	-0.404157	-0.574812	-0.261749
C68	C	0.095843	-0.074812	0.238251
C69	C	-0.356849	-0.542132	-0.301886
C70	C	0.143151	-0.042132	0.198114
C71	C	-0.549287	-0.905343	-0.301881
C72	C	-0.049287	-0.405343	0.198119
C73	C	-0.631601	-0.905365	-0.301894
C74	C	-0.131601	-0.405365	0.198106
C75	C	-0.930692	-0.905502	-0.301928
C76	C	-0.430692	-0.405502	0.198072
C77	C	-0.899374	-0.857208	-0.350463
C78	C	-0.399374	-0.357208	0.149537
C79	C	-0.813756	-0.856978	-0.350311
C80	C	-0.313756	-0.356978	0.149689
C81	C	-0.782310	-0.905434	-0.301912
C82	C	-0.282310	-0.405434	0.198088
C83	C	-0.813456	-0.887553	-0.235878
C84	C	-0.313456	-0.387553	0.264122
C85	C	-0.899101	-0.887241	-0.236168
C86	C	-0.399101	-0.387241	0.263832
C87	C	-0.899045	-0.971784	-0.318845
C88	C	-0.399045	-0.471784	0.181155
C89	C	-0.813394	-0.971395	-0.320293
C90	C	-0.313394	-0.471395	0.179707
C91	C	-0.698450	-0.905397	-0.301898
C92	C	-0.198450	-0.405397	0.198102
C93	C	-1.014552	-0.905538	-0.301937
C94	C	-0.514552	-0.405538	0.198063
C95	C	-0.163715	-0.905529	-0.301932
C96	C	0.336285	-0.405529	0.198068
C97	C	-0.081401	-0.905572	-0.301945
C98	C	0.418599	-0.405572	0.198055
C99	C	-0.356831	-0.905477	-0.465323
C100	C	0.143169	-0.405477	0.034677
C101	C	-0.356811	-0.905498	-0.534964
C102	C	0.143189	-0.405498	-0.034964
C103	C	-0.356903	-0.068851	-0.301915
C104	C	0.143097	0.431149	0.198085
C105	C	-0.356891	-0.138492	-0.301909
C106	C	0.143109	0.361508	0.198091
C107	C	-0.309432	-0.865460	-0.567670
C108	C	0.190568	-0.365460	-0.067670
C109	C	-0.309418	-0.865458	-0.633105
C110	C	0.190582	-0.365458	-0.133105
C111	C	-0.356776	-0.905505	-0.665832
C112	C	0.143224	-0.405505	-0.165832
C113	C	-0.404165	-0.945545	-0.633118
C114	C	0.095835	-0.445545	-0.133118
C115	C	-0.404182	-0.945542	-0.567684
C116	C	0.095818	-0.445542	-0.067684
C117	C	-0.362605	-0.961956	-0.769520
C118	C	0.137395	-0.461956	-0.269520
C119	C	-0.362582	-0.961961	-0.834953
C120	C	0.137418	-0.461961	-0.334953
C121	C	-0.356726	-0.905515	-0.867653
C122	C	0.143274	-0.405515	-0.367653
C123	C	-0.350877	-0.849062	-0.834912
C124	C	0.149123	-0.349062	-0.334912
C125	C	-0.350894	-0.849059	-0.769478
C126	C	0.149106	-0.349059	-0.269478
C127	C	-0.356762	-0.905512	-0.736785
C128	C	0.143238	-0.405512	-0.236785
C129	C	-0.309329	-0.865471	-0.971312
C130	C	0.190671	-0.365471	-0.471312
C131	C	-0.309320	-0.865468	-1.036748
C132	C	0.190680	-0.365468	-0.536748
C133	C	-0.404063	-0.945561	-1.036760
C134	C	0.095937	-0.445561	-0.536760
C135	C	-0.404076	-0.945559	-0.971325
C136	C	0.095924	-0.445559	-0.471325
C137	C	-0.356705	-0.905515	-0.938605
C138	C	0.143295	-0.405515	-0.438605
C139	C	-0.356869	-0.905414	-0.139112
C140	C	0.143131	-0.405414	0.360888
C141	C	-0.356680	-0.905515	-0.069471
C142	C	0.143320	-0.405515	0.430529
H143	H	-0.346422	-0.346442	-0.404331
H144	H	0.153578	0.153558	0.095669
H145	H	-0.271067	-0.144635	-0.374726
H146	H	0.228933	0.355365	0.125274
H147	H	-0.270741	-0.832860	-1.063376
H148	H	0.229259	-0.332860	-0.563376
H149	H	-0.367297	-0.465042	-0.199454
H150	H	0.132703	0.034958	0.300546
H151	H	-0.442669	-0.666859	-0.229067
H152	H	0.057331	-0.166859	0.270933
N153	N	-0.455167	-0.988749	-0.936040
N154	N	0.044833	-0.488749	-0.436040
H155	H	-0.489486	-0.963266	-0.908875
H156	H	0.010514	-0.463266	-0.408875
H157	H	-0.485119	-1.014113	-0.966735
H158	H	0.014881	-0.514113	-0.466735
H159	H	-0.793326	-0.807849	-0.339106
H160	H	-0.293326	-0.307849	0.160894
N161	N	-0.344885	-0.473803	-0.419250
N162	N	0.155115	0.026197	0.080750
H163	H	-0.345756	-0.520215	-0.410682
H164	H	0.154244	-0.020215	0.089318
H165	H	-0.387751	-0.462365	-0.447203
H166	H	0.112249	0.037635	0.052797
N167	N	-0.786418	-0.989275	-0.384657
N168	N	-0.286418	-0.489275	0.115343
H169	H	-0.830136	-0.995781	-0.413242
H170	H	-0.330136	-0.495781	0.086758
H171	H	-0.754183	-0.954780	-0.401794
H172	H	-0.254183	-0.454780	0.098206
N173	N	-0.344577	-0.788178	-0.734164
N174	N	0.155423	-0.288178	-0.234164
H175	H	-0.340860	-0.752418	-0.764803
H176	H	0.159140	-0.252418	-0.264803
H177	H	-0.389702	-0.782331	-0.707001
H178	H	0.110298	-0.282331	-0.207001
H179	H	-0.442701	-0.263223	-0.229086
H180	H	0.057299	0.236777	0.270914
N181	N	-0.785034	-1.021584	-0.276887
N182	N	-0.285034	-0.521584	0.223113
H183	H	-0.751488	-1.002189	-0.244545
H184	H	-0.251488	-0.502189	0.255455
H185	H	-0.828117	-1.042457	-0.255353
H186	H	-0.328117	-0.542457	0.244647
N187	N	-0.258520	-0.675633	-0.385312
N188	N	0.241480	-0.175633	0.114688
H189	H	-0.224164	-0.702781	-0.359895
H190	H	0.275836	-0.202781	0.140105
H191	H	-0.288703	-0.702749	-0.414300
H192	H	0.211297	-0.202749	0.085700
H193	H	-0.792064	-0.839614	-0.221291
H194	H	-0.292064	-0.339614	0.278709
N195	N	-0.455243	-0.988744	-0.668409
N196	N	0.044757	-0.488744	-0.168409
H197	H	-0.508157	-0.978982	-0.657009
H198	H	-0.008157	-0.478982	-0.157009
H199	H	-0.447980	-0.982655	-0.714814
H200	H	0.052020	-0.482655	-0.214814
H201	H	-0.270832	-0.832855	-0.659740
H202	H	0.229168	-0.332855	-0.159740
H203	H	-0.919297	-1.007765	-0.283494
H204	H	-0.419297	-0.507765	0.216506
H205	H	-0.919137	-0.838790	-0.221838
H206	H	-0.419137	-0.338790	0.278162
N207	N	-0.785851	-0.871793	-0.415167
N208	N	-0.285851	-0.371793	0.084833
H209	H	-0.829186	-0.878532	-0.444113
H210	H	-0.329186	-0.378532	0.055887
H211	H	-0.754964	-0.835808	-0.430965
H212	H	-0.254964	-0.335808	0.069035
H213	H	-0.271027	-0.548271	-0.374705
H214	H	0.228973	-0.048271	0.125295
H215	H	-0.442675	-0.548149	-0.229067
H216	H	0.057325	-0.048149	0.270933
H217	H	-0.367342	-1.007928	-0.861606
H218	H	0.132658	-0.507928	-0.361606
N219	N	-0.926554	-0.931809	-0.186634
N220	N	-0.426554	-0.431809	0.313366
H221	H	-0.883018	-0.951568	-0.164704
H222	H	-0.383018	-0.451568	0.335296
H223	H	-0.957534	-0.908167	-0.155261
H224	H	-0.457534	-0.408167	0.344739
H225	H	-0.346103	-0.803099	-0.861535
H226	H	0.153897	-0.303099	-0.361535
H227	H	-0.442764	-0.978148	-0.541055
H228	H	0.057236	-0.478148	-0.041055
H229	H	-0.367314	-0.346338	-0.199458
H230	H	0.132686	0.153662	0.300542
H231	H	-0.442622	-0.978170	-1.063406
H232	H	0.057378	-0.478170	-0.563406
H233	H	-0.442721	-0.144509	-0.229092
H234	H	0.057279	0.355491	0.270908
H235	H	-0.270757	-0.832865	-0.944669
H236	H	0.229243	-0.332865	-0.444669
N237	N	-0.927591	-0.993392	-0.381535
N238	N	-0.427591	-0.493392	0.118465
H239	H	-0.912016	-0.962741	-0.414918
H240	H	-0.412016	-0.462741	0.085082
H241	H	-0.906587	-1.036011	-0.391400
H242	H	-0.406587	-0.536011	0.108600
H243	H	-0.793088	-0.921621	-0.198729
H244	H	-0.293088	-0.421621	0.301271
N245	N	-0.258333	-0.822278	-0.532379
N246	N	0.241667	-0.322278	-0.032379
H247	H	-0.228313	-0.796916	-0.563031
H248	H	0.271687	-0.296916	-0.063031
H249	H	-0.288467	-0.793261	-0.505209
H250	H	0.211533	-0.293261	-0.005209
H251	H	-0.919925	-0.868285	-0.399585
H252	H	-0.419925	-0.368285	0.100415
N253	N	-0.368936	-1.022840	-0.734253
N254	N	0.131064	-0.522840	-0.234253
H255	H	-0.372635	-1.058602	-0.764922
H256	H	0.127365	-0.558602	-0.264922
H257	H	-0.323826	-1.028685	-0.707111
H258	H	0.176174	-0.528685	-0.207111
H259	H	-0.271057	-0.263342	-0.374719
H260	H	0.228943	0.236658	0.125281
H261	H	-0.920954	-0.808377	-0.339398
H262	H	-0.420954	-0.308377	0.160602
