data_functionalizedCrystal
_audit_creation_method	'MofGen! by Chris Wilmer'
_symmetry_space_group_name_H-M	'P1'
_symmetry_Int_Tables_number	1
_symmetry_cell_setting	triclinic
loop_
_symmetry_equiv_pos_as_xyz
  x,y,z
_cell_length_a	14.853567
_cell_length_b	19.188930
_cell_length_c	13.930277
_cell_angle_alpha	89.990320
_cell_angle_beta	89.995755
_cell_angle_gamma	83.389856
loop_
_atom_site_label
_atom_site_type_symbol
_atom_site_fract_x
_atom_site_fract_y
_atom_site_fract_z
O1	O	1.195862	0.091155	-0.079776
O2	O	0.933342	0.102014	-0.079794
O3	O	1.072177	-0.005046	-0.079766
O4	O	1.057026	0.198215	-0.079804
O5	O	1.072158	-0.005048	0.079896
O6	O	0.933322	0.102012	0.079868
O7	O	1.195842	0.091153	0.079886
Zn8	Zn	1.064579	0.096582	0.105227
Zn9	Zn	1.064605	0.096585	-0.105135
O10	O	1.057007	0.198213	0.079858
C11	C	0.899746	0.101521	0.000035
C12	C	0.799671	0.100046	0.000029
C13	C	0.387525	0.030218	0.000064
C14	C	0.365537	0.157407	0.000039
C15	C	0.459563	0.158794	0.000036
C16	C	0.517574	0.095891	0.000045
C17	C	0.481560	0.031602	0.000058
C18	C	0.495585	0.223081	0.000013
C19	C	0.589616	0.224470	0.000009
C20	C	0.647629	0.161567	0.000025
C21	C	0.611610	0.097276	0.000039
C22	C	0.669621	0.034373	0.000048
C23	C	0.633603	-0.029919	0.000069
C24	C	0.539574	-0.031301	0.000074
C25	C	0.741659	0.162949	0.000020
C26	C	0.763656	0.035757	0.000042
C27	C	1.071677	-0.031060	0.000068
C28	C	1.070204	-0.108569	0.000076
C29	C	1.151668	-0.153221	0.000086
C30	C	1.150285	-0.226050	0.000071
C31	C	1.067432	-0.254223	0.000065
C32	C	0.985957	-0.209561	0.000049
C33	C	0.987343	-0.136734	0.000055
N34	N	1.004095	-0.362440	0.054396
N35	N	1.002783	-0.431623	0.054393
C36	C	1.063251	-0.473645	0.000045
N37	N	1.125093	-0.443873	-0.054287
N38	N	1.126407	-0.374684	-0.054279
C39	C	1.065920	-0.333190	0.000058
C40	C	1.143220	-0.597267	0.000037
C41	C	1.141833	-0.670096	0.000015
C42	C	0.977503	-0.653606	0.000003
C43	C	0.978893	-0.580778	0.000015
C44	C	1.061754	-0.552613	0.000036
C45	C	1.229438	0.091646	0.000055
C46	C	1.329513	0.093120	0.000055
C47	C	1.057507	0.224226	0.000022
C48	C	1.058980	0.301736	0.000008
N49	N	1.064569	0.096579	0.248793
N50	N	1.064623	0.096582	-0.248701
C51	C	1.003126	0.143972	0.701050
C52	C	1.126108	0.049192	0.701044
C53	C	1.126098	0.049190	0.600548
C54	C	1.064601	0.096580	0.550299
C55	C	1.003115	0.143973	0.600545
C56	C	1.187588	0.001803	0.550295
C57	C	1.187581	0.001799	0.449793
C58	C	1.126079	0.049187	0.399541
C59	C	1.064590	0.096581	0.449794
C60	C	1.003094	0.143971	0.399544
C61	C	0.941600	0.191363	0.449794
C62	C	0.941614	0.191361	0.550293
C63	C	1.126065	0.049189	0.299043
C64	C	1.003083	0.143972	0.299039
H65	H	0.770981	0.215294	0.000005
C66	C	1.241880	-0.040518	0.295738
C67	C	1.254965	-0.050452	0.394562
H68	H	1.283423	-0.072821	0.261642
H69	H	1.181665	-0.048026	0.279411
H70	H	1.251692	0.006030	0.279140
H71	H	1.245147	-0.096998	0.411161
H72	H	1.315195	-0.042948	0.410895
H73	H	0.810884	-0.015466	0.000053
H74	H	0.618933	0.276821	-0.000008
H75	H	0.680849	-0.081134	0.000070
C76	C	0.483288	0.348942	-0.000036
C77	C	0.431820	0.292221	-0.000008
H78	H	0.443917	0.391627	-0.000056
H79	H	0.520417	0.346844	0.055636
H80	H	0.520424	0.346829	-0.055719
H81	H	0.394688	0.294331	0.055679
H82	H	0.394676	0.294321	-0.055686
H83	H	1.219140	-0.130295	0.000100
C84	C	0.405197	-0.089895	0.000080
C85	C	0.499980	-0.101966	0.000086
H86	H	0.380754	-0.133521	0.000080
H87	H	0.385273	-0.063999	0.055751
H88	H	0.385284	-0.063988	-0.055605
H89	H	0.519893	-0.127869	0.055775
H90	H	0.519912	-0.127873	-0.055590
C91	C	0.910869	-0.313878	0.000050
C92	C	0.894884	-0.240525	0.000046
H93	H	0.854641	-0.332992	0.000051
H94	H	0.944402	-0.329189	-0.055622
H95	H	0.944395	-0.329200	0.055734
H96	H	0.861364	-0.225203	-0.055642
H97	H	0.861337	-0.225208	0.055723
H98	H	1.237662	-0.036778	0.591211
C99	C	1.312857	-0.235043	0.000109
C100	C	1.239836	-0.275143	0.000089
H101	H	1.368140	-0.265351	0.000126
H102	H	1.309996	-0.206290	-0.055566
H103	H	1.309962	-0.206299	0.055790
H104	H	1.242727	-0.303884	-0.055596
H105	H	1.242698	-0.303908	0.055769
H106	H	0.358195	-0.022127	0.000085
C107	C	0.881550	0.237652	0.690944
C108	C	0.935528	0.196060	0.756278
H109	H	0.839813	0.269805	0.725043
H110	H	0.918970	0.262824	0.651741
H111	H	0.849246	0.208533	0.651751
H112	H	0.967838	0.225179	0.795466
H113	H	0.898103	0.170887	0.795497
H114	H	0.318299	0.208620	0.000023
C115	C	0.983125	0.238970	0.186005
C116	C	0.935484	0.196067	0.243806
H117	H	0.941391	0.271128	0.151903
H118	H	1.020542	0.264136	0.225202
H119	H	1.019740	0.210742	0.141697
H120	H	0.898874	0.224295	0.288119
H121	H	0.898052	0.170899	0.204605
C122	C	0.824773	-0.127750	0.000043
C123	C	0.897791	-0.087647	0.000053
H124	H	0.769488	-0.097444	0.000049
H125	H	0.827655	-0.156485	-0.055636
H126	H	0.827649	-0.156512	0.055719
H127	H	0.894919	-0.058889	-0.055627
H128	H	0.894907	-0.058900	0.055738
C129	C	1.305513	-0.620880	0.000025
C130	C	1.234298	-0.566302	0.000037
H131	H	1.361739	-0.601763	0.000016
H132	H	1.301556	-0.648949	0.055697
H133	H	1.301547	-0.648933	-0.055659
H134	H	1.238260	-0.538251	0.055724
H135	H	1.238257	-0.538221	-0.055641
C136	C	1.235627	-0.761538	-0.082066
C137	C	1.231388	-0.719180	0.000019
H138	H	1.290919	-0.791836	-0.082066
H139	H	1.186093	-0.788737	-0.082072
H140	H	1.232759	-0.732765	-0.137731
H141	H	1.234249	-0.747953	0.055685
H142	H	1.280936	-0.691978	0.000034
H143	H	0.910043	-0.676543	-0.000007
H144	H	0.912556	-0.544421	0.000012
H145	H	0.891532	0.229951	0.408870
H146	H	0.891548	0.229946	0.591213
H147	H	1.176181	0.010611	0.741960
H148	H	1.176137	0.010607	0.258133
