data_functionalizedCrystal
_audit_creation_method	'MofGen! by Chris Wilmer'
_symmetry_space_group_name_H-M	'P1'
_symmetry_Int_Tables_number	1
_symmetry_cell_setting	triclinic
loop_
_symmetry_equiv_pos_as_xyz
  x,y,z
_cell_length_a	16.974800
_cell_length_b	16.992695
_cell_length_c	18.366186
_cell_angle_alpha	89.993794
_cell_angle_beta	93.647767
_cell_angle_gamma	87.021674
loop_
_atom_site_label
_atom_site_type_symbol
_atom_site_fract_x
_atom_site_fract_y
_atom_site_fract_z
O1	O	1.055459	0.099873	0.001667
O2	O	0.826059	0.112614	-0.011857
O3	O	0.939839	-0.007898	-0.005143
O4	O	0.941679	0.220385	-0.005047
O5	O	0.939818	-0.007904	0.115955
O6	O	0.826038	0.112608	0.109241
O7	O	1.055438	0.099867	0.122765
Zn8	Zn	0.940735	0.106237	0.135230
Zn9	Zn	0.940762	0.106245	-0.024322
O10	O	0.941658	0.220379	0.116052
C11	C	0.796559	0.112128	0.046953
C12	C	0.708691	0.110681	0.041773
C13	C	0.667404	0.109996	0.105352
C14	C	0.584844	0.108624	0.100487
C15	C	0.543572	0.107942	0.032042
C16	C	0.584865	0.108625	-0.031541
C17	C	0.667424	0.109992	-0.026675
C18	C	0.296658	0.103850	0.010411
C19	C	0.214093	0.102485	0.005550
C20	C	0.214077	0.102483	0.137578
C21	C	0.296638	0.103854	0.142438
C22	C	0.337924	0.104533	0.078855
N23	N	0.459182	0.106542	0.027068
N24	N	0.422313	0.105927	0.083830
C25	C	0.937463	-0.037111	0.055266
C26	C	0.930403	-0.124147	0.054850
C27	C	0.998518	-0.174465	0.058866
C28	C	0.991880	-0.256244	0.058468
C29	C	0.917127	-0.287704	0.054058
C30	C	0.849007	-0.237379	0.050039
C31	C	0.855645	-0.155602	0.050432
C32	C	0.889612	-0.531270	0.052426
C33	C	0.882979	-0.613054	0.052036
C34	C	1.025853	-0.631913	0.060463
C35	C	1.032485	-0.550133	0.060860
C36	C	0.964365	-0.499816	0.056837
N37	N	0.910340	-0.371295	0.053653
N38	N	0.971153	-0.416226	0.057237
C39	C	1.084937	0.100353	0.063953
C40	C	1.172805	0.101800	0.069128
C41	C	0.944034	0.249592	0.055641
C42	C	0.951094	0.336628	0.056052
N43	N	0.940721	0.106231	0.244120
N44	N	0.940781	0.106244	-0.133212
C45	C	0.991123	0.052894	0.285195
C46	C	0.991128	0.052891	0.361423
C47	C	0.940739	0.106237	0.396574
C48	C	0.890328	0.159578	0.355490
C49	C	0.890319	0.159575	0.279263
C50	C	0.934893	0.177655	0.516986
C51	C	0.934907	0.177659	0.593212
C52	C	0.940762	0.106247	0.631683
C53	C	0.946620	0.034828	0.593920
C54	C	0.946611	0.034824	0.517693
C55	C	0.940743	0.106247	0.479229
C56	C	0.991172	0.052903	0.755413
C57	C	0.991171	0.052898	0.831642
C58	C	0.890376	0.159592	0.825708
C59	C	0.890372	0.159590	0.749480
C60	C	0.940775	0.106246	0.714337
H61	H	0.180453	0.101929	0.189344
H62	H	0.330263	0.104400	-0.041363
C63	C	0.953058	-0.043732	0.636232
N64	N	0.957909	-0.102902	0.668105
H65	H	0.834143	-0.490311	0.049151
C66	C	0.834897	0.218256	0.394158
N67	N	0.793142	0.262451	0.423282
H68	H	1.059391	-0.148857	0.062461
C69	C	0.712840	0.110747	-0.096617
N70	N	0.747046	0.111314	-0.149300
H71	H	1.093357	-0.524525	0.064451
H72	H	1.081312	-0.672889	0.063737
C73	C	0.168695	0.101735	-0.069748
N74	N	0.134502	0.101171	-0.126459
C75	C	0.953043	-0.043735	0.476156
N76	N	0.957883	-0.102908	0.444870
C77	C	1.046607	-0.005783	0.716753
N78	N	1.088360	-0.049987	0.687636
C79	C	1.046584	-0.005778	0.406614
N80	N	1.088357	-0.049964	0.440650
H81	H	0.701001	0.110558	0.161087
H82	H	0.822102	-0.638665	0.048456
C83	C	0.928452	0.256219	0.474676
N84	N	0.923600	0.315392	0.442808
H85	H	0.788140	-0.263000	0.046444
H86	H	1.047347	-0.297210	0.061740
H87	H	0.800178	-0.114633	0.047162
C88	C	0.539463	0.107873	-0.106831
N89	N	0.505267	0.107309	-0.163541
C90	C	1.046559	-0.005793	0.246542
N91	N	1.088311	-0.050000	0.217427
H92	H	0.551232	0.108053	0.152259
H93	H	1.032211	0.009461	0.865086
H94	H	0.849345	0.203025	0.854327
H95	H	0.330236	0.104405	0.198173
C96	C	0.834987	0.218321	0.704300
N97	N	0.793287	0.262579	0.670272
C98	C	0.928457	0.256222	0.634744
N99	N	0.923593	0.315397	0.666023
C100	C	0.834908	0.218286	0.234082
N101	N	0.793185	0.262521	0.200051
