data_functionalizedCrystal
_audit_creation_method	'MofGen! by Chris Wilmer'
_symmetry_space_group_name_H-M	'P1'
_symmetry_Int_Tables_number	1
_symmetry_cell_setting	triclinic
loop_
_symmetry_equiv_pos_as_xyz
  x,y,z
_cell_length_a	15.712078
_cell_length_b	15.995350
_cell_length_c	14.750779
_cell_angle_alpha	77.359549
_cell_angle_beta	106.492891
_cell_angle_gamma	101.536762
loop_
_atom_site_label
_atom_site_type_symbol
_atom_site_fract_x
_atom_site_fract_y
_atom_site_fract_z
O1	O	1.128088	0.471606	-0.080031
O2	O	0.876443	0.407860	-0.079985
O3	O	1.009145	0.319952	-0.080008
O4	O	0.995387	0.559514	-0.080008
O5	O	1.046658	0.295106	0.079635
O6	O	0.913956	0.383013	0.079659
O7	O	1.165601	0.446760	0.079613
Zn8	Zn	1.045735	0.410942	0.104983
Zn9	Zn	0.996310	0.443678	-0.105355
O10	O	1.032900	0.534667	0.079636
C11	C	0.862998	0.385023	-0.000158
C12	C	0.767047	0.353983	-0.000140
C13	C	0.399935	0.617506	-0.000206
C14	C	0.309768	0.588327	-0.000230
C15	C	0.330383	0.442096	-0.000232
C16	C	0.420553	0.471264	-0.000213
C17	C	0.455322	0.558970	-0.000199
C18	C	0.475940	0.412728	-0.000206
C19	C	0.566103	0.441894	-0.000182
C20	C	0.600879	0.529595	-0.000164
C21	C	0.545485	0.588136	-0.000174
C22	C	0.441171	0.325021	-0.000213
C23	C	0.496557	0.266485	-0.000206
C24	C	0.586721	0.295652	-0.000189
C25	C	0.621497	0.383353	-0.000172
C26	C	0.642115	0.237111	-0.000179
C27	C	0.732278	0.266277	-0.000155
C28	C	0.711660	0.412519	-0.000147
C29	C	1.027332	0.276160	-0.000188
C30	C	1.025626	0.182688	-0.000193
C31	C	1.019503	-0.156935	-0.000189
C32	C	0.924911	-0.138391	-0.000530
C33	C	0.926701	-0.041235	-0.000170
C34	C	1.022540	0.011556	-0.000192
C35	C	1.090575	-0.029433	0.090963
C36	C	1.088219	-0.126807	0.091039
C37	C	1.047512	-0.098312	-0.090506
C38	C	1.047207	-0.001186	-0.091711
C39	C	1.024262	0.106781	-0.000190
C40	C	1.017785	-0.252160	-0.000184
C41	C	1.179046	0.469597	-0.000217
C42	C	1.274995	0.500638	-0.000240
C43	C	1.014712	0.578460	-0.000186
C44	C	1.016417	0.671932	-0.000187
N45	N	1.079472	0.388601	0.248533
N46	N	0.962579	0.466014	-0.248905
C47	C	0.868354	0.528369	0.600388
C48	C	0.892002	0.512722	0.700883
C49	C	1.009533	0.434930	0.700825
C50	C	0.985893	0.450567	0.600328
C51	C	0.915303	0.497288	0.550117
C52	C	1.032842	0.419485	0.550057
C53	C	1.009206	0.435125	0.449569
C54	C	0.938621	0.481846	0.399351
C55	C	0.891667	0.512927	0.449629
C56	C	1.103435	0.372769	0.600270
C57	C	1.150384	0.341688	0.549999
C58	C	1.126744	0.357322	0.449509
C59	C	1.056159	0.404043	0.399291
C60	C	1.173698	0.326241	0.399231
C61	C	1.150062	0.341880	0.298743
C62	C	1.032523	0.419683	0.298803
H63	H	0.367756	0.301276	-0.000221
H64	H	0.834180	0.550965	0.408745
O65	O	1.242202	0.280747	0.447910
C66	C	1.222367	0.197361	0.423383
H67	H	1.171895	0.198593	0.350436
H68	H	1.192646	0.149471	0.479959
C69	C	1.371015	0.167788	0.508303
C70	C	1.309031	0.169303	0.418704
H71	H	1.424473	0.150478	0.505420
H72	H	1.384378	0.223966	0.524830
H73	H	1.346237	0.127880	0.555440
H74	H	1.333805	0.209219	0.371571
H75	H	1.295673	0.113132	0.402168
H76	H	0.871776	-0.158318	-0.065897
H77	H	0.874703	-0.013865	-0.065513
O78	O	0.462625	0.181327	-0.000264
C79	C	0.371174	0.168130	-0.000259
H80	H	0.342909	0.231695	-0.030479
H81	H	0.364049	0.144454	0.076323
C82	C	0.353802	0.021759	-0.025767
C83	C	0.319084	0.099830	-0.062892
H84	H	0.321670	-0.020374	-0.064398
H85	H	0.415415	0.030648	-0.025767
H86	H	0.347862	0.002041	0.038051
H87	H	0.325035	0.119552	-0.126704
H88	H	0.257470	0.090942	-0.062904
O89	O	0.608407	0.151917	-0.000317
C90	C	0.617283	0.127441	-0.083008
H91	H	0.673346	0.173699	-0.110561
H92	H	0.551522	0.130181	-0.140912
C93	C	0.571219	-0.022299	-0.024053
C94	C	0.640083	0.034512	-0.057889
H95	H	0.585279	-0.079623	-0.008561
H96	H	0.565236	-0.005810	0.031656
H97	H	0.516425	-0.020005	-0.072312
H98	H	0.694873	0.032225	-0.009626
H99	H	0.646076	0.018020	-0.113590
H100	H	0.919380	0.494583	0.317527
H101	H	0.853765	0.538038	0.741808
O102	O	0.799783	0.573800	0.551753
C103	C	0.763388	0.597859	0.617668
H104	H	0.815665	0.598533	0.689287
H105	H	0.701702	0.549303	0.628379
C106	C	0.672139	0.687992	0.490494
C107	C	0.736348	0.688827	0.578455
H108	H	0.655455	0.744103	0.466305
H109	H	0.696655	0.671781	0.446085
H110	H	0.620741	0.647524	0.499432
H111	H	0.787748	0.729285	0.569515
H112	H	0.711839	0.705047	0.622863
O113	O	1.218839	0.296175	0.598825
C114	C	1.186224	0.221285	0.656988
H115	H	1.110945	0.203674	0.626733
H116	H	1.199606	0.234251	0.733148
C117	C	1.326671	0.167385	0.695673
C118	C	1.234212	0.145750	0.658508
H119	H	1.356274	0.120792	0.696616
H120	H	1.348646	0.217841	0.656491
H121	H	1.337810	0.178190	0.759137
H122	H	1.223074	0.134956	0.595043
H123	H	1.212237	0.095290	0.697681
H124	H	0.739971	0.483937	-0.000134
H125	H	1.188294	0.316571	0.257813
H126	H	0.902581	-0.179621	0.064487
O127	O	0.786159	0.209424	0.000018
C128	C	0.858340	0.209054	0.082700
H129	H	0.838877	0.232753	0.140486
H130	H	0.919517	0.253716	0.064028
C131	C	0.904744	0.087196	0.049211
C132	C	0.880836	0.116298	0.120187
H133	H	0.918624	0.029981	0.072333
H134	H	0.856116	0.087447	-0.006496
H135	H	0.955722	0.124422	0.033657
H136	H	0.829852	0.079078	0.135731
H137	H	0.929456	0.116038	0.175898
H138	H	0.674297	0.553340	-0.000141
O139	O	0.579402	0.673312	-0.000199
C140	C	0.670866	0.686491	-0.000143
H141	H	0.684945	0.632342	-0.030370
H142	H	0.713929	0.686295	0.076456
C143	C	0.676296	0.840806	-0.025601
C144	C	0.693587	0.774303	-0.062733
H145	H	0.690314	0.894973	-0.064205
H146	H	0.614676	0.831927	-0.025635
H147	H	0.712183	0.840631	0.038231
H148	H	0.657692	0.774471	-0.126559
H149	H	0.755202	0.783183	-0.062712
O150	O	0.433582	0.702729	-0.000156
C151	C	0.365356	0.748152	-0.000201
H152	H	0.311195	0.701224	0.030007
H153	H	0.334631	0.779459	-0.076795
C154	C	0.472019	0.876507	0.025308
C155	C	0.405502	0.818871	0.062417
H156	H	0.496782	0.920133	0.063930
H157	H	0.517984	0.845907	0.025334
H158	H	0.446405	0.902587	-0.038520
H159	H	0.431119	0.792785	0.126239
H160	H	0.359542	0.849469	0.062403
H161	H	1.067010	0.396891	0.741718
H162	H	1.074141	-0.021526	0.158811
O163	O	1.066650	-0.173821	0.172243
C164	C	0.986725	-0.231582	0.147365
H165	H	0.977091	-0.244205	0.071710
H166	H	0.927420	-0.201990	0.150071
C167	C	1.004378	-0.302097	0.311655
C168	C	0.992549	-0.317606	0.218736
H169	H	1.007967	-0.355159	0.355682
H170	H	1.058223	-0.263180	0.328417
H171	H	0.954955	-0.277435	0.313897
H172	H	1.041977	-0.342257	0.216493
H173	H	0.938712	-0.356528	0.201976
H174	H	0.905195	-0.034856	0.065297
O175	O	0.987646	0.031542	-0.172069
C176	C	0.923901	0.065778	-0.145707
H177	H	0.953347	0.082550	-0.070707
H178	H	0.861026	0.015720	-0.146027
C179	C	0.863262	0.127539	-0.309908
C180	C	0.899431	0.148146	-0.217795
H181	H	0.848164	0.178345	-0.354376
H182	H	0.906206	0.104471	-0.327669
H183	H	0.810871	0.085822	-0.310160
H184	H	0.951827	0.189853	-0.217541
H185	H	0.856496	0.171223	-0.200035
H186	H	1.117047	-0.108636	-0.091134
H187	H	0.975036	0.457720	0.257920
O188	O	1.126531	0.357685	0.697884
C189	C	1.216468	0.394641	0.731421
H190	H	1.236614	0.448748	0.673498
H191	H	1.261842	0.342799	0.749229
C192	C	1.201457	0.365499	0.893384
C193	C	1.226199	0.431958	0.822245
H194	H	1.207462	0.388514	0.949411
H195	H	1.140866	0.340597	0.870791
H196	H	1.239273	0.322302	0.908212
H197	H	1.188377	0.475147	0.807409
H198	H	1.286784	0.456868	0.844837
H199	H	0.264675	0.636000	-0.000231
H200	H	1.158577	-0.138447	0.095160
H201	H	0.302064	0.370683	-0.000233
O202	O	1.175586	0.012396	0.095123
C203	C	1.234881	-0.026015	0.177770
H204	H	1.204010	-0.095368	0.201492
H205	H	1.247396	0.012668	0.237865
C206	C	1.362362	0.058639	0.125692
C207	C	1.324450	-0.026545	0.154823
H208	H	1.417614	0.058315	0.111539
H209	H	1.322415	0.084520	0.070012
H210	H	1.372783	0.090865	0.175776
H211	H	1.314019	-0.058766	0.104735
H212	H	1.364398	-0.052431	0.210494
O213	O	0.991175	-0.121356	-0.172842
C214	C	0.925560	-0.190912	-0.150057
H215	H	0.918282	-0.191429	-0.075205
H216	H	0.946761	-0.254525	-0.151883
C217	C	0.844017	-0.179625	-0.315751
C218	C	0.835072	-0.180256	-0.223818
H219	H	0.788200	-0.173055	-0.361252
H220	H	0.888224	-0.132765	-0.331103
H221	H	0.861687	-0.232637	-0.317258
H222	H	0.817413	-0.127240	-0.222309
H223	H	0.790860	-0.227106	-0.208468
H224	H	1.115803	0.036439	-0.097230
