data_functionalizedCrystal
_audit_creation_method	'MofGen! by Chris Wilmer'
_symmetry_space_group_name_H-M	'P1'
_symmetry_Int_Tables_number	1
_symmetry_cell_setting	triclinic
loop_
_symmetry_equiv_pos_as_xyz
  x,y,z
_cell_length_a	14.971486
_cell_length_b	10.654550
_cell_length_c	13.448316
_cell_angle_alpha	89.994587
_cell_angle_beta	89.998199
_cell_angle_gamma	84.049516
loop_
_atom_site_label
_atom_site_type_symbol
_atom_site_fract_x
_atom_site_fract_y
_atom_site_fract_z
O1	O	1.187838	0.163659	-0.082575
O2	O	0.927544	0.183258	-0.082602
O3	O	1.063676	-0.009345	-0.082584
O4	O	1.051707	0.356262	-0.082593
O5	O	1.063659	-0.009357	0.082800
O6	O	0.927527	0.183246	0.082782
O7	O	1.187821	0.163647	0.082809
Cu8	Cu	1.057672	0.173445	0.097896
Cu9	Cu	1.057693	0.173460	-0.097689
O10	O	1.051689	0.356250	0.082791
C11	C	0.894206	0.182375	0.000087
C12	C	0.794895	0.179749	0.000077
C13	C	0.738285	0.292898	0.000075
C14	C	0.644972	0.290422	0.000090
C15	C	0.608271	0.174797	0.000099
C16	C	0.664888	0.061639	0.000104
C17	C	0.758199	0.064116	0.000096
C18	C	0.470397	0.056485	0.000117
C19	C	0.377080	0.054007	0.000123
C20	C	0.357171	0.282791	0.000112
C21	C	0.450482	0.285268	0.000104
C22	C	0.507092	0.172110	0.000106
C23	C	1.062788	-0.056139	0.000107
C24	C	1.060159	-0.195555	0.000103
C25	C	1.140311	-0.275900	0.000114
C26	C	1.137835	-0.406894	0.000107
C27	C	0.975048	-0.377185	0.000081
C28	C	0.977525	-0.246193	0.000082
C29	C	1.234295	-0.293054	0.000133
C30	C	1.231819	-0.424048	0.000126
C31	C	1.221159	0.164530	0.000118
C32	C	1.320470	0.167156	0.000122
C33	C	1.052577	0.403044	0.000098
C34	C	1.055206	0.542460	0.000096
N35	N	1.057664	0.173435	0.235461
N36	N	1.057708	0.173460	-0.235253
C37	C	1.117962	0.088185	0.287509
C38	C	1.117968	0.088184	0.391612
C39	C	1.057679	0.173440	0.443665
C40	C	0.997375	0.258693	0.391610
C41	C	0.997365	0.258687	0.287509
C42	C	0.997400	0.258702	0.608590
C43	C	0.997410	0.258710	0.712698
C44	C	1.118002	0.088199	0.712694
C45	C	1.117993	0.088193	0.608592
C46	C	1.057689	0.173448	0.556544
H47	H	0.804290	-0.028022	0.000096
H48	H	0.912257	-0.180779	0.000059
H49	H	0.516488	-0.035661	0.000121
H50	H	1.267223	-0.466193	0.069341
H51	H	0.634998	-0.032505	0.000125
C52	C	0.931084	0.352484	0.769954
C53	C	0.931094	0.352500	0.884461
C54	C	0.864767	0.446276	0.941715
C55	C	0.798430	0.540037	0.884461
C56	C	0.798418	0.540026	0.769947
C57	C	0.864745	0.446249	0.712694
H58	H	0.980203	0.283089	0.926850
H59	H	0.864776	0.446284	1.026486
H60	H	0.749330	0.609456	0.926843
H61	H	0.749309	0.609436	0.727558
H62	H	0.864736	0.446241	0.627923
C63	C	1.184310	-0.005585	0.551328
C64	C	1.253004	0.043650	0.479743
C65	C	1.319319	-0.050130	0.422478
C66	C	1.316940	-0.193145	0.436798
C67	C	1.248244	-0.242387	0.508386
C68	C	1.181928	-0.148606	0.565652
H69	H	1.254767	0.149525	0.469140
H70	H	1.370173	-0.013677	0.369483
H71	H	1.366031	-0.262566	0.394406
H72	H	1.246480	-0.348261	0.518989
H73	H	1.131074	-0.185059	0.618646
H74	H	0.907770	-0.418431	0.000063
H75	H	0.948282	0.328106	0.433998
H76	H	1.271063	-0.264085	-0.069071
C77	C	1.184283	-0.005599	0.230256
C78	C	1.250605	-0.099377	0.287514
C79	C	1.316925	-0.193168	0.230264
C80	C	1.316923	-0.193181	0.115757
C81	C	1.250598	-0.099400	0.058493
C82	C	1.184278	-0.005609	0.115742
H83	H	1.250609	-0.099370	0.372285
H84	H	1.366023	-0.262590	0.272656
H85	H	1.366017	-0.262610	0.073378
H86	H	1.250594	-0.099407	-0.026278
H87	H	1.135180	0.063814	0.073351
C88	C	0.582697	0.414885	0.000083
C89	C	0.515816	0.444645	0.085968
C90	C	0.453539	0.569111	0.085961
C91	C	0.458143	0.663818	0.000070
C92	C	0.525028	0.634060	-0.085822
C93	C	0.587305	0.509593	-0.085815
H94	H	0.512404	0.374535	0.149555
H95	H	0.404026	0.591139	0.149544
H96	H	0.412042	0.755955	0.000065
H97	H	0.528439	0.704170	-0.149409
H98	H	0.636817	0.487566	-0.149398
H99	H	0.948291	0.328122	0.566216
H100	H	1.167103	0.018781	0.755077
H101	H	1.167067	0.018767	0.433989
H102	H	0.768160	0.387053	0.000067
H103	H	1.264215	-0.257753	0.071546
H104	H	1.260230	-0.469991	-0.071279
H105	H	0.480361	0.379420	0.000087
H106	H	0.311074	0.374929	0.000114
H107	H	0.347201	-0.040145	0.000132
H108	H	0.948264	0.328104	0.245132
