data_functionalizedCrystal
_audit_creation_method	'MofGen! by Chris Wilmer'
_symmetry_space_group_name_H-M	'P1'
_symmetry_Int_Tables_number	1
_symmetry_cell_setting	triclinic
loop_
_symmetry_equiv_pos_as_xyz
  x,y,z
_cell_length_a	16.625548
_cell_length_b	19.121063
_cell_length_c	16.625539
_cell_angle_alpha	92.410374
_cell_angle_beta	89.982945
_cell_angle_gamma	92.470058
loop_
_atom_site_label
_atom_site_type_symbol
_atom_site_fract_x
_atom_site_fract_y
_atom_site_fract_z
Zn1	Zn	1.218929	-0.279606	-0.469578
Zn2	Zn	1.213076	-0.397060	-0.340487
Zn3	Zn	1.084098	-0.279629	-0.334759
Zn4	Zn	1.078299	-0.397023	-0.475275
O5	O	1.148601	-0.338330	-0.405025
O6	O	1.330985	-0.295192	-0.452466
O7	O	1.195945	-0.381507	-0.226896
O8	O	1.106861	-0.181341	-0.347862
O9	O	1.326685	-0.381485	-0.357624
O10	O	1.205920	-0.181324	-0.446913
O11	O	1.101185	-0.295231	-0.222688
O12	O	0.970497	-0.295196	-0.353386
O13	O	1.096976	-0.381423	-0.587350
O14	O	0.966236	-0.381445	-0.456622
O15	O	1.200297	-0.295157	-0.583165
O16	O	1.190321	-0.495340	-0.363148
O17	O	1.091301	-0.495313	-0.462176
C18	C	0.939110	-0.338320	-0.405002
C19	C	0.849489	-0.338332	-0.405012
C20	C	1.139568	-0.520811	-0.413919
C21	C	1.135778	-0.598877	-0.417751
C22	C	0.521313	-0.338337	-0.405046
C23	C	0.612621	-0.338334	-0.405034
C24	C	0.685398	-0.338335	-0.405028
C25	C	0.776712	-0.338331	-0.405017
C26	C	1.185592	-0.635543	-0.368035
C27	C	1.182032	-0.708894	-0.371644
C28	C	1.128653	-0.745578	-0.424965
C29	C	1.078837	-0.708907	-0.474686
C30	C	1.082402	-0.635557	-0.471081
C31	C	1.115313	-0.967048	-0.438432
C32	C	1.111750	-1.040404	-0.442031
C33	C	1.214946	-1.040386	-0.338990
C34	C	1.218503	-0.967035	-0.335386
C35	C	1.168690	-0.930370	-0.385110
C36	C	1.125011	-0.820555	-0.428653
C37	C	1.172336	-0.855394	-0.381425
C38	C	1.358909	-0.338340	-0.405048
C39	C	1.448530	-0.338345	-0.405058
C40	C	1.148642	-0.338283	-0.615331
C41	C	1.148660	-0.338264	-0.704952
C42	C	1.157690	-0.155136	-0.396113
C43	C	1.161564	-0.077070	-0.392316
C44	C	1.148674	-0.338248	-0.777733
C45	C	1.148694	-0.338222	-0.869041
C46	C	1.148715	-0.338197	-0.941816
C47	C	1.148736	-0.338172	-1.033129
C48	C	1.148608	-0.338325	-0.195534
C49	C	1.148756	-0.338147	-0.105904
H50	H	1.222595	-0.738745	-0.331160
H51	H	1.041839	-0.605704	-0.511566
C52	C	1.277219	-0.926690	-0.276726
C53	C	1.244758	-0.876335	-0.210912
C54	C	1.303470	-0.835993	-0.152244
C55	C	1.394643	-0.846006	-0.159390
C56	C	1.427108	-0.896363	-0.225206
C57	C	1.368396	-0.936705	-0.283874
H58	H	1.177263	-0.868921	-0.205619
H59	H	1.279437	-0.798715	-0.103522
H60	H	1.438105	-0.816142	-0.115960
H61	H	1.494603	-0.903777	-0.230499
H62	H	1.392429	-0.973983	-0.332596
H63	H	1.215800	-0.825524	-0.338014
H64	H	1.229055	-0.605680	-0.324612
H65	H	1.074751	-0.937202	-0.478917
C66	C	1.066289	-0.860907	-0.487302
C67	C	1.073299	-0.850764	-0.578472
C68	C	1.014578	-0.891117	-0.637123
C69	C	0.948847	-0.941612	-0.604602
C70	C	0.941835	-0.951757	-0.513427
C71	C	1.000556	-0.911404	-0.454777
H72	H	1.121959	-0.813383	-0.602550
H73	H	1.019769	-0.883607	-0.704617
H74	H	0.905379	-0.971483	-0.648019
H75	H	0.893174	-0.989138	-0.489350
H76	H	0.995364	-0.918914	-0.387283
H77	H	1.035379	-0.738781	-0.518105
C78	C	1.269744	-1.080719	-0.284303
C79	C	1.265831	-1.161401	-0.288265
C80	C	1.320635	-1.201733	-0.233578
C81	C	1.379352	-1.161382	-0.174928
C82	C	1.383267	-1.080695	-0.170964
C83	C	1.328463	-1.040364	-0.225651
H84	H	1.222364	-1.191275	-0.331683
H85	H	1.317737	-1.261462	-0.236513
H86	H	1.419921	-1.191238	-0.134445
H87	H	1.426735	-1.050822	-0.127545
H88	H	1.331362	-0.980634	-0.222715
H89	H	1.068292	-1.070270	-0.485466
