data_functionalizedCrystal
_audit_creation_method	'MofGen! by Chris Wilmer'
_symmetry_space_group_name_H-M	'P1'
_symmetry_Int_Tables_number	1
_symmetry_cell_setting	triclinic
loop_
_symmetry_equiv_pos_as_xyz
  x,y,z
_cell_length_a	12.645323
_cell_length_b	12.645331
_cell_length_c	13.897448
_cell_angle_alpha	89.988054
_cell_angle_beta	89.971832
_cell_angle_gamma	90.026382
loop_
_atom_site_label
_atom_site_type_symbol
_atom_site_fract_x
_atom_site_fract_y
_atom_site_fract_z
Zn1	Zn	-0.599527	-1.620731	-0.384155
Zn2	Zn	-0.099527	-1.120731	0.115845
Zn3	Zn	-0.422257	-1.620613	-0.545470
Zn4	Zn	0.077743	-1.120613	-0.045470
Zn5	Zn	-0.422260	-1.443446	-0.384174
Zn6	Zn	0.077740	-0.943446	0.115826
Zn7	Zn	-0.599461	-1.443428	-0.545394
Zn8	Zn	-0.099461	-0.943428	-0.045394
O9	O	-0.510876	-1.532054	-0.464798
O10	O	-0.010876	-1.032054	0.035202
O11	O	-0.576038	-1.769063	-0.405578
O12	O	-0.076038	-1.269063	0.094422
O13	O	-0.273910	-1.597069	-0.524114
O14	O	0.226090	-1.097069	-0.024114
O15	O	-0.445803	-1.467020	-0.249190
O16	O	0.054197	-0.967020	0.250810
O17	O	-0.445798	-1.768976	-0.524095
O18	O	0.054202	-1.268976	-0.024095
O19	O	-0.576041	-1.597271	-0.249176
O20	O	-0.076041	-1.097271	0.250824
O21	O	-0.273912	-1.466906	-0.405611
O22	O	0.226088	-0.966906	0.094389
O23	O	-0.445739	-1.295096	-0.405537
O24	O	0.054261	-0.795096	0.094463
O25	O	-0.747817	-1.466989	-0.523965
O26	O	-0.247817	-0.966989	-0.023965
O27	O	-0.575928	-1.295083	-0.523984
O28	O	-0.075928	-0.795083	-0.023984
O29	O	-0.747865	-1.597253	-0.405504
O30	O	-0.247865	-1.097253	0.094496
O31	O	-0.445734	-1.597052	-0.680441
O32	O	0.054266	-1.097052	-0.180441
O33	O	-0.575925	-1.466874	-0.680385
O34	O	-0.075925	-0.966874	-0.180385
C35	C	-0.510827	-1.256625	-0.464755
C36	C	-0.010827	-0.756625	0.035245
C37	C	-0.510832	-1.138795	-0.464759
C38	C	-0.010832	-0.638795	0.035241
C39	C	-0.429371	-0.971204	-0.389889
C40	C	0.070629	-0.471204	0.110111
C41	C	-0.429020	-1.093763	-0.390092
C42	C	0.070980	-0.593763	0.109908
C43	C	-0.480308	-1.094274	-0.566368
C44	C	0.019692	-0.594274	-0.066368
C45	C	-0.479744	-0.971676	-0.565950
C46	C	0.020256	-0.471676	-0.065950
C47	C	-0.623107	-0.971645	-0.438959
C48	C	-0.123107	-0.471645	0.061041
C49	C	-0.622491	-1.094251	-0.436698
C50	C	-0.122491	-0.594251	0.063302
C51	C	-0.787381	-1.532132	-0.464724
C52	C	-0.287381	-1.032132	0.035276
C53	C	-0.905211	-1.532166	-0.464692
C54	C	-0.405211	-1.032166	0.035308
C55	C	-1.072745	-1.449964	-0.538865
C56	C	-0.572745	-0.949964	-0.038865
C57	C	-0.950185	-1.450179	-0.539232
C58	C	-0.450185	-0.950179	-0.039232
C59	C	-0.949737	-1.643865	-0.492289
C60	C	-0.449737	-1.143865	0.007711
C61	C	-1.072335	-1.643414	-0.492754
C62	C	-0.572335	-1.143414	0.007246
C63	C	-1.072414	-1.503724	-0.362507
C64	C	-0.572414	-1.003724	0.137493
C65	C	-0.949807	-1.501232	-0.363119
C66	C	-0.449807	-1.001232	0.136881
C67	C	-0.235446	-1.532038	-0.464803
C68	C	0.264554	-1.032038	0.035197
C69	C	-0.117617	-1.532210	-0.464563
C70	C	0.382383	-1.032210	0.035437
C71	C	-0.510845	-1.531977	-0.715413
C72	C	-0.010845	-1.031977	-0.215413
C73	C	-0.510868	-1.532041	-0.822627
C74	C	-0.010868	-1.032041	-0.322627
C75	C	-0.510909	-0.808560	-0.464824
C76	C	-0.010909	-0.308560	0.035176
C77	C	-0.510881	-0.926390	-0.464787
C78	C	-0.010881	-0.426390	0.035213
C79	C	-0.510934	-1.532152	-1.018922
C80	C	-0.010934	-1.032152	-0.518922
C81	C	-0.510900	-1.532087	-0.909689
C82	C	-0.010900	-1.032087	-0.409689
C83	C	-0.510930	-1.532161	-0.213205
C84	C	-0.010930	-1.032161	0.286795
C85	C	-0.510953	-1.532206	-0.105991
C86	C	-0.010953	-1.032206	0.394009
H87	H	-0.650861	-0.940749	-0.366155
H88	H	-0.150861	-0.440749	0.133845
Br89	Br	-0.343002	-0.923925	-0.602456
Br90	Br	0.156998	-0.423925	-0.102456
H91	H	-0.448295	-0.941740	-0.314310
H92	H	0.051705	-0.441740	0.185690
H93	H	-1.101435	-1.563628	-0.307150
H94	H	-0.601435	-1.063628	0.192850
Br95	Br	-0.660871	-1.142777	-0.312080
Br96	Br	-0.160871	-0.642777	0.187920
Br97	Br	-0.576167	-1.142871	-0.661876
Br98	Br	-0.076167	-0.642871	-0.161876
Br99	Br	-1.124193	-1.480926	-0.664165
Br100	Br	-0.624193	-0.980926	-0.164165
Br101	Br	-0.291578	-0.919765	-0.418001
Br102	Br	0.208422	-0.419765	0.081999
Br103	Br	-0.345039	-1.145363	-0.603515
Br104	Br	0.154961	-0.645363	-0.103515
Br105	Br	-0.724333	-0.923348	-0.529882
Br106	Br	-0.224333	-0.423348	-0.029882
H107	H	-1.102021	-1.706772	-0.440986
H108	H	-0.602021	-1.206772	0.059014
H109	H	-0.920867	-1.468983	-0.614890
H110	H	-0.420867	-0.968983	-0.114890
H111	H	-0.345861	-1.123041	-0.407167
H112	H	0.154139	-0.623041	0.092833
H113	H	-0.448153	-1.123864	-0.314744
H114	H	0.051847	-0.623864	0.185256
H115	H	-0.919045	-1.668424	-0.566112
H116	H	-0.419045	-1.168424	-0.066112
H117	H	-1.100943	-1.667560	-0.567359
H118	H	-0.600943	-1.167560	-0.067359
H119	H	-0.536524	-0.942031	-0.623644
H120	H	-0.036524	-0.442031	-0.123644
H121	H	-0.686475	-1.124909	-0.487276
H122	H	-0.186475	-0.624909	0.012724
Br123	Br	-0.900000	-1.312127	-0.510439
Br124	Br	-0.400000	-0.812127	-0.010439
Br125	Br	-0.898800	-1.593793	-0.265968
Br126	Br	-0.398800	-1.093793	0.234032
H127	H	-1.102214	-1.366889	-0.521760
H128	H	-0.602214	-0.866889	-0.021760
Br129	Br	-1.123912	-1.370328	-0.320583
Br130	Br	-0.623912	-0.870328	0.179417
Br131	Br	-0.901197	-1.748746	-0.404944
Br132	Br	-0.401197	-1.248746	0.095056
Br133	Br	-0.901319	-1.364216	-0.328434
Br134	Br	-0.401319	-0.864216	0.171566
