data_functionalizedCrystal
_audit_creation_method	'MofGen! by Chris Wilmer'
_symmetry_space_group_name_H-M	'P1'
_symmetry_Int_Tables_number	1
_symmetry_cell_setting	triclinic
loop_
_symmetry_equiv_pos_as_xyz
  x,y,z
_cell_length_a	8.559649
_cell_length_b	8.597213
_cell_length_c	7.681187
_cell_angle_alpha	91.831772
_cell_angle_beta	94.931885
_cell_angle_gamma	77.624681
loop_
_atom_site_label
_atom_site_type_symbol
_atom_site_fract_x
_atom_site_fract_y
_atom_site_fract_z
O1	O	0.283769	2.002631	0.450254
O2	O	0.295076	1.551267	0.381778
O3	O	0.058065	1.816715	0.422047
O4	O	0.520780	1.737183	0.409985
O5	O	0.028819	1.849402	0.134136
O6	O	0.265830	1.583954	0.093867
O7	O	0.254523	2.035318	0.162343
Zn8	Zn	0.255533	1.814826	0.082393
Zn9	Zn	0.294066	1.771759	0.461729
O10	O	0.491534	1.769870	0.122074
C11	C	0.277610	1.510361	0.229138
C12	C	0.269118	1.339778	0.203259
C13	C	-0.015899	1.839085	0.279009
C14	C	-0.192717	1.857024	0.281740
C15	C	0.565498	1.747500	0.265116
C16	C	0.742317	1.729559	0.262396
C17	C	0.271990	2.076223	0.314987
C18	C	0.280482	2.246805	0.340877
N19	N	0.320352	1.742370	0.720616
N20	N	0.229235	1.844229	-0.176492
H21	H	0.296720	1.297706	0.478490
O22	O	-0.287961	2.003479	0.304032
C23	C	-0.449231	1.989404	0.301835
H24	H	-0.453700	1.862970	0.338094
H25	H	-0.511092	2.016572	0.165447
C26	C	-0.530302	2.263409	0.390160
C27	C	-0.535791	2.108124	0.434708
H28	H	-0.583701	2.336646	0.472115
H29	H	-0.421653	2.272895	0.391634
H30	H	-0.581851	2.286027	0.276501
H31	H	-0.484226	2.085502	0.548355
H32	H	-0.644434	2.098638	0.433256
H33	H	0.413328	1.638425	0.780084
H34	H	0.252898	1.288866	0.065637
O35	O	0.118109	1.968188	0.752750
C36	C	-0.035792	1.956652	0.795853
H37	H	-0.024166	1.882444	0.918503
H38	H	-0.097599	1.897231	0.683102
C39	C	-0.150399	2.215709	0.678925
C40	C	-0.136120	2.124575	0.829574
H41	H	-0.212291	2.319290	0.699718
H42	H	-0.046715	2.223479	0.649879
H43	H	-0.201900	2.166173	0.584981
H44	H	-0.084603	2.174101	0.923509
H45	H	-0.239799	2.116817	0.858637
O46	O	-0.162431	1.583095	0.240263
C47	C	-0.001172	1.597186	0.242368
H48	H	0.014359	1.711246	0.315117
H49	H	0.032646	1.601382	0.102503
C50	C	0.089241	1.312744	0.245980
C51	C	0.108319	1.452828	0.335344
H52	H	0.156783	1.223695	0.303324
H53	H	-0.019402	1.303250	0.244555
H54	H	0.117421	1.316263	0.129431
H55	H	0.080121	1.449316	0.451884
H56	H	0.216961	1.462319	0.336791
