data_functionalizedCrystal
_audit_creation_method	'MofGen! by Chris Wilmer'
_symmetry_space_group_name_H-M	'P1'
_symmetry_Int_Tables_number	1
_symmetry_cell_setting	triclinic
loop_
_symmetry_equiv_pos_as_xyz
  x,y,z
_cell_length_a	13.635800
_cell_length_b	8.579581
_cell_length_c	9.514088
_cell_angle_alpha	75.370639
_cell_angle_beta	118.843545
_cell_angle_gamma	103.748317
loop_
_atom_site_label
_atom_site_type_symbol
_atom_site_fract_x
_atom_site_fract_y
_atom_site_fract_z
V1	V	-2.042463	0.225054	-0.501985
O2	O	-2.103003	-0.007885	-0.491167
O3	O	-1.953261	0.443426	-0.499766
O4	O	-2.060493	0.222877	-0.720364
O5	O	-1.995028	0.214190	-0.269041
V6	V	-2.287228	0.197040	-0.473976
O7	O	-2.166504	0.286505	-0.563426
O8	O	-2.388285	0.135588	-0.412535
O9	O	-2.264827	-0.021332	-0.476195
O10	O	-2.285386	0.429978	-0.484793
O11	O	-2.393361	0.207903	-0.706919
O12	O	-2.157595	0.199216	-0.255596
C13	C	-1.858581	0.496620	-0.492160
C14	C	-1.826573	0.675150	-0.491801
C15	C	-1.995366	0.215287	-0.773553
C16	C	-2.050319	0.214952	-0.952088
V17	V	-1.542463	0.225054	-0.501985
O18	O	-1.603003	-0.007885	-0.491167
O19	O	-1.453261	0.443426	-0.499766
O20	O	-1.560493	0.222877	-0.720364
O21	O	-1.495028	0.214190	-0.269041
V22	V	-1.787228	0.197040	-0.473976
O23	O	-1.666504	0.286505	-0.563426
O24	O	-1.888285	0.135588	-0.412535
O25	O	-1.764827	-0.021332	-0.476195
O26	O	-1.785386	0.429978	-0.484793
O27	O	-1.893361	0.207903	-0.706919
O28	O	-1.657595	0.199216	-0.255596
C29	C	-1.694648	0.925476	-0.483761
C30	C	-1.726629	0.746930	-0.484023
C31	C	-2.191174	-0.074518	-0.483797
C32	C	-2.212803	-0.253047	-0.484166
C33	C	-2.054389	0.206812	-0.202399
C34	C	-1.989058	0.207138	-0.023863
C35	C	-1.358581	0.496620	-0.492160
C36	C	-1.326573	0.675150	-0.491801
C37	C	-1.495366	0.215287	-0.773553
C38	C	-1.550319	0.214952	-0.952088
C39	C	-1.554389	0.206812	-0.202399
C40	C	-1.489058	0.207138	-0.023863
H41	H	-1.665529	0.671790	-0.477559
C42	C	-2.389041	-0.258293	-0.467981
C43	C	-2.494617	-0.281531	-0.602114
C44	C	-2.571777	-0.205878	-0.594148
H45	H	-2.363071	-0.145196	-0.468977
H46	H	-2.395749	-0.304336	-0.370594
H47	H	-2.487907	-0.235481	-0.699476
H48	H	-2.520621	-0.394611	-0.601145
H49	H	-2.578485	-0.251921	-0.496762
H50	H	-2.545797	-0.092785	-0.595141
H51	H	-2.643421	-0.221647	-0.685147
C52	C	-1.676363	0.223289	-1.052022
C53	C	-1.736135	0.089323	-0.993846
C54	C	-1.852245	0.096964	-1.085849
H55	H	-1.697958	0.221846	-1.162754
H56	H	-1.692988	0.320788	-1.043137
H57	H	-1.719519	-0.008151	-1.002746
H58	H	-1.714575	0.090739	-0.883126
H59	H	-1.868870	0.194463	-1.076964
H60	H	-1.873828	0.095525	-1.196576
H61	H	-1.892815	0.006080	-1.046380
C62	C	-1.363084	0.198321	-0.923834
C63	C	-1.338927	0.054464	-0.937148
C64	C	-1.222886	0.046303	-0.845023
H65	H	-1.341529	0.199609	-0.813084
H66	H	-1.322307	0.289078	-0.963087
H67	H	-1.379690	-0.036270	-0.897887
H68	H	-1.360454	0.053144	-1.047876
H69	H	-1.182109	0.137060	-0.884275
H70	H	-1.201342	0.047596	-0.734279
H71	H	-1.206479	-0.051296	-0.854055
H72	H	-2.144816	0.221390	-1.027230
C73	C	-1.907871	0.775487	-0.500143
C74	C	-1.856966	0.849944	-0.361543
C75	C	-1.931816	0.942401	-0.369178
H76	H	-1.974884	0.706689	-0.504980
H77	H	-1.926148	0.856524	-0.594499
H78	H	-1.838705	0.768918	-0.267212
H79	H	-1.789960	0.918769	-0.356678
H80	H	-1.950092	1.023437	-0.463534
H81	H	-1.998825	0.873591	-0.374019
H82	H	-1.897284	0.992942	-0.275148
H83	H	-1.894566	0.200719	-0.948732
H84	H	-2.150145	-0.314805	-0.490861
