data_functionalizedCrystal
_audit_creation_method	'MofGen! by Chris Wilmer'
_symmetry_space_group_name_H-M	'P1'
_symmetry_Int_Tables_number	1
_symmetry_cell_setting	triclinic
loop_
_symmetry_equiv_pos_as_xyz
  x,y,z
_cell_length_a	29.839134
_cell_length_b	29.839134
_cell_length_c	29.839126
_cell_angle_alpha	90.031345
_cell_angle_beta	89.989304
_cell_angle_gamma	89.998637
loop_
_atom_site_label
_atom_site_type_symbol
_atom_site_fract_x
_atom_site_fract_y
_atom_site_fract_z
Zn1	Zn	-0.178943	-0.686864	-0.254188
Zn2	Zn	0.154390	-0.353531	0.079146
Zn3	Zn	0.487723	-0.020198	0.412479
Zn4	Zn	-0.254064	-0.686833	-0.179075
Zn5	Zn	0.079269	-0.353499	0.154258
Zn6	Zn	0.412603	-0.020166	0.487591
Zn7	Zn	-0.178943	-0.611737	-0.179055
Zn8	Zn	0.154391	-0.278404	0.154278
Zn9	Zn	0.487724	0.054930	0.487612
Zn10	Zn	-0.254041	-0.611741	-0.254161
Zn11	Zn	0.079292	-0.278408	0.079172
Zn12	Zn	0.412626	0.054926	0.412505
O13	O	-0.216498	-0.649294	-0.216620
O14	O	0.116836	-0.315960	0.116714
O15	O	0.450169	0.017373	0.450047
O16	O	-0.188918	-0.749727	-0.244243
O17	O	0.144415	-0.416394	0.089090
O18	O	0.477748	-0.083060	0.422423
O19	O	-0.244108	-0.676856	-0.116205
O20	O	0.089225	-0.343523	0.217128
O21	O	0.422559	-0.010190	0.550461
O22	O	-0.116076	-0.621714	-0.189024
O23	O	0.217258	-0.288381	0.144309
O24	O	0.550591	0.044953	0.477643
O25	O	-0.244109	-0.749704	-0.189058
O26	O	0.089224	-0.416371	0.144275
O27	O	0.422558	-0.083037	0.477608
O28	O	-0.116076	-0.676910	-0.244224
O29	O	0.217257	-0.343576	0.089110
O30	O	0.550590	-0.010243	0.422443
O31	O	-0.188917	-0.621684	-0.116190
O32	O	0.144417	-0.288350	0.217143
O33	O	0.477750	0.044983	0.550476
O34	O	-0.188895	-0.548870	-0.188998
O35	O	0.144439	-0.215537	0.144335
O36	O	0.477772	0.117796	0.477668
O37	O	-0.244070	-0.621721	-0.317032
O38	O	0.089263	-0.288388	0.016301
O39	O	0.422597	0.044945	0.349635
O40	O	-0.244069	-0.548873	-0.244179
O41	O	0.089264	-0.215540	0.089154
O42	O	0.422598	0.117793	0.422488
O43	O	-0.188896	-0.676914	-0.317051
O44	O	0.144437	-0.343581	0.016282
O45	O	0.477771	-0.010247	0.349615
O46	O	-0.316928	-0.676860	-0.189033
O47	O	0.016405	-0.343527	0.144300
O48	O	0.349739	-0.010194	0.477634
O49	O	-0.316911	-0.621691	-0.244199
O50	O	0.016422	-0.288357	0.089135
O51	O	0.349756	0.044976	0.422468
C52	C	-0.216480	-0.532571	-0.216584
C53	C	0.116854	-0.199238	0.116749
C54	C	0.450187	0.134095	0.450083
C55	C	-0.216483	-0.482637	-0.216579
C56	C	0.116851	-0.149303	0.116754
C57	C	0.450184	0.184030	0.450087
C58	C	-0.245274	-0.173004	-0.245303
C59	C	0.088060	0.160329	0.088031
C60	C	0.421393	0.493662	0.421364
C61	C	-0.245288	0.014669	-0.245317
C62	C	0.088046	0.348002	0.088016
C63	C	0.421379	0.681335	0.421349
O64	O	-0.269744	0.038924	-0.269727
O65	O	0.063590	0.372257	0.063606
O66	O	0.396923	0.705591	0.396940
N67	N	-0.216520	0.038148	-0.216633
N68	N	0.116813	0.371482	0.116700
N69	N	0.450147	0.704815	0.450034
C70	C	-0.187745	0.014707	-0.187945
C71	C	0.145589	0.348040	0.145388
C72	C	0.478922	0.681374	0.478721
O73	O	-0.163273	0.038984	-0.163551
O74	O	0.170061	0.372317	0.169782
O75	O	0.503394	0.705651	0.503115
C76	C	-0.187728	-0.172965	-0.187934
C77	C	0.145605	0.160368	0.145400
C78	C	0.478938	0.493701	0.478733
C79	C	-0.216501	-0.196443	-0.216616
C80	C	0.116832	0.136891	0.116717
C81	C	0.450165	0.470224	0.450050
C82	C	-0.274044	-0.196482	-0.273984
C83	C	0.059290	0.136852	0.059350
C84	C	0.392623	0.470185	0.392683
C85	C	-0.274042	-0.243397	-0.273978
C86	C	0.059292	0.089936	0.059355
C87	C	0.392625	0.423269	0.392689
C88	C	-0.245269	-0.266835	-0.245292
C89	C	0.088064	0.066498	0.088042
C90	C	0.421397	0.399831	0.421375
C91	C	-0.216499	-0.243358	-0.216611
C92	C	0.116834	0.089975	0.116723
C93	C	0.450168	0.423309	0.450056
C94	C	-0.158951	-0.196406	-0.159249
C95	C	0.174382	0.136928	0.174085
C96	C	0.507716	0.470261	0.507418
C97	C	-0.158949	-0.243327	-0.159249
C98	C	0.174385	0.090006	0.174084
C99	C	0.507718	0.423340	0.507418
C100	C	-0.187722	-0.266804	-0.187932
C101	C	0.145612	0.066529	0.145402
C102	C	0.478945	0.399863	0.478735
C103	C	-0.187725	-0.313712	-0.187919
C104	C	0.145609	0.019622	0.145415
C105	C	0.478942	0.352955	0.478748
N106	N	-0.216492	-0.337191	-0.216603
N107	N	0.116841	-0.003858	0.116730
N108	N	0.450174	0.329475	0.450064
C109	C	-0.245265	-0.313753	-0.245289
C110	C	0.088069	0.019580	0.088044
C111	C	0.421402	0.352913	0.421377
C112	C	-0.187756	0.113238	-0.187953
C113	C	0.145578	0.446571	0.145380
C114	C	0.478911	0.779904	0.478714
C115	C	-0.187760	0.160155	-0.187955
C116	C	0.145573	0.493489	0.145378
C117	C	0.478906	0.826822	0.478711
C118	C	-0.245303	0.160114	-0.245328
C119	C	0.088030	0.493447	0.088006
C120	C	0.421364	0.826780	0.421339
C121	C	-0.245300	0.113195	-0.245323
C122	C	0.088033	0.446528	0.088010
C123	C	0.421366	0.779862	0.421344
C124	C	-0.216523	0.089758	-0.216637
C125	C	0.116810	0.423091	0.116696
C126	C	0.450143	0.756424	0.450030
C127	C	-0.245258	-0.412279	-0.245275
C128	C	0.088075	-0.078946	0.088058
C129	C	0.421408	0.254388	0.421392
C130	C	-0.245255	-0.459199	-0.245266
C131	C	0.088078	-0.125865	0.088068
C132	C	0.421412	0.207468	0.421401
C133	C	-0.187711	-0.459153	-0.187895
C134	C	0.145623	-0.125820	0.145438
C135	C	0.478956	0.207514	0.478772
C136	C	-0.187716	-0.412237	-0.187903
C137	C	0.145618	-0.078904	0.145431
C138	C	0.478951	0.254429	0.478764
C139	C	-0.216491	-0.388802	-0.216596
C140	C	0.116842	-0.055468	0.116737
C141	C	0.450176	0.277865	0.450070
O142	O	-0.163278	-0.337996	-0.163525
O143	O	0.170055	-0.004663	0.169808
O144	O	0.503389	0.328671	0.503141
O145	O	-0.269726	-0.338038	-0.269687
O146	O	0.063607	-0.004705	0.063647
O147	O	0.396941	0.328628	0.396980
C148	C	-0.245276	-0.126089	-0.245308
C149	C	0.088058	0.207244	0.088025
C150	C	0.421391	0.540578	0.421358
C151	C	-0.216506	-0.102612	-0.216628
C152	C	0.116828	0.230722	0.116706
C153	C	0.450161	0.564055	0.450039
C154	C	-0.187733	-0.126050	-0.187941
C155	C	0.145600	0.207284	0.145392
C156	C	0.478933	0.540617	0.478725
C157	C	-0.216510	-0.055694	-0.216630
C158	C	0.116823	0.277640	0.116703
C159	C	0.450157	0.610973	0.450037
C160	C	-0.245282	-0.032256	-0.245316
C161	C	0.088051	0.301078	0.088017
C162	C	0.421384	0.634411	0.421350
C163	C	-0.274050	-0.055735	-0.274000
C164	C	0.059283	0.277598	0.059333
C165	C	0.392617	0.610931	0.392666
C166	C	-0.274048	-0.102651	-0.273995
C167	C	0.059285	0.230682	0.059339
C168	C	0.392619	0.564016	0.392672
C169	C	-0.158965	-0.102570	-0.159257
C170	C	0.174368	0.230763	0.174076
C171	C	0.507701	0.564097	0.507409
C172	C	-0.158970	-0.055655	-0.159265
C173	C	0.174363	0.277679	0.174069
C174	C	0.507696	0.611012	0.507402
C175	C	-0.187743	-0.032216	-0.187951
C176	C	0.145591	0.301117	0.145382
C177	C	0.478924	0.634450	0.478715
C178	C	-0.333220	-0.649285	-0.216625
C179	C	0.000113	-0.315951	0.116708
C180	C	0.333446	0.017382	0.450042
C181	C	-0.383155	-0.649322	-0.216642
C182	C	-0.049821	-0.315989	0.116691
C183	C	0.283512	0.017345	0.450025
C184	C	-0.099319	-0.649315	-0.216624
C185	C	0.234014	-0.315982	0.116709
C186	C	0.567347	0.017352	0.450042
C187	C	-0.049385	-0.649324	-0.216626
C188	C	0.283948	-0.315991	0.116707
C189	C	0.617282	0.017343	0.450040
C190	C	0.260262	-0.620576	-0.187897
C191	C	0.593595	-0.287243	0.145436
C192	C	0.926928	0.046091	0.478769
C193	C	0.447935	-0.620579	-0.187902
C194	C	0.781268	-0.287245	0.145432
C195	C	1.114602	0.046088	0.478765
O196	O	0.472202	-0.596126	-0.163475
O197	O	0.805536	-0.262793	0.169858
O198	O	1.138869	0.070540	0.503192
N199	N	0.471400	-0.649317	-0.216640
N200	N	0.804734	-0.315984	0.116693
N201	N	1.138067	0.017349	0.450026
C202	C	0.447944	-0.678055	-0.245382
C203	C	0.781278	-0.344722	0.087951
C204	C	1.114611	-0.011389	0.421284
O205	O	0.472209	-0.702496	-0.269830
O206	O	0.805543	-0.369163	0.063504
O207	O	1.138876	-0.035830	0.396837
C208	C	0.260272	-0.678050	-0.245380
C209	C	0.593605	-0.344717	0.087953
C210	C	0.926939	-0.011384	0.421287
C211	C	0.236809	-0.649313	-0.216636
C212	C	0.570143	-0.315979	0.116697
C213	C	0.903476	0.017354	0.450031
C214	C	0.236799	-0.591841	-0.159156
C215	C	0.570132	-0.258507	0.174177
C216	C	0.903465	0.074826	0.507510
C217	C	0.189883	-0.591842	-0.159154
C218	C	0.523217	-0.258509	0.174180
C219	C	0.856550	0.074825	0.507513
C220	C	0.166431	-0.620579	-0.187892
C221	C	0.499764	-0.287245	0.145441
C222	C	0.833098	0.046088	0.478774
C223	C	0.189894	-0.649314	-0.216634
C224	C	0.523227	-0.315981	0.116700
C225	C	0.856560	0.017353	0.450033
C226	C	0.236817	-0.706786	-0.274124
C227	C	0.570151	-0.373452	0.059210
C228	C	0.903484	-0.040119	0.392543
C229	C	0.189896	-0.706781	-0.274121
C230	C	0.523230	-0.373448	0.059212
C231	C	0.856563	-0.040114	0.392545
C232	C	0.166433	-0.678044	-0.245377
C233	C	0.499767	-0.344710	0.087956
C234	C	0.833100	-0.011377	0.421289
C235	C	0.119526	-0.678052	-0.245370
C236	C	0.452859	-0.344719	0.087964
C237	C	0.786192	-0.011386	0.421297
N238	N	0.096061	-0.649314	-0.216631
N239	N	0.429394	-0.315980	0.116702
N240	N	0.762727	0.017353	0.450036
C241	C	0.119513	-0.620577	-0.187892
C242	C	0.452846	-0.287243	0.145441
C243	C	0.786180	0.046090	0.478774
C244	C	0.546475	-0.678057	-0.245381
C245	C	0.879808	-0.344723	0.087953
C246	C	1.213142	-0.011390	0.421286
C247	C	0.593393	-0.678059	-0.245381
C248	C	0.926726	-0.344725	0.087953
C249	C	1.260060	-0.011392	0.421286
C250	C	0.593380	-0.620581	-0.187901
C251	C	0.926713	-0.287248	0.145433
C252	C	1.260047	0.046085	0.478766
C253	C	0.546461	-0.620582	-0.187899
C254	C	0.879795	-0.287249	0.145435
C255	C	1.213128	0.046085	0.478768
C256	C	0.523010	-0.649318	-0.216642
C257	C	0.856343	-0.315985	0.116691
C258	C	1.189676	0.017349	0.450025
C259	C	0.020987	-0.620582	-0.187889
C260	C	0.354320	-0.287249	0.145444
C261	C	0.687654	0.046085	0.478778
C262	C	-0.025932	-0.620587	-0.187888
C263	C	0.307401	-0.287254	0.145446
C264	C	0.640734	0.046079	0.478779
C265	C	-0.025916	-0.678063	-0.245369
C266	C	0.307418	-0.344730	0.087964
C267	C	0.640751	-0.011396	0.421297
C268	C	0.021000	-0.678060	-0.245369
C269	C	0.354333	-0.344726	0.087964
C270	C	0.687667	-0.011393	0.421298
C271	C	0.044450	-0.649315	-0.216627
C272	C	0.377783	-0.315982	0.116706
C273	C	0.711117	0.017351	0.450039
O274	O	0.095229	-0.702488	-0.269787
O275	O	0.428563	-0.369155	0.063546
O276	O	0.761896	-0.035821	0.396879
O277	O	0.095240	-0.596133	-0.163456
O278	O	0.428573	-0.262799	0.169878
O279	O	0.761907	0.070534	0.503211
C280	C	0.307177	-0.620575	-0.187900
C281	C	0.640511	-0.287241	0.145433
C282	C	0.973844	0.046092	0.478767
C283	C	0.330640	-0.649310	-0.216641
C284	C	0.663974	-0.315977	0.116692
C285	C	0.997307	0.017357	0.450026
C286	C	0.307188	-0.678047	-0.245380
C287	C	0.640521	-0.344714	0.087954
C288	C	0.973854	-0.011380	0.421287
C289	C	0.377558	-0.649312	-0.216641
C290	C	0.710891	-0.315979	0.116692
C291	C	1.044225	0.017355	0.450026
C292	C	0.401011	-0.620575	-0.187902
C293	C	0.734344	-0.287242	0.145431
C294	C	1.067677	0.046091	0.478764
C295	C	0.377545	-0.591837	-0.159164
C296	C	0.710879	-0.258503	0.174170
C297	C	1.044212	0.074830	0.507503
C298	C	0.330630	-0.591838	-0.159161
C299	C	0.663963	-0.258505	0.174172
C300	C	0.997296	0.074829	0.507505
C301	C	0.330653	-0.706786	-0.274118
C302	C	0.663986	-0.373452	0.059215
C303	C	0.997320	-0.040119	0.392548
C304	C	0.377569	-0.706782	-0.274118
C305	C	0.710902	-0.373449	0.059215
C306	C	1.044235	-0.040116	0.392548
C307	C	0.401021	-0.678045	-0.245380
C308	C	0.734354	-0.344712	0.087954
C309	C	1.067688	-0.011379	0.421287
C310	C	-0.216480	-0.649322	-0.333798
C311	C	0.116853	-0.315988	-0.000465
C312	C	0.450186	0.017345	0.332869
C313	C	-0.216473	-0.649333	-0.383733
C314	C	0.116860	-0.316000	-0.050399
C315	C	0.450194	0.017333	0.282934
C316	C	-0.216518	0.233528	-0.216649
C317	C	0.116815	0.566861	0.116685
C318	C	0.450148	0.900195	0.450018
C319	C	-0.216533	0.183593	-0.216642
C320	C	0.116801	0.516927	0.116692
C321	C	0.450134	0.850260	0.450025
C322	C	-0.187690	-0.620614	-0.693371
C323	C	0.145643	-0.287281	-0.360038
C324	C	0.478977	0.046053	-0.026705
C325	C	-0.187659	-0.620627	-0.881044
C326	C	0.145674	-0.287293	-0.547711
C327	C	0.479008	0.046040	-0.214378
O328	O	-0.163231	-0.596186	-0.905305
O329	O	0.170102	-0.262853	-0.571972
O330	O	0.503435	0.070481	-0.238638
N331	N	-0.216389	-0.649355	-0.904518
N332	N	0.116944	-0.316021	-0.571185
N333	N	0.450278	0.017312	-0.237851
C334	C	-0.245131	-0.678079	-0.881070
C335	C	0.088203	-0.344746	-0.547737
C336	C	0.421536	-0.011413	-0.214404
O337	O	-0.269570	-0.702511	-0.905342
O338	O	0.063763	-0.369178	-0.572009
O339	O	0.397097	-0.035845	-0.238676
C340	C	-0.245164	-0.678064	-0.693398
C341	C	0.088169	-0.344731	-0.360065
C342	C	0.421503	-0.011397	-0.026731
C343	C	-0.216429	-0.649337	-0.669927
C344	C	0.116905	-0.316004	-0.336594
C345	C	0.450238	0.017329	-0.003260
C346	C	-0.158958	-0.591889	-0.669900
C347	C	0.174376	-0.258556	-0.336567
C348	C	0.507709	0.074777	-0.003233
C349	C	-0.158964	-0.591888	-0.622985
C350	C	0.174369	-0.258555	-0.289651
C351	C	0.507703	0.074778	0.043682
C352	C	-0.187703	-0.620612	-0.599540
C353	C	0.145630	-0.287278	-0.266207
C354	C	0.478964	0.046055	0.067126
C355	C	-0.216435	-0.649336	-0.623011
C356	C	0.116898	-0.316003	-0.289678
C357	C	0.450231	0.017330	0.043655
C358	C	-0.273908	-0.706786	-0.669951
C359	C	0.059426	-0.373453	-0.336618
C360	C	0.392759	-0.040120	-0.003285
C361	C	-0.273914	-0.706779	-0.623030
C362	C	0.059419	-0.373446	-0.289697
C363	C	0.392752	-0.040112	0.043637
C364	C	-0.245179	-0.678052	-0.599559
C365	C	0.088154	-0.344719	-0.266226
C366	C	0.421488	-0.011386	0.067108
C367	C	-0.245180	-0.678059	-0.552652
C368	C	0.088153	-0.344725	-0.219318
C369	C	0.421486	-0.011392	0.114015
N370	N	-0.216450	-0.649331	-0.529178
N371	N	0.116883	-0.315997	-0.195845
N372	N	0.450216	0.017336	0.137489
C373	C	-0.187712	-0.620607	-0.552622
C374	C	0.145622	-0.287274	-0.219289
C375	C	0.478955	0.046059	0.114044
C376	C	-0.245111	-0.678086	-0.979601
C377	C	0.088223	-0.344753	-0.646268
C378	C	0.421556	-0.011419	-0.312934
C379	C	-0.245102	-0.678091	-1.026519
C380	C	0.088231	-0.344757	-0.693185
C381	C	0.421565	-0.011424	-0.359852
C382	C	-0.187631	-0.620637	-1.026490
C383	C	0.145703	-0.287304	-0.693156
C384	C	0.479036	0.046030	-0.359823
C385	C	-0.187637	-0.620635	-0.979571
C386	C	0.145696	-0.287302	-0.646238
C387	C	0.479029	0.046031	-0.312904
C388	C	-0.216381	-0.649358	-0.956127
C389	C	0.116953	-0.316025	-0.622794
C390	C	0.450286	0.017309	-0.289461
C391	C	-0.187727	-0.620607	-0.454097
C392	C	0.145606	-0.287274	-0.120763
C393	C	0.478940	0.046059	0.212570
C394	C	-0.187734	-0.620610	-0.407177
C395	C	0.145599	-0.287277	-0.073844
C396	C	0.478932	0.046057	0.259490
C397	C	-0.245207	-0.678061	-0.407210
C398	C	0.088126	-0.344728	-0.073877
C399	C	0.421459	-0.011395	0.259457
C400	C	-0.245198	-0.678061	-0.454126
C401	C	0.088135	-0.344727	-0.120792
C402	C	0.421469	-0.011394	0.212541
C403	C	-0.216456	-0.649330	-0.477568
C404	C	0.116877	-0.315997	-0.144234
C405	C	0.450210	0.017337	0.189099
O406	O	-0.269599	-0.702483	-0.528362
O407	O	0.063735	-0.369150	-0.195029
O408	O	0.397068	-0.035816	0.138305
O409	O	-0.163283	-0.596172	-0.528342
O410	O	0.170050	-0.262839	-0.195009
O411	O	0.503383	0.070495	0.138324
C412	C	-0.187684	-0.620615	-0.740287
C413	C	0.145650	-0.287282	-0.406953
C414	C	0.478983	0.046052	-0.073620
C415	C	-0.216416	-0.649340	-0.763758
C416	C	0.116917	-0.316006	-0.430424
C417	C	0.450251	0.017327	-0.097091
C418	C	-0.245155	-0.678063	-0.740313
C419	C	0.088179	-0.344730	-0.406980
C420	C	0.421512	-0.011397	-0.073647
C421	C	-0.216407	-0.649344	-0.810676
C422	C	0.116926	-0.316011	-0.477342
C423	C	0.450259	0.017322	-0.144009
C424	C	-0.187669	-0.620621	-0.834120
C425	C	0.145665	-0.287287	-0.500787
C426	C	0.478998	0.046046	-0.167453
C427	C	-0.158939	-0.591893	-0.810646
C428	C	0.174395	-0.258559	-0.477313
C429	C	0.507728	0.074774	-0.143980
C430	C	-0.158945	-0.591892	-0.763731
C431	C	0.174388	-0.258558	-0.430398
C432	C	0.507722	0.074775	-0.097064
C433	C	-0.273885	-0.706791	-0.763787
C434	C	0.059449	-0.373458	-0.430454
C435	C	0.392782	-0.040125	-0.097120
C436	C	-0.273876	-0.706790	-0.810703
C437	C	0.059458	-0.373457	-0.477369
C438	C	0.392791	-0.040124	-0.144036
C439	C	-0.245137	-0.678067	-0.834147
C440	C	0.088196	-0.344734	-0.500814
C441	C	0.421530	-0.011400	-0.167480
C442	C	-0.216482	-0.649292	-0.099897
C443	C	0.116851	-0.315959	0.233436
C444	C	0.450184	0.017375	0.566769
C445	C	-0.216363	-0.649367	-0.049963
C446	C	0.116970	-0.316034	0.283370
C447	C	0.450303	0.017300	0.616704
H448	H	-0.297478	-0.121762	-0.297351
H449	H	0.035856	0.211571	0.035982
H450	H	0.369189	0.544905	0.369315
O451	O	-0.301849	-0.734632	-0.740998
O452	O	0.031484	-0.401299	-0.407664
O453	O	0.364817	-0.067966	-0.074331
C454	C	-0.330863	-0.709056	-0.713834
C455	C	0.002470	-0.375723	-0.380501
C456	C	0.335804	-0.042390	-0.047167
H457	H	-0.333632	-0.673671	-0.727949
H458	H	-0.000299	-0.340338	-0.394616
H459	H	0.333034	-0.007005	-0.061282
H460	H	-0.365438	-0.725302	-0.713314
H461	H	-0.032104	-0.391969	-0.379981
H462	H	0.301229	-0.058635	-0.046648
H463	H	-0.316981	-0.707515	-0.678274
H464	H	0.016352	-0.374182	-0.344941
H465	H	0.349686	-0.040848	-0.011607
H466	H	0.040104	-0.701465	-0.268770
H467	H	0.373437	-0.368131	0.064563
H468	H	0.706770	-0.034798	0.397896
O469	O	-0.131008	-0.564043	-0.600167
O470	O	0.202326	-0.230710	-0.266834
O471	O	0.535659	0.102624	0.066500
C472	C	-0.102003	-0.589616	-0.573030
C473	C	0.231330	-0.256283	-0.239697
C474	C	0.564664	0.077051	0.093637
H475	H	-0.099227	-0.625002	-0.587181
H476	H	0.234106	-0.291669	-0.253848
H477	H	0.567439	0.041665	0.079486
H478	H	-0.067429	-0.573369	-0.572495
H479	H	0.265904	-0.240036	-0.239161
H480	H	0.599238	0.093298	0.094172
H481	H	-0.115897	-0.591155	-0.537471
H482	H	0.217436	-0.257822	-0.204138
H483	H	0.550769	0.075512	0.129195
H484	H	0.255914	-0.730186	-0.297530
H485	H	0.589248	-0.396853	0.035804
H486	H	0.922581	-0.063519	0.369137
O487	O	-0.302019	-0.173669	-0.301788
O488	O	0.031315	0.159664	0.031545
O489	O	0.364648	0.492998	0.364878
C490	C	-0.331012	-0.146527	-0.276166
C491	C	0.002321	0.186806	0.057167
C492	C	0.335655	0.520139	0.390500
H493	H	-0.315118	-0.139470	-0.242148
H494	H	0.018215	0.193864	0.091185
H495	H	0.351548	0.527197	0.424518
H496	H	-0.337070	-0.113549	-0.294461
H497	H	-0.003736	0.219784	0.038872
H498	H	0.329597	0.553117	0.372206
H499	H	-0.364292	-0.164614	-0.271171
H500	H	-0.030959	0.168719	0.062162
H501	H	0.302375	0.502052	0.395496
H502	H	-0.268729	0.094083	-0.268680
H503	H	0.064604	0.427416	0.064654
H504	H	0.397937	0.760750	0.397987
O505	O	-0.159701	-0.481874	-0.160050
O506	O	0.173632	-0.148541	0.173283
O507	O	0.506966	0.184792	0.506616
C508	C	-0.114939	-0.470425	-0.169949
C509	C	0.218394	-0.137092	0.163384
C510	C	0.551728	0.196242	0.496718
H511	H	-0.114032	-0.436370	-0.187222
H512	H	0.219301	-0.103037	0.146111
H513	H	0.552634	0.230297	0.479445
H514	H	-0.094748	-0.468801	-0.137559
H515	H	0.238585	-0.135468	0.195775
H516	H	0.571919	0.197866	0.529108
H517	H	-0.099840	-0.496845	-0.193069
H518	H	0.233493	-0.163512	0.140264
H519	H	0.566826	0.169821	0.473598
O520	O	0.259596	-0.563876	-0.131300
O521	O	0.592929	-0.230543	0.202033
O522	O	0.926263	0.102790	0.535366
C523	C	0.286750	-0.534869	-0.156860
C524	C	0.620084	-0.201535	0.176474
C525	C	0.953417	0.131798	0.509807
H526	H	0.272625	-0.532100	-0.192244
H527	H	0.605958	-0.198766	0.141089
H528	H	0.939291	0.134567	0.474422
H529	H	0.287272	-0.500293	-0.140597
H530	H	0.620606	-0.166960	0.192736
H531	H	0.953939	0.166374	0.526070
H532	H	0.322311	-0.548756	-0.158406
H533	H	0.655644	-0.215423	0.174928
H534	H	0.988977	0.117911	0.508261
O535	O	-0.273209	0.182955	-0.273182
O536	O	0.060124	0.516289	0.060151
O537	O	0.393458	0.849622	0.393485
C538	C	-0.267047	0.229399	-0.267022
C539	C	0.066286	0.562733	0.066312
C540	C	0.399620	0.896066	0.399645
H541	H	-0.232358	0.235813	-0.252358
H542	H	0.100975	0.569146	0.080976
H543	H	0.434308	0.902479	0.414309
H544	H	-0.270135	0.247213	-0.300668
H545	H	0.063198	0.580547	0.032665
H546	H	0.396532	0.913880	0.365999
H547	H	-0.293664	0.242728	-0.243059
H548	H	0.039669	0.576061	0.090274
H549	H	0.373002	0.909395	0.423607
H550	H	0.170784	-0.568440	-0.135749
H551	H	0.504117	-0.235107	0.197585
H552	H	0.837451	0.098227	0.530918
O553	O	-0.273252	-0.482024	-0.273067
O554	O	0.060081	-0.148691	0.060267
O555	O	0.393414	0.184642	0.393600
C556	C	-0.302226	-0.509156	-0.247444
C557	C	0.031107	-0.175823	0.085890
C558	C	0.364441	0.157510	0.419223
H559	H	-0.304954	-0.494996	-0.212057
H560	H	0.028380	-0.161663	0.121276
H561	H	0.361713	0.171671	0.454609
H562	H	-0.336821	-0.509698	-0.263639
H563	H	-0.003488	-0.176365	0.069694
H564	H	0.329845	0.156968	0.403027
H565	H	-0.288333	-0.544714	-0.245916
H566	H	0.045001	-0.211380	0.087418
H567	H	0.378334	0.121953	0.420751
O568	O	-0.130982	-0.266024	-0.131338
O569	O	0.202351	0.067310	0.201996
O570	O	0.535685	0.400643	0.535329
C571	C	-0.105583	-0.235237	-0.106033
C572	C	0.227750	0.098096	0.227301
C573	C	0.561084	0.431430	0.560634
H574	H	-0.123984	-0.201792	-0.104455
H575	H	0.209349	0.131541	0.228878
H576	H	0.542682	0.464875	0.562212
H577	H	-0.100741	-0.248767	-0.070641
H578	H	0.232592	0.084567	0.262692
H579	H	0.565926	0.417900	0.596025
H580	H	-0.071486	-0.230258	-0.122539
H581	H	0.261847	0.103076	0.210795
H582	H	0.595180	0.436409	0.544128
O583	O	-0.131005	-0.032797	-0.131457
O584	O	0.202328	0.300536	0.201876
O585	O	0.535662	0.633869	0.535209
C586	C	-0.102017	-0.005679	-0.157079
C587	C	0.231316	0.327654	0.176255
C588	C	0.564650	0.660988	0.509588
H589	H	-0.117905	0.001326	-0.191103
H590	H	0.215429	0.334659	0.142231
H591	H	0.548762	0.667993	0.475564
H592	H	-0.095979	0.027326	-0.138791
H593	H	0.237354	0.360660	0.194542
H594	H	0.570687	0.693993	0.527876
H595	H	-0.068728	-0.023759	-0.162060
H596	H	0.264606	0.309574	0.171273
H597	H	0.597939	0.642907	0.504607
H598	H	-0.164335	0.179267	-0.164594
H599	H	0.168998	0.512600	0.168739
H600	H	0.502332	0.845933	0.502072
H601	H	-0.135555	-0.568497	-0.688983
H602	H	0.197778	-0.235164	-0.355650
H603	H	0.531112	0.098170	-0.022317
O604	O	-0.159713	-0.592685	-0.956842
O605	O	0.173620	-0.259352	-0.623509
O606	O	0.506953	0.073982	-0.290176
C607	C	-0.134339	-0.567345	-0.987602
C608	C	0.198994	-0.234012	-0.654268
C609	C	0.532327	0.099322	-0.320935
H610	H	-0.152735	-0.565794	-1.021045
H611	H	0.180598	-0.232461	-0.687712
H612	H	0.513931	0.100872	-0.354379
H613	H	-0.129544	-0.531947	-0.974034
H614	H	0.203789	-0.198613	-0.640701
H615	H	0.537122	0.134720	-0.307368
H616	H	-0.100221	-0.583803	-0.992598
H617	H	0.233113	-0.250470	-0.659265
H618	H	0.566446	0.082864	-0.325932
O619	O	0.400311	-0.563967	-0.131184
O620	O	0.733644	-0.230634	0.202150
O621	O	1.066978	0.102699	0.535483
C622	C	0.388837	-0.573762	-0.086408
C623	C	0.722170	-0.240429	0.246925
C624	C	1.055504	0.092905	0.580258
H625	H	0.375938	-0.609650	-0.084145
H626	H	0.709271	-0.276317	0.249188
H627	H	1.042605	0.057016	0.582522
H628	H	0.419692	-0.569887	-0.064218
H629	H	0.753025	-0.236553	0.269115
H630	H	1.086359	0.096780	0.602448
H631	H	0.361604	-0.549670	-0.074656
H632	H	0.694938	-0.216337	0.258678
H633	H	1.028271	0.116996	0.592011
H634	H	-0.045034	-0.597185	-0.164479
H635	H	0.288299	-0.263852	0.168854
H636	H	0.621633	0.069481	0.502187
O637	O	0.616202	-0.706025	-0.273235
O638	O	0.949535	-0.372692	0.060098
O639	O	1.282869	-0.039359	0.393431
C640	C	0.643346	-0.735032	-0.247672
C641	C	0.976679	-0.401699	0.085662
C642	C	1.310012	-0.068365	0.418995
H643	H	0.629204	-0.737799	-0.212288
H644	H	0.962537	-0.404466	0.121045
H645	H	1.295870	-0.071132	0.454379
H646	H	0.643877	-0.769609	-0.263933
H647	H	0.977210	-0.436275	0.069401
H648	H	1.310543	-0.102942	0.402734
H649	H	0.678905	-0.721145	-0.246123
H650	H	1.012238	-0.387811	0.087210
H651	H	1.345571	-0.054478	0.420543
H652	H	-0.297479	-0.036644	-0.297357
H653	H	0.035854	0.296689	0.035977
H654	H	0.369188	0.630023	0.369310
O655	O	-0.159787	0.090543	-0.160042
O656	O	0.173546	0.423877	0.173292
O657	O	0.506880	0.757210	0.506625
C658	C	-0.134393	0.121333	-0.134736
C659	C	0.198940	0.454667	0.198597
C660	C	0.532274	0.788000	0.531930
H661	H	-0.152800	0.154776	-0.133158
H662	H	0.180534	0.488109	0.200175
H663	H	0.513867	0.821442	0.533509
H664	H	-0.129549	0.107804	-0.099345
H665	H	0.203784	0.441137	0.233988
H666	H	0.537118	0.774471	0.567322
H667	H	-0.100297	0.126318	-0.151242
H668	H	0.233037	0.459651	0.182092
H669	H	0.566370	0.792985	0.515425
H670	H	-0.045019	-0.701461	-0.268766
H671	H	0.288314	-0.368128	0.064567
H672	H	0.621648	-0.034794	0.397900
H673	H	-0.135522	-0.177299	-0.135891
H674	H	0.197811	0.156035	0.197443
H675	H	0.531145	0.489368	0.530776
O676	O	-0.301802	-0.734755	-0.692691
O677	O	0.031532	-0.401421	-0.359357
O678	O	0.364865	-0.068088	-0.026024
C679	C	-0.291987	-0.779530	-0.681248
C680	C	0.041347	-0.446197	-0.347915
C681	C	0.374680	-0.112863	-0.014581
H682	H	-0.274713	-0.780456	-0.647188
H683	H	0.058620	-0.447122	-0.313855
H684	H	0.391953	-0.113789	0.019479
H685	H	-0.324415	-0.799665	-0.679638
H686	H	0.008919	-0.466331	-0.346305
H687	H	0.342252	-0.132998	-0.012972
H688	H	-0.268896	-0.794676	-0.707665
H689	H	0.064437	-0.461343	-0.374331
H690	H	0.397770	-0.128009	-0.040998
O691	O	0.307820	-0.563983	-0.131196
O692	O	0.641153	-0.230650	0.202138
O693	O	0.974487	0.102684	0.535471
C694	C	0.280666	-0.589546	-0.102190
C695	C	0.614000	-0.256213	0.231143
C696	C	0.947333	0.077120	0.564477
H697	H	0.294801	-0.624930	-0.099423
H698	H	0.628134	-0.291597	0.233910
H699	H	0.961467	0.041736	0.567243
H700	H	0.280133	-0.573286	-0.067613
H701	H	0.613466	-0.239953	0.265721
H702	H	0.946799	0.093381	0.599054
H703	H	0.245109	-0.591093	-0.116077
H704	H	0.578443	-0.257760	0.217256
H705	H	0.911776	0.075574	0.550589
O706	O	0.167163	-0.734672	-0.302107
O707	O	0.500497	-0.401338	0.031226
O708	O	0.833830	-0.068005	0.364560
C709	C	0.178628	-0.724850	-0.346878
C710	C	0.511961	-0.391516	-0.013545
C711	C	0.845295	-0.058183	0.319788
H712	H	0.212694	-0.707581	-0.347802
H713	H	0.546027	-0.374248	-0.014468
H714	H	0.879360	-0.040914	0.318865
H715	H	0.180236	-0.757274	-0.367038
H716	H	0.513570	-0.423941	-0.033705
H717	H	0.846903	-0.090608	0.299629
H718	H	0.152225	-0.701753	-0.361999
H719	H	0.485558	-0.368420	-0.028665
H720	H	0.818891	-0.035086	0.304668
H721	H	-0.268689	-0.393203	-0.268641
H722	H	0.064644	-0.059870	0.064692
H723	H	0.397978	0.273464	0.398026
H724	H	0.527385	-0.701460	-0.268787
H725	H	0.860718	-0.368126	0.064546
H726	H	1.194052	-0.034793	0.397880
O727	O	-0.272946	-0.706050	-1.049334
O728	O	0.060388	-0.372716	-0.716001
O729	O	0.393721	-0.039383	-0.382668
C730	C	-0.247370	-0.735068	-1.076494
C731	C	0.085964	-0.401735	-0.743160
C732	C	0.419297	-0.068402	-0.409827
H733	H	-0.211988	-0.737844	-1.062359
H734	H	0.121345	-0.404511	-0.729026
H735	H	0.454679	-0.071177	-0.395693
H736	H	-0.263621	-0.769640	-1.077035
H737	H	0.069712	-0.436307	-0.743701
H738	H	0.403045	-0.102973	-0.410368
H739	H	-0.245818	-0.721187	-1.112048
H740	H	0.087515	-0.387853	-0.778714
H741	H	0.420849	-0.054520	-0.445381
O742	O	0.400288	-0.734715	-0.302084
O743	O	0.733621	-0.401382	0.031249
O744	O	1.066955	-0.068048	0.364582
C745	C	0.369522	-0.760084	-0.327440
C746	C	0.702855	-0.426750	0.005894
C747	C	1.036188	-0.093417	0.339227
H748	H	0.336077	-0.741682	-0.328981
H749	H	0.669410	-0.408349	0.004352
H750	H	1.002743	-0.075015	0.337686
H751	H	0.383077	-0.764881	-0.362840
H752	H	0.716411	-0.431548	-0.029507
H753	H	1.049744	-0.098214	0.303826
H754	H	0.364532	-0.794201	-0.311001
H755	H	0.697865	-0.460868	0.022332
H756	H	1.031199	-0.127535	0.355665
H757	H	-0.297318	-0.730172	-0.603945
H758	H	0.036015	-0.396839	-0.270612
H759	H	0.369348	-0.063505	0.062722
O760	O	-0.159791	-0.389474	-0.159980
O761	O	0.173542	-0.056141	0.173354
O762	O	0.506876	0.277193	0.506687
C763	C	-0.169549	-0.400892	-0.115183
C764	C	0.163785	-0.067558	0.218150
C765	C	0.497118	0.265775	0.551483
H766	H	-0.186816	-0.434957	-0.114212
H767	H	0.146518	-0.101623	0.219121
H768	H	0.479851	0.231710	0.552454
H769	H	-0.137095	-0.402479	-0.095093
H770	H	0.196238	-0.069146	0.238240
H771	H	0.529571	0.264188	0.571573
H772	H	-0.192624	-0.374473	-0.100021
H773	H	0.140709	-0.041140	0.233312
H774	H	0.474043	0.292194	0.566646
O775	O	0.307825	-0.734726	-0.301972
O776	O	0.641158	-0.401392	0.031361
O777	O	0.974491	-0.068059	0.364695
C778	C	0.280694	-0.763745	-0.276400
C779	C	0.614027	-0.430411	0.056933
C780	C	0.947361	-0.097078	0.390267
H781	H	0.273656	-0.747890	-0.242351
H782	H	0.606990	-0.414556	0.090982
H783	H	0.940323	-0.081223	0.424316
H784	H	0.247706	-0.769776	-0.294700
H785	H	0.581039	-0.436443	0.038633
H786	H	0.914372	-0.103110	0.371966
H787	H	0.298781	-0.797033	-0.271471
H788	H	0.632114	-0.463700	0.061862
H789	H	0.965447	-0.130366	0.395196
H790	H	-0.164229	-0.597250	-1.045586
H791	H	0.169104	-0.263917	-0.712253
H792	H	0.502437	0.069416	-0.378919
H793	H	0.527361	-0.597181	-0.164494
H794	H	0.860694	-0.263847	0.168840
H795	H	1.194028	0.069486	0.502173
H796	H	-0.297471	-0.262508	-0.297335
H797	H	0.035863	0.070825	0.035998
H798	H	0.369196	0.404158	0.369331
O799	O	-0.159884	-0.592680	-0.384328
O800	O	0.173450	-0.259346	-0.050995
O801	O	0.506783	0.073987	0.282338
C802	C	-0.185460	-0.563650	-0.357182
C803	C	0.147873	-0.230316	-0.023849
C804	C	0.481206	0.103017	0.309485
H805	H	-0.219509	-0.579489	-0.350157
H806	H	0.113824	-0.246155	-0.016824
H807	H	0.447158	0.087178	0.316510
H808	H	-0.167164	-0.557629	-0.324188
H809	H	0.166170	-0.224296	0.009145
H810	H	0.499503	0.109038	0.342479
H811	H	-0.190391	-0.530358	-0.375248
H812	H	0.142943	-0.197025	-0.041915
H813	H	0.476276	0.136309	0.291419
O814	O	0.616236	-0.592678	-0.160028
O815	O	0.949569	-0.259345	0.173306
O816	O	1.282902	0.073988	0.506639
C817	C	0.662677	-0.598854	-0.166188
C818	C	0.996010	-0.265520	0.167146
C819	C	1.329343	0.067813	0.500479
H820	H	0.669085	-0.613582	-0.200861
H821	H	1.002418	-0.280249	0.132473
H822	H	1.335751	0.053085	0.465806
H823	H	0.680511	-0.565204	-0.163138
H824	H	1.013844	-0.231870	0.170195
H825	H	1.347177	0.101463	0.503528
H826	H	0.675988	-0.622768	-0.139545
H827	H	1.009321	-0.289435	0.193788
H828	H	1.342654	0.043898	0.527121
H829	H	-0.268592	-0.701457	-0.473237
H830	H	0.064742	-0.368124	-0.139903
H831	H	0.398075	-0.034790	0.193430
O832	O	-0.131001	-0.125265	-0.131347
O833	O	0.202332	0.208069	0.201987
O834	O	0.535666	0.541402	0.535320
C835	C	-0.105605	-0.094475	-0.106043
C836	C	0.227728	0.238858	0.227291
C837	C	0.561062	0.572192	0.560624
H838	H	-0.124009	-0.061031	-0.104467
H839	H	0.209325	0.272302	0.228866
H840	H	0.542658	0.605636	0.562200
H841	H	-0.100763	-0.108002	-0.070650
H842	H	0.232571	0.225331	0.262683
H843	H	0.565904	0.558664	0.596016
H844	H	-0.071508	-0.089494	-0.122548
H845	H	0.261825	0.243839	0.210786
H846	H	0.595159	0.577173	0.544119
O847	O	-0.159764	-0.592686	-0.476794
O848	O	0.173570	-0.259353	-0.143461
O849	O	0.506903	0.073981	0.189872
C850	C	-0.134416	-0.567328	-0.446010
C851	C	0.198917	-0.233995	-0.112676
C852	C	0.532250	0.099338	0.220657
H853	H	-0.132874	-0.585732	-0.412576
H854	H	0.200459	-0.252399	-0.079243
H855	H	0.533792	0.080934	0.254091
H856	H	-0.099015	-0.562544	-0.459559
H857	H	0.234318	-0.229211	-0.126226
H858	H	0.567652	0.104123	0.207108
H859	H	-0.150861	-0.533205	-0.441000
H860	H	0.182472	-0.199871	-0.107667
H861	H	0.515805	0.133462	0.225666
H862	H	-0.297274	-0.730187	-0.829809
H863	H	0.036059	-0.396854	-0.496475
H864	H	0.369392	-0.063521	-0.163142
O865	O	0.043693	-0.592647	-0.159927
O866	O	0.377026	-0.259313	0.173406
O867	O	0.710360	0.074020	0.506740
C868	C	0.012915	-0.567279	-0.134571
C869	C	0.346249	-0.233946	0.198763
C870	C	0.679582	0.099387	0.532096
H871	H	-0.020527	-0.585685	-0.133024
H872	H	0.312807	-0.252352	0.200310
H873	H	0.646140	0.080982	0.533643
H874	H	0.026461	-0.562478	-0.099172
H875	H	0.359795	-0.229144	0.234162
H876	H	0.693128	0.104189	0.567495
H877	H	0.007924	-0.533164	-0.151011
H878	H	0.341257	-0.199830	0.182322
H879	H	0.674591	0.133503	0.515656
O880	O	-0.273045	-0.706035	-0.956901
O881	O	0.060288	-0.372702	-0.623567
O882	O	0.393622	-0.039368	-0.290234
C883	C	-0.298404	-0.731382	-0.987685
C884	C	0.034930	-0.398048	-0.654352
C885	C	0.368263	-0.064715	-0.321019
H886	H	-0.279993	-0.732937	-1.021129
H887	H	0.053340	-0.399603	-0.687796
H888	H	0.386674	-0.066270	-0.354462
H889	H	-0.303202	-0.766778	-0.974151
H890	H	0.030131	-0.433445	-0.640818
H891	H	0.363465	-0.100112	-0.307485
H892	H	-0.332521	-0.714927	-0.992668
H893	H	0.000812	-0.381594	-0.659335
H894	H	0.334145	-0.048261	-0.326002
H895	H	-0.268604	-0.701449	-0.388113
H896	H	0.064729	-0.368115	-0.054780
H897	H	0.398062	-0.034782	0.278553
O898	O	-0.131020	-0.563942	-0.741004
O899	O	0.202314	-0.230608	-0.407671
O900	O	0.535647	0.102725	-0.074337
C901	C	-0.105649	-0.538601	-0.771765
C902	C	0.227685	-0.205268	-0.438432
C903	C	0.561018	0.128065	-0.105099
H904	H	-0.124048	-0.537050	-0.805207
H905	H	0.209285	-0.203716	-0.471874
H906	H	0.542619	0.129617	-0.138540
H907	H	-0.100852	-0.503203	-0.758198
H908	H	0.232481	-0.169870	-0.424864
H909	H	0.565814	0.163463	-0.091531
H910	H	-0.071531	-0.555059	-0.776766
H911	H	0.261803	-0.221726	-0.443432
H912	H	0.595136	0.111607	-0.110099
H913	H	-0.135537	-0.568507	-0.829743
H914	H	0.197796	-0.235174	-0.496410
H915	H	0.531130	0.098160	-0.163076
