data_functionalizedCrystal
_audit_creation_method	'MofGen! by Chris Wilmer'
_symmetry_space_group_name_H-M	'P1'
_symmetry_Int_Tables_number	1
_symmetry_cell_setting	triclinic
loop_
_symmetry_equiv_pos_as_xyz
  x,y,z
_cell_length_a	9.065218
_cell_length_b	17.699083
_cell_length_c	7.540329
_cell_angle_alpha	89.995522
_cell_angle_beta	89.996962
_cell_angle_gamma	84.149450
loop_
_atom_site_label
_atom_site_type_symbol
_atom_site_fract_x
_atom_site_fract_y
_atom_site_fract_z
O1	O	1.957110	0.110973	-0.147491
O2	O	1.527555	0.120075	-0.147494
O3	O	1.754468	0.005430	-0.147477
O4	O	1.730196	0.225619	-0.147508
O5	O	1.754455	0.005428	0.147488
O6	O	1.527542	0.120074	0.147471
O7	O	1.957096	0.110971	0.147474
Cu8	Cu	1.742318	0.115522	0.174405
Cu9	Cu	1.742334	0.115524	-0.174425
O10	O	1.730183	0.225617	0.147457
C11	C	1.472588	0.119200	-0.000012
C12	C	1.308822	0.116584	-0.000012
C13	C	1.753592	-0.022775	0.000006
C14	C	1.750983	-0.106813	0.000007
C15	C	1.884176	-0.154396	0.000010
C16	C	1.881716	-0.233358	-0.000006
C17	C	1.746060	-0.264737	-0.000012
C18	C	1.612857	-0.217149	-0.000021
C19	C	1.615319	-0.138188	-0.000018
C20	C	1.602925	-0.535589	-0.000035
C21	C	1.600474	-0.614556	-0.000033
C22	C	1.869322	-0.630760	-0.000023
C23	C	1.871784	-0.551799	-0.000020
C24	C	1.738581	-0.504217	-0.000038
C25	C	1.741251	-0.418597	-0.000025
C26	C	1.743390	-0.350355	-0.000013
C27	C	2.012064	0.111847	-0.000012
C28	C	2.175829	0.114463	-0.000023
C29	C	1.731059	0.253822	-0.000030
C30	C	1.733669	0.337860	-0.000042
N31	N	1.742317	0.115521	0.419754
N32	N	1.742346	0.115520	-0.419774
H33	H	1.990175	-0.272097	0.000001
H34	H	1.506859	-0.099446	-0.000021
C35	C	2.018963	-0.517629	-0.000296
C36	C	2.028213	-0.472750	-0.152027
C37	C	2.163766	-0.441255	-0.152337
H38	H	2.098065	-0.557198	-0.000391
H39	H	2.025524	-0.487123	0.102512
H40	H	2.021667	-0.503254	-0.254807
H41	H	1.949143	-0.433169	-0.151963
H42	H	2.170327	-0.410749	-0.049530
H43	H	2.242857	-0.480829	-0.152428
H44	H	2.170055	-0.410796	-0.255276
C45	C	1.465528	-0.251173	-0.000398
C46	C	1.385053	-0.227089	-0.152179
C47	C	1.249334	-0.258424	-0.152595
H48	H	1.410511	-0.234928	0.102338
H49	H	1.483076	-0.305018	-0.000492
H50	H	1.367501	-0.173256	-0.152069
H51	H	1.440026	-0.243333	-0.254940
H52	H	1.266882	-0.312268	-0.152688
H53	H	1.194330	-0.242176	-0.049852
H54	H	1.194721	-0.242093	-0.255583
H55	H	1.977782	-0.669510	-0.000018
H56	H	1.490001	-0.640101	-0.000035
H57	H	1.994642	-0.128854	0.000026
C58	C	1.458426	-0.483843	0.000233
C59	C	1.451992	-0.438026	0.151959
C60	C	1.318906	-0.390336	0.152254
H61	H	1.377160	-0.513744	0.000326
H62	H	1.453793	-0.452657	-0.102578
H63	H	1.456611	-0.469208	0.254743
H64	H	1.533227	-0.408109	0.151898
H65	H	1.314272	-0.359151	0.049443
H66	H	1.237650	-0.420244	0.152342
H67	H	1.314529	-0.359239	0.255189
