data_functionalizedCrystal
_audit_creation_method	'MofGen! by Chris Wilmer'
_symmetry_space_group_name_H-M	'P1'
_symmetry_Int_Tables_number	1
_symmetry_cell_setting	triclinic
loop_
_symmetry_equiv_pos_as_xyz
  x,y,z
_cell_length_a	18.215407
_cell_length_b	12.594516
_cell_length_c	18.215399
_cell_angle_alpha	89.976218
_cell_angle_beta	89.983101
_cell_angle_gamma	90.009275
loop_
_atom_site_label
_atom_site_type_symbol
_atom_site_fract_x
_atom_site_fract_y
_atom_site_fract_z
Zn1	Zn	1.125139	-0.423825	-0.416080
Zn2	Zn	1.125075	-0.601823	-0.293022
Zn3	Zn	1.002071	-0.423851	-0.293033
Zn4	Zn	1.002065	-0.601754	-0.416053
O5	O	1.063588	-0.512813	-0.354547
O6	O	1.228115	-0.447455	-0.399762
O7	O	1.108734	-0.578254	-0.190039
O8	O	1.018426	-0.274902	-0.309371
O9	O	1.228068	-0.578229	-0.309352
O10	O	1.108843	-0.274883	-0.399773
O11	O	1.018364	-0.447498	-0.190047
O12	O	0.899086	-0.447432	-0.309346
O13	O	1.018415	-0.578112	-0.519041
O14	O	0.899082	-0.578137	-0.399728
O15	O	1.108837	-0.447388	-0.519060
O16	O	1.108729	-0.750759	-0.309327
O17	O	1.018354	-0.750709	-0.399718
C18	C	0.872381	-0.512781	-0.354536
C19	C	0.790583	-0.512792	-0.354548
C20	C	0.525542	-0.580983	-0.401545
C21	C	0.602401	-0.580974	-0.401541
C22	C	0.602375	-0.444667	-0.307563
C23	C	0.525517	-0.444683	-0.307563
C24	C	0.487103	-0.512839	-0.354558
C25	C	0.640819	-0.512814	-0.354554
C26	C	0.724153	-0.512804	-0.354550
C27	C	0.403764	-0.512851	-0.354562
C28	C	1.063554	-0.789354	-0.354534
C29	C	1.063606	-0.907660	-0.354553
C30	C	1.112818	-0.976901	-0.305442
C31	C	1.130801	-1.047606	-0.372613
C32	C	1.045716	-1.047754	-0.287426
C33	C	1.081623	-0.976806	-0.421759
C34	C	0.996507	-0.976948	-0.336527
C35	C	1.014464	-1.047620	-0.403743
C36	C	1.255541	-0.512847	-0.354559
C37	C	1.337339	-0.512861	-0.354564
C38	C	1.063632	-0.512740	-0.546500
C39	C	1.063652	-0.512709	-0.628299
C40	C	1.063642	-0.235192	-0.354576
C41	C	1.063665	-0.116887	-0.354588
C42	C	1.110751	-0.444577	-0.816504
C43	C	1.110760	-0.444546	-0.893363
C44	C	1.016604	-0.580675	-0.893332
C45	C	1.016592	-0.580700	-0.816474
C46	C	1.063670	-0.512653	-0.778063
C47	C	1.063691	-0.512597	-0.931779
C48	C	1.063700	-0.512564	-1.015113
C49	C	1.063660	-0.512684	-0.694724
C50	C	1.063585	-0.512809	-0.163341
C51	C	1.063709	-0.512541	-0.081542
H52	H	0.633694	-0.636465	-0.439801
Cl53	Cl	1.022315	-1.095869	-0.199759
H54	H	0.633661	-0.389175	-0.269302
H55	H	0.494219	-0.389190	-0.269297
Cl56	Cl	0.957428	-0.666222	-0.941626
Cl57	Cl	1.169931	-0.359028	-0.768218
Cl58	Cl	1.218451	-1.095506	-0.396197
H59	H	1.149097	-0.389110	-0.924659
Cl60	Cl	1.177078	-0.928954	-0.241378
Cl61	Cl	1.105137	-0.928902	-0.509451
Cl62	Cl	0.957395	-0.666282	-0.768144
H63	H	0.972872	-1.078476	-0.445338
H64	H	0.494267	-0.636481	-0.439811
H65	H	0.939753	-0.945885	-0.321240
