data_functionalizedCrystal
_audit_creation_method	'MofGen! by Chris Wilmer'
_symmetry_space_group_name_H-M	'P1'
_symmetry_Int_Tables_number	1
_symmetry_cell_setting	triclinic
loop_
_symmetry_equiv_pos_as_xyz
  x,y,z
_cell_length_a	19.288864
_cell_length_b	19.188930
_cell_length_c	17.766277
_cell_angle_alpha	89.988508
_cell_angle_beta	89.976791
_cell_angle_gamma	83.140512
loop_
_atom_site_label
_atom_site_type_symbol
_atom_site_fract_x
_atom_site_fract_y
_atom_site_fract_z
O1	O	0.921360	0.087099	-0.062844
O2	O	1.171360	0.337099	0.187156
O3	O	1.421360	0.587099	0.437156
O4	O	1.671360	0.837099	0.687156
O5	O	0.719100	0.098849	-0.062794
O6	O	0.969100	0.348849	0.187206
O7	O	1.219100	0.598849	0.437206
O8	O	1.469100	0.848849	0.687206
O9	O	0.826066	-0.008682	-0.062806
O10	O	1.076066	0.241318	0.187194
O11	O	1.326066	0.491318	0.437194
O12	O	1.576066	0.741318	0.687194
O13	O	0.814393	0.194630	-0.062832
O14	O	1.064393	0.444630	0.187168
O15	O	1.314393	0.694630	0.437168
O16	O	1.564393	0.944630	0.687168
O17	O	0.826048	-0.008688	0.062383
O18	O	1.076048	0.241312	0.312383
O19	O	1.326048	0.491312	0.562383
O20	O	1.576048	0.741312	0.812383
O21	O	0.719081	0.098843	0.062395
O22	O	0.969081	0.348843	0.312395
O23	O	1.219081	0.598843	0.562395
O24	O	1.469081	0.848843	0.812395
O25	O	0.921341	0.087094	0.062345
O26	O	1.171341	0.337094	0.312345
O27	O	1.421341	0.587094	0.562345
O28	O	1.671341	0.837094	0.812345
Cu29	Cu	0.820209	0.092968	0.073800
Cu30	Cu	1.070209	0.342968	0.323800
Cu31	Cu	1.320209	0.592968	0.573800
Cu32	Cu	1.570209	0.842968	0.823800
Cu33	Cu	0.820231	0.092974	-0.074250
Cu34	Cu	1.070231	0.342974	0.175750
Cu35	Cu	1.320231	0.592974	0.425750
Cu36	Cu	1.570231	0.842974	0.675750
O37	O	0.814374	0.194625	0.062356
O38	O	1.064374	0.444625	0.312356
O39	O	1.314374	0.694625	0.562356
O40	O	1.564374	0.944625	0.812356
C41	C	0.693214	0.098468	-0.000193
C42	C	0.943214	0.348468	0.249807
C43	C	1.193214	0.598468	0.499807
C44	C	1.443214	0.848468	0.749807
C45	C	0.616110	0.097333	-0.000173
C46	C	0.866110	0.347333	0.249827
C47	C	1.116110	0.597333	0.499827
C48	C	1.366110	0.847333	0.749827
C49	C	0.571419	0.160427	-0.000193
C50	C	0.821419	0.410427	0.249807
C51	C	1.071419	0.660427	0.499807
C52	C	1.321419	0.910427	0.749807
C53	C	0.498972	0.159361	-0.000201
C54	C	0.748972	0.409361	0.249799
C55	C	0.998972	0.659361	0.499799
C56	C	1.248972	0.909361	0.749799
C57	C	0.471219	0.095197	-0.000204
C58	C	0.721219	0.345197	0.249796
C59	C	0.971219	0.595197	0.499796
C60	C	1.221219	0.845197	0.749796
C61	C	0.515921	0.032095	-0.000180
C62	C	0.765921	0.282095	0.249820
C63	C	1.015921	0.532095	0.499820
C64	C	1.265921	0.782095	0.749820
C65	C	0.588366	0.033163	-0.000164
C66	C	0.838366	0.283163	0.249836
C67	C	1.088366	0.533163	0.499836
C68	C	1.338366	0.783163	0.749836
C69	C	0.362960	0.044759	-0.044082
C70	C	0.612960	0.294759	0.205918
C71	C	0.862960	0.544759	0.455918
C72	C	1.112960	0.794759	0.705918
C73	C	0.290515	0.043694	-0.044103
C74	C	0.540515	0.293694	0.205897
C75	C	0.790515	0.543694	0.455897
C76	C	1.040515	0.793694	0.705897
C77	C	0.247773	0.091900	-0.000249
C78	C	0.497773	0.341900	0.249751
C79	C	0.747773	0.591900	0.499751
C80	C	0.997773	0.841900	0.749751
C81	C	0.277483	0.141184	0.043614
C82	C	0.527483	0.391184	0.293614
C83	C	0.777483	0.641184	0.543614
C84	C	1.027483	0.891184	0.793614
C85	C	0.349929	0.142252	0.043630
C86	C	0.599929	0.392252	0.293630
C87	C	0.849929	0.642252	0.543630
C88	C	1.099929	0.892252	0.793630
C89	C	0.392665	0.094032	-0.000221
C90	C	0.642665	0.344032	0.249779
C91	C	0.892665	0.594032	0.499779
C92	C	1.142665	0.844032	0.749779
C93	C	0.124526	0.153843	-0.000277
C94	C	0.374526	0.403843	0.249723
C95	C	0.624526	0.653843	0.499723
C96	C	0.874526	0.903843	0.749723
C97	C	0.052078	0.152774	-0.000281
C98	C	0.302078	0.402774	0.249719
C99	C	0.552078	0.652774	0.499719
C100	C	0.802078	0.902774	0.749719
C101	C	0.069028	0.025506	-0.000267
C102	C	0.319028	0.275506	0.249733
C103	C	0.569028	0.525506	0.499733
C104	C	0.819028	0.775506	0.749733
C105	C	0.141475	0.026576	-0.000256
C106	C	0.391475	0.276576	0.249744
C107	C	0.641475	0.526576	0.499744
C108	C	0.891475	0.776576	0.749744
C109	C	0.169219	0.090747	-0.000265
C110	C	0.419219	0.340747	0.249735
C111	C	0.669219	0.590747	0.499735
C112	C	0.919219	0.840747	0.749735
C113	C	0.825679	-0.034696	-0.000209
C114	C	1.075679	0.215304	0.249791
C115	C	1.325679	0.465304	0.499791
C116	C	1.575679	0.715304	0.749791
C117	C	0.824544	-0.112200	-0.000202
C118	C	1.074544	0.137800	0.249798
C119	C	1.324544	0.387800	0.499798
C120	C	1.574544	0.637800	0.749798
C121	C	0.887309	-0.157129	-0.000214
C122	C	1.137309	0.092871	0.249786
C123	C	1.387309	0.342871	0.499786
C124	C	1.637309	0.592871	0.749786
C125	C	0.886243	-0.229953	-0.000226
C126	C	1.136243	0.020047	0.249774
C127	C	1.386243	0.270047	0.499774
C128	C	1.636243	0.520047	0.749774
C129	C	0.822408	-0.257844	-0.000211
C130	C	1.072408	-0.007844	0.249789
C131	C	1.322408	0.242156	0.499789
C132	C	1.572408	0.492156	0.749789
C133	C	0.759636	-0.212906	-0.000203
C134	C	1.009636	0.037094	0.249797
C135	C	1.259636	0.287094	0.499797
C136	C	1.509636	0.537094	0.749797
C137	C	0.760704	-0.140084	-0.000199
C138	C	1.010704	0.109916	0.249801
C139	C	1.260704	0.359916	0.499801
C140	C	1.510704	0.609916	0.749801
N141	N	0.773608	-0.365848	0.042405
N142	N	1.023608	-0.115848	0.292405
N143	N	1.273608	0.134152	0.542405
N144	N	1.523608	0.384152	0.792405
N145	N	0.772598	-0.435026	0.042403
N146	N	1.022598	-0.185026	0.292403
N147	N	1.272598	0.064974	0.542403
N148	N	1.522598	0.314974	0.792403
C149	C	0.819187	-0.477253	-0.000225
C150	C	1.069187	-0.227253	0.249775
C151	C	1.319187	0.022747	0.499775
C152	C	1.569187	0.272747	0.749775
N153	N	0.866835	-0.447689	-0.042841
N154	N	1.116835	-0.197689	0.207159
N155	N	1.366835	0.052311	0.457159
N156	N	1.616835	0.302311	0.707159
N157	N	0.867847	-0.378504	-0.042836
N158	N	1.117847	-0.128504	0.207164
N159	N	1.367847	0.121496	0.457164
N160	N	1.617847	0.371496	0.707164
C161	C	0.821243	-0.336807	-0.000216
C162	C	1.071243	-0.086807	0.249784
C163	C	1.321243	0.163193	0.499784
C164	C	1.571243	0.413193	0.749784
C165	C	0.880800	-0.601146	-0.000251
C166	C	1.130800	-0.351146	0.249749
C167	C	1.380800	-0.101146	0.499749
C168	C	1.630800	0.148854	0.749749
C169	C	0.879731	-0.673971	-0.000268
C170	C	1.129731	-0.423971	0.249732
C171	C	1.379731	-0.173971	0.499732
C172	C	1.629731	0.076029	0.749732
C173	C	0.753122	-0.656922	-0.000237
C174	C	1.003122	-0.406922	0.249763
C175	C	1.253122	-0.156922	0.499763
C176	C	1.503122	0.093078	0.749763
C177	C	0.754193	-0.584099	-0.000228
C178	C	1.004193	-0.334099	0.249772
C179	C	1.254193	-0.084099	0.499772
C180	C	1.504193	0.165901	0.749772
C181	C	0.818034	-0.556216	-0.000231
C182	C	1.068034	-0.306216	0.249769
C183	C	1.318034	-0.056216	0.499769
C184	C	1.568034	0.193784	0.749769
C185	C	0.947227	0.087475	-0.000258
C186	C	1.197227	0.337475	0.249742
C187	C	1.447227	0.587475	0.499742
C188	C	1.697227	0.837475	0.749742
C189	C	1.024330	0.088609	-0.000283
C190	C	1.274330	0.338609	0.249717
C191	C	1.524330	0.588609	0.499717
C192	C	1.774330	0.838609	0.749717
C193	C	0.814762	0.220638	-0.000242
C194	C	1.064762	0.470638	0.249758
C195	C	1.314762	0.720638	0.499758
C196	C	1.564762	0.970638	0.749758
C197	C	0.815896	0.298143	-0.000253
C198	C	1.065896	0.548143	0.249747
C199	C	1.315896	0.798143	0.499747
C200	C	1.565896	1.048143	0.749747
N201	N	0.820199	0.092963	0.177931
N202	N	1.070199	0.342963	0.427931
N203	N	1.320199	0.592963	0.677931
N204	N	1.570199	0.842963	0.927931
N205	N	0.820247	0.092974	-0.178380
N206	N	1.070247	0.342974	0.071620
N207	N	1.320247	0.592974	0.321620
N208	N	1.570247	0.842974	0.571620
C209	C	0.867579	0.045372	0.217312
C210	C	1.117579	0.295372	0.467312
C211	C	1.367579	0.545372	0.717312
C212	C	1.617579	0.795372	0.967312
C213	C	0.867583	0.045368	0.296114
C214	C	1.117583	0.295368	0.546114
C215	C	1.367583	0.545368	0.796114
C216	C	1.617583	0.795368	1.046114
C217	C	0.820213	0.092969	0.335531
C218	C	1.070213	0.342969	0.585531
C219	C	1.320213	0.592969	0.835531
C220	C	1.570213	0.842969	1.085531
C221	C	0.772824	0.140564	0.296140
C222	C	1.022824	0.390564	0.546140
C223	C	1.272824	0.640564	0.796140
C224	C	1.522824	0.890564	1.046140
C225	C	0.772817	0.140561	0.217340
C226	C	1.022817	0.390561	0.467340
C227	C	1.272817	0.640561	0.717340
C228	C	1.522817	0.890561	0.967340
C229	C	0.810919	0.156585	0.460362
C230	C	1.060919	0.406585	0.710362
C231	C	1.310919	0.656585	0.960362
C232	C	1.560919	0.906585	1.210362
C233	C	0.810931	0.156589	0.539161
C234	C	1.060931	0.406589	0.789161
C235	C	1.310931	0.656589	1.039161
C236	C	1.560931	0.906589	1.289161
C237	C	0.820232	0.092977	0.578578
C238	C	1.070232	0.342977	0.828578
C239	C	1.320232	0.592977	1.078578
C240	C	1.570232	0.842977	1.328578
C241	C	0.829535	0.029359	0.539185
C242	C	1.079535	0.279359	0.789185
C243	C	1.329535	0.529359	1.039185
C244	C	1.579535	0.779359	1.289185
C245	C	0.829528	0.029356	0.460385
C246	C	1.079528	0.279356	0.710385
C247	C	1.329528	0.529356	0.960385
C248	C	1.579528	0.779356	1.210385
C249	C	0.820216	0.092977	0.420977
C250	C	1.070216	0.342977	0.670977
C251	C	1.320216	0.592977	0.920977
C252	C	1.570216	0.842977	1.170977
C253	C	0.867619	0.045378	0.703405
C254	C	1.117619	0.295378	0.953405
C255	C	1.367619	0.545378	1.203405
C256	C	1.617619	0.795378	1.453405
C257	C	0.867618	0.045374	0.782208
C258	C	1.117618	0.295374	1.032208
C259	C	1.367618	0.545374	1.282208
C260	C	1.617618	0.795374	1.532208
C261	C	0.772863	0.140575	0.782233
C262	C	1.022863	0.390575	1.032233
C263	C	1.272863	0.640575	1.282233
C264	C	1.522863	0.890575	1.532233
C265	C	0.772861	0.140573	0.703431
C266	C	1.022861	0.390573	0.953431
C267	C	1.272861	0.640573	1.203431
C268	C	1.522861	0.890573	1.453431
C269	C	0.820242	0.092976	0.664022
C270	C	1.070242	0.342976	0.914022
C271	C	1.320242	0.592976	1.164022
C272	C	1.570242	0.842976	1.414022
H273	H	0.242684	0.180439	0.079324
H274	H	0.492684	0.430439	0.329324
H275	H	0.742684	0.680439	0.579324
H276	H	0.992684	0.930439	0.829324
H277	H	0.703083	-0.547517	-0.000214
H278	H	0.953083	-0.297517	0.249786
H279	H	1.203083	-0.047517	0.499786
H280	H	1.453083	0.202483	0.749786
H281	H	0.906198	0.006619	0.671317
H282	H	1.156198	0.256619	0.921317
H283	H	1.406198	0.506619	1.171317
H284	H	1.656198	0.756619	1.421317
H285	H	0.837108	-0.022440	0.571277
H286	H	1.087108	0.227560	0.821277
H287	H	1.337108	0.477560	1.071277
H288	H	1.587108	0.727560	1.321277
H289	H	0.147116	0.206094	-0.000273
H290	H	0.397116	0.456094	0.249727
H291	H	0.647116	0.706094	0.499727
H292	H	0.897116	0.956094	0.749727
H293	H	0.932783	-0.578442	-0.000257
H294	H	1.182783	-0.328442	0.249743
H295	H	1.432783	-0.078442	0.499743
H296	H	1.682783	0.171558	0.749743
H297	H	0.906199	0.006616	0.814274
H298	H	1.156199	0.256616	1.064274
H299	H	1.406199	0.506616	1.314274
H300	H	1.656199	0.756616	1.564274
H301	H	0.046433	-0.026738	-0.000317
H302	H	0.296433	0.223262	0.249683
H303	H	0.546433	0.473262	0.499683
H304	H	0.796433	0.723262	0.749683
H305	H	0.734291	0.179330	0.814326
H306	H	0.984291	0.429330	1.064326
H307	H	1.234291	0.679330	1.314326
H308	H	1.484291	0.929330	1.564326
H309	H	0.734234	0.179316	0.185275
H310	H	0.984234	0.429316	0.435275
H311	H	1.234234	0.679316	0.685275
H312	H	1.484234	0.929316	0.935275
H313	H	0.462577	0.210742	-0.000215
H314	H	0.712577	0.460742	0.249785
H315	H	0.962577	0.710742	0.499785
H316	H	1.212577	0.960742	0.749785
H317	H	0.266331	0.003566	-0.079822
H318	H	0.516331	0.253566	0.170178
H319	H	0.766331	0.503566	0.420178
H320	H	1.016331	0.753566	0.670178
H321	H	0.709591	-0.103502	-0.000189
H322	H	0.959591	0.146498	0.249811
H323	H	1.209591	0.396498	0.499811
H324	H	1.459591	0.646498	0.749811
H325	H	0.734282	0.179330	0.671365
H326	H	0.984282	0.429330	0.921365
H327	H	1.234282	0.679330	1.171365
H328	H	1.484282	0.929330	1.421365
H329	H	0.930844	-0.710552	-0.000281
H330	H	1.180844	-0.460552	0.249719
H331	H	1.430844	-0.210552	0.499719
H332	H	1.680844	0.039448	0.749719
H333	H	0.803361	0.208391	0.571228
H334	H	1.053361	0.458391	0.821228
H335	H	1.303361	0.708391	1.071228
H336	H	1.553361	0.958391	1.321228
H337	H	0.803334	0.208389	0.428276
H338	H	1.053334	0.458389	0.678276
H339	H	1.303334	0.708389	0.928276
H340	H	1.553334	0.958389	1.178276
H341	H	0.734254	0.179319	0.328238
H342	H	0.984254	0.429319	0.578238
H343	H	1.234254	0.679319	0.828238
H344	H	1.484254	0.929319	1.078238
H345	H	0.374116	0.182379	0.079348
H346	H	0.624116	0.432379	0.329348
H347	H	0.874116	0.682379	0.579348
H348	H	1.124116	0.932379	0.829348
H349	H	0.594003	0.212680	-0.000201
H350	H	0.844003	0.462680	0.249799
H351	H	1.094003	0.712680	0.499799
H352	H	1.344003	0.962680	0.749799
H353	H	0.015690	0.204155	-0.000293
H354	H	0.265690	0.454155	0.249707
H355	H	0.515690	0.704155	0.499707
H356	H	0.765690	0.954155	0.749707
H357	H	0.177864	-0.024802	-0.000244
H358	H	0.427864	0.225198	0.249756
H359	H	0.677864	0.475198	0.499756
H360	H	0.927864	0.725198	0.749756
H361	H	0.397756	0.005502	-0.079797
H362	H	0.647756	0.255502	0.170203
H363	H	0.897756	0.505502	0.420203
H364	H	1.147756	0.755502	0.670203
H365	H	0.493320	-0.020148	-0.000193
H366	H	0.743320	0.229852	0.249807
H367	H	0.993320	0.479852	0.499807
H368	H	1.243320	0.729852	0.749807
H369	H	0.701147	-0.679631	-0.000228
H370	H	0.951147	-0.429631	0.249772
H371	H	1.201147	-0.179631	0.499772
H372	H	1.451147	0.070369	0.749772
H373	H	0.624755	-0.018218	-0.000148
H374	H	0.874755	0.231782	0.249852
H375	H	1.124755	0.481782	0.499852
H376	H	1.374755	0.731782	0.749852
H377	H	0.939293	-0.134431	-0.000220
H378	H	1.189293	0.115569	0.249780
H379	H	1.439293	0.365569	0.499780
H380	H	1.689293	0.615569	0.749780
H381	H	0.906158	0.006613	0.185228
H382	H	1.156158	0.256613	0.435228
H383	H	1.406158	0.506613	0.685228
H384	H	1.656158	0.756613	0.935228
H385	H	0.906167	0.006612	0.328185
H386	H	1.156167	0.256612	0.578185
H387	H	1.406167	0.506612	0.828185
H388	H	1.656167	0.756612	1.078185
H389	H	0.837101	-0.022444	0.428315
H390	H	1.087101	0.227556	0.678315
H391	H	1.337101	0.477556	0.928315
H392	H	1.587101	0.727556	1.178315
H393	H	0.937355	-0.266541	-0.000239
H394	H	1.187355	-0.016541	0.249761
H395	H	1.437355	0.233459	0.499761
H396	H	1.687355	0.483459	0.749761
H397	H	0.707661	-0.235620	-0.000192
H398	H	0.957661	0.014380	0.249808
H399	H	1.207661	0.264380	0.499808
H400	H	1.457661	0.514380	0.749808
