data_functionalizedCrystal
_audit_creation_method	'MofGen! by Chris Wilmer'
_symmetry_space_group_name_H-M	'P1'
_symmetry_Int_Tables_number	1
_symmetry_cell_setting	triclinic
loop_
_symmetry_equiv_pos_as_xyz
  x,y,z
_cell_length_a	10.489741
_cell_length_b	14.044220
_cell_length_c	13.101039
_cell_angle_alpha	86.330374
_cell_angle_beta	93.389339
_cell_angle_gamma	88.864026
loop_
_atom_site_label
_atom_site_type_symbol
_atom_site_fract_x
_atom_site_fract_y
_atom_site_fract_z
O1	O	1.714049	0.128652	0.085148
O2	O	1.344129	0.141214	0.085164
O3	O	1.523536	-0.003089	0.085152
O4	O	1.534642	0.272955	0.085161
O5	O	1.510666	0.007281	-0.085277
O6	O	1.331259	0.151585	-0.085265
O7	O	1.701179	0.139023	-0.085281
Zn8	Zn	1.514176	0.146950	-0.112332
Zn9	Zn	1.531133	0.133286	0.112215
O10	O	1.521772	0.283326	-0.085268
C11	C	1.290066	0.145450	-0.000048
C12	C	1.148149	0.142611	-0.000042
C13	C	1.512240	-0.033252	-0.000061
C14	C	1.497741	-0.138577	-0.000058
N15	N	1.502612	0.156275	-0.265580
C16	C	1.070696	0.050796	-0.000055
C17	C	0.989314	0.089055	0.083975
C18	C	0.976661	0.099302	-0.084055
C19	C	1.068642	0.180904	0.084057
C20	C	1.055991	0.191143	-0.084049
C21	C	0.974645	0.229468	0.000002
C22	C	1.755242	0.134786	-0.000066
C23	C	1.897160	0.137625	-0.000065
C24	C	1.533068	0.313488	-0.000053
C25	C	1.547568	0.418813	-0.000050
C26	C	1.574076	0.611655	-0.000056
C27	C	1.471239	0.668586	-0.000052
C28	C	1.485988	0.775891	-0.000055
C29	C	1.559329	0.504341	-0.000052
C30	C	1.486880	0.168971	-0.474621
C31	C	1.558433	0.111262	-0.525502
C32	C	1.549680	0.118325	-0.641820
C33	C	1.495632	0.161908	-0.358293
N34	N	1.542706	0.123954	0.265463
H35	H	1.112738	-0.024690	0.000048
H36	H	1.419053	0.223679	-0.518414
O37	O	1.692222	0.649801	-0.000116
C38	C	1.814827	0.793092	-0.000080
C39	C	1.680955	0.750005	-0.000030
H40	H	1.805764	0.874111	0.000011
H41	H	1.863539	0.772922	-0.071428
H42	H	1.874299	0.764126	0.071221
H43	H	1.621380	0.778948	-0.071283
H44	H	1.632343	0.770169	0.071364
O45	O	1.639085	0.045900	-0.473102
C46	C	1.721003	-0.021131	-0.307706
C47	C	1.629803	0.053057	-0.366925
H48	H	1.713509	-0.015384	-0.221852
H49	H	1.823279	-0.007170	-0.328495
H50	H	1.693670	-0.095817	-0.328941
H51	H	1.657019	0.127771	-0.345722
H52	H	1.527550	0.039012	-0.346131
H53	H	0.959724	0.045883	0.155014
O54	O	1.091561	0.242617	-0.168719
C55	C	1.266067	0.303560	-0.263099
C56	C	1.225957	0.245273	-0.167143
H57	H	1.374729	0.305710	-0.261868
H58	H	1.224979	0.379379	-0.263839
H59	H	1.228174	0.268682	-0.334673
H60	H	1.263839	0.280068	-0.095518
H61	H	1.267029	0.169457	-0.166494
O62	O	1.116728	0.221988	0.168877
C63	C	1.305263	0.270810	0.264013
C64	C	1.250975	0.224250	0.167925
H65	H	1.413806	0.272673	0.263264
H66	H	1.277375	0.227579	0.335570
H67	H	1.264775	0.346718	0.264304
H68	H	1.291435	0.148347	0.167534
H69	H	1.278852	0.267553	0.096410
H70	H	0.932888	0.305024	0.000050
O71	O	1.352910	0.630719	-0.000191
C72	C	1.145561	0.623499	-0.088528
C73	C	1.279502	0.666477	-0.088480
H74	H	1.086182	0.652376	-0.159913
H75	H	1.096765	0.643768	-0.017254
H76	H	1.154614	0.542470	-0.088479
H77	H	1.270564	0.747510	-0.088565
H78	H	1.328250	0.646132	-0.159747
O79	O	0.928759	0.057970	-0.168778
C80	C	0.923410	-0.082975	-0.264462
C81	C	0.977771	-0.036266	-0.168492
H82	H	0.962992	-0.159178	-0.264252
H83	H	0.952103	-0.040283	-0.336110
H84	H	0.814801	-0.084058	-0.264036
H85	H	1.086383	-0.035174	-0.168819
H86	H	0.948978	-0.078973	-0.096887
