data_functionalizedCrystal
_audit_creation_method	'MofGen! by Chris Wilmer'
_symmetry_space_group_name_H-M	'P1'
_symmetry_Int_Tables_number	1
_symmetry_cell_setting	triclinic
loop_
_symmetry_equiv_pos_as_xyz
  x,y,z
_cell_length_a	17.640280
_cell_length_b	15.297621
_cell_length_c	15.298259
_cell_angle_alpha	91.630989
_cell_angle_beta	71.449796
_cell_angle_gamma	112.533812
loop_
_atom_site_label
_atom_site_type_symbol
_atom_site_fract_x
_atom_site_fract_y
_atom_site_fract_z
Zn1	Zn	-0.423614	-1.364896	-0.648319
Zn2	Zn	-0.593397	-1.434784	-0.470403
Zn3	Zn	-0.431860	-1.245918	-0.475013
Zn4	Zn	-0.545641	-1.250471	-0.600376
O5	O	-0.498628	-1.324017	-0.548528
O6	O	-0.462671	-1.501095	-0.642853
O7	O	-0.595405	-1.437074	-0.344092
O8	O	-0.312094	-1.230546	-0.519996
O9	O	-0.587409	-1.552442	-0.512139
O10	O	-0.306036	-1.317959	-0.647323
O11	O	-0.476725	-1.298314	-0.347479
O12	O	-0.430419	-1.119593	-0.473508
O13	O	-0.506018	-1.238306	-0.733658
O14	O	-0.514013	-1.122938	-0.565611
O15	O	-0.416365	-1.322374	-0.768882
O16	O	-0.705734	-1.441489	-0.465651
O17	O	-0.670649	-1.306074	-0.561141
C18	C	-0.467929	-1.088355	-0.514857
C19	C	-0.454813	-0.987538	-0.500471
C20	C	-0.718961	-1.381880	-0.507716
C21	C	-0.813226	-1.406710	-0.490299
C22	C	-0.592353	-0.710587	-0.651318
C23	C	-0.604683	-0.805312	-0.664831
C24	C	-0.567216	-0.850873	-0.623743
C25	C	-0.517417	-0.801700	-0.569138
C26	C	-0.505091	-0.706969	-0.555617
C27	C	-0.479955	-0.847255	-0.528042
C28	C	-0.430156	-0.798082	-0.473437
C29	C	-0.417832	-0.703360	-0.459920
C30	C	-0.455298	-0.657799	-0.501008
C31	C	-0.492281	-0.941986	-0.541562
C32	C	-0.405020	-0.938368	-0.445862
C33	C	-0.392689	-0.843643	-0.432349
C34	C	-1.032082	-1.135685	-0.681227
C35	C	-1.120664	-1.159025	-0.664832
C36	C	-1.157121	-1.300078	-0.565526
C37	C	-1.068540	-1.276753	-0.581916
C38	C	-1.006028	-1.194554	-0.639766
C39	C	-1.042486	-1.335622	-0.540455
C40	C	-0.953913	-1.312296	-0.556840
C41	C	-0.891395	-1.230099	-0.614686
C42	C	-0.917455	-1.171228	-0.656151
C43	C	-1.105000	-1.417817	-0.482600
C44	C	-1.078945	-1.476686	-0.441139
C45	C	-0.990371	-1.453364	-0.457529
C46	C	-0.927853	-1.371167	-0.515375
C47	C	-0.964312	-1.512235	-0.416064
C48	C	-0.875739	-1.488909	-0.432449
C49	C	-0.839281	-1.347841	-0.531760
C50	C	-0.277434	-1.265949	-0.589522
C51	C	-0.183174	-1.241204	-0.606991
C52	C	-0.454944	-1.273052	-0.785100
C53	C	-0.436329	-1.251334	-0.885913
C54	C	-0.529442	-0.560600	-0.582323
C55	C	-0.542560	-0.661417	-0.596709
C56	C	-0.631026	-1.479098	-1.163026
C57	C	-0.648520	-1.499500	-1.068305
C58	C	-0.595474	-1.437461	-1.022703
C59	C	-0.524930	-1.355015	-1.071830
C60	C	-0.507437	-1.334607	-1.166558
C61	C	-0.471886	-1.292970	-1.026235
C62	C	-0.401342	-1.210524	-1.075362
C63	C	-0.383852	-1.190120	-1.170081
C64	C	-0.436898	-1.252160	-1.215683
C65	C	-0.489378	-1.313378	-0.931506
C66	C	-0.365790	-1.168887	-0.935038
C67	C	-0.348295	-1.148485	-1.029759
C68	C	-0.542087	-1.374820	-0.312895
C69	C	-0.560487	-1.396651	-0.212151
H70	H	-0.532827	-0.982013	-0.586023
O71	O	-0.652934	-0.853128	-0.717958
C72	C	-0.655814	-0.936709	-0.853551
C73	C	-0.601076	-0.882598	-0.793448
H74	H	-0.613904	-0.960533	-0.914609
H75	H	-0.713557	-1.001718	-0.810023
H76	H	-0.680494	-0.887869	-0.880549
H77	H	-0.576335	-0.931361	-0.766437
H78	H	-0.543377	-0.817579	-0.837015
O79	O	-0.369546	-0.655752	-0.406741
C80	C	-0.352908	-0.649110	-0.256033
C81	C	-0.407654	-0.703115	-0.316166
H82	H	-0.383706	-0.687370	-0.182785
H83	H	-0.284014	-0.646359	-0.287327
H84	H	-0.350503	-0.573569	-0.253459
H85	H	-0.410129	-0.778680	-0.318763
H86	H	-0.476519	-0.705788	-0.284849
O87	O	-1.145822	-1.101756	-0.705222
C88	C	-1.100312	-0.959347	-0.805416
C89	C	-1.071699	-1.024129	-0.759754
H90	H	-1.040400	-0.896560	-0.849499
H91	H	-1.138352	-1.001575	-0.851217
H92	H	-1.143379	-0.931914	-0.749273
H93	H	-1.028601	-1.051578	-0.815833
H94	H	-1.033706	-0.981859	-0.713932
O95	O	-1.217768	-1.380011	-0.509412
C96	C	-1.273017	-1.550908	-0.482598
C97	C	-1.204271	-1.460459	-0.546215
H98	H	-1.262140	-1.615974	-0.512340
H99	H	-1.267066	-1.546296	-0.410397
H100	H	-1.340788	-1.557414	-0.477990
H101	H	-1.136470	-1.453897	-0.550901
H102	H	-1.210300	-1.465110	-0.618382
O103	O	-0.315273	-1.110011	-1.217673
C104	C	-0.194567	-0.968821	-1.211165
C105	C	-0.272191	-1.059521	-1.157163
H106	H	-0.159725	-0.927964	-1.162261
H107	H	-0.147404	-0.989219	-1.269659
H108	H	-0.219148	-0.922097	-1.241547
H109	H	-0.247690	-1.106287	-1.126720
H110	H	-0.319338	-1.039055	-1.098717
H111	H	-0.788379	-1.280911	-0.578875
H112	H	-0.352143	-0.803594	-0.387889
H113	H	-0.981180	-1.068756	-0.728342
O114	O	-1.139561	-1.556545	-0.384891
C115	C	-1.166370	-1.694040	-0.288172
C116	C	-1.097636	-1.603614	-0.351833
H117	H	-1.132500	-1.732131	-0.261442
H118	H	-1.211217	-1.673647	-0.227035
H119	H	-1.206285	-1.743322	-0.328969
H120	H	-1.057660	-1.554291	-0.311115
H121	H	-1.052850	-1.624076	-0.412971
H122	H	-0.819275	-1.211104	-0.628018
H123	H	-1.177120	-1.436808	-0.469264
O124	O	-0.856836	-1.091332	-0.712355
C125	C	-0.830007	-0.953924	-0.809210
C126	C	-0.898747	-1.044355	-0.745561
H127	H	-0.863864	-0.915928	-0.836091
H128	H	-0.790105	-0.904527	-0.768464
H129	H	-0.785149	-0.974410	-0.870251
H130	H	-0.943662	-1.023956	-0.684509
H131	H	-0.938585	-1.093728	-0.786374
O132	O	-0.279818	-1.068302	-1.077358
C133	C	-0.213224	-0.896960	-1.091975
C134	C	-0.290812	-0.987689	-1.037975
H135	H	-0.222095	-0.831760	-1.060166
H136	H	-0.150336	-0.898874	-1.088276
H137	H	-0.209831	-0.893081	-1.167512
H138	H	-0.294288	-0.991626	-0.962417
H139	H	-0.353663	-0.985737	-1.041751
H140	H	-0.374513	-0.975464	-0.412402
H141	H	-1.015222	-1.579156	-0.368955
O142	O	-0.682434	-1.539407	-1.207401
C143	C	-0.690043	-1.641761	-1.329778
C144	C	-0.631721	-1.573496	-1.279591
H145	H	-0.649063	-1.669326	-1.388166
H146	H	-0.743454	-1.704249	-1.278455
H147	H	-0.720787	-1.602186	-1.359905
H148	H	-0.600918	-1.612988	-1.249461
H149	H	-0.578361	-1.511010	-1.330951
H150	H	-0.322596	-1.118368	-0.897909
O151	O	-0.579344	-0.942927	-0.636839
C152	C	-0.682620	-1.105271	-0.617692
C153	C	-0.669012	-1.001053	-0.602817
H154	H	-0.755112	-1.152298	-0.590175
H155	H	-0.655563	-1.111330	-0.694874
H156	H	-0.647243	-1.129348	-0.578977
H157	H	-0.704388	-0.976909	-0.641476
H158	H	-0.696045	-0.995053	-0.525617
H159	H	-0.854526	-1.536846	-0.398686
O160	O	-0.557991	-1.393426	-0.883862
C161	C	-0.713338	-1.481533	-0.834394
C162	C	-0.635706	-1.390840	-0.888399
H163	H	-0.776191	-1.479464	-0.838027
H164	H	-0.704606	-1.546781	-0.866235
H165	H	-0.716689	-1.485468	-0.758875
H166	H	-0.632309	-1.386813	-0.963925
H167	H	-0.644470	-1.325636	-0.856483
O168	O	-0.628653	-0.666176	-0.691189
C169	C	-0.648384	-0.521863	-0.712713
C170	C	-0.607202	-0.572036	-0.667521
H171	H	-0.631072	-0.445749	-0.693578
H172	H	-0.622504	-0.520778	-0.791284
H173	H	-0.722124	-0.561951	-0.686678
H174	H	-0.533460	-0.531988	-0.693481
H175	H	-0.633151	-0.573132	-0.588954
O176	O	-0.443354	-0.565819	-0.487700
C177	C	-0.463430	-0.454321	-0.377280
C178	C	-0.476992	-0.558517	-0.392224
H179	H	-0.490635	-0.448386	-0.300093
H180	H	-0.390942	-0.407247	-0.404634
H181	H	-0.498727	-0.430200	-0.416069
H182	H	-0.441746	-0.582726	-0.353437
H183	H	-0.549495	-0.605528	-0.364896
O184	O	-0.717048	-1.579649	-1.020736
C185	C	-0.837807	-1.720788	-1.027226
C186	C	-0.760215	-1.630056	-1.081214
H187	H	-0.872740	-1.761557	-1.076094
H188	H	-0.813280	-1.767612	-0.996899
H189	H	-0.884882	-1.700324	-0.968690
H190	H	-0.713110	-1.650434	-1.139791
H191	H	-0.784804	-1.583256	-1.111473
H192	H	-0.609723	-1.454077	-0.945577
H193	H	-0.422656	-1.235555	-1.292813
