data_functionalizedCrystal
_audit_creation_method	'MofGen! by Chris Wilmer'
_symmetry_space_group_name_H-M	'P1'
_symmetry_Int_Tables_number	1
_symmetry_cell_setting	triclinic
loop_
_symmetry_equiv_pos_as_xyz
  x,y,z
_cell_length_a	15.995355
_cell_length_b	14.472311
_cell_length_c	15.995343
_cell_angle_alpha	90.013007
_cell_angle_beta	96.508305
_cell_angle_gamma	89.999070
loop_
_atom_site_label
_atom_site_type_symbol
_atom_site_fract_x
_atom_site_fract_y
_atom_site_fract_z
O1	O	-1.110980	0.076761	0.107949
O2	O	-0.610980	0.576761	0.607949
O3	O	-0.867205	0.076784	0.121273
O4	O	-0.367205	0.576784	0.621273
O5	O	-0.995760	0.076755	-0.007277
O6	O	-0.495760	0.576755	0.492723
O7	O	-0.982426	0.076790	0.236499
O8	O	-0.482426	0.576790	0.736499
O9	O	-0.995748	-0.076927	-0.007290
O10	O	-0.495748	0.423073	0.492710
O11	O	-0.867194	-0.076898	0.121260
O12	O	-0.367194	0.423102	0.621260
O13	O	-1.110969	-0.076921	0.107937
O14	O	-0.610969	0.423079	0.607937
Cu15	Cu	-0.989080	-0.090942	0.114597
Cu16	Cu	-0.489080	0.409058	0.614597
Cu17	Cu	-0.989094	0.090805	0.114612
Cu18	Cu	-0.489094	0.590805	0.614612
O19	O	-0.982414	-0.076892	0.236486
O20	O	-0.482414	0.423108	0.736486
C21	C	-0.836005	-0.000054	0.120715
C22	C	-0.336005	0.499946	0.620715
C23	C	-0.743055	-0.000046	0.119062
C24	C	-0.243055	0.499954	0.619062
C25	C	-0.572869	-0.000060	0.116061
C26	C	-0.072869	0.499940	0.616061
C27	C	-0.549526	-0.000073	0.023262
C28	C	-0.049526	0.499927	0.523262
C29	C	-0.452849	-0.000428	0.021512
C30	C	0.047151	0.499572	0.521512
C31	C	-0.405311	-0.000072	0.113105
C32	C	0.094689	0.499928	0.613105
C33	C	-0.434394	-0.087650	0.159759
C34	C	0.065606	0.412350	0.659759
C35	C	-0.531186	-0.087718	0.160864
C36	C	-0.031186	0.412282	0.660864
C37	C	-0.531110	0.087053	0.162237
C38	C	-0.031110	0.587053	0.662237
C39	C	-0.434615	0.088198	0.158807
C40	C	0.065385	0.588198	0.658807
C41	C	-0.310613	-0.000082	0.111439
C42	C	0.189387	0.499918	0.611439
C43	C	-0.667567	-0.000056	0.117729
C44	C	-0.167567	0.499944	0.617729
N45	N	-0.989077	-0.218773	0.114586
N46	N	-0.489077	0.281227	0.614586
C47	C	-0.989086	-0.407273	0.114597
C48	C	-0.489086	0.092727	0.614597
C49	C	-1.057889	-0.446490	0.045836
C50	C	-0.557889	0.053510	0.545836
C51	C	-1.058138	-0.553578	0.046019
C52	C	-0.558138	-0.053578	0.546019
C53	C	-0.989095	-0.592864	0.114606
C54	C	-0.489095	-0.092864	0.614606
C55	C	-1.007813	-0.553960	0.202079
C56	C	-0.507813	-0.053960	0.702079
C57	C	-1.008301	-0.446838	0.201671
C58	C	-0.508301	0.053162	0.701671
C59	C	-0.901359	-0.446759	0.096672
C60	C	-0.401359	0.053241	0.596672
C61	C	-0.901952	-0.553888	0.094692
C62	C	-0.401952	-0.053888	0.594692
C63	C	-0.989098	-0.697752	0.114616
C64	C	-0.489098	-0.197752	0.614616
C65	C	-0.989084	-0.302385	0.114592
C66	C	-0.489084	0.197615	0.614592
C67	C	-0.142171	-0.000081	0.108483
C68	C	0.357829	0.499919	0.608483
C69	C	-0.235125	-0.000085	0.110104
C70	C	0.264875	0.499915	0.610104
C71	C	-0.995204	-0.000089	-0.038478
C72	C	-0.495204	0.499911	0.461522
C73	C	-0.993555	-0.000096	-0.131429
C74	C	-0.493555	0.499904	0.368571
N75	N	-0.989104	0.218636	0.114616
N76	N	-0.489104	0.718636	0.614616
C77	C	-0.990561	-0.000074	-0.301615
C78	C	-0.490561	0.499926	0.198385
C79	C	-0.897764	-0.000064	-0.324962
C80	C	-0.397764	0.499936	0.175038
C81	C	-0.896019	0.000296	-0.421640
C82	C	-0.396019	0.500296	0.078360
C83	C	-0.987613	-0.000054	-0.469175
C84	C	-0.487613	0.499946	0.030825
C85	C	-1.034279	0.087525	-0.440068
C86	C	-0.534279	0.587525	0.059932
C87	C	-1.035380	0.087588	-0.343276
C88	C	-0.535380	0.587588	0.156724
C89	C	-1.036725	-0.087184	-0.343394
C90	C	-0.536725	0.412816	0.156606
C91	C	-1.033299	-0.088324	-0.439890
C92	C	-0.533299	0.411676	0.060110
C93	C	-0.985951	-0.000040	-0.563874
C94	C	-0.485951	0.499960	-0.063874
C95	C	-0.992226	-0.000083	-0.206917
C96	C	-0.492226	0.499917	0.293083
C97	C	-0.982970	-0.000046	0.267688
C98	C	-0.482970	0.499954	0.767688
C99	C	-0.984619	-0.000033	0.360638
C100	C	-0.484619	0.499967	0.860638
H101	H	-0.416064	0.152990	0.124831
H102	H	0.083936	0.652990	0.624831
H103	H	-1.003449	0.153310	-0.316480
H104	H	-0.503449	0.653310	0.183520
H105	H	-1.101690	0.090530	-0.471913
H106	H	-0.601690	0.590530	0.028087
H107	H	-0.577539	0.062720	-0.012700
H108	H	-0.077539	0.562720	0.487300
Br109	Br	-0.816027	-0.404487	0.180242
Br110	Br	-0.316027	0.095513	0.680242
Br111	Br	-0.835130	-0.104319	-0.453364
Br112	Br	-0.335130	0.395681	0.046636
Br113	Br	-0.812659	-0.598446	0.172722
Br114	Br	-0.312659	-0.098446	0.672722
H115	H	-1.071048	-0.580785	0.218202
H116	H	-0.571048	-0.080785	0.718202
H117	H	-0.401657	0.093768	0.225639
H118	H	0.098343	0.593768	0.725639
Br119	Br	-0.578235	0.197732	0.113450
Br120	Br	-0.078235	0.697732	0.613450
H121	H	-0.999316	-0.153117	-0.458461
H122	H	-0.499316	0.346883	0.041539
Br123	Br	-1.165799	-0.401623	0.064706
Br124	Br	-0.665799	0.098377	0.564706
Br125	Br	-0.837798	-0.104726	-0.278296
Br126	Br	-0.337798	0.395274	0.221704
Br127	Br	-0.554418	0.088449	0.276096
Br128	Br	-0.054418	0.588449	0.776096
H129	H	-1.123248	-0.579202	0.057508
H130	H	-0.623248	-0.079202	0.557508
Br131	Br	-0.871231	-0.401762	-0.007405
Br132	Br	-0.371231	0.098238	0.492595
Br133	Br	-1.148801	0.093764	-0.318977
Br134	Br	-0.648801	0.593764	0.181023
Br135	Br	-0.597826	-0.104609	-0.035724
Br136	Br	-0.097826	0.395391	0.464276
Br137	Br	-0.575828	-0.197264	0.107630
Br138	Br	-0.075828	0.302736	0.607630
Br139	Br	-0.838793	0.104467	-0.276640
Br140	Br	-0.338793	0.604467	0.223360
H141	H	-0.859673	0.063455	-0.440068
H142	H	-0.359673	0.563455	0.059932
H143	H	-1.002269	0.152958	-0.460149
H144	H	-0.502269	0.652958	0.039851
H145	H	-1.047046	-0.579884	-0.018993
H146	H	-0.547046	-0.079884	0.481007
H147	H	-1.007443	-0.153590	-0.315136
H148	H	-0.507443	0.346410	0.184864
H149	H	-0.887741	-0.579317	0.030342
H150	H	-0.387741	-0.079317	0.530342
Br151	Br	-1.114916	-0.405183	0.227914
Br152	Br	-0.614916	0.094817	0.727914
H153	H	-1.100135	-0.093882	-0.472838
H154	H	-0.600135	0.406118	0.027162
Br155	Br	-1.150568	-0.088607	-0.320036
Br156	Br	-0.650568	0.411393	0.179964
H157	H	-0.433836	0.062339	-0.015009
H158	H	0.066164	0.562339	0.484991
H159	H	-1.046993	-0.420728	-0.019391
H160	H	-0.546993	0.079272	0.480609
H161	H	-0.434409	-0.063585	-0.014848
H162	H	0.065591	0.436415	0.485152
H163	H	-0.959938	-0.420893	0.254270
H164	H	-0.459938	0.079107	0.754270
H165	H	-0.545757	-0.091453	0.228915
H166	H	-0.045757	0.408547	0.728915
Br167	Br	-0.400903	-0.196714	0.106392
Br168	Br	0.099097	0.303286	0.606392
Br169	Br	-0.926485	-0.596359	0.289448
Br170	Br	-0.426485	-0.096359	0.789448
Br171	Br	-0.381317	-0.092658	0.272114
Br172	Br	0.118683	0.407342	0.772114
