data_functionalizedCrystal
_audit_creation_method	'MofGen! by Chris Wilmer'
_symmetry_space_group_name_H-M	'P1'
_symmetry_Int_Tables_number	1
_symmetry_cell_setting	triclinic
loop_
_symmetry_equiv_pos_as_xyz
  x,y,z
_cell_length_a	14.971507
_cell_length_b	15.500346
_cell_length_c	14.971486
_cell_angle_alpha	93.167011
_cell_angle_beta	96.381605
_cell_angle_gamma	86.820176
loop_
_atom_site_label
_atom_site_type_symbol
_atom_site_fract_x
_atom_site_fract_y
_atom_site_fract_z
O1	O	-1.190648	0.071966	0.120349
O2	O	-0.930250	0.071963	0.134288
O3	O	-1.067428	0.071958	-0.002882
O4	O	-1.053470	0.071970	0.257518
O5	O	-1.059989	-0.071928	-0.010278
O6	O	-0.922811	-0.071924	0.126892
O7	O	-1.183209	-0.071921	0.112953
Cu8	Cu	-1.052331	-0.085060	0.119247
Cu9	Cu	-1.061128	0.085102	0.127993
O10	O	-1.046031	-0.071916	0.250122
C11	C	-0.893206	0.000019	0.129963
C12	C	-0.793910	0.000018	0.128085
C13	C	-0.355628	0.000024	0.201502
C14	C	-0.448928	0.000029	0.203260
C15	C	-0.506148	0.000022	0.122668
C16	C	-0.470063	0.000019	0.040312
C17	C	-0.376765	0.000020	0.038555
C18	C	-0.664526	0.000015	0.043979
C19	C	-0.757831	0.000012	0.045736
C20	C	-0.736690	0.000024	0.208684
C21	C	-0.643391	0.000025	0.206927
C22	C	-0.607313	0.000020	0.124571
C23	C	-0.220253	0.000022	0.117277
C24	C	-0.319549	0.000018	0.119153
N25	N	-1.046150	-0.204744	0.113095
C26	C	-1.063084	0.000015	-0.039904
C27	C	-1.061214	0.000016	-0.139202
C28	C	-1.015352	-0.749924	0.082139
C29	C	-1.020021	-0.659352	0.086827
C30	C	-1.076650	-0.614073	0.143519
C31	C	-1.128621	-0.659370	0.195521
C32	C	-1.123956	-0.749940	0.190828
C33	C	-1.093456	-0.340611	0.160403
C34	C	-1.098114	-0.250034	0.165094
C35	C	-0.989515	-0.250023	0.056398
C36	C	-0.984851	-0.340594	0.051714
C37	C	-1.036825	-0.385883	0.103712
C38	C	-1.081422	-0.521494	0.148314
C39	C	-1.032058	-0.478460	0.098912
N40	N	-1.067317	0.204786	0.134139
C41	C	-1.141802	0.000016	-0.196421
C42	C	-1.140039	0.000025	-0.289720
C43	C	-1.057687	0.000027	-0.325798
C44	C	-0.977093	0.000029	-0.268572
C45	C	-0.978856	0.000027	-0.175274
C46	C	-0.973422	0.000033	-0.463034
C47	C	-0.971657	0.000033	-0.556338
C48	C	-1.134605	0.000031	-0.577480
C49	C	-1.136369	0.000028	-0.484183
C50	C	-1.055774	0.000029	-0.426962
C51	C	-1.050375	0.000029	0.287145
C52	C	-1.052246	0.000034	0.386442
H53	H	-0.635155	0.000015	-0.023083
F54	F	-1.158410	-0.201847	0.225417
F55	F	-0.934206	-0.201816	0.001060
F56	F	-1.220381	0.000034	-0.638379
F57	F	-0.884009	0.000035	-0.594734
F58	F	-1.225813	0.000024	-0.350614
F59	F	-1.179268	-0.798141	0.246170
H60	H	-0.804418	0.000013	-0.019890
H61	H	-0.516659	0.000019	-0.025307
F62	F	-1.188895	-0.611178	0.255853
F63	F	-0.887643	0.000035	-0.402138
F64	F	-1.141688	-0.473297	0.208651
H65	H	-0.910040	0.000037	-0.297954
H66	H	-1.135776	-0.377474	0.202745
H67	H	-0.985953	-0.515331	0.052750
H68	H	-0.913233	0.000027	-0.128686
H69	H	-1.203427	0.000020	-0.454811
H70	H	-0.309045	0.000023	0.267130
F71	F	-0.487322	0.000040	0.290908
H72	H	-0.347392	0.000017	-0.028502
H73	H	-0.977708	-0.622480	0.044480
H74	H	-0.596804	0.000025	0.272553
H75	H	-1.208863	0.000009	-0.167054
H76	H	-0.766069	0.000027	0.275741
H77	H	-0.969233	-0.786783	0.035979
H78	H	-0.938739	-0.377454	0.005548
