data_functionalizedCrystal
_audit_creation_method	'MofGen! by Chris Wilmer'
_symmetry_space_group_name_H-M	'P1'
_symmetry_Int_Tables_number	1
_symmetry_cell_setting	triclinic
loop_
_symmetry_equiv_pos_as_xyz
  x,y,z
_cell_length_a	16.120530
_cell_length_b	16.120297
_cell_length_c	11.169416
_cell_angle_alpha	87.121464
_cell_angle_beta	92.893829
_cell_angle_gamma	90.128140
loop_
_atom_site_label
_atom_site_type_symbol
_atom_site_fract_x
_atom_site_fract_y
_atom_site_fract_z
Zn1	Zn	1.247535	-0.534608	0.608055
Zn2	Zn	1.580868	-0.201275	0.941388
Zn3	Zn	1.914202	0.132058	1.274722
Zn4	Zn	1.254516	-0.395564	0.799118
Zn5	Zn	1.587849	-0.062231	1.132452
Zn6	Zn	1.921182	0.271102	1.465785
Zn7	Zn	1.115522	-0.388525	0.587774
Zn8	Zn	1.448856	-0.055192	0.921107
Zn9	Zn	1.782189	0.278142	1.254441
Zn10	Zn	1.108472	-0.527534	0.798013
Zn11	Zn	1.441805	-0.194200	1.131346
Zn12	Zn	1.775139	0.139133	1.464680
O13	O	1.181511	-0.461558	0.698240
O14	O	1.514845	-0.128225	1.031573
O15	O	1.848178	0.205109	1.364907
O16	O	1.364829	-0.522071	0.642350
O17	O	1.698162	-0.188737	0.975684
O18	O	2.031495	0.144596	1.309017
O19	O	1.241950	-0.278265	0.763058
O20	O	1.575283	0.055069	1.096391
O21	O	1.908617	0.388402	1.429725
O22	O	1.133063	-0.407918	0.422518
O23	O	1.466397	-0.074585	0.755851
O24	O	1.799730	0.258749	1.089184
O25	O	1.369957	-0.419916	0.782724
O26	O	1.703291	-0.086582	1.116057
O27	O	2.036624	0.246751	1.449390
O28	O	1.230053	-0.515245	0.437418
O29	O	1.563386	-0.181911	0.770752
O30	O	1.896719	0.151422	1.104085
O31	O	1.139832	-0.273093	0.607784
O32	O	1.473165	0.060241	0.941117
O33	O	1.806499	0.393574	1.274451
O34	O	0.998219	-0.401058	0.606712
O35	O	1.331553	-0.067725	0.940046
O36	O	1.664886	0.265609	1.273379
O37	O	1.121047	-0.644838	0.780840
O38	O	1.454380	-0.311505	1.114173
O39	O	1.787714	0.021828	1.447507
O40	O	0.993039	-0.503187	0.761174
O41	O	1.326373	-0.169854	1.094507
O42	O	1.659706	0.163480	1.427841
O43	O	1.223216	-0.650036	0.641279
O44	O	1.556549	-0.316703	0.974612
O45	O	1.889883	0.016631	1.307945
O46	O	1.235113	-0.413056	0.966918
O47	O	1.568447	-0.079722	1.300252
O48	O	1.901780	0.253611	1.633585
O49	O	1.127816	-0.510013	0.966106
O50	O	1.461149	-0.176680	1.299440
O51	O	1.794482	0.156654	1.632773
C52	C	0.965457	-0.450591	0.681623
C53	C	1.298790	-0.117258	1.014957
C54	C	1.632123	0.216075	1.348290
C55	C	0.873026	-0.445920	0.674545
C56	C	1.206360	-0.112586	1.007878
C57	C	1.539693	0.220747	1.341212
C58	C	0.703795	-0.437397	0.661594
C59	C	1.037128	-0.104064	0.994927
C60	C	1.370461	0.229269	1.328261
C61	C	0.660065	-0.485779	0.734979
C62	C	0.993398	-0.152446	1.068312
C63	C	1.326732	0.180887	1.401645
C64	C	0.565899	-0.481037	0.727773
C65	C	0.899232	-0.147704	1.061106
C66	C	1.232565	0.185629	1.394440
C67	C	0.797970	-0.442138	0.668798
C68	C	1.131303	-0.108805	1.002132
C69	C	1.464636	0.224529	1.335465
C70	C	1.170566	-0.678453	0.713198
C71	C	1.503900	-0.345120	1.046532
C72	C	1.837233	-0.011786	1.379865
C73	C	1.165902	-0.770881	0.719573
C74	C	1.499236	-0.437548	1.052906
C75	C	1.832569	-0.104214	1.386239
C76	C	1.157356	-0.940106	0.731181
C77	C	1.490690	-0.606773	1.064515
C78	C	1.824023	-0.273440	1.397848
C79	C	1.205830	-0.983869	0.664952
C80	C	1.539163	-0.650536	0.998285
C81	C	1.872496	-0.317203	1.331619
C82	C	1.201075	-1.078032	0.671411
C83	C	1.534408	-0.744699	1.004744
C84	C	1.867741	-0.411366	1.338078
C85	C	1.162110	-0.845935	0.724724
C86	C	1.495444	-0.512602	1.058057
C87	C	1.828777	-0.179268	1.391390
C88	C	1.398410	-0.472568	0.714923
C89	C	1.731743	-0.139234	1.048256
C90	C	2.065076	0.194099	1.381589
C91	C	1.490839	-0.477259	0.722032
C92	C	1.824172	-0.143926	1.055365
C93	C	2.157505	0.189407	1.388698
C94	C	1.181479	-0.461550	1.010062
C95	C	1.514812	-0.128217	1.343395
C96	C	1.848145	0.205117	1.676728
C97	C	1.181539	-0.461578	1.143468
C98	C	1.514873	-0.128245	1.476802
C99	C	1.848206	0.205089	1.810135
C100	C	1.192461	-0.245509	0.683257
C101	C	1.525795	0.087824	1.016591
C102	C	1.859128	0.421158	1.349924
C103	C	1.197286	-0.153090	0.676557
C104	C	1.530620	0.180244	1.009891
C105	C	1.863953	0.513577	1.343224
C106	C	1.181566	-0.461585	0.385204
C107	C	1.514899	-0.128252	0.718537
C108	C	1.848232	0.205081	1.051870
C109	C	1.181589	-0.461597	0.251806
C110	C	1.514922	-0.128264	0.585140
C111	C	1.848256	0.205070	0.918473
H112	H	0.670514	-0.392418	0.593362
H113	H	1.003847	-0.059085	0.926695
H114	H	1.337181	0.274249	1.260028
H115	H	0.693348	-0.530763	0.803216
H116	H	1.026681	-0.197429	1.136549
H117	H	1.360015	0.135904	1.469883
Cl118	Cl	1.275435	-0.932536	0.569948
Cl119	Cl	1.608768	-0.599202	0.903281
Cl120	Cl	1.942101	-0.265869	1.236615
Cl121	Cl	1.087779	-0.991442	0.826213
Cl122	Cl	1.421112	-0.658109	1.159546
Cl123	Cl	1.754446	-0.324776	1.492880
