data_functionalizedCrystal
_audit_creation_method	'MofGen! by Chris Wilmer'
_symmetry_space_group_name_H-M	'P1'
_symmetry_Int_Tables_number	1
_symmetry_cell_setting	triclinic
loop_
_symmetry_equiv_pos_as_xyz
  x,y,z
_cell_length_a	14.853569
_cell_length_b	14.853559
_cell_length_c	14.586319
_cell_angle_alpha	89.998399
_cell_angle_beta	89.998466
_cell_angle_gamma	83.633509
loop_
_atom_site_label
_atom_site_type_symbol
_atom_site_fract_x
_atom_site_fract_y
_atom_site_fract_z
O1	O	1.196359	0.117710	-0.076194
O2	O	1.696359	0.617710	0.423806
O3	O	0.933899	0.131730	-0.076204
O4	O	1.433899	0.631730	0.423796
O5	O	1.072144	-0.006510	-0.076198
O6	O	1.572144	0.493490	0.423802
O7	O	1.058115	0.255950	-0.076200
O8	O	1.558115	0.755950	0.423800
O9	O	1.072134	-0.006512	0.076283
O10	O	1.572134	0.493488	0.576283
O11	O	0.933890	0.131728	0.076276
O12	O	1.433890	0.631728	0.576276
O13	O	1.196350	0.117708	0.076287
O14	O	1.696350	0.617708	0.576287
Cu15	Cu	1.065119	0.124718	0.090204
Cu16	Cu	1.565119	0.624718	0.590204
Cu17	Cu	1.065130	0.124720	-0.090122
Cu18	Cu	1.565130	0.624720	0.409878
O19	O	1.058105	0.255948	0.076281
O20	O	1.558105	0.755948	0.576281
C21	C	0.900306	0.131094	0.000035
C22	C	1.400306	0.631094	0.500035
C23	C	0.800222	0.129189	0.000031
C24	C	1.300222	0.629189	0.500031
C25	C	0.763848	0.046178	0.000028
C26	C	1.263848	0.546178	0.500028
C27	C	0.742554	0.210411	0.000037
C28	C	1.242554	0.710411	0.500037
C29	C	0.648520	0.208625	0.000038
C30	C	1.148520	0.708625	0.500038
C31	C	0.612146	0.125614	0.000035
C32	C	1.112146	0.625614	0.500035
C33	C	0.669806	0.044389	0.000032
C34	C	1.169806	0.544389	0.500032
C35	C	0.590853	0.289848	0.000051
C36	C	1.090853	0.789848	0.500051
C37	C	0.496812	0.288065	0.000053
C38	C	0.996812	0.788065	0.500053
C39	C	0.460437	0.205053	0.000044
C40	C	0.960437	0.705053	0.500044
C41	C	0.518103	0.123825	0.000039
C42	C	1.018103	0.623825	0.500039
C43	C	0.481729	0.040813	0.000037
C44	C	0.981729	0.540813	0.500037
C45	C	0.539394	-0.040416	0.000026
C46	C	1.039394	0.459584	0.500026
C47	C	0.633430	-0.038623	0.000023
C48	C	1.133430	0.461377	0.500023
C49	C	0.366401	0.203260	0.000047
C50	C	0.866401	0.703260	0.500047
C51	C	0.387687	0.039024	0.000041
C52	C	0.887687	0.539024	0.500041
C53	C	1.071505	-0.040100	0.000041
C54	C	1.571505	0.459900	0.500041
C55	C	1.069604	-0.140184	0.000036
C56	C	1.569604	0.359816	0.500036
C57	C	1.061546	-0.563358	-0.083082
C58	C	1.561546	-0.063358	0.416918
C59	C	1.061535	-0.563355	0.083158
C60	C	1.561535	-0.063355	0.583158
C61	C	1.063328	-0.469322	0.083159
C62	C	1.563328	0.030678	0.583159
C63	C	1.064229	-0.422302	0.000038
C64	C	1.564229	0.077698	0.500038
C65	C	1.063336	-0.469316	-0.083084
C66	C	1.563336	0.030684	0.416916
C67	C	1.064212	-0.422300	0.166280
C68	C	1.564212	0.077700	0.666280
C69	C	1.066004	-0.328261	0.166284
C70	C	1.566004	0.171739	0.666284
C71	C	1.066912	-0.281240	0.083162
C72	C	1.566912	0.218760	0.583162
C73	C	1.066020	-0.328260	0.000036
C74	C	1.566020	0.171740	0.500036
C75	C	1.066921	-0.281240	-0.083085
C76	C	1.566921	0.218760	0.416915
C77	C	1.066035	-0.328259	-0.166211
C78	C	1.566035	0.171741	0.333789
C79	C	1.064244	-0.422295	-0.166206
C80	C	1.564244	0.077705	0.333794
C81	C	1.068703	-0.187204	0.083157
C82	C	1.568703	0.312796	0.583157
C83	C	1.068711	-0.187198	-0.083086
C84	C	1.568711	0.312802	0.416914
C85	C	1.229943	0.118345	0.000046
C86	C	1.729943	0.618345	0.500046
C87	C	1.330027	0.120249	0.000044
C88	C	1.830027	0.620249	0.500044
C89	C	1.058744	0.289538	0.000040
C90	C	1.558744	0.789538	0.500040
C91	C	1.060645	0.389622	0.000039
C92	C	1.560645	0.889622	0.500039
N93	N	1.065117	0.124716	0.217036
N94	N	1.565117	0.624716	0.717036
N95	N	1.065139	0.124715	-0.216954
N96	N	1.565139	0.624715	0.283046
C97	C	1.126352	0.063523	0.452046
C98	C	1.626352	0.563523	0.952046
C99	C	1.126355	0.063521	0.548027
C100	C	1.626355	0.563521	1.048027
C101	C	1.003897	0.185911	0.548030
C102	C	1.503897	0.685911	1.048030
C103	C	1.003891	0.185908	0.452051
C104	C	1.503891	0.685908	0.952051
C105	C	1.065124	0.124715	0.404061
C106	C	1.565124	0.624715	0.904061
C107	C	1.065132	0.124716	0.596022
C108	C	1.565132	0.624716	1.096022
C109	C	1.065135	0.124714	0.700089
C110	C	1.565135	0.624714	1.200089
C111	C	1.065120	0.124716	0.299987
C112	C	1.565120	0.624716	0.799987
H113	H	0.620476	0.357431	0.000059
H114	H	1.120476	0.857431	0.500059
N115	N	1.192402	-0.002470	0.599782
N116	N	1.692402	0.497530	1.099782
H117	H	1.232353	0.032064	0.639599
H118	H	1.732353	0.532064	1.139599
H119	H	1.157847	-0.042437	0.639558
H120	H	1.657847	0.457563	1.139558
N121	N	0.937861	0.251907	0.599799
N122	N	1.437861	0.751907	1.099799
H123	H	0.972363	0.291889	0.639613
H124	H	1.472363	0.791889	1.139613
H125	H	0.899084	0.290610	0.554779
H126	H	1.399084	0.790610	1.054779
N127	N	0.500164	-0.129950	0.000020
N128	N	1.000164	0.370050	0.500020
H129	H	0.521186	-0.165545	0.056541
H130	H	1.021186	0.334455	0.556541
H131	H	0.431849	-0.118681	-0.000006
H132	H	0.931849	0.381319	0.499994
H133	H	0.810803	-0.019956	0.000015
H134	H	1.310803	0.480044	0.500015
N135	N	1.069669	-0.136494	0.172803
N136	N	1.569669	0.363506	0.672803
H137	H	1.070945	-0.069788	0.160191
H138	H	1.570945	0.430212	0.660191
H139	H	1.013508	-0.145687	0.209098
H140	H	1.513508	0.354313	0.709098
N141	N	1.192371	-0.002498	0.400286
N142	N	1.692371	0.497502	0.900286
H143	H	1.183076	0.006780	0.332201
H144	H	1.683076	0.506780	0.832201
H145	H	1.256343	0.008016	0.417050
H146	H	1.756343	0.508016	0.917050
N147	N	0.434597	0.375654	0.000064
N148	N	0.934597	0.875654	0.500064
H149	H	0.395111	0.378547	0.056593
H150	H	0.895111	0.878547	0.556593
H151	H	0.471949	0.428479	0.000035
H152	H	0.971949	0.928479	0.500035
H153	H	1.060828	-0.601645	-0.150761
H154	H	1.560828	-0.101645	0.349239
N155	N	0.304206	0.290859	0.000072
N156	N	0.804206	0.790859	0.500072
H157	H	0.341518	0.343717	0.000080
H158	H	0.841518	0.843717	0.500080
H159	H	0.264722	0.293707	-0.056452
H160	H	0.764722	0.793707	0.443548
N161	N	1.069691	-0.136487	-0.172740
N162	N	1.569691	0.363513	0.327260
H163	H	1.068859	-0.180544	-0.225394
H164	H	1.568859	0.319456	0.274606
H165	H	1.014589	-0.090232	-0.176368
H166	H	1.514589	0.409768	0.323632
N167	N	1.060573	-0.614069	0.172804
N168	N	1.560573	-0.114069	0.672804
H169	H	1.005044	-0.590469	0.209148
H170	H	1.505044	-0.090469	0.709148
H171	H	1.059338	-0.680762	0.160110
H172	H	1.559338	-0.180762	0.660110
N173	N	0.937841	0.251903	0.400288
N174	N	1.437841	0.751903	0.900288
H175	H	0.899054	0.290672	0.445252
H176	H	1.399054	0.790672	0.945252
H177	H	0.972395	0.291821	0.360455
H178	H	1.472395	0.791821	0.860455
N179	N	1.063262	-0.472993	-0.255862
N180	N	1.563262	0.027007	0.244138
H181	H	1.119413	-0.463875	-0.292210
H182	H	1.619413	0.036125	0.207790
H183	H	1.061946	-0.539679	-0.243181
H184	H	1.561946	-0.039679	0.256819
N185	N	1.063261	-0.473013	0.255926
N186	N	1.563261	0.026987	0.755926
H187	H	1.062007	-0.539721	0.243312
H188	H	1.562007	-0.039721	0.743312
H189	H	1.119424	-0.463805	0.292208
H190	H	1.619424	0.036195	0.792208
H191	H	0.358079	-0.028574	0.000034
H192	H	0.858079	0.471426	0.500034
H193	H	0.772176	0.277995	0.000045
H194	H	1.272176	0.777995	0.500045
N195	N	0.695623	-0.126228	0.000017
N196	N	1.195623	0.373772	0.500017
H197	H	0.760713	-0.112496	0.000022
H198	H	1.260713	0.387504	0.500022
H199	H	0.683832	-0.162400	0.056544
H200	H	1.183832	0.337600	0.556544
N201	N	1.066977	-0.277556	0.255937
N202	N	1.566977	0.222444	0.755937
H203	H	1.068252	-0.210850	0.243326
H204	H	1.568252	0.289150	0.743326
H205	H	1.010819	-0.286749	0.292236
H206	H	1.510819	0.213251	0.792236
H207	H	1.066762	-0.289962	-0.233888
H208	H	1.566762	0.210038	0.266112
