data_functionalizedCrystal
_audit_creation_method	'MofGen! by Chris Wilmer'
_symmetry_space_group_name_H-M	'P1'
_symmetry_Int_Tables_number	1
_symmetry_cell_setting	triclinic
loop_
_symmetry_equiv_pos_as_xyz
  x,y,z
_cell_length_a	14.908993
_cell_length_b	12.645323
_cell_length_c	14.908520
_cell_angle_alpha	93.267688
_cell_angle_beta	96.420918
_cell_angle_gamma	93.272088
loop_
_atom_site_label
_atom_site_type_symbol
_atom_site_fract_x
_atom_site_fract_y
_atom_site_fract_z
Zn1	Zn	1.363012	-0.526109	-0.280429
Zn2	Zn	1.863012	-0.026109	0.219571
Zn3	Zn	1.354163	-0.359695	-0.431814
Zn4	Zn	1.854163	0.140305	0.068186
Zn5	Zn	1.211637	-0.359701	-0.289205
Zn6	Zn	1.711637	0.140299	0.210795
Zn7	Zn	1.202880	-0.547745	-0.440495
Zn8	Zn	1.702880	-0.047745	0.059505
O9	O	1.282923	-0.448313	-0.360486
O10	O	1.782923	0.051687	0.139514
O11	O	1.488501	-0.494978	-0.293205
O12	O	1.988501	0.005022	0.206795
O13	O	1.335219	-0.211354	-0.412936
O14	O	1.835219	0.288646	0.087064
O15	O	1.239086	-0.372723	-0.161371
O16	O	1.739086	0.127277	0.338629
O17	O	1.482000	-0.372714	-0.404427
O18	O	1.982000	0.127286	0.095573
O19	O	1.350300	-0.494983	-0.154923
O20	O	1.850300	0.005017	0.345077
O21	O	1.230506	-0.211358	-0.308162
O22	O	1.730506	0.288642	0.191838
O23	O	1.083813	-0.393702	-0.316580
O24	O	1.583813	0.106298	0.183420
O25	O	1.224160	-0.693217	-0.419223
O26	O	1.724160	-0.193217	0.080777
O27	O	1.077378	-0.531857	-0.427732
O28	O	1.577378	-0.031857	0.072268
O29	O	1.341808	-0.677322	-0.301623
O30	O	1.841808	-0.177322	0.198377
O31	O	1.326727	-0.393693	-0.559636
O32	O	1.826727	0.106307	-0.059636
O33	O	1.215580	-0.531852	-0.566014
O34	O	1.715580	-0.031852	-0.066014
C35	C	1.047753	-0.465128	-0.374051
C36	C	1.547753	0.034872	0.125949
C37	C	0.947145	-0.472349	-0.379876
C38	C	1.447145	0.027651	0.120124
C39	C	0.764750	-0.342233	-0.274906
C40	C	1.264750	0.157767	0.225094
C41	C	0.670220	-0.349013	-0.280376
C42	C	1.170220	0.150987	0.219624
C43	C	0.663553	-0.492685	-0.396291
C44	C	1.163553	0.007315	0.103709
C45	C	0.758083	-0.485905	-0.390821
C46	C	1.258083	0.014095	0.109179
C47	C	0.808678	-0.410677	-0.330125
C48	C	1.308678	0.089323	0.169875
C49	C	0.903210	-0.403902	-0.324651
C50	C	1.403210	0.096098	0.175349
C51	C	0.896541	-0.547568	-0.440570
C52	C	1.396541	-0.047568	0.059430
C53	C	0.802011	-0.554349	-0.446040
C54	C	1.302011	-0.054349	0.053960
C55	C	1.282994	-0.724808	-0.360412
C56	C	1.782994	-0.224808	0.139588
C57	C	1.283024	-0.842634	-0.360381
C58	C	1.783024	-0.342634	0.139619
C59	C	1.208815	-1.020190	-0.434046
C60	C	1.708815	-0.520190	0.065954
C61	C	1.208978	-0.897642	-0.434380
C62	C	1.708978	-0.397642	0.065620
C63	C	1.376901	-0.882175	-0.380760
C64	C	1.876901	-0.382175	0.119240
C65	C	1.376491	-1.004832	-0.381219
C66	C	1.876491	-0.504832	0.118781
C67	C	1.264281	-1.004706	-0.265895
C68	C	1.764281	-0.504706	0.234105
C69	C	1.262119	-0.882293	-0.266593
C70	C	1.762119	-0.382293	0.233407
C71	C	1.519011	-0.431432	-0.346869
C72	C	2.019011	0.068568	0.153131
C73	C	1.619618	-0.424238	-0.341066
C74	C	2.119618	0.075762	0.158934
C75	C	1.269267	-0.465141	-0.595668
C76	C	1.769267	0.034859	-0.095668
C77	C	1.263508	-0.472370	-0.696275
C78	C	1.763508	0.027630	-0.196275
C79	C	1.282908	-0.172884	-0.360491
C80	C	1.782908	0.327116	0.139509
C81	C	1.283068	-0.055028	-0.360258
C82	C	1.783068	0.444972	0.139742
C83	C	1.368543	-0.342189	-0.878617
C84	C	1.868543	0.157811	-0.378617
C85	C	1.363135	-0.348978	-0.973146
C86	C	1.863135	0.151022	-0.473146
C87	C	1.247289	-0.492740	-0.979863
C88	C	1.747289	0.007260	-0.479863
C89	C	1.252697	-0.485951	-0.885334
C90	C	1.752697	0.014049	-0.385334
C91	C	1.313325	-0.410673	-0.834714
C92	C	1.813325	0.089327	-0.334714
C93	C	1.318728	-0.403880	-0.740184
C94	C	1.818728	0.096120	-0.240184
C95	C	1.202888	-0.547646	-0.746903
C96	C	1.702888	-0.047646	-0.246903
C97	C	1.197479	-0.554434	-0.841432
C98	C	1.697479	-0.054434	-0.341432
C99	C	1.296657	-0.431440	-0.124385
C100	C	1.796657	0.068560	0.375615
C101	C	1.302509	-0.424250	-0.023772
C102	C	1.802509	0.075750	0.476228
H103	H	1.138810	-1.053596	-0.422098
H104	H	1.638810	-0.553596	0.077902
H105	H	1.368092	-0.342581	-0.698970
H106	H	1.868092	0.157419	-0.198970
H107	H	0.932318	-0.603306	-0.485529
H108	H	1.432318	-0.103306	0.014471
H109	H	1.220637	-1.054922	-0.503680
H110	H	1.720637	-0.554922	-0.003680
H111	H	1.193062	-0.856824	-0.251123
H112	H	1.693062	-0.356824	0.248877
H113	H	1.220932	-0.872261	-0.504449
H114	H	1.720932	-0.372261	-0.004449
H115	H	1.197935	-0.554034	-1.021094
H116	H	1.697935	-0.054034	-0.521094
H117	H	1.148120	-0.615727	-0.882660
H118	H	1.648120	-0.115727	-0.382660
O119	O	1.116551	-0.862926	-0.418303
O120	O	1.616551	-0.362926	0.081697
H121	H	1.071330	-0.933720	-0.410227
H122	H	1.571330	-0.433720	0.089773
H123	H	1.393061	-1.036979	-0.450036
H124	H	1.893061	-0.536979	0.049964
H125	H	1.433395	-1.027156	-0.329510
H126	H	1.933395	-0.527156	0.170490
O127	O	1.433942	-0.261017	-0.824007
O128	O	1.933942	0.238983	-0.324007
H129	H	1.395925	-0.206843	-0.783339
H130	H	1.895925	0.293157	-0.283339
O131	O	0.747459	-0.635485	-0.511517
O132	O	1.247459	-0.135485	-0.011517
H133	H	0.706758	-0.689707	-0.473566
H134	H	1.206758	-0.189707	0.026434
H135	H	1.312692	-0.844359	-0.209153
H136	H	1.812692	-0.344359	0.290847
H137	H	1.433468	-0.845669	-0.328474
H138	H	1.933468	-0.345669	0.171526
H139	H	0.634457	-0.293280	-0.235409
H140	H	1.134457	0.206720	0.264591
H141	H	0.944404	-0.342654	-0.275224
H142	H	1.444404	0.157346	0.224776
O143	O	0.819330	-0.261098	-0.209449
O144	O	1.319330	0.238902	0.290551
H145	H	0.772901	-0.214637	-0.171973
H146	H	1.272901	0.285363	0.328027
O147	O	0.608977	-0.573818	-0.461753
O148	O	1.108977	-0.073818	0.038247
H149	H	0.535865	-0.567032	-0.456274
H150	H	1.035865	-0.067032	0.043726
O151	O	1.399381	-0.846122	-0.470920
O152	O	1.899381	-0.346122	0.029080
H153	H	1.343843	-0.800054	-0.501353
H154	H	1.843843	-0.300054	-0.001353
H155	H	1.197309	-1.038816	-0.246245
H156	H	1.697309	-0.538816	0.253755
O157	O	1.335999	-1.033357	-0.193156
O158	O	1.835999	-0.533357	0.306844
H159	H	1.384795	-1.083191	-0.224003
H160	H	1.884795	-0.583191	0.275997
H161	H	1.408101	-0.293214	-1.008887
H162	H	1.908101	0.206786	-0.508887
O163	O	1.143327	-0.621522	-0.699554
O164	O	1.643327	-0.121522	-0.199554
H165	H	1.157274	-0.604161	-0.625317
H166	H	1.657274	-0.104161	-0.125317
