data_functionalizedCrystal
_audit_creation_method	'MofGen! by Chris Wilmer'
_symmetry_space_group_name_H-M	'P1'
_symmetry_Int_Tables_number	1
_symmetry_cell_setting	triclinic
loop_
_symmetry_equiv_pos_as_xyz
  x,y,z
_cell_length_a	17.640112
_cell_length_b	21.395361
_cell_length_c	21.395356
_cell_angle_alpha	90.030681
_cell_angle_beta	101.171778
_cell_angle_gamma	78.743552
loop_
_atom_site_label
_atom_site_type_symbol
_atom_site_fract_x
_atom_site_fract_y
_atom_site_fract_z
Zn1	Zn	1.208336	0.055602	-0.160933
Zn2	Zn	1.208215	0.160398	-0.056169
Zn3	Zn	1.076151	0.076825	-0.077317
Zn4	Zn	1.076110	0.181559	-0.182044
O5	O	1.142203	0.118596	-0.119116
O6	O	1.318926	0.051766	-0.129350
O7	O	1.190663	0.149338	0.028698
O8	O	1.093754	-0.013679	-0.088424
O9	O	1.318837	0.128759	-0.052381
O10	O	1.190869	-0.029271	-0.149856
O11	O	1.093637	0.087938	0.013161
O12	O	0.965540	0.108456	-0.108895
O13	O	1.093684	0.164824	-0.266916
O14	O	0.965510	0.185403	-0.185837
O15	O	1.190829	0.072284	-0.251406
O16	O	1.190624	0.250894	-0.072851
O17	O	1.093567	0.266440	-0.165331
C18	C	0.936846	0.151529	-0.151952
C19	C	0.848993	0.165633	-0.166015
C20	C	1.142099	0.281400	-0.119097
C21	C	1.142127	0.351037	-0.119099
C22	C	1.142265	0.118547	-0.282529
C23	C	1.142292	0.118526	-0.352166
C24	C	0.560026	0.011438	-0.012290
C25	C	0.477475	0.024703	-0.025512
C26	C	0.477497	0.104939	-0.105494
C27	C	0.560050	0.091678	-0.092281
C28	C	0.601308	0.044927	-0.045677
C29	C	0.601332	0.125167	-0.125668
C30	C	0.683878	0.111909	-0.112453
C31	C	0.725141	0.065162	-0.065851
C32	C	0.683853	0.031669	-0.032463
C33	C	0.560073	0.171921	-0.172268
C34	C	0.601355	0.205410	-0.205656
C35	C	0.683902	0.192149	-0.192444
C36	C	0.725166	0.145402	-0.145842
C37	C	0.725190	0.225642	-0.225833
C38	C	0.807736	0.212384	-0.212618
C39	C	0.807711	0.132144	-0.132627
C40	C	1.348362	0.085535	-0.086151
C41	C	1.436215	0.071446	-0.072104
C42	C	1.142330	-0.044848	-0.119144
C43	C	1.142383	-0.114497	-0.119156
C44	C	1.192709	0.375627	-0.070979
C45	C	1.192746	0.441057	-0.070987
C46	C	1.142186	0.481896	-0.119111
C47	C	1.091600	0.457299	-0.167240
C48	C	1.091571	0.391869	-0.167234
C49	C	1.071019	0.597028	-0.135407
C50	C	1.071047	0.662456	-0.135409
C51	C	1.142278	0.683702	-0.119133
C52	C	1.213483	0.639511	-0.102842
C53	C	1.213453	0.574082	-0.102836
C54	C	1.142213	0.552844	-0.119123
C55	C	1.192905	0.779237	-0.071019
C56	C	1.192943	0.844668	-0.071031
C57	C	1.091790	0.860910	-0.167282
C58	C	1.091759	0.795479	-0.167272
C59	C	1.142315	0.754647	-0.119137
C60	C	1.091784	0.086548	-0.392957
C61	C	1.091781	0.086537	-0.458393
C62	C	1.142301	0.118495	-0.483033
C63	C	1.192813	0.150480	-0.442233
C64	C	1.192808	0.150496	-0.376800
C65	C	1.213515	0.111996	-0.575326
C66	C	1.213521	0.111976	-0.640758
C67	C	1.142314	0.118451	-0.684852
C68	C	1.071099	0.124933	-0.663506
C69	C	1.071094	0.124949	-0.598072
C70	C	1.142311	0.118482	-0.553984
C71	C	1.091798	0.086459	-0.796597
C72	C	1.091794	0.086453	-0.862034
C73	C	1.192833	0.150391	-0.845872
C74	C	1.192830	0.150402	-0.780437
C75	C	1.142314	0.118433	-0.755803
C76	C	1.142187	0.118592	0.043669
C77	C	1.142314	0.118412	0.113330
H78	H	0.792355	0.054370	-0.055091
O79	O	0.847886	0.086802	-0.087313
C80	C	0.941003	0.063316	0.012188
C81	C	0.895566	0.114721	-0.039087
H82	H	0.979550	0.085871	0.051199
H83	H	0.979737	0.024386	-0.010407
H84	H	0.897310	0.041638	0.033753
H85	H	0.939202	0.136448	-0.060670
H86	H	0.856820	0.153611	-0.016458
H87	H	1.013067	0.698432	-0.148667
O88	O	0.685192	0.271007	-0.271175
C89	C	0.659945	0.305580	-0.381740
C90	C	0.705307	0.254166	-0.330450
H91	H	0.676179	0.291976	-0.429679
H92	H	0.676162	0.353494	-0.368106
H93	H	0.593861	0.309311	-0.385413
H94	H	0.771401	0.250378	-0.326751
H95	H	0.689024	0.206279	-0.344105
H96	H	0.593620	-0.026641	0.025650
H97	H	1.233946	0.176501	-0.462299
O98	O	0.723816	-0.013743	0.012850
C99	C	0.715091	-0.091955	0.090776
C100	C	0.669736	-0.040539	0.039486
H101	H	0.671387	-0.113644	0.112316
H102	H	0.753676	-0.069453	0.129807
H103	H	0.753797	-0.130867	0.068139
H104	H	0.630987	-0.001611	0.062065
H105	H	0.631200	-0.063088	0.000461
O106	O	0.437495	-0.007911	0.006962
C107	C	0.446185	-0.088869	0.087725
C108	C	0.491559	-0.051995	0.050986
H109	H	0.489876	-0.124510	0.123337
H110	H	0.407593	-0.115438	0.052753
H111	H	0.407484	-0.053919	0.114316
H112	H	0.530303	-0.086902	0.024394
H113	H	0.530101	-0.025416	0.085989
O114	O	0.437295	0.150310	-0.150763
C115	C	0.310140	0.206323	-0.206547
C116	C	0.355568	0.154915	-0.155272
H117	H	0.244057	0.210072	-0.210199
H118	H	0.326349	0.192778	-0.254507
H119	H	0.326392	0.254214	-0.192860
H120	H	0.339341	0.107006	-0.168898
H121	H	0.339356	0.168515	-0.107326
H122	H	0.492859	0.182714	-0.183026
H123	H	1.234138	0.864686	-0.031846
O124	O	0.561152	0.250781	-0.250925
C125	C	0.433998	0.306794	-0.306708
C126	C	0.479426	0.255386	-0.255434
H127	H	0.367915	0.310543	-0.310361
H128	H	0.450207	0.293249	-0.354669
H129	H	0.450250	0.354685	-0.293022
H130	H	0.463199	0.207477	-0.269060
H131	H	0.463214	0.268986	-0.207487
O132	O	1.241977	0.181467	-0.740892
C133	C	1.342161	0.244911	-0.731774
C134	C	1.286555	0.209741	-0.776627
H135	H	1.378205	0.267792	-0.760649
H136	H	1.383562	0.209541	-0.694555
H137	H	1.305834	0.283479	-0.706912
H138	H	1.322818	0.171175	-0.801533
H139	H	1.245151	0.245150	-0.813807
O140	O	1.241906	0.464852	-0.024175
C141	C	1.342250	0.441839	0.071279
C142	C	1.286606	0.414812	0.018312
H143	H	1.378417	0.401393	0.105636
H144	H	1.306026	0.478315	0.098304
H145	H	1.383542	0.465819	0.049077
H146	H	1.245304	0.390799	0.040461
H147	H	1.322879	0.378368	-0.008708
O148	O	0.847931	0.244811	-0.245067
C149	C	0.941154	0.238370	-0.314739
C150	C	0.895696	0.201564	-0.278012
H151	H	0.979771	0.203422	-0.341395
H152	H	0.979820	0.264873	-0.279755
H153	H	0.897475	0.274076	-0.350292
H154	H	0.939319	0.165826	-0.242459
H155	H	0.857018	0.175104	-0.313034
H156	H	1.233877	0.342383	-0.031786
O157	O	1.282690	0.531240	-0.087030
C158	C	1.423967	0.515379	-0.054701
C159	C	1.345616	0.563964	-0.072599
H160	H	1.474862	0.541817	-0.043016
H161	H	1.432320	0.483386	-0.096465
H162	H	1.422715	0.484957	-0.011323
H163	H	1.346812	0.594429	-0.115960
H164	H	1.337293	0.595913	-0.030799
H165	H	1.271486	0.656807	-0.089590
H166	H	1.050436	0.490554	-0.206424
H167	H	1.234073	0.745990	-0.031826
O168	O	1.042704	0.900665	-0.213969
C169	C	0.997963	1.008654	-0.256664
C170	C	1.053577	0.963702	-0.203740
H171	H	1.006746	1.059627	-0.248419
H172	H	0.934212	1.006119	-0.255813
H173	H	1.011799	0.993483	-0.304971
H174	H	1.039812	0.978842	-0.155406
H175	H	1.117311	0.966243	-0.204647
H176	H	1.050567	0.775458	-0.206454
H177	H	1.013009	0.579738	-0.148663
H178	H	1.050380	0.371849	-0.206420
H179	H	1.050646	0.060519	-0.372906
O180	O	1.042693	0.055415	-0.497934
C181	C	0.942456	-0.007981	-0.507068
C182	C	0.998020	0.027227	-0.462218
H183	H	0.906312	-0.030768	-0.478211
H184	H	0.978742	-0.046606	-0.531899
H185	H	0.901140	0.027411	-0.544311
H186	H	1.039347	-0.008115	-0.424939
H187	H	0.961685	0.065862	-0.437434
O188	O	1.001848	0.131286	-0.577445
C189	C	0.860588	0.144106	-0.606904
C190	C	0.938951	0.136946	-0.630352
H191	H	0.809717	0.148671	-0.649667
H192	H	0.852159	0.188565	-0.577621
H193	H	0.861886	0.100334	-0.576056
H194	H	0.937709	0.180684	-0.661224
H195	H	0.947351	0.092461	-0.659600
O196	O	1.001925	0.131345	-0.706353
C197	C	0.913328	0.193462	-0.794372
C198	C	0.991676	0.186281	-0.745874
H199	H	0.905024	0.237868	-0.826346
H200	H	0.862402	0.198145	-0.767903
H201	H	0.914582	0.149654	-0.824800
H202	H	0.990498	0.230075	-0.715433
H203	H	1.042568	0.181569	-0.772382
H204	H	1.050664	0.060428	-0.776539
O205	O	1.241890	0.181374	-0.869899
C206	C	1.286656	0.209707	-0.963543
C207	C	1.231069	0.174582	-0.936412
H208	H	1.277914	0.204239	-1.017324
H209	H	1.350411	0.188474	-0.940542
H210	H	1.272755	0.262456	-0.952847
H211	H	1.244899	0.121829	-0.947100
H212	H	1.167330	0.195866	-0.959413
O213	O	1.282762	0.105701	-0.661383
C214	C	1.424028	0.092824	-0.631913
C215	C	1.345666	0.099940	-0.608471
H216	H	1.474907	0.088150	-0.589145
H217	H	1.422820	0.136609	-0.662712
H218	H	1.432371	0.048393	-0.661244
H219	H	1.337274	0.144345	-0.579114
H220	H	1.346910	0.056122	-0.577706
H221	H	1.233941	0.176535	-0.343586
O222	O	1.282652	0.105624	-0.532435
C223	C	1.371291	0.043486	-0.444450
C224	C	1.292969	0.050634	-0.492975
H225	H	1.379665	-0.000979	-0.412543
H226	H	1.370052	0.087249	-0.413957
H227	H	1.422170	0.038876	-0.470961
H228	H	1.242048	0.055225	-0.466516
H229	H	1.294276	0.006869	-0.523467
H230	H	1.050659	0.060415	-0.895247
