data_functionalizedCrystal
_audit_creation_method	'MofGen! by Chris Wilmer'
_symmetry_space_group_name_H-M	'P1'
_symmetry_Int_Tables_number	1
_symmetry_cell_setting	triclinic
loop_
_symmetry_equiv_pos_as_xyz
  x,y,z
_cell_length_a	19.121241
_cell_length_b	29.839131
_cell_length_c	19.120969
_cell_angle_alpha	87.468974
_cell_angle_beta	90.055598
_cell_angle_gamma	92.469032
loop_
_atom_site_label
_atom_site_type_symbol
_atom_site_fract_x
_atom_site_fract_y
_atom_site_fract_z
Zn1	Zn	1.055075	-0.137812	-0.442186
Zn2	Zn	1.059910	-0.216076	-0.324916
Zn3	Zn	0.942773	-0.144289	-0.319944
Zn4	Zn	0.937780	-0.216251	-0.437112
O5	O	0.998885	-0.178607	-0.381040
O6	O	1.153827	-0.145410	-0.430835
O7	O	1.048484	-0.209190	-0.226144
O8	O	0.957736	-0.080559	-0.336203
O9	O	1.157379	-0.202910	-0.344677
O10	O	1.040244	-0.075801	-0.426013
O11	O	0.962424	-0.156449	-0.222491
O12	O	0.844000	-0.156619	-0.331282
O13	O	0.949227	-0.203209	-0.535897
O14	O	0.840332	-0.209489	-0.417365
O15	O	1.035403	-0.145580	-0.539626
O16	O	1.043643	-0.278969	-0.339756
O17	O	0.953915	-0.279098	-0.422186
C18	C	0.816727	-0.183776	-0.373234
C19	C	0.738799	-0.185998	-0.369911
C20	C	0.700336	-0.157148	-0.413276
C21	C	0.627114	-0.159234	-0.410148
C22	C	0.592356	-0.190171	-0.363658
C23	C	0.630824	-0.219022	-0.320288
C24	C	0.704045	-0.216934	-0.323413
C25	C	0.371370	-0.197969	-0.351971
C26	C	0.298144	-0.200056	-0.348851
C27	C	0.294439	-0.140267	-0.438710
C28	C	0.367661	-0.138183	-0.441834
C29	C	0.406123	-0.167033	-0.398462
C30	C	0.517512	-0.192305	-0.360461
C31	C	0.480966	-0.164897	-0.401656
C32	C	0.998780	-0.295334	-0.380976
C33	C	0.998799	-0.345268	-0.380975
C34	C	1.041834	-0.652393	-0.427867
C35	C	1.041909	-0.840063	-0.427913
O36	O	1.078396	-0.862191	-0.467734
N37	N	0.999000	-0.866043	-0.381122
C38	C	0.956067	-0.845104	-0.334321
O39	O	0.919568	-0.871508	-0.294529
C40	C	0.955990	-0.657435	-0.334279
C41	C	0.998906	-0.631457	-0.381068
C42	C	1.084746	-0.626415	-0.474653
C43	C	1.084730	-0.579500	-0.474638
C44	C	1.041802	-0.558564	-0.427839
C45	C	0.998890	-0.584542	-0.381053
C46	C	0.913054	-0.636496	-0.287481
C47	C	0.913037	-0.589576	-0.287476
C48	C	0.955953	-0.563597	-0.334265
C49	C	0.955945	-0.516691	-0.334239
N50	N	0.998853	-0.490710	-0.381030
C51	C	1.041782	-0.511647	-0.427829
C52	C	0.956112	-0.943632	-0.334345
C53	C	0.956132	-0.990549	-0.334354
C54	C	1.041973	-0.985505	-0.427947
C55	C	1.041956	-0.938587	-0.427934
C56	C	0.999020	-0.917652	-0.381135
C57	C	1.041745	-0.413123	-0.427795
C58	C	1.041727	-0.366204	-0.427775
C59	C	0.955884	-0.371253	-0.334184
C60	C	0.955904	-0.418167	-0.334202
C61	C	0.998837	-0.439101	-0.381013
O62	O	0.919471	-0.494533	-0.294444
O63	O	1.078264	-0.485235	-0.467626
C64	C	1.041850	-0.699308	-0.427882
C65	C	0.998938	-0.725286	-0.381097
C66	C	0.956010	-0.704349	-0.334297
C67	C	0.998959	-0.772203	-0.381106
C68	C	1.041887	-0.793139	-0.427906
C69	C	1.084795	-0.767159	-0.474696
C70	C	1.084779	-0.720244	-0.474681
C71	C	0.913102	-0.730330	-0.287507
C72	C	0.913122	-0.777244	-0.287524
C73	C	0.956051	-0.798181	-0.334324
C74	C	1.181754	-0.173418	-0.388876
C75	C	1.259681	-0.171207	-0.392216
C76	C	0.991219	-0.173691	-0.563912
C77	C	0.987953	-0.171597	-0.641842
C78	C	0.999008	-0.061423	-0.381120
C79	C	0.999061	-0.011486	-0.381154
C80	C	1.006561	-0.183470	-0.198880
C81	C	1.009963	-0.185434	-0.120957
C82	C	0.966430	-0.159117	-0.082465
C83	C	0.969633	-0.160962	-0.009248
C84	C	1.016367	-0.189127	0.025476
C85	C	1.059905	-0.215445	-0.013021
C86	C	1.056704	-0.213597	-0.086236
C87	C	1.028290	-0.196067	0.246446
C88	C	1.031486	-0.197914	0.319667
C89	C	0.941215	-0.143430	0.323434
C90	C	0.938016	-0.141586	0.250217
C91	C	0.981556	-0.167903	0.211726
C92	C	1.019640	-0.191015	0.100315
C93	C	0.978286	-0.166012	0.136888
H94	H	0.489203	-0.217494	-0.322608
H95	H	1.119703	-0.643456	-0.512767
H96	H	0.509270	-0.139705	-0.439505
C97	C	1.126576	-0.365938	-0.520295
C98	C	1.088899	-0.337650	-0.479212
H99	H	1.155692	-0.348310	-0.552053
H100	H	1.154704	-0.384290	-0.490925
H101	H	1.094881	-0.384395	-0.545779
H102	H	1.120595	-0.319196	-0.453725
H103	H	1.060769	-0.319290	-0.508586
H104	H	1.069557	-0.220841	0.347936
H105	H	1.097959	-0.238376	0.015257
H106	H	1.119725	-0.699096	-0.512781
C107	C	0.819242	-0.832998	-0.273684
C108	C	0.865941	-0.805797	-0.236092
H109	H	0.790115	-0.850625	-0.241935
H110	H	0.791125	-0.814637	-0.303053
H111	H	0.844817	-0.852184	-0.301550
H112	H	0.840366	-0.786608	-0.208229
H113	H	0.894061	-0.824159	-0.206711
C114	C	1.047484	-0.463026	-0.522556
C115	C	1.088936	-0.436130	-0.479248
H116	H	1.076621	-0.477227	-0.554321
H117	H	1.021939	-0.485213	-0.494697
H118	H	1.015787	-0.444874	-0.548032
H119	H	1.120630	-0.454283	-0.453769
H120	H	1.114493	-0.413940	-0.507111
C121	C	1.047687	-1.035421	-0.522687
C122	C	1.089156	-1.008524	-0.479397
H123	H	1.076812	-1.049630	-0.554453
H124	H	1.022142	-1.057602	-0.494816
H125	H	1.015989	-1.017269	-0.548161
H126	H	1.120850	-1.026676	-0.453919
H127	H	1.114712	-0.986340	-0.507271
C128	C	0.950212	-0.473780	-0.239476
C129	C	0.908738	-0.446723	-0.282764
H130	H	0.921088	-0.491404	-0.207720
H131	H	0.975768	-0.492965	-0.267351
H132	H	0.981899	-0.455319	-0.213992
H133	H	0.877054	-0.465185	-0.308252
H134	H	0.883170	-0.427536	-0.254885
H135	H	0.735360	-0.240426	-0.288100
H136	H	1.092155	-0.235027	-0.117575
C137	C	0.478257	-0.108439	-0.486527
C138	C	0.405866	-0.104176	-0.492939
H139	H	0.501841	-0.087447	-0.518083
H140	H	0.492224	-0.102737	-0.439958
H141	H	0.489800	-0.138021	-0.497204
H142	H	0.394322	-0.074594	-0.482256
H143	H	0.391894	-0.109874	-0.539518
H144	H	0.402676	-0.221461	-0.316655
C145	C	0.180553	-0.116916	-0.473817
C146	C	0.252161	-0.108553	-0.486376
H147	H	0.154454	-0.097333	-0.503242
H148	H	0.168109	-0.147176	-0.483477
H149	H	0.170531	-0.111902	-0.426215
H150	H	0.262184	-0.113570	-0.533978
H151	H	0.264609	-0.078286	-0.476722
H152	H	0.934183	-0.139532	0.022088
C153	C	0.309157	-0.258945	-0.260332
C154	C	0.259936	-0.234065	-0.297744
H155	H	0.285567	-0.279938	-0.228782
H156	H	0.336432	-0.274526	-0.292041
H157	H	0.338845	-0.239244	-0.234792
H158	H	0.230251	-0.253766	-0.323288
H159	H	0.232649	-0.218483	-0.266030
H160	H	0.602518	-0.244210	-0.282431
H161	H	1.119674	-0.558351	-0.512739
C162	C	1.126801	-0.938325	-0.520450
C163	C	1.089121	-0.910034	-0.479373
H164	H	1.155915	-0.920698	-0.552211
H165	H	1.154932	-0.956673	-0.491076
H166	H	1.095107	-0.956785	-0.545929
H167	H	1.120815	-0.891577	-0.453890
H168	H	1.060988	-0.891679	-0.508750
C169	C	0.871273	-0.953341	-0.241825
C170	C	0.908921	-0.920624	-0.282891
H171	H	0.842146	-0.939137	-0.210055
H172	H	0.843159	-0.971585	-0.271205
H173	H	0.902986	-0.971485	-0.216356
H174	H	0.877208	-0.902483	-0.308364
H175	H	0.937038	-0.902373	-0.253507
C176	C	0.862262	-1.046308	-0.320504
C177	C	0.908961	-1.019102	-0.282920
H178	H	0.833141	-1.063935	-0.288750
H179	H	0.834140	-1.027951	-0.349872
H180	H	0.887838	-1.065494	-0.348370
H181	H	0.883385	-0.999913	-0.255057
H182	H	0.937087	-1.037461	-0.253539
C183	C	1.117830	-0.250113	0.250087
C184	C	1.076142	-0.224999	0.204144
H185	H	1.147368	-0.267977	0.223968
H186	H	1.145688	-0.230377	0.277365
H187	H	1.088703	-0.269022	0.280080
H188	H	1.105269	-0.206087	0.174154
H189	H	1.048281	-0.244737	0.176854
H190	H	1.119751	-0.784213	-0.512800
C191	C	0.828189	-0.636749	-0.194987
C192	C	0.865872	-0.665043	-0.236054
H193	H	0.799055	-0.654373	-0.163240
H194	H	0.859874	-0.618297	-0.169498
H195	H	0.800071	-0.618393	-0.224373
H196	H	0.893994	-0.683397	-0.206668
H197	H	0.834183	-0.683503	-0.261545
H198	H	0.899958	-0.118653	0.221949
C199	C	0.889376	-0.112342	0.147965
C200	C	0.926917	-0.135053	0.098722
H201	H	0.857665	-0.093229	0.124396
H202	H	0.864014	-0.133519	0.177796
H203	H	0.920991	-0.094869	0.175090
H204	H	0.895302	-0.152529	0.071600
H205	H	0.952280	-0.113873	0.068878
C206	C	0.819120	-0.539818	-0.273604
C207	C	0.865840	-0.566564	-0.236032
H208	H	0.789982	-0.525614	-0.241843
H209	H	0.844674	-0.517632	-0.301457
H210	H	0.791010	-0.558071	-0.302985
H211	H	0.893954	-0.548310	-0.206655
H212	H	0.840283	-0.588753	-0.208167
C213	C	0.917744	-0.301567	-0.292625
C214	C	0.908695	-0.348233	-0.282747
H215	H	0.888605	-0.287356	-0.260875
H216	H	0.965279	-0.292795	-0.284413
H217	H	0.905474	-0.292901	-0.339287
H218	H	0.920971	-0.356899	-0.236086
H219	H	0.861150	-0.357008	-0.290953
C220	C	0.877529	-0.105444	-0.071380
C221	C	0.915060	-0.128155	-0.120631
H222	H	0.845819	-0.086327	-0.094942
H223	H	0.852167	-0.126621	-0.041548
H224	H	0.909151	-0.087975	-0.044256
H225	H	0.883438	-0.145627	-0.147752
H226	H	0.940423	-0.106975	-0.150475
H227	H	0.878144	-0.713287	-0.249397
H228	H	1.057690	-0.213948	0.128596
H229	H	0.905768	-0.122004	0.354781
C230	C	0.689312	-0.098257	-0.501780
C231	C	0.738539	-0.123140	-0.464381
H232	H	0.712897	-0.077260	-0.533327
H233	H	0.659624	-0.117953	-0.527318
H234	H	0.662038	-0.082678	-0.470058
H235	H	0.765809	-0.138722	-0.496102
H236	H	0.768239	-0.103441	-0.438842
H237	H	0.595801	-0.135742	-0.445462
