data_functionalizedCrystal
_audit_creation_method	'MofGen! by Chris Wilmer'
_symmetry_space_group_name_H-M	'P1'
_symmetry_Int_Tables_number	1
_symmetry_cell_setting	triclinic
loop_
_symmetry_equiv_pos_as_xyz
  x,y,z
_cell_length_a	16.992694
_cell_length_b	16.974885
_cell_length_c	16.176319
_cell_angle_alpha	93.647026
_cell_angle_beta	90.001613
_cell_angle_gamma	92.975758
loop_
_atom_site_label
_atom_site_type_symbol
_atom_site_fract_x
_atom_site_fract_y
_atom_site_fract_z
O1	O	-1.040213	0.167649	-0.057432
O2	O	-0.790213	0.417649	0.192568
O3	O	-0.540213	0.667649	0.442568
O4	O	-0.290213	0.917649	0.692568
O5	O	-0.811929	0.165809	-0.057579
O6	O	-0.561929	0.415809	0.192421
O7	O	-0.311929	0.665809	0.442421
O8	O	-0.061929	0.915809	0.692421
O9	O	-0.932436	0.052030	-0.065170
O10	O	-0.682436	0.302030	0.184830
O11	O	-0.432436	0.552030	0.434830
O12	O	-0.182436	0.802030	0.684830
O13	O	-0.919706	0.281428	-0.049841
O14	O	-0.669706	0.531428	0.200159
O15	O	-0.419706	0.781428	0.450159
O16	O	-0.169706	1.031428	0.700159
O17	O	-0.932419	0.052021	0.072323
O18	O	-0.682419	0.302021	0.322323
O19	O	-0.432419	0.552021	0.572323
O20	O	-0.182419	0.802021	0.822323
O21	O	-0.811913	0.165801	0.079913
O22	O	-0.561913	0.415801	0.329913
O23	O	-0.311913	0.665801	0.579913
O24	O	-0.061913	0.915801	0.829913
O25	O	-1.040196	0.167640	0.080061
O26	O	-0.790196	0.417640	0.330061
O27	O	-0.540196	0.667640	0.580061
O28	O	-0.290196	0.917640	0.830061
Cu29	Cu	-0.926053	0.166719	0.092541
Cu30	Cu	-0.676053	0.416719	0.342541
Cu31	Cu	-0.426053	0.666719	0.592541
Cu32	Cu	-0.176053	0.916719	0.842541
Cu33	Cu	-0.926073	0.166730	-0.070060
Cu34	Cu	-0.676073	0.416730	0.179940
Cu35	Cu	-0.426073	0.666730	0.429940
Cu36	Cu	-0.176073	0.916730	0.679940
O37	O	-0.919690	0.281420	0.087651
O38	O	-0.669690	0.531420	0.337651
O39	O	-0.419690	0.781420	0.587651
O40	O	-0.169690	1.031420	0.837651
C41	C	-0.782711	0.163439	0.011006
C42	C	-0.532711	0.413439	0.261006
C43	C	-0.282711	0.663439	0.511006
C44	C	-0.032711	0.913439	0.761006
C45	C	-0.695675	0.156379	0.010525
C46	C	-0.445675	0.406379	0.260525
C47	C	-0.195675	0.656379	0.510525
C48	C	0.054325	0.906379	0.760525
C49	C	-0.931943	0.022537	0.001604
C50	C	-0.681943	0.272537	0.251604
C51	C	-0.431943	0.522537	0.501604
C52	C	-0.181943	0.772537	0.751604
C53	C	-0.930492	-0.065330	-0.004273
C54	C	-0.680492	0.184670	0.245727
C55	C	-0.430492	0.434670	0.495727
C56	C	-0.180492	0.684670	0.745727
C57	C	-1.069414	0.170010	0.011474
C58	C	-0.819414	0.420010	0.261474
C59	C	-0.569414	0.670010	0.511474
C60	C	-0.319414	0.920010	0.761474
C61	C	-1.156451	0.177070	0.011950
C62	C	-0.906451	0.427070	0.261950
C63	C	-0.656451	0.677070	0.511950
C64	C	-0.406451	0.927070	0.761950
C65	C	-0.645360	0.224494	0.015077
C66	C	-0.395360	0.474494	0.265077
C67	C	-0.145360	0.724494	0.515077
C68	C	0.104640	0.974494	0.765077
C69	C	-0.563581	0.217856	0.014645
C70	C	-0.313581	0.467856	0.264645
C71	C	-0.063581	0.717856	0.514645
C72	C	0.186419	0.967856	0.764645
C73	C	-0.532117	0.143103	0.009654
C74	C	-0.282117	0.393103	0.259654
C75	C	-0.032117	0.643103	0.509654
C76	C	0.217883	0.893103	0.759654
C77	C	-0.582438	0.074983	0.005104
C78	C	-0.332438	0.324983	0.255104
C79	C	-0.082438	0.574983	0.505104
C80	C	0.167562	0.824983	0.755104
C81	C	-0.664216	0.081622	0.005542
C82	C	-0.414216	0.331622	0.255542
C83	C	-0.164216	0.581622	0.505542
C84	C	0.085784	0.831622	0.755542
C85	C	-0.288549	0.115589	0.007838
C86	C	-0.038549	0.365589	0.257838
C87	C	0.211451	0.615589	0.507838
C88	C	0.461451	0.865589	0.757838
C89	C	-0.206765	0.108955	0.007398
C90	C	0.043235	0.358955	0.257398
C91	C	0.293235	0.608955	0.507398
C92	C	0.543235	0.858955	0.757398
C93	C	-0.187914	0.251829	0.016939
C94	C	0.062086	0.501829	0.266939
C95	C	0.312086	0.751829	0.516939
C96	C	0.562086	1.001829	0.766939
C97	C	-0.269694	0.258461	0.017372
C98	C	-0.019694	0.508461	0.267372
C99	C	0.230306	0.758461	0.517372
C100	C	0.480306	1.008461	0.767372
C101	C	-0.320007	0.190341	0.012827
C102	C	-0.070007	0.440341	0.262827
C103	C	0.179993	0.690341	0.512827
C104	C	0.429993	0.940341	0.762827
N105	N	-0.448526	0.136316	0.009210
N106	N	-0.198526	0.386316	0.259210
N107	N	0.051474	0.636316	0.509210
N108	N	0.301474	0.886316	0.759210
N109	N	-0.403597	0.197128	0.013277
N110	N	-0.153597	0.447128	0.263277
N111	N	0.096403	0.697128	0.513277
N112	N	0.346403	0.947128	0.763277
N113	N	-0.926045	0.166712	0.206906
N114	N	-0.676045	0.416712	0.456906
N115	N	-0.426045	0.666712	0.706906
N116	N	-0.176045	0.916712	0.956906
C117	C	-0.929799	-0.106622	0.067909
C118	C	-0.679799	0.143378	0.317909
C119	C	-0.429799	0.393378	0.567909
C120	C	-0.179799	0.643378	0.817909
C121	C	-0.928440	-0.189183	0.062380
C122	C	-0.678440	0.060817	0.312380
C123	C	-0.428440	0.310817	0.562380
C124	C	-0.178440	0.560817	0.812380
C125	C	-0.927768	-0.230450	-0.015333
C126	C	-0.677768	0.019550	0.234667
C127	C	-0.427768	0.269550	0.484667
C128	C	-0.177768	0.519550	0.734667
C129	C	-0.928464	-0.189152	-0.087521
C130	C	-0.678464	0.060848	0.162479
C131	C	-0.428464	0.310848	0.412479
C132	C	-0.178464	0.560848	0.662479
C133	C	-0.929828	-0.106594	-0.081991
C134	C	-0.679828	0.143406	0.168009
C135	C	-0.429828	0.393406	0.418009
C136	C	-0.179828	0.643406	0.668009
C137	C	-0.923694	-0.477364	-0.039910
C138	C	-0.673694	-0.227364	0.210090
C139	C	-0.423694	0.022636	0.460090
C140	C	-0.173694	0.272636	0.710090
C141	C	-0.922327	-0.559928	-0.045435
C142	C	-0.672327	-0.309928	0.204565
C143	C	-0.422327	-0.059928	0.454565
C144	C	-0.172327	0.190072	0.704565
C145	C	-0.922305	-0.559954	0.104466
C146	C	-0.672305	-0.309954	0.354466
C147	C	-0.422305	-0.059954	0.604466
C148	C	-0.172305	0.190046	0.854466
C149	C	-0.923664	-0.477393	0.109990
C150	C	-0.673664	-0.227393	0.359990
C151	C	-0.423664	0.022607	0.609990
C152	C	-0.173664	0.272607	0.859990
C153	C	-0.924364	-0.436103	0.037802
C154	C	-0.674364	-0.186103	0.287802
C155	C	-0.424364	0.063897	0.537802
C156	C	-0.174364	0.313897	0.787802
N157	N	-0.926377	-0.314840	-0.020987
N158	N	-0.676377	-0.064840	0.229013
N159	N	-0.426377	0.185160	0.479013
N160	N	-0.176377	0.435160	0.729013
N161	N	-0.925761	-0.351714	0.043457
N162	N	-0.675761	-0.101714	0.293457
N163	N	-0.425761	0.148286	0.543457
N164	N	-0.175761	0.398286	0.793457
C165	C	-0.920182	0.310912	0.020876
C166	C	-0.670182	0.560912	0.270876
C167	C	-0.420182	0.810912	0.520876
C168	C	-0.170182	1.060912	0.770876
C169	C	-0.921634	0.398780	0.026748
C170	C	-0.671634	0.648780	0.276748
C171	C	-0.421634	0.898780	0.526748
C172	C	-0.171634	1.148780	0.776748
N173	N	-0.926087	0.166731	-0.184425
N174	N	-0.676087	0.416731	0.065575
N175	N	-0.426087	0.666731	0.315575
N176	N	-0.176087	0.916731	0.565575
C177	C	-0.979421	0.116353	0.246811
C178	C	-0.729421	0.366353	0.496811
C179	C	-0.479421	0.616353	0.746811
C180	C	-0.229421	0.866353	0.996811
C181	C	-0.979425	0.116353	0.333358
C182	C	-0.729425	0.366353	0.583358
C183	C	-0.479425	0.616353	0.833358
C184	C	-0.229425	0.866353	1.083358
C185	C	-0.926056	0.166715	0.379999
C186	C	-0.676056	0.416715	0.629999
C187	C	-0.426056	0.666715	0.879999
C188	C	-0.176056	0.916715	1.129999
C189	C	-0.872674	0.217076	0.340088
C190	C	-0.622674	0.467076	0.590088
C191	C	-0.372674	0.717076	0.840088
C192	C	-0.122674	0.967076	1.090088
C193	C	-0.872667	0.217072	0.253543
C194	C	-0.622667	0.467072	0.503543
C195	C	-0.372667	0.717072	0.753543
C196	C	-0.122667	0.967072	1.003543
C197	C	-0.872701	0.217093	0.689118
C198	C	-0.622701	0.467093	0.939118
C199	C	-0.372701	0.717093	1.189118
C200	C	-0.122701	0.967093	1.439118
C201	C	-0.872714	0.217095	0.775669
C202	C	-0.622714	0.467095	1.025669
C203	C	-0.372714	0.717095	1.275669
C204	C	-0.122714	0.967095	1.525669
C205	C	-0.979459	0.116373	0.768933
C206	C	-0.729459	0.366373	1.018933
C207	C	-0.479459	0.616373	1.268933
C208	C	-0.229459	0.866373	1.518933
C209	C	-0.979452	0.116369	0.682387
C210	C	-0.729452	0.366369	0.932387
C211	C	-0.479452	0.616369	1.182387
C212	C	-0.229452	0.866369	1.432387
C213	C	-0.926068	0.166727	0.642484
C214	C	-0.676068	0.416727	0.892484
C215	C	-0.426068	0.666727	1.142484
C216	C	-0.176068	0.916727	1.392484
C217	C	-0.926063	0.166726	0.548640
C218	C	-0.676063	0.416726	0.798640
C219	C	-0.426063	0.666726	1.048640
C220	C	-0.176063	0.916726	1.298640
C221	C	-0.926064	0.166721	0.473842
C222	C	-0.676064	0.416721	0.723842
C223	C	-0.426064	0.666721	0.973842
C224	C	-0.176064	0.916721	1.223842
H225	H	-0.670971	0.285366	0.019140
H226	H	-0.420971	0.535366	0.269140
H227	H	-0.170971	0.785366	0.519140
H228	H	0.079029	1.035366	0.769140
H229	H	-0.927922	-0.222759	-0.150796
H230	H	-0.677922	0.027241	0.099204
H231	H	-0.427922	0.277241	0.349204
H232	H	-0.177922	0.527241	0.599204
H233	H	-0.556814	0.014118	0.001053
H234	H	-0.306814	0.264118	0.251053
H235	H	-0.056814	0.514118	0.501053
H236	H	0.193186	0.764118	0.751053
H237	H	-0.930333	-0.073028	0.131191
H238	H	-0.680333	0.176972	0.381191
H239	H	-0.430333	0.426972	0.631191
H240	H	-0.180333	0.676972	0.881191
H241	H	-1.022888	0.075346	0.365847
H242	H	-0.772888	0.325346	0.615847
H243	H	-0.522888	0.575346	0.865847
H244	H	-0.272888	0.825346	1.115847
H245	H	-0.924228	-0.443800	0.173272
H246	H	-0.674228	-0.193800	0.423272
H247	H	-0.424228	0.056200	0.673272
H248	H	-0.174228	0.306200	0.923272
H249	H	-0.829251	0.258107	0.813644
H250	H	-0.579251	0.508107	1.063644
H251	H	-0.329251	0.758107	1.313644
H252	H	-0.079251	1.008107	1.563644
H253	H	-1.022913	0.075362	0.644414
H254	H	-0.772913	0.325362	0.894414
H255	H	-0.522913	0.575362	1.144414
H256	H	-0.272913	0.825362	1.394414
H257	H	-0.930393	-0.072975	-0.140769
H258	H	-0.680393	0.177025	0.109231
H259	H	-0.430393	0.427025	0.359231
H260	H	-0.180393	0.677025	0.609231
H261	H	-0.921772	-0.593525	-0.108721
H262	H	-0.671772	-0.343525	0.141279
H263	H	-0.421772	-0.093525	0.391279
H264	H	-0.171772	0.156475	0.641279
H265	H	-0.295305	0.319332	0.021426
H266	H	-0.045305	0.569332	0.271426
H267	H	0.204695	0.819332	0.521426
H268	H	0.454695	1.069332	0.771426
H269	H	-1.022884	0.075346	0.208841
H270	H	-0.772884	0.325346	0.458841
H271	H	-0.522884	0.575346	0.708841
H272	H	-0.272884	0.825346	0.958841
H273	H	-0.924262	-0.443755	-0.098690
H274	H	-0.674262	-0.193755	0.151310
H275	H	-0.424262	0.056245	0.401310
H276	H	-0.174262	0.306245	0.651310
H277	H	-0.927879	-0.222800	0.121158
H278	H	-0.677879	0.027200	0.371158
H279	H	-0.427879	0.277200	0.621158
H280	H	-0.177879	0.527200	0.871158
H281	H	-0.146940	0.307287	0.020642
H282	H	0.103060	0.557287	0.270642
H283	H	0.353060	0.807287	0.520642
H284	H	0.603060	1.057287	0.770642
H285	H	-0.829202	0.258078	0.221053
H286	H	-0.579202	0.508078	0.471053
H287	H	-0.329202	0.758078	0.721053
H288	H	-0.079202	1.008078	0.971053
H289	H	-0.181151	0.048079	0.003333
H290	H	0.068849	0.298079	0.253333
H291	H	0.318849	0.548079	0.503333
H292	H	0.568849	0.798079	0.753333
H293	H	-1.022925	0.075367	0.801431
H294	H	-0.772925	0.325367	1.051431
H295	H	-0.522925	0.575367	1.301431
H296	H	-0.272925	0.825367	1.551431
H297	H	-0.829235	0.258097	0.656635
H298	H	-0.579235	0.508097	0.906635
H299	H	-0.329235	0.758097	1.156635
H300	H	-0.079235	1.008097	1.406635
H301	H	-0.522618	0.273322	0.018350
H302	H	-0.272618	0.523322	0.268350
H303	H	-0.022618	0.773322	0.518350
H304	H	0.227382	1.023322	0.768350
H305	H	-0.329506	0.060121	0.004137
H306	H	-0.079506	0.310121	0.254137
H307	H	0.170494	0.560121	0.504137
H308	H	0.420494	0.810121	0.754137
H309	H	-0.829216	0.258080	0.378068
H310	H	-0.579216	0.508080	0.628068
H311	H	-0.329216	0.758080	0.878068
H312	H	-0.079216	1.008080	1.128068
H313	H	-0.705182	0.026156	0.001835
H314	H	-0.455182	0.276156	0.251835
H315	H	-0.205182	0.526156	0.501835
H316	H	0.044818	0.776156	0.751835
H317	H	-0.921736	-0.593581	0.163238
H318	H	-0.671736	-0.343581	0.413238
H319	H	-0.421736	-0.093581	0.663238
H320	H	-0.171736	0.156419	0.913238
