data_functionalizedCrystal
_audit_creation_method	'MofGen! by Chris Wilmer'
_symmetry_space_group_name_H-M	'P1'
_symmetry_Int_Tables_number	1
_symmetry_cell_setting	triclinic
loop_
_symmetry_equiv_pos_as_xyz
  x,y,z
_cell_length_a	15.995350
_cell_length_b	10.654554
_cell_length_c	9.130313
_cell_angle_alpha	90.001106
_cell_angle_beta	90.000982
_cell_angle_gamma	83.989560
loop_
_atom_site_label
_atom_site_type_symbol
_atom_site_fract_x
_atom_site_fract_y
_atom_site_fract_z
O1	O	0.117617	1.666294	-0.121746
O2	O	0.128817	1.300670	-0.121758
O3	O	0.001387	1.493477	-0.121750
O4	O	0.245046	1.473488	-0.121754
O5	O	0.001391	1.493474	0.121848
O6	O	0.128821	1.300668	0.121841
O7	O	0.117620	1.666292	0.121853
Cu8	Cu	0.123221	1.483480	0.144089
Cu9	Cu	0.123217	1.483482	-0.143995
O10	O	0.245050	1.473485	0.121845
C11	C	0.127996	1.253882	0.000040
C12	C	0.125533	1.114471	0.000035
C13	C	0.198250	0.903013	0.000047
C14	C	0.200565	1.034004	0.000036
C15	C	0.048181	1.063941	0.000030
C16	C	0.045867	0.932952	0.000031
C17	C	0.273287	0.822551	0.000063
C18	C	0.350639	0.873072	0.000065
C19	C	0.352954	1.004063	0.000053
C20	C	0.277917	1.084533	0.000040
C21	C	-0.029810	1.492649	0.000046
C22	C	-0.122775	1.490172	0.000038
C23	C	-0.460575	1.481274	0.000043
C24	C	-0.413939	1.343961	-0.000508
C25	C	-0.317235	1.346439	0.000041
C26	C	-0.292988	1.485688	0.000039
C27	C	-0.333670	1.553414	0.139146
C28	C	-0.430326	1.549965	0.139262
C29	C	-0.430671	1.552804	-0.137755
C30	C	-0.333726	1.552771	-0.139593
C31	C	-0.198276	1.488189	0.000043
C32	C	-0.555287	1.478777	0.000049
C33	C	0.276248	1.474313	0.000045
C34	C	0.369212	1.476790	0.000044
C35	C	0.118441	1.713080	0.000052
C36	C	0.120904	1.852491	0.000047
N37	N	0.123223	1.483487	0.346712
N38	N	0.123208	1.483485	-0.346617
C39	C	0.066816	1.568883	0.423367
C40	C	0.066806	1.568880	0.576704
C41	C	0.179617	1.398080	0.576717
C42	C	0.179622	1.398078	0.423383
C43	C	0.010417	1.654292	0.346697
C44	C	-0.045993	1.739696	0.423352
C45	C	-0.046003	1.739693	0.576689
C46	C	0.010397	1.654285	0.653370
H47	H	-0.012911	1.129470	0.000021
N48	N	-0.037554	0.878449	0.000023
H49	H	-0.084738	0.949295	0.000023
H50	H	-0.041832	0.824752	0.090325
H51	H	0.279808	1.191194	0.000001
N52	N	0.270800	0.681268	0.000090
H53	H	0.300161	0.643825	-0.090202
H54	H	0.210397	0.661568	0.000146
H55	H	-0.289124	1.293202	-0.099676
N56	N	0.431569	0.786289	0.000059
H57	H	0.418368	0.695641	0.000068
H58	H	0.465247	0.802655	0.090361
H59	H	-0.091940	1.809224	0.639100
N60	N	-0.314185	1.688932	0.145959
H61	H	-0.251298	1.691549	0.150380
H62	H	-0.341003	1.730569	0.236213
H63	H	-0.091917	1.809226	0.360910
N64	N	-0.438909	1.271249	-0.132638
H65	H	-0.480696	1.326606	-0.193424
H66	H	-0.465295	1.194045	-0.099320
N67	N	-0.440304	1.271573	0.130885
H68	H	-0.482326	1.327340	0.190765
H69	H	-0.389353	1.244190	0.192890
H70	H	-0.317773	1.654317	-0.147993
N71	N	0.010432	1.654286	0.181315
H72	H	0.023152	1.739601	0.144385
H73	H	-0.046580	1.635978	0.144480
N74	N	0.010391	1.654265	0.818755
H75	H	-0.046614	1.636001	0.855679
H76	H	0.023136	1.739595	0.855586
N77	N	-0.280724	1.275459	0.132351
H78	H	-0.294600	1.185210	0.128074
H79	H	-0.305447	1.316938	0.224309
N80	N	0.240445	1.305967	0.659415
H81	H	0.231883	1.318928	0.768183
H82	H	0.299937	1.320465	0.632622
N83	N	-0.472280	1.683489	0.147666
H84	H	-0.508885	1.701955	0.058506
H85	H	-0.427915	1.744250	0.151328
H86	H	-0.448913	1.500576	0.243247
N87	N	0.436377	1.058558	0.000027
H88	H	0.483558	0.987706	0.000032
H89	H	0.440661	1.112263	0.090325
N90	N	-0.471951	1.686912	-0.139007
H91	H	-0.535025	1.686469	-0.142810
H92	H	-0.452432	1.732316	-0.227774
N93	N	-0.296431	1.491128	0.276277
H94	H	-0.253220	1.419052	0.248611
H95	H	-0.342486	1.457792	0.335905
H96	H	-0.306767	1.503255	-0.242501
N97	N	-0.458225	1.493350	-0.277421
H98	H	-0.490377	1.419437	-0.252778
H99	H	-0.407147	1.463100	-0.337785
N100	N	0.240456	1.305971	0.340691
H101	H	0.276188	1.251871	0.412526
H102	H	0.277773	1.354040	0.277074
