data_functionalizedCrystal
_audit_creation_method	'MofGen! by Chris Wilmer'
_symmetry_space_group_name_H-M	'P1'
_symmetry_Int_Tables_number	1
_symmetry_cell_setting	triclinic
loop_
_symmetry_equiv_pos_as_xyz
  x,y,z
_cell_length_a	9.065218
_cell_length_b	27.732048
_cell_length_c	8.140239
_cell_angle_alpha	89.991555
_cell_angle_beta	89.997198
_cell_angle_gamma	83.829270
loop_
_atom_site_label
_atom_site_type_symbol
_atom_site_fract_x
_atom_site_fract_y
_atom_site_fract_z
O1	O	1.955891	0.070866	-0.136639
O2	O	1.526237	0.076679	-0.136643
O3	O	1.754408	0.003467	-0.136609
O4	O	1.727720	0.144079	-0.136672
O5	O	1.754396	0.003466	0.136618
O6	O	1.526224	0.076678	0.136584
O7	O	1.955879	0.070866	0.136588
Zn8	Zn	1.741050	0.073772	0.179967
Zn9	Zn	1.741066	0.073773	-0.180021
O10	O	1.727708	0.144078	0.136555
C11	C	1.471280	0.076120	-0.000029
C12	C	1.307543	0.074450	-0.000029
C13	C	1.753842	-0.014544	0.000009
C14	C	1.752155	-0.068210	0.000022
C15	C	1.876369	-0.406178	-0.000061
C16	C	1.870110	-0.607880	-0.000084
O17	O	1.983695	-0.638360	-0.000155
N18	N	1.734814	-0.627927	-0.000083
C19	C	1.601073	-0.597545	-0.000088
O20	O	1.485852	-0.619225	-0.000105
C21	C	1.607334	-0.395844	-0.000077
C22	C	1.742639	-0.375800	-0.000061
C23	C	2.011663	-0.386133	-0.000046
C24	C	2.013226	-0.335710	-0.000032
C25	C	1.879496	-0.305332	-0.000031
C26	C	1.744202	-0.325377	-0.000046
C27	C	1.473594	-0.365463	-0.000094
C28	C	1.475171	-0.315035	-0.000095
C29	C	1.610476	-0.294991	-0.000079
C30	C	1.612034	-0.244577	-0.000031
N31	N	1.747331	-0.224529	-0.000031
C32	C	1.881061	-0.254907	-0.000032
C33	C	1.597796	-0.703442	-0.000091
C34	C	1.596230	-0.753867	-0.000091
C35	C	1.865268	-0.764198	-0.000089
C36	C	1.866832	-0.713772	-0.000078
C37	C	1.733092	-0.683395	-0.000091
C38	C	1.884334	-0.149016	0.000001
C39	C	1.885886	-0.098588	0.000022
C40	C	1.616849	-0.088262	0.000012
C41	C	1.615296	-0.138685	-0.000001
C42	C	1.749051	-0.169061	-0.000012
O43	O	1.498510	-0.214067	0.000021
O44	O	1.996266	-0.233218	-0.000051
C45	C	1.874806	-0.456600	-0.000076
C46	C	1.739512	-0.476645	-0.000090
C47	C	1.605781	-0.446267	-0.000090
C48	C	1.737946	-0.527070	-0.000090
C49	C	1.871677	-0.557448	-0.000090
C50	C	2.006973	-0.537401	-0.000090
C51	C	2.008537	-0.486978	-0.000076
C52	C	1.470485	-0.466314	-0.000090
C53	C	1.468933	-0.516737	-0.000102
C54	C	1.602663	-0.547115	-0.000103
C55	C	2.010836	0.071425	-0.000029
C56	C	2.174573	0.073095	-0.000039
C57	C	1.728274	0.162089	-0.000067
C58	C	1.729961	0.215755	-0.000091
N59	N	1.741049	0.073771	0.425650
N60	N	1.741078	0.073770	-0.425704
H61	H	1.996072	-0.082271	0.000040
O62	O	1.340474	-0.436859	-0.000299
C63	C	1.258276	-0.446023	-0.141825
H64	H	1.295409	-0.484099	-0.189021
H65	H	1.135166	-0.443032	-0.109989
H66	H	1.277784	-0.418349	-0.240902
H67	H	1.486052	-0.770182	-0.000076
H68	H	2.118716	-0.470663	-0.000063
O69	O	1.337579	-0.536261	-0.000338
C70	C	1.328619	-0.565097	-0.141883
H71	H	1.445181	-0.577139	-0.189045
H72	H	1.270567	-0.598369	-0.110086
H73	H	1.262865	-0.543103	-0.240972
O74	O	2.014396	-0.178449	0.000069
C75	C	2.134130	-0.149935	0.000045
H76	H	2.095785	-0.112480	0.051775
H77	H	2.227758	-0.168117	0.079375
H78	H	2.175668	-0.146151	-0.131032
H79	H	2.120569	-0.410862	-0.000052
O80	O	2.144623	-0.316219	0.000252
C81	C	2.153584	-0.287356	0.141734
H82	H	2.076778	-0.299620	0.240650
H83	H	2.272577	-0.291361	0.189219
H84	H	2.118645	-0.247750	0.109742
H85	H	1.977009	-0.697456	-0.000066
H86	H	1.974157	-0.788940	-0.000089
H87	H	1.488882	-0.678712	-0.000101
O88	O	1.345291	-0.285507	-0.000394
C89	C	1.338170	-0.256012	-0.141874
H90	H	1.414044	-0.274133	-0.240777
H91	H	1.219219	-0.250870	-0.189381
H92	H	1.375484	-0.219185	-0.109868
O93	O	1.342027	-0.384846	-0.000190
C94	C	1.224349	-0.347212	-0.000160
H95	H	1.264931	-0.312782	-0.051872
H96	H	1.129820	-0.358156	-0.079503
H97	H	1.183137	-0.340265	0.130916
O98	O	1.483734	-0.158079	-0.000084
C99	C	1.366038	-0.120451	-0.000032
H100	H	1.406598	-0.086016	-0.051729
H101	H	1.271514	-0.131398	-0.079379
H102	H	1.324827	-0.113512	0.131048
O103	O	1.487084	-0.058678	-0.000063
C104	C	1.517495	-0.009875	-0.000014
H105	H	1.633324	-0.007432	-0.051725
H106	H	1.432200	0.012596	-0.079349
H107	H	1.511550	0.004674	0.131067
H108	H	2.115862	-0.562143	-0.000083
