data_functionalizedCrystal
_audit_creation_method	'MofGen! by Chris Wilmer'
_symmetry_space_group_name_H-M	'P1'
_symmetry_Int_Tables_number	1
_symmetry_cell_setting	triclinic
loop_
_symmetry_equiv_pos_as_xyz
  x,y,z
_cell_length_a	17.640280
_cell_length_b	11.169417
_cell_length_c	11.169409
_cell_angle_alpha	90.022423
_cell_angle_beta	78.765552
_cell_angle_gamma	101.200448
loop_
_atom_site_label
_atom_site_type_symbol
_atom_site_fract_x
_atom_site_fract_y
_atom_site_fract_z
Zn1	Zn	-0.314633	-1.931532	-0.582099
Zn2	Zn	-0.446836	-1.971992	-0.340867
Zn3	Zn	-0.314676	-1.730828	-0.381413
Zn4	Zn	-0.446768	-1.771377	-0.541526
O5	O	-0.380728	-1.851432	-0.461476
O6	O	-0.332180	-2.104852	-0.550110
O7	O	-0.429352	-1.939964	-0.178281
O8	O	-0.204062	-1.723550	-0.441983
O9	O	-0.429310	-2.134578	-0.372877
O10	O	-0.204030	-1.871006	-0.589426
O11	O	-0.332255	-1.762782	-0.208070
O12	O	-0.332188	-1.568254	-0.402642
O13	O	-0.429193	-1.792659	-0.714872
O14	O	-0.429235	-1.598045	-0.520276
O15	O	-0.332114	-1.910324	-0.744681
O16	O	-0.557435	-1.979282	-0.333536
O17	O	-0.557385	-1.831892	-0.480959
C18	C	-0.380709	-1.539602	-0.461456
C19	C	-0.380720	-1.406205	-0.461471
C20	C	-0.586090	-1.914410	-0.398471
C21	C	-0.673944	-1.941462	-0.371557
C22	C	-0.962893	-1.646414	-0.666373
C23	C	-1.045445	-1.671836	-0.641045
C24	C	-1.045432	-1.825409	-0.487688
C25	C	-0.962878	-1.800004	-0.513007
C26	C	-0.921615	-1.710504	-0.602350
C27	C	-0.921600	-1.864095	-0.448984
C28	C	-0.839053	-1.838687	-0.474297
C29	C	-0.797784	-1.749189	-0.563633
C30	C	-0.839068	-1.685097	-0.627663
C31	C	-0.962865	-1.953588	-0.359636
C32	C	-0.921587	-2.017678	-0.295613
C33	C	-0.839038	-1.992277	-0.320932
C34	C	-0.797769	-1.902779	-0.410268
C35	C	-0.797755	-2.056369	-0.256902
C36	C	-0.715208	-2.030962	-0.282215
C37	C	-0.715222	-1.877372	-0.435580
C38	C	-0.174565	-1.788241	-0.524754
C39	C	-0.086710	-1.761313	-0.551719
C40	C	-0.380641	-1.851502	-0.774546
C41	C	-0.380603	-1.851531	-0.907957
C42	C	-0.380741	-1.164479	-0.461489
C43	C	-0.380730	-1.297875	-0.461475
C44	C	-0.380759	-1.851415	-0.149642
C45	C	-0.380573	-1.851549	-0.016300
H46	H	-0.681624	-1.804501	-0.508341
H47	H	-0.730569	-1.728495	-0.584233
H48	H	-0.929294	-1.573543	-0.739134
H49	H	-0.955195	-2.090545	-0.222867
H50	H	-1.079051	-1.619653	-0.693202
N51	N	-0.842264	-2.152876	-0.160523
H52	H	-0.900821	-2.159238	-0.154195
H53	H	-0.827794	-2.234134	-0.183707
N54	N	-1.089940	-1.921924	-0.391317
H55	H	-1.148497	-1.928291	-0.384990
H56	H	-1.075465	-2.003177	-0.414510
H57	H	-0.805469	-1.612226	-0.700424
N58	N	-0.670679	-2.100077	-0.213160
H59	H	-0.709345	-2.160631	-0.152723
H60	H	-0.636380	-2.145033	-0.272582
H61	H	-1.030080	-1.974274	-0.339033
