data_functionalizedCrystal
_audit_creation_method	'MofGen! by Chris Wilmer'
_symmetry_space_group_name_H-M	'P1'
_symmetry_Int_Tables_number	1
_symmetry_cell_setting	triclinic
loop_
_symmetry_equiv_pos_as_xyz
  x,y,z
_cell_length_a	6.817900
_cell_length_b	11.168121
_cell_length_c	19.453114
_cell_angle_alpha	94.532118
_cell_angle_beta	101.709288
_cell_angle_gamma	108.508496
loop_
_atom_site_label
_atom_site_type_symbol
_atom_site_fract_x
_atom_site_fract_y
_atom_site_fract_z
V1	V	-4.032642	-0.176019	-0.219005
O2	O	-3.993699	0.007106	-0.214830
O3	O	-4.009456	-0.347716	-0.217513
O4	O	-3.975247	-0.173905	-0.314518
O5	O	-4.028145	-0.167908	-0.117153
V6	V	-4.514169	-0.154045	-0.206822
O7	O	-4.298280	-0.224221	-0.245729
O8	O	-4.698728	-0.105844	-0.180098
O9	O	-4.314148	0.017651	-0.208314
O10	O	-4.670509	-0.337170	-0.210997
O11	O	-4.636063	-0.162157	-0.308673
O12	O	-4.348358	-0.156159	-0.111309
C13	C	-3.860882	-0.389553	-0.214059
C14	C	-3.923151	-0.529921	-0.213476
C15	C	-4.124577	-0.598632	-0.216547
C16	C	-4.188940	-0.743709	-0.215945
C17	C	-3.817243	-0.167839	-0.337798
C18	C	-3.851767	-0.167247	-0.415880
C19	C	-4.050699	-0.173307	-0.456138
C20	C	-4.083137	-0.172750	-0.529504
C21	C	-3.916645	-0.166159	-0.562613
C22	C	-3.717682	-0.160092	-0.522346
C23	C	-3.685243	-0.160635	-0.448979
N24	N	-3.866695	-0.232843	-0.681405
N25	N	-3.897524	-0.232330	-0.751100
C26	C	-4.014370	-0.164518	-0.783661
N27	N	-4.099261	-0.097256	-0.743896
N28	N	-4.068437	-0.097775	-0.674195
C29	C	-3.951799	-0.165568	-0.642166
C30	C	-4.248488	-0.169973	-0.903471
C31	C	-4.280916	-0.169409	-0.976839
C32	C	-3.915460	-0.156763	-0.969680
C33	C	-3.883032	-0.157314	-0.896313
C34	C	-4.049556	-0.163926	-0.863214
C35	C	-4.126066	0.059482	-0.211765
C36	C	-4.043034	0.199848	-0.212353
C37	C	-4.169704	-0.162230	-0.088025
C38	C	-4.114418	-0.162816	-0.009942
H39	H	-4.186297	-0.178685	-0.429193
O40	O	-3.837179	-0.729544	-0.209124
C41	C	-3.757289	-0.635390	-0.148109
H42	H	-3.895535	-0.615526	-0.130860
H43	H	-3.646886	-0.543796	-0.160757
H44	H	-3.664844	-0.670711	-0.103371
H45	H	-3.798355	-0.578501	-0.210404
O46	O	-4.276567	-0.178732	-0.568523
C47	C	-4.416575	-0.184661	-0.523575
H48	H	-4.359385	-0.223346	-0.473702
H49	H	-4.583671	-0.250585	-0.552616
H50	H	-4.419884	-0.084851	-0.508059
H51	H	-3.582123	-0.154721	-0.549307
H52	H	-3.523241	-0.155691	-0.416201
O53	O	-4.394680	-0.814268	-0.218980
C54	C	-4.404063	-0.873415	-0.157744
H55	H	-4.242316	-0.881614	-0.134245
H56	H	-4.530320	-0.972878	-0.172580
H57	H	-4.447139	-0.813585	-0.116892
H58	H	-4.384080	-0.175352	-0.876520
O59	O	-4.474325	-0.175350	-1.015846
C60	C	-4.614316	-0.181268	-0.970893
H61	H	-4.557163	-0.219993	-0.921032
H62	H	-4.781436	-0.247152	-0.999938
H63	H	-4.617553	-0.081447	-0.955358
O64	O	-4.273758	-0.540898	-0.220244
C65	C	-4.473527	-0.632947	-0.222959
H66	H	-4.474770	-0.731517	-0.243891
H67	H	-4.604074	-0.609050	-0.259821
H68	H	-4.503277	-0.632707	-0.167365
O69	O	-3.689981	-0.151686	-0.857168
C70	C	-3.713810	-0.261602	-0.824092
H71	H	-3.885398	-0.303757	-0.819363
H72	H	-3.601589	-0.234659	-0.768855
H73	H	-3.673712	-0.335269	-0.857312
O74	O	-3.753799	-0.150190	-1.001896
C75	C	-3.708155	-0.039553	-1.034572
H76	H	-3.853847	-0.008316	-1.045494
H77	H	-3.665643	-0.061211	-1.086792
H78	H	-3.568071	0.040330	-0.997856
