data_functionalizedCrystal
_audit_creation_method	'MofGen! by Chris Wilmer'
_symmetry_space_group_name_H-M	'P1'
_symmetry_Int_Tables_number	1
_symmetry_cell_setting	triclinic
loop_
_symmetry_equiv_pos_as_xyz
  x,y,z
_cell_length_a	12.759395
_cell_length_b	12.645330
_cell_length_c	12.759387
_cell_angle_alpha	89.970586
_cell_angle_beta	89.979491
_cell_angle_gamma	90.019229
loop_
_atom_site_label
_atom_site_type_symbol
_atom_site_fract_x
_atom_site_fract_y
_atom_site_fract_z
Zn1	Zn	1.606247	-0.421940	-0.594015
Zn2	Zn	1.606128	-0.599242	-0.418340
Zn3	Zn	1.430545	-0.421998	-0.418352
Zn4	Zn	1.430528	-0.599167	-0.593979
O5	O	1.518362	-0.510587	-0.506172
O6	O	1.753252	-0.445467	-0.570722
O7	O	1.582794	-0.575786	-0.271320
O8	O	1.453909	-0.273643	-0.441674
O9	O	1.753165	-0.575730	-0.441654
O10	O	1.582996	-0.273600	-0.570733
O11	O	1.453794	-0.445565	-0.271329
O12	O	1.283522	-0.445492	-0.441639
O13	O	1.453880	-0.575601	-0.741005
O14	O	1.283509	-0.575657	-0.570672
O15	O	1.582980	-0.445394	-0.741032
O16	O	1.582778	-0.747579	-0.441619
O17	O	1.453765	-0.747524	-0.570660
C18	C	1.245395	-0.510574	-0.506153
C19	C	1.128618	-0.510594	-0.506171
C20	C	1.128644	-0.646354	-0.640315
C21	C	1.073796	-0.714242	-0.707390
C22	C	0.964074	-0.714255	-0.707403
C23	C	0.909198	-0.646370	-0.640335
C24	C	0.964046	-0.578482	-0.573260
C25	C	1.073770	-0.578478	-0.573253
C26	C	0.964020	-0.442718	-0.439123
C27	C	1.073742	-0.442709	-0.439103
C28	C	0.909144	-0.374833	-0.372056
C29	C	0.963992	-0.306948	-0.304974
C30	C	1.073720	-0.306939	-0.304963
C31	C	1.128590	-0.374820	-0.372028
C32	C	1.518285	-0.786016	-0.506157
C33	C	1.518349	-0.903846	-0.506186
C34	C	1.437522	-1.071420	-0.587616
C35	C	1.437108	-0.948860	-0.587354
C36	C	1.488373	-0.948450	-0.395464
C37	C	1.487880	-1.071049	-0.395958
C38	C	1.629646	-1.070930	-0.534579
C39	C	1.628964	-0.948323	-0.537001
C40	C	1.792395	-0.510600	-0.506190
C41	C	1.909172	-0.510606	-0.506198
C42	C	1.518441	-0.510483	-0.780205
C43	C	1.518475	-0.510438	-0.896982
C44	C	1.518468	-0.234081	-0.506209
C45	C	1.518513	-0.116251	-0.506225
C46	C	1.652916	-0.374862	-0.897029
C47	C	1.720151	-0.307058	-0.951914
C48	C	1.720176	-0.307019	-1.061636
C49	C	1.652958	-0.374790	-1.116475
C50	C	1.585723	-0.442594	-1.061591
C51	C	1.585707	-0.442627	-0.951867
C52	C	1.451278	-0.578163	-1.061543
C53	C	1.451256	-0.578209	-0.951822
C54	C	1.384059	-0.645934	-1.116383
C55	C	1.316828	-0.713745	-1.061498
C56	C	1.316806	-0.713781	-0.951770
C57	C	1.384021	-0.646013	-0.896937
C58	C	1.518344	-0.510614	-0.233204
C59	C	1.518513	-0.510359	-0.116428
H60	H	1.456104	-1.100824	-0.669985
H61	H	0.819857	-0.646378	-0.640361
H62	H	0.919417	-0.769531	-0.762026
C63	C	1.758179	-0.949092	-0.673848
C64	C	1.659464	-0.909016	-0.647027
H65	H	1.776992	-0.924842	-0.741785
H66	H	1.808625	-0.925439	-0.624402
H67	H	1.755859	-1.024179	-0.673562
H68	H	1.661786	-0.833929	-0.647305
H69	H	1.609005	-0.932664	-0.696486
C70	C	1.197051	-0.292015	-0.163653
C71	C	1.134010	-0.232314	-0.231232
H72	H	1.234273	-0.245942	-0.118139
H73	H	1.154214	-0.338142	-0.123391
H74	H	1.245432	-0.332436	-0.203601
H75	H	1.085624	-0.191899	-0.191284
H76	H	1.176851	-0.186169	-0.271498
H77	H	1.217985	-0.646358	-0.640303
C78	C	1.779836	-0.246930	-0.783735
C79	C	1.794045	-0.232576	-0.891633
H80	H	1.825461	-0.200953	-0.746526
H81	H	1.709261	-0.231400	-0.765747
H82	H	1.795169	-0.318172	-0.765758
H83	H	1.778705	-0.161336	-0.909611
H84	H	1.864637	-0.248099	-0.909628
H85	H	1.217931	-0.374822	-0.372023
H86	H	1.355647	-1.102324	-0.569071
H87	H	1.455863	-0.918699	-0.669454
C88	C	1.410817	-0.746737	-1.273539
C89	C	1.384084	-0.645896	-1.236991
H90	H	1.410826	-0.746716	-1.347998
H91	H	1.478595	-0.765077	-1.248726
H92	H	1.361147	-0.796805	-1.248692
H93	H	1.433759	-0.595828	-1.261832
H94	H	1.316296	-0.627544	-1.261814
H95	H	0.819803	-0.374843	-0.372076
H96	H	0.919303	-0.251676	-0.250379
H97	H	1.689986	-1.099922	-0.475299
C98	C	1.259374	-0.996180	-0.546947
C99	C	1.325891	-0.909389	-0.561978
H100	H	1.190714	-0.971810	-0.531270
H101	H	1.257664	-1.037679	-0.608950
H102	H	1.284628	-1.037903	-0.490414
H103	H	1.300642	-0.867670	-0.618518
H104	H	1.327598	-0.867873	-0.499968
C105	C	1.242007	-0.774527	-0.766927
C106	C	1.134117	-0.788865	-0.781103
H107	H	1.279241	-0.820601	-0.812432
H108	H	1.260009	-0.703328	-0.782434
H109	H	1.259939	-0.789948	-0.696303
H110	H	1.116183	-0.773437	-0.851726
H111	H	1.116107	-0.860080	-0.765604
H112	H	1.262098	-0.768912	-1.106157
C113	C	1.313567	-1.022571	-0.343859
C114	C	1.378209	-1.109795	-0.363543
H115	H	1.245858	-1.046490	-0.323855
H116	H	1.342800	-0.981379	-0.288926
H117	H	1.308190	-0.980699	-0.405456
H118	H	1.383591	-1.151663	-0.301943
H119	H	1.348969	-1.151004	-0.418480
H120	H	1.544310	-1.100709	-0.333248
H121	H	1.545493	-0.919295	-0.333165
C122	C	1.734862	-0.164386	-1.185060
C123	C	1.794079	-0.232487	-1.121970
H124	H	1.780487	-0.118370	-1.222302
H125	H	1.694846	-0.204745	-1.233414
H126	H	1.689102	-0.123845	-1.142246
H127	H	1.839833	-0.273034	-1.164786
H128	H	1.834112	-0.192124	-1.073611
H129	H	1.407980	-0.917843	-0.371009
H130	H	1.656990	-1.101767	-0.613945
H131	H	1.692484	-0.917676	-0.482037
C132	C	1.483938	-0.673091	-0.739782
C133	C	1.384009	-0.646046	-0.776329
H134	H	1.483932	-0.673100	-0.665323
H135	H	1.502060	-0.741494	-0.764585
H136	H	1.533588	-0.623009	-0.764640
H137	H	1.334359	-0.696133	-0.751478
H138	H	1.365874	-0.577633	-0.751515
H139	H	1.652912	-0.374897	-0.807688
H140	H	1.652975	-0.374743	-1.205816
H141	H	1.262044	-0.768984	-0.907089
