data_functionalizedCrystal
_audit_creation_method	'MofGen! by Chris Wilmer'
_symmetry_space_group_name_H-M	'P1'
_symmetry_Int_Tables_number	1
_symmetry_cell_setting	triclinic
loop_
_symmetry_equiv_pos_as_xyz
  x,y,z
_cell_length_a	8.597226
_cell_length_b	9.130307
_cell_length_c	8.559649
_cell_angle_alpha	90.001035
_cell_angle_beta	102.373924
_cell_angle_gamma	82.294987
loop_
_atom_site_label
_atom_site_type_symbol
_atom_site_fract_x
_atom_site_fract_y
_atom_site_fract_z
O1	O	-2.053756	0.381017	0.238084
O2	O	-1.594618	0.323066	0.256335
O3	O	-1.864637	0.357147	0.015241
O4	O	-1.783736	0.346937	0.479179
O5	O	-1.864630	0.113547	0.015238
O6	O	-1.594610	0.079466	0.256333
O7	O	-2.053748	0.137417	0.238082
Cu8	Cu	-1.824179	0.086199	0.247207
Cu9	Cu	-1.824187	0.374284	0.247210
O10	O	-1.783729	0.103337	0.479177
C11	C	-1.536378	0.193916	0.254372
C12	C	-1.362857	0.172015	0.248505
N13	N	-1.824184	-0.116423	0.247204
C14	C	-2.063365	-0.086225	0.033779
C15	C	-2.182965	-0.147791	-0.072929
C16	C	-2.182981	-0.301123	-0.072930
C17	C	-2.063381	-0.392893	0.033785
C18	C	-1.943781	-0.331327	0.140493
C19	C	-1.943781	-0.177990	0.140486
C20	C	-1.704596	-0.361525	0.353909
C21	C	-1.704584	-0.208193	0.353920
C22	C	-1.584995	-0.453296	0.460624
C23	C	-1.465399	-0.391729	0.567342
C24	C	-1.465389	-0.238387	0.567340
C25	C	-1.584983	-0.146627	0.460628
C26	C	-1.111989	0.266564	0.240042
C27	C	-1.285513	0.288453	0.245896
C28	C	-1.870764	0.236124	-0.044194
C29	C	-1.889014	0.238436	-0.221289
N30	N	-1.824196	0.576908	0.247200
C31	C	-1.777602	0.224363	0.538612
C32	C	-1.759352	0.222061	0.715706
H33	H	-1.352053	0.404895	0.248152
Br34	Br	-1.585000	-0.661392	0.460617
H35	H	-1.634382	0.206286	0.797248
H36	H	-2.063390	-0.517744	0.033765
H37	H	-2.063376	0.038629	0.033782
H38	H	-2.280341	-0.073059	-0.159819
Br39	Br	-2.097325	0.264696	0.642801
H40	H	-2.280365	-0.351250	-0.159827
H41	H	-1.367991	-0.188270	0.654229
Br42	Br	-1.251963	-0.022058	0.244780
Br43	Br	-1.303089	-0.516276	0.712142
Br44	Br	-1.584989	0.061471	0.460625
