data_functionalizedCrystal
_audit_creation_method	'MofGen! by Chris Wilmer'
_symmetry_space_group_name_H-M	'P1'
_symmetry_Int_Tables_number	1
_symmetry_cell_setting	triclinic
loop_
_symmetry_equiv_pos_as_xyz
  x,y,z
_cell_length_a	18.050589
_cell_length_b	17.639504
_cell_length_c	17.640968
_cell_angle_alpha	70.332680
_cell_angle_beta	101.226882
_cell_angle_gamma	78.788572
loop_
_atom_site_label
_atom_site_type_symbol
_atom_site_fract_x
_atom_site_fract_y
_atom_site_fract_z
Zn1	Zn	0.098178	-1.354400	0.721259
Zn2	Zn	-0.057511	-1.326414	0.583417
Zn3	Zn	0.035246	-1.188682	0.555529
Zn4	Zn	-0.057434	-1.216503	0.693298
O5	O	0.004620	-1.271500	0.638376
O6	O	0.103831	-1.466039	0.726347
O7	O	-0.071576	-1.284788	0.464373
O8	O	0.147537	-1.210734	0.577544
O9	O	-0.010553	-1.445478	0.625075
O10	O	0.193773	-1.332486	0.699305
O11	O	-0.003428	-1.183597	0.443884
O12	O	-0.003354	-1.077021	0.550431
O13	O	-0.010422	-1.258151	0.812352
O14	O	-0.071445	-1.097461	0.651650
O15	O	0.103905	-1.359463	0.832895
O16	O	-0.161444	-1.311765	0.597963
O17	O	-0.161388	-1.231014	0.678692
C18	C	-0.044221	-1.057332	0.594981
C19	C	-0.065128	-0.965713	0.576435
C20	C	0.163564	-0.717966	0.779451
C21	C	0.143896	-0.631873	0.762008
C22	C	0.024911	-0.610454	0.656402
C23	C	0.044567	-0.696547	0.673838
C24	C	0.113895	-0.750296	0.735363
C25	C	-0.005102	-0.728877	0.629750
C26	C	0.014555	-0.814962	0.647183
C27	C	0.083881	-0.868717	0.708703
C28	C	0.133552	-0.836381	0.752795
C29	C	-0.074427	-0.675126	0.568222
C30	C	-0.124096	-0.707456	0.524134
C31	C	-0.104442	-0.793544	0.541570
C32	C	-0.035116	-0.847298	0.603091
C33	C	-0.154113	-0.825879	0.497478
C34	C	-0.134456	-0.911964	0.514911
C35	C	-0.015459	-0.933383	0.620523
C36	C	-0.188358	-1.271397	0.638342
C37	C	-0.270892	-1.271435	0.638370
C38	C	-0.470331	-1.227573	0.682263
C39	C	-0.541527	-1.192267	0.602983
C40	C	-0.422001	-1.271518	0.638397
C41	C	-0.497875	-1.306866	0.717694
C42	C	-0.567965	-1.271598	0.638430
C43	C	-0.492129	-1.236165	0.559070
C44	C	-0.448452	-1.350809	0.673839
C45	C	-0.519632	-1.315521	0.594513
C46	C	-0.337915	-1.271470	0.638379
C47	C	-0.652051	-1.271644	0.638440
C48	C	0.198360	-1.271629	0.638432
C49	C	0.280921	-1.271683	0.638456
C50	C	0.053770	-1.315032	0.853367
C51	C	0.074715	-1.333583	0.944984
C52	C	0.053660	-0.486504	0.681938
C53	C	0.074584	-0.578124	0.700494
C54	C	-0.044275	-1.228184	0.424230
C55	C	-0.064974	-1.209793	0.332647
C56	C	-0.154021	-1.130887	1.192828
C57	C	-0.134326	-1.148336	1.278919
C58	C	-0.015287	-1.253823	1.300298
C59	C	-0.034970	-1.236380	1.214206
C60	C	-0.104338	-1.174912	1.160477
C61	C	0.014713	-1.280405	1.181856
C62	C	-0.004970	-1.262967	1.095772
C63	C	-0.074336	-1.201503	1.042039
C64	C	-0.124021	-1.157473	1.074394
C65	C	0.084079	-1.341878	1.235587
C66	C	0.133762	-1.385903	1.203237
C67	C	0.114082	-1.368460	1.117151
C68	C	0.044715	-1.306997	1.063417
C69	C	0.163767	-1.412490	1.084796
C70	C	0.144083	-1.395052	0.998712
C71	C	0.025032	-1.289558	0.977334
H72	H	0.220016	-0.761733	0.829553
H73	H	-0.031534	-0.566679	0.606306
F74	F	-0.227889	-0.768664	0.431994
H75	H	-0.090417	-0.605027	0.554012
H76	H	-0.541150	-1.352708	0.557378
H77	H	-0.180494	-1.107400	1.030640
F78	F	-0.442068	-1.178894	0.730646
H79	H	-0.408270	-1.417817	0.703824
H80	H	0.099887	-0.938812	0.722893
F81	F	0.237585	-1.477915	1.141989
F82	F	-0.502126	-1.345899	0.805329
H83	H	-0.180541	-0.663682	0.474038
H84	H	-0.210494	-1.080813	1.149074
H85	H	-0.174790	-1.112480	1.305253
H86	H	0.190240	-1.435953	1.246994
F87	F	-0.048794	-1.224129	0.920145
F88	F	-0.187324	-0.946376	0.467994
H89	H	0.184541	-1.430900	0.972373
F90	F	0.058536	-1.319242	1.357488
F91	F	-0.095288	-1.182947	0.950421
F92	F	-0.594027	-1.104665	0.563814
H93	H	0.040993	-0.977150	0.670626
H94	H	0.100101	-1.356076	1.305681
F95	F	0.207336	-0.893592	0.818284
H96	H	0.184351	-0.605554	0.797910
H97	H	-0.488989	-1.206224	0.491990
