data_functionalizedCrystal
_audit_creation_method	'MofGen! by Chris Wilmer'
_symmetry_space_group_name_H-M	'P1'
_symmetry_Int_Tables_number	1
_symmetry_cell_setting	triclinic
loop_
_symmetry_equiv_pos_as_xyz
  x,y,z
_cell_length_a	14.971486
_cell_length_b	16.109301
_cell_length_c	14.048226
_cell_angle_alpha	89.992144
_cell_angle_beta	89.998499
_cell_angle_gamma	83.537805
loop_
_atom_site_label
_atom_site_type_symbol
_atom_site_fract_x
_atom_site_fract_y
_atom_site_fract_z
O1	O	1.186791	0.108348	-0.079054
O2	O	1.686791	0.608348	0.420946
O3	O	0.926372	0.121323	-0.079081
O4	O	1.426372	0.621323	0.420919
O5	O	1.063735	-0.006187	-0.079057
O6	O	1.563735	0.493813	0.420943
O7	O	1.049427	0.235857	-0.079078
O8	O	1.549427	0.735857	0.420922
O9	O	1.063719	-0.006194	0.079264
O10	O	1.563719	0.493806	0.579264
O11	O	0.926355	0.121315	0.079241
O12	O	1.426355	0.621315	0.579241
O13	O	1.186774	0.108340	0.079267
O14	O	1.686774	0.608340	0.579267
Zn15	Zn	1.056562	0.114826	0.104391
Zn16	Zn	1.556562	0.614826	0.604391
Zn17	Zn	1.056584	0.114836	-0.104204
Zn18	Zn	1.556584	0.614836	0.395796
O19	O	1.049411	0.235850	0.079244
O20	O	1.549411	0.735850	0.579244
C21	C	0.893040	0.120739	0.000077
C22	C	1.393040	0.620739	0.500077
C23	C	0.793745	0.119000	0.000067
C24	C	1.293745	0.619000	0.500067
C25	C	0.736412	0.193908	0.000062
C26	C	1.236412	0.693908	0.500062
C27	C	0.643115	0.192269	0.000076
C28	C	1.143115	0.692269	0.500076
C29	C	0.607153	0.115721	0.000089
C30	C	1.107153	0.615721	0.500089
C31	C	0.664494	0.040807	0.000097
C32	C	1.164494	0.540807	0.500097
C33	C	0.757789	0.042447	0.000089
C34	C	1.257789	0.542447	0.500089
C35	C	0.470036	0.037395	0.000110
C36	C	0.970036	0.537395	0.500110
C37	C	0.376734	0.035755	0.000116
C38	C	0.876734	0.535755	0.500116
C39	C	0.355362	0.187217	0.000097
C40	C	0.855362	0.687217	0.500097
C41	C	0.448657	0.188857	0.000090
C42	C	0.948657	0.688857	0.500090
C43	C	0.505991	0.113942	0.000096
C44	C	1.005991	0.613942	0.500096
C45	C	1.063147	-0.037166	0.000104
C46	C	1.563147	0.462834	0.500104
C47	C	1.061410	-0.129464	0.000105
C48	C	1.561410	0.370536	0.500105
C49	C	1.138878	-0.351640	0.000098
C50	C	1.638878	0.148360	0.500098
C51	C	1.137239	-0.438362	0.000090
C52	C	1.637239	0.061638	0.500090
C53	C	0.974262	-0.418691	0.000077
C54	C	1.474262	0.081309	0.500077
C55	C	0.975902	-0.331970	0.000078
C56	C	1.475902	0.168030	0.500078
C57	C	1.058213	-0.298447	0.000094
C58	C	1.558213	0.201553	0.500094
C59	C	1.054933	-0.471890	0.000085
C60	C	1.554933	0.028110	0.500085
C61	C	1.053155	-0.565918	0.000076
C62	C	1.553155	-0.065918	0.500076
C63	C	1.059992	-0.204413	0.000101
C64	C	1.559992	0.295587	0.500101
C65	C	1.220106	0.108924	0.000108
C66	C	1.720106	0.608924	0.500108
C67	C	1.319401	0.110663	0.000111
C68	C	1.819401	0.610663	0.500111
C69	C	1.049999	0.266829	0.000080
C70	C	1.549999	0.766829	0.500080
C71	C	1.051736	0.359127	0.000073
C72	C	1.551736	0.859127	0.500073
N73	N	1.056554	0.114819	0.246752
N74	N	1.556554	0.614819	0.746752
N75	N	1.056599	0.114837	-0.246565
N76	N	1.556599	0.614837	0.253435
C77	C	1.117397	0.058381	0.296580
C78	C	1.617397	0.558381	0.796580
C79	C	1.117403	0.058381	0.396238
C80	C	1.617403	0.558381	0.896238
C81	C	1.056570	0.114823	0.446065
C82	C	1.556570	0.614823	0.946065
C83	C	0.995719	0.171263	0.396230
C84	C	1.495719	0.671263	0.896230
C85	C	0.995710	0.171259	0.296574
C86	C	1.495710	0.671259	0.796574
C87	C	0.995745	0.171269	0.603944
C88	C	1.495745	0.671269	1.103944
C89	C	0.995756	0.171275	0.703607
C90	C	1.495756	0.671275	1.203607
C91	C	1.117439	0.058391	0.703608
C92	C	1.617439	0.558391	1.203608
C93	C	1.117429	0.058387	0.603952
C94	C	1.617429	0.558387	1.103952
C95	C	1.056580	0.114829	0.554123
C96	C	1.556580	0.614829	1.054123
H97	H	0.635206	-0.021520	0.000121
H98	H	1.135206	0.478480	0.500121
H99	H	0.308675	0.248215	0.000097
H100	H	0.808675	0.748215	0.500097
H101	H	1.202924	-0.481669	0.000092
H102	H	1.702924	0.018331	0.500092
H103	H	1.166939	0.012423	0.256017
H104	H	1.666939	0.512423	0.756017
H105	H	1.205901	-0.324348	0.000108
H106	H	1.705901	0.175652	0.500108
H107	H	0.477934	0.251189	0.000070
H108	H	0.977934	0.751189	0.500070
H109	H	0.946192	0.217228	0.563377
H110	H	1.446192	0.717228	1.063377
O111	O	0.341901	-0.038652	0.000007
O112	O	0.841901	0.461348	0.500007
C113	C	0.371176	-0.084321	-0.081992
C114	C	0.871176	0.415679	0.418008
H115	H	0.435880	-0.061608	-0.109336
H116	H	0.935880	0.438392	0.390664
H117	H	0.384135	-0.153544	-0.063536
H118	H	0.884135	0.346456	0.436464
H119	H	0.317187	-0.074740	-0.139409
H120	H	0.817187	0.425260	0.360591
O121	O	0.894365	-0.451357	-0.000056
O122	O	1.394365	0.048643	0.499944
C123	C	0.888535	-0.500907	-0.082062
C124	C	1.388535	-0.000907	0.417938
H125	H	0.959041	-0.522434	-0.109396
H126	H	1.459041	-0.022434	0.390604
H127	H	0.852895	-0.557729	-0.063621
H128	H	1.352895	-0.057729	0.436379
H129	H	0.848957	-0.462627	-0.139482
H130	H	1.348957	0.037373	0.360518
O131	O	1.176424	0.003476	0.752046
O132	O	1.676424	0.503476	1.252046
C133	C	1.128555	-0.047883	0.809723
C134	C	1.628555	0.452117	1.309723
H135	H	1.058017	-0.049400	0.779703
H136	H	1.558017	0.450600	1.279703
H137	H	1.165075	-0.113909	0.810857
H138	H	1.665075	0.386091	1.310857
H139	H	1.123866	-0.021872	0.885248
H140	H	1.623866	0.478128	1.385248
H141	H	0.516716	-0.023609	0.000117
H142	H	1.016716	0.476391	0.500117
H143	H	0.910211	-0.288658	0.000072
H144	H	1.410211	0.211342	0.500072
H145	H	0.946218	0.217235	0.744171
H146	H	1.446218	0.717235	1.244171
O147	O	0.813358	-0.030396	0.000047
O148	O	1.313358	0.469604	0.500047
C149	C	0.761614	-0.098312	0.000081
C150	C	1.261614	0.401688	0.500081
H151	H	0.691975	-0.077279	-0.029889
H152	H	1.191975	0.422721	0.470111
H153	H	0.796044	-0.150801	-0.045881
H154	H	1.296044	0.349199	0.454119
H155	H	0.754982	-0.121775	0.076039
H156	H	1.254982	0.378225	0.576039
H157	H	1.166946	0.012424	0.436808
H158	H	1.666946	0.512424	0.936808
O159	O	0.587549	0.265113	0.000028
O160	O	1.087549	0.765113	0.500028
C161	C	0.639296	0.333027	0.000033
C162	C	1.139296	0.833027	0.500033
H163	H	0.708930	0.311993	-0.029947
H164	H	1.208930	0.811993	0.470053
H165	H	0.604860	0.385519	-0.045935
H166	H	1.104860	0.885519	0.454065
H167	H	0.645939	0.356485	0.075984
H168	H	1.145939	0.856485	0.575984
H169	H	1.166969	0.012432	0.563383
H170	H	1.666969	0.512432	1.063383
H171	H	0.946164	0.217216	0.256004
H172	H	1.446164	0.717216	0.756004
O173	O	0.771383	0.268248	-0.000122
O174	O	1.271383	0.768248	0.499878
C175	C	0.824721	0.273725	-0.082112
C176	C	1.324721	0.773725	0.417888
H177	H	0.802670	0.230257	-0.139415
H178	H	1.302670	0.730257	0.360585
H179	H	0.816320	0.340723	-0.109642
H180	H	1.316320	0.840723	0.390358
H181	H	0.898301	0.254625	-0.063579
H182	H	1.398301	0.754625	0.436421
O183	O	0.936588	0.225976	0.444736
O184	O	1.436588	0.725976	0.944736
C185	C	0.881419	0.181366	0.502384
C186	C	1.381419	0.681366	1.002384
H187	H	0.917067	0.116362	0.517320
H188	H	1.417067	0.616362	1.017320
H189	H	0.867267	0.216049	0.572457
H190	H	1.367267	0.716049	1.072457
H191	H	0.815313	0.175613	0.463991
H192	H	1.315313	0.675613	0.963991
