data_functionalizedCrystal
_audit_creation_method	'MofGen! by Chris Wilmer'
_symmetry_space_group_name_H-M	'P1'
_symmetry_Int_Tables_number	1
_symmetry_cell_setting	triclinic
loop_
_symmetry_equiv_pos_as_xyz
  x,y,z
_cell_length_a	15.297475
_cell_length_b	29.839131
_cell_length_c	15.296720
_cell_angle_alpha	80.358376
_cell_angle_beta	88.382886
_cell_angle_gamma	80.344077
loop_
_atom_site_label
_atom_site_type_symbol
_atom_site_fract_x
_atom_site_fract_y
_atom_site_fract_z
Zn1	Zn	1.253170	-0.349618	0.726554
Zn2	Zn	1.278390	-0.414303	0.580062
Zn3	Zn	1.132065	-0.324381	0.554798
Zn4	Zn	1.106619	-0.409887	0.701191
O5	O	1.192561	-0.374547	0.640651
O6	O	1.379086	-0.370608	0.728310
O7	O	1.280184	-0.393661	0.454137
O8	O	1.148224	-0.264874	0.577624
O9	O	1.397615	-0.418132	0.620682
O10	O	1.237200	-0.283415	0.703812
O11	O	1.172679	-0.327596	0.435576
O12	O	1.006120	-0.323314	0.553030
O13	O	1.104856	-0.410606	0.827129
O14	O	0.987425	-0.386135	0.660584
O15	O	1.212526	-0.366326	0.845763
O16	O	1.255510	-0.476572	0.596088
O17	O	1.129311	-0.473328	0.685081
C18	C	0.964991	-0.351507	0.601314
C19	C	0.867632	-0.341663	0.584506
C20	C	1.192407	-0.491252	0.640597
C21	C	1.192416	-0.541189	0.640617
C22	C	0.554418	-0.444909	0.760783
C23	C	0.645892	-0.454161	0.776572
C24	C	0.701331	-0.426037	0.728558
C25	C	0.665288	-0.388660	0.664750
C26	C	0.573806	-0.379409	0.648954
C27	C	0.720719	-0.360537	0.616728
C28	C	0.684676	-0.323160	0.552921
C29	C	0.593202	-0.313910	0.537128
C30	C	0.537763	-0.342034	0.585143
C31	C	0.812201	-0.369788	0.632524
C32	C	0.831589	-0.304288	0.520695
C33	C	0.740115	-0.295036	0.504906
C34	C	1.126886	-0.896121	0.686993
C35	C	1.126775	-0.708434	0.686945
O36	O	1.070871	-0.682742	0.726326
N37	N	1.192504	-0.686645	0.640659
C38	C	1.258268	-0.711781	0.594386
O39	O	1.314177	-0.688942	0.555024
C40	C	1.258382	-0.899468	0.594439
C41	C	1.192644	-0.921253	0.640721
C42	C	1.061154	-0.917907	0.733271
C43	C	1.061179	-0.964825	0.733279
C44	C	1.126937	-0.989958	0.687007
C45	C	1.192669	-0.968172	0.640729
C46	C	1.324149	-0.924603	0.548172
C47	C	1.324173	-0.971528	0.548192
C48	C	1.258435	-0.993314	0.594473
C49	C	1.258453	-1.040222	0.594465
N50	N	1.192724	-1.062012	0.640751
C51	C	1.126966	-1.036879	0.687022
C52	C	1.258203	-0.613242	0.594360
C53	C	1.258173	-0.566321	0.594346
C54	C	1.126681	-0.562978	0.686906
C55	C	1.126707	-0.609899	0.686915
C56	C	1.192474	-0.635032	0.640646
C57	C	1.127025	-1.135411	0.687034
C58	C	1.127054	-1.182333	0.687034
C59	C	1.258549	-1.185673	0.594478
C60	C	1.258517	-1.138754	0.594473
C61	C	1.192751	-1.113625	0.640758
O62	O	1.314333	-1.065943	0.555113
O63	O	1.071077	-1.059729	0.726395
C64	C	1.126860	-0.849203	0.686985
C65	C	1.192592	-0.827417	0.640706
C66	C	1.258350	-0.852549	0.594435
C67	C	1.192563	-0.780495	0.640692
C68	C	1.126805	-0.755363	0.686963
C69	C	1.061077	-0.777152	0.733249
C70	C	1.061102	-0.824071	0.733257
C71	C	1.324079	-0.830760	0.548149
C72	C	1.324047	-0.783841	0.548144
C73	C	1.258290	-0.758709	0.594416
C74	C	1.421020	-0.397677	0.680143
C75	C	1.518375	-0.407534	0.696972
C76	C	1.153040	-0.390788	0.869117
C77	C	1.136198	-0.397709	0.966475
C78	C	1.192737	-0.257391	0.640729
C79	C	1.192812	-0.207466	0.640763
C80	C	1.231979	-0.358342	0.413084
C81	C	1.248991	-0.351312	0.315755
C82	C	1.312964	-0.325006	1.279721
C83	C	1.328793	-0.318505	1.188249
C84	C	1.280646	-0.338305	1.132801
C85	C	1.216667	-0.364608	1.168834
C86	C	1.200841	-0.371113	1.260316
C87	C	1.168522	-0.384412	1.113396
C88	C	1.104543	-0.410716	1.149429
C89	C	1.088720	-0.417219	1.240902
C90	C	1.136867	-0.397419	1.296350
C91	C	1.184348	-0.377907	1.021914
C92	C	1.072225	-0.424015	1.002509
C93	C	1.056396	-0.430516	1.093981
H94	H	0.841539	-0.400221	0.684478
H95	H	1.007647	-0.982559	0.770965
N96	N	0.991040	-0.457383	1.130778
N97	N	0.948047	-0.475057	1.081270
H98	H	0.901885	-0.494030	1.107256
H99	H	1.312084	-1.206143	0.556801
H100	H	1.036631	-0.438641	1.270238
H101	H	0.775813	-0.433573	0.741418
N102	N	1.023048	-0.444240	0.945868
N103	N	1.037184	-0.438428	0.864194
H104	H	1.002457	-0.452711	0.824186
N105	N	1.362125	-0.304785	1.336373
N106	N	1.322518	-0.276675	1.382117
H107	H	1.357240	-0.262393	1.422130
N108	N	0.888197	-0.275555	0.471632
N109	N	0.891945	-0.271688	0.389029
H110	H	0.931928	-0.251397	0.354378
N111	N	0.993975	-0.892247	0.780550
N112	N	0.935298	-0.911714	0.821865
H113	H	0.887845	-0.893595	0.855255
H114	H	1.312040	-1.121015	0.556776
H115	H	0.675232	-0.484595	0.828523
H116	H	1.377578	-0.766106	0.510448
H117	H	0.509273	-0.467805	0.799865
H118	H	1.123983	-0.402711	1.370835
N119	N	0.993943	-0.846313	0.780535
N120	N	0.935241	-0.823860	0.821840
H121	H	0.887806	-0.839566	0.855234
H122	H	0.563861	-0.283479	0.485162
N123	N	0.993909	-0.751468	0.780506
N124	N	0.993906	-0.709575	0.780484
H125	H	0.946474	-0.691434	0.813860
H126	H	1.380887	-0.297090	1.158918
N127	N	0.444319	-0.332587	0.569030
N128	N	0.394834	-0.357698	0.611915
H129	H	0.328837	-0.351027	0.600539
H130	H	0.710756	-0.264603	0.452952
N131	N	1.059892	-1.204584	0.734299
N132	N	0.980090	-1.190787	0.714445
H133	H	0.932657	-1.206501	0.747825
N134	N	1.059844	-1.109754	0.734320
N135	N	1.001165	-1.129219	0.775634
H136	H	0.953715	-1.111099	0.809027
H137	H	1.073137	-0.542507	0.724581
N138	N	1.059549	-0.632143	0.734192
N139	N	1.000841	-0.609692	0.775494
H140	H	0.953408	-0.625399	0.808886
N141	N	1.325318	-0.544075	0.547049
N142	N	1.384022	-0.566525	0.505741
H143	H	1.431448	-0.550817	0.472337
N144	N	1.391264	-0.856422	0.500883
N145	N	1.449943	-0.836957	0.459568
H146	H	1.497397	-0.855079	0.426181
H147	H	1.293538	-0.333010	1.058321
N148	N	1.249694	-0.351043	0.985099
N149	N	1.314315	-0.368868	0.943689
H150	H	1.360469	-0.349893	0.917687
H151	H	1.311760	-0.633701	0.556680
H152	H	1.377679	-0.906872	0.510486
H153	H	1.377732	-0.991989	0.510517
