data_functionalizedCrystal
_audit_creation_method	'MofGen! by Chris Wilmer'
_symmetry_space_group_name_H-M	'P1'
_symmetry_Int_Tables_number	1
_symmetry_cell_setting	triclinic
loop_
_symmetry_equiv_pos_as_xyz
  x,y,z
_cell_length_a	12.594517
_cell_length_b	25.639240
_cell_length_c	25.639243
_cell_angle_alpha	89.983649
_cell_angle_beta	90.003956
_cell_angle_gamma	89.960950
loop_
_atom_site_label
_atom_site_type_symbol
_atom_site_fract_x
_atom_site_fract_y
_atom_site_fract_z
Zn1	Zn	1.626987	0.208295	0.295479
Zn2	Zn	1.626817	0.295707	0.208041
Zn3	Zn	1.449014	0.208281	0.208071
Zn4	Zn	1.448889	0.295695	0.295458
O5	O	1.537927	0.251994	0.251762
O6	O	1.775910	0.219901	0.283876
O7	O	1.603213	0.284109	0.134879
O8	O	1.472747	0.135118	0.219688
O9	O	1.775786	0.284122	0.219635
O10	O	1.603502	0.135128	0.283906
O11	O	1.472582	0.219877	0.134902
O12	O	1.300052	0.219866	0.219668
O13	O	1.472533	0.284102	0.368626
O14	O	1.299960	0.284088	0.283870
O15	O	1.603381	0.219889	0.368642
O16	O	1.603091	0.368870	0.219615
O17	O	1.472368	0.368862	0.283840
C18	C	1.261386	0.251975	0.251770
C19	C	1.143081	0.251979	0.251786
C20	C	1.073808	0.286978	0.286639
C21	C	1.003042	0.239311	0.299504
C22	C	1.003048	0.299685	0.238909
C23	C	1.073873	0.204287	0.264677
C24	C	1.073884	0.264692	0.204059
C25	C	1.003150	0.216993	0.216907
C26	C	1.537726	0.387837	0.251734
C27	C	1.537738	0.445951	0.251739
C28	C	1.606084	0.806306	0.218357
C29	C	1.606116	0.860910	0.218362
O30	O	1.664085	0.889140	0.189964
N31	N	1.538013	0.888233	0.251774
C32	C	1.469880	0.860949	0.285187
O33	O	1.411956	0.889204	0.313607
C34	C	1.469853	0.806346	0.285184
C35	C	1.537954	0.779026	0.251766
C36	C	1.674180	0.778986	0.184942
C37	C	1.674145	0.724385	0.184937
C38	C	1.606015	0.697105	0.218346
C39	C	1.537920	0.724425	0.251761
C40	C	1.401727	0.779063	0.318599
C41	C	1.401707	0.724456	0.318594
C42	C	1.469807	0.697136	0.285176
C43	C	1.469755	0.642544	0.285164
N44	N	1.537859	0.615221	0.251752
C45	C	1.605989	0.642502	0.218343
C46	C	1.469942	0.975620	0.285191
C47	C	1.469962	1.030222	0.285191
C48	C	1.606200	1.030180	0.218367
C49	C	1.606174	0.975576	0.218364
C50	C	1.538045	0.948297	0.251779
C51	C	1.605911	0.527837	0.218334
C52	C	1.605868	0.473231	0.218330
C53	C	1.469634	0.473279	0.285155
C54	C	1.469673	0.527879	0.285158
C55	C	1.537820	0.555157	0.251745
O56	O	1.411819	0.614280	0.313550
O57	O	1.663913	0.614241	0.189933
C58	C	1.815548	0.252015	0.251755
C59	C	1.933853	0.252023	0.251751
C60	C	1.537962	0.251996	0.388135
C61	C	1.537977	0.251996	0.446249
C62	C	1.538117	1.115621	0.251794
C63	C	1.538097	1.057507	0.251784
C64	C	1.469896	0.218556	0.806630
C65	C	1.469888	0.218556	0.861234
O66	O	1.412020	0.190130	0.889485
N67	N	1.537900	0.251996	0.888532
C68	C	1.605918	0.285442	0.861223
O69	O	1.663766	0.313886	0.889455
C70	C	1.605920	0.285443	0.806619
C71	C	1.537910	0.251997	0.779324
C72	C	1.401892	0.185113	0.779335
C73	C	1.401901	0.185112	0.724734
C74	C	1.469916	0.218553	0.697429
C75	C	1.537920	0.251996	0.724724
C76	C	1.673931	0.318891	0.779311
C77	C	1.673926	0.318890	0.724704
C78	C	1.605917	0.285444	0.697409
C79	C	1.605944	0.285437	0.642818
N80	N	1.537932	0.251997	0.615520
C81	C	1.469917	0.218555	0.642825
C82	C	1.605907	0.285437	0.975893
C83	C	1.605912	0.285433	1.030496
C84	C	1.469880	0.218548	1.030503
C85	C	1.469882	0.218549	0.975900
C86	C	1.537895	0.251996	0.948595
C87	C	1.469944	0.218555	0.528160
C88	C	1.469962	0.218555	0.473555
C89	C	1.605989	0.285441	0.473552
C90	C	1.605975	0.285439	0.528153
C91	C	1.537943	0.251994	0.555455
O92	O	1.663779	0.313850	0.614532
O93	O	1.412069	0.190121	0.614586
C94	C	1.537890	0.252002	1.115920
C95	C	1.537893	0.251993	1.057806
H96	H	1.661406	0.550040	0.191127
C97	C	1.327799	0.694905	0.354959
C98	C	1.350904	0.708169	0.406697
C99	C	1.282834	0.680962	0.440209
H100	H	1.337463	0.658464	0.350243
H101	H	1.256281	0.703902	0.347315
H102	H	1.422405	0.699168	0.414338
H103	H	1.341233	0.744605	0.411429
H104	H	1.211316	0.689959	0.432566
H105	H	1.292504	0.644523	0.435489
H106	H	1.298495	0.689961	0.475317
H107	H	1.104852	0.163949	0.275600
C108	C	1.115358	0.279132	0.150294
C109	C	1.077938	0.328720	0.136620
C110	C	1.116136	0.342048	0.087099
H111	H	1.091236	0.254310	0.125488
H112	H	1.190784	0.279367	0.150786
H113	H	1.002528	0.328481	0.136124
H114	H	1.102057	0.353553	0.161412
H115	H	1.191562	0.342282	0.087591
H116	H	1.092011	0.317222	0.062297
H117	H	1.090760	0.375695	0.077817
H118	H	1.414223	0.550125	0.312371
C119	C	1.395894	0.945938	0.321382
C120	C	1.327712	0.914623	0.291753
C121	C	1.259497	0.887271	0.325074
H122	H	1.355240	0.969975	0.341290
H123	H	1.436530	0.924581	0.344172
H124	H	1.287080	0.935979	0.268972
H125	H	1.368336	0.890576	0.271846
H126	H	1.300133	0.865914	0.347864
H127	H	1.218851	0.911312	0.344981
H128	H	1.213234	0.866017	0.304976
H129	H	1.661323	0.450989	0.191115
H130	H	1.414547	0.191320	0.550384
C131	C	1.395974	1.059786	0.321527
C132	C	1.336326	1.024202	0.350790
C133	C	1.268170	1.051414	0.384276
H134	H	1.349541	1.081119	0.301572
H135	H	1.436645	1.081047	0.344355
H136	H	1.295658	1.002950	0.327965
H137	H	1.382731	1.002868	0.370756
H138	H	1.308840	1.072675	0.407105
H139	H	1.221744	1.072746	0.364317
H140	H	1.227697	1.027274	0.404139
C141	C	0.961690	0.224910	0.353306
C142	C	0.999136	0.175333	0.367002
C143	C	0.961081	0.162057	0.416563
H144	H	0.886276	0.224674	0.352882
H145	H	0.985908	0.249767	0.378063
H146	H	0.974912	0.150482	0.342251
H147	H	1.074546	0.175556	0.367437
H148	H	0.985299	0.186914	0.441321
H149	H	0.885667	0.161824	0.416135
H150	H	0.986490	0.128420	0.425865
H151	H	1.661303	0.312662	1.052715
H152	H	1.414504	0.191314	0.953680
H153	H	0.971933	0.340010	0.228033
H154	H	0.972321	0.187380	0.187418
C155	C	1.748215	0.694822	0.148641
C156	C	1.807902	0.730409	0.119399
C157	C	1.876164	0.703199	0.085963
H158	H	1.707653	0.673544	0.125792
H159	H	1.794611	0.673507	0.168647
H160	H	1.761512	0.751716	0.099394
H161	H	1.848486	0.751688	0.142234
H162	H	1.922560	0.681883	0.105970
H163	H	1.835594	0.681922	0.063119
H164	H	1.916677	0.727340	0.066122
C165	C	1.748359	0.808606	0.148771
C166	C	1.816583	0.839880	0.178421
C167	C	1.884972	0.867154	0.145122
H168	H	1.707885	0.829987	0.125945
H169	H	1.788964	0.784507	0.128902
H170	H	1.775982	0.863976	0.198281
H171	H	1.857081	0.818511	0.201245
H172	H	1.925577	0.843055	0.125252
H173	H	1.844489	0.888533	0.122297
H174	H	1.931276	0.888373	0.165234
H175	H	1.414581	0.191317	0.451334
C176	C	1.680232	0.946011	0.182064
C177	C	1.739913	0.981596	0.152817
C178	C	1.808161	0.954383	0.119376
H179	H	1.639660	0.924734	0.159220
H180	H	1.726633	0.924695	0.202068
H181	H	1.693518	1.002903	0.132815
H182	H	1.780507	1.002874	0.175647
H183	H	1.854562	0.933067	0.139379
H184	H	1.767580	0.933106	0.096535
H185	H	1.848669	0.978523	0.099531
C186	C	1.680393	1.059810	0.182206
C187	C	1.748595	1.091078	0.211874
C188	C	1.816996	1.118367	0.178593
H189	H	1.639926	1.081197	0.159382
H190	H	1.721013	1.035720	0.162333
H191	H	1.707979	1.115165	0.231738
H192	H	1.789085	1.069703	0.234697
H193	H	1.857616	1.094277	0.158720
H194	H	1.776520	1.139751	0.155771
H195	H	1.863285	1.139581	0.198718
C196	C	1.395885	0.182331	1.060181
C197	C	1.327602	0.211940	1.091502
C198	C	1.259415	0.178600	1.118843
H199	H	1.436504	0.159542	1.081536
H200	H	1.355313	0.162424	1.036122
H201	H	1.368169	0.231839	1.115558
H202	H	1.286960	0.234729	1.070160
H203	H	1.218843	0.158693	1.094784
H204	H	1.300042	0.155812	1.140195
H205	H	1.213071	0.198685	1.140094
H206	H	1.346501	0.157880	0.801561
H207	H	1.346267	0.801298	0.345809
C208	C	1.395786	0.443559	0.321408
C209	C	1.410365	0.389894	0.314259
C210	C	1.342371	0.362499	0.347654
H211	H	1.324239	0.452477	0.313769
H212	H	1.411337	0.452456	0.356556
H213	H	1.394807	0.381001	0.279120
H214	H	1.481897	0.380960	0.321902
H215	H	1.357921	0.371396	0.382801
H216	H	1.270828	0.371421	0.340012
H217	H	1.352260	0.326084	0.342811
C218	C	1.679883	0.321768	0.946345
C219	C	1.739458	0.351040	0.981943
C220	C	1.807623	0.384508	0.954746
H221	H	1.639256	0.344596	0.925034
H222	H	1.726355	0.301784	0.925064
H223	H	1.692992	0.371022	1.003216
H224	H	1.780107	0.328226	1.003255
H225	H	1.854094	0.364524	0.933465
H226	H	1.766987	0.407333	0.933436
H227	H	1.848059	0.404370	0.978895
C228	C	1.327937	0.148782	0.695198
C229	C	1.268358	0.119510	0.730808
C230	C	1.200195	0.086042	0.703623
H231	H	1.368565	0.125954	0.673904
H232	H	1.281467	0.168767	0.673902
H233	H	1.314822	0.099526	0.752095
H234	H	1.227708	0.142324	0.752104
H235	H	1.153726	0.106027	0.682326
H236	H	1.240832	0.063218	0.682329
H237	H	1.159756	0.066180	0.727779
H238	H	1.729310	0.346127	0.801525
H239	H	1.729318	0.346124	0.702475
H240	H	1.661365	0.312668	0.550377
C241	C	1.679646	0.321815	0.443870
C242	C	1.619304	0.355323	0.412521
C243	C	1.687112	0.388845	0.385173
H244	H	1.726078	0.301880	0.422533
H245	H	1.720134	0.341767	0.467925
H246	H	1.578835	0.335373	0.388468
H247	H	1.572875	0.375269	0.433845
H248	H	1.727600	0.408797	0.409229
H249	H	1.733541	0.368905	0.363839
H250	H	1.646180	0.411587	0.363904
C251	C	1.115134	0.326298	0.326068
C252	C	1.079258	0.312762	0.375951
C253	C	1.117320	0.348965	0.412288
H254	H	1.089869	0.360108	0.317337
H255	H	1.190562	0.326221	0.325618
H256	H	1.003845	0.312845	0.376400
H257	H	1.104520	0.278959	0.384699
H258	H	1.192749	0.348888	0.411838
H259	H	1.092053	0.382772	0.403551
H260	H	1.092992	0.339783	0.446138
