data_functionalizedCrystal
_audit_creation_method	'MofGen! by Chris Wilmer'
_symmetry_space_group_name_H-M	'P1'
_symmetry_Int_Tables_number	1
_symmetry_cell_setting	triclinic
loop_
_symmetry_equiv_pos_as_xyz
  x,y,z
_cell_length_a	16.120530
_cell_length_b	12.759399
_cell_length_c	12.759393
_cell_angle_alpha	89.969094
_cell_angle_beta	92.920001
_cell_angle_gamma	92.889229
loop_
_atom_site_label
_atom_site_type_symbol
_atom_site_fract_x
_atom_site_fract_y
_atom_site_fract_z
Zn1	Zn	1.274633	0.499768	0.675423
Zn2	Zn	1.774633	0.999768	1.175423
Zn3	Zn	1.274545	0.675478	0.499736
Zn4	Zn	1.774545	1.175478	0.999736
Zn5	Zn	1.135207	0.490899	0.490853
Zn6	Zn	1.635207	0.990899	0.990853
Zn7	Zn	1.135200	0.666484	0.666474
Zn8	Zn	1.635200	1.166484	1.166474
O9	O	1.204896	0.583157	0.583121
O10	O	1.704896	1.083157	1.083121
O11	O	1.391288	0.530552	0.659580
O12	O	1.891288	1.030552	1.159580
O13	O	1.256028	0.651045	0.351534
O14	O	1.756028	1.151045	0.851534
O15	O	1.153742	0.345057	0.515364
O16	O	1.653742	0.845057	1.015364
O17	O	1.391224	0.659645	0.530504
O18	O	1.891224	1.159645	1.030504
O19	O	1.256177	0.351573	0.650967
O20	O	1.756177	0.851573	1.150967
O21	O	1.153657	0.515435	0.345008
O22	O	1.653657	1.015435	0.845008
O23	O	1.018539	0.506715	0.506687
O24	O	1.518539	1.006715	1.006687
O25	O	1.153729	0.644317	0.814684
O26	O	1.653729	1.144317	1.314684
O27	O	1.018534	0.635717	0.635715
O28	O	1.518534	1.135717	1.135715
O29	O	1.256170	0.521831	0.821259
O30	O	1.756170	1.021831	1.321259
O31	O	1.256021	0.821303	0.521826
O32	O	1.756021	1.321303	1.021826
O33	O	1.153644	0.814696	0.644328
O34	O	1.653644	1.314696	1.144328
C35	C	1.204845	0.856121	0.583094
C36	C	1.704845	1.356121	1.083094
C37	C	1.204900	0.972901	0.583123
C38	C	1.704900	1.472901	1.083123
C39	C	0.988286	0.569278	0.569266
C40	C	1.488286	1.069278	1.069266
C41	C	0.895619	0.563366	0.563364
C42	C	1.395619	1.063366	1.063364
C43	C	1.204959	0.583060	0.857159
C44	C	1.704959	1.083060	1.357159
C45	C	1.204985	0.583019	0.973937
C46	C	1.704985	1.083019	1.473937
C47	C	0.725956	0.552547	0.552597
C48	C	1.225956	1.052547	1.052597
C49	C	0.684677	0.613845	0.613722
C50	C	1.184677	1.113845	1.113722
C51	C	0.590271	0.607825	0.607731
C52	C	1.090271	1.107825	1.107731
C53	C	0.820371	0.558565	0.558587
C54	C	1.320371	1.058565	1.058587
C55	C	1.422352	0.597091	0.597031
C56	C	1.922352	1.097091	1.097031
C57	C	1.515019	0.603029	0.602958
C58	C	2.015019	1.103029	1.102958
C59	C	1.204970	0.309129	0.583173
C60	C	1.704970	0.809129	1.083173
C61	C	1.205002	0.192354	0.583195
C62	C	1.705002	0.692354	1.083195
C63	C	1.258268	1.031173	0.519416
C64	C	1.758268	1.531173	1.019416
C65	C	1.258322	1.140900	0.519455
C66	C	1.758322	1.640900	1.019455
C67	C	1.151631	1.134075	0.646909
C68	C	1.651631	1.634075	1.146909
C69	C	1.151582	1.024349	0.646875
C70	C	1.651582	1.524349	1.146875
C71	C	1.204882	0.583181	0.310153
C72	C	1.704882	1.083181	0.810153
C73	C	1.205017	0.582937	0.193386
C74	C	1.705017	1.082937	0.693386
C75	C	1.258330	0.519230	1.032225
C76	C	1.758330	1.019230	1.532225
C77	C	1.258344	0.519186	1.141950
C78	C	1.758344	1.019186	1.641950
C79	C	1.151666	0.646728	1.135090
C80	C	1.651666	1.146728	1.635090
C81	C	1.151648	0.646766	1.025367
C82	C	1.651648	1.146766	1.525367
H83	H	0.690396	0.495553	0.495772
H84	H	1.190396	0.995553	0.995772
H85	H	1.108123	0.976901	0.698757
H86	H	1.608123	1.476901	1.198757
O87	O	1.315885	0.450392	1.204821
O88	O	1.815885	0.950392	1.704821
H89	H	1.352972	0.406081	1.150622
H90	H	1.852972	0.906081	1.650622
H91	H	1.108221	1.175977	0.698812
H92	H	1.608221	1.675977	1.198812
O93	O	1.094083	0.715548	0.962502
O94	O	1.594083	1.215548	1.462502
H95	H	1.108344	0.798921	0.984442
H96	H	1.608344	1.298921	1.484442
O97	O	1.315781	0.975677	0.450672
O98	O	1.815781	1.475677	0.950672
H99	H	1.352907	1.034637	0.406389
H100	H	1.852907	1.534637	0.906389
H101	H	1.301758	0.467320	0.990354
H102	H	1.801758	0.967320	1.490354
O103	O	1.315878	1.203754	0.450738
O104	O	1.815878	1.703754	0.950738
H105	H	1.352937	1.149541	0.406398
H106	H	1.852937	1.649541	0.906398
O107	O	0.731778	0.689354	0.688995
O108	O	1.231778	1.189354	1.188995
H109	H	0.715170	0.670394	0.770452
H110	H	1.215170	1.170394	1.270452
O111	O	1.094141	0.715484	1.190559
O112	O	1.594141	1.215484	1.690559
H113	H	1.103118	0.704749	1.276650
H114	H	1.603118	1.204749	1.776650
