data_functionalizedCrystal
_audit_creation_method	'MofGen! by Chris Wilmer'
_symmetry_space_group_name_H-M	'P1'
_symmetry_Int_Tables_number	1
_symmetry_cell_setting	triclinic
loop_
_symmetry_equiv_pos_as_xyz
  x,y,z
_cell_length_a	14.971482
_cell_length_b	14.044220
_cell_length_c	13.448316
_cell_angle_alpha	90.004789
_cell_angle_beta	89.993258
_cell_angle_gamma	91.599257
loop_
_atom_site_label
_atom_site_type_symbol
_atom_site_fract_x
_atom_site_fract_y
_atom_site_fract_z
O1	O	1.196681	-0.123521	-0.082677
O2	O	1.696681	0.376479	0.417323
O3	O	0.937446	-0.138318	-0.082681
O4	O	1.437446	0.361682	0.417319
O5	O	1.063172	0.007070	-0.082675
O6	O	1.563172	0.507070	0.417325
O7	O	1.070955	-0.268908	-0.082684
O8	O	1.570955	0.231092	0.417316
O9	O	1.063153	0.007078	0.082709
O10	O	1.563153	0.507078	0.582709
O11	O	0.937427	-0.138310	0.082702
O12	O	1.437427	0.361690	0.582702
O13	O	1.196662	-0.123513	0.082707
O14	O	1.696662	0.376487	0.582707
Cu15	Cu	1.067042	-0.130911	0.097805
Cu16	Cu	1.567042	0.369089	0.597805
Cu17	Cu	1.067065	-0.130920	-0.097780
Cu18	Cu	1.567065	0.369080	0.402220
O19	O	1.070935	-0.268900	0.082700
O20	O	1.570935	0.231100	0.582700
C21	C	0.904059	-0.137653	0.000010
C22	C	1.404059	0.362347	0.500010
C23	C	0.804606	-0.135672	0.000008
C24	C	1.304606	0.364328	0.500008
C25	C	0.757877	-0.134734	0.090160
C26	C	1.257877	0.365266	0.590160
C27	C	0.664431	-0.132858	0.090161
C28	C	1.164431	0.367142	0.590161
C29	C	0.617715	-0.131925	0.000009
C30	C	1.117715	0.368075	0.500009
C31	C	0.664450	-0.132860	-0.090149
C32	C	1.164450	0.367140	0.409851
C33	C	0.757895	-0.134730	-0.090150
C34	C	1.257895	0.365270	0.409850
C35	C	0.469682	-0.128965	-0.090143
C36	C	0.969682	0.371035	0.409857
C37	C	0.376230	-0.127096	-0.090143
C38	C	0.876230	0.372904	0.409857
C39	C	0.376217	-0.127093	0.090168
C40	C	0.876217	0.372907	0.590168
C41	C	0.469662	-0.128962	0.090168
C42	C	0.969662	0.371038	0.590168
C43	C	0.516391	-0.129899	0.000008
C44	C	1.016391	0.370101	0.500008
C45	C	1.074351	-0.304223	0.000007
C46	C	1.574351	0.195777	0.500007
C47	C	1.084513	-0.409460	0.000004
C48	C	1.584513	0.090540	0.500004
C49	C	1.103089	-0.602142	0.000009
C50	C	1.603089	-0.102142	0.500009
C51	C	1.031022	-0.659694	0.000008
C52	C	1.531022	-0.159694	0.500008
C53	C	1.041359	-0.766909	0.000011
C54	C	1.541359	-0.266909	0.500011
C55	C	1.092754	-0.494917	0.000006
C56	C	1.592754	0.005083	0.500006
C57	C	1.230048	-0.124178	0.000013
C58	C	1.730048	0.375822	0.500013
C59	C	1.329501	-0.126159	0.000009
C60	C	1.829501	0.373841	0.500009
C61	C	1.059756	0.042392	0.000016
C62	C	1.559756	0.542392	0.500016
C63	C	1.049595	0.147629	0.000013
C64	C	1.549595	0.647629	0.500013
N65	N	1.067033	-0.130904	0.235370
N66	N	1.567033	0.369096	0.735370
C67	C	1.122725	-0.066553	0.287413
C68	C	1.622725	0.433447	0.787413
C69	C	1.122729	-0.066553	0.391516
C70	C	1.622729	0.433447	0.891516
C71	C	1.067046	-0.130909	0.443574
C72	C	1.567046	0.369091	0.943574
C73	C	1.011348	-0.195263	0.391524
C74	C	1.511348	0.304737	0.891524
C75	C	1.011339	-0.195257	0.287422
C76	C	1.511339	0.304743	0.787422
C77	C	1.011371	-0.195271	0.608504
C78	C	1.511371	0.304729	1.108504
C79	C	1.011381	-0.195277	0.712612
C80	C	1.511381	0.304723	1.212612
C81	C	1.122762	-0.066566	0.712598
C82	C	1.622762	0.433434	1.212598
C83	C	1.122753	-0.066561	0.608496
C84	C	1.622753	0.433439	1.108496
C85	C	1.067056	-0.130916	0.556453
C86	C	1.567056	0.369084	1.056453
N87	N	1.067073	-0.130926	0.764656
N88	N	1.567073	0.369074	1.264656
H89	H	0.795907	-0.135501	0.163572
H90	H	1.295907	0.364499	0.663572
Br91	Br	0.915247	-0.607617	0.000012
Br92	Br	1.415247	-0.107617	0.500012
Br93	Br	1.218857	-0.654222	0.000014
Br94	Br	1.718857	-0.154222	0.500014
H95	H	0.966036	-0.247682	0.754993
H96	H	1.466036	0.252318	1.254993
H97	H	1.168073	-0.014151	0.245034
H98	H	1.668073	0.485849	0.745034
Br99	Br	0.935775	-0.282608	0.537877
Br100	Br	1.435775	0.217392	1.037877
Br101	Br	1.198309	0.020785	0.462150
Br102	Br	1.698309	0.520785	0.962150
Br103	Br	0.821315	-0.135993	-0.212503
Br104	Br	1.321315	0.364007	0.287497
Br105	Br	0.601016	-0.131601	0.212515
Br106	Br	1.101016	0.368399	0.712515
H107	H	1.168112	-0.014166	0.754978
H108	H	1.668112	0.485834	1.254978
Br109	Br	1.198331	0.020771	0.537843
Br110	Br	1.698331	0.520771	1.037843
H111	H	0.966004	-0.247660	0.433915
H112	H	1.466004	0.252340	0.933915
Br113	Br	0.935747	-0.282589	0.216792
Br114	Br	1.435747	0.217411	0.716792
H115	H	0.626407	-0.132094	-0.163553
H116	H	1.126407	0.367906	0.336447
Br117	Br	0.312801	-0.125826	0.212527
Br118	Br	0.812801	0.374174	0.712527
Br119	Br	0.533062	-0.130243	0.212518
Br120	Br	1.033062	0.369757	0.712518
Br121	Br	0.312829	-0.125831	-0.212493
Br122	Br	0.812829	0.374169	0.287507
H123	H	0.507725	-0.129727	-0.163560
H124	H	1.007725	0.370273	0.336440
