data_functionalizedCrystal
_audit_creation_method	'MofGen! by Chris Wilmer'
_symmetry_space_group_name_H-M	'P1'
_symmetry_Int_Tables_number	1
_symmetry_cell_setting	triclinic
loop_
_symmetry_equiv_pos_as_xyz
  x,y,z
_cell_length_a	16.109301
_cell_length_b	16.109302
_cell_length_c	14.586319
_cell_angle_alpha	89.996326
_cell_angle_beta	89.998857
_cell_angle_gamma	83.461823
loop_
_atom_site_label
_atom_site_type_symbol
_atom_site_fract_x
_atom_site_fract_y
_atom_site_fract_z
O1	O	1.103131	0.106867	-0.076190
O2	O	1.353131	0.356867	0.173810
O3	O	1.603131	0.606867	0.423810
O4	O	1.853131	0.856867	0.673810
O5	O	0.861069	0.120166	-0.076203
O6	O	1.111069	0.370166	0.173797
O7	O	1.361069	0.620166	0.423797
O8	O	1.611069	0.870166	0.673797
O9	O	0.988749	-0.007514	-0.076190
O10	O	1.238749	0.242486	0.173810
O11	O	1.488749	0.492486	0.423810
O12	O	1.738749	0.742486	0.673810
O13	O	0.975451	0.234547	-0.076202
O14	O	1.225451	0.484547	0.173798
O15	O	1.475451	0.734547	0.423798
O16	O	1.725451	0.984547	0.673798
O17	O	0.988740	-0.007516	0.076291
O18	O	1.238740	0.242484	0.326291
O19	O	1.488740	0.492484	0.576291
O20	O	1.738740	0.742484	0.826291
O21	O	0.861060	0.120164	0.076278
O22	O	1.111060	0.370164	0.326278
O23	O	1.361060	0.620164	0.576278
O24	O	1.611060	0.870164	0.826278
O25	O	1.103122	0.106865	0.076291
O26	O	1.353122	0.356865	0.326291
O27	O	1.603122	0.606865	0.576291
O28	O	1.853122	0.856865	0.826291
Cu29	Cu	0.982091	0.113515	0.090207
Cu30	Cu	1.232091	0.363515	0.340207
Cu31	Cu	1.482091	0.613515	0.590207
Cu32	Cu	1.732091	0.863515	0.840207
Cu33	Cu	0.982101	0.113517	-0.090119
Cu34	Cu	1.232101	0.363517	0.159881
Cu35	Cu	1.482101	0.613517	0.409881
Cu36	Cu	1.732101	0.863517	0.659881
O37	O	0.975442	0.234546	0.076279
O38	O	1.225442	0.484546	0.326279
O39	O	1.475442	0.734546	0.576279
O40	O	1.725442	0.984546	0.826279
C41	C	0.830090	0.119626	0.000036
C42	C	1.080090	0.369626	0.250036
C43	C	1.330090	0.619626	0.500036
C44	C	1.580090	0.869626	0.750036
C45	C	0.737795	0.118011	0.000031
C46	C	0.987795	0.368011	0.250031
C47	C	1.237795	0.618011	0.500031
C48	C	1.487795	0.868011	0.750031
C49	C	0.988206	-0.038490	0.000050
C50	C	1.238206	0.211510	0.250050
C51	C	1.488206	0.461510	0.500050
C52	C	1.738206	0.711510	0.750050
C53	C	0.986590	-0.130785	0.000048
C54	C	1.236590	0.119215	0.250048
C55	C	1.486590	0.369215	0.500048
C56	C	1.736590	0.619215	0.750048
C57	C	0.428797	0.188494	0.000044
C58	C	0.678797	0.438494	0.250044
C59	C	0.928797	0.688494	0.500044
C60	C	1.178797	0.938494	0.750044
C61	C	0.515517	0.190020	0.000038
C62	C	0.765517	0.440020	0.250038
C63	C	1.015517	0.690020	0.500038
C64	C	1.265517	0.940020	0.750038
C65	C	0.535390	0.038531	0.000034
C66	C	0.785390	0.288531	0.250034
C67	C	1.035390	0.538531	0.500034
C68	C	1.285390	0.788531	0.750034
C69	C	0.448671	0.037007	0.000033
C70	C	0.698671	0.287007	0.250033
C71	C	0.948671	0.537007	0.500033
C72	C	1.198671	0.787007	0.750033
C73	C	0.395376	0.111991	0.000042
C74	C	0.645376	0.361991	0.250042
C75	C	0.895376	0.611991	0.500042
C76	C	1.145376	0.861991	0.750042
C77	C	0.568815	0.115041	0.000038
C78	C	0.818815	0.365041	0.250038
C79	C	1.068815	0.615041	0.500038
C80	C	1.318815	0.865041	0.750038
C81	C	0.662841	0.116694	0.000032
C82	C	0.912841	0.366694	0.250032
C83	C	1.162841	0.616694	0.500032
C84	C	1.412841	0.866694	0.750032
C85	C	0.301344	0.110338	0.000046
C86	C	0.551344	0.360338	0.250046
C87	C	0.801344	0.610338	0.500046
C88	C	1.051344	0.860338	0.750046
C89	C	1.134102	0.107405	0.000050
C90	C	1.384102	0.357405	0.250050
C91	C	1.634102	0.607405	0.500050
C92	C	1.884102	0.857405	0.750050
C93	C	1.226397	0.109020	0.000049
C94	C	1.476397	0.359020	0.250049
C95	C	1.726397	0.609020	0.500049
C96	C	1.976397	0.859020	0.750049
N97	N	0.982089	0.113512	0.217039
N98	N	1.232089	0.363512	0.467039
N99	N	1.482089	0.613512	0.717039
N100	N	1.732089	0.863512	0.967039
C101	C	0.975986	0.265521	0.000037
C102	C	1.225986	0.515521	0.250037
C103	C	1.475986	0.765521	0.500037
C104	C	1.725986	1.015521	0.750037
C105	C	0.977601	0.357817	0.000032
C106	C	1.227601	0.607817	0.250032
C107	C	1.477601	0.857817	0.500032
C108	C	1.727601	1.107817	0.750032
C109	C	0.981341	0.570159	-0.083079
C110	C	1.231341	0.820159	0.166921
C111	C	1.481341	1.070159	0.416921
C112	C	1.731341	1.320159	0.666921
C113	C	0.982867	0.656879	-0.083077
C114	C	1.232867	0.906879	0.166923
C115	C	1.482867	1.156879	0.416923
C116	C	1.732867	1.406879	0.666923
C117	C	0.982853	0.656866	0.083166
C118	C	1.232853	0.906866	0.333166
C119	C	1.482853	1.156866	0.583166
C120	C	1.732853	1.406866	0.833166
C121	C	0.981333	0.570147	0.083163
C122	C	1.231333	0.820147	0.333163
C123	C	1.481333	1.070147	0.583163
C124	C	1.731333	1.320147	0.833163
C125	C	0.980572	0.526796	0.000038
C126	C	1.230572	0.776796	0.250038
C127	C	1.480572	1.026796	0.500038
C128	C	1.730572	1.276796	0.750038
C129	C	0.983619	0.700235	0.000043
C130	C	1.233619	0.950235	0.250043
C131	C	1.483619	1.200235	0.500043
C132	C	1.733619	1.450235	0.750043
C133	C	0.985274	0.794261	0.000045
C134	C	1.235274	1.044261	0.250045
C135	C	1.485274	1.294261	0.500045
C136	C	1.735274	1.544261	0.750045
C137	C	0.978919	0.432764	0.000035
C138	C	1.228919	0.682764	0.250035
C139	C	1.478919	0.932764	0.500035
C140	C	1.728919	1.182764	0.750035
N141	N	0.982109	0.113512	-0.216951
N142	N	1.232109	0.363512	0.033049
N143	N	1.482109	0.613512	0.283049
N144	N	1.732109	0.863512	0.533049
C145	C	1.038645	0.056994	0.452051
C146	C	1.288645	0.306994	0.702051
C147	C	1.538645	0.556994	0.952051
C148	C	1.788645	0.806994	1.202051
C149	C	1.038647	0.056992	0.548032
C150	C	1.288647	0.306992	0.798032
C151	C	1.538647	0.556992	1.048032
C152	C	1.788647	0.806992	1.298032
C153	C	0.925548	0.170033	0.548031
C154	C	1.175548	0.420033	0.798031
C155	C	1.425548	0.670033	1.048031
C156	C	1.675548	0.920033	1.298031
C157	C	0.925542	0.170030	0.452051
C158	C	1.175542	0.420030	0.702051
C159	C	1.425542	0.670030	0.952051
C160	C	1.675542	0.920030	1.202051
C161	C	0.982095	0.113512	0.404064
C162	C	1.232095	0.363512	0.654064
C163	C	1.482095	0.613512	0.904064
C164	C	1.732095	0.863512	1.154064
C165	C	0.982103	0.113513	0.596025
C166	C	1.232103	0.363513	0.846025
C167	C	1.482103	0.613513	1.096025
C168	C	1.732103	0.863513	1.346025
C169	C	0.982105	0.113511	0.700092
C170	C	1.232105	0.363511	0.950092
C171	C	1.482105	0.613511	1.200092
C172	C	1.732105	0.863511	1.450092
C173	C	0.982092	0.113512	0.299990
C174	C	1.232092	0.363512	0.549990
C175	C	1.482092	0.613512	0.799990
C176	C	1.732092	0.863512	1.049990
H177	H	0.385406	0.249551	0.000051
H178	H	0.635406	0.499551	0.250051
H179	H	0.885406	0.749551	0.500051
H180	H	1.135406	0.999551	0.750051
H181	H	0.983471	0.692173	0.150843
H182	H	1.233471	0.942173	0.400843
H183	H	1.483471	1.192173	0.650843
H184	H	1.733471	1.442173	0.900843
H185	H	0.542723	0.252316	0.000039
H186	H	0.792723	0.502316	0.250039
H187	H	1.042723	0.752316	0.500039
H188	H	1.292723	1.002316	0.750039
H189	H	1.084694	0.010970	0.587101
H190	H	1.334694	0.260970	0.837101
H191	H	1.584694	0.510970	1.087101
H192	H	1.834694	0.760970	1.337101
H193	H	0.578792	-0.022518	0.000028
H194	H	0.828792	0.227482	0.250028
H195	H	1.078792	0.477482	0.500028
H196	H	1.328792	0.727482	0.750028
H197	H	0.983494	0.692181	-0.150759
H198	H	1.233494	0.942181	0.099241
H199	H	1.483494	1.192181	0.349241
H200	H	1.733494	1.442181	0.599241
H201	H	0.980709	0.534840	0.150851
H202	H	1.230709	0.784840	0.400851
H203	H	1.480709	1.034840	0.650851
H204	H	1.730709	1.284840	0.900851
H205	H	0.879488	0.216054	0.412977
H206	H	1.129488	0.466054	0.662977
H207	H	1.379488	0.716054	0.912977
H208	H	1.629488	0.966054	1.162977
H209	H	0.421461	-0.025296	0.000028
H210	H	0.671461	0.224704	0.250028
H211	H	0.921461	0.474704	0.500028
H212	H	1.171461	0.724704	0.750028
H213	H	0.980721	0.534865	-0.150765
H214	H	1.230721	0.784865	0.099235
H215	H	1.480721	1.034865	0.349235
H216	H	1.730721	1.284865	0.599235
H217	H	1.084693	0.010973	0.412982
H218	H	1.334693	0.260973	0.662982
H219	H	1.584693	0.510973	0.912982
H220	H	1.834693	0.760973	1.162982
H221	H	0.879504	0.216050	0.587112
H222	H	1.129504	0.466050	0.837112
H223	H	1.379504	0.716050	1.087112
H224	H	1.629504	0.966050	1.337112
