data_functionalizedCrystal
_audit_creation_method	'MofGen! by Chris Wilmer'
_symmetry_space_group_name_H-M	'P1'
_symmetry_Int_Tables_number	1
_symmetry_cell_setting	triclinic
loop_
_symmetry_equiv_pos_as_xyz
  x,y,z
_cell_length_a	14.519709
_cell_length_b	12.996460
_cell_length_c	11.026607
_cell_angle_alpha	90.002303
_cell_angle_beta	83.866919
_cell_angle_gamma	90.000602
loop_
_atom_site_label
_atom_site_type_symbol
_atom_site_fract_x
_atom_site_fract_y
_atom_site_fract_z
O1	O	1.250088	0.085427	-0.159123
O2	O	1.500088	0.335427	0.090877
O3	O	1.750088	0.585427	0.340877
O4	O	2.000088	0.835427	0.590877
O5	O	0.984699	0.085458	-0.177863
O6	O	1.234699	0.335458	0.072137
O7	O	1.484699	0.585458	0.322137
O8	O	1.734699	0.835458	0.572137
O9	O	1.095398	0.085441	0.008208
O10	O	1.345398	0.335441	0.258208
O11	O	1.595398	0.585441	0.508208
O12	O	1.845398	0.835441	0.758208
O13	O	1.139388	0.085444	-0.345194
O14	O	1.389388	0.335444	-0.095194
O15	O	1.639388	0.585444	0.154806
O16	O	1.889388	0.835444	0.404806
O17	O	1.095382	-0.085693	0.008197
O18	O	1.345382	0.164307	0.258197
O19	O	1.595382	0.414307	0.508197
O20	O	1.845382	0.664307	0.758197
O21	O	0.984682	-0.085676	-0.177874
O22	O	1.234682	0.164324	0.072126
O23	O	1.484682	0.414324	0.322126
O24	O	1.734682	0.664324	0.572126
O25	O	1.250071	-0.085707	-0.159134
O26	O	1.500071	0.164293	0.090866
O27	O	1.750071	0.414293	0.340866
O28	O	2.000071	0.664293	0.590866
Cu29	Cu	1.117375	-0.101317	-0.168505
Cu30	Cu	1.367375	0.148683	0.081495
Cu31	Cu	1.617375	0.398683	0.331495
Cu32	Cu	1.867375	0.648683	0.581495
Cu33	Cu	1.117395	0.101068	-0.168492
Cu34	Cu	1.367395	0.351068	0.081508
Cu35	Cu	1.617395	0.601068	0.331508
Cu36	Cu	1.867395	0.851068	0.581508
O37	O	1.139372	-0.085690	-0.345205
O38	O	1.389372	0.164310	-0.095205
O39	O	1.639372	0.414310	0.154795
O40	O	1.889372	0.664310	0.404795
C41	C	0.950187	-0.000105	-0.176995
C42	C	1.200187	0.249895	0.073005
C43	C	1.450187	0.499895	0.323005
C44	C	1.700187	0.749895	0.573005
C45	C	0.847374	-0.000093	-0.174378
C46	C	1.097374	0.249907	0.075622
C47	C	1.347374	0.499907	0.325622
C48	C	1.597374	0.749907	0.575622
N49	N	1.117368	-0.243664	-0.168513
N50	N	1.367368	0.006336	0.081487
N51	N	1.617368	0.256336	0.331487
N52	N	1.867368	0.506336	0.581487
C53	C	0.470891	-0.000140	-0.164743
C54	C	0.720891	0.249860	0.085257
C55	C	0.970891	0.499860	0.335257
C56	C	1.220891	0.749860	0.585257
C57	C	0.575640	-0.000127	-0.167419
C58	C	0.825640	0.249873	0.082581
C59	C	1.075640	0.499873	0.332581
C60	C	1.325640	0.749873	0.582581
C61	C	0.659129	-0.000116	-0.169560
C62	C	0.909129	0.249884	0.080440
C63	C	1.159129	0.499884	0.330440
C64	C	1.409129	0.749884	0.580440
C65	C	0.763885	-0.000104	-0.172237
C66	C	1.013885	0.249896	0.077763
C67	C	1.263885	0.499896	0.327763
C68	C	1.513885	0.749896	0.577763
C69	C	1.117373	-0.336770	-0.168516
C70	C	1.367373	-0.086770	0.081484
C71	C	1.617373	0.163230	0.331484
C72	C	1.867373	0.413230	0.581484
C73	C	1.117380	-0.453575	-0.168508
C74	C	1.367380	-0.203575	0.081492
C75	C	1.617380	0.046425	0.331492
C76	C	1.867380	0.296425	0.581492
C77	C	1.117389	-0.546674	-0.168495
C78	C	1.367389	-0.296674	0.081505
C79	C	1.617389	-0.046674	0.331505
C80	C	1.867389	0.203326	0.581505
C81	C	1.117398	-0.663486	-0.168488
C82	C	1.367398	-0.413486	0.081512
C83	C	1.617398	-0.163486	0.331512
C84	C	1.867398	0.086514	0.581512
C85	C	1.284583	-0.000142	-0.160002
C86	C	1.534583	0.249858	0.089998
C87	C	1.784583	0.499858	0.339998
C88	C	2.034583	0.749858	0.589998
C89	C	1.387396	-0.000147	-0.162619
C90	C	1.637396	0.249853	0.087381
C91	C	1.887396	0.499853	0.337381
C92	C	2.137396	0.749853	0.587381
C93	C	1.087274	-0.000123	0.053431
C94	C	1.337274	0.249877	0.303431
C95	C	1.587274	0.499877	0.553431
C96	C	1.837274	0.749877	0.803431
C97	C	1.063082	-0.000117	0.188197
C98	C	1.313082	0.249883	0.438197
C99	C	1.563082	0.499883	0.688197
C100	C	1.813082	0.749883	0.938197
N101	N	1.117408	0.243415	-0.168474
N102	N	1.367408	0.493415	0.081526
N103	N	1.617408	0.743415	0.331526
N104	N	1.867408	0.993415	0.581526
C105	C	1.147496	-0.000123	-0.390428
C106	C	1.397496	0.249877	-0.140428
C107	C	1.647496	0.499877	0.109572
C108	C	1.897496	0.749877	0.359572
C109	C	1.171688	-0.000123	-0.525194
C110	C	1.421688	0.249877	-0.275194
C111	C	1.671688	0.499877	-0.025194
C112	C	1.921688	0.749877	0.224806
C113	C	1.129881	-0.000123	0.261858
C114	C	1.379881	0.249877	0.511858
C115	C	1.629881	0.499877	0.761858
C116	C	1.879881	0.749877	1.011858
C117	C	1.104879	-0.000117	0.401146
C118	C	1.354879	0.249883	0.651146
C119	C	1.604879	0.499883	0.901146
C120	C	1.854879	0.749883	1.151146
H121	H	1.029175	-0.000101	0.441197
H122	H	1.279175	0.249899	0.691197
H123	H	1.529175	0.499899	0.941197
H124	H	1.779175	0.749899	1.191197
H125	H	1.205581	-0.000138	0.221802
H126	H	1.455581	0.249862	0.471802
H127	H	1.705581	0.499862	0.721802
H128	H	1.955581	0.749862	0.971802
C129	C	1.317865	-0.088113	0.459936
C130	C	1.567865	0.161887	0.709936
C131	C	1.817865	0.411887	0.959936
C132	C	2.067865	0.661887	1.209936
C133	C	1.273889	-0.000137	0.420756
C134	C	1.523889	0.249863	0.670756
C135	C	1.773889	0.499863	0.920756
C136	C	2.023889	0.749863	1.170756
H137	H	1.380960	-0.088116	0.426572
H138	H	1.630960	0.161884	0.676572
H139	H	1.880960	0.411884	0.926572
H140	H	2.130960	0.661884	1.176572
H141	H	1.288010	-0.147776	0.433359
H142	H	1.538010	0.102224	0.683359
H143	H	1.788010	0.352224	0.933359
H144	H	2.038010	0.602224	1.183359
H145	H	1.314462	-0.088101	0.546449
H146	H	1.564462	0.161899	0.796449
H147	H	1.814462	0.411899	1.046449
H148	H	2.064462	0.661899	1.296449
H149	H	1.277287	-0.000153	0.334242
H150	H	1.527287	0.249847	0.584242
H151	H	1.777287	0.499847	0.834242
H152	H	2.027287	0.749847	1.084242
H153	H	1.303753	0.059542	0.447325
H154	H	1.553753	0.309542	0.697325
H155	H	1.803753	0.559542	0.947325
H156	H	2.053753	0.809542	1.197325
C157	C	0.916913	0.087880	0.203083
C158	C	1.166913	0.337880	0.453083
C159	C	1.416913	0.587880	0.703083
C160	C	1.666913	0.837880	0.953083
C161	C	0.960887	-0.000099	0.242259
C162	C	1.210887	0.249901	0.492259
C163	C	1.460887	0.499901	0.742259
C164	C	1.710887	0.749901	0.992259
H165	H	0.853822	0.087893	0.236464
H166	H	1.103822	0.337893	0.486464
H167	H	1.353822	0.587893	0.736464
H168	H	1.603822	0.837893	0.986464
H169	H	0.920307	0.087867	0.116582
H170	H	1.170307	0.337867	0.366582
H171	H	1.420307	0.587867	0.616582
H172	H	1.670307	0.837867	0.866582
H173	H	0.946780	0.147548	0.229656
H174	H	1.196780	0.397548	0.479656
H175	H	1.446780	0.647548	0.729656
H176	H	1.696780	0.897548	0.979656
H177	H	0.931024	-0.059767	0.215678
H178	H	1.181024	0.190233	0.465678
H179	H	1.431024	0.440233	0.715678
H180	H	1.681024	0.690233	0.965678
H181	H	0.957487	-0.000096	0.328779
H182	H	1.207487	0.249904	0.578779
H183	H	1.457487	0.499904	0.828779
H184	H	1.707487	0.749904	1.078779
