data_functionalizedCrystal
_audit_creation_method	'MofGen! by Chris Wilmer'
_symmetry_space_group_name_H-M	'P1'
_symmetry_Int_Tables_number	1
_symmetry_cell_setting	triclinic
loop_
_symmetry_equiv_pos_as_xyz
  x,y,z
_cell_length_a	18.101398
_cell_length_b	25.639240
_cell_length_c	18.101389
_cell_angle_alpha	90.027631
_cell_angle_beta	90.009745
_cell_angle_gamma	90.028316
loop_
_atom_site_label
_atom_site_type_symbol
_atom_site_fract_x
_atom_site_fract_y
_atom_site_fract_z
Zn1	Zn	1.132112	-0.208268	0.418503
Zn2	Zn	1.132005	-0.295689	0.294642
Zn3	Zn	1.008271	-0.208263	0.294696
Zn4	Zn	1.008218	-0.295667	0.418462
O5	O	1.070152	-0.251972	0.356576
O6	O	1.235731	-0.219876	0.402067
O7	O	1.115568	-0.284099	0.191016
O8	O	1.024766	-0.135098	0.311159
O9	O	1.235652	-0.284104	0.311067
O10	O	1.115752	-0.135102	0.402120
O11	O	1.024662	-0.219867	0.191056
O12	O	0.904631	-0.219846	0.311119
O13	O	1.024676	-0.284066	0.522100
O14	O	0.904593	-0.284061	0.402049
O15	O	1.115701	-0.219854	0.522131
O16	O	1.115517	-0.368851	0.311027
O17	O	1.024572	-0.368835	0.401997
C18	C	0.877741	-0.251951	0.356586
C19	C	0.795427	-0.251955	0.356608
C20	C	0.496336	-0.251986	0.356577
C21	C	0.527662	-0.292584	0.413505
C22	C	0.613280	-0.292457	0.413739
C23	C	0.644719	-0.251971	0.356592
C24	C	0.613666	-0.196903	0.377933
C25	C	0.528021	-0.197147	0.378337
C26	C	0.527883	-0.265969	0.278171
C27	C	0.613533	-0.267178	0.278590
C28	C	0.728578	-0.251959	0.356600
C29	C	0.412477	-0.251994	0.356571
C30	C	1.070047	-0.387814	0.356518
C31	C	1.070070	-0.445928	0.356518
C32	C	1.117551	-0.806255	0.404024
C33	C	1.117573	-0.860859	0.404039
O34	O	1.157819	-0.889065	0.444372
N35	N	1.070254	-0.888211	0.356647
C36	C	1.022905	-0.860955	0.309242
O37	O	0.982659	-0.889234	0.268933
C38	C	1.022880	-0.806352	0.309231
C39	C	1.070208	-0.779003	0.356621
C40	C	1.164874	-0.778906	0.451411
C41	C	1.164853	-0.724305	0.451395
C42	C	1.117509	-0.697054	0.403992
C43	C	1.070187	-0.724402	0.356605
C44	C	0.975528	-0.779097	0.261831
C45	C	0.975507	-0.724490	0.261824
C46	C	1.022834	-0.697142	0.309214
C47	C	1.022822	-0.642550	0.309186
N48	N	1.070140	-0.615199	0.356578
C49	C	1.117484	-0.642450	0.403981
C50	C	1.022961	-0.975626	0.309269
C51	C	1.022989	-1.030228	0.309276
C52	C	1.117656	-1.030128	0.404074
C53	C	1.117631	-0.975525	0.404063
C54	C	1.070279	-0.948274	0.356661
C55	C	1.117437	-0.527785	0.403943
C56	C	1.117414	-0.473180	0.403920
C57	C	1.022744	-0.473285	0.309125
C58	C	1.022770	-0.527885	0.309145
C59	C	1.070119	-0.555134	0.356560
O60	O	0.982594	-0.614310	0.268876
O61	O	1.157717	-0.614165	0.444290
C62	C	1.263314	-0.251993	0.356566
C63	C	1.345628	-0.252002	0.356561
C64	C	1.070194	-0.251958	0.549738
C65	C	1.070213	-0.251953	0.632052
C66	C	1.070277	-0.115599	0.356650
C67	C	1.070330	-0.057485	0.356682
C68	C	1.070152	-0.251947	0.164165
C69	C	1.070277	-0.251805	0.081851
C70	C	1.070256	-0.251855	0.931143
C71	C	1.012789	-0.292127	0.899799
C72	C	1.012944	-0.292314	0.814180
C73	C	1.070234	-0.251903	0.782760
C74	C	1.148259	-0.266864	0.813843
C75	C	1.147938	-0.267128	0.899488
C76	C	1.050377	-0.196533	0.899585
C77	C	1.048641	-0.196852	0.813934
C78	C	1.070226	-0.251930	0.698901
C79	C	1.070269	-0.251829	1.015002
H80	H	0.507626	-0.236398	0.235754
H81	H	0.634032	-0.165835	0.337763
C82	C	0.499808	-0.347934	0.395654
C83	C	0.453949	-0.378241	0.453014
C84	C	0.426090	-0.433594	0.435164
C85	C	0.444090	-0.458638	0.359955
C86	C	0.489951	-0.428331	0.302590
C87	C	0.517810	-0.372978	0.320440
H88	H	0.440623	-0.359702	0.508692
H89	H	0.392140	-0.456029	0.477630
H90	H	0.423467	-0.499614	0.346742
H91	H	0.503277	-0.446870	0.246912
H92	H	0.551759	-0.350543	0.277974
C93	C	0.934388	-0.279605	0.927625
C94	C	0.898865	-0.226551	0.909606
C95	C	0.820462	-0.214026	0.937439
C96	C	0.777583	-0.254555	0.983292
C97	C	0.813106	-0.307612	1.001313
C98	C	0.891508	-0.320137	0.973480
H99	H	0.930607	-0.196546	0.875661
H100	H	0.794166	-0.174749	0.924098
H101	H	0.719545	-0.245283	1.003896
H102	H	0.781364	-0.337618	1.035258
H103	H	0.917804	-0.359414	0.986821
H104	H	1.203427	-0.801088	0.490017
H105	H	0.984238	-0.550154	0.270550
C106	C	0.498616	-0.280243	0.491537
C107	C	0.446628	-0.233504	0.503738
C108	C	0.417583	-0.221161	0.581769
C109	C	0.440526	-0.255558	0.647598
C110	C	0.492517	-0.302301	0.635399
C111	C	0.521562	-0.314644	0.557368
H112	H	0.429641	-0.208038	0.455005
H113	H	0.379096	-0.186559	0.590799
H114	H	0.419025	-0.246422	0.705361
H115	H	0.509504	-0.327767	0.684132
H116	H	0.560050	-0.349246	0.548338
H117	H	0.984458	-1.052491	0.270678
C118	C	0.923459	-0.809169	0.209704
C119	C	0.955576	-0.846715	0.151580
C120	C	0.903501	-0.876784	0.099452
C121	C	0.819309	-0.869308	0.105447
C122	C	0.787188	-0.831760	0.163572
C123	C	0.839263	-0.801691	0.215701
H124	H	1.017904	-0.852251	0.147141
H125	H	0.927279	-0.904579	0.056423
H126	H	0.780760	-0.891567	0.066858
H127	H	0.724860	-0.826225	0.168012
H128	H	0.815485	-0.773896	0.258730
H129	H	1.025782	-0.332883	0.921312
H130	H	0.984404	-0.953441	0.270663
H131	H	0.984200	-0.451088	0.270528
C132	C	0.642655	-0.180586	0.454526
C133	C	0.689029	-0.130562	0.462912
C134	C	0.718016	-0.114247	0.539507
C135	C	0.700628	-0.147956	0.607717
C136	C	0.654252	-0.197983	0.599334
C137	C	0.625265	-0.214298	0.522739
H138	H	0.701903	-0.105606	0.412417
H139	H	0.752347	-0.077213	0.545712
H140	H	0.722086	-0.135878	0.664418
H141	H	0.641378	-0.222939	0.649829
H142	H	0.590934	-0.251331	0.516534
H143	H	0.994470	-0.182904	0.921188
C144	C	1.169475	-0.443097	0.456055
C145	C	1.169460	-0.383035	0.456043
C146	C	1.221517	-0.352955	0.508176
C147	C	1.273590	-0.382935	0.560321
C148	C	1.273607	-0.443000	0.560334
C149	C	1.221549	-0.473081	0.508201
H150	H	1.130911	-0.360839	0.417441
H151	H	1.221505	-0.308491	0.508166
H152	H	1.312126	-0.360668	0.598913
H153	H	1.312156	-0.465197	0.598937
H154	H	1.221562	-0.517545	0.508211
H155	H	1.156205	-1.052326	0.442674
H156	H	1.026068	-0.333320	0.793685
H157	H	1.165403	-0.306875	0.792387
H158	H	1.155988	-0.549965	0.442558
C159	C	0.923420	-0.694515	0.209678
C160	C	0.929514	-0.702061	0.125496
C161	C	0.877430	-0.672086	0.073350
C162	C	0.819252	-0.634566	0.105385
C163	C	0.813156	-0.627018	0.189571
C164	C	0.865240	-0.656993	0.241718
H165	H	0.972583	-0.729837	0.101778
H166	H	0.881943	-0.677674	0.011029
H167	H	0.780697	-0.612377	0.066783
H168	H	0.770088	-0.599242	0.213290
H169	H	0.860727	-0.651405	0.304038
C170	C	1.216905	-0.694224	0.503532
C171	C	1.184760	-0.656680	0.561643
C172	C	1.236811	-0.626602	0.613786
C173	C	1.321007	-0.634068	0.607818
C174	C	1.353156	-0.671613	0.549705
C175	C	1.301105	-0.701691	0.497562
H176	H	1.122429	-0.651152	0.566062
H177	H	1.213011	-0.598808	0.656805
H178	H	1.359538	-0.611802	0.646418
H179	H	1.415486	-0.677141	0.545286
H180	H	1.324904	-0.729485	0.454544
C181	C	0.934782	-0.279668	0.785783
C182	C	0.871785	-0.269328	0.841036
C183	C	0.793618	-0.256687	0.812643
C184	C	0.778448	-0.254385	0.728997
C185	C	0.841446	-0.264725	0.673738
C186	C	0.919613	-0.277367	0.702131
H187	H	0.883013	-0.271032	0.902961
H188	H	0.746982	-0.249032	0.853550
H189	H	0.720584	-0.245026	0.707979
H190	H	0.830218	-0.263021	0.611814
H191	H	0.966249	-0.285021	0.661225
H192	H	1.092233	-0.166528	0.919857
C193	C	1.170725	-0.321755	0.926472
C194	C	1.189086	-0.364835	0.870092
C195	C	1.211884	-0.419462	0.897073
C196	C	1.216322	-0.431008	0.980433
C197	C	1.197961	-0.387927	1.036818
C198	C	1.175163	-0.333300	1.009838
H199	H	1.185801	-0.356289	0.808380
H200	H	1.225476	-0.451353	0.855332
H201	H	1.233199	-0.471446	1.000405
H202	H	1.201246	-0.396473	1.098531
H203	H	1.161571	-0.301409	1.051578
H204	H	0.991221	-0.185571	0.793620
C205	C	1.207757	-0.229238	0.927507
C206	C	1.255667	-0.198837	0.871949
C207	C	1.315493	-0.160954	0.899965
C208	C	1.327408	-0.153472	0.983537
C209	C	1.279497	-0.183873	1.039099
C210	C	1.219671	-0.221756	1.011084
H211	H	1.246848	-0.204375	0.810079
H212	H	1.350960	-0.138449	0.858833
H213	H	1.371695	-0.125428	1.004275
H214	H	1.288316	-0.178335	1.100969
H215	H	1.184204	-0.244261	1.052216
C216	C	0.498678	-0.319284	0.251966
C217	C	0.445799	-0.350806	0.301434
C218	C	0.416594	-0.404123	0.275240
C219	C	0.440266	-0.425918	0.199577
C220	C	0.493147	-0.394396	0.150104
C221	C	0.522353	-0.341079	0.176299
H222	H	0.428273	-0.334672	0.357449
H223	H	0.377447	-0.427458	0.311863
H224	H	0.418646	-0.465386	0.180186
H225	H	0.510673	-0.410530	0.094090
H226	H	0.561499	-0.317744	0.139675
H227	H	0.633835	-0.307699	0.262495
C228	C	1.207661	-0.228485	0.786356
C229	C	1.185958	-0.183005	0.735245
C230	C	1.245358	-0.144624	0.707760
C231	C	1.326461	-0.151723	0.731386
C232	C	1.348167	-0.197205	0.782501
C233	C	1.288767	-0.235586	0.809985
H234	H	1.125918	-0.177748	0.717753
H235	H	1.229289	-0.110955	0.669922
H236	H	1.370432	-0.123312	0.711041
H237	H	1.408207	-0.202462	0.799993
H238	H	1.304836	-0.269255	0.847824
H239	H	0.633783	-0.283205	0.471833
C240	C	0.641647	-0.347624	0.395683
C241	C	0.586370	-0.392103	0.380947
C242	C	0.614732	-0.447274	0.362897
C243	C	0.698373	-0.457966	0.359583
C244	C	0.753656	-0.413485	0.374318
C245	C	0.725293	-0.358314	0.392368
H246	H	0.524449	-0.384190	0.383401
H247	H	0.573808	-0.480202	0.351989
H248	H	0.719369	-0.498807	0.346221
H249	H	0.815576	-0.421399	0.371865
H250	H	0.766217	-0.325387	0.403277
C251	C	0.500022	-0.154890	0.324785
C252	C	0.555595	-0.121030	0.281791
C253	C	0.527600	-0.078768	0.228249
C254	C	0.444032	-0.070367	0.217701
C255	C	0.388453	-0.104228	0.260697
C256	C	0.416449	-0.146490	0.314239
H257	H	0.617462	-0.127248	0.289597
H258	H	0.568743	-0.053702	0.196420
H259	H	0.423308	-0.039082	0.178066
H260	H	0.326586	-0.098010	0.252891
H261	H	0.375305	-0.171556	0.346068
H262	H	0.508061	-0.185286	0.435656
C263	C	1.169686	-0.945444	0.456197
C264	C	1.227834	-0.907886	0.424150
C265	C	1.279890	-0.877808	0.476288
C266	C	1.273798	-0.885287	0.560473
C267	C	1.215649	-0.922847	0.592524
C268	C	1.163592	-0.952925	0.540386
H269	H	1.232345	-0.902348	0.361828
H270	H	1.322936	-0.850004	0.452561
H271	H	1.312334	-0.863022	0.599068
H272	H	1.211137	-0.928385	0.654846
H273	H	1.120546	-0.980729	0.564113
C274	C	0.642438	-0.230131	0.218205
C275	C	0.695098	-0.185220	0.238759
C276	C	0.724004	-0.148168	0.178376
C277	C	0.700249	-0.156028	0.097438
C278	C	0.647586	-0.200942	0.076880
C279	C	0.618680	-0.237993	0.137263
H280	H	0.712686	-0.179399	0.298677
H281	H	0.762989	-0.114921	0.193595
H282	H	0.721647	-0.128601	0.052739
H283	H	0.629999	-0.206762	0.016962
H284	H	0.579695	-0.271241	0.122044
H285	H	1.087443	-0.165254	0.792547
