data_functionalizedCrystal
_audit_creation_method	'MofGen! by Chris Wilmer'
_symmetry_space_group_name_H-M	'P1'
_symmetry_Int_Tables_number	1
_symmetry_cell_setting	triclinic
loop_
_symmetry_equiv_pos_as_xyz
  x,y,z
_cell_length_a	14.044191
_cell_length_b	18.266242
_cell_length_c	14.044190
_cell_angle_alpha	90.010750
_cell_angle_beta	93.191777
_cell_angle_gamma	90.006453
loop_
_atom_site_label
_atom_site_type_symbol
_atom_site_fract_x
_atom_site_fract_y
_atom_site_fract_z
O1	O	1.277185	0.060861	0.230203
O2	O	1.000512	0.060869	0.221890
O3	O	1.134692	0.060851	0.087710
O4	O	1.143005	0.060879	0.364383
O5	O	1.134666	-0.060911	0.087700
O6	O	1.000486	-0.060893	0.221880
O7	O	1.277159	-0.060901	0.230193
Zn8	Zn	1.138819	-0.080229	0.226035
Zn9	Zn	1.138852	0.080197	0.226048
O10	O	1.142979	-0.060883	0.364373
C11	C	0.964877	-0.000011	0.218249
C12	C	0.858734	-0.000008	0.207401
C13	C	0.613277	-0.000009	0.264502
C14	C	0.664400	-0.000016	0.187585
C15	C	0.772537	-0.000012	0.198614
C16	C	0.505130	-0.000014	0.253475
N17	N	1.138803	-0.189716	0.226026
C18	C	1.198242	-0.228033	0.166645
C19	C	1.198247	-0.304678	0.166641
C20	C	1.138825	-0.343003	0.226036
C21	C	1.079374	-0.304677	0.285421
C22	C	1.079363	-0.228033	0.285416
N23	N	1.133818	-0.463327	0.309486
N24	N	1.133833	-0.536135	0.309487
C25	C	1.138852	-0.573925	0.226052
N26	N	1.143874	-0.536158	0.142613
N27	N	1.143863	-0.463343	0.142613
C28	C	1.138829	-0.426110	0.226047
C29	C	1.198301	-0.695350	0.166661
C30	C	1.198300	-0.771996	0.166656
C31	C	1.079432	-0.771993	0.285444
C32	C	1.079427	-0.695348	0.285441
C33	C	1.138867	-0.657031	0.226051
C34	C	1.312794	-0.000020	0.233834
C35	C	1.418937	-0.000017	0.244682
C36	C	1.131043	-0.000032	0.052083
C37	C	1.120195	-0.000038	-0.054060
N38	N	1.138875	0.189684	0.226050
C39	C	1.177296	-0.000011	-0.299517
C40	C	1.100379	-0.000014	-0.248394
C41	C	1.111408	-0.000027	-0.140257
C42	C	1.166269	0.000002	-0.407664
C43	C	1.146628	0.000002	0.400000
C44	C	1.157476	0.000013	0.506143
H45	H	0.650720	0.000001	0.338629
O46	O	0.619585	0.000014	0.099213
C47	C	0.469375	-0.000025	0.007507
C48	C	0.520011	-0.000048	0.107639
H49	H	0.388861	-0.000091	0.014285
H50	H	0.490839	0.050945	-0.032947
H51	H	0.490948	-0.050969	-0.032952
H52	H	0.498464	0.050862	0.148177
H53	H	0.498545	-0.051052	0.148021
H54	H	1.246638	-0.196838	0.118284
O55	O	1.256073	-0.341796	0.108923
C56	C	1.373927	-0.333717	-0.008942
C57	C	1.308508	-0.291593	0.056395
H58	H	1.416322	-0.293145	-0.051443
H59	H	1.425169	-0.369565	0.036296
H60	H	1.328661	-0.369634	-0.060101
H61	H	1.353696	-0.255636	0.107566
H62	H	1.257261	-0.255790	0.011097
O63	O	1.021567	-0.809179	0.343035
C64	C	0.860296	-0.832611	0.384881
C65	C	0.925722	-0.790462	0.319584
H66	H	0.782793	-0.817482	0.365957
H67	H	0.870426	-0.893981	0.374678
H68	H	0.879247	-0.817533	0.462403
H69	H	0.906811	-0.805477	0.242036
H70	H	0.915581	-0.729101	0.329868
O71	O	1.256193	-0.658115	0.109138
C72	C	1.384916	-0.571610	0.100020
C73	C	1.319394	-0.613727	0.165254
H74	H	1.436016	-0.535701	0.145362
H75	H	1.427464	-0.612161	0.057630
H76	H	1.339720	-0.535750	0.048759
H77	H	1.364518	-0.649588	0.216571
H78	H	1.276841	-0.573136	0.207577
H79	H	1.030959	-0.196835	0.333772
O80	O	1.021602	-0.341984	0.342983
C81	C	0.892912	-0.428506	0.352201
C82	C	0.958298	-0.386316	0.286906
H83	H	0.841701	-0.464348	0.306887
H84	H	0.938115	-0.464420	0.403392
H85	H	0.850469	-0.387938	0.394667
H86	H	1.000753	-0.426832	0.244378
H87	H	0.913042	-0.350391	0.235776
H88	H	1.246699	-0.803194	0.118295
O89	O	1.021802	-0.658157	0.343275
C90	C	0.979854	-0.634725	0.504517
C91	C	1.045197	-0.676874	0.439130
H92	H	0.998732	-0.649854	0.582027
H93	H	0.990057	-0.573354	0.494398
H94	H	0.902341	-0.649803	0.485517
H95	H	1.122734	-0.661858	0.458089
H96	H	1.034912	-0.738235	0.449259
O97	O	1.265751	0.000105	-0.254896
C98	C	1.415914	0.063145	-0.231013
C99	C	1.315763	0.063115	-0.281606
H100	H	1.456385	0.114075	-0.252605
H101	H	1.409217	0.063182	-0.150487
H102	H	1.456310	0.012163	-0.252545
H103	H	1.275312	0.114088	-0.260152
H104	H	1.322528	0.063040	-0.362122
H105	H	1.026247	-0.000007	-0.285839
