data_functionalizedCrystal
_audit_creation_method	'MofGen! by Chris Wilmer'
_symmetry_space_group_name_H-M	'P1'
_symmetry_Int_Tables_number	1
_symmetry_cell_setting	triclinic
loop_
_symmetry_equiv_pos_as_xyz
  x,y,z
_cell_length_a	12.477989
_cell_length_b	20.875641
_cell_length_c	20.875625
_cell_angle_alpha	59.251205
_cell_angle_beta	92.958840
_cell_angle_gamma	66.703135
loop_
_atom_site_label
_atom_site_type_symbol
_atom_site_fract_x
_atom_site_fract_y
_atom_site_fract_z
Zr1	Zr	1.005726	0.780719	-0.152125
O2	O	0.843229	0.901839	-0.252641
O3	O	1.050450	0.650396	-0.117693
O4	O	1.046839	0.783935	-0.256273
O5	O	0.855479	0.768974	-0.008864
O6	O	1.213240	0.796941	-0.263253
O7	O	0.846840	0.768300	-0.114062
O8	O	1.219700	0.558064	-0.015359
O9	O	0.849020	1.007851	-0.256757
O10	O	1.199858	0.717115	-0.112589
O11	O	1.082121	0.707911	-0.028872
O12	O	1.077870	0.865136	-0.192031
O13	O	0.960133	0.855932	-0.108314
Zr14	Zr	1.284895	0.802536	0.004522
Zr15	Zr	1.271117	0.801462	-0.163257
Zr16	Zr	1.019504	0.781793	0.015654
Zr17	Zr	1.014961	0.949795	-0.158689
Zr18	Zr	1.275660	0.633461	0.011086
O19	O	1.240171	0.932860	-0.029910
O20	O	1.220581	0.931333	-0.268470
O21	O	0.862820	0.903366	-0.014081
O22	O	1.447392	0.681416	0.105038
O23	O	1.427802	0.679890	-0.133522
O24	O	1.070041	0.651922	0.120867
O25	O	1.435143	0.814282	-0.138740
O26	O	1.243783	0.799321	0.108669
O27	O	1.077381	0.786315	0.115649
O28	O	1.443781	0.814955	-0.033541
O29	O	1.059970	1.024339	-0.265606
O30	O	1.230652	0.558917	0.118002
O31	O	1.441602	0.575405	0.109154
O32	O	1.430651	0.574552	-0.024208
O33	O	0.859971	1.008704	-0.123395
O34	O	1.070922	1.025192	-0.132244
O35	O	1.212752	0.718120	0.044427
O36	O	1.330488	0.727323	-0.039290
O37	O	1.208500	0.875345	-0.118732
O38	O	1.090764	0.866141	-0.035015
C39	C	1.133759	0.580140	-0.065591
C40	C	1.129839	0.508363	-0.062805
C41	C	1.189451	0.479446	-0.105195
C42	C	1.185771	0.411999	-0.102569
C43	C	1.122471	0.373475	-0.057557
C44	C	1.062857	0.402394	-0.015161
C45	C	1.066545	0.469836	-0.017783
C46	C	1.104857	0.171254	-0.045025
C47	C	1.101171	0.103810	-0.042409
C48	C	1.224087	0.113418	-0.129815
C49	C	1.227763	0.180864	-0.132437
C50	C	1.168155	0.209775	-0.090038
N51	N	1.118704	0.304535	-0.054874
N52	N	1.171929	0.278709	-0.092717
C53	C	0.813347	0.765681	-0.059877
C54	C	0.700682	0.756876	-0.055151
C55	C	1.477274	0.817574	-0.087727
C56	C	1.589940	0.826380	-0.092453
C57	C	1.128077	0.790285	-0.283668
C58	C	1.122228	0.789829	-0.354894
C59	C	1.156862	1.003116	-0.082012
C60	C	1.160783	1.074893	-0.084799
C61	C	1.211151	0.796781	-0.392202
C62	C	1.205658	0.796344	-0.459122
C63	C	1.111236	0.788963	-0.488738
C64	C	1.022308	0.782008	-0.451424
C65	C	1.027807	0.782438	-0.384501
C66	C	1.084965	0.786902	-0.688473
C67	C	1.079471	0.786475	-0.755402
C68	C	1.262823	0.800810	-0.763095
C69	C	1.268309	0.801245	-0.696174
C70	C	1.179385	0.794286	-0.658863
N71	N	1.105617	0.788519	-0.557143
N72	N	1.185010	0.794723	-0.590456
C73	C	1.162545	0.792971	0.136064
C74	C	1.168394	0.793427	0.207291
C75	C	1.465723	0.606086	-0.079516
C76	C	1.574468	0.543115	-0.081455
C77	C	1.150994	0.581483	0.144275
C78	C	1.152922	0.510162	0.218288
C79	C	1.482957	0.607430	0.130350
C80	C	1.597551	0.544914	0.199637
C81	C	0.807665	0.975826	-0.277953
C82	C	0.693071	1.038341	-0.347240
C83	C	0.824899	0.977169	-0.068087
C84	C	0.716154	1.040141	-0.066148
C85	C	1.139628	1.001773	-0.291878
C86	C	1.137700	1.073094	-0.365891
C87	C	1.557347	0.508214	-0.120634
C88	C	1.659514	0.449055	-0.122472
C89	C	1.778800	0.424793	-0.085126
C90	C	1.795919	0.459700	-0.045946
C91	C	1.693753	0.518863	-0.044113
C92	C	1.222016	0.481998	0.291314
C93	C	1.223825	0.414993	0.360863
C94	C	1.156545	0.376150	0.357385
C95	C	1.087443	0.404320	0.284351
C96	C	1.085628	0.471328	0.214804
C97	C	1.712834	0.520362	0.188475
C98	C	1.820517	0.461632	0.253570
C99	C	1.812915	0.427452	0.329827
C100	C	1.697620	0.452010	0.340988
C101	C	1.589939	0.510743	0.275893
C102	C	0.577788	1.062902	-0.336079
C103	C	0.470106	1.121653	-0.401175
C104	C	0.477708	1.155837	-0.477432
C105	C	0.593003	1.131274	-0.488593
C106	C	0.700683	1.072529	-0.423497
C107	C	0.733274	1.075048	-0.026976
C108	C	0.631107	1.134226	-0.025158
C109	C	0.511821	1.158491	-0.062507
C110	C	0.494702	1.123581	-0.101683
C111	C	0.596868	1.064408	-0.103506
C112	C	1.204992	1.111917	-0.362388
C113	C	1.203205	1.178924	-0.431925
C114	C	1.134116	1.207110	-0.504965
C115	C	1.066821	1.168280	-0.508467
C116	C	1.068617	1.101271	-0.438930
H117	H	1.049618	0.072446	-0.005754
O118	O	0.996026	1.059400	-0.442708
H119	H	0.896824	1.108029	-0.473224
O120	O	0.994567	0.360854	0.033379
H121	H	1.035521	0.333453	0.095989
O122	O	0.712102	0.669122	-0.008055
H123	H	0.759348	0.633361	-0.032349
H124	H	1.914385	0.441643	0.244469
H125	H	1.288035	0.802797	-0.368097
O126	O	1.296032	0.222418	-0.180988
H127	H	1.336872	0.190976	-0.210022
H128	H	0.571574	1.035071	-0.273992
H129	H	0.397566	1.143346	-0.132092
H130	H	1.691448	0.424172	0.403085
H131	H	0.645070	1.162641	0.006748
O132	O	0.578517	0.914129	-0.139551
H133	H	0.479680	0.963656	-0.166136
O134	O	0.401638	1.222312	-0.060532
H135	H	0.315807	1.233329	-0.093087
O136	O	1.132182	1.279391	-0.579960
H137	H	1.072841	1.292472	-0.631343
O138	O	1.257726	0.520992	-0.153748
H139	H	1.192624	0.589980	-0.199194
H140	H	1.496075	0.530725	0.284993
H141	H	1.017999	0.493381	0.016733
H142	H	1.158033	0.321589	0.414021
H143	H	1.234313	0.388455	-0.137086
O144	O	1.721058	0.557231	0.106231
H145	H	1.768830	0.504595	0.099464
O146	O	0.361564	1.219196	-0.547641
H147	H	0.362084	1.280431	-0.585362
H148	H	1.893055	0.439937	-0.015540
O149	O	0.578385	1.026759	-0.145756
H150	H	0.669458	0.981539	-0.140759
O151	O	1.011222	0.501567	0.136068
H152	H	0.912698	0.524428	0.132204
H153	H	1.278067	0.802004	-0.489498
O154	O	1.275789	1.220795	-0.428133
H155	H	1.262956	1.272120	-0.488752
H156	H	1.345195	0.807256	-0.672063
H157	H	1.272618	0.089872	-0.164333
O158	O	0.931893	0.774946	-0.344260
H159	H	0.865303	0.769749	-0.376100
H160	H	1.335222	0.806475	-0.793479
O161	O	1.040554	0.202442	0.000692
H162	H	0.995906	0.164329	0.032422
O163	O	1.929060	0.364094	0.400036
H164	H	2.010496	0.352760	0.379455
O165	O	0.977638	0.778498	-0.787340
H166	H	0.916736	0.773719	-0.750147
O167	O	1.279529	1.081514	-0.283613
H168	H	1.326030	1.119767	-0.292873
H169	H	1.032666	0.372684	0.281531
O170	O	0.345766	1.148118	-0.389121
H171	H	0.339360	1.178184	-0.357343
H172	H	1.010571	1.191240	-0.567946
O173	O	0.601197	1.168140	-0.570843
H174	H	0.506946	1.213105	-0.614225
H175	H	1.707711	0.547272	-0.012204
H176	H	0.794548	1.052532	-0.432595
H177	H	1.012557	0.781238	-0.658101
H178	H	0.830394	1.055297	0.003443
H179	H	0.945431	0.775992	-0.475537
H180	H	1.861979	0.376617	-0.086623
H181	H	1.645552	0.420640	-0.154377
O182	O	1.428694	0.534385	-0.160927
H183	H	1.433973	0.500180	-0.188486
H184	H	1.280100	0.392066	0.420323
O185	O	1.294581	0.523890	0.295075
H186	H	1.342912	0.493046	0.357544
