data_functionalizedCrystal
_audit_creation_method	'MofGen! by Chris Wilmer'
_symmetry_space_group_name_H-M	'P1'
_symmetry_Int_Tables_number	1
_symmetry_cell_setting	triclinic
loop_
_symmetry_equiv_pos_as_xyz
  x,y,z
_cell_length_a	23.532355
_cell_length_b	13.339070
_cell_length_c	12.376457
_cell_angle_alpha	104.398083
_cell_angle_beta	78.786949
_cell_angle_gamma	99.228396
loop_
_atom_site_label
_atom_site_type_symbol
_atom_site_fract_x
_atom_site_fract_y
_atom_site_fract_z
O1	O	0.782834	0.102913	-0.093843
O2	O	0.619838	0.120700	-0.093878
O3	O	0.682629	-0.035263	-0.093861
O4	O	0.720043	0.258876	-0.093860
O5	O	0.666931	0.003675	0.094147
O6	O	0.604140	0.159638	0.094130
O7	O	0.767136	0.141851	0.094165
Zn8	Zn	0.683145	0.156927	0.123998
Zn9	Zn	0.703829	0.105625	-0.123711
O10	O	0.704345	0.297814	0.094148
C11	C	0.668460	-0.053418	0.000140
C12	C	0.649623	-0.165526	0.000132
C13	C	0.590701	0.139724	0.000122
C14	C	0.527268	0.138384	0.000108
C15	C	0.796097	-0.531833	0.000163
C16	C	0.813797	-0.426501	0.000178
C17	C	0.772755	-0.361252	0.000166
C18	C	0.714010	-0.401345	0.000140
C19	C	0.696307	-0.506686	0.000135
C20	C	0.672965	-0.336105	0.000137
C21	C	0.614220	-0.376198	0.000112
C22	C	0.596520	-0.481529	0.000105
C23	C	0.637562	-0.546778	0.000117
C24	C	0.690668	-0.230765	0.000143
C25	C	0.590878	-0.205618	0.000114
C26	C	0.573178	-0.310950	0.000100
C27	C	0.125339	0.151216	0.102638
C28	C	0.065734	0.149944	0.102643
O29	O	0.027626	0.167303	0.189800
N30	N	0.044481	0.128089	0.000160
C31	C	0.082835	0.107493	-0.102334
O32	O	0.059285	0.088785	-0.189503
C33	C	0.142438	0.108757	-0.102337
C34	C	0.163689	0.130624	0.000153
C35	C	0.146589	0.173080	0.205120
C36	C	0.206190	0.174354	0.205115
C37	C	0.244540	0.153762	0.102629
C38	C	0.223290	0.131898	0.000148
C39	C	0.180791	0.088154	-0.204830
C40	C	0.240398	0.089419	-0.204824
C41	C	0.261648	0.111287	-0.102334
C42	C	0.321241	0.112579	-0.102343
N43	N	0.342494	0.134435	0.000140
C44	C	0.304144	0.155026	0.102626
C45	C	-0.042336	0.104837	-0.102319
C46	C	-0.101937	0.103580	-0.102317
C47	C	-0.119035	0.146030	0.102660
C48	C	-0.059432	0.147294	0.102657
C49	C	-0.021083	0.126693	0.000164
C50	C	0.429311	0.157699	0.102608
C51	C	0.488918	0.158975	0.102594
C52	C	0.506010	0.116520	-0.102382
C53	C	0.446408	0.115249	-0.102369
C54	C	0.408059	0.135838	0.000135
O55	O	0.359382	0.095227	-0.189455
O56	O	0.327702	0.173718	0.189780
C57	C	0.796273	0.122828	0.000163
C58	C	0.859707	0.124166	0.000169
C59	C	0.718514	0.315969	0.000145
C60	C	0.737352	0.428076	0.000146
N61	N	0.669034	0.191939	0.293052
N62	N	0.717944	0.070605	-0.292765
C63	C	0.750698	-0.010689	0.648059
C64	C	0.760572	-0.035194	0.529722
C65	C	0.737688	0.021587	0.470549
C66	C	0.704929	0.102878	0.529725
C67	C	0.695058	0.127390	0.648073
C68	C	0.682048	0.159666	0.470563
C69	C	0.649289	0.240956	0.529738
C70	C	0.639420	0.265464	0.648076
C71	C	0.662304	0.208684	0.707249
C72	C	0.691919	0.135153	0.352214
C73	C	0.636279	0.273232	0.352228
C74	C	0.626405	0.297737	0.470565
H75	H	0.738498	-0.198131	0.000164
Cl76	Cl	0.005870	0.078947	-0.231181
H77	H	0.829506	-0.584964	0.000183
Cl78	Cl	0.887646	-0.376110	0.000185
Cl79	Cl	0.607512	0.344622	0.277846
Cl80	Cl	0.288604	0.063517	-0.333681
Cl81	Cl	0.554231	0.090628	-0.231215
H82	H	0.506216	0.176786	0.186057
H83	H	0.769331	-0.056907	0.696246
Cl84	Cl	0.499329	-0.361366	0.000065
Cl85	Cl	-0.032724	0.174782	0.231505
Cl86	Cl	0.795008	-0.228834	0.000178
H87	H	0.654263	0.228632	0.803609
Cl88	Cl	0.750099	-0.009223	0.321780
H89	H	-0.150271	0.162795	0.186110
H90	H	0.548686	-0.514167	0.000093
H91	H	0.623154	-0.632550	0.000101
H92	H	0.612751	0.331663	0.696257
Cl93	Cl	-0.128642	0.076109	-0.231167
H94	H	0.223486	0.192154	0.288572
H95	H	0.787244	-0.101378	0.481546
Cl96	Cl	0.539278	-0.123597	0.000107
H97	H	0.599733	0.363926	0.518761
Cl98	Cl	0.381109	0.183582	0.231472
Cl99	Cl	0.098388	0.198977	0.333977
H100	H	0.163500	0.070346	-0.288288
Cl101	Cl	0.419694	0.087775	-0.231214
Cl102	Cl	0.733099	0.032963	0.277837
