data_functionalizedCrystal
_audit_creation_method	'MofGen! by Chris Wilmer'
_symmetry_space_group_name_H-M	'P1'
_symmetry_Int_Tables_number	1
_symmetry_cell_setting	triclinic
loop_
_symmetry_equiv_pos_as_xyz
  x,y,z
_cell_length_a	16.959455
_cell_length_b	12.594516
_cell_length_c	16.959447
_cell_angle_alpha	89.974772
_cell_angle_beta	89.980656
_cell_angle_gamma	90.015001
loop_
_atom_site_label
_atom_site_type_symbol
_atom_site_fract_x
_atom_site_fract_y
_atom_site_fract_z
Zn1	Zn	1.208426	-0.423750	-0.446988
Zn2	Zn	1.708426	0.076250	0.053012
Zn3	Zn	1.208352	-0.601757	-0.314821
Zn4	Zn	1.708352	-0.101757	0.185179
Zn5	Zn	1.076249	-0.423790	-0.314820
Zn6	Zn	1.576249	0.076210	0.185180
Zn7	Zn	1.076229	-0.601684	-0.446954
Zn8	Zn	1.576229	-0.101684	0.053046
O9	O	1.142314	-0.512745	-0.380896
O10	O	1.642314	-0.012745	0.119104
O11	O	1.319027	-0.447377	-0.429470
O12	O	1.819027	0.052623	0.070530
O13	O	1.190806	-0.578197	-0.204210
O14	O	1.690806	-0.078197	0.295790
O15	O	1.093822	-0.274839	-0.332366
O16	O	1.593822	0.225161	0.167634
O17	O	1.318973	-0.578158	-0.332368
O18	O	1.818973	-0.078158	0.167632
O19	O	1.190932	-0.274810	-0.429469
O20	O	1.690932	0.225190	0.070531
O21	O	1.093750	-0.447445	-0.204209
O22	O	1.593750	0.052555	0.295791
O23	O	0.965635	-0.447374	-0.332333
O24	O	1.465635	0.052626	0.167667
O25	O	1.093788	-0.578033	-0.557570
O26	O	1.593788	-0.078033	-0.057570
O27	O	0.965621	-0.578072	-0.429412
O28	O	1.465621	-0.078072	0.070588
O29	O	1.190913	-0.447306	-0.557594
O30	O	1.690913	0.052694	-0.057594
O31	O	1.190786	-0.750693	-0.332335
O32	O	1.690786	-0.250693	0.167665
O33	O	1.093716	-0.750639	-0.429413
O34	O	1.593716	-0.250639	0.070587
C35	C	0.936948	-0.512720	-0.380869
C36	C	1.436948	-0.012720	0.119131
C37	C	0.849091	-0.512735	-0.380876
C38	C	1.349091	-0.012735	0.119124
C39	C	0.807801	-0.444589	-0.330413
C40	C	1.307801	0.055411	0.169587
C41	C	0.807827	-0.580888	-0.431351
C42	C	1.307827	-0.080888	0.068649
C43	C	0.725282	-0.580900	-0.431363
C44	C	1.225282	-0.080900	0.068637
C45	C	0.683992	-0.512755	-0.380900
C46	C	1.183992	-0.012755	0.119100
C47	C	0.725248	-0.444597	-0.330425
C48	C	1.225248	0.055403	0.169575
C49	C	0.684019	-0.649049	-0.481843
C50	C	1.184019	-0.149049	0.018157
C51	C	0.601468	-0.649063	-0.481857
C52	C	1.101468	-0.149063	0.018143
C53	C	0.560177	-0.580922	-0.431389
C54	C	1.060177	-0.080922	0.068611
C55	C	0.601438	-0.512763	-0.380911
C56	C	1.101438	-0.012763	0.119089
C57	C	0.560148	-0.444617	-0.330448
C58	C	1.060148	0.055383	0.169552
C59	C	0.601408	-0.376462	-0.279966
C60	C	1.101408	0.123538	0.220034
C61	C	0.683956	-0.376456	-0.279957
C62	C	1.183956	0.123544	0.220043
C63	C	0.477629	-0.580928	-0.431398
C64	C	0.977629	-0.080928	0.068602
C65	C	0.477595	-0.444625	-0.330460
C66	C	0.977595	0.055375	0.169540
C67	C	1.142262	-0.789286	-0.380888
C68	C	1.642262	-0.289286	0.119112
C69	C	1.142312	-0.907592	-0.380911
C70	C	1.642312	-0.407592	0.119089
C71	C	1.089511	-0.976854	-0.433674
C72	C	1.589511	-0.476854	0.066326
C73	C	1.070256	-1.047717	-0.361548
C74	C	1.570256	-0.547717	0.138452
C75	C	1.161639	-1.047527	-0.453050
C76	C	1.661639	-0.547527	0.046950
C77	C	1.123019	-0.976897	-0.308746
C78	C	1.623019	-0.476897	0.191254
C79	C	1.214437	-0.976701	-0.400297
C80	C	1.714437	-0.476701	0.099703
C81	C	1.195209	-1.047532	-0.328121
C82	C	1.695209	-0.547532	0.171879
C83	C	1.348482	-0.512772	-0.380923
C84	C	1.848482	-0.012772	0.119077
C85	C	1.436339	-0.512783	-0.380935
C86	C	1.936339	-0.012783	0.119065
C87	C	1.142356	-0.512657	-0.587064
C88	C	1.642356	-0.012657	-0.087064
C89	C	1.142374	-0.512619	-0.674921
C90	C	1.642374	-0.012619	-0.174921
C91	C	1.142388	-0.235124	-0.380921
C92	C	1.642388	0.264876	0.119079
C93	C	1.142419	-0.116819	-0.380931
C94	C	1.642419	0.383181	0.119069
C95	C	1.091912	-0.444430	-1.046402
C96	C	1.591912	0.055570	-0.546402
C97	C	1.192976	-0.580584	-1.046391
C98	C	1.692976	-0.080584	-0.546391
C99	C	1.192963	-0.580608	-0.963845
C100	C	1.692963	-0.080608	-0.463845
C101	C	1.142422	-0.512544	-0.922574
C102	C	1.642422	-0.012544	-0.422574
C103	C	1.091895	-0.444455	-0.963849
C104	C	1.591895	0.055545	-0.463849
C105	C	1.243483	-0.648704	-0.922564
C106	C	1.743483	-0.148704	-0.422564
C107	C	1.243471	-0.648732	-0.840013
C108	C	1.743471	-0.148732	-0.340013
C109	C	1.192934	-0.580662	-0.798740
C110	C	1.692934	-0.080662	-0.298740
C111	C	1.142405	-0.512569	-0.840020
C112	C	1.642405	-0.012569	-0.340020
C113	C	1.091864	-0.444505	-0.798749
C114	C	1.591864	0.055495	-0.298749
C115	C	1.041339	-0.376406	-0.840028
C116	C	1.541339	0.123594	-0.340028
C117	C	1.041357	-0.376385	-0.922576
C118	C	1.541357	0.123615	-0.422576
C119	C	1.192915	-0.580683	-0.716192
C120	C	1.692915	-0.080683	-0.216192
C121	C	1.091847	-0.444530	-0.716196
C122	C	1.591847	0.055470	-0.216196
C123	C	1.142317	-0.512757	-0.175529
C124	C	1.642317	-0.012757	0.324471
C125	C	1.142452	-0.512494	-0.087673
C126	C	1.642452	-0.012494	0.412327
H127	H	0.717557	-0.320967	-0.238857
H128	H	1.217557	0.179033	0.261143
F129	F	0.433658	-0.372099	-0.276744
F130	F	0.933658	0.127901	0.223256
F131	F	0.987552	-0.303970	-0.796094
F132	F	1.487552	0.196030	-0.296094
F133	F	0.851773	-0.653414	-0.485051
F134	F	1.351773	-0.153414	0.014949
H135	H	1.284622	-0.704130	-0.956173
H136	H	1.784622	-0.204130	-0.456173
F137	F	0.987588	-0.303919	-0.966513
F138	F	1.487588	0.196081	-0.466513
F139	F	1.031045	-0.936287	-0.491913
F140	F	1.531045	-0.436287	0.008087
H141	H	0.567779	-0.320973	-0.238882
H142	H	1.067779	0.179027	0.261118
H143	H	0.717643	-0.704526	-0.522930
H144	H	1.217643	-0.204526	-0.022930
F145	F	1.182949	-1.088085	-0.532778
F146	F	1.682949	-0.588085	-0.032778
H147	H	1.106645	-0.945999	-0.247731
H148	H	1.606645	-0.445999	0.252269
F149	F	1.038057	-0.372080	-0.672278
F150	F	1.538057	0.127920	-0.172278
H151	H	1.284611	-0.704183	-0.806411
H152	H	1.784611	-0.204183	-0.306411
H153	H	1.009311	-1.078935	-0.345168
H154	H	1.509311	-0.578935	0.154832
H155	H	1.239907	-1.078370	-0.283458
H156	H	1.739907	-0.578370	0.216542
H157	H	0.841399	-0.389102	-0.289309
H158	H	1.341399	0.110898	0.210691
F159	F	1.294078	-0.935898	-0.421751
F160	F	1.794078	-0.435898	0.078249
F161	F	0.557564	-0.721601	-0.535582
F162	F	1.057564	-0.221601	-0.035582
H163	H	0.444039	-0.636412	-0.472505
H164	H	0.944039	-0.136412	0.027495
F165	F	1.038144	-0.371955	-1.090333
F166	F	1.538144	0.128045	-0.590333
F167	F	1.246756	-0.653026	-1.090316
F168	F	1.746756	-0.153026	-0.590316
H169	H	1.234057	-0.636121	-0.682587
H170	H	1.734057	-0.136121	-0.182587
