data_functionalizedCrystal
_audit_creation_method	'MofGen! by Chris Wilmer'
_symmetry_space_group_name_H-M	'P1'
_symmetry_Int_Tables_number	1
_symmetry_cell_setting	triclinic
loop_
_symmetry_equiv_pos_as_xyz
  x,y,z
_cell_length_a	7.681215
_cell_length_b	10.654550
_cell_length_c	10.654550
_cell_angle_alpha	84.484931
_cell_angle_beta	83.622652
_cell_angle_gamma	83.624266
loop_
_atom_site_label
_atom_site_type_symbol
_atom_site_fract_x
_atom_site_fract_y
_atom_site_fract_z
O1	O	0.146303	-1.678525	-0.187080
O2	O	0.646303	-1.178525	0.312920
O3	O	0.146335	-1.313049	-0.203888
O4	O	0.646335	-0.813049	0.296112
O5	O	0.146307	-1.504189	-0.012744
O6	O	0.646307	-1.004189	0.487256
O7	O	0.146331	-1.487385	-0.378224
O8	O	0.646331	-0.987385	0.121776
O9	O	-0.146562	-1.482785	0.008643
O10	O	0.353438	-0.982785	0.508643
O11	O	-0.146534	-1.291645	-0.182502
O12	O	0.353466	-0.791645	0.317498
O13	O	-0.146567	-1.657121	-0.165693
O14	O	0.353433	-1.157121	0.334307
Zn15	Zn	-0.193050	-1.470985	-0.170702
Zn16	Zn	0.306950	-0.970985	0.329298
Zn17	Zn	0.192818	-1.499185	-0.198879
Zn18	Zn	0.692818	-0.999185	0.301121
O19	O	-0.146539	-1.465981	-0.356837
O20	O	0.353461	-0.965981	0.143163
C21	C	-0.000096	-1.255549	-0.191961
C22	C	0.499904	-0.755549	0.308039
C23	C	-0.000084	-1.116107	-0.188270
C24	C	0.499916	-0.616107	0.311730
C25	C	-0.000127	-1.492253	0.044747
C26	C	0.499873	-0.992253	0.544747
C27	C	-0.000124	-1.488562	0.184190
C28	C	0.499876	-0.988562	0.684190
N29	N	-0.456395	-1.451748	-0.151471
N30	N	0.043605	-0.951748	0.348529
N31	N	0.456163	-1.518432	-0.218101
N32	N	0.956163	-1.018432	0.281899
C33	C	-0.000132	-1.714621	-0.177620
C34	C	0.499868	-1.214621	0.322380
C35	C	-0.000133	-1.854064	-0.181312
C36	C	0.499867	-1.354064	0.318688
C37	C	-0.000081	-1.036622	-0.300812
C38	C	0.499919	-0.536622	0.199188
C39	C	-0.000112	-0.905599	-0.297333
C40	C	0.499888	-0.405599	0.202667
C41	C	-0.000140	-0.933560	-0.068762
C42	C	0.499860	-0.433560	0.431238
C43	C	-0.000122	-1.064579	-0.072241
C44	C	0.499878	-0.564579	0.427759
C45	C	-0.000101	-1.477917	-0.414329
C46	C	0.499899	-0.977917	0.085671
C47	C	-0.000093	-1.481610	-0.553773
C48	C	0.499907	-0.981610	-0.053773
C49	C	-0.000133	-1.601103	0.263677
C50	C	0.499867	-1.101103	0.763677
C51	C	-0.000111	-1.597628	0.394696
C52	C	0.499889	-1.097628	0.894696
C53	C	-0.000078	-1.369061	0.366730
C54	C	0.499922	-0.869061	0.866730
C55	C	-0.000087	-1.372538	0.235713
C56	C	0.499913	-0.872538	0.735713
H57	H	-0.531630	-1.383713	-0.083463
H58	H	-0.031630	-0.883713	0.416537
Cl59	Cl	-0.427678	-1.623494	-0.323096
Cl60	Cl	0.072322	-1.123494	0.176904
Cl61	Cl	-0.000044	-1.101394	-0.446676
Cl62	Cl	0.499956	-0.601394	0.053324
H63	H	-0.000114	-0.840886	-0.388976
H64	H	0.499886	-0.340886	0.111024
Cl65	Cl	-0.000060	-1.231047	0.135778
Cl66	Cl	0.499940	-0.731047	0.635778
H67	H	-0.000129	-1.129300	0.019411
H68	H	0.499871	-0.629300	0.519411
Cl69	Cl	-0.000177	-0.868773	0.077095
Cl70	Cl	0.499823	-0.368773	0.577095
Cl71	Cl	-0.000174	-1.746961	0.198910
Cl72	Cl	0.499826	-1.246961	0.698910
Cl73	Cl	-0.000119	-1.739115	0.494617
Cl74	Cl	0.499881	-1.239115	0.994617
Cl75	Cl	-0.000033	-1.223210	0.431511
Cl76	Cl	0.499967	-0.723210	0.931511
