data_functionalizedCrystal
_audit_creation_method	'MofGen! by Chris Wilmer'
_symmetry_space_group_name_H-M	'P1'
_symmetry_Int_Tables_number	1
_symmetry_cell_setting	triclinic
loop_
_symmetry_equiv_pos_as_xyz
  x,y,z
_cell_length_a	21.395364
_cell_length_b	19.805399
_cell_length_c	21.395361
_cell_angle_alpha	89.969097
_cell_angle_beta	90.045659
_cell_angle_gamma	89.981369
loop_
_atom_site_label
_atom_site_type_symbol
_atom_site_fract_x
_atom_site_fract_y
_atom_site_fract_z
Zn1	Zn	0.957823	-0.382687	-0.249203
Zn2	Zn	0.957736	-0.269492	-0.353980
Zn3	Zn	0.853048	-0.269514	-0.249248
Zn4	Zn	0.853007	-0.382641	-0.353974
O5	O	0.905403	-0.326084	-0.301601
O6	O	1.045489	-0.367682	-0.263086
O7	O	0.943830	-0.174779	-0.340108
O8	O	0.867001	-0.284555	-0.161564
O9	O	1.045425	-0.284518	-0.340065
O10	O	0.943978	-0.367703	-0.161531
O11	O	0.866917	-0.174794	-0.263162
O12	O	0.765365	-0.284510	-0.263156
O13	O	0.866930	-0.477364	-0.340055
O14	O	0.765334	-0.367624	-0.340098
O15	O	0.943937	-0.477398	-0.263080
O16	O	0.943790	-0.284474	-0.441657
O17	O	0.866846	-0.367603	-0.441653
C18	C	0.742616	-0.326064	-0.301632
C19	C	0.672975	-0.326072	-0.301660
C20	C	0.640317	-0.369443	-0.261642
C21	C	0.574882	-0.369445	-0.261626
C22	C	0.542106	-0.326085	-0.301638
C23	C	0.574772	-0.282706	-0.341658
C24	C	0.640206	-0.282700	-0.341669
C25	C	0.438382	-0.320640	-0.358063
C26	C	0.372949	-0.320650	-0.358053
C27	C	0.340286	-0.326100	-0.301603
C28	C	0.373063	-0.331552	-0.245162
C29	C	0.438497	-0.331546	-0.245173
C30	C	0.471154	-0.326086	-0.301630
C31	C	0.236675	-0.369475	-0.261564
C32	C	0.171239	-0.369473	-0.261547
C33	C	0.171130	-0.282737	-0.341585
C34	C	0.236566	-0.282736	-0.341597
C35	C	0.269334	-0.326108	-0.301587
C36	C	0.905439	-0.502626	-0.301562
C37	C	0.905454	-0.577858	-0.301545
C38	C	0.945552	-0.613221	-0.261462
C39	C	0.945559	-0.683910	-0.261444
C40	C	0.905469	-0.719234	-0.301512
C41	C	0.865366	-0.683866	-0.341597
C42	C	0.865357	-0.613179	-0.341611
C43	C	0.865401	-0.968940	-0.341538
C44	C	0.865415	-1.039632	-0.341522
C45	C	0.945603	-1.039670	-0.261371
C46	C	0.945594	-0.968983	-0.261386
C47	C	0.905489	-0.933621	-0.301468
C48	C	0.905482	-0.856973	-0.301486
C49	C	0.905479	-0.795881	-0.301498
C50	C	1.068827	-0.326103	-0.301571
C51	C	1.138468	-0.326111	-0.301558
C52	C	0.905321	-0.326046	-0.464389
C53	C	0.905343	-0.326052	-0.534030
C54	C	0.905405	-0.150228	-0.301595
C55	C	0.905511	-0.074996	-0.301436
C56	C	0.945443	-0.282811	-0.566725
C57	C	0.945472	-0.282826	-0.632160
C58	C	0.905390	-0.326076	-0.664898
C59	C	0.865287	-0.369325	-0.632196
C60	C	0.865263	-0.369314	-0.566762
C61	C	0.848975	-0.331380	-0.768628
C62	C	0.848997	-0.331386	-0.834061
C63	C	0.905463	-0.326115	-0.866719
C64	C	0.961908	-0.320823	-0.833937
C65	C	0.961884	-0.320811	-0.768503
C66	C	0.905411	-0.326093	-0.735851
C67	C	0.945598	-0.282888	-0.970366
C68	C	0.945628	-0.282908	-1.035803
C69	C	0.865437	-0.369404	-1.035837
C70	C	0.865413	-0.369387	-0.970402
C71	C	0.905492	-0.326126	-0.937670
C72	C	0.905504	-0.326136	-0.138178
C73	C	0.905546	-0.326159	-0.068537
H74	H	0.346469	-0.335990	-0.199195
C75	C	0.989689	-0.235311	-0.934359
H76	H	1.013584	-0.209567	-0.963205
H77	H	0.965730	-0.205789	-0.908881
H78	H	1.016966	-0.261231	-0.908784
C79	C	0.821315	-1.078491	-0.385597
H80	H	0.827071	-1.125654	-0.379852
H81	H	0.779220	-1.066906	-0.376437
H82	H	0.830459	-1.066892	-0.427698
C83	C	0.135085	-0.235045	-0.385600
H84	H	0.091437	-0.241262	-0.379866
H85	H	0.145800	-0.189584	-0.376382
H86	H	0.145773	-0.244874	-0.427713
C87	C	0.821267	-0.722718	-0.385672
H88	H	0.797380	-0.691531	-0.409542
H89	H	0.845221	-0.750288	-0.412962
H90	H	0.793983	-0.750295	-0.361700
C91	C	0.821250	-0.574277	-0.385701
H92	H	0.826981	-0.527119	-0.379967
H93	H	0.830392	-0.585847	-0.427796
H94	H	0.779158	-0.585857	-0.376531
H95	H	1.007888	-0.316531	-0.860526
H96	H	0.978213	-0.712699	-0.228806
C97	C	0.821275	-0.930050	-0.385614
H98	H	0.797401	-0.961214	-0.409473
H99	H	0.793990	-0.902488	-0.361643
H100	H	0.845208	-0.902462	-0.412924
C101	C	0.989514	-0.235213	-0.530721
H102	H	0.983750	-0.241388	-0.487067
H103	H	1.031616	-0.245142	-0.541381
H104	H	0.980351	-0.189733	-0.541494
C105	C	0.989579	-0.235254	-0.668132
H106	H	1.013442	-0.209484	-0.639266
H107	H	1.016875	-0.261171	-0.693613
H108	H	0.965625	-0.205745	-0.693701
H109	H	0.832757	-0.404596	-0.943780
C110	C	0.989649	-0.574371	-0.217384
H111	H	1.013526	-0.605558	-0.193504
H112	H	1.016932	-0.546791	-0.241347
H113	H	0.965687	-0.546803	-0.190092
C114	C	0.786860	-0.337177	-0.732706
H115	H	0.794929	-0.336419	-0.689042
H116	H	0.760530	-0.300333	-0.743485
H117	H	0.766807	-0.378368	-0.743426
H118	H	1.007843	-0.316504	-0.741813
C119	C	0.474309	-0.314641	-0.420160
H120	H	0.517973	-0.315411	-0.412084
H121	H	0.463576	-0.351408	-0.446561
H122	H	0.463549	-0.273392	-0.440140
H123	H	0.978242	-0.940226	-0.228760
C124	C	0.538722	-0.235014	-0.385673
H125	H	0.495074	-0.241234	-0.379940
H126	H	0.549435	-0.189553	-0.376452
H127	H	0.549411	-0.244840	-0.427786
C128	C	0.989740	-0.235339	-1.071767
H129	H	1.013601	-0.209570	-1.042899
H130	H	1.017038	-0.261259	-1.097244
H131	H	0.965792	-0.205830	-1.097340
H132	H	0.803036	-0.335689	-0.860747
H133	H	0.832804	-0.404621	-1.062492
H134	H	0.978257	-1.068470	-0.228732
H135	H	0.263156	-0.247422	-0.374186
H136	H	0.666993	-0.404760	-0.229063
C137	C	0.272724	-0.417176	-0.217552
H138	H	0.243899	-0.443001	-0.193709
H139	H	0.298236	-0.446619	-0.241560
H140	H	0.298267	-0.391333	-0.190224
H141	H	0.832653	-0.404540	-0.658856
C142	C	0.821150	-0.416878	-0.530793
H143	H	0.826879	-0.410678	-0.487135
H144	H	0.779062	-0.406936	-0.541573
H145	H	0.830305	-0.462369	-0.541475
C146	C	0.538951	-0.417162	-0.217612
H147	H	0.567838	-0.442995	-0.193790
H148	H	0.513437	-0.391336	-0.190274
H149	H	0.513418	-0.446605	-0.241625
H150	H	0.465181	-0.335984	-0.199216
H151	H	0.346267	-0.316214	-0.404011
C152	C	0.135315	-0.417183	-0.217525
H153	H	0.164205	-0.443015	-0.193705
H154	H	0.109807	-0.391352	-0.190186
H155	H	0.109777	-0.446627	-0.241530
C156	C	0.676131	-0.234996	-0.385696
H157	H	0.647242	-0.209174	-0.409527
H158	H	0.701673	-0.205552	-0.361700
H159	H	0.701635	-0.260839	-0.413034
