data_functionalizedCrystal
_audit_creation_method	'MofGen! by Chris Wilmer'
_symmetry_space_group_name_H-M	'P1'
_symmetry_Int_Tables_number	1
_symmetry_cell_setting	triclinic
loop_
_symmetry_equiv_pos_as_xyz
  x,y,z
_cell_length_a	12.759401
_cell_length_b	12.759400
_cell_length_c	12.759393
_cell_angle_alpha	89.969553
_cell_angle_beta	89.981504
_cell_angle_gamma	90.013326
loop_
_atom_site_label
_atom_site_type_symbol
_atom_site_fract_x
_atom_site_fract_y
_atom_site_fract_z
Zn1	Zn	1.606267	-0.418200	-0.593990
Zn2	Zn	2.106267	0.081800	-0.093990
Zn3	Zn	1.606166	-0.593919	-0.418313
Zn4	Zn	2.106166	-0.093919	0.081687
Zn5	Zn	1.430569	-0.418255	-0.418329
Zn6	Zn	1.930569	0.081745	0.081671
Zn7	Zn	1.430562	-0.593838	-0.593955
Zn8	Zn	1.930562	-0.093838	-0.093955
O9	O	1.518391	-0.506053	-0.506147
O10	O	2.018391	-0.006053	-0.006147
O11	O	1.753274	-0.441520	-0.570694
O12	O	2.253274	0.058480	-0.070694
O13	O	1.582833	-0.570673	-0.271294
O14	O	2.082833	-0.070673	0.228706
O15	O	1.453920	-0.271226	-0.441652
O16	O	1.953920	0.228774	0.058348
O17	O	1.753200	-0.570620	-0.441625
O18	O	2.253200	-0.070620	0.058375
O19	O	1.583005	-0.271186	-0.570709
O20	O	2.083005	0.228814	-0.070709
O21	O	1.453822	-0.441614	-0.271306
O22	O	1.953822	0.058386	0.228694
O23	O	1.283547	-0.441535	-0.441618
O24	O	1.783547	0.058465	0.058382
O25	O	1.453909	-0.570482	-0.740980
O26	O	1.953909	-0.070482	-0.240980
O27	O	1.283542	-0.570536	-0.570649
O28	O	1.783542	-0.070536	-0.070649
O29	O	1.582998	-0.441442	-0.741006
O30	O	2.082998	0.058558	-0.241006
O31	O	1.582826	-0.740929	-0.441591
O32	O	2.082826	-0.240929	0.058409
O33	O	1.453811	-0.740870	-0.570634
O34	O	1.953811	-0.240870	-0.070634
C35	C	1.245423	-0.506033	-0.506132
C36	C	1.745423	-0.006033	-0.006132
C37	C	1.128647	-0.506050	-0.506151
C38	C	1.628647	-0.006050	-0.006151
C39	C	1.073810	-0.573328	-0.573227
C40	C	1.573810	-0.073328	-0.073227
C41	C	0.964086	-0.573342	-0.573238
C42	C	1.464086	-0.073342	-0.073238
C43	C	0.964045	-0.438796	-0.439089
C44	C	1.464045	0.061204	0.060911
C45	C	1.073767	-0.438778	-0.439084
C46	C	1.573767	0.061222	0.060916
C47	C	1.128689	-0.640600	-0.640294
C48	C	1.628689	-0.140600	-0.140294
C49	C	1.073852	-0.707885	-0.707374
C50	C	1.573852	-0.207885	-0.207374
C51	C	0.964128	-0.707898	-0.707385
C52	C	1.464128	-0.207898	-0.207385
C53	C	0.909241	-0.640627	-0.640316
C54	C	1.409241	-0.140627	-0.140316
C55	C	1.518336	-0.779020	-0.506130
C56	C	2.018336	-0.279020	-0.006130
C57	C	1.518408	-0.895797	-0.506158
C58	C	2.018408	-0.395797	-0.006158
C59	C	1.585589	-0.950558	-0.573413
C60	C	2.085589	-0.450558	-0.073413
C61	C	1.585638	-1.060282	-0.573439
C62	C	2.085638	-0.560282	-0.073439
C63	C	1.451322	-1.060474	-0.438945
C64	C	1.951322	-0.560474	0.061055
C65	C	1.451269	-0.950752	-0.438926
C66	C	1.951269	-0.450752	0.061074
C67	C	1.652728	-0.895603	-0.640645
C68	C	2.152728	-0.395603	-0.140645
C69	C	1.719915	-0.950364	-0.707905
C70	C	2.219915	-0.450364	-0.207905
C71	C	1.719964	-1.060088	-0.707931
C72	C	2.219964	-0.560088	-0.207931
C73	C	1.652826	-1.115051	-0.640697
C74	C	2.152826	-0.615051	-0.140697
C75	C	1.792424	-0.506073	-0.506161
C76	C	2.292424	-0.006073	-0.006161
C77	C	1.909201	-0.506082	-0.506168
C78	C	2.409201	-0.006082	-0.006168
C79	C	1.518464	-0.505947	-0.780180
C80	C	2.018464	-0.005947	-0.280180
C81	C	1.518496	-0.505902	-0.896957
C82	C	2.018496	-0.005902	-0.396957
C83	C	1.518475	-0.232019	-0.506186
C84	C	2.018475	0.267981	-0.006186
C85	C	1.518510	-0.115243	-0.506203
C86	C	2.018510	0.384757	-0.006203
C87	C	1.585722	-0.438704	-0.951834
C88	C	2.085722	0.061296	-0.451834
C89	C	1.585747	-0.438666	-1.061558
C90	C	2.085747	0.061334	-0.561558
C91	C	1.451316	-0.573033	-1.061518
C92	C	1.951316	-0.073033	-0.561518
C93	C	1.451287	-0.573064	-0.951796
C94	C	1.951287	-0.073064	-0.451796
C95	C	1.652930	-0.371541	-0.896994
C96	C	2.152930	0.128459	-0.396994
C97	C	1.720163	-0.304339	-0.951872
C98	C	2.220163	0.195661	-0.451872
C99	C	1.720188	-0.304301	-1.061596
C100	C	2.220188	0.195699	-0.561596
C101	C	1.652980	-0.371465	-1.116443
C102	C	2.152980	0.128535	-0.616443
C103	C	1.518378	-0.506083	-0.233179
C104	C	2.018378	-0.006083	0.266821
C105	C	1.518550	-0.505832	-0.116403
C106	C	2.018550	-0.005832	0.383597
H107	H	1.118548	-0.762647	-0.761985
H108	H	1.618548	-0.262647	-0.261985
C109	C	1.652677	-0.774904	-0.640627
C110	C	2.152677	-0.274904	-0.140627
N111	N	1.652637	-0.683994	-0.640613
N112	N	2.152637	-0.183994	-0.140613
C113	C	1.652906	-0.371573	-0.776296
C114	C	2.152906	0.128427	-0.276296
N115	N	1.652886	-0.371598	-0.685386
N116	N	2.152886	0.128402	-0.185386
H117	H	1.118417	-0.383987	-0.384473
H118	H	1.618417	0.116013	0.115527
H119	H	1.652994	-0.371417	-1.205788
H120	H	2.152994	0.128583	-0.705788
C121	C	1.794082	-0.230457	-0.891538
C122	C	2.294082	0.269543	-0.391538
N123	N	1.849759	-0.174808	-0.846096
N124	N	2.349759	0.325192	-0.346096
C125	C	0.903665	-0.364810	-0.365313
C126	C	1.403665	0.135190	0.134687
N127	N	0.858187	-0.309085	-0.309740
N128	N	1.358187	0.190915	0.190260
H129	H	1.774571	-0.905608	-0.762651
H130	H	2.274571	-0.405608	-0.262651
H131	H	1.774924	-0.249574	-1.106274
H132	H	2.274924	0.250426	-0.606274
H133	H	1.218032	-0.640599	-0.640290
H134	H	1.718032	-0.140599	-0.140290
H135	H	1.774662	-1.104672	-0.762705
H136	H	2.274662	-0.604672	-0.262705
C137	C	1.377395	-0.646910	-1.121854
C138	C	1.877395	-0.146910	-0.621854
N139	N	1.321717	-0.702556	-1.167299
N140	N	1.821717	-0.202556	-0.667299
H141	H	0.919482	-0.762676	-0.762012
H142	H	1.419482	-0.262676	-0.262012
C143	C	1.377524	-1.120937	-0.364945
C144	C	1.877524	-0.620937	0.135055
N145	N	1.321955	-1.166478	-0.309188
N146	N	1.821955	-0.666478	0.190812
H147	H	1.396529	-0.627767	-0.907114
H148	H	1.896529	-0.127767	-0.407114
C149	C	1.377376	-0.890511	-0.364932
C150	C	1.877376	-0.390511	0.135068
N151	N	1.321719	-0.845137	-0.309197
N152	N	1.821719	-0.345137	0.190803
H153	H	0.819896	-0.640634	-0.640340
H154	H	1.319896	-0.140634	-0.140340
H155	H	1.652859	-1.204396	-0.640735
H156	H	2.152859	-0.704396	-0.140735
