data_functionalizedCrystal
_audit_creation_method	'MofGen! by Chris Wilmer'
_symmetry_space_group_name_H-M	'P1'
_symmetry_Int_Tables_number	1
_symmetry_cell_setting	triclinic
loop_
_symmetry_equiv_pos_as_xyz
  x,y,z
_cell_length_a	10.723023
_cell_length_b	15.944493
_cell_length_c	9.798715
_cell_angle_alpha	90.002726
_cell_angle_beta	89.996770
_cell_angle_gamma	83.971296
loop_
_atom_site_label
_atom_site_type_symbol
_atom_site_fract_x
_atom_site_fract_y
_atom_site_fract_z
O1	O	1.655663	0.117808	-0.113457
O2	O	1.292365	0.129086	-0.113461
O3	O	1.483972	0.001226	-0.113471
O4	O	1.464055	0.245668	-0.113448
O5	O	1.483958	0.001225	0.113511
O6	O	1.292350	0.129085	0.113521
O7	O	1.655649	0.117808	0.113525
Zn8	Zn	1.473997	0.123446	0.149561
Zn9	Zn	1.474016	0.123447	-0.149498
O10	O	1.464041	0.245668	0.113534
C11	C	1.245869	0.128265	0.000029
C12	C	1.107346	0.125810	0.000026
C13	C	1.045581	0.124715	0.117609
C14	C	0.902410	0.122178	0.117609
C15	C	1.483151	-0.030074	0.000015
C16	C	1.480711	-0.123337	-0.000003
C17	C	1.593495	-0.358451	0.000024
C18	C	1.532682	-0.409367	-0.111890
C19	C	1.476189	-0.294084	0.000014
C20	C	1.532641	-0.409344	0.111897
C21	C	1.471829	-0.459018	0.000036
C22	C	1.415407	-0.343771	-0.111993
C23	C	1.415382	-0.343744	0.111895
C24	C	1.354483	-0.394628	-0.000047
C25	C	1.478703	-0.199069	-0.000000
C26	C	1.469305	-0.554030	0.000040
C27	C	1.702145	0.118628	0.000031
C28	C	1.840668	0.121083	0.000025
C29	C	1.464862	0.276967	0.000046
C30	C	1.467303	0.370230	0.000054
N31	N	1.473994	0.123446	0.353661
N32	N	1.474030	0.123441	-0.353597
C33	C	1.554448	0.069524	0.421434
C34	C	1.554468	0.069521	0.578596
H35	H	1.054233	0.124866	-0.100640
O36	O	1.714040	-0.339118	-0.000373
C37	C	1.912053	-0.350752	-0.118807
C38	C	1.775574	-0.372710	-0.118517
H39	H	1.961850	-0.377916	-0.214303
H40	H	1.912833	-0.279311	-0.117935
H41	H	1.962540	-0.378825	-0.024331
H42	H	1.725006	-0.344693	-0.212978
H43	H	1.774884	-0.444158	-0.119319
H44	H	1.365901	-0.315234	-0.206708
O45	O	1.233869	-0.413820	0.000127
C46	C	1.075564	-0.482460	0.118134
C47	C	1.212173	-0.460763	0.118133
H48	H	1.057987	-0.520432	0.213517
H49	H	1.009090	-0.421769	0.117272
H50	H	1.058505	-0.521292	0.023544
H51	H	1.229353	-0.421955	0.212708
H52	H	1.278576	-0.521487	0.118923
O53	O	1.636815	0.014526	0.648053
C54	C	1.853618	-0.033774	0.691921
C55	C	1.760497	0.028572	0.613200
H56	H	1.953634	-0.022451	0.663750
H57	H	1.839104	-0.023967	0.806302
H58	H	1.837043	-0.101110	0.663916
H59	H	1.777016	0.095933	0.641090
H60	H	1.775033	0.018691	0.498838
O61	O	1.591671	-0.443453	-0.224907
C62	C	1.597835	-0.447509	-0.470663
C63	C	1.530921	-0.408831	-0.342793
H64	H	1.548731	-0.419546	-0.566006
H65	H	1.699665	-0.432926	-0.470631
H66	H	1.594600	-0.518746	-0.470005
H67	H	1.534060	-0.337588	-0.343367
H68	H	1.429124	-0.423481	-0.342874
H69	H	1.365879	-0.315067	0.206513
H70	H	1.405124	0.169605	0.411989
H71	H	1.098695	0.125652	0.218275
O72	O	1.636484	0.014350	0.351892
C73	C	1.709100	-0.131311	0.307844
C74	C	1.616101	-0.068928	0.386674
H75	H	1.692670	-0.198654	0.335958
H76	H	1.694421	-0.121546	0.193480
H77	H	1.809129	-0.119906	0.335807
H78	H	1.516035	-0.080295	0.358826
H79	H	1.630889	-0.078708	0.501019
H80	H	1.405151	0.169611	0.588129
H81	H	1.582200	-0.437991	0.206505
O82	O	0.904132	0.122322	-0.119994
C83	C	1.037037	0.197601	-0.263436
C84	C	0.965233	0.196294	-0.127454
H85	H	1.086434	0.257410	-0.269525
H86	H	1.109490	0.140042	-0.269562
H87	H	0.968260	0.196340	-0.351945
H88	H	1.033915	0.197583	-0.038869
H89	H	0.892763	0.253848	-0.121447
O90	O	0.839079	0.121204	0.237745
C91	C	0.784906	0.193108	0.449245
C92	C	0.856665	0.194328	0.313223
H93	H	0.799120	0.252213	0.510319
H94	H	0.680704	0.191316	0.427925
H95	H	0.821844	0.134850	0.510231
H96	H	0.819833	0.252578	0.252168
H97	H	0.960858	0.196076	0.334638
