data_functionalizedCrystal
_audit_creation_method	'MofGen! by Chris Wilmer'
_symmetry_space_group_name_H-M	'P1'
_symmetry_Int_Tables_number	1
_symmetry_cell_setting	triclinic
loop_
_symmetry_equiv_pos_as_xyz
  x,y,z
_cell_length_a	17.077404
_cell_length_b	14.908520
_cell_length_c	17.077396
_cell_angle_alpha	86.731679
_cell_angle_beta	90.019501
_cell_angle_gamma	93.320938
loop_
_atom_site_label
_atom_site_type_symbol
_atom_site_fract_x
_atom_site_fract_y
_atom_site_fract_z
Zn1	Zn	1.182024	-0.359154	0.461868
Zn2	Zn	1.174357	-0.510026	0.338173
Zn3	Zn	1.050754	-0.359186	0.330617
Zn4	Zn	1.043152	-0.509972	0.469394
O5	O	1.112572	-0.434584	0.400013
O6	O	1.290853	-0.379177	0.445472
O7	O	1.157933	-0.490052	0.227326
O8	O	1.074557	-0.232937	0.341715
O9	O	1.285220	-0.490021	0.354594
O10	O	1.171001	-0.232913	0.438145
O11	O	1.067123	-0.379231	0.221774
O12	O	0.939899	-0.379179	0.349014
O13	O	1.061601	-0.489930	0.578241
O14	O	0.934314	-0.489961	0.450973
O15	O	1.163629	-0.379125	0.572711
O16	O	1.150562	-0.636263	0.361892
O17	O	1.054166	-0.636224	0.458300
C18	C	0.908625	-0.434568	0.399990
C19	C	0.821374	-0.434583	0.400001
C20	C	1.100728	-0.668978	0.411750
C21	C	1.095734	-0.769252	0.416797
C22	C	0.777492	-0.492354	0.453014
C23	C	0.695511	-0.492356	0.453027
C24	C	0.657414	-0.434591	0.400022
C25	C	0.701302	-0.376813	0.347005
C26	C	0.783282	-0.376807	0.346997
C27	C	0.530432	-0.376831	0.347025
C28	C	0.448447	-0.376837	0.347032
C29	C	0.442661	-0.492380	0.453055
C30	C	0.524640	-0.492374	0.453047
C31	C	0.568523	-0.434597	0.400029
C32	C	1.186828	-0.957658	0.325973
C33	C	1.182137	-1.051875	0.330713
C34	C	1.081667	-1.051904	0.431020
C35	C	1.086357	-0.957687	0.426280
C36	C	1.138939	-0.910568	0.373754
C37	C	1.143625	-0.816349	0.369011
C38	C	1.043159	-0.816380	0.469321
C39	C	1.038468	-0.910597	0.474061
C40	C	1.317315	-0.434601	0.400036
C41	C	1.404564	-0.434609	0.400046
C42	C	1.112622	-0.434518	0.604754
C43	C	1.112644	-0.434490	0.692002
C44	C	1.124482	-0.199276	0.388248
C45	C	1.129558	-0.099001	0.383234
C46	C	1.112569	-0.434585	0.196065
C47	C	1.112713	-0.434360	0.108804
C48	C	1.165772	-0.376788	0.730114
C49	C	1.165783	-0.376758	0.812093
C50	C	1.112669	-0.434435	0.855959
C51	C	1.059535	-0.492138	0.817842
C52	C	1.059521	-0.492163	0.735864
C53	C	1.059569	-0.492084	0.988709
C54	C	1.059584	-0.492061	1.070693
C55	C	1.165832	-0.376679	1.064938
C56	C	1.165818	-0.376704	0.982961
C57	C	1.112684	-0.434409	0.944849
H58	H	0.808504	-0.539396	0.496175
H59	H	1.229636	-0.919293	0.283199
H60	H	1.221135	-1.090213	0.291806
O61	O	1.194656	-0.770673	0.317886
C62	C	1.234253	-0.741865	0.182948
C63	C	1.176417	-0.793662	0.240761
H64	H	1.219517	-0.760418	0.120578
H65	H	1.296633	-0.760332	0.197661
H66	H	1.229392	-0.666441	0.187806
H67	H	1.181208	-0.869098	0.235935
H68	H	1.114061	-0.775120	0.226030
H69	H	0.819010	-0.329759	0.303831
H70	H	1.004162	-0.778028	0.508225
H71	H	0.566159	-0.329775	0.303859
H72	H	0.670278	-0.329775	0.303850
H73	H	0.659786	-0.539400	0.496196
H74	H	1.038863	-1.090285	0.473789
O75	O	0.987410	-0.956512	0.525013
C76	C	0.935688	-1.101670	0.576803
C77	C	0.993536	-1.049787	0.519054
H78	H	0.940633	-1.177092	0.572017
H79	H	0.873300	-1.083288	0.562025
H80	H	0.950347	-1.083030	0.639167
H81	H	0.978949	-1.068400	0.456671
H82	H	1.055908	-1.068173	0.533900
O83	O	1.217398	-0.320676	0.687623
C84	C	1.322810	-0.206264	0.690580
C85	C	1.264374	-0.269755	0.738792
H86	H	1.360816	-0.165092	0.731929
H87	H	1.289193	-0.159040	0.649854
H88	H	1.361718	-0.247712	0.654257
H89	H	1.225451	-0.228380	0.775160
H90	H	1.298040	-0.316982	0.779468
H91	H	1.209048	-0.329774	0.843120
O92	O	1.217442	-0.320595	0.940465
C93	C	1.322857	-0.206187	0.943406
C94	C	1.264425	-0.269671	0.991626
H95	H	1.360869	-0.165012	0.984749
H96	H	1.289239	-0.158964	0.902679
H97	H	1.361761	-0.247639	0.907083
H98	H	1.225506	-0.228291	1.027995
H99	H	1.298092	-0.316896	1.032303
H100	H	1.209094	-0.329692	1.095973
O101	O	1.007911	-0.548111	1.113185
C102	C	0.902550	-0.662585	1.110248
C103	C	0.961015	-0.599139	1.062030
H104	H	0.864630	-0.703872	1.068910
H105	H	0.863561	-0.621188	1.146533
H106	H	0.936222	-0.709713	1.151011
H107	H	0.927407	-0.551999	1.021224
H108	H	1.000003	-0.640593	1.025797
H109	H	0.555656	-0.539416	0.496205
O110	O	1.008070	-0.548184	0.951596
C111	C	0.991356	-0.670044	0.865156
C112	C	1.049755	-0.606551	0.907130
H113	H	1.025035	-0.717262	0.829208
H114	H	0.952412	-0.628685	0.824644
H115	H	0.953378	-0.711231	0.910593
H116	H	1.087783	-0.565351	0.861748
H117	H	1.088644	-0.647962	0.947657
O118	O	0.399921	-0.548416	0.504532
C119	C	0.271061	-0.599669	0.551508
C120	C	0.319373	-0.536148	0.493188
H121	H	0.205929	-0.589786	0.542345
H122	H	0.287948	-0.583920	0.614053
H123	H	0.283547	-0.672382	0.541263
H124	H	0.306913	-0.463413	0.503360
H125	H	0.302479	-0.551974	0.430662
O126	O	1.007831	-0.548070	0.860410
C127	C	0.872095	-0.591883	0.887622
C128	C	0.930562	-0.528466	0.839378
H129	H	0.809610	-0.576068	0.870624
H130	H	0.881163	-0.581955	0.952770
H131	H	0.882236	-0.664626	0.875148
H132	H	0.920457	-0.455697	0.851786
H133	H	0.921480	-0.538471	0.774245
O134	O	0.411563	-0.320636	0.295518
C135	C	0.425947	-0.206060	0.190334
C136	C	0.467817	-0.269647	0.248643
H137	H	0.471408	-0.164833	0.152410
H138	H	0.389984	-0.158891	0.224051
H139	H	0.385439	-0.247434	0.151337
H140	H	0.508364	-0.228345	0.287655
H141	H	0.503730	-0.316819	0.214878
O142	O	1.007999	-0.548351	0.698877
C143	C	0.962110	-0.701815	0.681484
C144	C	1.020514	-0.638285	0.723413
H145	H	0.972197	-0.774539	0.701318
H146	H	0.971228	-0.692000	0.615354
H147	H	0.899623	-0.685925	0.696780
H148	H	1.083025	-0.654136	0.708180
H149	H	1.011328	-0.648111	0.789533
