data_functionalizedCrystal
_audit_creation_method	'MofGen! by Chris Wilmer'
_symmetry_space_group_name_H-M	'P1'
_symmetry_Int_Tables_number	1
_symmetry_cell_setting	triclinic
loop_
_symmetry_equiv_pos_as_xyz
  x,y,z
_cell_length_a	10.685661
_cell_length_b	18.101397
_cell_length_c	10.686551
_cell_angle_alpha	85.588535
_cell_angle_beta	80.927213
_cell_angle_gamma	85.641577
loop_
_atom_site_label
_atom_site_type_symbol
_atom_site_fract_x
_atom_site_fract_y
_atom_site_fract_z
Zn1	Zn	1.995657	-0.345664	-0.866114
Zn2	Zn	1.979212	-0.478346	-0.653830
Zn3	Zn	1.767092	-0.345698	-0.637639
Zn4	Zn	1.783345	-0.460640	-0.849795
O5	O	1.881327	-0.407587	-0.751844
O6	O	2.171102	-0.370660	-0.851560
O7	O	1.937389	-0.468174	-0.474052
O8	O	1.797493	-0.242062	-0.668001
O9	O	2.159019	-0.468141	-0.695596
O10	O	1.965418	-0.242036	-0.835861
O11	O	1.781546	-0.370718	-0.462157
O12	O	1.591622	-0.353549	-0.652176
O13	O	1.825193	-0.437964	-1.029589
O14	O	1.603563	-0.437997	-0.808046
O15	O	1.981178	-0.353491	-1.041580
O16	O	1.953149	-0.579629	-0.679771
O17	O	1.809247	-0.566620	-0.823746
C18	C	1.551536	-0.393856	-0.726584
C19	C	1.410453	-0.387998	-0.715807
C20	C	1.881213	-0.599995	-0.751775
C21	C	1.881284	-0.682312	-0.751796
C22	C	1.881455	-0.981405	-0.751924
C23	C	1.971701	-0.958233	-0.661056
C24	C	1.972059	-0.872618	-0.661336
C25	C	1.881370	-0.833021	-0.751860
C26	C	1.927909	-0.859964	-0.888429
C27	C	1.928625	-0.945662	-0.887951
C28	C	1.744499	-0.945754	-0.707361
C29	C	1.744933	-0.860257	-0.704426
C30	C	1.881321	-0.749161	-0.751831
C31	C	1.881508	-1.065265	-0.751962
C32	C	2.212405	-0.421372	-0.777204
C33	C	2.353491	-0.427246	-0.788011
C34	C	1.906833	-0.393749	-1.082930
C35	C	1.917703	-0.387852	-1.224019
C36	C	1.881477	-0.214427	-0.751945
C37	C	1.881541	-0.132114	-0.751988
C38	C	1.855992	-0.421321	-0.422053
C39	C	1.845369	-0.427019	-0.280983
H40	H	1.941752	-0.854845	-0.560393
H41	H	1.864634	-0.833598	-0.958396
C42	C	2.012600	-0.336452	-1.303949
N43	N	2.084075	-0.297736	-1.364161
C44	C	1.330525	-0.336545	-0.621160
N45	N	1.270315	-0.297791	-0.549870
H46	H	1.673244	-0.832912	-0.764939
H47	H	1.775124	-0.465069	-1.221810
H48	H	1.412663	-0.465330	-0.858080
C49	C	2.107707	-0.991548	-0.701556
N50	N	2.210144	-1.016648	-0.732057
C51	C	1.931110	-0.990468	-0.524312
N52	N	1.900532	-1.014752	-0.421313
C53	C	2.062137	-0.834710	-0.938361
N54	N	2.163242	-0.815691	-0.975962
C55	C	2.108834	-0.849176	-0.702258
N56	N	2.211859	-0.831521	-0.733081
H57	H	2.029040	-0.968456	-0.924506
C58	C	1.653488	-0.965010	-0.796598
N59	N	1.584949	-0.979518	-0.863815
H60	H	1.866334	-0.960398	-0.958545
C61	C	1.689989	-0.978552	-0.574427
N62	N	1.648946	-1.003255	-0.474296
H63	H	1.710027	-0.842962	-0.603871
