data_functionalizedCrystal
_audit_creation_method	'MofGen! by Chris Wilmer'
_symmetry_space_group_name_H-M	'P1'
_symmetry_Int_Tables_number	1
_symmetry_cell_setting	triclinic
loop_
_symmetry_equiv_pos_as_xyz
  x,y,z
_cell_length_a	29.839134
_cell_length_b	29.839131
_cell_length_c	14.909227
_cell_angle_alpha	86.671520
_cell_angle_beta	86.670229
_cell_angle_gamma	90.034165
loop_
_atom_site_label
_atom_site_type_symbol
_atom_site_fract_x
_atom_site_fract_y
_atom_site_fract_z
Zn1	Zn	0.701432	-0.164267	-0.510383
Zn2	Zn	0.697015	-0.243735	-0.359509
Zn3	Zn	0.621966	-0.168611	-0.359502
Zn4	Zn	0.626260	-0.239364	-0.510294
O5	O	0.661669	-0.203994	-0.434922
O6	O	0.763715	-0.174820	-0.490410
O7	O	0.683414	-0.237417	-0.233260
O8	O	0.632558	-0.105166	-0.379552
O9	O	0.760470	-0.233205	-0.379563
O10	O	0.690942	-0.101975	-0.490403
O11	O	0.628275	-0.182223	-0.233255
O12	O	0.559667	-0.177985	-0.379465
O13	O	0.639878	-0.225754	-0.636554
O14	O	0.562822	-0.229966	-0.490250
O15	O	0.695107	-0.170581	-0.636620
O16	O	0.687578	-0.306023	-0.379476
O17	O	0.635595	-0.302812	-0.490257
C18	C	0.544944	-0.203973	-0.434847
C19	C	0.495009	-0.203974	-0.434837
C20	C	0.136772	-0.176881	-0.377354
C21	C	0.324444	-0.176870	-0.377299
O22	O	0.347303	-0.153799	-0.328341
N23	N	0.349565	-0.203980	-0.434882
C24	C	0.327766	-0.231092	-0.492488
O25	O	0.353440	-0.254147	-0.541471
C26	C	0.140096	-0.231101	-0.492546
C27	C	0.114976	-0.203992	-0.434953
C28	C	0.111653	-0.149775	-0.319766
C29	C	0.064738	-0.149780	-0.319776
C30	C	0.042942	-0.176891	-0.377375
C31	C	0.068061	-0.203997	-0.434964
C32	C	0.118298	-0.258210	-0.550156
C33	C	0.071377	-0.258209	-0.550167
C34	C	0.046258	-0.231101	-0.492573
C35	C	-0.000650	-0.231113	-0.492573
N36	N	-0.025771	-0.204004	-0.434990
C37	C	-0.003975	-0.176892	-0.377391
C38	C	0.426296	-0.231087	-0.492452
C39	C	0.473213	-0.231085	-0.492436
C40	C	0.469888	-0.176862	-0.377248
C41	C	0.422969	-0.176866	-0.377260
C42	C	0.401174	-0.203977	-0.434868
C43	C	-0.102500	-0.176905	-0.377417
C44	C	-0.149420	-0.176914	-0.377431
C45	C	-0.146090	-0.231135	-0.492621
C46	C	-0.099175	-0.231128	-0.492605
C47	C	-0.077381	-0.204009	-0.435000
O48	O	-0.023539	-0.254168	-0.541513
O49	O	-0.029657	-0.153833	-0.328429
C50	C	0.183687	-0.176876	-0.377343
C51	C	0.208807	-0.203983	-0.434931
C52	C	0.187011	-0.231094	-0.492530
C53	C	0.255724	-0.203981	-0.434916
C54	C	0.277520	-0.176870	-0.377317
C55	C	0.252399	-0.149760	-0.319733
C56	C	0.205483	-0.149765	-0.319744
C57	C	0.212132	-0.258204	-0.550113
C58	C	0.259047	-0.258197	-0.550097
C59	C	0.280843	-0.231086	-0.492498
C60	C	0.661586	-0.320718	-0.434877
C61	C	0.661593	-0.370652	-0.434888
C62	C	0.688791	-0.681952	-0.377323
C63	C	0.688847	-0.869624	-0.377358
O64	O	0.711907	-0.895298	-0.328379
N65	N	0.661764	-0.891434	-0.434990
C66	C	0.634666	-0.866323	-0.492622
O67	O	0.611634	-0.889181	-0.541649
C68	C	0.634612	-0.678652	-0.492591
C69	C	0.661694	-0.656844	-0.434948
C70	C	0.715871	-0.660144	-0.319686
C71	C	0.715855	-0.613229	-0.319674
C72	C	0.688758	-0.588121	-0.377300
C73	C	0.661678	-0.609929	-0.434937
C74	C	0.607517	-0.653542	-0.550226
C75	C	0.607507	-0.606621	-0.550215
C76	C	0.634589	-0.584814	-0.492573
C77	C	0.634565	-0.537907	-0.492550
N78	N	0.661649	-0.516097	-0.434918
C79	C	0.688746	-0.541204	-0.377293
C80	C	0.634696	-0.964854	-0.492633
C81	C	0.634708	-1.011771	-0.492640
C82	C	0.688890	-1.015068	-0.377377
C83	C	0.688875	-0.968150	-0.377366
C84	C	0.661779	-0.943043	-0.435001
C85	C	0.688709	-0.442679	-0.377272
C86	C	0.688689	-0.395759	-0.377263
C87	C	0.634509	-0.392466	-0.492529
C88	C	0.634527	-0.439382	-0.492535
C89	C	0.661631	-0.464487	-0.434904
O90	O	0.611522	-0.512205	-0.541511
O91	O	0.711781	-0.518338	-0.328287
C92	C	0.688807	-0.728867	-0.377335
C93	C	0.661727	-0.750675	-0.434972
C94	C	0.634630	-0.725567	-0.492597
C95	C	0.661740	-0.797592	-0.434978
C96	C	0.688836	-0.822700	-0.377353
C97	C	0.715920	-0.800889	-0.319721
C98	C	0.715904	-0.753974	-0.319709
C99	C	0.607547	-0.747378	-0.550229
C100	C	0.607565	-0.794293	-0.550235
C101	C	0.634661	-0.819400	-0.492610
C102	C	0.778849	-0.204016	-0.434998
C103	C	0.828784	-0.204025	-0.435030
C104	C	0.668464	-0.197196	-0.670237
C105	C	0.671360	-0.194299	-0.770514
C106	C	0.661764	-0.086814	-0.434987
C107	C	0.661805	-0.036879	-0.435014
C108	C	0.704193	-0.161493	-0.911885
C109	C	0.701474	-0.164213	-0.817666
C110	C	0.643963	-0.221667	-0.817587
C111	C	0.646682	-0.218947	-0.911806
C112	C	0.676797	-0.188858	-0.958952
C113	C	0.679513	-0.186136	-1.053173
C114	C	0.622005	-0.243591	-1.053093
C115	C	0.619286	-0.246312	-0.958873
C116	C	0.654925	-0.210733	-0.200523
C117	C	0.652116	-0.213504	-0.100247
H118	H	0.487642	-0.154788	-0.330348
Br119	Br	0.738658	-0.127075	-0.753791
H120	H	0.408555	-0.253165	-0.539365
H121	H	0.053634	-0.280285	-0.597082
H122	H	0.704033	-0.161634	-1.091558
Br123	Br	0.752691	-0.834973	-0.241512
Br124	Br	0.281988	-0.112969	-0.241560
Br125	Br	0.745048	-0.120646	-0.975873
H126	H	0.710743	-0.378005	-0.330320
Br127	Br	0.603098	-0.262500	-0.753589
Br128	Br	-0.175680	-0.267934	-0.570773
Br129	Br	0.597946	-1.041362	-0.570859
H130	H	0.612630	-0.944415	-0.539567
Br131	Br	0.578418	-0.287145	-0.894882
H132	H	0.599692	-0.265870	-1.091424
H133	H	-0.169870	-0.154838	-0.330529
H134	H	-0.084762	-0.154820	-0.330514
Br135	Br	0.725493	-0.476742	-0.299058
Br136	Br	0.570766	-0.683126	-0.628470
Br137	Br	0.725662	-1.049151	-0.299168
Br138	Br	0.182560	-0.295001	-0.628292
H139	H	0.185035	-0.127690	-0.272846
H140	H	0.493661	-0.253164	-0.539325
Br141	Br	0.597739	-0.358383	-0.570735
Br142	Br	0.141224	-0.112974	-0.241588
Br143	Br	0.030655	-0.112983	-0.241618
Br144	Br	0.752618	-0.583640	-0.241454
H145	H	0.402520	-0.154791	-0.330365
Br146	Br	-0.065084	-0.267924	-0.570756
Br147	Br	0.570734	-0.572551	-0.628442
H148	H	0.612476	-0.457138	-0.539475
H149	H	0.737956	-0.736222	-0.272772
H150	H	0.279495	-0.280276	-0.596995
Br151	Br	0.725630	-0.938559	-0.299134
Br152	Br	0.752651	-0.694209	-0.241471
Br153	Br	0.570805	-0.823883	-0.628470
H154	H	0.138742	-0.280285	-0.597054
H155	H	0.585482	-0.726939	-0.597156
