data_functionalizedCrystal
_audit_creation_method	'MofGen! by Chris Wilmer'
_symmetry_space_group_name_H-M	'P1'
_symmetry_Int_Tables_number	1
_symmetry_cell_setting	triclinic
loop_
_symmetry_equiv_pos_as_xyz
  x,y,z
_cell_length_a	10.654558
_cell_length_b	10.268362
_cell_length_c	10.654550
_cell_angle_alpha	89.995889
_cell_angle_beta	95.513390
_cell_angle_gamma	90.003950
loop_
_atom_site_label
_atom_site_type_symbol
_atom_site_fract_x
_atom_site_fract_y
_atom_site_fract_z
O1	O	1.667835	0.108279	-0.176450
O2	O	1.302358	0.108285	-0.193245
O3	O	1.493500	0.108277	-0.002108
O4	O	1.476694	0.108287	-0.367586
O5	O	1.493483	-0.108324	-0.002100
O6	O	1.302341	-0.108316	-0.193237
O7	O	1.667818	-0.108322	-0.176441
Cu8	Cu	1.485078	-0.128096	-0.184838
Cu9	Cu	1.485098	0.128059	-0.184848
O10	O	1.476677	-0.108314	-0.367578
C11	C	1.255552	-0.000015	-0.192005
C12	C	1.116109	-0.000012	-0.188309
N13	N	1.485073	-0.308262	-0.184831
C14	C	0.919580	0.118057	-0.183118
C15	C	1.050602	0.118058	-0.186580
C16	C	1.050588	-0.118092	-0.186564
C17	C	0.919569	-0.118092	-0.183094
C18	C	0.854078	0.236135	-0.181401
C19	C	0.919591	0.354215	-0.183144
C20	C	1.050613	0.354216	-0.186606
C21	C	1.116123	0.236138	-0.188325
C22	C	1.485092	-0.573933	-0.184845
C23	C	1.485078	-0.426095	-0.184841
C24	C	1.714625	-0.000020	-0.177681
C25	C	1.854067	-0.000014	-0.181377
C26	C	1.492257	-0.000022	0.044694
C27	C	1.488565	-0.000017	0.184137
N28	N	1.485113	0.308225	-0.184845
C29	C	1.477919	-0.000012	-0.414380
C30	C	1.481611	-0.000008	-0.553823
C31	C	1.601106	-0.000023	0.263620
C32	C	1.597630	-0.000014	0.394641
C33	C	1.369061	0.000001	0.366684
C34	C	1.372539	0.000001	0.235666
C35	C	1.717133	-0.000042	0.212091
C36	C	1.829683	-0.000049	0.291575
C37	C	1.826207	-0.000040	0.422596
C38	C	1.710180	-0.000024	0.474133
H39	H	0.747393	0.236147	-0.178587
O40	O	1.243423	0.236294	-0.191499
C41	C	1.300457	0.301021	-0.084054
H42	H	1.229380	0.369972	-0.045874
H43	H	1.385144	0.359058	-0.110775
H44	H	1.332968	0.226377	-0.008631
H45	H	1.274597	0.000013	0.408657
O46	O	0.855876	0.468875	-0.181692
C47	C	0.766800	0.475927	-0.288252
H48	H	0.797009	0.408925	-0.365182
H49	H	0.760865	0.580356	-0.324665
H50	H	0.670501	0.444203	-0.261079
H51	H	1.280898	0.000004	0.170948
O52	O	1.114171	0.468945	-0.188515
C53	C	1.068865	0.540784	-0.296237
H54	H	1.023571	0.471694	-0.371168
H55	H	1.150576	0.594344	-0.334967
H56	H	0.995815	0.614404	-0.269685
O57	O	1.114192	-0.232819	-0.188019
C58	C	1.095425	-0.304669	-0.078606
H59	H	1.068690	-0.235588	-0.001762
H60	H	1.186043	-0.358225	-0.044443
H61	H	1.016371	-0.378293	-0.101136
O62	O	0.855890	-0.232748	-0.181185
C63	C	0.793350	-0.239797	-0.070615
H64	H	0.842122	-0.172801	0.004228
H65	H	0.796302	-0.344228	-0.034127
H66	H	0.691057	-0.208064	-0.092534
H67	H	1.719976	-0.000054	0.105409
H68	H	1.924148	-0.000030	0.249604
O69	O	1.935648	-0.000099	0.499627
C70	C	2.038794	-0.000080	0.426045
H71	H	2.007761	-0.041088	0.328557
H72	H	2.117709	-0.062970	0.473681
H73	H	2.074318	0.103831	0.416398
H74	H	1.707358	-0.000003	0.580820
