data_functionalizedCrystal
_audit_creation_method	'MofGen! by Chris Wilmer'
_symmetry_space_group_name_H-M	'P1'
_symmetry_Int_Tables_number	1
_symmetry_cell_setting	triclinic
loop_
_symmetry_equiv_pos_as_xyz
  x,y,z
_cell_length_a	17.639181
_cell_length_b	19.120786
_cell_length_c	17.640968
_cell_angle_alpha	103.127093
_cell_angle_beta	92.163516
_cell_angle_gamma	81.715603
loop_
_atom_site_label
_atom_site_type_symbol
_atom_site_fract_x
_atom_site_fract_y
_atom_site_fract_z
Zn1	Zn	1.221584	-0.467075	0.177039
Zn2	Zn	1.188316	-0.602274	0.045094
Zn3	Zn	1.069457	-0.457926	0.076125
Zn4	Zn	1.089603	-0.556788	0.199419
O5	O	1.142240	-0.521016	0.124419
O6	O	1.322148	-0.507875	0.137184
O7	O	1.150195	-0.598334	-0.057608
O8	O	1.095129	-0.361185	0.093131
O9	O	1.297706	-0.607205	0.040244
O10	O	1.206896	-0.367907	0.167273
O11	O	1.062870	-0.492282	-0.034810
O12	O	0.967152	-0.448175	0.114832
O13	O	1.129465	-0.529680	0.303269
O14	O	0.981954	-0.520809	0.205417
O15	O	1.226431	-0.463769	0.286827
O16	O	1.169730	-0.694196	0.061945
O17	O	1.097206	-0.660777	0.175328
C18	C	0.947334	-0.478564	0.165921
C19	C	0.863954	-0.460417	0.183693
C20	C	1.132068	-0.702887	0.117710
C21	C	1.127790	-0.780704	0.114851
C22	C	0.526069	-0.659030	-0.010589
C23	C	0.447724	-0.641968	0.006118
C24	C	0.473197	-0.538659	0.107201
C25	C	0.551546	-0.555711	0.090500
C26	C	0.577975	-0.615898	0.031605
C27	C	0.603451	-0.512578	0.132694
C28	C	0.681794	-0.529631	0.115997
C29	C	0.708230	-0.589816	0.057107
C30	C	0.656317	-0.632950	0.014908
C31	C	0.577021	-0.452395	0.191592
C32	C	0.628927	-0.409262	0.233786
C33	C	0.707270	-0.426312	0.217086
C34	C	0.733706	-0.486497	0.158195
C35	C	0.759183	-0.383177	0.259284
C36	C	0.837525	-0.400230	0.242588
C37	C	0.812049	-0.503550	0.141499
C38	C	1.183944	-0.820688	0.152156
C39	C	1.179922	-0.893804	0.149472
C40	C	1.119748	-0.926936	0.109476
C41	C	1.063589	-0.886946	0.072170
C42	C	1.067608	-0.813830	0.074860
C43	C	1.104698	-1.147526	0.099426
C44	C	1.100684	-1.220648	0.096737
C45	C	1.217017	-1.227501	0.174040
C46	C	1.221034	-1.154385	0.176722
C47	C	1.164872	-1.114400	0.139420
C48	C	1.115637	-1.001673	0.106729
C49	C	1.168981	-1.039663	0.142172
C50	C	1.337908	-0.563634	0.082756
C51	C	1.421290	-0.581796	0.065002
C52	C	1.183906	-0.492671	0.323519
C53	C	1.201662	-0.480592	0.408364
C54	C	1.152476	-0.338437	0.131167
C55	C	1.156838	-0.260632	0.134043
C56	C	1.100782	-0.549210	-0.073914
C57	C	1.083183	-0.561123	-0.158781
C58	C	1.007662	-0.612461	0.730205
C59	C	1.024362	-0.601105	0.809926
C60	C	1.125324	-0.532477	0.792796
C61	C	1.108630	-0.543824	0.713072
C62	C	1.049798	-0.583817	0.681783
C63	C	1.150766	-0.515181	0.664650
C64	C	1.134075	-0.526530	0.584932
C65	C	1.075248	-0.566523	0.553637
C66	C	1.033107	-0.595166	0.602065
C67	C	1.209601	-0.475192	0.695939
C68	C	1.251737	-0.446549	0.647517
C69	C	1.235043	-0.457893	0.567799
C70	C	1.176216	-0.497886	0.536504
C71	C	1.277184	-0.429250	0.519370
C72	C	1.260493	-0.440599	0.439653
C73	C	1.159525	-0.509235	0.456786
H74	H	0.833568	-0.552556	0.093536
H75	H	1.061663	-0.575766	0.488724
C76	C	0.600287	-0.343996	0.297842
C77	C	0.634287	-0.352753	0.368714
C78	C	0.607917	-0.292647	0.427740
H79	H	0.613418	-0.301273	0.285862
H80	H	0.546199	-0.340016	0.301797
H81	H	0.688364	-0.356725	0.364758
H82	H	0.621160	-0.395464	0.380719
H83	H	0.553828	-0.288667	0.431695
H84	H	0.621050	-0.249929	0.415752
H85	H	0.630976	-0.298584	0.475834
C86	C	0.969243	-0.638657	0.568223
C87	C	0.935927	-0.661336	0.627686
C88	C	0.877112	-0.701417	0.596535
H89	H	0.931471	-0.609267	0.545074
H90	H	0.989725	-0.679863	0.529912
H91	H	0.915444	-0.620136	0.665984
H92	H	0.973680	-0.690736	0.650840
H93	H	0.897594	-0.742623	0.558223
H94	H	0.839345	-0.672022	0.573387
H95	H	0.854505	-0.716815	0.636874
C96	C	1.006757	-0.770360	0.034288
C97	C	1.041348	-0.744565	-0.022097
C98	C	0.985313	-0.704510	-0.059477
H99	H	0.970317	-0.800490	0.010017
H100	H	0.981730	-0.730545	0.071455
H101	H	1.066362	-0.784373	-0.059258
H102	H	1.077783	-0.714424	0.002155
H103	H	0.960286	-0.664695	-0.022310
H104	H	0.948876	-0.734645	-0.083744
H105	H	1.008775	-0.686997	-0.097733
H106	H	1.262740	-1.260064	0.204411
C107	C	0.684875	-0.698349	-0.049038
C108	C	0.622653	-0.732486	-0.082410
C109	C	0.648933	-0.792736	-0.141307
H110	H	0.709966	-0.682992	-0.087841
H111	H	0.719812	-0.731429	-0.027544
H112	H	0.587729	-0.699412	-0.103905
H113	H	0.597556	-0.747859	-0.043627
H114	H	0.683871	-0.825817	-0.119813
H115	H	0.674024	-0.777373	-0.180105
H116	H	0.606721	-0.815910	-0.163952
H117	H	1.217973	-1.012684	0.174739
C118	C	0.391483	-0.688871	-0.039810
C119	C	0.431400	-0.745218	-0.094970
C120	C	0.379616	-0.788433	-0.137296
H121	H	0.365299	-0.708684	-0.005364
H122	H	0.355468	-0.660148	-0.065565
H123	H	0.467401	-0.773936	-0.069218
H124	H	0.457582	-0.725426	-0.129434
H125	H	0.343601	-0.759711	-0.163050
H126	H	0.353435	-0.808241	-0.102843
H127	H	0.406691	-0.826666	-0.174731
C128	C	1.189141	-0.489047	0.826925
C129	C	1.194730	-0.485223	0.907105
C130	C	1.253501	-0.445211	0.938571
H131	H	1.236287	-0.512075	0.802830
H132	H	1.178062	-0.441459	0.817984
H133	H	1.205813	-0.532802	0.916040
H134	H	1.147599	-0.462188	0.931220
H135	H	1.242422	-0.397623	0.929630
H136	H	1.300643	-0.468244	0.914471
H137	H	1.257297	-0.442606	0.992977
H138	H	0.737652	-0.334178	0.307242
H139	H	0.959738	-0.645006	0.704732
H140	H	1.051679	-1.247621	0.064168
C141	C	1.315554	-0.403118	0.681646
C142	C	1.321143	-0.399295	0.761827
C143	C	1.379915	-0.359282	0.793292
H144	H	1.362700	-0.426147	0.657552
H145	H	1.304475	-0.355530	0.672706
H146	H	1.332227	-0.446873	0.770761
H147	H	1.274012	-0.376260	0.785942
H148	H	1.368836	-0.311695	0.784352
H149	H	1.427056	-0.382315	0.769192
H150	H	1.383710	-0.356677	0.847699
H151	H	0.879788	-0.365106	0.276945
C152	C	1.043663	-1.104051	0.059066
C153	C	1.006866	-1.045487	0.114034
C154	C	0.950626	-1.005426	0.076882
H155	H	1.066909	-1.086427	0.020769
H156	H	1.007215	-1.134227	0.034884
H157	H	1.043307	-1.015316	0.138204
H158	H	0.983604	-1.063091	0.152334
H159	H	0.914179	-1.035603	0.052700
H160	H	0.973879	-0.987807	0.038585
H161	H	0.925649	-0.965690	0.114173
H162	H	1.066645	-1.028657	0.074162
H163	H	0.772021	-0.603694	0.043507
H164	H	1.014591	-0.913926	0.039609
C165	C	1.249314	-0.784839	0.195657
C166	C	1.297617	-0.835503	0.227772
C167	C	1.357837	-0.802504	0.267863
H168	H	1.277575	-0.767573	0.160644
H169	H	1.229135	-0.745357	0.236094
H170	H	1.317796	-0.874972	0.187340
H171	H	1.269379	-0.852772	0.262796
H172	H	1.337658	-0.763022	0.308300
H173	H	1.386092	-0.785239	0.232846
H174	H	1.390614	-0.836872	0.289664
H175	H	0.451667	-0.489657	0.155155
C176	C	1.341001	-0.385725	0.553263
C177	C	1.324500	-0.315673	0.539900
C178	C	1.383276	-0.275561	0.571101
H179	H	1.344964	-0.382986	0.607679
H180	H	1.388104	-0.408772	0.529062
H181	H	1.277410	-0.292632	0.564103
H182	H	1.320544	-0.318390	0.485491
H183	H	1.430380	-0.298607	0.546900
H184	H	1.387235	-0.272827	0.625515
H185	H	1.372092	-0.228028	0.562032
C186	C	1.286409	-1.118537	0.220215
C187	C	1.334718	-1.169199	0.252325
C188	C	1.394948	-1.136202	0.292399
H189	H	1.314662	-1.101276	0.185192
H190	H	1.266238	-1.079051	0.260653
H191	H	1.354888	-1.208672	0.211893
H192	H	1.306488	-1.186464	0.287360
H193	H	1.374777	-1.096716	0.332837
H194	H	1.423195	-1.118942	0.257370
H195	H	1.427729	-1.170569	0.314196
H196	H	1.111602	-0.541781	0.431314
H197	H	0.990045	-0.624433	0.849350
H198	H	0.513229	-0.438515	0.205187
H199	H	1.223190	-0.465955	0.760851
C200	C	1.306100	-0.409452	0.387001
C201	C	1.256555	-0.361869	0.351920
C202	C	1.298543	-0.333175	0.303401
H203	H	1.343532	-0.383957	0.416960
H204	H	1.330751	-0.447766	0.347913
H205	H	1.231917	-0.323561	0.391002
H206	H	1.219123	-0.387347	0.321947
H207	H	1.323193	-0.371489	0.264314
H208	H	1.335973	-0.307684	0.333367
H209	H	1.264932	-0.300892	0.279588
H210	H	0.547589	-0.708037	-0.058552
H211	H	1.225653	-0.926358	0.179843
