data_functionalizedCrystal
_audit_creation_method	'MofGen! by Chris Wilmer'
_symmetry_space_group_name_H-M	'P1'
_symmetry_Int_Tables_number	1
_symmetry_cell_setting	triclinic
loop_
_symmetry_equiv_pos_as_xyz
  x,y,z
_cell_length_a	12.759401
_cell_length_b	18.101395
_cell_length_c	12.759393
_cell_angle_alpha	89.966555
_cell_angle_beta	89.981504
_cell_angle_gamma	90.031265
loop_
_atom_site_label
_atom_site_type_symbol
_atom_site_fract_x
_atom_site_fract_y
_atom_site_fract_z
Zn1	Zn	1.606136	-0.294783	-0.593968
Zn2	Zn	1.605980	-0.418644	-0.418282
Zn3	Zn	1.430438	-0.294822	-0.418307
Zn4	Zn	1.430376	-0.418587	-0.593923
O5	O	1.518232	-0.356709	-0.506120
O6	O	1.753136	-0.311221	-0.570671
O7	O	1.582654	-0.402259	-0.271264
O8	O	1.453835	-0.191183	-0.441638
O9	O	1.753021	-0.402221	-0.441595
O10	O	1.582920	-0.191155	-0.570695
O11	O	1.453684	-0.311287	-0.271283
O12	O	1.283408	-0.311232	-0.441595
O13	O	1.453730	-0.402124	-0.740950
O14	O	1.283363	-0.402162	-0.570619
O15	O	1.582860	-0.311166	-0.740983
O16	O	1.582594	-0.522270	-0.441552
O17	O	1.453579	-0.522228	-0.570595
C18	C	1.245265	-0.356695	-0.506106
C19	C	1.128488	-0.356707	-0.506125
C20	C	1.073630	-0.404131	-0.573197
C21	C	0.963906	-0.404140	-0.573208
C22	C	0.963908	-0.309301	-0.439066
C23	C	1.073630	-0.309288	-0.439061
C24	C	1.128488	-0.451550	-0.640260
C25	C	1.073630	-0.498977	-0.707337
C26	C	0.963906	-0.498987	-0.707348
C27	C	0.909040	-0.451568	-0.640283
C28	C	1.518092	-0.549120	-0.506089
C29	C	1.518128	-0.631434	-0.506111
C30	C	1.518358	-0.930525	-0.506168
C31	C	1.437374	-0.899204	-0.587559
C32	C	1.436989	-0.813586	-0.587305
C33	C	1.518244	-0.782142	-0.506140
C34	C	1.488263	-0.813302	-0.395415
C35	C	1.487741	-0.898947	-0.395903
C36	C	1.629501	-0.898866	-0.534526
C37	C	1.628847	-0.813215	-0.536954
C38	C	1.518181	-0.698283	-0.506118
C39	C	1.518418	-1.014384	-0.506182
C40	C	1.792265	-0.356723	-0.506135
C41	C	1.909042	-0.356729	-0.506141
C42	C	1.518306	-0.356634	-0.780153
C43	C	1.518337	-0.356602	-0.896930
C44	C	1.518402	-0.163547	-0.506174
C45	C	1.518474	-0.081233	-0.506197
C46	C	1.585584	-0.309236	-0.951811
C47	C	1.585609	-0.309209	-1.061535
C48	C	1.451137	-0.403922	-1.061488
C49	C	1.451108	-0.403944	-0.951766
C50	C	1.652814	-0.261894	-0.896975
C51	C	1.720068	-0.214524	-0.951856
C52	C	1.720092	-0.214497	-1.061580
C53	C	1.652864	-0.261840	-1.116423
C54	C	1.518219	-0.356730	-0.233153
C55	C	1.518392	-0.356553	-0.116376
H56	H	0.919227	-0.270696	-0.384464
H57	H	1.652803	-0.261912	-0.807632
H58	H	1.118297	-0.270667	-0.384453
H59	H	1.656833	-0.920408	-0.613890
O60	O	1.378635	-0.454983	-1.120642
H61	H	1.331860	-0.487920	-1.064045
O62	O	1.562482	-0.926392	-0.312832
H63	H	1.624535	-0.960384	-0.350077
O64	O	1.461810	-0.785694	-0.696074
H65	H	1.533972	-0.751473	-0.693509
O66	O	1.652876	-0.261812	-1.234770
H67	H	1.732108	-0.276782	-1.263709
O68	O	1.658801	-0.786224	-0.644888
H69	H	1.670747	-0.834316	-0.697473
O70	O	1.132811	-0.550106	-0.779678
H71	H	1.111713	-0.608218	-0.761531
O72	O	0.904731	-0.550214	-0.779578
H73	H	0.961315	-0.583216	-0.826160
H74	H	1.355493	-0.920792	-0.569012
H75	H	1.692377	-0.791806	-0.481993
H76	H	1.396333	-0.442503	-0.907081
O77	O	1.461584	-0.926768	-0.696573
H78	H	1.531645	-0.963040	-0.693927
H79	H	0.819695	-0.451573	-0.640307
O80	O	1.327875	-0.786524	-0.562397
H81	H	1.275179	-0.834610	-0.550478
H82	H	1.406496	-0.918992	-0.371879
O83	O	1.246833	-0.451541	-0.640249
H84	H	1.275714	-0.466441	-0.560963
H85	H	1.545393	-0.792936	-0.333119
O86	O	1.381782	-0.784989	-0.363014
H87	H	1.350043	-0.748734	-0.425587
H88	H	1.689837	-0.919120	-0.475245
H89	H	1.774796	-0.175974	-0.907195
O90	O	1.792624	-0.163409	-1.120779
H91	H	1.839371	-0.130500	-1.064211
