data_functionalizedCrystal
_audit_creation_method	'MofGen! by Chris Wilmer'
_symmetry_space_group_name_H-M	'P1'
_symmetry_Int_Tables_number	1
_symmetry_cell_setting	triclinic
loop_
_symmetry_equiv_pos_as_xyz
  x,y,z
_cell_length_a	16.959455
_cell_length_b	18.050590
_cell_length_c	16.959447
_cell_angle_alpha	90.031775
_cell_angle_beta	90.014701
_cell_angle_gamma	90.017980
loop_
_atom_site_label
_atom_site_type_symbol
_atom_site_fract_x
_atom_site_fract_y
_atom_site_fract_z
Zn1	Zn	1.208392	-0.295656	0.446909
Zn2	Zn	1.208318	-0.419858	0.314727
Zn3	Zn	1.076221	-0.295685	0.314745
Zn4	Zn	1.076189	-0.419808	0.446865
O5	O	1.142280	-0.357752	0.380811
O6	O	1.318993	-0.312141	0.429385
O7	O	1.190777	-0.403419	0.204118
O8	O	1.093798	-0.191756	0.332303
O9	O	1.318939	-0.403391	0.332272
O10	O	1.190904	-0.191735	0.429403
O11	O	1.093726	-0.312190	0.204132
O12	O	0.965605	-0.312141	0.332260
O13	O	1.093743	-0.403306	0.557481
O14	O	0.965582	-0.403333	0.429328
O15	O	1.190873	-0.312092	0.557514
O16	O	1.190747	-0.523776	0.332229
O17	O	1.093672	-0.523739	0.429310
C18	C	0.936914	-0.357735	0.380792
C19	C	0.849057	-0.357746	0.380802
C20	C	0.807753	-0.405189	0.330168
C21	C	0.807808	-0.310310	0.431443
C22	C	0.725262	-0.310316	0.431452
C23	C	0.683958	-0.357758	0.380818
C24	C	0.725199	-0.405194	0.330174
C25	C	0.684014	-0.262875	0.482090
C26	C	0.601463	-0.262878	0.482101
C27	C	0.560157	-0.310325	0.431469
C28	C	0.601404	-0.357764	0.380824
C29	C	0.560100	-0.405206	0.330190
C30	C	0.601345	-0.452649	0.279548
C31	C	0.683894	-0.452641	0.279543
C32	C	0.477609	-0.310333	0.431474
C33	C	0.477546	-0.405212	0.330196
C34	C	1.142219	-0.550704	0.380780
C35	C	1.142265	-0.633249	0.380793
C36	C	1.195165	-0.832693	0.328074
C37	C	1.214468	-0.882022	0.400215
C38	C	1.142310	-0.784380	0.380824
C39	C	1.123088	-0.882133	0.308716
C40	C	1.142355	-0.930365	0.380848
C41	C	1.161650	-0.832621	0.453003
C42	C	1.070237	-0.832728	0.361456
C43	C	1.089513	-0.882034	0.433646
C44	C	1.142287	-0.700282	0.380809
C45	C	1.142379	-1.014461	0.380871
C46	C	1.348448	-0.357768	0.380831
C47	C	1.436305	-0.357775	0.380840
C48	C	1.142313	-0.357690	0.586980
C49	C	1.142327	-0.357664	0.674836
C50	C	1.142362	-0.164046	0.380860
C51	C	1.142398	-0.081500	0.380881
C52	C	1.142293	-0.357759	0.175445
C53	C	1.142432	-0.357576	0.087589
C54	C	1.091850	-0.405076	1.046298
C55	C	1.192992	-0.310095	1.046327
C56	C	1.192971	-0.310111	0.963781
C57	C	1.142390	-0.357611	0.922489
C58	C	1.091830	-0.405095	0.963744
C59	C	1.243536	-0.262633	0.922520
C60	C	1.243518	-0.262647	0.839969
C61	C	1.192932	-0.310144	0.798676
C62	C	1.142369	-0.357629	0.839936
C63	C	1.091788	-0.405129	0.798645
C64	C	1.041220	-0.452612	0.839903
C65	C	1.041244	-0.452592	0.922451
C66	C	1.192908	-0.310164	0.716128
C67	C	1.091767	-0.405148	0.716091
H68	H	0.841338	-0.443818	0.288939
N69	N	1.033455	-0.909052	0.489670
N70	N	0.977291	-0.948691	0.467285
H71	H	0.937700	-0.967772	0.506852
N72	N	0.435345	-0.453673	0.278482
N73	N	0.389274	-0.501027	0.306210
H74	H	0.359468	-0.535253	0.269688
H75	H	1.234177	-0.271427	1.079951
H76	H	0.444031	-0.271700	0.472700
N77	N	0.993772	-0.805547	0.340852
N78	N	0.964386	-0.821404	0.275381
H79	H	0.910382	-0.802207	0.260822
H80	H	1.275438	-0.903677	0.416612
N81	N	0.850008	-0.261850	0.483150
N82	N	0.923711	-0.261848	0.483132
H83	H	0.953519	-0.227622	0.519653
N84	N	1.102675	-0.909411	0.232201
N85	N	1.144656	-0.893606	0.174021
H86	H	1.130246	-0.912869	0.119980
N87	N	1.251259	-0.805519	0.272171
N88	N	1.322638	-0.821323	0.279504
H89	H	1.362257	-0.802131	0.240026
N90	N	0.559163	-0.501107	0.227815
N91	N	0.568361	-0.496102	0.154887
H92	H	0.538568	-0.530324	0.118350
N93	N	1.040095	-0.453659	0.673904
N94	N	0.989730	-0.427533	0.627847
H95	H	0.953236	-0.461792	0.598051
H96	H	1.284721	-0.223965	0.956145
N97	N	0.726037	-0.501096	0.227825
N98	N	0.799740	-0.501081	0.227827
H99	H	0.829508	-0.535301	0.191301
H100	H	1.000040	-0.491290	0.806273
N101	N	0.726215	-0.214416	0.533797
N102	N	0.799919	-0.214422	0.533784
H103	H	0.829729	-0.180197	0.570304
N104	N	1.182160	-0.805450	0.529534
N105	N	1.185478	-0.737241	0.541867
H106	H	1.199966	-0.718049	0.595915
H107	H	1.000077	-0.491252	0.956051
H108	H	0.567888	-0.224248	0.523337
N109	N	1.040199	-0.453567	1.088448
N110	N	1.040216	-0.453542	1.162152
H111	H	1.003737	-0.487788	1.191923
N112	N	1.295175	-0.214145	0.797841
N113	N	1.340334	-0.171741	0.834718
H114	H	1.376817	-0.137484	0.804965
N115	N	1.244564	-0.261668	0.673996
N116	N	1.289727	-0.219266	0.710872
H117	H	1.326212	-0.185012	0.681118
