data_functionalizedCrystal
_audit_creation_method	'MofGen! by Chris Wilmer'
_symmetry_space_group_name_H-M	'P1'
_symmetry_Int_Tables_number	1
_symmetry_cell_setting	triclinic
loop_
_symmetry_equiv_pos_as_xyz
  x,y,z
_cell_length_a	16.120530
_cell_length_b	18.101395
_cell_length_c	18.101389
_cell_angle_alpha	89.983159
_cell_angle_beta	87.084523
_cell_angle_gamma	87.126665
loop_
_atom_site_label
_atom_site_type_symbol
_atom_site_fract_x
_atom_site_fract_y
_atom_site_fract_z
Zn1	Zn	1.274487	-0.352401	-0.476079
Zn2	Zn	1.607821	-0.019068	-0.142746
Zn3	Zn	1.941154	0.314265	0.190587
Zn4	Zn	1.274370	-0.476222	-0.352236
Zn5	Zn	1.607703	-0.142888	-0.018903
Zn6	Zn	1.941037	0.190445	0.314431
Zn7	Zn	1.135073	-0.346115	-0.345980
Zn8	Zn	1.468406	-0.012781	-0.012647
Zn9	Zn	1.801740	0.320552	0.320687
Zn10	Zn	1.135017	-0.469914	-0.469767
Zn11	Zn	1.468351	-0.136581	-0.136433
Zn12	Zn	1.801684	0.196753	0.196900
O13	O	1.204737	-0.411163	-0.411016
O14	O	1.538070	-0.077830	-0.077682
O15	O	1.871404	0.255504	0.255651
O16	O	1.391137	-0.374097	-0.464911
O17	O	1.724470	-0.040764	-0.131578
O18	O	2.057803	0.292569	0.201755
O19	O	1.255866	-0.458972	-0.247772
O20	O	1.589199	-0.125638	0.085561
O21	O	1.922533	0.207695	0.418895
O22	O	1.153639	-0.243319	-0.363262
O23	O	1.486972	0.090014	-0.029928
O24	O	1.820305	0.423348	0.303405
O25	O	1.391050	-0.465068	-0.373924
O26	O	1.724384	-0.131734	-0.040591
O27	O	2.057717	0.201599	0.292743
O28	O	1.256066	-0.247938	-0.458845
O29	O	1.589399	0.085396	-0.125512
O30	O	1.922733	0.418729	0.207822
O31	O	1.153525	-0.363383	-0.243176
O32	O	1.486858	-0.030049	0.090158
O33	O	1.820192	0.303284	0.423491
O34	O	1.018401	-0.357266	-0.357141
O35	O	1.351734	-0.023933	-0.023807
O36	O	1.685067	0.309401	0.309526
O37	O	1.153544	-0.454317	-0.574238
O38	O	1.486878	-0.120983	-0.240905
O39	O	1.820211	0.212350	0.092428
O40	O	1.018360	-0.448221	-0.448086
O41	O	1.351693	-0.114887	-0.114753
O42	O	1.685027	0.218446	0.218581
O43	O	1.256012	-0.367981	-0.578876
O44	O	1.589345	-0.034647	-0.245543
O45	O	1.922679	0.298686	0.087791
O46	O	1.255812	-0.579015	-0.367803
O47	O	1.589146	-0.245681	-0.034470
O48	O	1.922479	0.087652	0.298864
O49	O	1.153431	-0.574380	-0.454152
O50	O	1.486764	-0.241047	-0.120819
O51	O	1.820097	0.092286	0.212514
C52	C	0.988130	-0.401377	-0.401250
C53	C	1.321464	-0.068044	-0.067917
C54	C	1.654797	0.265289	0.265417
C55	C	0.895465	-0.397209	-0.397090
C56	C	1.228798	-0.063875	-0.063756
C57	C	1.562132	0.269458	0.269577
C58	C	0.725805	-0.389581	-0.389501
C59	C	1.059138	-0.056248	-0.056167
C60	C	1.392471	0.277086	0.277166
C61	C	0.684509	-0.432799	-0.432585
C62	C	1.017843	-0.099466	-0.099251
C63	C	1.351176	0.233867	0.234082
C64	C	0.590105	-0.428555	-0.428362
C65	C	0.923438	-0.095222	-0.095029
C66	C	1.256771	0.238111	0.238305
C67	C	0.820218	-0.393824	-0.393722
C68	C	1.153551	-0.060491	-0.060389
C69	C	1.486885	0.272843	0.272944
C70	C	1.204625	-0.603568	-0.410989
C71	C	1.537959	-0.270235	-0.077655
C72	C	1.871292	0.063098	0.255678
C73	C	1.204654	-0.685884	-0.411005
C74	C	1.537987	-0.352551	-0.077672
C75	C	1.871321	-0.019217	0.255661
C76	C	1.204837	-0.984983	-0.411054
C77	C	1.538170	-0.651650	-0.077720
C78	C	1.871503	-0.318316	0.255613
C79	C	1.140570	-0.950780	-0.465531
C80	C	1.473904	-0.617446	-0.132198
C81	C	1.807237	-0.284113	0.201136
C82	C	1.140265	-0.865148	-0.465338
C83	C	1.473598	-0.531815	-0.132005
C84	C	1.806932	-0.198481	0.201329
C85	C	1.204746	-0.836596	-0.411030
C86	C	1.538079	-0.503263	-0.077697
C87	C	1.871413	-0.169930	0.255636
C88	C	1.180960	-0.866660	-0.331911
C89	C	1.514293	-0.533327	0.001423
C90	C	1.847626	-0.199994	0.334756
C91	C	1.180546	-0.952287	-0.332235
C92	C	1.513879	-0.618954	0.001098
C93	C	1.847212	-0.285620	0.334431
C94	C	1.293030	-0.957309	-0.435015
C95	C	1.626363	-0.623976	-0.101682
C96	C	1.959697	-0.290642	0.231652
C97	C	1.292512	-0.871635	-0.436703
C98	C	1.625845	-0.538301	-0.103370
C99	C	1.959178	-0.204968	0.229963
C100	C	1.204696	-0.752735	-0.411013
C101	C	1.538029	-0.419401	-0.077679
C102	C	1.871363	-0.086068	0.255654
C103	C	1.204885	-1.068845	-0.411066
C104	C	1.538218	-0.735511	-0.077733
C105	C	1.871551	-0.402178	0.255601
C106	C	1.422189	-0.420987	-0.420820
C107	C	1.755523	-0.087654	-0.087486
C108	C	2.088856	0.245679	0.245847
C109	C	1.514854	-0.425174	-0.424998
C110	C	1.848188	-0.091841	-0.091664
C111	C	2.181521	0.241493	0.241669
C112	C	1.204785	-0.411146	-0.604180
C113	C	1.538118	-0.077813	-0.270846
C114	C	1.871452	0.255520	0.062487
C115	C	1.204806	-0.411139	-0.686495
C116	C	1.538139	-0.077806	-0.353161
C117	C	1.871472	0.255527	-0.019828
C118	C	1.204872	-0.218007	-0.411060
C119	C	1.538205	0.115326	-0.077726
C120	C	1.871538	0.448660	0.255607
C121	C	1.204929	-0.135696	-0.411078
C122	C	1.538262	0.197638	-0.077745
C123	C	1.871596	0.530971	0.255588
C124	C	1.204854	-0.411003	-0.985588
C125	C	1.538187	-0.077669	-0.652255
C126	C	1.871521	0.255664	-0.318921
C127	C	1.140162	-0.465131	-0.951335
C128	C	1.473496	-0.131798	-0.618002
C129	C	1.806829	0.201536	-0.284668
C130	C	1.140337	-0.465403	-0.865724
C131	C	1.473670	-0.132070	-0.532391
C132	C	1.807004	0.201263	-0.199058
C133	C	1.204829	-0.411070	-0.837204
C134	C	1.538163	-0.077737	-0.503871
C135	C	1.871496	0.255596	-0.170538
C136	C	1.292667	-0.436217	-0.872255
C137	C	1.626000	-0.102884	-0.538922
C138	C	1.959333	0.230450	-0.205588
C139	C	1.292306	-0.436575	-0.957884
C140	C	1.625639	-0.103242	-0.624551
C141	C	1.958973	0.230091	-0.291217
C142	C	1.182473	-0.331635	-0.953005
C143	C	1.515806	0.001698	-0.619672
C144	C	1.849139	0.335031	-0.286338
C145	C	1.180518	-0.332000	-0.867266
C146	C	1.513852	0.001333	-0.533933
C147	C	1.847185	0.334667	-0.200600
C148	C	1.204821	-0.411108	-0.753344
C149	C	1.538154	-0.077774	-0.420011
C150	C	1.871487	0.255559	-0.086678
C151	C	1.204869	-0.410968	-1.069448
C152	C	1.538202	-0.077634	-0.736115
C153	C	1.871535	0.255699	-0.402782
C154	C	1.204737	-0.411128	-0.218605
C155	C	1.538070	-0.077795	0.114728
C156	C	1.871404	0.255539	0.448062
C157	C	1.204878	-0.410934	-0.136298
C158	C	1.538211	-0.077601	0.197036
C159	C	1.871545	0.255733	0.530369
H160	H	0.720056	-0.472987	-0.472642
H161	H	1.053389	-0.139653	-0.139309
H162	H	1.386723	0.193680	0.194024
H163	H	0.690261	-0.349397	-0.349447
H164	H	1.023594	-0.016063	-0.016113
H165	H	1.356927	0.317270	0.317220
F166	F	1.317105	-0.512563	-0.985122
F167	F	1.650438	-0.179230	-0.651788
F168	F	1.983771	0.154104	-0.318455
F169	F	1.159714	-0.838504	-0.541857
F170	F	1.493048	-0.505171	-0.208524
F171	F	1.826381	-0.171838	0.124809
H172	H	1.340911	-0.979711	-0.395385
H173	H	1.674244	-0.646378	-0.062052
H174	H	2.007578	-0.313044	0.271281
H175	H	1.155304	-0.972003	-0.524254
H176	H	1.488638	-0.638669	-0.190921
H177	H	1.821971	-0.305336	0.142412
F178	F	1.357362	-0.386534	-0.848568
F179	F	1.690696	-0.053200	-0.515234
F180	F	2.024029	0.280133	-0.181901
H181	H	1.075597	-0.969433	-0.449531
H182	H	1.408930	-0.636099	-0.116198
H183	H	1.742263	-0.302766	0.217136
H184	H	1.074894	-0.841773	-0.449153
H185	H	1.408227	-0.508440	-0.115820
H186	H	1.741561	-0.175107	0.217514
H187	H	1.314716	-0.979845	-0.491934
H188	H	1.648050	-0.646512	-0.158601
H189	H	1.981383	-0.313179	0.174732
H190	H	1.116077	-0.969419	-0.312398
H191	H	1.449410	-0.636085	0.020935
H192	H	1.782743	-0.302752	0.354268
H193	H	1.342140	-0.399077	-0.980861
H194	H	1.675474	-0.065743	-0.647528
H195	H	2.008807	0.267590	-0.314194
F196	F	1.239066	-0.981998	-0.277090
F197	F	1.572400	-0.648665	0.056244
F198	F	1.905733	-0.315331	0.389577
F199	F	1.240216	-0.842700	-0.277181
F200	F	1.573549	-0.509366	0.056152
F201	F	1.906883	-0.176033	0.389485
F202	F	1.096024	-0.307309	-0.836905
F203	F	1.429357	0.026024	-0.503571
F204	F	1.762691	0.359357	-0.170238
F205	F	1.244060	-0.278860	-0.982270
F206	F	1.577393	0.054474	-0.648937
F207	F	1.910726	0.387807	-0.315603
H208	H	1.117174	-0.842395	-0.311801
H209	H	1.450507	-0.509062	0.021532
H210	H	1.783840	-0.175728	0.354866
F211	F	1.315959	-0.846091	-0.512837
F212	F	1.649293	-0.512758	-0.179504
F213	F	1.982626	-0.179425	0.153830
F214	F	1.358411	-0.846606	-0.389038
F215	F	1.691744	-0.513273	-0.055705
F216	F	2.025078	-0.179940	0.277628
H217	H	1.075202	-0.449209	-0.841766
H218	H	1.408535	-0.115875	-0.508433
H219	H	1.741869	0.217458	-0.175100
H220	H	1.311968	-0.493759	-0.851681
H221	H	1.645302	-0.160426	-0.518348
H222	H	1.978635	0.172907	-0.185015
H223	H	1.119535	-0.309496	-0.971764
H224	H	1.452868	0.023837	-0.638431
H225	H	1.786202	0.357171	-0.305098
H226	H	1.074831	-0.449063	-0.968987
H227	H	1.408165	-0.115730	-0.635653
H228	H	1.741498	0.217603	-0.302320
F229	F	1.159244	-0.541437	-0.980372
F230	F	1.492578	-0.208103	-0.647039
F231	F	1.825911	0.125230	-0.313705
F232	F	1.159690	-0.542185	-0.839820
F233	F	1.493023	-0.208852	-0.506487
F234	F	1.826357	0.124482	-0.173153
F235	F	1.237618	-0.276072	-0.841887
F236	F	1.570951	0.057262	-0.508554
F237	F	1.904285	0.390595	-0.175221
