data_functionalizedCrystal
_audit_creation_method	'MofGen! by Chris Wilmer'
_symmetry_space_group_name_H-M	'P1'
_symmetry_Int_Tables_number	1
_symmetry_cell_setting	triclinic
loop_
_symmetry_equiv_pos_as_xyz
  x,y,z
_cell_length_a	16.992694
_cell_length_b	13.596369
_cell_length_c	16.974813
_cell_angle_alpha	93.660550
_cell_angle_beta	87.024634
_cell_angle_gamma	89.999564
loop_
_atom_site_label
_atom_site_type_symbol
_atom_site_fract_x
_atom_site_fract_y
_atom_site_fract_z
O1	O	1.040212	0.095010	0.167651
O2	O	1.540212	0.595010	0.667651
O3	O	0.811928	0.094893	0.165812
O4	O	1.311928	0.594893	0.665812
O5	O	0.932434	0.085816	0.052030
O6	O	1.432434	0.585816	0.552030
O7	O	0.919706	0.104086	0.281433
O8	O	1.419706	0.604086	0.781433
O9	O	0.932422	-0.077767	0.052023
O10	O	1.432422	0.422233	0.552023
O11	O	0.811916	-0.068691	0.165805
O12	O	1.311916	0.431309	0.665805
O13	O	1.040200	-0.068573	0.167644
O14	O	1.540200	0.431427	0.667644
Zn15	Zn	0.926056	-0.094605	0.166723
Zn16	Zn	1.426056	0.405395	0.666723
Zn17	Zn	0.926072	0.120924	0.166732
Zn18	Zn	1.426072	0.620924	0.666732
O19	O	0.919694	-0.059497	0.281426
O20	O	1.419694	0.440503	0.781426
C21	C	0.782712	0.012916	0.163442
C22	C	1.282712	0.512916	0.663442
C23	C	0.695676	0.012365	0.156382
C24	C	1.195676	0.512365	0.656382
N25	N	0.926051	-0.241697	0.166716
N26	N	1.426051	0.258303	0.666716
C27	C	0.645362	0.017789	0.224498
C28	C	1.145362	0.517789	0.724498
C29	C	0.563583	0.017247	0.217860
C30	C	1.063583	0.517247	0.717860
C31	C	0.532118	0.011288	0.143106
C32	C	1.032118	0.511288	0.643106
C33	C	0.582439	0.005860	0.074985
C34	C	1.082439	0.505860	0.574985
C35	C	0.664217	0.006396	0.081624
C36	C	1.164217	0.506396	0.581624
C37	C	0.288550	0.009070	0.115591
C38	C	0.788550	0.509070	0.615591
C39	C	0.206766	0.008538	0.108957
C40	C	0.706766	0.508538	0.608957
C41	C	0.187916	0.019923	0.251833
C42	C	0.687916	0.519923	0.751833
C43	C	0.269696	0.020464	0.258466
C44	C	0.769696	0.520464	0.758466
C45	C	0.320009	0.015031	0.190345
C46	C	0.820009	0.515031	0.690345
N47	N	0.448527	0.010737	0.136319
N48	N	0.948527	0.510737	0.636319
N49	N	0.403599	0.015576	0.197132
N50	N	0.903599	0.515576	0.697132
C51	C	0.926071	-0.642987	0.166733
C52	C	1.426071	-0.142987	0.666733
C53	C	0.926063	-0.531335	0.166731
C54	C	1.426063	-0.031335	0.666731
C55	C	0.926061	-0.442345	0.166725
C56	C	1.426061	0.057655	0.666725
C57	C	0.926053	-0.330687	0.166722
C58	C	1.426053	0.169313	0.666722
C59	C	1.069416	0.013405	0.170013
C60	C	1.569416	0.513405	0.670013
C61	C	1.156452	0.013962	0.177073
C62	C	1.656452	0.513962	0.677073
C63	C	0.931944	0.001678	0.022537
C64	C	1.431944	0.501678	0.522537
C65	C	0.930491	-0.005313	-0.065332
C66	C	1.430491	0.494687	0.434668
N67	N	0.926083	0.268016	0.166733
N68	N	1.426083	0.768016	0.666733
C69	C	0.929817	0.080571	-0.106604
C70	C	1.429817	0.580571	0.393396
C71	C	0.928448	0.074000	-0.189166
C72	C	1.428448	0.574000	0.310834
C73	C	0.927758	-0.018458	-0.230454
C74	C	1.427758	0.481542	0.269546
C75	C	0.928429	-0.104348	-0.189176
C76	C	1.428429	0.395652	0.310824
C77	C	0.929793	-0.097775	-0.106615
C78	C	1.429793	0.402225	0.393385
C79	C	0.923672	-0.047677	-0.477374
C80	C	1.423672	0.452323	0.022626
C81	C	0.922311	-0.054244	-0.559940
C82	C	1.422311	0.445756	-0.059940
C83	C	0.922328	0.124105	-0.559925
C84	C	1.422328	0.624105	-0.059925
C85	C	0.923696	0.130670	-0.477363
C86	C	1.423696	0.630670	0.022637
C87	C	0.924364	0.044779	-0.436092
C88	C	1.424364	0.544779	0.063908
N89	N	0.926360	-0.025177	-0.314845
N90	N	1.426360	0.474823	0.185155
N91	N	0.925756	0.051500	-0.351701
N92	N	1.425756	0.551500	0.148299
C93	C	0.920184	0.024643	0.310918
C94	C	1.420184	0.524643	0.810918
C95	C	0.921637	0.031641	0.398787
C96	C	1.421637	0.531641	0.898787
H97	H	0.670973	0.022643	0.285371
H98	H	1.170973	0.522643	0.785371
N99	N	0.921573	-0.153968	-0.604479
N100	N	1.421573	0.346032	-0.104479
H101	H	0.873227	-0.191543	-0.586788
H102	H	1.373227	0.308457	-0.086788
H103	H	0.920645	-0.145002	-0.663030
H104	H	1.420645	0.354998	-0.163030
H105	H	0.930383	0.155860	-0.072993
H106	H	1.430383	0.655860	0.427007
N107	N	0.921608	0.216737	-0.604441
N108	N	1.421608	0.716737	-0.104441
H109	H	0.922256	0.276305	-0.565757
H110	H	1.422256	0.776305	-0.065757
H111	H	0.969628	0.217615	-0.642030
H112	H	1.469628	0.717615	-0.142030
N113	N	0.927693	-0.204070	-0.233707
N114	N	1.427693	0.295930	0.266293
H115	H	0.928326	-0.257480	-0.195030
H116	H	1.428326	0.242520	0.304970
H117	H	0.878548	-0.210412	-0.264625
H118	H	1.378548	0.289588	0.235375
H119	H	0.924232	-0.117616	-0.443782
H120	H	1.424232	0.382384	0.056218
H121	H	0.522620	0.021665	0.273328
H122	H	1.022620	0.521665	0.773328
H123	H	0.146942	0.024344	0.307293
H124	H	0.646942	0.524344	0.807293
H125	H	0.927902	0.143936	-0.222766
H126	H	1.427902	0.643936	0.277234
H127	H	0.329506	0.004646	0.060122
H128	H	0.829506	0.504646	0.560122
N129	N	0.303631	0.026910	0.339093
N130	N	0.803631	0.526910	0.839093
H131	H	0.259347	0.030269	0.381239
H132	H	0.759347	0.530269	0.881239
H133	H	0.337159	-0.033255	0.344967
H134	H	0.837159	0.466745	0.844967
N135	N	0.172827	0.002116	0.028326
N136	N	0.672827	0.502116	0.528326
H137	H	0.217109	-0.001245	-0.013822
H138	H	0.717109	0.498755	0.486178
H139	H	0.139306	-0.058992	0.022461
H140	H	0.639306	0.441008	0.522461
N141	N	0.548507	-0.000583	-0.005645
N142	N	1.048507	0.499417	0.494355
H143	H	0.489066	-0.000099	0.000484
H144	H	0.989066	0.499901	0.500484
H145	H	0.566915	0.057664	-0.035683
H146	H	1.066915	0.557664	0.464317
H147	H	0.705182	0.001979	0.026156
H148	H	1.205182	0.501979	0.526156
N149	N	0.930532	-0.190409	-0.062099
N150	N	1.430532	0.309591	0.437901
H151	H	0.931500	-0.172217	-0.003533
H152	H	1.431500	0.327783	0.496467
H153	H	0.881711	-0.230228	-0.073193
H154	H	1.381711	0.269772	0.426807
N155	N	0.924443	0.230391	-0.432832
N156	N	1.424443	0.730391	0.067168
H157	H	0.923808	0.283803	-0.471507
H158	H	1.423808	0.783803	0.028493
H159	H	0.876429	0.237275	-0.395237
H160	H	1.376429	0.737275	0.104763
