data_functionalizedCrystal
_audit_creation_method	'MofGen! by Chris Wilmer'
_symmetry_space_group_name_H-M	'P1'
_symmetry_Int_Tables_number	1
_symmetry_cell_setting	triclinic
loop_
_symmetry_equiv_pos_as_xyz
  x,y,z
_cell_length_a	12.759401
_cell_length_b	12.827892
_cell_length_c	12.759393
_cell_angle_alpha	89.970218
_cell_angle_beta	89.980404
_cell_angle_gamma	90.015669
loop_
_atom_site_label
_atom_site_type_symbol
_atom_site_fract_x
_atom_site_fract_y
_atom_site_fract_z
Zn1	Zn	1.606261	-0.415975	-0.593988
Zn2	Zn	1.606150	-0.590752	-0.418310
Zn3	Zn	1.430560	-0.416027	-0.418327
Zn4	Zn	1.430550	-0.590675	-0.593951
O5	O	1.518380	-0.503357	-0.506144
O6	O	1.753268	-0.439170	-0.570692
O7	O	1.582816	-0.567628	-0.271291
O8	O	1.453918	-0.269784	-0.441651
O9	O	1.753186	-0.567578	-0.441622
O10	O	1.583005	-0.269746	-0.570708
O11	O	1.453810	-0.439258	-0.271304
O12	O	1.283538	-0.439184	-0.441616
O13	O	1.453900	-0.567447	-0.740977
O14	O	1.283530	-0.567497	-0.570646
O15	O	1.582995	-0.439095	-0.741004
O16	O	1.582806	-0.736978	-0.441587
O17	O	1.453793	-0.736922	-0.570630
C18	C	1.245413	-0.503338	-0.506130
C19	C	1.128636	-0.503356	-0.506148
C20	C	0.964067	-0.570286	-0.573236
C21	C	1.073791	-0.570274	-0.573225
C22	C	1.073752	-0.436452	-0.439071
C23	C	0.964030	-0.436469	-0.439077
C24	C	1.518315	-0.774867	-0.506125
C25	C	1.518383	-0.891020	-0.506153
C26	C	1.582298	-0.942798	-0.442369
C27	C	1.582370	-1.062849	-0.442396
C28	C	1.792414	-0.503377	-0.506159
C29	C	1.909190	-0.503385	-0.506166
C30	C	1.518459	-0.503257	-0.780177
C31	C	1.518492	-0.503214	-0.896954
C32	C	1.518475	-0.230787	-0.506186
C33	C	1.518515	-0.114634	-0.506203
C34	C	1.585717	-0.436371	-0.951832
C35	C	1.585735	-0.436326	-1.061556
C36	C	1.451301	-0.569976	-1.061515
C37	C	1.451278	-0.570015	-0.951793
C38	C	1.518362	-0.503382	-0.233177
C39	C	1.518533	-0.503130	-0.116400
H40	H	1.118467	-0.624753	-0.627839
H41	H	1.118416	-0.381970	-0.384451
H42	H	1.463720	-0.935568	-0.560784
H43	H	1.640444	-0.381974	-0.907185
H44	H	0.919348	-0.381989	-0.384455
H45	H	1.396529	-0.624447	-0.907111
H46	H	1.396580	-0.624366	-1.106178
H47	H	1.640474	-0.381893	-1.106232
H48	H	1.636970	-0.898253	-0.387745
H49	H	1.637087	-1.107376	-0.387785
H50	H	1.463788	-1.070114	-0.560810
H51	H	0.919420	-0.624774	-0.627863
