data_functionalizedCrystal
_audit_creation_method	'MofGen! by Chris Wilmer'
_symmetry_space_group_name_H-M	'P1'
_symmetry_Int_Tables_number	1
_symmetry_cell_setting	triclinic
loop_
_symmetry_equiv_pos_as_xyz
  x,y,z
_cell_length_a	29.999520
_cell_length_b	29.998686
_cell_length_c	29.995014
_cell_angle_alpha	60.005185
_cell_angle_beta	60.010401
_cell_angle_gamma	59.993433
loop_
_atom_site_label
_atom_site_type_symbol
_atom_site_fract_x
_atom_site_fract_y
_atom_site_fract_z
O1	O	0.061772	-0.651300	0.544623
O2	O	0.561772	-0.151300	1.044623
O3	O	0.023267	-0.507084	0.438819
O4	O	0.523267	-0.007084	0.938819
O5	O	0.114589	-0.598332	0.438743
O6	O	0.614589	-0.098332	0.938743
O7	O	-0.029550	-0.560051	0.544699
O8	O	0.470450	-0.060051	1.044699
O9	O	0.144886	-0.568039	0.468961
O10	O	0.644886	-0.068039	0.968961
O11	O	0.053564	-0.476791	0.469038
O12	O	0.553564	0.023209	0.969038
O13	O	0.092069	-0.621007	0.574841
O14	O	0.592069	-0.121007	1.074841
Zn15	Zn	0.077627	-0.544089	0.526737
Zn16	Zn	0.577627	-0.044089	1.026737
Zn17	Zn	0.037709	-0.584002	0.486923
Zn18	Zn	0.537709	-0.084002	0.986923
O19	O	0.000748	-0.529758	0.574918
O20	O	0.500748	-0.029758	1.074918
N21	N	0.104871	-0.516854	0.553912
N22	N	0.604871	-0.016854	1.053912
N23	N	0.010470	-0.611242	0.459748
N24	N	0.510470	-0.111242	0.959748
C25	C	0.143162	-0.478782	0.827124
C26	C	0.643162	0.021218	1.327124
C27	C	0.378203	-0.478734	0.591892
C28	C	0.878203	0.021266	1.091892
C29	C	0.143005	-0.478752	0.591997
C30	C	0.643005	0.021248	1.091997
C31	C	0.142986	-0.243586	0.592008
C32	C	0.642986	0.256414	1.092008
C33	C	0.180857	-0.357087	0.629814
C34	C	0.680857	0.142913	1.129814
C35	C	0.180866	-0.440920	0.629807
C36	C	0.680866	0.059080	1.129807
C37	C	0.201840	-0.419964	0.650755
C38	C	0.701840	0.080036	1.150755
C39	C	0.293272	-0.404201	0.602606
C40	C	0.793272	0.095799	1.102606
C41	C	0.350426	-0.423248	0.583534
C42	C	0.850426	0.076752	1.083534
C43	C	0.350451	-0.515727	0.618798
C44	C	0.850451	-0.015727	1.118798
C45	C	0.293297	-0.496678	0.637872
C46	C	0.793297	0.003322	1.137872
C47	C	0.194628	-0.328499	0.573626
C48	C	0.694628	0.171501	1.073626
C49	C	0.175551	-0.271340	0.554591
C50	C	0.675551	0.228660	1.054591
C51	C	0.128936	-0.271362	0.647935
C52	C	0.628936	0.228638	1.147935
C53	C	0.148014	-0.328521	0.666970
C54	C	0.648014	0.171479	1.166970
C55	C	0.124672	-0.427119	0.643641
C56	C	0.624672	0.072881	1.143641
C57	C	0.105611	-0.446170	0.624592
C58	C	0.605611	0.053830	1.124592
C59	C	0.198934	-0.492820	0.577889
C60	C	0.698934	0.007180	1.077889
C61	C	0.217998	-0.473770	0.596931
C62	C	0.717998	0.026230	1.096931
C63	C	0.124740	-0.427136	0.742229
C64	C	0.624740	0.072864	1.242229
C65	C	0.105728	-0.446202	0.799386
C66	C	0.605728	0.053798	1.299386
C67	C	0.199085	-0.492863	0.799337
C68	C	0.699085	0.007137	1.299337
C69	C	0.218096	-0.473798	0.742178
C70	C	0.718096	0.026202	1.242178
C71	C	0.180923	-0.440933	0.713626
C72	C	0.680923	0.059067	1.213626
C73	C	0.264710	-0.440915	0.629773
C74	C	0.764710	0.059085	1.129773
C75	C	0.121509	-0.499370	0.889991
C76	C	0.621509	0.000630	1.389991
C77	C	0.441068	-0.498953	0.570621
C78	C	0.941068	0.001047	1.070621
C79	C	0.121297	-0.499349	0.571429
C80	C	0.621297	0.000651	1.071429
C81	C	0.121653	-0.180715	0.571802
C82	C	0.621653	0.319285	1.071802
C83	C	-0.111071	-0.648912	0.421584
C84	C	0.388929	-0.148912	0.921584
C85	C	-0.027286	-0.649018	0.421777
C86	C	0.472714	-0.149018	0.921777
C87	C	-0.048200	-0.669944	0.400740
C88	C	0.451800	-0.169944	0.900740
C89	C	-0.064036	-0.761340	0.448814
C90	C	0.435964	-0.261340	0.948814
C91	C	-0.045033	-0.818500	0.467893
C92	C	0.454967	-0.318500	0.967893
C93	C	0.047447	-0.818609	0.432797
C94	C	0.547447	-0.318609	0.932797
C95	C	0.028444	-0.761451	0.413717
C96	C	0.528444	-0.261451	0.913717
C97	C	-0.139731	-0.662677	0.477755
C98	C	0.360269	-0.162677	0.977755
C99	C	-0.196885	-0.643554	0.496701
C100	C	0.303115	-0.143554	0.996701
C101	C	-0.196717	-0.596907	0.403303
C102	C	0.303283	-0.096907	0.903303
C103	C	-0.139562	-0.616030	0.384357
C104	C	0.360438	-0.116030	0.884357
C105	C	-0.041053	-0.592827	0.407952
C106	C	0.458947	-0.092827	0.907952
C107	C	-0.022041	-0.573809	0.427083
C108	C	0.477959	-0.073809	0.927083
C109	C	0.024504	-0.667167	0.473848
C110	C	0.524504	-0.167167	0.973848
C111	C	0.005492	-0.686188	0.454725
C112	C	0.505492	-0.186188	0.954725
C113	C	-0.040886	-0.592836	0.309259
C114	C	0.459114	-0.092836	0.809259
C115	C	-0.021740	-0.573821	0.252102
C116	C	0.478260	-0.073821	0.752102
C117	C	0.024886	-0.667185	0.252163
C118	C	0.524886	-0.167185	0.752163
C119	C	0.005743	-0.686199	0.309322
C120	C	0.505743	-0.186199	0.809322
C121	C	-0.027145	-0.649023	0.337868
C122	C	0.472855	-0.149023	0.837868
C123	C	-0.027299	-0.732818	0.421728
C124	C	0.472701	-0.232818	0.921728
N125	N	0.492511	-0.516826	0.553742
N126	N	0.992511	-0.016826	1.053742
O127	O	0.679283	-0.525926	0.419277
O128	O	1.179283	-0.025926	0.919277
O129	O	0.679465	-0.632059	0.563349
O130	O	1.179465	-0.132059	1.063349
O131	O	0.679393	-0.631817	0.471975
O132	O	1.179393	-0.131817	0.971975
O133	O	0.679355	-0.526168	0.510650
O134	O	1.179355	-0.026168	1.010650
O135	O	0.588593	-0.601610	0.502313
O136	O	1.088593	-0.101610	1.002313
O137	O	0.588665	-0.601852	0.593686
O138	O	1.088665	-0.101852	1.093686
O139	O	0.588483	-0.495720	0.449614
O140	O	1.088483	0.004280	0.949614
Zn141	Zn	0.574158	-0.543990	0.526467
Zn142	Zn	1.074158	-0.043990	1.026467
Zn143	Zn	0.693790	-0.583788	0.486496
Zn144	Zn	1.193790	-0.083788	0.986496
O145	O	0.588555	-0.495962	0.540987
O146	O	1.088555	0.004038	1.040987
N147	N	0.775436	-0.610952	0.459215
N148	N	1.275436	-0.110952	0.959215
N149	N	0.104844	-0.129269	0.553931
N150	N	0.604844	0.370731	1.053931
O151	O	-0.029548	0.057600	0.544709
O152	O	0.470452	0.557600	1.044709
O153	O	0.114530	0.057617	0.438578
O154	O	0.614530	0.557617	0.938578
O155	O	0.023130	0.057594	0.438850
O156	O	0.523130	0.557594	0.938850
O157	O	0.061852	0.057623	0.544437
O158	O	0.561852	0.557623	1.044437
O159	O	0.053431	-0.033213	0.469115
O160	O	0.553431	0.466787	0.969115
O161	O	0.144831	-0.033190	0.468843
O162	O	0.644831	0.466810	0.968843
O163	O	0.000753	-0.033207	0.574974
O164	O	0.500753	0.466793	1.074974
Zn165	Zn	0.077603	-0.047616	0.526714
Zn166	Zn	0.577603	0.452384	1.026714
Zn167	Zn	0.037680	0.072026	0.486838
Zn168	Zn	0.537680	0.572026	0.986838
O169	O	0.092153	-0.033184	0.574702
O170	O	0.592153	0.466816	1.074702
N171	N	0.010432	0.153679	0.459622
N172	N	0.510432	0.653679	0.959622
N173	N	0.105130	-0.516904	0.941437
N174	N	0.605130	-0.016904	1.441437
O175	O	0.095923	-0.651280	1.128292
O176	O	0.595923	-0.151280	1.628292
O177	O	-0.010184	-0.507155	1.128318
O178	O	0.489816	-0.007155	1.628318
O179	O	-0.009938	-0.598539	1.128284
O180	O	0.490062	-0.098539	1.628284
O181	O	0.095677	-0.559897	1.128326
O182	O	0.595677	-0.059897	1.628326
O183	O	0.020315	-0.568257	1.037481
O184	O	0.520315	-0.068257	1.537481
O185	O	0.020068	-0.476874	1.037515
O186	O	0.520068	0.023126	1.537515
O187	O	0.126176	-0.620999	1.037489
O188	O	0.626176	-0.120999	1.537489
Zn189	Zn	0.077925	-0.544128	1.023085
Zn190	Zn	0.577925	-0.044128	1.523085
Zn191	Zn	0.038066	-0.584026	1.142722
Zn192	Zn	0.538066	-0.084026	1.642722
O193	O	0.125929	-0.529616	1.037523
O194	O	0.625929	-0.029616	1.537523
N195	N	0.010860	-0.611256	1.224371
N196	N	0.510860	-0.111256	1.724371
C197	C	0.034807	-0.473765	0.439352
C198	C	0.534807	0.026235	0.939352
C199	C	0.147897	-0.586765	0.439257
C200	C	0.647897	-0.086765	0.939257
C201	C	0.080529	-0.654326	0.574308
C202	C	0.580529	-0.154326	1.074308
C203	C	-0.032561	-0.541326	0.574403
C204	C	0.467439	-0.041326	1.074403
C205	C	0.634087	-0.631571	0.596668
C206	C	1.134087	-0.131571	1.096668
C207	C	0.633999	-0.631272	0.483513
C208	C	1.133999	-0.131272	0.983513
C209	C	0.633858	-0.496206	0.416295
C210	C	1.133858	0.003794	0.916295
C211	C	0.633949	-0.496507	0.529449
C212	C	1.133949	0.003493	1.029449
C213	C	0.147793	0.012327	0.439058
C214	C	0.647793	0.512327	0.939058
C215	C	0.034644	0.012187	0.439432
C216	C	0.534644	0.512187	0.939432
C217	C	-0.032548	0.012195	0.574457
C218	C	0.467452	0.512195	1.074457
C219	C	0.080639	0.012222	0.574120
C220	C	0.580639	0.512222	1.074120
C221	C	-0.009670	-0.473857	1.082920
C222	C	0.490330	0.026143	1.582920
C223	C	-0.009359	-0.587018	1.082860
C224	C	0.490641	-0.087018	1.582860
C225	C	0.125662	-0.654297	1.082887
C226	C	0.625662	-0.154297	1.582887
C227	C	0.125358	-0.541129	1.082927
C228	C	0.625358	-0.041129	1.582927
H229	H	0.059977	-0.434960	0.822668
H230	H	0.559977	0.065040	1.322668
H231	H	0.633799	-0.462884	0.374920
H232	H	1.133799	0.037116	0.874920
H233	H	0.158538	-0.532861	1.082933
H234	H	0.658538	-0.032861	1.582933
O235	O	0.634053	-0.671310	0.646052
O236	O	1.134053	-0.171310	1.146052
C237	C	0.587128	-0.731085	0.726170
C238	C	1.087128	-0.231085	1.226170
C239	C	0.587091	-0.686073	0.670260
C240	C	1.087091	-0.186073	1.170260
H241	H	0.549169	-0.743043	0.745753
H242	H	1.049169	-0.243043	1.245753
H243	H	0.587104	-0.715280	0.753739
H244	H	1.087104	-0.215280	1.253739
H245	H	0.625167	-0.768288	0.720389
H246	H	1.125167	-0.268288	1.220389
H247	H	0.549058	-0.648856	0.675989
H248	H	1.049058	-0.148856	1.175989
H249	H	0.587144	-0.701922	0.642711
H250	H	1.087144	-0.201922	1.142711
H251	H	0.633941	-0.463320	0.537725
H252	H	1.133941	0.036680	1.037725
H253	H	-0.073962	-0.533167	0.607674
H254	H	0.426038	-0.033167	1.107674
H255	H	0.634015	-0.664461	0.475235
H256	H	1.134015	-0.164461	0.975235
O257	O	0.197074	0.012661	0.399257
O258	O	0.697074	0.512661	0.899257
C259	C	0.286876	0.013093	0.373715
C260	C	0.786876	0.513093	0.873715
C261	C	0.231086	0.012729	0.418832
C262	C	0.731086	0.512729	0.918832
H263	H	0.314394	0.013137	0.389528
H264	H	0.814394	0.513137	0.889528
H265	H	0.280938	0.051187	0.336598
H266	H	0.780938	0.551187	0.836598
H267	H	0.306611	-0.024817	0.361625
H268	H	0.806611	0.475183	0.861625
H269	H	0.211321	0.050613	0.430968
H270	H	0.711321	0.550613	0.930968
H271	H	0.237060	-0.025390	0.455919
H272	H	0.737060	0.474610	0.955919
H273	H	0.270000	-0.358795	0.596010
H274	H	0.770000	0.141205	1.096010
O275	O	0.088648	-0.395129	0.714470
O276	O	0.588648	0.104871	1.214470
C277	C	0.055952	-0.308124	0.649948
C278	C	0.555952	0.191876	1.149948
C279	C	0.096844	-0.344308	0.681359
C280	C	0.596844	0.155692	1.181359
H281	H	0.062572	-0.267032	0.623161
H282	H	0.562572	0.232968	1.123161
H283	H	0.012518	-0.301490	0.680186
H284	H	0.512518	0.198510	1.180186
H285	H	0.062516	-0.329085	0.623212
H286	H	0.562516	0.170915	1.123212
H287	H	0.090330	-0.323378	0.708095
H288	H	0.590330	0.176622	1.208095
H289	H	0.140263	-0.350944	0.651091
H290	H	0.640263	0.149056	1.151091
O291	O	0.024681	0.012138	0.399930
O292	O	0.524681	0.512138	0.899930
C293	C	-0.040205	0.012115	0.374986
C294	C	0.459795	0.512115	0.874986
C295	C	-0.028994	0.012169	0.419771
C296	C	0.471006	0.512169	0.919771
H297	H	-0.083604	0.012152	0.391008
H298	H	0.416396	0.512152	0.891008
H299	H	-0.010008	-0.025904	0.363070
H300	H	0.489992	0.474096	0.863070
H301	H	-0.035311	0.050102	0.337708
H302	H	0.464689	0.550102	0.837708
H303	H	-0.033895	-0.025792	0.457079
H304	H	0.466105	0.474208	0.957079
H305	H	-0.059189	0.050213	0.431641
H306	H	0.440811	0.550213	0.931641
O307	O	-0.081951	0.012224	0.614138
O308	O	0.418049	0.512224	1.114138
C309	C	-0.171888	0.012194	0.639547
C310	C	0.328112	0.512194	1.139547
C311	C	-0.115967	0.012169	0.594559
C312	C	0.384033	0.512169	1.094559
H313	H	-0.199402	0.012138	0.623738
H314	H	0.300598	0.512138	1.123738
H315	H	-0.191523	0.050213	0.651437
H316	H	0.308477	0.550213	1.151437
H317	H	-0.166122	-0.025792	0.676790
H318	H	0.333878	0.474208	1.176790
H319	H	-0.121686	0.050129	0.557286
H320	H	0.378314	0.550129	1.057286
H321	H	-0.096351	-0.025876	0.582715
H322	H	0.403649	0.474124	1.082715
O323	O	0.197322	-0.596578	0.399627
O324	O	0.697322	-0.096578	0.899627
C325	C	0.287217	-0.661281	0.374369
C326	C	0.787217	-0.161281	0.874369
C327	C	0.231273	-0.650237	0.419302
C328	C	0.731273	-0.150237	0.919302
H329	H	0.314679	-0.704668	0.390256
H330	H	0.814679	-0.204668	0.890256
H331	H	0.306898	-0.631035	0.362432
H332	H	0.806898	-0.131035	0.862432
H333	H	0.281475	-0.656325	0.337137
H334	H	0.781475	-0.156325	0.837137
H335	H	0.236968	-0.655201	0.456563
H336	H	0.736968	-0.155201	0.956563
H337	H	0.211612	-0.680481	0.431193
H338	H	0.711612	-0.180481	0.931193
O339	O	0.090627	0.012197	0.613647
O340	O	0.590627	0.512197	1.113647
C341	C	0.155510	0.012230	0.638587
C342	C	0.655510	0.512230	1.138587
C343	C	0.144274	0.012250	0.593778
C344	C	0.644274	0.512250	1.093778
H345	H	0.198878	0.012285	0.622536
H346	H	0.698878	0.512285	1.122536
H347	H	0.150685	-0.025786	0.675850
H348	H	0.650685	0.474214	1.175850
H349	H	0.125262	0.050219	0.650540
H350	H	0.625262	0.550219	1.150540
H351	H	0.174511	-0.025713	0.581779
H352	H	0.674511	0.474287	1.081779
H353	H	0.149079	0.050292	0.556545
H354	H	0.649079	0.550292	1.056545
O355	O	-0.049363	-0.424455	1.082952
O356	O	0.450637	0.075545	1.582952
C357	C	-0.074735	-0.334500	1.082945
C358	C	0.425265	0.165500	1.582945
C359	C	-0.029740	-0.390427	1.082921
C360	C	0.470260	0.109573	1.582921
H361	H	-0.058883	-0.306969	1.082908
H362	H	0.441117	0.193031	1.582908
H363	H	-0.111969	-0.340201	1.120951
H364	H	0.388031	0.159799	1.620951
H365	H	-0.086654	-0.314914	1.044949
H366	H	0.413346	0.185086	1.544949
H367	H	-0.017775	-0.410044	1.120891
H368	H	0.482225	0.089956	1.620891
H369	H	0.007464	-0.384691	1.044890
H370	H	0.507464	0.115309	1.544890
O371	O	-0.048909	-0.596948	1.082871
O372	O	0.451091	-0.096948	1.582871
C373	C	-0.106333	-0.652309	1.129836
C374	C	0.393667	-0.152309	1.629836
C375	C	-0.061533	-0.641130	1.129884
C376	C	0.438467	-0.141130	1.629884
H377	H	-0.116561	-0.688022	1.167847
H378	H	0.383439	-0.188022	1.667847
H379	H	-0.091186	-0.662734	1.091840
H380	H	0.408814	-0.162734	1.591840
H381	H	-0.144447	-0.614414	1.129800
H382	H	0.355553	-0.114414	1.629800
H383	H	-0.023403	-0.679006	1.129939
H384	H	0.476597	-0.179006	1.629939
H385	H	-0.076724	-0.630682	1.167876
H386	H	0.423276	-0.130682	1.667876
H387	H	0.158977	-0.695688	1.082873
H388	H	0.658977	-0.195688	1.582873
H389	H	0.229358	-0.519614	0.822579
H390	H	0.729358	-0.019614	1.322579
H391	H	0.088756	-0.695753	0.607538
H392	H	0.588756	-0.195753	1.107538
H393	H	0.263847	-0.485039	0.718893
H394	H	0.763847	0.014961	1.218893
H395	H	0.094434	-0.400372	0.670409
H396	H	0.594434	0.099628	1.170409
H397	H	0.186762	-0.248063	0.508836
H398	H	0.686762	0.251937	1.008836
O399	O	0.051019	-0.432836	0.638122
O400	O	0.551019	0.067164	1.138122
C401	C	-0.034551	-0.437199	0.710619
C402	C	0.465449	0.062801	1.210619
C403	C	0.027267	-0.452342	0.695372
C404	C	0.527267	0.047658	1.195372
H405	H	-0.053774	-0.452953	0.756906
H406	H	0.446226	0.047047	1.256906
H407	H	-0.041824	-0.456476	0.691399
H408	H	0.458176	0.043524	1.191399
H409	H	-0.053825	-0.390916	0.694836
H410	H	0.446175	0.109084	1.194836
H411	H	0.046583	-0.498617	0.711152
H412	H	0.546583	0.001383	1.211152
H413	H	0.034502	-0.433027	0.714584
H414	H	0.534502	0.066973	1.214584
O415	O	0.235033	-0.524648	0.545876
O416	O	0.735033	-0.024648	1.045876
C417	C	0.308971	-0.531926	0.461746
C418	C	0.808971	-0.031926	0.961746
C419	C	0.268103	-0.495824	0.497945
C420	C	0.768103	0.004176	0.997945
H421	H	0.335726	-0.508641	0.422991
H422	H	0.835726	-0.008641	0.922991
H423	H	0.285736	-0.543167	0.450452
H424	H	0.785736	-0.043167	0.950452
H425	H	0.335731	-0.570719	0.485019
H426	H	0.835731	-0.070719	0.985019
H427	H	0.241333	-0.457008	0.474705
H428	H	0.741333	0.042992	0.974705
H429	H	0.291372	-0.484627	0.509242
H430	H	0.791372	0.015373	1.009242
O431	O	0.265635	-0.532414	0.664229
O432	O	0.765635	-0.032414	1.164229
C433	C	0.271694	-0.626156	0.697219
C434	C	0.771694	-0.126156	1.197219
C435	C	0.303088	-0.585743	0.667348
C436	C	0.803088	-0.085743	1.167348
H437	H	0.301960	-0.669281	0.699760
H438	H	0.801960	-0.169281	1.199760
H439	H	0.244929	-0.614722	0.673864
H440	H	0.744929	-0.114722	1.173864
H441	H	0.244943	-0.624382	0.740184
H442	H	0.744943	-0.124382	1.240184
H443	H	0.329868	-0.587495	0.624383
H444	H	0.829868	-0.087495	1.124383
H445	H	0.329818	-0.597189	0.690744
H446	H	0.829818	-0.097189	1.190744
H447	H	0.263756	-0.485001	0.585661
H448	H	0.763756	0.014999	1.085661
H449	H	0.373728	-0.561133	0.625383
H450	H	0.873728	-0.061133	1.125383
H451	H	0.221368	-0.351757	0.543370
H452	H	0.721368	0.148243	1.043370
O453	O	0.378147	-0.387550	0.557060
O454	O	0.878147	0.112450	1.057060
C455	C	0.395560	-0.308297	0.480041
C456	C	0.895560	0.191703	0.980041
C457	C	0.364142	-0.348696	0.509961
C458	C	0.864142	0.151304	1.009961
H459	H	0.384240	-0.276867	0.441962
H460	H	0.884240	0.223133	0.941962
H461	H	0.441327	-0.331456	0.467756
H462	H	0.941327	0.168544	0.967756
H463	H	0.384343	-0.286637	0.508281
H464	H	0.884343	0.213363	1.008281
H465	H	0.375313	-0.370367	0.481751
H466	H	0.875313	0.129633	0.981751
H467	H	0.318382	-0.325507	0.522255
H468	H	0.818382	0.174493	1.022255
O469	O	0.097024	-0.243692	0.684101
O470	O	0.597024	0.256308	1.184101
C471	C	0.052845	-0.249743	0.778696
C472	C	0.552845	0.250257	1.278696
C473	C	0.088980	-0.281145	0.737798
C474	C	0.588980	0.218855	1.237798
H475	H	0.046340	-0.280010	0.822119
H476	H	0.546340	0.219990	1.322119
H477	H	0.011694	-0.223005	0.772178
H478	H	0.511694	0.276995	1.272178
H479	H	0.073785	-0.222962	0.772061
H480	H	0.573785	0.277038	1.272061
H481	H	0.068089	-0.307956	0.744408
H482	H	0.568089	0.192044	1.244408
H483	H	0.130130	-0.307848	0.744326
H484	H	0.630130	0.192152	1.244326
H485	H	-0.032937	-0.528066	0.228816
H486	H	0.467063	-0.028066	0.728816
O487	O	-0.072798	-0.556647	0.336904
O488	O	0.427202	-0.056647	0.836904
C489	C	-0.117034	-0.462036	0.330810
C490	C	0.382966	0.037964	0.830810
C491	C	-0.080887	-0.502956	0.299435
C492	C	0.419113	-0.002956	0.799435
H493	H	-0.123595	-0.418618	0.300530
H494	H	0.376405	0.081382	0.800530
H495	H	-0.096146	-0.468608	0.357617
H496	H	0.403854	0.031392	0.857617
H497	H	-0.158158	-0.468593	0.357519
H498	H	0.341842	0.031407	0.857519
H499	H	-0.039757	-0.496423	0.272697
H500	H	0.460243	0.003577	0.772697
H501	H	-0.101818	-0.496374	0.272663
H502	H	0.398182	0.003626	0.772663
H503	H	0.136793	-0.351798	0.712725
H504	H	0.636793	0.148202	1.212725
O505	O	0.101617	-0.846342	0.424951
O506	O	0.601617	-0.346342	0.924951
C507	C	0.191338	-0.840424	0.388153
C508	C	0.691338	-0.340424	0.888153
C509	C	0.130008	-0.808949	0.396993
C510	C	0.630008	-0.308949	0.896993
H511	H	0.214308	-0.810205	0.365559
H512	H	0.714308	-0.310205	0.865559
H513	H	0.207488	-0.867178	0.362991
H514	H	0.707488	-0.367178	0.862991
H515	H	0.197613	-0.867196	0.429407
H516	H	0.697613	-0.367196	0.929407
H517	H	0.123686	-0.782147	0.355765
H518	H	0.623686	-0.282147	0.855765
H519	H	0.113888	-0.782230	0.422181
H520	H	0.613888	-0.282230	0.922181
H521	H	0.016937	-0.731954	0.332612
H522	H	0.516937	-0.231954	0.832612
O523	O	0.056761	-0.703351	0.224498
O524	O	0.556761	-0.203351	0.724498
C525	C	0.064054	-0.777261	0.206959
C526	C	0.564054	-0.277261	0.706959
C527	C	0.027903	-0.736339	0.238332
C528	C	0.527903	-0.236339	0.738332
H529	H	0.040734	-0.803934	0.218124
H530	H	0.540734	-0.303934	0.718124
H531	H	0.102789	-0.804101	0.218296
H532	H	0.602789	-0.304101	0.718296
H533	H	0.075394	-0.754013	0.161196
H534	H	0.575394	-0.254013	0.661196
H535	H	0.016523	-0.759543	0.284103
H536	H	0.516523	-0.259543	0.784103
H537	H	-0.010806	-0.709499	0.226950
H538	H	0.489194	-0.209499	0.726950
O539	O	-0.035429	-0.519208	0.413574
O540	O	0.464571	-0.019208	0.913574
C541	C	-0.083593	-0.428612	0.365162
C542	C	0.416407	0.071388	0.865162
C543	C	-0.068470	-0.490431	0.380418
C544	C	0.431530	0.009569	0.880418
H545	H	-0.110319	-0.405328	0.338363
H546	H	0.389681	0.094672	0.838363
H547	H	-0.044795	-0.417404	0.341933
H548	H	0.455205	0.082596	0.841933
H549	H	-0.106892	-0.417339	0.403935
H550	H	0.393108	0.082661	0.903935
H551	H	-0.045185	-0.501749	0.341673
H552	H	0.454815	-0.001749	0.841673
H553	H	-0.107288	-0.501607	0.403668
H554	H	0.392712	-0.001607	0.903668
H555	H	-0.219915	-0.570138	0.372989
H556	H	0.280085	-0.070138	0.872989
O557	O	0.056403	-0.703329	0.505786
O558	O	0.556403	-0.203329	1.005786
C559	C	0.140473	-0.777334	0.513236
C560	C	0.640473	-0.277334	1.013236
C561	C	0.104396	-0.736418	0.477012
C562	C	0.604396	-0.236418	0.977012
H563	H	0.179289	-0.804089	0.489983
H564	H	0.679289	-0.304089	0.989983
H565	H	0.117183	-0.804093	0.551984
H566	H	0.617183	-0.304093	1.051984
H567	H	0.151670	-0.754079	0.524550
H568	H	0.651670	-0.254079	1.024550
H569	H	0.093189	-0.759627	0.465657
H570	H	0.593189	-0.259627	0.965657
H571	H	0.127706	-0.709659	0.438290
H572	H	0.627706	-0.209659	0.938290
O573	O	0.018840	-0.740781	0.468226
O574	O	0.518840	-0.240781	0.968226
C575	C	0.014328	-0.826362	0.540661
C576	C	0.514328	-0.326362	1.040661
C577	C	-0.000814	-0.764549	0.525461
C578	C	0.499186	-0.264549	1.025461
H579	H	-0.001565	-0.845595	0.586935
H580	H	0.498435	-0.345595	1.086935
H581	H	0.060607	-0.845712	0.525002
H582	H	0.560607	-0.345712	1.025002
H583	H	-0.004880	-0.833534	0.521289
H584	H	0.495120	-0.333534	1.021289
H585	H	0.018357	-0.757328	0.544828
H586	H	0.518357	-0.257328	1.044828
H587	H	-0.047097	-0.745230	0.541111
H588	H	0.452903	-0.245230	1.041111
H589	H	0.058362	-0.738230	0.391661
H590	H	0.558362	-0.238230	0.891661
O591	O	-0.080805	-0.846122	0.494279
O592	O	0.419195	-0.346122	0.994279
C593	C	-0.174556	-0.839983	0.527199
C594	C	0.325444	-0.339983	1.027199
C595	C	-0.134099	-0.808631	0.497277
C596	C	0.365901	-0.308631	0.997277
H597	H	-0.217652	-0.809685	0.529623
H598	H	0.282348	-0.309685	1.029623
H599	H	-0.172876	-0.866681	0.570206
H600	H	0.327124	-0.366681	1.070206
H601	H	-0.163081	-0.866801	0.503884
H602	H	0.336919	-0.366801	1.003884
H603	H	-0.145546	-0.781784	0.520547
H604	H	0.354454	-0.281784	1.020547
H605	H	-0.135786	-0.781968	0.454268
H606	H	0.364214	-0.281968	0.954268
H607	H	-0.067739	-0.562558	0.381123
H608	H	0.432261	-0.062558	0.881123
H609	H	-0.109425	-0.738032	0.455342
H610	H	0.390575	-0.238032	0.955342
H611	H	-0.116534	-0.689457	0.508068
H612	H	0.383466	-0.189457	1.008068
H613	H	-0.116227	-0.604815	0.338615
H614	H	0.383773	-0.104815	0.838615
O615	O	-0.224644	-0.656999	0.551287
O616	O	0.275356	-0.156999	1.051287
C617	C	-0.218782	-0.705268	0.641928
C618	C	0.281218	-0.205268	1.141928
C619	C	-0.187279	-0.690089	0.580127
C620	C	0.312721	-0.190089	1.080127
H621	H	-0.188586	-0.732014	0.665263
H622	H	0.311414	-0.232014	1.165263
H623	H	-0.245532	-0.728530	0.653139
H624	H	0.254468	-0.228530	1.153139
H625	H	-0.245558	-0.666458	0.653134
H626	H	0.254442	-0.166458	1.153134
H627	H	-0.160474	-0.728871	0.568877
H628	H	0.339526	-0.228871	1.068877
H629	H	-0.160564	-0.666807	0.568949
H630	H	0.339436	-0.166807	1.068949
H631	H	0.026581	-0.432337	0.406123
H632	H	0.526581	0.067663	0.906123
