data_functionalizedCrystal
_audit_creation_method	'MofGen! by Chris Wilmer'
_symmetry_space_group_name_H-M	'P1'
_symmetry_Int_Tables_number	1
_symmetry_cell_setting	triclinic
loop_
_symmetry_equiv_pos_as_xyz
  x,y,z
_cell_length_a	12.759401
_cell_length_b	18.215405
_cell_length_c	12.759393
_cell_angle_alpha	90.036438
_cell_angle_beta	90.018496
_cell_angle_gamma	90.023981
loop_
_atom_site_label
_atom_site_type_symbol
_atom_site_fract_x
_atom_site_fract_y
_atom_site_fract_z
Zn1	Zn	1.606189	-0.292938	0.593946
Zn2	Zn	1.606055	-0.416024	0.418251
Zn3	Zn	1.430491	-0.292976	0.418285
Zn4	Zn	1.430451	-0.415967	0.593892
O5	O	1.518297	-0.354476	0.506094
O6	O	1.753192	-0.309273	0.570647
O7	O	1.582727	-0.399741	0.271234
O8	O	1.453870	-0.189987	0.441624
O9	O	1.753094	-0.399704	0.441565
O10	O	1.582954	-0.189959	0.570681
O11	O	1.453740	-0.309339	0.271259
O12	O	1.283465	-0.309284	0.441572
O13	O	1.453803	-0.399607	0.740921
O14	O	1.283436	-0.399645	0.570590
O15	O	1.582916	-0.309218	0.740960
O16	O	1.582689	-0.519001	0.441514
O17	O	1.453673	-0.518959	0.570557
C18	C	1.245329	-0.354463	0.506079
C19	C	1.128553	-0.354475	0.506098
C20	C	1.073703	-0.401601	0.573167
C21	C	0.963979	-0.401610	0.573178
C22	C	0.963964	-0.307365	0.439043
C23	C	1.073686	-0.307353	0.439038
C24	C	1.073711	-0.456015	0.650605
C25	C	0.963987	-0.456025	0.650616
C26	C	1.518191	-0.545683	0.506048
C27	C	1.518242	-0.627482	0.506064
C28	C	1.585617	-0.892536	0.439013
C29	C	1.585573	-0.815678	0.438989
C30	C	1.451107	-0.815675	0.573245
C31	C	1.451145	-0.892532	0.573263
C32	C	1.518406	-0.930961	0.506149
C33	C	1.518324	-0.777245	0.506107
C34	C	1.518277	-0.693911	0.506081
C35	C	1.518453	-1.014300	0.506173
C36	C	1.792330	-0.354491	0.506108
C37	C	1.909106	-0.354497	0.506115
C38	C	1.518370	-0.354402	0.780127
C39	C	1.518401	-0.354370	0.896904
C40	C	1.518431	-0.162523	0.506162
C41	C	1.518489	-0.080724	0.506191
C42	C	1.518284	-0.354497	0.233126
C43	C	1.518456	-0.354322	0.116350
C44	C	1.585640	-0.307300	0.951788
C45	C	1.585665	-0.307274	1.061512
C46	C	1.451210	-0.401394	1.061458
C47	C	1.451180	-0.401416	0.951736
C48	C	1.663270	-0.252963	0.951820
C49	C	1.663295	-0.252936	1.061544
H50	H	1.107713	-0.510128	0.621314
H51	H	1.396479	-0.439695	1.106116
H52	H	0.919278	-0.268999	0.384446
C53	C	1.659593	-0.934808	0.365181
C54	C	1.742082	-0.987573	0.410790
C55	C	1.816058	-1.029842	0.336952
C56	C	1.807545	-1.019346	0.217506
C57	C	1.725053	-0.966578	0.171891
C58	C	1.651077	-0.924309	0.245729
H59	H	1.748387	-0.995346	0.499216
H60	H	1.877124	-1.068905	0.370720
H61	H	1.862307	-1.050636	0.162847
H62	H	1.718748	-0.958806	0.083465
H63	H	1.590010	-0.885247	0.211961
H64	H	0.929994	-0.435680	0.727971
H65	H	1.641514	-0.195969	0.922071
H66	H	1.640301	-0.784394	0.384320
H67	H	1.396410	-0.923819	0.627935
C68	C	1.767664	-0.280544	0.905835
C69	C	1.833189	-0.230093	0.834565
C70	C	1.937586	-0.257671	0.788584
C71	C	1.976459	-0.335700	0.813874
C72	C	1.910933	-0.386156	0.885148
C73	C	1.806535	-0.358578	0.931128
H74	H	1.804413	-0.172327	0.815841
H75	H	1.986093	-0.220320	0.735823
H76	H	2.053740	-0.356115	0.779836
H77	H	1.939708	-0.443923	0.903872
H78	H	1.758029	-0.395930	0.983890
C79	C	1.623996	-0.179781	1.107566
C80	C	1.696084	-0.133887	1.178910
C81	C	1.656781	-0.060736	1.224935
C82	C	1.545391	-0.033479	1.199617
C83	C	1.473296	-0.079374	1.128269
C84	C	1.512599	-0.152525	1.082244
H85	H	1.778548	-0.154064	1.197655
H86	H	1.710151	-0.026762	1.277752
H87	H	1.516297	0.020672	1.233688
H88	H	1.390832	-0.059197	1.109524
H89	H	1.459229	-0.186499	1.029427
H90	H	1.396346	-0.784379	0.627889
H91	H	1.118340	-0.268973	0.384431
C92	C	1.113996	-0.435478	0.760576
C93	C	1.084858	-0.483333	0.855662
C94	C	1.125143	-0.462795	0.965629
C95	C	1.194566	-0.394402	0.980510
C96	C	1.223708	-0.346543	0.885422
C97	C	1.183423	-0.367080	0.775454
H98	H	1.033463	-0.533965	0.844648
H99	H	1.103569	-0.498224	1.036020
H100	H	1.224387	-0.379198	1.061915
H101	H	1.275102	-0.295910	0.896435
H102	H	1.204996	-0.331651	0.705064
H103	H	0.934178	-0.513008	0.628677
H104	H	1.396424	-0.439743	0.907054
C105	C	1.773203	-0.273568	1.101793
C106	C	1.787851	-0.341950	1.171161
C107	C	1.897751	-0.362584	1.211415
C108	C	1.993002	-0.314836	1.182300
C109	C	1.978357	-0.246449	1.112928
C110	C	1.868457	-0.225815	1.072674
H111	H	1.717337	-0.377301	1.192717
H112	H	1.908591	-0.413209	1.262769
H113	H	2.074356	-0.330110	1.212099
H114	H	2.048871	-0.211098	1.091372
H115	H	1.857617	-0.175190	1.021320
