data_functionalizedCrystal
_audit_creation_method	'MofGen! by Chris Wilmer'
_symmetry_space_group_name_H-M	'P1'
_symmetry_Int_Tables_number	1
_symmetry_cell_setting	triclinic
loop_
_symmetry_equiv_pos_as_xyz
  x,y,z
_cell_length_a	14.044220
_cell_length_b	9.016244
_cell_length_c	14.044220
_cell_angle_alpha	90.007878
_cell_angle_beta	93.188878
_cell_angle_gamma	89.997227
loop_
_atom_site_label
_atom_site_type_symbol
_atom_site_fract_x
_atom_site_fract_y
_atom_site_fract_z
O1	O	1.277165	0.123188	0.230170
O2	O	1.000493	0.123226	0.221865
O3	O	1.134676	0.123193	0.087682
O4	O	1.142982	0.123221	0.364353
O5	O	1.134669	-0.123488	0.087670
O6	O	1.000486	-0.123455	0.221853
O7	O	1.277158	-0.123492	0.230159
Cu8	Cu	1.138822	-0.145998	0.226005
Cu9	Cu	1.138830	0.145731	0.226019
O10	O	1.142975	-0.123460	0.364342
C11	C	0.964868	-0.000110	0.218223
C12	C	0.858725	-0.000096	0.207379
C13	C	0.664388	-0.000128	0.187553
C14	C	0.613258	-0.000126	0.264467
C15	C	0.505122	-0.000143	0.253435
C16	C	0.772534	-0.000110	0.198583
N17	N	1.138823	-0.351184	0.225996
C18	C	1.210912	-0.586188	0.154506
C19	C	1.210679	-0.414297	0.154195
C20	C	1.037379	-0.413598	0.195817
C21	C	1.037801	-0.585543	0.195309
C22	C	1.167324	-0.585681	0.327868
C23	C	1.169525	-0.413725	0.327383
C24	C	1.312783	-0.000153	0.233800
C25	C	1.418926	-0.000157	0.244645
C26	C	1.131037	-0.000147	0.052054
C27	C	1.120193	-0.000148	-0.054088
N28	N	1.138836	0.350917	0.226021
C29	C	1.100366	-0.000124	-0.248426
C30	C	1.177281	-0.000130	-0.299556
C31	C	1.166249	-0.000116	-0.407692
C32	C	1.111397	-0.000137	-0.140280
C33	C	1.146614	-0.000116	0.399969
C34	C	1.157459	-0.000106	0.506112
H35	H	0.650697	-0.000111	0.338600
Br36	Br	0.998097	-0.652429	0.071082
H37	H	1.026239	-0.000110	-0.285863
H38	H	1.286280	-0.627536	0.173537
H39	H	0.626951	-0.000143	0.113425
Br40	Br	1.079886	-0.653476	0.416737
H41	H	1.251414	-0.000040	-0.262117
H42	H	1.013193	-0.370554	0.122075
Br43	Br	1.335907	-0.343953	0.186242
H44	H	1.191602	-0.373183	0.078786
Br45	Br	1.179492	-0.658231	0.029548
H46	H	0.982100	-0.372717	0.246162
H47	H	0.982121	-0.627149	0.244978
H48	H	1.240172	-0.629041	0.354792
Br49	Br	1.293974	-0.345723	0.365237
H50	H	1.121075	-0.370759	0.383742
