data_functionalizedCrystal
_audit_creation_method	'MofGen! by Chris Wilmer'
_symmetry_space_group_name_H-M	'P1'
_symmetry_Int_Tables_number	1
_symmetry_cell_setting	triclinic
loop_
_symmetry_equiv_pos_as_xyz
  x,y,z
_cell_length_a	15.995350
_cell_length_b	16.109301
_cell_length_c	15.186229
_cell_angle_alpha	89.995644
_cell_angle_beta	90.001965
_cell_angle_gamma	83.476927
loop_
_atom_site_label
_atom_site_type_symbol
_atom_site_fract_x
_atom_site_fract_y
_atom_site_fract_z
O1	O	1.110958	0.107161	0.073145
O2	O	0.867179	0.120395	0.073162
O3	O	0.995766	-0.007252	0.073157
O4	O	0.982372	0.234807	0.073149
O5	O	0.995751	-0.007244	-0.073300
O6	O	0.867164	0.120402	-0.073295
O7	O	1.110943	0.107168	-0.073312
Zn8	Zn	0.989051	0.113786	-0.096557
Zn9	Zn	0.989071	0.113777	0.096407
O10	O	0.982357	0.234814	-0.073308
C11	C	0.835977	0.119851	-0.000065
C12	C	0.743027	0.118211	-0.000058
C13	C	0.995216	-0.038223	-0.000068
C14	C	0.993589	-0.130519	-0.000059
N15	N	0.989044	0.113792	-0.228250
C16	C	0.405281	0.112320	-0.000076
C17	C	0.452740	0.021413	-0.000399
C18	C	0.549430	0.023054	-0.000063
C19	C	0.572841	0.115242	-0.000067
C20	C	0.531750	0.160077	0.083562
C21	C	0.435115	0.157793	0.083626
C22	C	0.434759	0.159679	-0.082923
C23	C	0.531704	0.159658	-0.084023
C24	C	0.667538	0.116898	-0.000059
C25	C	0.310584	0.110667	-0.000078
C26	C	1.142145	0.107712	-0.000084
C27	C	1.235095	0.109352	-0.000085
C28	C	0.982907	0.265786	-0.000081
C29	C	0.984534	0.358081	-0.000084
C30	C	0.912015	0.580334	-0.000066
C31	C	0.913550	0.667055	-0.000060
C32	C	1.066113	0.647222	-0.000074
C33	C	1.064577	0.560503	-0.000074
C34	C	0.987526	0.527061	-0.000075
C35	C	0.990597	0.700501	-0.000068
C36	C	0.992261	0.794528	-0.000061
C37	C	0.985861	0.433029	-0.000080
C38	C	1.039825	0.164234	-0.453978
C39	C	1.039834	0.164228	-0.546168
C40	C	0.938302	0.063316	-0.546166
C41	C	0.938298	0.063318	-0.453978
C42	C	0.989058	0.113782	-0.407887
C43	C	0.989071	0.113774	-0.592264
C44	C	0.989081	0.113767	-0.692220
C45	C	0.989050	0.113788	-0.307924
N46	N	0.989085	0.113764	0.228099
H47	H	0.577862	-0.012189	-0.060012
H48	H	0.402849	0.224535	0.087418
H49	H	0.896956	0.022230	-0.416449
H50	H	0.433163	-0.014760	0.059246
Br51	Br	0.807446	0.534952	-0.000065
Br52	Br	0.557274	0.271712	-0.092448
Br53	Br	0.869411	-0.005161	-0.608724
H54	H	0.416822	0.125092	0.146144
Br55	Br	0.421872	-0.039149	-0.100361
Br56	Br	1.167064	0.488197	-0.000077
H57	H	1.081158	0.205325	-0.416453
H58	H	1.128846	0.674460	-0.000083
Br59	Br	0.595861	-0.035829	0.100209
H60	H	1.081175	0.205310	-0.583692
H61	H	0.545857	0.227805	0.086669
H62	H	0.560140	0.128931	0.145803
Br63	Br	0.811066	0.739351	-0.000040
Br64	Br	0.577120	0.105014	-0.187142
Br65	Br	0.400539	0.110148	-0.188578
H66	H	0.402979	0.226705	-0.083492
