data_functionalizedCrystal
_audit_creation_method	'MofGen! by Chris Wilmer'
_symmetry_space_group_name_H-M	'P1'
_symmetry_Int_Tables_number	1
_symmetry_cell_setting	triclinic
loop_
_symmetry_equiv_pos_as_xyz
  x,y,z
_cell_length_a	10.654550
_cell_length_b	23.532357
_cell_length_c	9.130313
_cell_angle_alpha	89.989961
_cell_angle_beta	89.999724
_cell_angle_gamma	83.656611
loop_
_atom_site_label
_atom_site_type_symbol
_atom_site_fract_x
_atom_site_fract_y
_atom_site_fract_z
O1	O	1.665274	0.079987	-0.121710
O2	O	1.299551	0.087607	-0.121739
O3	O	1.493473	0.000935	-0.121693
O4	O	1.471351	0.166659	-0.121755
O5	O	1.493460	0.000933	0.121905
O6	O	1.299538	0.087605	0.121860
O7	O	1.665261	0.079984	0.121889
Cu8	Cu	1.482398	0.083794	0.144117
Cu9	Cu	1.482413	0.083797	-0.143967
O10	O	1.471338	0.166656	0.121843
C11	C	1.252764	0.087046	0.000057
C12	C	1.113375	0.085372	0.000048
C13	C	1.032252	0.136403	0.000033
C14	C	0.901282	0.134827	0.000059
C15	C	0.932570	0.031184	0.000109
C16	C	1.063537	0.032761	0.000093
C17	C	1.492913	-0.020286	0.000111
C18	C	1.491250	-0.083516	0.000124
C19	C	1.480813	-0.475594	-0.132741
C20	C	1.479231	-0.535003	-0.132750
O21	O	1.478377	-0.565724	-0.245679
N22	N	1.478440	-0.564721	0.000034
C23	C	1.479217	-0.535025	0.132835
O24	O	1.478398	-0.565758	0.245777
C25	C	1.480790	-0.475616	0.132842
C26	C	1.481594	-0.445902	0.000049
C27	C	1.481615	-0.445880	-0.265523
C28	C	1.483199	-0.386474	-0.265514
C29	C	1.483980	-0.356783	-0.132723
C30	C	1.483177	-0.386497	0.000058
C31	C	1.481558	-0.445921	0.265641
C32	C	1.483129	-0.386507	0.265637
C33	C	1.483934	-0.356794	0.132844
C34	C	1.485542	-0.297400	0.132858
N35	N	1.486334	-0.267682	0.000074
C36	C	1.485553	-0.297373	-0.132716
C37	C	1.475913	-0.659788	0.132810
C38	C	1.474349	-0.719197	0.132805
C39	C	1.474361	-0.719171	-0.132781
C40	C	1.475934	-0.659762	-0.132774
C41	C	1.476704	-0.630071	0.000026
C42	C	1.488880	-0.172618	-0.132687
C43	C	1.490469	-0.113207	-0.132667
C44	C	1.490450	-0.113238	0.132918
C45	C	1.488868	-0.172644	0.132898
C46	C	1.488078	-0.202332	0.000083
O47	O	1.486392	-0.266641	0.245730
O48	O	1.486356	-0.266633	-0.245640
C49	C	1.712047	0.080545	0.000089
C50	C	1.851437	0.082219	0.000089
C51	C	1.471898	0.187877	0.000036
C52	C	1.473562	0.251107	0.000013
N53	N	1.482396	0.083792	0.346740
N54	N	1.482425	0.083795	-0.346590
C55	C	1.568293	0.045430	0.423411
C56	C	1.568305	0.045430	0.576748
C57	C	1.396519	0.122159	0.576728
C58	C	1.396502	0.122156	0.423394
H59	H	1.072825	0.179243	0.000007
H60	H	1.473714	-0.743386	0.240938
F61	F	1.659726	0.004599	0.658343
F62	F	0.879517	-0.024806	0.000151
H63	H	1.491092	-0.089053	0.241033
H64	H	1.326587	0.153395	0.639155
F65	F	1.149880	-0.021556	0.000119
H66	H	1.491126	-0.089017	-0.240807
H67	H	1.488230	-0.196782	-0.240838
H68	H	1.326548	0.153395	0.360963
F69	F	1.484046	-0.354857	-0.406852
F70	F	0.814950	0.189141	0.000045
H71	H	1.480975	-0.470048	-0.373663
H72	H	1.476586	-0.635572	-0.240905
H73	H	1.638232	0.014191	0.361003
H74	H	1.476544	-0.635618	0.240959
H75	H	1.473721	-0.743356	-0.240906
H76	H	1.480905	-0.470104	0.373775
H77	H	1.483738	-0.362335	0.373781
F78	F	1.488035	-0.204270	0.274229
