data_functionalizedCrystal
_audit_creation_method	'MofGen! by Chris Wilmer'
_symmetry_space_group_name_H-M	'P1'
_symmetry_Int_Tables_number	1
_symmetry_cell_setting	triclinic
loop_
_symmetry_equiv_pos_as_xyz
  x,y,z
_cell_length_a	11.026607
_cell_length_b	8.597340
_cell_length_c	7.681481
_cell_angle_alpha	103.474906
_cell_angle_beta	82.996689
_cell_angle_gamma	96.851696
loop_
_atom_site_label
_atom_site_type_symbol
_atom_site_fract_x
_atom_site_fract_y
_atom_site_fract_z
O1	O	0.167818	2.147999	0.179466
O2	O	0.667818	2.647999	0.679466
O3	O	0.187153	1.689486	0.109898
O4	O	0.687153	2.189486	0.609898
O5	O	0.000833	1.880742	0.138923
O6	O	0.500833	2.380742	0.638923
O7	O	0.354137	1.956743	0.150441
O8	O	0.854137	2.456743	0.650441
O9	O	-0.022151	1.904267	0.435351
O10	O	0.477849	2.404267	0.935351
O11	O	0.164168	1.713011	0.406326
O12	O	0.664168	2.213011	0.906326
O13	O	0.144833	2.171524	0.475894
O14	O	0.644833	2.671524	0.975894
Zn15	Zn	0.150851	1.946003	0.488175
Zn16	Zn	0.650851	2.446003	0.988175
Zn17	Zn	0.181135	1.915007	0.097618
Zn18	Zn	0.681135	2.415007	0.597618
O19	O	0.331152	1.980268	0.446869
O20	O	0.831152	2.480268	0.946869
C21	C	0.174864	1.641636	0.249068
C22	C	0.674864	2.141636	0.749068
C23	C	0.172478	1.464007	0.222117
C24	C	0.672478	1.964007	0.722117
C25	C	-0.055869	1.878483	0.285008
C26	C	0.444131	2.378483	0.785008
C27	C	-0.190581	1.836685	0.278660
C28	C	0.309419	2.336685	0.778660
C29	C	-0.264391	1.952094	0.296167
C30	C	0.235609	2.452094	0.796167
C31	C	-0.403623	1.908897	0.289607
C32	C	0.096377	2.408897	0.789607
C33	C	0.387855	1.982526	0.300781
C34	C	0.887855	2.482526	0.800781
C35	C	0.522568	2.024323	0.307117
C36	C	1.022568	2.524323	0.807117
C37	C	0.157122	2.219373	0.336721
C38	C	0.657122	2.719373	0.836721
C39	C	0.159509	2.397001	0.363660
C40	C	0.659509	2.897001	0.863660
N41	N	0.130183	1.967168	0.754721
N42	N	0.630183	2.467168	1.254721
N43	N	0.201793	1.893852	-0.168927
N44	N	0.701793	2.393852	0.331073
H45	H	-0.224506	2.082881	0.316022
H46	H	0.275494	2.582881	0.816022
F47	F	0.297333	1.796024	0.717941
F48	F	0.797333	2.296024	1.217941
F49	F	0.184601	1.361364	0.036752
F50	F	0.684601	1.861364	0.536752
F51	F	-0.455743	1.737937	0.263652
F52	F	0.044257	2.237937	0.763652
F53	F	-0.425313	2.195283	0.333048
F54	F	0.074687	2.695283	0.833048
F55	F	-0.242706	1.665733	0.252706
F56	F	0.257294	2.165733	0.752706
F57	F	0.034650	2.065020	0.867865
F58	F	0.534650	2.565020	1.367865
H59	H	0.150222	1.475525	0.505465
H60	H	0.650222	1.975525	1.005465
