data_functionalizedCrystal
_audit_creation_method	'MofGen! by Chris Wilmer'
_symmetry_space_group_name_H-M	'P1'
_symmetry_Int_Tables_number	1
_symmetry_cell_setting	triclinic
loop_
_symmetry_equiv_pos_as_xyz
  x,y,z
_cell_length_a	16.959455
_cell_length_b	19.121063
_cell_length_c	16.959447
_cell_angle_alpha	92.406624
_cell_angle_beta	89.985678
_cell_angle_gamma	92.465894
loop_
_atom_site_label
_atom_site_type_symbol
_atom_site_fract_x
_atom_site_fract_y
_atom_site_fract_z
Zn1	Zn	1.194915	-0.279656	-0.460312
Zn2	Zn	1.189180	-0.397117	-0.333763
Zn3	Zn	1.062742	-0.279678	-0.328150
Zn4	Zn	1.057053	-0.397064	-0.465899
O5	O	1.125973	-0.338379	-0.397031
O6	O	1.304764	-0.295250	-0.443535
O7	O	1.172389	-0.381570	-0.222409
O8	O	1.085056	-0.181391	-0.340995
O9	O	1.300551	-0.381548	-0.350560
O10	O	1.182163	-0.181375	-0.438093
O11	O	1.079495	-0.295288	-0.218285
O12	O	0.951377	-0.295237	-0.346412
O13	O	1.075360	-0.381459	-0.575767
O14	O	0.947198	-0.381480	-0.447615
O15	O	1.176646	-0.295199	-0.571662
O16	O	1.166873	-0.495394	-0.355978
O17	O	1.069800	-0.495356	-0.453058
C18	C	0.920608	-0.338356	-0.397012
C19	C	0.832751	-0.338363	-0.397023
C20	C	0.463428	-0.293435	-0.344438
C21	C	0.459118	-0.383380	-0.449672
C22	C	0.541664	-0.383370	-0.449666
C23	C	0.585096	-0.338393	-0.397045
C24	C	0.545982	-0.293425	-0.344430
C25	C	0.580784	-0.428342	-0.502276
C26	C	0.663336	-0.428334	-0.502272
C27	C	0.706770	-0.383353	-0.449654
C28	C	0.667650	-0.338383	-0.397037
C29	C	0.711082	-0.293405	-0.344416
C30	C	0.671965	-0.248431	-0.291802
C31	C	0.589416	-0.248444	-0.291812
C32	C	0.789319	-0.383340	-0.449644
C33	C	0.793636	-0.293395	-0.344407
C34	C	1.117118	-0.520859	-0.405750
C35	C	1.113402	-0.598924	-0.409507
C36	C	1.162236	-0.635597	-0.360769
C37	C	1.158746	-0.708948	-0.364307
C38	C	1.106417	-0.745625	-0.416579
C39	C	1.057581	-0.708948	-0.465322
C40	C	1.061076	-0.635598	-0.461787
C41	C	1.093339	-0.967094	-0.429780
C42	C	1.089847	-1.040449	-0.433309
C43	C	1.191013	-1.040443	-0.332295
C44	C	1.194500	-0.967092	-0.328762
C45	C	1.145667	-0.930421	-0.377508
C46	C	1.102847	-0.820602	-0.420195
C47	C	1.149242	-0.855446	-0.373896
C48	C	1.332140	-0.338403	-0.397051
C49	C	1.419996	-0.338413	-0.397059
C50	C	1.126008	-0.338321	-0.603196
C51	C	1.126024	-0.338296	-0.691052
C52	C	1.134884	-0.155186	-0.388295
C53	C	1.138681	-0.077121	-0.384572
C54	C	1.073386	-0.383133	-1.064664
C55	C	1.178857	-0.293311	-1.060384
C56	C	1.178835	-0.293326	-0.977839
C57	C	1.126089	-0.338246	-0.938703
C58	C	1.073365	-0.383151	-0.982111
C59	C	1.231564	-0.248426	-0.934425
C60	C	1.231545	-0.248440	-0.851875
C61	C	1.178794	-0.293357	-0.812736
C62	C	1.126067	-0.338263	-0.856150
C63	C	1.073321	-0.383183	-0.817013
C64	C	1.020590	-0.428087	-0.860425
C65	C	1.020614	-0.428068	-0.942973
C66	C	1.178770	-0.293376	-0.730189
C67	C	1.073299	-0.383201	-0.734460
C68	C	1.125985	-0.338386	-0.191665
C69	C	1.126133	-0.338213	-0.103800
H70	H	0.821164	-0.419959	-0.492479
C71	C	1.288748	-0.199693	-0.977059
C72	C	1.277466	-0.209277	-1.058642
C73	C	1.330127	-0.164389	-1.097945
H74	H	1.341385	-0.209944	-0.964115
H75	H	1.279475	-0.152486	-0.961332
H76	H	1.286745	-0.256472	-1.074363
H77	H	1.224839	-0.199021	-1.071609
H78	H	1.320853	-0.117183	-1.082218
H79	H	1.382760	-0.174644	-1.084994
H80	H	1.322474	-0.170881	-1.153302
H81	H	1.198512	-0.738803	-0.324619
H82	H	1.030452	-0.419690	-1.100013
C83	C	1.219131	-0.595905	-0.303990
C84	C	1.261165	-0.643725	-0.262080
C85	C	1.313592	-0.607189	-0.209775
H86	H	1.190366	-0.567333	-0.268075
H87	H	1.254959	-0.567262	-0.332858
H88	H	1.225341	-0.672356	-0.233213
H89	H	1.289946	-0.672298	-0.297974
H90	H	1.349420	-0.578546	-0.238644
H91	H	1.284821	-0.578619	-0.173866
H92	H	1.342123	-0.639629	-0.181339
C93	C	1.251404	-0.927400	-0.271993
C94	C	1.293442	-0.975216	-0.230084
C95	C	1.345876	-0.938677	-0.177788
H96	H	1.222643	-0.898824	-0.236078
H97	H	1.287229	-0.898760	-0.300869
H98	H	1.257622	-1.003844	-0.201209
H99	H	1.322218	-1.003793	-0.265978
H100	H	1.381701	-0.910037	-0.206664
H101	H	1.317109	-0.910103	-0.141878
H102	H	1.374411	-0.971115	-0.149352
H103	H	0.707338	-0.211814	-0.248954
H104	H	0.557559	-0.211829	-0.248975
C105	C	0.963455	-0.476898	-0.817825
C106	C	1.006020	-0.521914	-0.772567
C107	C	0.953419	-0.566880	-0.733299
H108	H	0.932028	-0.503708	-0.855405
H109	H	0.930332	-0.450051	-0.784293
H110	H	1.039129	-0.548758	-0.806096
H111	H	1.037445	-0.495123	-0.734973
H112	H	0.920297	-0.540033	-0.699767
H113	H	0.921995	-0.593686	-0.770885
H114	H	0.982292	-0.597424	-0.702582
C115	C	1.244006	-1.080385	-0.279479
C116	C	1.229766	-1.152472	-0.293776
C117	C	1.278583	-1.189287	-0.245146
H118	H	1.233097	-1.068495	-0.225752
H119	H	1.297694	-1.068356	-0.290532
H120	H	1.176090	-1.164495	-0.282717
H121	H	1.240679	-1.164383	-0.347493
H122	H	1.332271	-1.177258	-0.256199
H123	H	1.267670	-1.177391	-0.191422
H124	H	1.268933	-1.238201	-0.254845
C125	C	1.288822	-0.199608	-0.804884
C126	C	1.335005	-0.160254	-0.856827
C127	C	1.387767	-0.115255	-0.813567
H128	H	1.322020	-0.226404	-0.773950
H129	H	1.260082	-0.168971	-0.771244
H130	H	1.363743	-0.190888	-0.890453
H131	H	1.301828	-0.133444	-0.887762
H132	H	1.359027	-0.084618	-0.779927
H133	H	1.420960	-0.142057	-0.782635
H134	H	1.419104	-0.088544	-0.848804
C135	C	1.033011	-1.080145	-0.490152
C136	C	0.991009	-1.032332	-0.532102
C137	C	0.938657	-1.068874	-0.584476
H138	H	0.997153	-1.108805	-0.461356
H139	H	1.061854	-1.108701	-0.526031
H140	H	0.962167	-1.003788	-0.496228
H141	H	1.026847	-1.003671	-0.560914
H142	H	0.967500	-1.097430	-0.620356
H143	H	0.902803	-1.097533	-0.555674
H144	H	0.910157	-1.036439	-0.612951
H145	H	1.221804	-0.256743	-1.092255
C146	C	0.421061	-0.244650	-0.287190
C147	C	0.440393	-0.259843	-0.209680
C148	C	0.401387	-0.214910	-0.156922
H149	H	0.365667	-0.251049	-0.294620
H150	H	0.436896	-0.197460	-0.296542
H151	H	0.424553	-0.307022	-0.200331
H152	H	0.495779	-0.253440	-0.202224
H153	H	0.417222	-0.167720	-0.166274
H154	H	0.345995	-0.221313	-0.164360
H155	H	0.414503	-0.225208	-0.104326
C156	C	0.705764	-0.477069	-0.559527
C157	C	0.686454	-0.461848	-0.637035
C158	C	0.725532	-0.506720	-0.689802
H159	H	0.689985	-0.524274	-0.550236
H160	H	0.761156	-0.470616	-0.552045
H161	H	0.631074	-0.468307	-0.644514
H162	H	0.702234	-0.414651	-0.646351
H163	H	0.780924	-0.500267	-0.682319
H164	H	0.709751	-0.553923	-0.680503
H165	H	0.712442	-0.496395	-0.742396
H166	H	0.545416	-0.464965	-0.545111
C167	C	0.840647	-0.244536	-0.287184
C168	C	0.788718	-0.205169	-0.241100
C169	C	0.831995	-0.160161	-0.188370
H170	H	0.874348	-0.213902	-0.315919
H171	H	0.871520	-0.271348	-0.253928
H172	H	0.757859	-0.178359	-0.274352
H173	H	0.755017	-0.235784	-0.212348
H174	H	0.862868	-0.186972	-0.155114
H175	H	0.865694	-0.129531	-0.217112
H176	H	0.796768	-0.133449	-0.157091
C177	C	0.411827	-0.432135	-0.506765
C178	C	0.331162	-0.422509	-0.495522
C179	C	0.287571	-0.467405	-0.548113
H180	H	0.422976	-0.479340	-0.497418
H181	H	0.425820	-0.421904	-0.559421
H182	H	0.317175	-0.432745	-0.442880
H183	H	0.319990	-0.375314	-0.504876
H184	H	0.301564	-0.457174	-0.600768
H185	H	0.298726	-0.514607	-0.538761
H186	H	0.232836	-0.460875	-0.540497
C187	C	1.000743	-0.748640	-0.522157
C188	C	0.958740	-0.700822	-0.564099
C189	C	0.906380	-0.737358	-0.616470
H190	H	0.964886	-0.777300	-0.493360
H191	H	1.029581	-0.777195	-0.558042
H192	H	0.929904	-0.672278	-0.528220
H193	H	0.994577	-0.672160	-0.592913
H194	H	0.935218	-0.765914	-0.652355
H195	H	0.870528	-0.766017	-0.587667
H196	H	0.877880	-0.704919	-0.644940
C197	C	1.235889	-0.244591	-0.682952
C198	C	1.193316	-0.199587	-0.633404
C199	C	1.245911	-0.154641	-0.589871
H200	H	1.267331	-0.217772	-0.717988
H201	H	1.268998	-0.271454	-0.651981
H202	H	1.160222	-0.172727	-0.664372
H203	H	1.161877	-0.226387	-0.598353
H204	H	1.279019	-0.181503	-0.558901
H205	H	1.277350	-0.127826	-0.624913
H206	H	1.217033	-0.124105	-0.556243
H207	H	1.053576	-0.937242	-0.469470
C208	C	0.963499	-0.476905	-0.990154
C209	C	1.006081	-0.521928	-1.039671
C210	C	0.953496	-0.566932	-1.083142
H211	H	0.930358	-0.450108	-1.021148
H212	H	0.932090	-0.503702	-0.955054
H213	H	1.037477	-0.495133	-1.074766
H214	H	1.039219	-0.548740	-1.008697
H215	H	0.922087	-0.593729	-1.048042
H216	H	0.920358	-0.540128	-1.114131
H217	H	0.982381	-0.597489	-1.116738
C218	C	1.008189	-0.595741	-0.514798
C219	C	1.054926	-0.553582	-0.563481
C220	C	1.006237	-0.516863	-0.612335
H221	H	0.975117	-0.567111	-0.483244
H222	H	0.976536	-0.628064	-0.546481
H223	H	1.086565	-0.521262	-0.531800
H224	H	1.087996	-0.582194	-0.595051
H225	H	0.974584	-0.549187	-0.644019
H226	H	0.973168	-0.488237	-0.580776
H227	H	1.037941	-0.488259	-0.645377
H228	H	1.191851	-0.825581	-0.331339
H229	H	1.060239	-0.850473	-0.462753
H230	H	1.030340	-0.419775	-0.702601
