data_functionalizedCrystal
_audit_creation_method	'MofGen! by Chris Wilmer'
_symmetry_space_group_name_H-M	'P1'
_symmetry_Int_Tables_number	1
_symmetry_cell_setting	triclinic
loop_
_symmetry_equiv_pos_as_xyz
  x,y,z
_cell_length_a	14.853567
_cell_length_b	10.723024
_cell_length_c	9.798715
_cell_angle_alpha	90.001978
_cell_angle_beta	90.000715
_cell_angle_gamma	84.051400
loop_
_atom_site_label
_atom_site_type_symbol
_atom_site_fract_x
_atom_site_fract_y
_atom_site_fract_z
O1	O	-1.197224	-0.162914	-0.113393
O2	O	-0.934867	-0.182321	-0.113416
O3	O	-1.072097	0.009020	-0.113399
O4	O	-1.059994	-0.354255	-0.113410
O5	O	-1.072087	0.009021	0.113583
O6	O	-0.934857	-0.182320	0.113566
O7	O	-1.197214	-0.162913	0.113589
Zn8	Zn	-1.066034	-0.172617	0.149616
Zn9	Zn	-1.066047	-0.172617	-0.149443
O10	O	-1.059984	-0.354254	0.113572
C11	C	-0.901269	-0.181441	0.000072
C12	C	-0.801171	-0.178806	0.000063
C13	C	-1.071211	0.055511	0.000090
C14	C	-1.068576	0.194039	0.000085
C15	C	-1.230812	-0.163793	0.000098
C16	C	-1.330910	-0.166428	0.000098
C17	C	-0.387978	-0.054006	0.000097
C18	C	-0.367897	-0.281324	0.000089
C19	C	-0.461944	-0.283802	0.000085
C20	C	-0.519013	-0.171380	0.000085
C21	C	-0.482034	-0.056481	0.000089
C22	C	-0.498930	-0.398699	0.000067
C23	C	-0.592982	-0.401181	0.000061
C24	C	-0.650052	-0.288758	0.000070
C25	C	-0.613068	-0.173854	0.000076
C26	C	-0.670137	-0.061433	0.000076
C27	C	-0.633155	0.053473	0.000092
C28	C	-0.539104	0.055942	0.000099
C29	C	-0.744103	-0.291228	0.000063
C30	C	-0.764192	-0.063907	0.000067
C31	C	-1.060870	-0.400745	0.000079
C32	C	-1.063505	-0.539273	0.000075
N33	N	-1.066031	-0.172616	0.353715
C34	C	-1.145363	0.269798	0.000090
C35	C	-1.142641	0.412974	0.000085
N36	N	-1.066057	-0.172609	-0.353543
C37	C	-1.123650	-0.091925	0.421499
C38	C	-1.123665	-0.091921	0.578662
H39	H	-0.810652	0.027642	0.000073
O40	O	-0.780072	-0.402800	-0.000193
C41	C	-0.833893	-0.411012	-0.117733
H42	H	-0.811249	-0.345765	-0.199892
H43	H	-0.826081	-0.511563	-0.157201
H44	H	-0.907870	-0.382351	-0.091152
O45	O	-1.226255	0.220886	0.000275
C46	C	-1.275578	0.261548	0.117850
H47	H	-1.250539	0.351919	0.157044
H48	H	-1.350551	0.279348	0.091412
H49	H	-1.265531	0.186258	0.200165
H50	H	-1.208376	0.478071	0.000095
O51	O	-1.182632	-0.009562	0.352118
C52	C	-1.272078	-0.029743	0.386927
H53	H	-1.272403	-0.077757	0.490697
H54	H	-1.315736	0.064077	0.391704
H55	H	-1.300422	-0.091866	0.306530
H56	H	-1.000821	0.235175	0.000070
H57	H	-0.997766	0.395637	0.000081
O58	O	-1.182477	-0.009329	0.648045
C59	C	-1.166808	0.114168	0.613262
H60	H	-1.132106	0.114055	0.509487
H61	H	-1.234090	0.175702	0.608508
H62	H	-1.121559	0.152611	0.693662
O63	O	-1.007326	-0.255085	0.576786
C64	C	-1.056294	-0.331932	0.494150
H65	H	-1.126463	-0.282136	0.472868
H66	H	-1.018871	-0.351635	0.393621
H67	H	-1.063145	-0.424165	0.549135
H68	H	-1.016708	-0.241690	0.412034
H69	H	-0.508984	0.149492	0.000144
O70	O	-0.688687	0.162593	-0.000093
C71	C	-0.743664	0.167969	-0.117679
H72	H	-0.749021	0.068914	-0.156880
H73	H	-0.814058	0.214318	-0.091252
H74	H	-0.712373	0.225020	-0.199984
O75	O	-0.628753	-0.512902	0.000117
C76	C	-0.558215	-0.611595	0.000082
H77	H	-0.494116	-0.576508	0.043052
H78	H	-0.578363	-0.691800	0.065982
H79	H	-0.545126	-0.646283	-0.108813
H80	H	-0.357863	0.039547	0.000116
H81	H	-0.452459	-0.490226	0.000053
O82	O	-0.312337	-0.390408	0.000149
C83	C	-0.221395	-0.363586	0.000117
H84	H	-0.217183	-0.265565	0.043088
H85	H	-0.179236	-0.435229	0.066018
H86	H	-0.194229	-0.368275	-0.108777
