data_functionalizedCrystal
_audit_creation_method	'MofGen! by Chris Wilmer'
_symmetry_space_group_name_H-M	'P1'
_symmetry_Int_Tables_number	1
_symmetry_cell_setting	triclinic
loop_
_symmetry_equiv_pos_as_xyz
  x,y,z
_cell_length_a	23.532407
_cell_length_b	14.971486
_cell_length_c	22.010155
_cell_angle_alpha	90.004049
_cell_angle_beta	89.994271
_cell_angle_gamma	83.231437
loop_
_atom_site_label
_atom_site_type_symbol
_atom_site_fract_x
_atom_site_fract_y
_atom_site_fract_z
O1	O	-0.755729	-0.108567	0.050487
O2	O	-0.255729	0.391433	0.550487
O3	O	-0.589933	-0.124277	0.050497
O4	O	-0.089933	0.375723	0.550497
O5	O	-0.677274	0.013825	0.050487
O6	O	-0.177274	0.513825	0.550487
O7	O	-0.668387	-0.246669	0.050497
O8	O	-0.168387	0.253331	0.550497
O9	O	-0.677258	0.013804	-0.050563
O10	O	-0.177258	0.513804	0.449437
O11	O	-0.589917	-0.124298	-0.050553
O12	O	-0.089917	0.375702	0.449447
O13	O	-0.755713	-0.108588	-0.050563
O14	O	-0.255713	0.391412	0.449437
Cu15	Cu	-0.672813	-0.116445	-0.059785
Cu16	Cu	-0.172813	0.383555	0.440215
Cu17	Cu	-0.672832	-0.116420	0.059719
Cu18	Cu	-0.172832	0.383580	0.559719
O19	O	-0.668371	-0.246690	-0.050554
O20	O	-0.168371	0.253310	0.449446
C21	C	-0.568707	-0.123887	-0.000027
C22	C	-0.068707	0.376113	0.499973
C23	C	-0.505485	-0.122684	-0.000024
C24	C	-0.005485	0.377316	0.499976
C25	C	-0.676869	0.047135	-0.000038
C26	C	-0.176869	0.547135	0.499962
C27	C	-0.675678	0.146420	-0.000037
C28	C	-0.175678	0.646420	0.499963
C29	C	-0.776938	-0.108977	-0.000038
C30	C	-0.276938	0.391023	0.499962
C31	C	-0.840161	-0.110180	-0.000037
C32	C	-0.340161	0.389820	0.499963
C33	C	-0.238946	-0.035998	-0.000043
C34	C	0.261054	0.464002	0.499957
C35	C	-0.298351	-0.037116	-0.000043
C36	C	0.201649	0.462884	0.499957
O37	O	-0.334801	0.031652	-0.000066
O38	O	0.165199	0.531652	0.499934
N39	N	-0.321329	-0.119217	-0.000036
N40	N	0.178671	0.380783	0.499964
C41	C	-0.284898	-0.200207	-0.000035
C42	C	0.215102	0.299793	0.499965
O43	O	-0.309897	-0.270143	-0.000030
O44	O	0.190103	0.229857	0.499970
C45	C	-0.225494	-0.199089	-0.000040
C46	C	0.274506	0.300911	0.499960
C47	C	-0.202520	-0.116982	-0.000041
C48	C	0.297480	0.383018	0.499959
C49	C	-0.215971	0.046102	-0.000045
C50	C	0.284029	0.546102	0.499955
C51	C	-0.156570	0.047219	-0.000044
C52	C	0.343430	0.547219	0.499956
C53	C	-0.120144	-0.033764	-0.000041
C54	C	0.379856	0.466236	0.499959
C55	C	-0.143119	-0.115865	-0.000040
C56	C	0.356881	0.384135	0.499960
C57	C	-0.189065	-0.280077	-0.000044
C58	C	0.310935	0.219923	0.499956
C59	C	-0.129657	-0.278952	-0.000049
C60	C	0.370343	0.221048	0.499951
C61	C	-0.106683	-0.196845	-0.000049
C62	C	0.393317	0.303155	0.499951
C63	C	-0.047292	-0.195731	-0.000036
C64	C	0.452708	0.304269	0.499964
N65	N	-0.024314	-0.113629	-0.000043
N66	N	0.475686	0.386371	0.499957
C67	C	-0.060740	-0.032646	-0.000046
C68	C	0.439260	0.467354	0.499954
C69	C	-0.409651	-0.202549	-0.000027
C70	C	0.090349	0.297451	0.499973
C71	C	-0.469053	-0.203668	-0.000018
C72	C	0.030947	0.296332	0.499982
C73	C	-0.482502	-0.040577	-0.000027
C74	C	0.017498	0.459423	0.499973
C75	C	-0.423098	-0.039458	-0.000031
C76	C	0.076902	0.460542	0.499969
C77	C	-0.386673	-0.120447	-0.000034
C78	C	0.113327	0.379553	0.499966
C79	C	0.064007	-0.030306	-0.000043
C80	C	0.564007	0.469694	0.499957
C81	C	0.123413	-0.029197	-0.000040
C82	C	0.623413	0.470803	0.499960
C83	C	0.136857	-0.192288	-0.000034
C84	C	0.636857	0.307712	0.499966
C85	C	0.077455	-0.193398	-0.000035
C86	C	0.577455	0.306602	0.499965
C87	C	0.041031	-0.112400	-0.000041
C88	C	0.541031	0.387600	0.499959
O89	O	-0.010807	-0.264462	-0.000015
O90	O	0.489193	0.235538	0.499985
O91	O	-0.035733	0.037279	-0.000059
O92	O	0.464267	0.537279	0.499941
N93	N	-0.672804	-0.116461	-0.143838
N94	N	-0.172804	0.383539	0.356162
C95	C	-0.668776	-0.280000	-0.000027
C96	C	-0.168776	0.220000	0.499973
C97	C	-0.669967	-0.379284	-0.000024
C98	C	-0.169967	0.120716	0.499976
C99	C	-0.726989	0.204187	-0.000040
C100	C	-0.226989	0.704187	0.499960
C101	C	-0.725866	0.297475	-0.000034
C102	C	-0.225866	0.797475	0.499966
C103	C	-0.673432	0.332993	-0.000029
C104	C	-0.173432	0.832993	0.499971
C105	C	-0.622117	0.275218	-0.000024
C106	C	-0.122117	0.775218	0.499976
C107	C	-0.623240	0.181933	-0.000025
C108	C	-0.123240	0.681933	0.499975
C109	C	-0.619780	0.469656	-0.000021
C110	C	-0.119780	0.969656	0.499979
C111	C	-0.618657	0.562948	-0.000021
C112	C	-0.118657	1.062948	0.499979
C113	C	-0.722406	0.585198	-0.000030
C114	C	-0.222406	1.085198	0.499970
C115	C	-0.723529	0.491913	-0.000032
C116	C	-0.223529	0.991913	0.499968
C117	C	-0.672214	0.434144	-0.000028
C118	C	-0.172214	0.934144	0.499972
C119	C	-0.711509	-0.055277	-0.563621
C120	C	-0.211509	0.444723	-0.063621
C121	C	-0.711512	-0.055271	-0.627229
C122	C	-0.211512	0.444729	-0.127229
O123	O	-0.744397	-0.003262	-0.660124
O124	O	-0.244397	0.496738	-0.160124
N125	N	-0.672832	-0.116401	-0.659045
N126	N	-0.172832	0.383599	-0.159045
C127	C	-0.634142	-0.177536	-0.627250
C128	C	-0.134142	0.322464	-0.127250
O129	O	-0.601242	-0.229531	-0.660152
O130	O	-0.101242	0.270469	-0.160152
C131	C	-0.634138	-0.177537	-0.563643
C132	C	-0.134138	0.322463	-0.063643
C133	C	-0.672824	-0.116409	-0.531831
C134	C	-0.172824	0.383591	-0.031831
C135	C	-0.750192	0.005847	-0.531808
C136	C	-0.250192	0.505847	-0.031808
C137	C	-0.750190	0.005840	-0.468205
C138	C	-0.250190	0.505840	0.031795
C139	C	-0.711505	-0.055292	-0.436415
C140	C	-0.211505	0.444708	0.063585
C141	C	-0.672822	-0.116416	-0.468227
C142	C	-0.172822	0.383584	0.031773
C143	C	-0.595446	-0.238667	-0.531849
C144	C	-0.095446	0.261333	-0.031849
C145	C	-0.595444	-0.238662	-0.468239
C146	C	-0.095444	0.261338	0.031761
C147	C	-0.634131	-0.177534	-0.436426
C148	C	-0.134131	0.322466	0.063574
C149	C	-0.634135	-0.177555	-0.372834
C150	C	-0.134135	0.322445	0.127166
N151	N	-0.672815	-0.116425	-0.341018
N152	N	-0.172815	0.383575	0.158982
C153	C	-0.711500	-0.055293	-0.372808
C154	C	-0.211500	0.444707	0.127192
C155	C	-0.634155	-0.177528	-0.760827
C156	C	-0.134155	0.322472	-0.260827
C157	C	-0.634162	-0.177531	-0.824433
C158	C	-0.134162	0.322469	-0.324433
C159	C	-0.711531	-0.055265	-0.824407
C160	C	-0.211531	0.444735	-0.324407
C161	C	-0.711526	-0.055266	-0.760801
C162	C	-0.211526	0.444734	-0.260801
C163	C	-0.672835	-0.116397	-0.729012
C164	C	-0.172835	0.383603	-0.229012
C165	C	-0.711493	-0.055314	-0.239237
C166	C	-0.211493	0.444686	0.260763
C167	C	-0.711489	-0.055330	-0.175628
C168	C	-0.211489	0.444670	0.324372
C169	C	-0.634119	-0.177592	-0.175659
C170	C	-0.134119	0.322408	0.324341
C171	C	-0.634124	-0.177580	-0.239262
C172	C	-0.134124	0.322420	0.260738
C173	C	-0.672814	-0.116434	-0.271050
C174	C	-0.172814	0.383566	0.228950
O175	O	-0.601265	-0.229536	-0.339898
O176	O	-0.101265	0.270464	0.160102
O177	O	-0.744390	-0.003299	-0.339898
O178	O	-0.244390	0.496701	0.160102
N179	N	-0.672846	-0.116396	0.143771
N180	N	-0.172846	0.383604	0.643771
H181	H	0.142115	0.037667	-0.000039
H182	H	0.642115	0.537667	0.499961
F183	F	0.025249	0.055901	-0.000050
F184	F	0.525249	0.555901	0.499950
F185	F	-0.562850	0.600748	-0.000016
F186	F	-0.062850	1.100748	0.499984
F187	F	-0.782797	0.166395	-0.000052
F188	F	-0.282797	0.666395	0.499948
H189	H	-0.487753	-0.270528	-0.000009
H190	H	0.012247	0.229472	0.499991
F191	F	-0.565164	0.408176	-0.000016
F192	F	-0.065164	0.908176	0.499984
H193	H	-0.137870	0.114079	-0.000047
H194	H	0.362130	0.614079	0.499953
H195	H	-0.245624	0.112052	-0.000049
H196	H	0.254376	0.612052	0.499951
H197	H	-0.100002	-0.344905	-0.000053
H198	H	0.399998	0.155095	0.499947
H199	H	-0.742995	-0.005551	-0.149728
H200	H	-0.242995	0.494449	0.350272
H201	H	-0.404397	0.027400	-0.000032
H202	H	0.095603	0.527400	0.499968
F203	F	-0.592976	-0.242602	-0.727000
F204	F	-0.092976	0.257398	-0.227000
F205	F	-0.568628	0.120452	-0.000020
F206	F	-0.068628	0.620452	0.499980
H207	H	-0.602628	-0.227365	-0.265165
H208	H	-0.102628	0.272635	0.234835
F209	F	-0.777020	0.646680	-0.000032
F210	F	-0.277020	1.146680	0.499968
F211	F	-0.521280	0.045614	-0.000029
F212	F	-0.021280	0.545614	0.499971
F213	F	-0.566313	0.313022	-0.000011
F214	F	-0.066313	0.813022	0.499989
F215	F	-0.752701	0.009795	-0.726949
F216	F	-0.252701	0.509795	-0.226949
H217	H	0.058749	-0.260256	-0.000033
H218	H	0.558749	0.239744	0.499967
F219	F	-0.370888	-0.288755	-0.000023
F220	F	0.129112	0.211245	0.499977
F221	F	0.175634	-0.278472	-0.000028
F222	F	0.675634	0.221528	0.499972
H223	H	-0.207760	-0.346938	-0.000040
H224	H	0.292240	0.153062	0.499960
H225	H	-0.767649	0.344506	-0.000038
H226	H	-0.267649	0.844506	0.499962
F227	F	-0.752702	0.009798	-0.858253
F228	F	-0.252702	0.509798	-0.358253
F229	F	-0.791363	0.070904	-0.434354
F230	F	-0.291363	0.570904	0.065646
F231	F	-0.779335	0.454113	-0.000036
F232	F	-0.279335	0.954113	0.499964
H233	H	-0.742997	-0.005522	-0.265111
H234	H	-0.242997	0.494478	0.234889
F235	F	-0.592994	-0.242603	-0.858284
F236	F	-0.092994	0.257397	-0.358284
F237	F	-0.791369	0.070918	-0.565633
F238	F	-0.291369	0.570918	-0.065633
F239	F	-0.554270	-0.303727	-0.565695
F240	F	-0.054270	0.196273	-0.065695
H241	H	-0.563936	-0.288441	-0.442359
H242	H	-0.063936	0.211559	0.057641
H243	H	-0.602623	-0.227368	-0.149765
H244	H	-0.102623	0.272632	0.350235
