data_functionalizedCrystal
_audit_creation_method	'MofGen! by Chris Wilmer'
_symmetry_space_group_name_H-M	'P1'
_symmetry_Int_Tables_number	1
_symmetry_cell_setting	triclinic
loop_
_symmetry_equiv_pos_as_xyz
  x,y,z
_cell_length_a	16.974810
_cell_length_b	10.723023
_cell_length_c	16.053802
_cell_angle_alpha	92.591403
_cell_angle_beta	88.925582
_cell_angle_gamma	96.071486
loop_
_atom_site_label
_atom_site_type_symbol
_atom_site_fract_x
_atom_site_fract_y
_atom_site_fract_z
O1	O	-1.049935	0.159094	0.001547
O2	O	-0.820577	0.178190	-0.013959
O3	O	-0.940546	-0.012988	-0.005845
O4	O	-0.929965	0.350272	-0.006566
O5	O	-0.933943	-0.002509	0.132567
O6	O	-0.813973	0.188669	0.124454
O7	O	-1.043331	0.169573	0.139959
Zn8	Zn	-0.927603	0.180785	0.154183
Zn9	Zn	-0.936304	0.166978	-0.028182
O10	O	-0.923361	0.360751	0.131846
C11	C	-0.787907	0.182510	0.053262
C12	C	-0.700400	0.179757	0.047346
C13	C	-0.936475	-0.054240	0.063308
C14	C	-0.934171	-0.192771	0.063149
C15	C	-0.655693	0.184172	0.120017
C16	C	-0.573472	0.181565	0.114461
C17	C	-0.535958	0.174551	0.036233
C18	C	-0.580671	0.170131	-0.036444
C19	C	-0.662891	0.172729	-0.030887
C20	C	-0.290443	0.166158	0.011523
C21	C	-0.208217	0.163564	0.005971
C22	C	-0.201024	0.174996	0.156877
C23	C	-0.283246	0.177601	0.162427
C24	C	-0.327951	0.173175	0.089750
N25	N	-0.451915	0.171889	0.030552
N26	N	-0.411994	0.175827	0.095432
C27	C	-0.934185	-0.403127	-0.008786
C28	C	-0.936565	-0.259948	-0.008623
C29	C	-0.076001	0.165246	0.072736
C30	C	-0.163511	0.167980	0.078642
C31	C	-0.927433	0.402003	0.062691
C32	C	-0.929737	0.540534	0.062845
N33	N	-0.921671	0.190208	0.278642
N34	N	-0.942242	0.157546	-0.152640
C35	C	-0.972737	0.108890	0.325789
C36	C	-0.968595	0.115493	0.412916
C37	C	-0.913390	0.203420	0.452894
C38	C	-0.862318	0.284741	0.405740
C39	C	-0.866457	0.278132	0.318614
C40	C	-0.895310	0.232257	0.713080
C41	C	-0.891176	0.238863	0.800212
C42	C	-0.997453	0.069613	0.807382
C43	C	-1.001590	0.063016	0.720255
C44	C	-0.950516	0.144332	0.673109
N45	N	-0.909156	0.210174	0.541951
N46	N	-0.954746	0.137571	0.584053
H47	H	-0.686230	0.189894	0.183719
C48	C	-0.926973	-0.381442	0.145860
C49	C	-0.992026	-0.408448	0.212721
C50	C	-0.989262	-0.330428	0.295739
C51	C	-0.921445	-0.225400	0.311897
C52	C	-0.856387	-0.198388	0.245034
C53	C	-0.859151	-0.276409	0.162016
H54	H	-1.042233	-0.486201	0.200762
H55	H	-1.037422	-0.350424	0.345235
H56	H	-0.919399	-0.167644	0.373352
H57	H	-0.806180	-0.120636	0.256994
H58	H	-0.810990	-0.256413	0.112520
C59	C	-1.033465	0.012167	0.281818
C60	C	-1.089633	-0.077286	0.333684
C61	C	-1.150360	-0.174015	0.289716
C62	C	-1.154920	-0.181292	0.193882
C63	C	-1.098750	-0.091837	0.142011
C64	C	-1.038023	0.004893	0.185979
H65	H	-1.086259	-0.071901	0.404631
H66	H	-1.191941	-0.240235	0.328115
H67	H	-1.199874	-0.252897	0.161334
H68	H	-1.102124	-0.097221	0.071064
H69	H	-0.996442	0.071113	0.147579
H70	H	-1.010177	0.049277	0.451303
H71	H	-0.824873	0.344347	0.280227
C72	C	-1.062312	-0.033708	0.676276
C73	C	-1.066860	-0.040969	0.580442
C74	C	-1.127584	-0.137689	0.536460
C75	C	-1.183759	-0.227148	0.588313
C76	C	-1.179213	-0.219890	0.684153
C77	C	-1.118489	-0.123170	0.728135
H78	H	-1.025274	0.025257	0.542052
H79	H	-1.130949	-0.143061	0.465512
H80	H	-1.228711	-0.298745	0.555755
H81	H	-1.220799	-0.286116	0.722543
H82	H	-1.115124	-0.117798	0.799082
C83	C	-0.712072	0.167876	-0.110825
C84	C	-0.712104	0.054548	-0.173268
C85	C	-0.761285	0.049688	-0.253209
C86	C	-0.810434	0.158157	-0.270707
C87	C	-0.810403	0.271494	-0.208263
C88	C	-0.761222	0.276354	-0.128322
H89	H	-0.675720	-0.025755	-0.160316
H90	H	-0.761307	-0.034212	-0.299434
H91	H	-0.846840	0.154559	-0.329884
H92	H	-0.846788	0.351796	-0.221214
H93	H	-0.761200	0.360254	-0.082096
H94	H	-1.039034	0.003407	0.845777
H95	H	-0.550121	0.164411	-0.100139
H96	H	-0.930354	-0.241233	0.124477
C97	C	-0.941715	-0.194479	-0.091476
C98	C	-1.012709	-0.230907	-0.149139
C99	C	-1.017859	-0.165435	-0.231995
C100	C	-0.952015	-0.063536	-0.257187
C101	C	-0.881016	-0.027103	-0.199523
C102	C	-0.875866	-0.092575	-0.116667
H103	H	-1.061456	-0.306343	-0.130492
H104	H	-1.070418	-0.192406	-0.274682
H105	H	-0.955828	-0.015070	-0.318522
H106	H	-0.832269	0.048333	-0.218171
H107	H	-0.823307	-0.065604	-0.073980
H108	H	-0.164616	0.178597	0.216046
H109	H	-0.537078	0.185140	0.173638
H110	H	-0.313784	0.183307	0.226128
C111	C	-0.166954	0.155842	-0.080087
C112	C	-0.103054	0.260746	-0.105232
C113	C	-0.061792	0.253028	-0.191286
C114	C	-0.084429	0.140405	-0.252196
C115	C	-0.148332	0.035492	-0.227052
C116	C	-0.189594	0.043210	-0.140998
H117	H	-0.086294	0.344124	-0.060142
H118	H	-0.014487	0.330692	-0.209899
H119	H	-0.053885	0.134691	-0.315898
H120	H	-0.165092	-0.047886	-0.272142
H121	H	-0.236899	-0.034453	-0.122386
C122	C	-0.830443	0.335587	0.844186
C123	C	-0.774264	0.425028	0.792323
C124	C	-0.713535	0.521750	0.836296
C125	C	-0.708985	0.529031	0.932130
C126	C	-0.765166	0.439587	0.983998
C127	C	-0.825895	0.342865	0.940026
H128	H	-0.777630	0.419641	0.721376
H129	H	-0.671946	0.587962	0.797899
H130	H	-0.664029	0.600630	0.964681
H131	H	-0.761799	0.444974	1.054945
H132	H	-0.867483	0.276653	0.978422
H133	H	-0.853724	0.298471	0.674701
C134	C	-0.801591	0.381465	0.449711
C135	C	-0.797071	0.388805	0.545547
C136	C	-0.736344	0.485535	0.589515
C137	C	-0.680136	0.574923	0.537647
C138	C	-0.684653	0.567586	0.441804
C139	C	-0.745381	0.470856	0.397836
H140	H	-0.838682	0.322632	0.583948
H141	H	-0.733000	0.490966	0.660464
H142	H	-0.635182	0.646528	0.570194
H143	H	-0.643043	0.633759	0.403403
H144	H	-0.748724	0.465425	0.326888
H145	H	-0.326833	0.162550	-0.047656
H146	H	-0.936235	-0.460894	-0.070232
