data_functionalizedCrystal
_audit_creation_method	'MofGen! by Chris Wilmer'
_symmetry_space_group_name_H-M	'P1'
_symmetry_Int_Tables_number	1
_symmetry_cell_setting	triclinic
loop_
_symmetry_equiv_pos_as_xyz
  x,y,z
_cell_length_a	12.759401
_cell_length_b	18.215405
_cell_length_c	12.759393
_cell_angle_alpha	89.963415
_cell_angle_beta	89.982862
_cell_angle_gamma	90.023929
loop_
_atom_site_label
_atom_site_type_symbol
_atom_site_fract_x
_atom_site_fract_y
_atom_site_fract_z
Zn1	Zn	1.606166	-0.292967	-0.593939
Zn2	Zn	1.606034	-0.416051	-0.418241
Zn3	Zn	1.430473	-0.293001	-0.418279
Zn4	Zn	1.430426	-0.415994	-0.593882
O5	O	1.518275	-0.354503	-0.506085
O6	O	1.753170	-0.309304	-0.570641
O7	O	1.582709	-0.399766	-0.271225
O8	O	1.453854	-0.190012	-0.441620
O9	O	1.753072	-0.399733	-0.441556
O10	O	1.582935	-0.189987	-0.570677
O11	O	1.453725	-0.309362	-0.271253
O12	O	1.283445	-0.309307	-0.441565
O13	O	1.453774	-0.399636	-0.740911
O14	O	1.283411	-0.399669	-0.570580
O15	O	1.582890	-0.309249	-0.740953
O16	O	1.582664	-0.519028	-0.441501
O17	O	1.453645	-0.518986	-0.570544
C18	C	1.245307	-0.354486	-0.506071
C19	C	1.128531	-0.354496	-0.506090
C20	C	1.073712	-0.307498	-0.573408
C21	C	0.963988	-0.307513	-0.573415
C22	C	0.963910	-0.401529	-0.438781
C23	C	1.073632	-0.401510	-0.438770
C24	C	1.073756	-0.253221	-0.651141
C25	C	0.964032	-0.253235	-0.651148
C26	C	1.518164	-0.545710	-0.506035
C27	C	1.518212	-0.627508	-0.506048
C28	C	1.585550	-0.815700	-0.438979
C29	C	1.585597	-0.892558	-0.439005
C30	C	1.451134	-0.892555	-0.573267
C31	C	1.451093	-0.815697	-0.573246
C32	C	1.518299	-0.777272	-0.506096
C33	C	1.518387	-0.930988	-0.506143
C34	C	1.518438	-1.014322	-0.506171
C35	C	1.518250	-0.693933	-0.506069
C36	C	1.792308	-0.354521	-0.506101
C37	C	1.909084	-0.354529	-0.506107
C38	C	1.518341	-0.354432	-0.780119
C39	C	1.518370	-0.354402	-0.896896
C40	C	1.518415	-0.162550	-0.506159
C41	C	1.518474	-0.080751	-0.506191
C42	C	1.585582	-0.401425	-1.061464
C43	C	1.585542	-0.401456	-0.951740
C44	C	1.451224	-0.307319	-0.951781
C45	C	1.451259	-0.307292	-1.061503
C46	C	1.663133	-0.455772	-1.061440
C47	C	1.663093	-0.455804	-0.951716
C48	C	1.518268	-0.354521	-0.233118
C49	C	1.518444	-0.354344	-0.116342
H50	H	1.107814	-0.273699	-0.728376
H51	H	1.744463	-0.440545	-0.921941
H52	H	0.919199	-0.439806	-0.383972
H53	H	1.396415	-0.923850	-0.627936
C54	C	1.849161	-0.473723	-1.073485
C55	C	1.767507	-0.428208	-1.107402
H56	H	1.913594	-0.456706	-1.101867
H57	H	1.852685	-0.472799	-0.999142
H58	H	1.836587	-0.522533	-1.096463
H59	H	1.780076	-0.379400	-1.084418
H60	H	1.763984	-0.429125	-1.181762
H61	H	1.633923	-0.509962	-0.917665
H62	H	1.396525	-0.269011	-0.907118
H63	H	1.640361	-0.923843	-0.384353
C64	C	0.952094	-0.122953	-0.677170
C65	C	0.918121	-0.180101	-0.612029
H66	H	0.923754	-0.077802	-0.653025
H67	H	1.026440	-0.120481	-0.675831
H68	H	0.929110	-0.131816	-0.746832
H69	H	0.941112	-0.171241	-0.542368
H70	H	0.843759	-0.182573	-0.613357
C71	C	1.062530	-0.494434	-0.305684
C72	C	1.133890	-0.453166	-0.364764
H73	H	1.099732	-0.526327	-0.259998
H74	H	1.019728	-0.462340	-0.265594
H75	H	1.019744	-0.522633	-0.351396
H76	H	1.176670	-0.424962	-0.319051
H77	H	1.176710	-0.485264	-0.404856
C78	C	1.309963	-0.297053	-1.184875
C79	C	1.377435	-0.255550	-1.121817
H80	H	1.264377	-0.265109	-1.222101
H81	H	1.349977	-0.325057	-1.233242
H82	H	1.269764	-0.329131	-1.142041
H83	H	1.417640	-0.223476	-1.164652
H84	H	1.337417	-0.227534	-1.073444
C85	C	1.615751	-0.579386	-1.016238
C86	C	1.633665	-0.532700	-1.101616
H87	H	1.597552	-0.626875	-1.041044
H88	H	1.677476	-0.582500	-0.974883
H89	H	1.560061	-0.560449	-0.974893
H90	H	1.689360	-0.551635	-1.142956
H91	H	1.571933	-0.529589	-1.142988
H92	H	1.103538	-0.196200	-0.629496
C93	C	1.399786	-0.791959	-0.751099
C94	C	1.377163	-0.773453	-0.647027
H95	H	1.354144	-0.765881	-0.796645
H96	H	1.470352	-0.779313	-0.766526
H97	H	1.390185	-0.843232	-0.760707
H98	H	1.386771	-0.722180	-0.637416
H99	H	1.306580	-0.786094	-0.631594
C100	C	1.009239	-0.286290	-0.827598
C101	C	0.923859	-0.273802	-0.760993
H102	H	0.984435	-0.298947	-0.895422
H103	H	1.050662	-0.243058	-0.831972
H104	H	1.050515	-0.325343	-0.800575
H105	H	0.882587	-0.234745	-0.788011
H106	H	0.882419	-0.317039	-0.756621
H107	H	1.640275	-0.784415	-0.384304
