data_functionalizedCrystal
_audit_creation_method	'MofGen! by Chris Wilmer'
_symmetry_space_group_name_H-M	'P1'
_symmetry_Int_Tables_number	1
_symmetry_cell_setting	triclinic
loop_
_symmetry_equiv_pos_as_xyz
  x,y,z
_cell_length_a	29.839131
_cell_length_b	21.395364
_cell_length_c	21.395355
_cell_angle_alpha	89.974702
_cell_angle_beta	90.020172
_cell_angle_gamma	89.941879
loop_
_atom_site_label
_atom_site_type_symbol
_atom_site_fract_x
_atom_site_fract_y
_atom_site_fract_z
Zn1	Zn	-0.178705	-0.957813	0.354267
Zn2	Zn	-0.253820	-0.957696	0.249486
Zn3	Zn	-0.178727	-0.853028	0.249502
Zn4	Zn	-0.253831	-0.852977	0.354225
O5	O	-0.216271	-0.905378	0.301870
O6	O	-0.188656	-1.045475	0.340378
O7	O	-0.243864	-0.943783	0.161810
O8	O	-0.115857	-0.866998	0.263423
O9	O	-0.243843	-1.045389	0.263396
O10	O	-0.115841	-0.943983	0.340394
O11	O	-0.188693	-0.866884	0.161822
O12	O	-0.188703	-0.765343	0.263383
O13	O	-0.243860	-0.866912	0.441908
O14	O	-0.243882	-0.765306	0.340322
O15	O	-0.188666	-0.943934	0.441939
O16	O	-0.316689	-0.943734	0.263356
O17	O	-0.316697	-0.866798	0.340307
C18	C	-0.216296	-0.742591	0.301850
C19	C	-0.216318	-0.672949	0.301857
C20	C	-0.187630	-0.640303	0.342003
C21	C	-0.187619	-0.574868	0.342004
C22	C	-0.216305	-0.542081	0.301866
C23	C	-0.244995	-0.574735	0.261713
C24	C	-0.245002	-0.640169	0.261708
C25	C	-0.256765	-0.438346	0.296826
C26	C	-0.256759	-0.372913	0.296835
C27	C	-0.216285	-0.340260	0.301878
C28	C	-0.175815	-0.373048	0.306924
C29	C	-0.175821	-0.438483	0.306919
C30	C	-0.216301	-0.471129	0.301867
C31	C	-0.187583	-0.236662	0.342028
C32	C	-0.187572	-0.171225	0.342025
C33	C	-0.244951	-0.171093	0.261736
C34	C	-0.244958	-0.236529	0.261736
C35	C	-0.216275	-0.269309	0.301885
C36	C	-0.332994	-0.905265	0.301839
C37	C	-0.382928	-0.905274	0.301847
C38	C	-0.692555	-0.945512	0.261860
C39	C	-0.880228	-0.945589	0.261884
O40	O	-0.904478	-0.979711	0.227863
N41	N	-0.903713	-0.905508	0.301917
C42	C	-0.880277	-0.865408	0.341950
O43	O	-0.904559	-0.831323	0.376005
C44	C	-0.692605	-0.865334	0.341928
C45	C	-0.669122	-0.905413	0.301888
C46	C	-0.669072	-0.985588	0.221824
C47	C	-0.622156	-0.985566	0.221816
C48	C	-0.598724	-0.945467	0.261844
C49	C	-0.622207	-0.905391	0.301880
C50	C	-0.669170	-0.825238	0.381963
C51	C	-0.622249	-0.825224	0.381956
C52	C	-0.598766	-0.865303	0.341916
C53	C	-0.551859	-0.865271	0.341900
N54	N	-0.528373	-0.905351	0.301867
C55	C	-0.551806	-0.945450	0.261839
C56	C	-0.978808	-0.865449	0.341957
C57	C	-1.025725	-0.865466	0.341962
C58	C	-1.025673	-0.945648	0.261897
C59	C	-0.978754	-0.945627	0.261890
C60	C	-0.955322	-0.905530	0.301925
C61	C	-0.453280	-0.945400	0.261825
C62	C	-0.406361	-0.945372	0.261818
C63	C	-0.406417	-0.865193	0.341885
C64	C	-0.453333	-0.865218	0.341890
C65	C	-0.476763	-0.905326	0.301857
O66	O	-0.527579	-0.831172	0.375909
O67	O	-0.527516	-0.979540	0.227799
C68	C	-0.739470	-0.945534	0.261868
C69	C	-0.762953	-0.905458	0.301904
C70	C	-0.739520	-0.865359	0.341932
C71	C	-0.809871	-0.905475	0.301909
C72	C	-0.833303	-0.945574	0.261881
C73	C	-0.809818	-0.985654	0.221848
C74	C	-0.762903	-0.985632	0.221840
C75	C	-0.763006	-0.825278	0.381965
C76	C	-0.809921	-0.825303	0.381970
C77	C	-0.833354	-0.865402	0.341942
C78	C	-0.099093	-0.905509	0.301915
C79	C	-0.049158	-0.905565	0.301934
C80	C	-0.216262	-0.905430	0.465293
C81	C	-0.216258	-0.905452	0.534935
C82	C	-0.216251	-0.068802	0.301887
C83	C	-0.216257	-0.138443	0.301886
C84	C	-0.216248	-0.905363	0.139082
C85	C	-0.216125	-0.905462	0.069442
C86	C	-0.187517	-0.945556	0.567665
C87	C	-0.187498	-0.945555	0.633100
C88	C	-0.216227	-0.905457	0.665803
C89	C	-0.244970	-0.865346	0.633065
C90	C	-0.244986	-0.865343	0.567631
C91	C	-0.256679	-0.900471	0.769467
C92	C	-0.256665	-0.900478	0.834900
C93	C	-0.216180	-0.905461	0.867624
C94	C	-0.175708	-0.910451	0.834907
C95	C	-0.175723	-0.910449	0.769473
C96	C	-0.216214	-0.905455	0.736755
C97	C	-0.187415	-0.945566	0.971307
C98	C	-0.187395	-0.945561	1.036743
C99	C	-0.244872	-0.865355	1.036707
C100	C	-0.244888	-0.865357	0.971271
C101	C	-0.216160	-0.905466	0.938575
H102	H	-0.387242	-0.978010	0.229211
O103	O	-0.694343	-1.028845	0.178653
H104	H	-0.715758	-1.000830	0.146751
H105	H	-0.268307	-0.144399	0.229055
O106	O	-0.953427	-0.988861	0.218712
H107	H	-0.977608	-1.016747	0.190884
O108	O	-0.132156	-0.337839	0.312363
H109	H	-0.110057	-0.350422	0.272582
H110	H	-0.164256	-0.548282	0.374695
O111	O	-0.835104	-1.028905	0.178682
H112	H	-0.826136	-1.018184	0.129491
H113	H	-0.289713	-0.346222	0.292729
H114	H	-1.044760	-0.978298	0.229305
H115	H	-0.164273	-0.666989	0.374695
O116	O	-0.156640	-0.272023	0.385318
H117	H	-0.164389	-0.259472	0.434475
H118	H	-0.268361	-0.832696	0.659696
H119	H	-0.959733	-0.832795	0.374559
O120	O	-0.275946	-0.675387	0.218407
H121	H	-0.295892	-0.641598	0.190496
O122	O	-0.478553	-0.988656	0.218652
H123	H	-0.469578	-0.977925	0.169466
O124	O	-0.156430	-0.988824	0.936039
H125	H	-0.161275	-0.982093	0.885039
O126	O	-0.835249	-0.782071	0.425155
H127	H	-0.826216	-0.792796	0.474336
O128	O	-0.156627	-0.136009	0.385325
H129	H	-0.136686	-0.169799	0.413243
O130	O	-0.596831	-1.028803	0.178639
H131	H	-0.621013	-1.056692	0.150816
O132	O	-1.051052	-0.822234	0.385143
H133	H	-1.026871	-0.794356	0.412979
O134	O	-0.275902	-0.271747	0.218438
H135	H	-0.295850	-0.237957	0.190529
H136	H	-0.163988	-0.978217	1.063391
O137	O	-0.132075	-0.915829	0.734186
H138	H	-0.127505	-0.873864	0.704353
H139	H	-0.289727	-0.464927	0.292719
H140	H	-0.268351	-0.548036	0.229032
O141	O	-0.156499	-0.988807	0.668423
H142	H	-0.164203	-1.037974	0.655896
H143	H	-0.688281	-0.792598	0.414565
H144	H	-0.142869	-0.465176	0.311026
H145	H	-0.268389	-0.832683	0.540982
H146	H	-0.603173	-0.792572	0.414559
O147	O	-0.381136	-0.821945	0.385054
H148	H	-0.405344	-0.794073	0.412895
H149	H	-0.472453	-0.832584	0.374495
H150	H	-0.743786	-1.018269	0.189236
H151	H	-0.142741	-0.914510	0.861549
O152	O	-0.275860	-0.822103	1.071968
H153	H	-0.271023	-0.828844	1.122968
O154	O	-0.275875	-0.822085	0.935963
H155	H	-0.295847	-0.794196	0.969694
H156	H	-0.743930	-0.792626	0.414562
O157	O	-0.156532	-0.988812	0.532398
H158	H	-0.136541	-1.016696	0.566155
H159	H	-0.289620	-0.896418	0.861533
H160	H	-0.289639	-0.896245	0.742829
