data_functionalizedCrystal
_audit_creation_method	'MofGen! by Chris Wilmer'
_symmetry_space_group_name_H-M	'P1'
_symmetry_Int_Tables_number	1
_symmetry_cell_setting	triclinic
loop_
_symmetry_equiv_pos_as_xyz
  x,y,z
_cell_length_a	14.519709
_cell_length_b	9.565339
_cell_length_c	10.489741
_cell_angle_alpha	89.999484
_cell_angle_beta	84.109659
_cell_angle_gamma	89.997945
loop_
_atom_site_label
_atom_site_type_symbol
_atom_site_fract_x
_atom_site_fract_y
_atom_site_fract_z
O1	O	1.224778	0.116077	0.167192
O2	O	0.956408	0.116120	0.186882
O3	O	1.096700	0.116089	-0.008624
O4	O	1.084487	0.116108	0.362699
O5	O	1.096689	-0.116431	-0.008612
O6	O	0.956397	-0.116400	0.186895
O7	O	1.224767	-0.116443	0.167204
Zn8	Zn	1.090580	-0.153339	0.177051
Zn9	Zn	1.090595	0.153016	0.177035
O10	O	1.084475	-0.116413	0.362711
C11	C	0.922038	-0.000135	0.185971
C12	C	0.819642	-0.000119	0.183221
C13	C	0.444691	-0.000183	0.173098
C14	C	0.549014	-0.000165	0.175909
C15	C	0.632163	-0.000150	0.178159
C16	C	0.736493	-0.000134	0.180971
N17	N	1.090577	-0.362419	0.177062
C18	C	1.025677	-0.453608	0.267447
C19	C	1.109180	-0.546799	0.292387
C20	C	1.007110	-0.546783	0.152131
C21	C	1.174122	-0.453558	0.202059
C22	C	1.071998	-0.453534	0.061753
C23	C	1.155560	-0.546683	0.086645
C24	C	1.259137	-0.000185	0.168116
C25	C	1.361533	-0.000192	0.170866
C26	C	1.095772	-0.000170	-0.056140
C27	C	1.093012	-0.000167	-0.197741
N28	N	1.090605	0.362095	0.177015
C29	C	1.003749	-0.000143	-0.264951
C30	C	1.045910	-0.114794	-0.357507
C31	C	1.045942	0.114453	-0.357493
C32	C	1.135210	-0.114913	-0.288432
C33	C	1.135230	0.114437	-0.288409
C34	C	1.177457	-0.000242	-0.380938
C35	C	1.085403	-0.000150	0.410227
C36	C	1.088163	-0.000144	0.551828
H37	H	0.970844	-0.412741	0.343953
H38	H	1.250914	-0.000318	-0.431128
H39	H	1.008136	-0.211711	-0.388119
C40	C	1.229804	-0.601571	-0.016638
N41	N	1.285727	-0.642921	-0.094422
H42	H	1.244736	-0.412780	0.223242
H43	H	0.936512	-0.587737	0.131066
H44	H	1.172972	0.211359	-0.257763
H45	H	1.056238	-0.412536	-0.035709
C46	C	0.904603	-0.000285	-0.196830
N47	N	0.829930	-0.000401	-0.145517
H48	H	1.172942	-0.211951	-0.257988
C49	C	1.130430	-0.602157	0.424093
N50	N	1.146428	-0.643853	0.523296
C51	C	0.994905	0.245399	-0.398817
N52	N	0.956458	0.344024	-0.429936
