data_functionalizedCrystal
_audit_creation_method	'MofGen! by Chris Wilmer'
_symmetry_space_group_name_H-M	'P1'
_symmetry_Int_Tables_number	1
_symmetry_cell_setting	triclinic
loop_
_symmetry_equiv_pos_as_xyz
  x,y,z
_cell_length_a	16.109301
_cell_length_b	10.654550
_cell_length_c	14.586319
_cell_angle_alpha	89.997374
_cell_angle_beta	89.999213
_cell_angle_gamma	83.973192
loop_
_atom_site_label
_atom_site_type_symbol
_atom_site_fract_x
_atom_site_fract_y
_atom_site_fract_z
O1	O	1.104091	0.161419	-0.076180
O2	O	0.862148	0.181507	-0.076194
O3	O	0.988682	-0.011352	-0.076183
O4	O	0.977557	0.354278	-0.076191
O5	O	0.988673	-0.011354	0.076297
O6	O	0.862139	0.181504	0.076287
O7	O	1.104082	0.161416	0.076301
Cu8	Cu	0.983110	0.171460	0.090216
Cu9	Cu	0.983120	0.171463	-0.090110
O10	O	0.977548	0.354275	0.076290
C11	C	0.831164	0.180692	0.000044
C12	C	0.738854	0.178253	0.000039
C13	C	0.517228	0.287019	0.000047
C14	C	0.430494	0.284717	0.000053
C15	C	0.449008	0.055896	0.000054
C16	C	0.535741	0.058199	0.000055
C17	C	0.569848	0.173764	0.000047
C18	C	0.396382	0.169159	0.000052
C19	C	0.302341	0.166662	0.000058
C20	C	0.663895	0.176262	0.000042
C21	C	0.987861	-0.058140	0.000056
C22	C	0.985417	-0.197550	0.000053
C23	C	1.059918	-0.278046	0.000060
C24	C	1.057616	-0.409036	0.000053
C25	C	0.906306	-0.379020	0.000036
C26	C	0.908608	-0.248033	0.000036
C27	C	1.136726	-0.227564	0.000076
C28	C	1.211233	-0.308061	0.000084
C29	C	1.208932	-0.439051	0.000078
C30	C	1.132123	-0.489543	0.000063
C31	C	1.135066	0.162231	0.000060
C32	C	1.227376	0.164671	0.000060
C33	C	0.978369	0.401063	0.000049
C34	C	0.980813	0.540473	0.000046
N35	N	0.983108	0.171457	0.217048
N36	N	0.983128	0.171457	-0.216942
C37	C	1.039156	0.086088	0.452059
C38	C	1.039159	0.086084	0.548041
C39	C	0.927074	0.256830	0.548040
C40	C	0.927068	0.256826	0.452061
C41	C	0.983114	0.171456	0.404073
C42	C	0.983122	0.171457	0.596034
C43	C	0.983124	0.171455	0.700101
C44	C	0.983111	0.171457	0.299999
H45	H	0.544995	0.381119	0.000048
C46	C	0.593631	-0.066388	0.000054
C47	C	0.655809	-0.096260	-0.079122
C48	C	0.713699	-0.220840	-0.079118
C49	C	0.709411	-0.315548	0.000061
C50	C	0.647230	-0.285679	0.079242
C51	C	0.589340	-0.161099	0.079238
H52	H	0.658985	-0.026149	-0.137740
H53	H	0.759729	-0.242950	-0.137734
H54	H	0.752265	-0.407770	0.000063
H55	H	0.644054	-0.355790	0.137860
H56	H	0.543310	-0.138988	0.137854
C57	C	0.865431	0.350744	0.600828
C58	C	0.865479	0.350828	0.706401
C59	C	0.803837	0.444748	0.759185
C60	C	0.742147	0.538583	0.706396
C61	C	0.742097	0.538503	0.600816
C62	C	0.803739	0.444583	0.548032
H63	H	0.911148	0.281362	0.745485
H64	H	0.803874	0.444807	0.837343
H65	H	0.696515	0.608109	0.745470
H66	H	0.696428	0.607969	0.561733
H67	H	0.803702	0.444524	0.469875
C68	C	1.100808	-0.007819	0.600827
C69	C	1.162461	-0.101708	0.548040
C70	C	1.224113	-0.195616	0.600826
C71	C	1.224111	-0.195636	0.706400
C72	C	1.162456	-0.101743	0.759193
C73	C	1.100805	-0.007835	0.706407
H74	H	1.162465	-0.101696	0.469883
H75	H	1.269754	-0.265122	0.561745
H76	H	1.269749	-0.265152	0.745476
H77	H	1.162453	-0.101754	0.837350
H78	H	1.055163	0.061671	0.745488
H79	H	0.881428	0.326344	0.412988
C80	C	0.826659	-0.159474	0.000032
C81	C	0.807447	-0.065293	-0.079151
C82	C	0.725496	0.023268	-0.079160
C83	C	0.662759	0.017650	0.000014
C84	C	0.681969	-0.076535	0.079203
C85	C	0.763920	-0.165096	0.079212
H86	H	0.853890	-0.061131	-0.137766
H87	H	0.711276	0.092990	-0.137782
H88	H	0.602094	0.083208	0.000007
H89	H	0.635526	-0.080697	0.137818
H90	H	0.778140	-0.234817	0.137833
C91	C	1.100799	-0.007826	0.399272
C92	C	1.098577	-0.150833	0.412478
C93	C	1.160219	-0.244753	0.359694
C94	C	1.224084	-0.195666	0.293704
C95	C	1.226308	-0.052652	0.280495
C96	C	1.164666	0.041268	0.333279
H97	H	1.051299	-0.187176	0.461330
H98	H	1.158572	-0.350621	0.369472
H99	H	1.269715	-0.265191	0.254630
H100	H	1.273586	-0.016309	0.231643
H101	H	1.166312	0.147136	0.323501
H102	H	0.387654	0.376940	0.000056
C103	C	1.295719	-0.252525	0.000097
C104	C	1.318103	-0.166615	0.079283
C105	C	1.402591	-0.111083	0.079294
C106	C	1.464694	-0.141460	0.000118
C107	C	1.442312	-0.227374	-0.079074
C108	C	1.357824	-0.282907	-0.079085
H109	H	1.272129	-0.144125	0.137899
H110	H	1.419160	-0.047483	0.137918
H111	H	1.527237	-0.100351	0.000127
H112	H	1.488286	-0.249865	-0.137690
H113	H	1.341255	-0.346506	-0.137709
H114	H	0.421227	-0.038193	0.000066
H115	H	1.138609	-0.120907	0.000084
H116	H	1.269599	-0.504589	0.000075
H117	H	1.130255	-0.596205	0.000048
H118	H	0.843772	-0.420141	0.000026
