data_functionalizedCrystal
_audit_creation_method	'MofGen! by Chris Wilmer'
_symmetry_space_group_name_H-M	'P1'
_symmetry_Int_Tables_number	1
_symmetry_cell_setting	triclinic
loop_
_symmetry_equiv_pos_as_xyz
  x,y,z
_cell_length_a	12.759401
_cell_length_b	18.215405
_cell_length_c	12.759393
_cell_angle_alpha	89.962431
_cell_angle_beta	89.981504
_cell_angle_gamma	90.025046
loop_
_atom_site_label
_atom_site_type_symbol
_atom_site_fract_x
_atom_site_fract_y
_atom_site_fract_z
Zn1	Zn	1.606181	-0.292938	-0.593937
Zn2	Zn	1.606044	-0.416024	-0.418239
Zn3	Zn	1.430483	-0.292976	-0.418277
Zn4	Zn	1.430440	-0.415967	-0.593881
O5	O	1.518287	-0.354476	-0.506084
O6	O	1.753184	-0.309273	-0.570639
O7	O	1.582716	-0.399741	-0.271223
O8	O	1.453865	-0.189987	-0.441618
O9	O	1.753083	-0.399704	-0.441554
O10	O	1.582949	-0.189959	-0.570675
O11	O	1.453732	-0.309339	-0.271251
O12	O	1.283456	-0.309284	-0.441563
O13	O	1.453792	-0.399607	-0.740909
O14	O	1.283425	-0.399645	-0.570578
O15	O	1.582908	-0.309218	-0.740951
O16	O	1.582675	-0.519001	-0.441499
O17	O	1.453660	-0.518959	-0.570542
C18	C	1.245320	-0.354463	-0.506069
C19	C	1.128543	-0.354475	-0.506088
C20	C	1.518176	-0.545683	-0.506033
C21	C	1.518225	-0.627482	-0.506047
C22	C	1.073692	-0.401601	-0.573155
C23	C	0.963968	-0.401610	-0.573167
C24	C	0.963956	-0.307365	-0.439035
C25	C	1.073678	-0.307353	-0.439029
C26	C	1.073699	-0.456015	-0.650592
C27	C	0.963975	-0.456025	-0.650604
C28	C	1.585561	-0.815673	-0.438977
C29	C	1.585608	-0.892531	-0.439003
C30	C	1.451148	-0.892528	-0.573265
C31	C	1.451107	-0.815671	-0.573244
C32	C	1.518312	-0.777245	-0.506094
C33	C	1.518400	-0.930961	-0.506141
C34	C	1.518450	-1.014295	-0.506169
C35	C	1.518263	-0.693906	-0.506067
C36	C	1.792320	-0.354491	-0.506098
C37	C	1.909097	-0.354497	-0.506105
C38	C	1.518361	-0.354402	-0.780117
C39	C	1.518392	-0.354370	-0.896894
C40	C	1.518427	-0.162523	-0.506157
C41	C	1.518487	-0.080724	-0.506189
C42	C	1.585632	-0.307300	-0.951779
C43	C	1.585657	-0.307274	-1.061503
C44	C	1.451199	-0.401394	-1.061447
C45	C	1.451170	-0.401416	-0.951725
C46	C	1.663263	-0.252963	-0.951813
C47	C	1.663288	-0.252936	-1.061537
C48	C	1.518274	-0.354497	-0.233116
C49	C	1.518447	-0.354322	-0.116340
H50	H	0.919271	-0.268999	-0.384439
H51	H	0.934165	-0.513008	-0.628663
C52	C	1.113255	-0.435696	-0.759192
C53	C	1.027758	-0.423280	-0.825629
C54	C	1.064157	-0.404550	-0.925671
H55	H	1.154586	-0.474685	-0.786259
H56	H	1.154600	-0.392412	-0.754922
H57	H	0.986430	-0.466558	-0.829903
H58	H	0.986418	-0.384288	-0.798596
H59	H	1.105502	-0.361266	-0.921401
H60	H	1.105488	-0.443542	-0.952728
H61	H	1.006153	-0.396117	-0.970758
C62	C	1.658417	-0.773820	-0.366122
C63	C	1.643971	-0.698286	-0.380445
C64	C	1.711062	-0.659711	-0.313340
H65	H	1.729047	-0.786278	-0.381501
H66	H	1.643081	-0.786425	-0.295498
H67	H	1.659315	-0.685686	-0.451053
H68	H	1.573355	-0.685806	-0.365058
H69	H	1.695725	-0.672316	-0.242715
H70	H	1.781688	-0.672175	-0.328725
H71	H	1.701263	-0.608457	-0.323042
H72	H	0.929982	-0.435680	-0.727959
C73	C	1.658659	-0.934120	-0.366014
C74	C	1.717483	-0.884015	-0.307189
C75	C	1.784783	-0.922299	-0.239930
H76	H	1.704525	-0.964054	-0.406135
H77	H	1.618535	-0.964138	-0.320154
H78	H	1.757604	-0.854010	-0.353043
H79	H	1.671645	-0.854080	-0.267047
H80	H	1.744658	-0.952317	-0.194070
H81	H	1.830642	-0.952231	-0.280058
H82	H	1.824696	-0.888309	-0.200002
H83	H	1.396430	-0.923824	-0.627935
C84	C	1.378107	-0.452589	-0.892323
C85	C	1.319262	-0.493793	-0.963829
C86	C	1.251947	-0.540945	-0.909147
H87	H	1.332255	-0.424514	-0.849535
H88	H	1.418221	-0.484711	-0.849522
H89	H	1.279150	-0.461674	-1.006612
H90	H	1.365086	-0.521883	-1.006620
H91	H	1.292062	-0.573068	-0.866347
H92	H	1.206102	-0.512864	-0.866361
H93	H	1.212020	-0.568912	-0.957656
H94	H	1.396345	-0.784381	-0.627904
H95	H	1.634188	-0.198783	-1.095593
H96	H	1.396467	-0.439695	-1.106104
H97	H	1.641509	-0.195969	-0.922065
C98	C	1.771682	-0.273387	-1.101405
C99	C	1.764829	-0.337111	-1.162326
C100	C	1.864652	-0.355963	-1.199084
H101	H	1.816964	-0.281946	-1.043602
H102	H	1.798758	-0.234391	-1.142840
H103	H	1.737768	-0.376099	-1.120893
H104	H	1.719566	-0.328571	-1.220145
H105	H	1.891728	-0.316966	-1.240519
H106	H	1.909926	-0.364518	-1.141275
H107	H	1.860014	-0.399197	-1.240431
H108	H	1.118333	-0.268973	-0.384424
C109	C	1.766288	-0.280319	-0.906560
C110	C	1.784480	-0.352256	-0.940584
C111	C	1.879381	-0.377479	-0.898929
H112	H	1.762833	-0.279466	-0.832203
H113	H	1.821788	-0.249487	-0.929600
H114	H	1.728994	-0.383081	-0.917538
H115	H	1.787955	-0.353129	-1.014934
H116	H	1.934881	-0.346646	-0.921969
H117	H	1.875917	-0.376621	-0.824574
H118	H	1.891741	-0.426288	-0.922016
H119	H	1.107699	-0.510128	-0.621300
