data_functionalizedCrystal
_audit_creation_method	'MofGen! by Chris Wilmer'
_symmetry_space_group_name_H-M	'P1'
_symmetry_Int_Tables_number	1
_symmetry_cell_setting	triclinic
loop_
_symmetry_equiv_pos_as_xyz
  x,y,z
_cell_length_a	19.288859
_cell_length_b	19.288865
_cell_length_c	17.766277
_cell_angle_alpha	89.989546
_cell_angle_beta	90.010268
_cell_angle_gamma	96.865014
loop_
_atom_site_label
_atom_site_type_symbol
_atom_site_fract_x
_atom_site_fract_y
_atom_site_fract_z
O1	O	0.921356	-0.086627	0.062618
O2	O	1.254689	0.246706	0.395951
O3	O	1.588023	0.580040	0.729284
O4	O	0.719095	-0.098320	0.062617
O5	O	1.052428	0.235013	0.395950
O6	O	1.385761	0.568346	0.729284
O7	O	0.826070	0.008657	0.062602
O8	O	1.159403	0.341990	0.395936
O9	O	1.492736	0.675323	0.729269
O10	O	0.814381	-0.193604	0.062632
O11	O	1.147714	0.139729	0.395966
O12	O	1.481048	0.473062	0.729299
O13	O	0.826051	0.008660	-0.062586
O14	O	1.159384	0.341993	0.270747
O15	O	1.492717	0.675326	0.604081
O16	O	0.719076	-0.098317	-0.062571
O17	O	1.052409	0.235016	0.270762
O18	O	1.385742	0.568349	0.604095
O19	O	0.921337	-0.086624	-0.062571
O20	O	1.254670	0.246709	0.270762
O21	O	1.588003	0.580043	0.604096
Cu22	Cu	0.820204	-0.092470	-0.074002
Cu23	Cu	1.153538	0.240863	0.259331
Cu24	Cu	1.486871	0.574196	0.592665
Cu25	Cu	0.820227	-0.092474	0.074048
Cu26	Cu	1.153560	0.240859	0.407381
Cu27	Cu	1.486894	0.574193	0.740715
O28	O	0.814362	-0.193601	-0.062556
O29	O	1.147695	0.139732	0.270777
O30	O	1.481028	0.473066	0.604110
C31	C	0.693209	-0.097943	0.000022
C32	C	1.026542	0.235390	0.333356
C33	C	1.359875	0.568723	0.666689
C34	C	0.616105	-0.096816	0.000022
C35	C	0.949438	0.236517	0.333355
C36	C	1.282771	0.569851	0.666688
C37	C	0.052064	-0.151959	0.000031
C38	C	0.385397	0.181374	0.333364
C39	C	0.718731	0.514707	0.666697
C40	C	0.124511	-0.153025	0.000035
C41	C	0.457844	0.180309	0.333368
C42	C	0.791177	0.513642	0.666702
C43	C	0.169217	-0.090255	0.000024
C44	C	0.502551	0.243078	0.333358
C45	C	0.835884	0.576411	0.666691
C46	C	0.141472	-0.026416	0.000029
C47	C	0.474806	0.306917	0.333362
C48	C	0.808139	0.640251	0.666695
C49	C	0.069027	-0.025353	0.000032
C50	C	0.402360	0.307981	0.333366
C51	C	0.735694	0.641314	0.666699
C52	C	0.290481	-0.043441	-0.043845
C53	C	0.623814	0.289892	0.289489
C54	C	0.957148	0.623225	0.622822
C55	C	0.362925	-0.044507	-0.043853
C56	C	0.696258	0.288826	0.289481
C57	C	1.029591	0.622159	0.622814
C58	C	0.392663	-0.093533	0.000017
C59	C	0.725997	0.239800	0.333350
C60	C	1.059330	0.573134	0.666684
C61	C	0.349948	-0.141504	0.043885
C62	C	0.683281	0.191829	0.377218
C63	C	1.016614	0.525163	0.710552
C64	C	0.277502	-0.140440	0.043888
C65	C	0.610836	0.192893	0.377222
C66	C	0.944169	0.526226	0.710555
C67	C	0.247773	-0.091401	0.000021
C68	C	0.581106	0.241932	0.333354
C69	C	0.914440	0.575265	0.666688
C70	C	0.498955	-0.158523	0.000022
C71	C	0.832288	0.174810	0.333356
C72	C	1.165621	0.508143	0.666689
C73	C	0.571403	-0.159586	0.000031
C74	C	0.904736	0.173747	0.333364
C75	C	1.238070	0.507081	0.666698
C76	C	0.588364	-0.032976	0.000017
C77	C	0.921697	0.300358	0.333351
C78	C	1.255030	0.633691	0.666684
C79	C	0.515917	-0.031915	0.000016
C80	C	0.849250	0.301419	0.333349
C81	C	1.182583	0.634752	0.666683
C82	C	0.471216	-0.094691	0.000015
C83	C	0.804550	0.238643	0.333348
C84	C	1.137883	0.571976	0.666682
C85	C	0.825684	0.034535	0.000006
C86	C	1.159017	0.367868	0.333339
C87	C	1.492351	0.701201	0.666673
C88	C	0.824555	0.111638	-0.000001
C89	C	1.157888	0.444972	0.333333
C90	C	1.491222	0.778305	0.666666
C91	C	0.947223	-0.087001	0.000025
C92	C	1.280556	0.246332	0.333359
C93	C	1.613890	0.579666	0.666692
C94	C	1.024327	-0.088128	0.000031
C95	C	1.357660	0.245205	0.333364
C96	C	1.690993	0.578538	0.666698
N97	N	0.820194	-0.092467	-0.178132
N98	N	1.153527	0.240866	0.155201
N99	N	1.486860	0.574199	0.488534
C100	C	0.814747	-0.219479	0.000042
C101	C	1.148081	0.113854	0.333375
C102	C	1.481414	0.447188	0.666708
C103	C	0.815876	-0.296583	0.000053
C104	C	1.149210	0.036751	0.333387
C105	C	1.482543	0.370084	0.666720
C106	C	0.887323	0.156336	-0.000004
C107	C	1.220656	0.489669	0.333329
C108	C	1.553990	0.823003	0.666662
C109	C	0.886262	0.228783	0.000008
C110	C	1.219596	0.562116	0.333341
C111	C	1.552929	0.895450	0.666674
C112	C	0.822430	0.256529	0.000008
C113	C	1.155763	0.589862	0.333341
C114	C	1.489097	0.923196	0.666675
C115	C	0.759654	0.211822	0.000016
C116	C	1.092987	0.545155	0.333349
C117	C	1.426320	0.878488	0.666682
C118	C	0.760716	0.139376	0.000011
C119	C	1.094050	0.472709	0.333345
C120	C	1.427383	0.806043	0.666678
C121	C	0.772244	0.364816	-0.043843
C122	C	1.105577	0.698150	0.289490
C123	C	1.438910	1.031483	0.622824
C124	C	0.771184	0.437261	-0.043843
C125	C	1.104517	0.770594	0.289490
C126	C	1.437851	1.103928	0.622823
C127	C	0.819150	0.479975	0.000025
C128	C	1.152484	0.813308	0.333358
C129	C	1.485817	1.146641	0.666691
C130	C	0.868189	0.450237	0.043883
C131	C	1.201522	0.783570	0.377217
C132	C	1.534855	1.116903	0.710550
C133	C	0.869251	0.377791	0.043879
C134	C	1.202584	0.711124	0.377212
C135	C	1.535918	1.044458	0.710546
C136	C	0.821271	0.335083	0.000013
C137	C	1.154604	0.668416	0.333347
C138	C	1.487938	1.001750	0.666680
C139	C	0.880773	0.603228	0.000035
C140	C	1.214106	0.936562	0.333369
C141	C	1.547439	1.269895	0.666702
C142	C	0.879709	0.675676	0.000052
C143	C	1.213043	1.009010	0.333385
C144	C	1.546376	1.342343	0.666719
C145	C	0.753099	0.658713	0.000052
C146	C	1.086432	0.992047	0.333386
C147	C	1.419766	1.325380	0.666719
C148	C	0.754164	0.586267	0.000043
C149	C	1.087497	0.919600	0.333377
C150	C	1.420831	1.252934	0.666710
C151	C	0.818003	0.558529	0.000031
C152	C	1.151336	0.891862	0.333365
C153	C	1.484670	1.225196	0.666698
C154	C	0.862181	-0.134490	-0.217506
C155	C	1.195515	0.198843	0.115827
C156	C	1.528848	0.532176	0.449160
C157	C	0.862192	-0.134488	-0.296308
C158	C	1.195525	0.198845	0.037025
C159	C	1.528859	0.532178	0.370359
C160	C	0.820203	-0.092472	-0.335733
C161	C	1.153536	0.240862	-0.002399
C162	C	1.486869	0.574195	0.330934
C163	C	0.778212	-0.050440	-0.296349
C164	C	1.111546	0.282893	0.036984
C165	C	1.444879	0.616227	0.370317
C166	C	0.778208	-0.050438	-0.217549
C167	C	1.111541	0.282895	0.115784
C168	C	1.444875	0.616229	0.449118
C169	C	0.757590	-0.090716	-0.460593
C170	C	1.090923	0.242617	-0.127260
C171	C	1.424257	0.575951	0.206074
C172	C	0.757593	-0.090723	-0.539392
C173	C	1.090926	0.242610	-0.206059
C174	C	1.424260	0.575944	0.127275
C175	C	0.820217	-0.092474	-0.578779
C176	C	1.153550	0.240860	-0.245446
C177	C	1.486884	0.574193	0.087888
C178	C	0.882839	-0.094232	-0.539358
C179	C	1.216172	0.239101	-0.206025
C180	C	1.549506	0.572435	0.127309
C181	C	0.882835	-0.094230	-0.460558
C182	C	1.216168	0.239103	-0.127224
C183	C	1.549501	0.572437	0.206109
C184	C	0.820203	-0.092469	-0.421179
C185	C	1.153536	0.240865	-0.087845
C186	C	1.486870	0.574198	0.245488
C187	C	0.862220	-0.134497	-0.703599
C188	C	1.195553	0.198837	-0.370266
C189	C	1.528887	0.532170	-0.036932
C190	C	0.862232	-0.134490	-0.782402
C191	C	1.195566	0.198844	-0.449069
C192	C	1.528899	0.532177	-0.115736
C193	C	0.778246	-0.050445	-0.782442
C194	C	1.111580	0.282888	-0.449109
C195	C	1.444913	0.616221	-0.115775
C196	C	0.778240	-0.050448	-0.703640
C197	C	1.111574	0.282885	-0.370307
C198	C	1.444907	0.616218	-0.036974
C199	C	0.820226	-0.092478	-0.664224
C200	C	1.153559	0.240856	-0.330890
C201	C	1.486893	0.574189	0.002443
N202	N	0.820243	-0.092471	0.178178
N203	N	1.153577	0.240862	0.511512
N204	N	1.486910	0.574195	0.844845
H205	H	0.593984	-0.211567	0.000037
H206	H	0.927318	0.121767	0.333370
H207	H	1.260651	0.455100	0.666704
Br208	Br	0.672606	-0.088347	-0.592884
Br209	Br	1.005940	0.244986	-0.259551
Br210	Br	1.339273	0.578320	0.073782
Br211	Br	0.971454	0.289456	0.000006
Br212	Br	1.304787	0.622789	0.333340
Br213	Br	1.638120	0.956123	0.666673
Br214	Br	0.721270	0.006590	-0.835939
Br215	Br	1.054604	0.339923	-0.502605
Br216	Br	1.387937	0.673256	-0.169272
H217	H	0.744047	-0.016232	-0.671582
H218	H	1.077380	0.317102	-0.338248
H219	H	1.410713	0.650435	-0.004915
Br220	Br	0.649029	0.052213	0.000019
Br221	Br	0.982363	0.385547	0.333352
Br222	Br	1.315696	0.718880	0.666685
Br223	Br	0.672602	-0.088274	-0.407147
Br224	Br	1.005936	0.245060	-0.073814
Br225	Br	1.339269	0.578393	0.259520
H226	H	0.744025	-0.016229	-0.328454
H227	H	1.077358	0.317104	0.004879
H228	H	1.410692	0.650438	0.338213
Br229	Br	0.438286	-0.243716	0.000021
Br230	Br	0.771620	0.089617	0.333355
Br231	Br	1.104953	0.422950	0.666688
Br232	Br	0.967816	-0.096616	-0.407059
Br233	Br	1.301150	0.236717	-0.073726
Br234	Br	1.634483	0.570050	0.259608
H235	H	0.703051	0.549873	0.000042
H236	H	1.036385	0.883206	0.333375
H237	H	1.369718	1.216539	0.666709
H238	H	0.015673	-0.203077	0.000034
H239	H	0.349006	0.130257	0.333367
H240	H	0.682340	0.463590	0.666700
Br241	Br	0.721217	0.006594	-0.164109
Br242	Br	1.054550	0.339928	0.169224
Br243	Br	1.387884	0.673261	0.502558
H244	H	0.731251	0.461467	-0.079551
H245	H	1.064584	0.794801	0.253782
H246	H	1.397918	1.128134	0.587115
Br247	Br	0.707140	0.306855	-0.103384
Br248	Br	1.040474	0.640188	0.229949
Br249	Br	1.373807	0.973521	0.563283
H250	H	0.907247	0.485013	0.079606
H251	H	1.240581	0.818346	0.412939
H252	H	1.573914	1.151680	0.746272
Br253	Br	0.967835	-0.096610	-0.592801
Br254	Br	1.301168	0.236723	-0.259468
Br255	Br	1.634502	0.570056	0.073865
Br256	Br	0.919182	-0.191521	-0.349756
Br257	Br	1.252515	0.141812	-0.016423
Br258	Br	1.585848	0.475145	0.316911
Br259	Br	0.935796	0.337433	0.103402
Br260	Br	1.269129	0.670766	0.436735
Br261	Br	1.602463	1.004100	0.770069
H262	H	0.896408	-0.168719	-0.671504
H263	H	1.229741	0.164614	-0.338171
H264	H	1.563074	0.497948	-0.004837
H265	H	0.896429	-0.168708	-0.814459
H266	H	1.229762	0.164626	-0.481126
H267	H	1.563095	0.497959	-0.147793
Br268	Br	0.031381	0.061282	0.000037
Br269	Br	0.364714	0.394615	0.333371
Br270	Br	0.698047	0.727949	0.666704
H271	H	0.147099	-0.205005	0.000028
H272	H	0.480432	0.128328	0.333361
H273	H	0.813766	0.461662	0.666694
Br274	Br	0.478270	0.054718	0.000023
Br275	Br	0.811603	0.388051	0.333356
Br276	Br	1.144937	0.721385	0.666689
H277	H	0.932754	0.580643	0.000029
H278	H	1.266087	0.913976	0.333362
H279	H	1.599421	1.247310	0.666696
H280	H	0.930825	0.712069	0.000053
H281	H	1.264158	1.045403	0.333387
H282	H	1.597492	1.378736	0.666720
H283	H	0.701125	0.681303	0.000056
H284	H	1.034459	1.014637	0.333390
H285	H	1.367792	1.347970	0.666723
Br286	Br	0.219534	-0.205537	0.103424
Br287	Br	0.552867	0.127796	0.436757
Br288	Br	0.886201	0.461129	0.770090
Br289	Br	0.673023	0.249475	0.000026
Br290	Br	1.006357	0.582808	0.333359
Br291	Br	1.339690	0.916141	0.666692
H292	H	0.374158	-0.181427	0.079606
H293	H	0.707492	0.151907	0.412939
H294	H	1.040825	0.485240	0.746273
Br295	Br	0.919145	-0.191547	-0.164015
Br296	Br	1.252478	0.141787	0.169318
Br297	Br	1.585811	0.475120	0.502652
H298	H	0.709601	0.102982	0.000014
H299	H	1.042935	0.436316	0.333347
H300	H	1.376268	0.769649	0.666681
Br301	Br	0.973961	0.118695	0.000000
Br302	Br	1.307294	0.452028	0.333334
Br303	Br	1.640627	0.785361	0.666667
Br304	Br	0.420887	0.020587	-0.103396
Br305	Br	0.754220	0.353921	0.229937
Br306	Br	1.087554	0.687254	0.563271
H307	H	0.266275	-0.003515	-0.079570
H308	H	0.599608	0.329818	0.253763
H309	H	0.932942	0.663151	0.587097
H310	H	0.177877	0.024691	0.000022
H311	H	0.511211	0.358024	0.333356
H312	H	0.844544	0.691358	0.666689
