data_functionalizedCrystal
_audit_creation_method	'MofGen! by Chris Wilmer'
_symmetry_space_group_name_H-M	'P1'
_symmetry_Int_Tables_number	1
_symmetry_cell_setting	triclinic
loop_
_symmetry_equiv_pos_as_xyz
  x,y,z
_cell_length_a	14.519731
_cell_length_b	10.654550
_cell_length_c	13.596369
_cell_angle_alpha	89.994113
_cell_angle_beta	90.001056
_cell_angle_gamma	95.913108
loop_
_atom_site_label
_atom_site_type_symbol
_atom_site_fract_x
_atom_site_fract_y
_atom_site_fract_z
O1	O	1.224705	-0.164754	0.081793
O2	O	0.956331	-0.184112	0.081795
O3	O	1.096688	0.008365	0.081788
O4	O	1.084347	-0.357231	0.081800
O5	O	1.096686	0.008377	-0.081795
O6	O	0.956328	-0.184100	-0.081788
O7	O	1.224702	-0.164741	-0.081790
Zn8	Zn	1.090515	-0.174419	-0.107761
Zn9	Zn	1.090518	-0.174435	0.107766
O10	O	1.084345	-0.357219	-0.081783
C11	C	0.921965	-0.183199	0.000003
C12	C	0.819571	-0.180481	0.000004
C13	C	0.736416	-0.178272	0.000008
C14	C	0.632093	-0.175513	0.000008
C15	C	0.548942	-0.173322	0.000008
C16	C	0.444612	-0.170563	0.000010
C17	C	1.095781	0.055160	-0.000003
C18	C	1.093070	0.194578	-0.000002
C19	C	1.259068	-0.165655	0.000004
C20	C	1.361462	-0.168373	0.000010
N21	N	1.090520	-0.174407	-0.254853
C22	C	1.085252	-0.404014	0.000010
C23	C	1.087963	-0.543432	0.000015
C24	C	1.175710	0.274850	-0.000002
C25	C	1.173157	0.405846	0.000010
C26	C	1.005317	0.376286	0.000018
C27	C	1.007871	0.245293	0.000013
N28	N	1.090521	-0.174437	0.254858
C29	C	1.090516	-0.174423	0.656149
C30	C	1.090514	-0.174430	0.544498
C31	C	1.090518	-0.174429	0.455507
C32	C	1.090517	-0.174438	0.343849
H33	H	1.245085	0.233562	-0.000012
O34	O	0.927675	0.167128	0.000057
C35	C	0.948202	0.040636	0.000030
H36	H	1.020675	0.035449	0.030994
H37	H	0.944944	0.002773	-0.078449
C38	C	0.788112	-0.033011	0.026156
C39	C	0.877122	-0.039383	0.064194
H40	H	0.744265	-0.082373	0.065732
H41	H	0.774282	0.052209	0.026171
H42	H	0.785411	-0.064562	-0.039242
H43	H	0.879825	-0.007818	0.129587
H44	H	0.890951	-0.124600	0.064192
O45	O	1.253496	0.483692	0.000138
C46	C	1.305168	0.460672	0.084865
H47	H	1.283159	0.361354	0.113105
H48	H	1.292104	0.532335	0.144196
C49	C	1.436019	0.594867	0.024436
C50	C	1.408993	0.472878	0.059117
H51	H	1.500064	0.602402	0.008556
H52	H	1.401206	0.610381	-0.032644
H53	H	1.425125	0.654573	0.073885
H54	H	1.419876	0.413176	0.009664
H55	H	1.443810	0.457355	0.116189
O56	O	0.922638	0.425762	-0.000020
C57	C	0.938102	0.558595	0.000006
H58	H	1.009874	0.589193	-0.030965
H59	H	0.933401	0.595056	0.078485
C60	C	0.776242	0.575526	-0.026106
C61	C	0.864390	0.613107	-0.064152
H62	H	0.730771	0.609154	-0.065678
H63	H	0.765822	0.486035	-0.026120
H64	H	0.772337	0.605913	0.039293
H65	H	0.868297	0.582707	-0.129545
H66	H	0.874809	0.702595	-0.064151
