data_functionalizedCrystal
_audit_creation_method	'MofGen! by Chris Wilmer'
_symmetry_space_group_name_H-M	'P1'
_symmetry_Int_Tables_number	1
_symmetry_cell_setting	triclinic
loop_
_symmetry_equiv_pos_as_xyz
  x,y,z
_cell_length_a	17.038272
_cell_length_b	10.908937
_cell_length_c	9.482900
_cell_angle_alpha	83.014435
_cell_angle_beta	99.998116
_cell_angle_gamma	75.598756
loop_
_atom_site_label
_atom_site_type_symbol
_atom_site_fract_x
_atom_site_fract_y
_atom_site_fract_z
O1	O	-0.104434	1.672356	0.120936
O2	O	0.395566	2.172356	0.620936
O3	O	-0.044237	1.305072	0.120931
O4	O	0.455763	1.805072	0.620931
O5	O	-0.187868	1.486533	0.120922
O6	O	0.312132	1.986533	0.620922
O7	O	0.039198	1.490895	0.120945
O8	O	0.539198	1.990895	0.620945
O9	O	-0.217105	1.523458	-0.120873
O10	O	0.282895	2.023458	0.379127
O11	O	-0.073474	1.341997	-0.120864
O12	O	0.426526	1.841997	0.379136
O13	O	-0.133671	1.709281	-0.120859
O14	O	0.366329	2.209281	0.379141
Cu15	Cu	-0.106242	1.529011	-0.142939
Cu16	Cu	0.393758	2.029011	0.357061
Cu17	Cu	-0.071666	1.485343	0.143011
Cu18	Cu	0.428334	1.985343	0.643011
O19	O	0.009961	1.527820	-0.120850
O20	O	0.509961	2.027820	0.379150
C21	C	-0.053229	1.276308	0.000033
C22	C	0.446771	1.776308	0.500033
C23	C	-0.036476	1.135588	0.000031
C24	C	0.463524	1.635588	0.500031
C25	C	-0.231100	1.501025	0.000025
C26	C	0.268900	2.001025	0.500025
C27	C	-0.316354	1.489178	0.000025
C28	C	0.183646	1.989178	0.500025
C29	C	-0.080297	0.934455	0.000052
C30	C	0.419703	1.434455	0.500052
C31	C	-0.097617	1.079901	0.000032
C32	C	0.402383	1.579901	0.500032
C33	C	-0.380592	1.597945	0.000025
C34	C	0.119408	2.097945	0.500025
C35	C	-0.460695	1.586804	0.000038
C36	C	0.039305	2.086804	0.500038
C37	C	-0.476559	1.466897	0.000042
C38	C	0.023441	1.966897	0.500042
C39	C	-0.412313	1.358121	0.000046
C40	C	0.087687	1.858121	0.500046
C41	C	-0.332211	1.369262	0.000043
C42	C	0.167789	1.869262	0.500043
C43	C	-0.717204	1.427538	0.000061
C44	C	-0.217204	1.927538	0.500061
C45	C	-0.797314	1.416407	0.000060
C46	C	-0.297314	1.916407	0.500060
C47	C	-0.845690	1.645090	0.000055
C48	C	-0.345690	2.145090	0.500055
C49	C	-0.765585	1.656222	0.000043
C50	C	-0.265585	2.156222	0.500043
C51	C	-0.701345	1.547445	0.000055
C52	C	-0.201345	2.047445	0.500055
C53	C	-0.558436	1.455507	0.000051
C54	C	-0.058436	1.955507	0.500051
C55	C	-0.619468	1.558834	0.000056
C56	C	-0.119468	2.058834	0.500056
C57	C	0.053193	1.513328	0.000051
C58	C	0.553193	2.013328	0.500051
C59	C	0.138448	1.525173	0.000060
C60	C	0.638448	2.025173	0.500060
C61	C	-0.124677	1.738045	0.000042
C62	C	0.375323	2.238045	0.500042
C63	C	-0.141430	1.878764	0.000054
C64	C	0.358570	2.378764	0.500054
N65	N	-0.130562	1.559734	-0.344061
N66	N	0.369438	2.059734	0.155939
N67	N	-0.047352	1.454629	0.344133
N68	N	0.452648	1.954629	0.844133
C69	C	-0.099066	1.519959	0.416329
C70	C	0.400934	2.019959	0.916329
C71	C	-0.078841	1.494394	0.583747
C72	C	0.421159	1.994394	1.083747
H73	H	-0.015137	0.874455	0.000074
H74	H	0.484863	1.374455	0.500074
H75	H	-0.571362	1.357878	0.000051
H76	H	-0.071362	1.857878	0.500051
H77	H	-0.019588	1.419537	0.645876
H78	H	0.480412	1.919537	1.145876
H79	H	0.028689	1.075594	0.000047
H80	H	0.528689	1.575594	0.500047
Cl81	Cl	-0.198225	1.172518	0.000024
Cl82	Cl	0.301775	1.672518	0.500024
Cl83	Cl	-0.242034	0.971385	0.000045
Cl84	Cl	0.257966	1.471385	0.500045
Cl85	Cl	0.044126	1.339058	0.440052
Cl86	Cl	0.544126	1.839058	0.940052
Cl87	Cl	-0.190539	1.635545	0.320413
Cl88	Cl	0.309461	2.135545	0.820413
H89	H	-0.189811	1.634601	0.593811
H90	H	0.310189	2.134601	1.093811
Cl91	Cl	-0.599522	1.709568	0.000060
Cl92	Cl	-0.099522	2.209568	0.500060
H93	H	-0.279906	1.280692	0.000043
H94	H	0.220094	1.780692	0.500043
H95	H	-0.367685	1.695588	0.000013
H96	H	0.132315	2.195588	0.500013
H97	H	-0.512996	1.675375	0.000035
H98	H	-0.012996	2.175375	0.500035
H99	H	-0.752677	1.753863	0.000040
H100	H	-0.252677	2.253863	0.500040
H101	H	-0.898001	1.733649	0.000048
H102	H	-0.398001	2.233649	0.500048
Cl103	Cl	-0.636455	1.290788	0.000080
Cl104	Cl	-0.136455	1.790788	0.500080
Cl105	Cl	-0.817255	1.265656	0.000056
Cl106	Cl	-0.317255	1.765656	0.500056
H107	H	-0.425234	1.260488	0.000058
H108	H	0.074766	1.760488	0.500058
