data_functionalizedCrystal
_audit_creation_method	'MofGen! by Chris Wilmer'
_symmetry_space_group_name_H-M	'P1'
_symmetry_Int_Tables_number	1
_symmetry_cell_setting	triclinic
loop_
_symmetry_equiv_pos_as_xyz
  x,y,z
_cell_length_a	10.654545
_cell_length_b	11.792241
_cell_length_c	9.130313
_cell_angle_alpha	90.003147
_cell_angle_beta	90.003278
_cell_angle_gamma	84.338247
loop_
_atom_site_label
_atom_site_type_symbol
_atom_site_fract_x
_atom_site_fract_y
_atom_site_fract_z
O1	O	1.667393	0.159393	0.121785
O2	O	2.167393	0.659393	0.621785
O3	O	1.301870	0.174587	0.121792
O4	O	1.801870	0.674587	0.621792
O5	O	1.493502	0.001840	0.121778
O6	O	1.993502	0.501840	0.621778
O7	O	1.475761	0.332140	0.121799
O8	O	1.975761	0.832140	0.621799
O9	O	1.493487	0.001840	-0.121821
O10	O	1.993487	0.501840	0.378179
O11	O	1.301856	0.174587	-0.121807
O12	O	1.801856	0.674587	0.378193
O13	O	1.667378	0.159393	-0.121813
O14	O	2.167378	0.659393	0.378187
Cu15	Cu	1.484616	0.166990	-0.144053
Cu16	Cu	1.984616	0.666990	0.355947
Cu17	Cu	1.484633	0.166990	0.144031
Cu18	Cu	1.984633	0.666990	0.644031
O19	O	1.475747	0.332140	-0.121800
O20	O	1.975747	0.832140	0.378200
C21	C	1.255068	0.173472	-0.000007
C22	C	1.755068	0.673472	0.499993
C23	C	1.115634	0.170138	-0.000005
C24	C	1.615634	0.670138	0.499995
C25	C	1.050126	0.168568	-0.132792
C26	C	1.550126	0.668568	0.367208
C27	C	0.919116	0.165416	-0.132792
C28	C	1.419116	0.665416	0.367208
C29	C	0.919132	0.165408	0.132793
C30	C	1.419132	0.665408	0.632793
C31	C	1.050141	0.168552	0.132792
C32	C	1.550141	0.668552	0.632792
C33	C	1.492380	-0.040454	-0.000021
C34	C	1.992380	0.459546	0.499979
C35	C	1.489045	-0.166475	-0.000019
C36	C	1.989045	0.333525	0.499981
C37	C	1.482911	-0.397202	0.000005
C38	C	1.982911	0.102798	0.500005
C39	C	1.486319	-0.268809	-0.000008
C40	C	1.986319	0.231191	0.499992
C41	C	1.714180	0.160507	-0.000011
C42	C	2.214180	0.660507	0.499989
C43	C	1.853614	0.163842	-0.000004
C44	C	2.353614	0.663842	0.499996
C45	C	1.476868	0.374433	0.000002
C46	C	1.976868	0.874433	0.500002
C47	C	1.480204	0.500455	0.000010
C48	C	1.980204	1.000455	0.500010
N49	N	1.484613	0.166989	-0.346675
N50	N	1.984613	0.666989	0.153325
C51	C	1.561248	0.236470	-0.423319
C52	C	2.061248	0.736470	0.076681
C53	C	1.561268	0.236464	-0.576656
C54	C	2.061268	0.736464	-0.076656
C55	C	1.408008	0.097493	-0.576692
C56	C	1.908008	0.597493	-0.076692
C57	C	1.407995	0.097494	-0.423358
C58	C	1.907995	0.597494	0.076642
N59	N	1.484646	0.166981	0.346654
N60	N	1.984646	0.666981	0.846654
H61	H	1.103447	0.169859	-0.240923
H62	H	1.603447	0.669859	0.259077
H63	H	1.103480	0.169827	0.240929
H64	H	1.603480	0.669827	0.740929
O65	O	1.333462	0.030165	-0.348744
O66	O	1.833462	0.530165	0.151256
C67	C	1.248211	0.098667	-0.260094
C68	C	1.748211	0.598667	0.239906
H69	H	1.287868	0.183211	-0.237109
H70	H	1.787868	0.683211	0.262891
H71	H	1.153937	0.115258	-0.319211
H72	H	1.653937	0.615258	0.180789
C73	C	1.180161	-0.066957	-0.142681
C74	C	1.680161	0.433043	0.357319
C75	C	1.228873	0.036877	-0.114440
C76	C	1.728873	0.536877	0.385560
H77	H	1.168226	-0.105073	-0.052837
H78	H	1.668226	0.394927	0.447163
H79	H	1.237592	-0.113109	-0.202409
H80	H	1.737592	0.386891	0.297591
H81	H	1.101605	-0.053117	-0.191949
H82	H	1.601605	0.446883	0.308051
H83	H	1.307434	0.023035	-0.065191
H84	H	1.807434	0.523035	0.434809
H85	H	1.171454	0.083026	-0.054700
H86	H	1.671454	0.583026	0.445300
H87	H	1.623673	0.293040	-0.639052
H88	H	2.123673	0.793040	-0.139052
H89	H	0.865791	0.164119	0.240911
H90	H	1.365791	0.664119	0.740911
H91	H	0.865785	0.164138	-0.240920
H92	H	1.365785	0.664138	0.259080
H93	H	1.623635	0.293057	-0.360888
H94	H	2.123635	0.793057	0.139112
H95	H	1.345627	0.040914	-0.639146
H96	H	1.845627	0.540914	-0.139146
