data_functionalizedCrystal
_audit_creation_method	'MofGen! by Chris Wilmer'
_symmetry_space_group_name_H-M	'P1'
_symmetry_Int_Tables_number	1
_symmetry_cell_setting	triclinic
loop_
_symmetry_equiv_pos_as_xyz
  x,y,z
_cell_length_a	19.288859
_cell_length_b	15.995292
_cell_length_c	17.766277
_cell_angle_alpha	89.996830
_cell_angle_beta	89.989768
_cell_angle_gamma	83.301171
loop_
_atom_site_label
_atom_site_type_symbol
_atom_site_fract_x
_atom_site_fract_y
_atom_site_fract_z
O1	O	0.921609	0.104430	-0.062604
O2	O	0.719382	0.118526	-0.062601
O3	O	0.826044	-0.010434	-0.062604
O4	O	0.814946	0.233390	-0.062601
O5	O	0.826025	-0.010441	0.062585
O6	O	0.719363	0.118519	0.062587
O7	O	0.921590	0.104423	0.062585
Cu8	Cu	0.820475	0.111471	0.074017
Cu9	Cu	0.820497	0.111478	-0.074033
O10	O	0.814927	0.233383	0.062587
C11	C	0.693495	0.118070	-0.000007
C12	C	0.616388	0.116711	-0.000006
C13	C	0.052508	0.183186	-0.000007
C14	C	0.124957	0.184470	-0.000011
C15	C	0.169481	0.108802	-0.000010
C16	C	0.141549	0.031844	-0.000025
C17	C	0.069101	0.030562	-0.000028
C18	C	0.290608	0.052367	0.043851
C19	C	0.363055	0.053652	0.043860
C20	C	0.392936	0.112753	-0.000002
C21	C	0.350361	0.170583	-0.043862
C22	C	0.277912	0.169301	-0.043866
C23	C	0.248040	0.110184	-0.000006
C24	C	0.499418	0.191099	0.000003
C25	C	0.571869	0.192380	-0.000006
C26	C	0.588460	0.039752	-0.000012
C27	C	0.516010	0.038473	-0.000011
C28	C	0.471493	0.114149	0.000000
C29	C	0.825583	-0.041631	-0.000011
C30	C	0.824229	-0.134579	-0.000017
C31	C	0.819251	-0.472299	-0.000010
C32	C	0.896237	-0.449279	0.000269
C33	C	0.897700	-0.352609	-0.000016
C34	C	0.821721	-0.304752	-0.000013
C35	C	0.783242	-0.333703	-0.071499
C36	C	0.782315	-0.430490	-0.071556
C37	C	0.780722	-0.430349	0.070807
C38	C	0.783575	-0.333867	0.071749
C39	C	0.823113	-0.210061	-0.000017
C40	C	0.817856	-0.566989	-0.000011
C41	C	0.947477	0.104879	-0.000011
C42	C	1.024584	0.106238	-0.000017
C43	C	0.815388	0.264581	-0.000007
C44	C	0.816743	0.357528	-0.000006
N45	N	0.820464	0.111465	0.178147
N46	N	0.820513	0.111478	-0.178164
C47	C	0.867710	0.054389	0.217533
C48	C	0.867714	0.054385	0.296335
C49	C	0.820479	0.111471	0.335748
C50	C	0.773224	0.168551	0.296352
C51	C	0.773217	0.168548	0.217552
C52	C	0.811365	0.187765	0.460586
C53	C	0.811377	0.187769	0.539385
C54	C	0.820497	0.111482	0.578794
C55	C	0.829620	0.035186	0.539394
C56	C	0.829613	0.035183	0.460594
C57	C	0.820481	0.111481	0.421193
C58	C	0.867750	0.054397	0.703626
C59	C	0.867749	0.054392	0.782429
C60	C	0.773263	0.168565	0.782445
C61	C	0.773261	0.168563	0.703643
C62	C	0.820508	0.111480	0.664238
H63	H	0.177805	-0.029765	-0.000026
C64	C	0.839637	-0.048732	0.417254
H65	H	0.845165	-0.094168	0.452003
H66	H	0.880018	-0.050503	0.386417
H67	H	0.799897	-0.053302	0.386612
H68	H	0.837047	-0.026934	0.571479
C69	C	0.038384	-0.054084	-0.000033
H70	H	0.075274	-0.098967	-0.000029
H71	H	0.010471	-0.057753	-0.043687
H72	H	0.010462	-0.057758	0.043630
H73	H	0.906219	0.007914	0.671541
C74	C	0.383217	0.235599	-0.092115
H75	H	0.347485	0.269857	-0.118231
H76	H	0.414631	0.207155	-0.127384
H77	H	0.407798	0.269907	-0.060488
H78	H	0.809978	-0.313741	-0.124701
C79	C	0.821401	-0.308905	0.143196
H80	H	0.798076	-0.326683	0.186415
H81	H	0.821260	-0.249515	0.144498
H82	H	0.868201	-0.335123	0.142758
C83	C	0.602585	0.277027	0.000008
H84	H	0.565694	0.321909	0.000021
H85	H	0.630509	0.280711	-0.043647
H86	H	0.630495	0.280687	0.043671
C87	C	0.450444	0.274334	0.000007
H88	H	0.403296	0.262551	0.000015
H89	H	0.458913	0.305905	-0.043647
H90	H	0.458903	0.305893	0.043670
H91	H	0.624710	-0.021859	-0.000017
H92	H	0.016266	0.244807	-0.000001
C93	C	0.938419	-0.327062	0.069200
H94	H	0.954216	-0.375808	0.097746
H95	H	0.908778	-0.289157	0.099450
H96	H	0.977400	-0.300476	0.053102
H97	H	0.925754	-0.478406	-0.050710
H98	H	0.493275	-0.024186	-0.000015
H99	H	0.906179	0.007907	0.185452
H100	H	0.147698	0.247132	0.000005
C101	C	0.936316	-0.487247	0.069526
H102	H	0.906462	-0.517486	0.098891
H103	H	0.951627	-0.443337	0.098955
H104	H	0.975581	-0.524358	0.053460
C105	C	0.813289	-0.468645	0.144005
H106	H	0.850694	-0.510580	0.132058
H107	H	0.778889	-0.493278	0.171919
H108	H	0.830396	-0.425700	0.173187
H109	H	0.734801	0.215043	0.814534
C110	C	0.409880	-0.009954	0.092106
H111	H	0.381710	-0.045345	0.118218
H112	H	0.434987	0.019489	0.127379
H113	H	0.441825	-0.043259	0.060481
C114	C	0.708658	-0.289041	0.077592
H115	H	0.699621	-0.251823	0.036154
H116	H	0.703664	-0.257963	0.123220
H117	H	0.676467	-0.329685	0.076991
C118	C	0.818302	-0.466849	-0.143765
H119	H	0.833356	-0.422447	-0.172784
H120	H	0.786279	-0.494739	-0.172322
H121	H	0.857473	-0.505781	-0.130740
H122	H	0.724054	-0.444124	0.071290
H123	H	0.906188	0.007906	0.328408
C124	C	0.721253	0.231331	0.339699
H125	H	0.693106	0.265315	0.304953
H126	H	0.746218	0.266119	0.370436
H127	H	0.692355	0.201277	0.370443
C128	C	0.919723	-0.008393	0.825754
H129	H	0.947863	-0.042382	0.790996
H130	H	0.894754	-0.043176	0.856504
H131	H	0.948629	0.021651	0.856482
C132	C	0.231083	0.232899	-0.092117
H133	H	0.259251	0.268279	-0.118246
H134	H	0.199136	0.266204	-0.060501
H135	H	0.205980	0.203441	-0.127388
C136	C	0.257742	-0.012642	0.092106
H137	H	0.208497	-0.005128	0.085819
H138	H	0.268806	-0.005073	0.143572
H139	H	0.275639	-0.067834	0.076683
C140	C	0.721297	0.231356	0.660317
H141	H	0.693170	0.265360	0.695073
H142	H	0.692389	0.201326	0.629586
H143	H	0.746279	0.266136	0.629569
H144	H	0.928029	-0.334317	-0.051350
H145	H	0.725869	-0.444826	-0.074793
H146	H	0.727332	-0.301623	-0.074155
H147	H	0.803953	0.249893	0.571458
H148	H	0.803926	0.249891	0.428506
H149	H	0.734743	0.215027	0.185483
