data_functionalizedCrystal
_audit_creation_method	'MofGen! by Chris Wilmer'
_symmetry_space_group_name_H-M	'P1'
_symmetry_Int_Tables_number	1
_symmetry_cell_setting	triclinic
loop_
_symmetry_equiv_pos_as_xyz
  x,y,z
_cell_length_a	18.050590
_cell_length_b	18.050590
_cell_length_c	19.805399
_cell_angle_alpha	89.972574
_cell_angle_beta	89.997050
_cell_angle_gamma	90.007719
loop_
_atom_site_label
_atom_site_type_symbol
_atom_site_fract_x
_atom_site_fract_y
_atom_site_fract_z
Zn1	Zn	1.135370	-0.295891	-0.382420
Zn2	Zn	1.135293	-0.420084	-0.269232
Zn3	Zn	1.011181	-0.295888	-0.269278
Zn4	Zn	1.011158	-0.420021	-0.382412
O5	O	1.073250	-0.357971	-0.325835
O6	O	1.239284	-0.312393	-0.367390
O7	O	1.118807	-0.403634	-0.174522
O8	O	1.027696	-0.191964	-0.284309
O9	O	1.239228	-0.403637	-0.284231
O10	O	1.118937	-0.191966	-0.367434
O11	O	1.027622	-0.312388	-0.174555
O12	O	0.907253	-0.312327	-0.284301
O13	O	1.027657	-0.403530	-0.477129
O14	O	0.907236	-0.403527	-0.367420
O15	O	1.118915	-0.312332	-0.477136
O16	O	1.118785	-0.524000	-0.284223
O17	O	1.027583	-0.523954	-0.367376
C18	C	0.880298	-0.357920	-0.325865
C19	C	0.797752	-0.357917	-0.325893
C20	C	0.598314	-0.407653	-0.370986
C21	C	0.548911	-0.339936	-0.387643
C22	C	0.646622	-0.357958	-0.325860
C23	C	0.548944	-0.425713	-0.309203
C24	C	0.500637	-0.358004	-0.325829
C25	C	0.598306	-0.290206	-0.342549
C26	C	0.598343	-0.376028	-0.264080
C27	C	0.548962	-0.308265	-0.280714
C28	C	0.730720	-0.357932	-0.325879
C29	C	0.416540	-0.358022	-0.325810
C30	C	1.073193	-0.550923	-0.325808
C31	C	1.073237	-0.633469	-0.325819
C32	C	1.122935	-0.832918	-0.280664
C33	C	1.141075	-0.882255	-0.342434
C34	C	1.073279	-0.784599	-0.325846
C35	C	1.055215	-0.882344	-0.264104
C36	C	1.073321	-0.930584	-0.325867
C37	C	1.091454	-0.832849	-0.387649
C38	C	1.005561	-0.832934	-0.309277
C39	C	1.023675	-0.882249	-0.371090
C40	C	1.073257	-0.700501	-0.325834
C41	C	1.073343	-1.014681	-0.325887
C42	C	1.266956	-0.358022	-0.325806
C43	C	1.349502	-0.358044	-0.325794
C44	C	1.073292	-0.357924	-0.502378
C45	C	1.073310	-0.357904	-0.577610
C46	C	1.073328	-0.164265	-0.325877
C47	C	1.073361	-0.081720	-0.325895
C48	C	1.120829	-0.310416	-0.612959
C49	C	1.120836	-0.310394	-0.683647
C50	C	1.073328	-0.357866	-0.718986
C51	C	1.025804	-0.405356	-0.683632
C52	C	1.025793	-0.405374	-0.612945
C53	C	1.025846	-0.405287	-0.968706
C54	C	1.025862	-0.405268	-1.039398
C55	C	1.120889	-0.310308	-1.039408
C56	C	1.120878	-0.310325	-0.968721
C57	C	1.073352	-0.357813	-0.933373
C58	C	1.073343	-0.357834	-0.856725
C59	C	1.073340	-0.357848	-0.795633
C60	C	1.073252	-0.357964	-0.149979
C61	C	1.073378	-0.357775	-0.074748
H62	H	0.527429	-0.266211	-0.242539
O63	O	1.167096	-0.264311	-0.934358
C64	C	1.215028	-0.306604	-0.893435
H65	H	1.219614	-0.365089	-0.914723
H66	H	1.192045	-0.309175	-0.839868
C67	C	1.286603	-0.198491	-0.866189
C68	C	1.292241	-0.270322	-0.892339
H69	H	1.334232	-0.176109	-0.865510
H70	H	1.254310	-0.169996	-0.893758
H71	H	1.267448	-0.200643	-0.821552
H72	H	1.311387	-0.268167	-0.936977
H73	H	1.324540	-0.298815	-0.864778
O74	O	1.173146	-0.807104	-0.235204
C75	C	1.244488	-0.832251	-0.252933
H76	H	1.245856	-0.846065	-0.309079
H77	H	1.258448	-0.883950	-0.222395
C78	C	1.300031	-0.754256	-0.168749
C79	C	1.301713	-0.771217	-0.237710
H80	H	1.335331	-0.716609	-0.159356
H81	H	1.251967	-0.737316	-0.156803
H82	H	1.311663	-0.797343	-0.143309
H83	H	1.290072	-0.728132	-0.263148
H84	H	1.349777	-0.788148	-0.249660
O85	O	0.624140	-0.457618	-0.416651
C86	C	0.598935	-0.438316	-0.481703
H87	H	0.585068	-0.376722	-0.483076
H88	H	0.547257	-0.471876	-0.494331
C89	C	0.676977	-0.530752	-0.532160
C90	C	0.659951	-0.455100	-0.533849
H91	H	0.714612	-0.541108	-0.564328
H92	H	0.693956	-0.543758	-0.488334
H93	H	0.633906	-0.558710	-0.542682
H94	H	0.703018	-0.427144	-0.523319
H95	H	0.642980	-0.442089	-0.577675
H96	H	0.620073	-0.391317	-0.211862
O97	O	0.523157	-0.494101	-0.292487
C98	C	0.548285	-0.546285	-0.340228
H99	H	0.600282	-0.524306	-0.366052
H100	H	0.503292	-0.556059	-0.379625
C101	C	0.502408	-0.646769	-0.272554
C102	C	0.566275	-0.619777	-0.304269
H103	H	0.513502	-0.692104	-0.250375
H104	H	0.485476	-0.611612	-0.240392
H105	H	0.464920	-0.654908	-0.305391
H106	H	0.603758	-0.611630	-0.271431
H107	H	0.583213	-0.654934	-0.336425
H108	H	1.159518	-0.271761	-0.584191
H109	H	1.198361	-0.903921	-0.356462
H110	H	1.159533	-0.271726	-0.712425
H111	H	1.159585	-0.271638	-1.068196
H112	H	0.619898	-0.232909	-0.356684
O113	O	0.979636	-0.451405	-1.073623
C114	C	0.937696	-0.493335	-1.027268
H115	H	0.935127	-0.462929	-0.976886
H116	H	0.964862	-0.549750	-1.019734
C117	C	0.861813	-0.541346	-1.116746
C118	C	0.858652	-0.503998	-1.054867
H119	H	0.813055	-0.547927	-1.133771
H120	H	0.890069	-0.513099	-1.147977
H121	H	0.884454	-0.588355	-1.110459
H122	H	0.836020	-0.456987	-1.061156
H123	H	0.830390	-0.532238	-1.023638
H124	H	1.106693	-0.811201	-0.439917
O125	O	0.979782	-0.451456	-0.934308
C126	C	1.022027	-0.499465	-0.893415
H127	H	1.078315	-0.473294	-0.882812
H128	H	1.030173	-0.554492	-0.920649
C129	C	0.911998	-0.545069	-0.839303
C130	C	0.981130	-0.512922	-0.826275
H131	H	0.886771	-0.553373	-0.797889
H132	H	0.883537	-0.512727	-0.866855
H133	H	0.918797	-0.590921	-0.862000
H134	H	0.974330	-0.467067	-0.803587
H135	H	1.009589	-0.545257	-0.798718
H136	H	0.527198	-0.324668	-0.439876
O137	O	0.937206	-0.807185	-0.292482
C138	C	0.889428	-0.867488	-0.280135
H139	H	0.923562	-0.918367	-0.266163
H140	H	0.855648	-0.879655	-0.327486
C141	C	0.794833	-0.785707	-0.238719
C142	C	0.836758	-0.848195	-0.221553
H143	H	0.762341	-0.773806	-0.202586
H144	H	0.827021	-0.745079	-0.247040
H145	H	0.766691	-0.795854	-0.278179
H146	H	0.864906	-0.838044	-0.182099
H147	H	0.804573	-0.888821	-0.213224
H148	H	0.981701	-0.903773	-0.409352
H149	H	1.039919	-0.904084	-0.211881
H150	H	0.987119	-0.444006	-0.712411
H151	H	0.987091	-0.444036	-0.584165
