data_functionalizedCrystal
_audit_creation_method	'MofGen! by Chris Wilmer'
_symmetry_space_group_name_H-M	'P1'
_symmetry_Int_Tables_number	1
_symmetry_cell_setting	triclinic
loop_
_symmetry_equiv_pos_as_xyz
  x,y,z
_cell_length_a	6.817900
_cell_length_b	7.190334
_cell_length_c	14.858565
_cell_angle_alpha	89.892565
_cell_angle_beta	75.476084
_cell_angle_gamma	119.388224
loop_
_atom_site_label
_atom_site_type_symbol
_atom_site_fract_x
_atom_site_fract_y
_atom_site_fract_z
V1	V	4.228273	0.665589	-0.127185
O2	O	4.206410	0.652306	0.007638
O3	O	4.183740	0.661625	-0.253655
O4	O	4.265327	0.955606	-0.124559
O5	O	4.124258	0.356290	-0.122352
V6	V	4.700327	0.628522	-0.111138
O7	O	4.514690	0.746896	-0.162386
O8	O	4.864107	0.547215	-0.075937
O9	O	4.521653	0.632486	0.015332
O10	O	4.839586	0.641805	-0.245962
O11	O	4.921739	0.937821	-0.115972
O12	O	4.440066	0.338505	-0.113764
C13	C	4.026916	0.651277	-0.284507
C14	C	4.072362	0.649969	-0.387893
C15	C	4.131000	1.026276	-0.119828
C16	C	4.244702	1.267827	-0.118491
C17	C	4.238705	0.645211	-0.766475
C18	C	4.192415	0.646534	-0.661142
C19	C	4.155534	0.647588	-0.577187
C20	C	4.109243	0.648915	-0.471848
C21	C	4.341817	0.642828	0.046178
C22	C	4.275614	0.644150	0.149564
