data_functionalizedCrystal
_audit_creation_method	'MofGen! by Chris Wilmer'
_symmetry_space_group_name_H-M	'P1'
_symmetry_Int_Tables_number	1
_symmetry_cell_setting	triclinic
loop_
_symmetry_equiv_pos_as_xyz
  x,y,z
_cell_length_a	15.072220
_cell_length_b	8.559649
_cell_length_c	8.559649
_cell_angle_alpha	69.778664
_cell_angle_beta	89.992452
_cell_angle_gamma	89.995709
loop_
_atom_site_label
_atom_site_type_symbol
_atom_site_fract_x
_atom_site_fract_y
_atom_site_fract_z
O1	O	0.073769	-2.126878	0.055024
O2	O	0.073772	-1.651393	-0.028758
O3	O	0.073769	-1.931026	0.250875
O4	O	0.073772	-1.847245	-0.224609
O5	O	-0.073796	-1.931013	0.250903
O6	O	-0.073793	-1.651380	-0.028730
O7	O	-0.073797	-2.126865	0.055052
Zn8	Zn	-0.097224	-1.889120	0.013165
Zn9	Zn	0.097199	-1.889137	0.013129
O10	O	-0.073794	-1.847232	-0.224581
C11	C	-0.000010	-1.591077	-0.035093
C12	C	-0.000009	-1.411378	-0.053992
N13	N	-0.229913	-1.889121	0.013193
C14	C	-0.000012	-1.937369	0.311198
C15	C	-0.000007	-1.956268	0.490898
C16	C	-0.589114	-1.889140	0.013141
C17	C	-0.551481	-2.039144	0.162375
C18	C	-0.448656	-2.038855	0.162823
C19	C	-0.410910	-1.889132	0.013167
C20	C	-0.448252	-1.724414	0.029366
C21	C	-0.551110	-1.725321	0.030402
C22	C	-0.551191	-1.902281	-0.152871
C23	C	-0.448326	-1.906263	-0.151259
C24	C	-0.310197	-1.889116	0.013177
C25	C	-0.689828	-1.889145	0.013133
N26	N	0.229888	-1.889151	0.013115
C27	C	-0.000012	-2.187180	0.061387
C28	C	-0.000008	-2.366879	0.080286
C29	C	-0.000011	-1.840889	-0.284904
C30	C	-0.000010	-1.821990	-0.464604
H31	H	-0.423408	-2.161968	0.156248
Br32	Br	-0.592689	-2.245130	0.152095
Br33	Br	-0.000024	-2.171995	0.656539
Br34	Br	-0.000001	-1.532513	0.296003
H35	H	-0.577340	-2.033132	0.285328
H36	H	-0.422630	-1.802493	-0.265908
H37	H	-0.575532	-1.792652	-0.263682
H38	H	-0.424059	-2.032613	0.286453
Br39	Br	-0.594406	-2.096338	-0.187381
Br40	Br	-0.407640	-2.108040	-0.172570
H41	H	-0.575110	-1.710562	0.150838
H42	H	-0.576006	-1.611418	-0.075240
H43	H	-0.423804	-1.610966	-0.077305
H44	H	-0.000003	-1.311990	-0.183420
Br45	Br	-0.405335	-1.698290	0.227595
H46	H	-0.000012	-1.692570	0.436018
