data_functionalizedCrystal
_audit_creation_method	'MofGen! by Chris Wilmer'
_symmetry_space_group_name_H-M	'P1'
_symmetry_Int_Tables_number	1
_symmetry_cell_setting	triclinic
loop_
_symmetry_equiv_pos_as_xyz
  x,y,z
_cell_length_a	16.974897
_cell_length_b	14.044190
_cell_length_c	16.053802
_cell_angle_alpha	92.795827
_cell_angle_beta	83.774775
_cell_angle_gamma	88.286117
loop_
_atom_site_label
_atom_site_type_symbol
_atom_site_fract_x
_atom_site_fract_y
_atom_site_fract_z
O1	O	1.063874	0.112742	-0.141246
O2	O	1.563874	0.612742	0.358754
O3	O	0.834073	0.129006	-0.125738
O4	O	1.334073	0.629006	0.374262
O5	O	0.945521	-0.017092	-0.133243
O6	O	1.445521	0.482908	0.366757
O7	O	0.952426	0.258841	-0.133741
O8	O	1.452426	0.758841	0.366259
O9	O	0.939384	-0.009083	0.006030
O10	O	1.439384	0.490917	0.506030
O11	O	0.827936	0.137015	0.013534
O12	O	1.327936	0.637015	0.513534
O13	O	1.057737	0.120751	-0.001974
O14	O	1.557737	0.620751	0.498026
Zn15	Zn	0.941862	0.130155	0.027893
Zn16	Zn	1.441862	0.630155	0.527893
Zn17	Zn	0.949948	0.119603	-0.155604
Zn18	Zn	1.449948	0.619603	0.344396
O19	O	0.946290	0.266849	0.005531
O20	O	1.446290	0.766849	0.505531
C21	C	0.801417	0.132538	-0.054105
C22	C	1.301417	0.632538	0.445895
C23	C	0.713256	0.131120	-0.048155
C24	C	1.213256	0.631120	0.451845
C25	C	0.675175	0.126090	-0.121271
C26	C	1.175175	0.626090	0.378729
C27	C	0.592337	0.124773	-0.115667
C28	C	1.092337	0.624773	0.384333
C29	C	0.547581	0.128479	-0.036948
C30	C	1.047581	0.628479	0.463052
C31	C	0.585667	0.133511	0.036173
C32	C	1.085667	0.633511	0.536173
C33	C	0.668504	0.134835	0.030569
C34	C	1.168504	0.634835	0.530569
C35	C	0.299478	0.124994	-0.012047
C36	C	0.799478	0.624994	0.487953
C37	C	0.216636	0.123667	-0.006449
C38	C	0.716636	0.623667	0.493551
C39	C	0.223311	0.114930	-0.158290
C40	C	0.723311	0.614930	0.341710
C41	C	0.306149	0.116249	-0.163887
C42	C	0.806149	0.616249	0.336113
C43	C	0.344228	0.121286	-0.090766
C44	C	0.844228	0.621286	0.409234
N45	N	0.462907	0.127129	-0.031219
N46	N	0.962907	0.627129	0.468781
N47	N	0.428900	0.122642	-0.096496
N48	N	0.928900	0.622642	0.403504
C49	C	0.939432	-0.048386	-0.063400
C50	C	1.439432	0.451614	0.436600
C51	C	0.930422	-0.153566	-0.062785
C52	C	1.430422	0.346434	0.437215
C53	C	0.977850	-0.404097	-0.066018
C54	C	1.477850	0.095903	0.433982
C55	C	0.913964	-0.346141	-0.061701
C56	C	1.413964	0.153859	0.438299
C57	C	0.923123	-0.238982	-0.062304
C58	C	1.423123	0.261018	0.437696
C59	C	0.968692	-0.511265	-0.065415
C60	C	1.468692	-0.011265	0.434585
C61	C	1.090393	0.117219	-0.073609
C62	C	1.590393	0.617219	0.426391
C63	C	1.178555	0.118637	-0.079564
C64	C	1.678555	0.618637	0.420436
C65	C	0.952379	0.298144	-0.064313
C66	C	1.452379	0.798144	0.435687
C67	C	0.961389	0.403323	-0.064934
C68	C	1.461389	0.903323	0.435066
N69	N	0.936350	0.137355	0.153124
N70	N	1.436350	0.637355	0.653124
N71	N	0.955466	0.112395	-0.280836
N72	N	1.455466	0.612395	0.219164
C73	C	0.983792	0.075212	0.193623
C74	C	1.483792	0.575212	0.693623
C75	C	0.979944	0.080258	0.281289
C76	C	1.479944	0.580258	0.781289
C77	C	0.928658	0.147452	0.328454
C78	C	1.428658	0.647452	0.828454
C79	C	0.881211	0.209598	0.287949
C80	C	1.381211	0.709598	0.787949
C81	C	0.885055	0.204547	0.200285
C82	C	1.385055	0.704547	0.700285
C83	C	0.911863	0.169489	0.590995
C84	C	1.411863	0.669489	1.090995
C85	C	0.908024	0.174538	0.678664
C86	C	1.408024	0.674538	1.178664
C87	C	1.006757	0.045196	0.671999
C88	C	1.506757	0.545196	1.171999
C89	C	1.010600	0.040155	0.584333
C90	C	1.510600	0.540155	1.084333
C91	C	0.963150	0.102297	0.543836
C92	C	1.463150	0.602297	1.043836
N93	N	0.924725	0.152614	0.418063
N94	N	1.424725	0.652614	0.918063
N95	N	0.967079	0.097130	0.454229
N96	N	1.467079	0.597130	0.954229
H97	H	0.342584	0.113225	-0.227989
H98	H	0.842584	0.613225	0.272011
H99	H	0.699507	0.138935	0.090108
H100	H	1.199507	0.638935	0.590108
H101	H	0.852390	-0.377001	-0.057551
H102	H	1.352390	0.122999	0.442449
O103	O	1.026069	0.020034	0.320724
O104	O	1.526069	0.520034	0.820724
C105	C	1.076362	0.073492	0.367851
C106	C	1.576362	0.573492	0.867851
H107	H	1.049442	0.148532	0.382748
H108	H	1.549442	0.648532	0.882748
H109	H	1.136907	0.077730	0.330067
H110	H	1.636907	0.577730	0.830067
C111	C	1.118943	-0.067369	0.431947
C112	C	1.618943	0.432631	0.931947
C113	C	1.085875	0.024794	0.450250
C114	C	1.585875	0.524794	0.950250
H115	H	1.124814	-0.097409	0.482773
H116	H	1.624814	0.402591	0.982773
H117	H	1.085061	-0.103386	0.400195
H118	H	1.585061	0.396614	0.900195
H119	H	1.169393	-0.063825	0.400459
H120	H	1.669393	0.436175	0.900459
H121	H	1.035422	0.021248	0.481728
H122	H	1.535422	0.521248	0.981728
H123	H	1.119749	0.060810	0.482010
H124	H	1.619749	0.560810	0.982010
H125	H	1.039419	-0.373238	-0.070164
H126	H	1.539419	0.126762	0.429836
H127	H	1.052361	-0.014560	0.545933
H128	H	1.552361	0.485440	1.045933
H129	H	1.025558	0.020500	0.155227
H130	H	1.525558	0.520500	0.655227
H131	H	1.045387	-0.005399	0.704980
H132	H	1.545387	0.494601	1.204980
H133	H	0.180196	0.126711	0.057658
H134	H	0.680196	0.626711	0.557658
H135	H	0.866259	0.229259	0.717062
H136	H	1.366259	0.729259	1.217062
O137	O	0.865748	0.229956	0.551794
O138	O	1.365748	0.729956	1.051794
C139	C	0.819648	0.290330	0.612225
C140	C	1.319648	0.790330	1.112225
H141	H	0.849499	0.294855	0.672504
H142	H	1.349499	0.794855	1.172504
H143	H	0.758155	0.260362	0.625696
H144	H	1.258155	0.760362	1.125696
C145	C	0.775368	0.385095	0.504574
C146	C	1.275368	0.885095	1.004574
C147	C	0.812036	0.390658	0.578609
C148	C	1.312036	0.890658	1.078609
H149	H	0.770669	0.446981	0.483838
H150	H	1.270669	0.946981	0.983838
H151	H	0.806424	0.344418	0.463860
H152	H	1.306424	0.844418	0.963860
H153	H	0.724128	0.360117	0.515810
H154	H	1.224128	0.860117	1.015810
H155	H	0.863278	0.415624	0.567369
H156	H	1.363278	0.915624	1.067369
H157	H	0.780988	0.431342	0.619320
H158	H	1.280988	0.931342	1.119320
O159	O	0.186276	0.110216	-0.229290
O160	O	0.686276	0.610216	0.270710
C161	C	0.135377	0.191236	-0.230375
C162	C	0.635377	0.691236	0.269625
H163	H	0.156233	0.251463	-0.188836
H164	H	0.656233	0.751463	0.311164
H165	H	0.072416	0.172854	-0.205779
H166	H	0.572416	0.672854	0.294221
C167	C	0.111036	0.149240	-0.371915
C168	C	0.611036	0.649240	0.128085
C169	C	0.136656	0.223215	-0.320902
C170	C	0.636656	0.723215	0.179098
H171	H	0.111822	0.168965	-0.427756
H172	H	0.611822	0.668965	0.072244
H173	H	0.145325	0.094654	-0.371183
H174	H	0.645325	0.594654	0.128817
H175	H	0.058571	0.133929	-0.351408
H176	H	0.558571	0.633929	0.148592
H177	H	0.189123	0.238517	-0.341402
H178	H	0.689123	0.738517	0.158598
H179	H	0.102376	0.277805	-0.321639
H180	H	0.602376	0.777805	0.178361
O181	O	0.831275	0.274772	0.333735
O182	O	1.331275	0.774772	0.833735
C183	C	0.752629	0.258491	0.317693
C184	C	1.252629	0.758491	0.817693
H185	H	0.747934	0.181242	0.293998
H186	H	1.247934	0.681242	0.793998
H187	H	0.735281	0.308183	0.268125
H188	H	1.235281	0.808183	0.768125
C189	C	0.702263	0.372814	0.428239
C190	C	1.202263	0.872814	0.928239
C191	C	0.696495	0.277932	0.399144
C192	C	1.196495	0.777932	0.899144
H193	H	0.667635	0.384809	0.478480
H194	H	1.167635	0.884809	0.978480
H195	H	0.755248	0.383785	0.439045
H196	H	1.255248	0.883785	0.939045
H197	H	0.687807	0.414212	0.386925
H198	H	1.187807	0.914212	0.886925
H199	H	0.710960	0.236535	0.440453
H200	H	1.210960	0.736535	0.940453
H201	H	0.643511	0.266954	0.388346
H202	H	1.143511	0.766954	0.888346
H203	H	0.846422	0.255149	0.167311
H204	H	1.346422	0.755149	0.667311
H205	H	0.711610	0.123070	-0.185373
H206	H	1.211610	0.623070	0.314627
H207	H	0.561335	0.120678	-0.175206
H208	H	1.061335	0.620678	0.324794
H209	H	0.330472	0.129089	0.047493
H210	H	0.830472	0.629089	0.547493
H211	H	0.549220	0.136534	0.100269
H212	H	1.049220	0.636534	0.600269
