data_functionalizedCrystal
_audit_creation_method	'MofGen! by Chris Wilmer'
_symmetry_space_group_name_H-M	'P1'
_symmetry_Int_Tables_number	1
_symmetry_cell_setting	triclinic
loop_
_symmetry_equiv_pos_as_xyz
  x,y,z
_cell_length_a	6.817900
_cell_length_b	15.301126
_cell_length_c	9.582880
_cell_angle_alpha	92.795801
_cell_angle_beta	111.207034
_cell_angle_gamma	104.177575
loop_
_atom_site_label
_atom_site_type_symbol
_atom_site_fract_x
_atom_site_fract_y
_atom_site_fract_z
V1	V	-4.120136	-0.124378	-0.467055
O2	O	-4.102207	0.006368	-0.457696
O3	O	-4.074539	-0.246997	-0.464311
O4	O	-4.110851	-0.122293	-0.670548
O5	O	-4.065644	-0.119199	-0.250031
V6	V	-4.598332	-0.108759	-0.441042
O7	O	-4.393079	-0.158638	-0.524115
O8	O	-4.775587	-0.074499	-0.383982
O9	O	-4.420723	0.013860	-0.443786
O10	O	-4.733658	-0.239506	-0.450401
O11	O	-4.770221	-0.113938	-0.658066
O12	O	-4.384411	-0.110844	-0.237549
C13	C	-3.918956	-0.276894	-0.457059
C14	C	-3.963222	-0.377136	-0.456171
C15	C	-4.167694	-0.428816	-0.463236
C16	C	-4.209280	-0.523005	-0.462411
C17	C	-4.046385	-0.565510	-0.454511
C18	C	-3.841899	-0.513823	-0.447450
C19	C	-3.800321	-0.419637	-0.448286
C20	C	-3.928571	-0.710135	-0.445705
C21	C	-3.970149	-0.804327	-0.444867
C22	C	-4.337529	-0.813502	-0.459830
C23	C	-4.295952	-0.719317	-0.460666
C24	C	-4.091466	-0.667636	-0.453603
C25	C	-3.965274	-0.117821	-0.720133
C26	C	-4.038985	-0.116927	-0.886493
C27	C	-4.239647	0.043752	-0.451034
C28	C	-4.174620	0.143993	-0.451931
C29	C	-4.193328	-0.115320	-0.187956
C30	C	-4.098855	-0.116208	-0.021595
H31	H	-4.428593	-0.684711	-0.467090
C32	C	-3.793611	-0.850616	-0.436546
C33	C	-3.870026	-0.916486	-0.565002
C34	C	-3.707469	-0.959152	-0.557382
H35	H	-3.665797	-0.806453	-0.432541
H36	H	-3.759347	-0.879054	-0.348247
H37	H	-3.904261	-0.888048	-0.653277
H38	H	-3.997819	-0.960666	-0.569033
H39	H	-3.673205	-0.987591	-0.469083
H40	H	-3.579664	-0.914983	-0.553374
H41	H	-3.759301	-1.003855	-0.644529
H42	H	-3.633825	-0.377561	-0.442540
H43	H	-3.762066	-0.668060	-0.439966
C44	C	-4.431362	-0.579196	-0.470345
C45	C	-4.529259	-0.645579	-0.599702
C46	C	-4.733850	-0.697355	-0.607057
H47	H	-4.412577	-0.608043	-0.382724
H48	H	-4.522542	-0.540437	-0.475233
H49	H	-4.438100	-0.684333	-0.594801
H50	H	-4.548100	-0.616758	-0.687345
H51	H	-4.825031	-0.658596	-0.611945
H52	H	-4.715044	-0.726195	-0.519430
H53	H	-4.800308	-0.742396	-0.694832
H54	H	-4.504019	-0.855583	-0.465560
H55	H	-4.300340	-0.394215	-0.469655
H56	H	-3.709275	-0.548439	-0.441027
