data_functionalizedCrystal
_audit_creation_method	'MofGen! by Chris Wilmer'
_symmetry_space_group_name_H-M	'P1'
_symmetry_Int_Tables_number	1
_symmetry_cell_setting	triclinic
loop_
_symmetry_equiv_pos_as_xyz
  x,y,z
_cell_length_a	14.044191
_cell_length_b	23.532407
_cell_length_c	12.503572
_cell_angle_alpha	93.496478
_cell_angle_beta	86.162165
_cell_angle_gamma	88.020227
loop_
_atom_site_label
_atom_site_type_symbol
_atom_site_fract_x
_atom_site_fract_y
_atom_site_fract_z
O1	O	1.261909	0.134239	-0.089289
O2	O	1.761909	0.634239	0.410711
O3	O	0.985986	0.129282	-0.089302
O4	O	1.485986	0.629282	0.410698
O5	O	1.132267	0.049280	-0.089275
O6	O	1.632267	0.549280	0.410725
O7	O	1.115628	0.214240	-0.089315
O8	O	1.615628	0.714240	0.410685
O9	O	1.121265	0.055308	0.089365
O10	O	1.621265	0.555308	0.589365
O11	O	0.974985	0.135309	0.089338
O12	O	1.474985	0.635309	0.589338
O13	O	1.250907	0.140266	0.089351
O14	O	1.750907	0.640266	0.589351
Cu15	Cu	1.111942	0.138338	0.105656
Cu16	Cu	1.611942	0.638338	0.605656
Cu17	Cu	1.124952	0.131210	-0.105606
Cu18	Cu	1.624952	0.631210	0.394394
O19	O	1.104627	0.220268	0.089325
O20	O	1.604627	0.720268	0.589325
C21	C	0.945192	0.130127	0.000017
C22	C	1.445192	0.630127	0.500017
C23	C	0.840027	0.123660	0.000013
C24	C	1.340027	0.623660	0.500013
C25	C	0.589420	0.157705	0.000015
C26	C	1.089420	0.657705	0.500015
C27	C	0.647480	0.111845	0.000025
C28	C	1.147480	0.611845	0.500025
C29	C	0.754623	0.118420	0.000018
C30	C	1.254623	0.618420	0.500018
C31	C	0.482267	0.151131	0.000022
C32	C	0.982267	0.651131	0.500022
C33	C	1.126342	0.031055	0.000048
C34	C	1.626342	0.531055	0.500048
C35	C	1.125068	-0.032231	0.000056
C36	C	1.625068	0.467769	0.500056
C37	C	1.203646	-0.427075	0.000001
C38	C	1.703646	0.072925	0.500001
C39	C	1.202463	-0.486540	-0.000008
C40	C	1.702463	0.013460	0.499992
O41	O	1.275306	-0.519337	-0.000044
O42	O	1.775306	-0.019337	0.499956
N43	N	1.115499	-0.513881	-0.000011
N44	N	1.615499	-0.013881	0.499989
C45	C	1.029713	-0.481755	-0.000017
C46	C	1.529713	0.018245	0.499983
O47	O	0.955634	-0.510471	-0.000021
O48	O	1.455634	-0.010471	0.499979
C49	C	1.030897	-0.422292	-0.000016
C50	C	1.530897	0.077708	0.499984
C51	C	1.117867	-0.394953	-0.000002
C52	C	1.617867	0.105047	0.499998
C53	C	1.290609	-0.399737	0.000013
C54	C	1.790609	0.100263	0.500013
C55	C	1.291791	-0.340276	0.000024
C56	C	1.791791	0.159724	0.500024
C57	C	1.206011	-0.308154	0.000021
C58	C	1.706011	0.191846	0.500021
C59	C	1.119049	-0.335493	0.000008
C60	C	1.619049	0.164507	0.500008
C61	C	0.945113	-0.390167	-0.000030
C62	C	1.445113	0.109833	0.499970
C63	C	0.946305	-0.330699	-0.000030
C64	C	1.446305	0.169301	0.499970
C65	C	1.033274	-0.303361	-0.000016
C66	C	1.533274	0.196639	0.499984
C67	C	1.034452	-0.243910	0.000015
C68	C	1.534452	0.256090	0.500015
N69	N	1.121416	-0.216569	0.000019
N70	N	1.621416	0.283431	0.500019
C71	C	1.207196	-0.248691	0.000021
C72	C	1.707196	0.251309	0.500021
C73	C	1.027232	-0.606632	-0.000020
C74	C	1.527232	-0.106632	0.499980
C75	C	1.026046	-0.666094	-0.000013
C76	C	1.526046	-0.166094	0.499987
C77	C	1.198797	-0.670875	-0.000006
C78	C	1.698797	-0.170875	0.499994
C79	C	1.199982	-0.611412	-0.000005
C80	C	1.699982	-0.111412	0.499995
C81	C	1.114196	-0.579291	-0.000017
C82	C	1.614196	-0.079291	0.499983
C83	C	1.209673	-0.123819	0.000044
C84	C	1.709673	0.376181	0.500044
C85	C	1.210847	-0.064353	0.000058
C86	C	1.710847	0.435647	0.500058
C87	C	1.038097	-0.059577	0.000046
C88	C	1.538097	0.440423	0.500046
C89	C	1.036922	-0.119038	0.000037
C90	C	1.536922	0.380962	0.500037
C91	C	1.122717	-0.151158	0.000032
C92	C	1.622717	0.348842	0.500032
O93	O	0.961648	-0.211077	0.000047
O94	O	1.461648	0.288923	0.500047
O95	O	1.281263	-0.219968	0.000012
O96	O	1.781263	0.280032	0.500012
C97	C	1.291702	0.139421	0.000030
C98	C	1.791702	0.639421	0.500030
C99	C	1.396867	0.145888	0.000027
C100	C	1.896867	0.645888	0.500027
C101	C	1.110552	0.238493	-0.000000
C102	C	1.610552	0.738493	0.500000
C103	C	1.111827	0.301778	-0.000016
C104	C	1.611827	0.801778	0.499984
N105	N	1.102798	0.143352	0.254247
N106	N	1.602798	0.643352	0.754247
N107	N	1.134103	0.126192	-0.254197
N108	N	1.634103	0.626192	0.245803
C109	C	1.089347	0.150732	0.473359
C110	C	1.589347	0.650732	0.973359
C111	C	1.147551	0.118814	0.526697
C112	C	1.647551	0.618814	1.026697
C113	C	1.140067	0.122920	0.648619
C114	C	1.640067	0.622920	1.148619
C115	C	1.096830	0.146626	0.351426
C116	C	1.596830	0.646626	0.851426
H117	H	0.620178	0.201901	0.000001
H118	H	1.120178	0.701901	0.500001
Cl119	Cl	1.233524	0.072100	0.455833
Cl120	Cl	1.733524	0.572100	0.955833
Cl121	Cl	1.306636	-0.711269	-0.000010
Cl122	Cl	1.806636	-0.211269	0.499990
Cl123	Cl	1.003742	0.197681	0.544223
Cl124	Cl	1.503742	0.697681	1.044223
H125	H	1.279536	-0.149964	0.000036
H126	H	1.779536	0.350036	0.500036
Cl127	Cl	0.599994	0.043603	0.000040
Cl128	Cl	1.099994	0.543603	0.500040
H129	H	1.281671	-0.042097	0.000073
H130	H	1.781671	0.457903	0.500073
Cl131	Cl	1.401132	-0.305918	0.000011
Cl132	Cl	1.901132	0.194082	0.500011
Cl133	Cl	1.398462	-0.440109	0.000019
Cl134	Cl	1.898462	0.059891	0.500019
H135	H	0.955226	-0.688347	-0.000006
H136	H	1.455226	-0.188347	0.499994
Cl137	Cl	1.309318	-0.577050	0.000011
Cl138	Cl	1.809318	-0.077050	0.500011
Cl139	Cl	0.835773	-0.424520	-0.000055
Cl140	Cl	1.335773	0.075480	0.499945
Cl141	Cl	0.919375	-0.566257	-0.000022
Cl142	Cl	1.419375	-0.066257	0.499978
H143	H	0.876446	-0.304549	-0.000041
H144	H	1.376446	0.195451	0.499959
H145	H	0.966102	-0.141297	0.000055
H146	H	1.466102	0.358703	0.500055
H147	H	0.968257	-0.033412	0.000047
H148	H	1.468257	0.466588	0.500047
