data_functionalizedCrystal
_audit_creation_method	'MofGen! by Chris Wilmer'
_symmetry_space_group_name_H-M	'P1'
_symmetry_Int_Tables_number	1
_symmetry_cell_setting	triclinic
loop_
_symmetry_equiv_pos_as_xyz
  x,y,z
_cell_length_a	23.532407
_cell_length_b	22.610064
_cell_length_c	23.532407
_cell_angle_alpha	89.990850
_cell_angle_beta	97.151322
_cell_angle_gamma	90.009934
loop_
_atom_site_label
_atom_site_type_symbol
_atom_site_fract_x
_atom_site_fract_y
_atom_site_fract_z
O1	O	0.755269	0.049117	-0.069133
O2	O	1.088602	0.382450	0.264200
O3	O	1.421935	0.715783	0.597533
O4	O	0.589405	0.049135	-0.079137
O5	O	0.922739	0.382468	0.254197
O6	O	1.256072	0.715802	0.587530
O7	O	0.677338	0.049114	0.008797
O8	O	1.010672	0.382448	0.342130
O9	O	1.344005	0.715781	0.675463
O10	O	0.667335	0.049137	-0.157067
O11	O	1.000669	0.382471	0.176267
O12	O	1.334002	0.715804	0.509600
O13	O	0.677313	-0.049255	0.008797
O14	O	1.010646	0.284079	0.342130
O15	O	1.343979	0.617412	0.675463
O16	O	0.589380	-0.049234	-0.079137
O17	O	0.922713	0.284099	0.254197
O18	O	1.256046	0.617432	0.587530
O19	O	0.755243	-0.049252	-0.069133
O20	O	1.088576	0.284081	0.264200
O21	O	1.421910	0.617414	0.597533
Zn22	Zn	0.672307	-0.064862	-0.074135
Zn23	Zn	1.005640	0.268472	0.259198
Zn24	Zn	1.338974	0.601805	0.592532
Zn25	Zn	0.672341	0.064744	-0.074135
Zn26	Zn	1.005674	0.398077	0.259198
Zn27	Zn	1.339008	0.731411	0.592532
O28	O	0.667310	-0.049232	-0.157067
O29	O	1.000643	0.284101	0.176267
O30	O	1.333976	0.617435	0.509600
C31	C	0.568176	-0.000048	-0.078882
C32	C	0.901510	0.333286	0.254451
C33	C	1.234843	0.666619	0.587785
C34	C	0.504959	-0.000041	-0.078116
C35	C	0.838293	0.333292	0.255217
C36	C	1.171626	0.666626	0.588551
N37	N	0.672288	-0.153314	-0.074135
N38	N	1.005622	0.180019	0.259199
N39	N	1.338955	0.513353	0.592532
C40	C	0.105856	-0.000061	-0.125350
C41	C	0.439190	0.333272	0.207984
C42	C	0.772523	0.666605	0.541317
C43	C	0.046456	-0.000065	-0.124638
C44	C	0.379789	0.333268	0.208695
C45	C	0.713123	0.666602	0.542029
O46	O	0.009711	-0.000081	-0.168424
O47	O	0.343045	0.333253	0.164909
O48	O	0.676378	0.666586	0.498243
N49	N	0.023830	-0.000071	-0.072362
N50	N	0.357163	0.333262	0.260972
N51	N	0.690496	0.666595	0.594305
C52	C	0.060607	-0.000080	-0.020794
C53	C	0.393941	0.333254	0.312540
C54	C	0.727274	0.666587	0.645873
O55	O	0.035908	-0.000086	0.023737
O56	O	0.369241	0.333247	0.357070
O57	O	0.702574	0.666581	0.690404
C58	C	0.120006	-0.000080	-0.021506
C59	C	0.453340	0.333253	0.311828
C60	C	0.786673	0.666586	0.645161
C61	C	0.142629	-0.000068	-0.073785
C62	C	0.475962	0.333265	0.259548
C63	C	0.809296	0.666599	0.592881
C64	C	0.128479	-0.000050	-0.177625
C65	C	0.461813	0.333284	0.155708
C66	C	0.795146	0.666617	0.489042
C67	C	0.187876	-0.000045	-0.178336
C68	C	0.521209	0.333288	0.154997
C69	C	0.854542	0.666622	0.488330
C70	C	0.224649	-0.000052	-0.126772
C71	C	0.557982	0.333282	0.206561
C72	C	0.891315	0.666615	0.539895
C73	C	0.202025	-0.000063	-0.074497
C74	C	0.535359	0.333270	0.258837
C75	C	0.868692	0.666603	0.592170
C76	C	0.156783	-0.000093	0.030062
C77	C	0.490116	0.333240	0.363395
C78	C	0.823450	0.666574	0.696729
C79	C	0.216185	-0.000094	0.029345
C80	C	0.549519	0.333239	0.362679
C81	C	0.882852	0.666573	0.696012
C82	C	0.238808	-0.000082	-0.022934
C83	C	0.572141	0.333252	0.310399
C84	C	0.905475	0.666585	0.643732
C85	C	0.298194	-0.000065	-0.023643
C86	C	0.631528	0.333268	0.309690
C87	C	0.964861	0.666602	0.643023
N88	N	0.320820	-0.000059	-0.075920
N89	N	0.654154	0.333274	0.257414
N90	N	0.987487	0.666608	0.590747
C91	C	0.284048	-0.000052	-0.127484
C92	C	0.617381	0.333281	0.205849
C93	C	0.950714	0.666614	0.539183
C94	C	-0.064135	-0.000080	-0.019302
C95	C	0.269198	0.333254	0.314031
C96	C	0.602532	0.666587	0.647365
C97	C	-0.123533	-0.000075	-0.018589
C98	C	0.209800	0.333258	0.314744
C99	C	0.543134	0.666592	0.648077
C100	C	-0.137680	-0.000061	-0.122434
C101	C	0.195653	0.333272	0.210899
C102	C	0.528986	0.666605	0.544232
C103	C	-0.078281	-0.000062	-0.123146
C104	C	0.255052	0.333271	0.210187
C105	C	0.588385	0.666605	0.543520
C106	C	-0.041509	-0.000074	-0.071578
C107	C	0.291824	0.333260	0.261755
C108	C	0.625158	0.666593	0.595088
C109	C	0.408784	-0.000042	-0.128974
C110	C	0.742118	0.333292	0.204360
C111	C	1.075451	0.666625	0.537693
C112	C	0.468186	-0.000034	-0.129680
C113	C	0.801520	0.333299	0.203653
C114	C	1.134853	0.666632	0.536986
C115	C	0.482329	-0.000051	-0.025836
C116	C	0.815662	0.333282	0.307497
C117	C	1.148995	0.666616	0.640831
C118	C	0.422932	-0.000055	-0.025129
C119	C	0.756265	0.333278	0.308204
C120	C	1.089598	0.666611	0.641538
C121	C	0.386160	-0.000052	-0.076702
C122	C	0.719494	0.333281	0.256631
C123	C	1.052827	0.666614	0.589964
O124	O	0.334974	-0.000052	0.020119
O125	O	0.668307	0.333281	0.353453
O126	O	1.001640	0.666615	0.686786
O127	O	0.308755	-0.000054	-0.172007
O128	O	0.642089	0.333279	0.161326
O129	O	0.975422	0.666613	0.494660
C130	C	0.706686	-0.561955	-0.108496
C131	C	1.040019	-0.228621	0.224838
C132	C	1.373352	0.104712	0.558171
C133	C	0.706693	-0.623874	-0.108494
C134	C	1.040026	-0.290541	0.224839
C135	C	1.373359	0.042792	0.558173
O136	O	0.735916	-0.655892	-0.137705
O137	O	1.069249	-0.322559	0.195628
O138	O	1.402583	0.010774	0.528962
N139	N	0.672352	-0.654851	-0.074128
N140	N	1.005685	-0.321518	0.259205
N141	N	1.339019	0.011815	0.592538
C142	C	0.638006	-0.623905	-0.039758
C143	C	0.971339	-0.290572	0.293576
C144	C	1.304673	0.042762	0.626909
O145	O	0.608797	-0.655939	-0.010527
O146	O	0.942131	-0.322605	0.322807
O147	O	1.275464	0.010728	0.656140
C148	C	0.638002	-0.561986	-0.039757
C149	C	0.971336	-0.228653	0.293577
C150	C	1.304669	0.104681	0.626910
C151	C	0.672341	-0.531013	-0.074129
C152	C	1.005674	-0.197679	0.259205
C153	C	1.339008	0.135654	0.592538
C154	C	0.741022	-0.530981	-0.142864
C155	C	1.074355	-0.197648	0.190469
C156	C	1.407689	0.135686	0.523802
C157	C	0.741014	-0.469065	-0.142867
C158	C	1.074347	-0.135732	0.190467
C159	C	1.407681	0.197601	0.523800
C160	C	0.706669	-0.438123	-0.108500
C161	C	1.040003	-0.104790	0.224834
C162	C	1.373336	0.228543	0.558167
C163	C	0.672333	-0.469097	-0.074131
C164	C	1.005666	-0.135764	0.259203
C165	C	1.339000	0.197570	0.592536
C166	C	0.603660	-0.531041	-0.005383
C167	C	0.936993	-0.197708	0.327950
C168	C	1.270327	0.135626	0.661284
C169	C	0.603659	-0.469118	-0.005384
C170	C	0.936993	-0.135785	0.327949
C171	C	1.270326	0.197549	0.661282
C172	C	0.637998	-0.438144	-0.039757
C173	C	0.971332	-0.104811	0.293577
C174	C	1.304665	0.228522	0.626910
C175	C	0.637980	-0.376239	-0.039766
C176	C	0.971314	-0.042906	0.293567
C177	C	1.304647	0.290427	0.626901
N178	N	0.672321	-0.345262	-0.074132
N179	N	1.005655	-0.011929	0.259202
N180	N	1.338988	0.321404	0.592535
C181	C	0.706666	-0.376204	-0.108498
C182	C	1.039999	-0.042871	0.224835
C183	C	1.373332	0.290462	0.558168
C184	C	0.638017	-0.753938	-0.039762
C185	C	0.971350	-0.420605	0.293571
C186	C	1.304684	-0.087272	0.626904
C187	C	0.638017	-0.815856	-0.039766
C188	C	0.971351	-0.482523	0.293567
C189	C	1.304684	-0.149189	0.626901
C190	C	0.706705	-0.815821	-0.108502
C191	C	1.040038	-0.482488	0.224832
C192	C	1.373372	-0.149155	0.558165
C193	C	0.706701	-0.753903	-0.108501
C194	C	1.040035	-0.420569	0.224833
C195	C	1.373368	-0.087236	0.558166
C196	C	0.672358	-0.722962	-0.074128
C197	C	1.005691	-0.389628	0.259206
C198	C	1.339025	-0.056295	0.592539
C199	C	0.706646	-0.246177	-0.108501
C200	C	1.039979	0.087156	0.224833
C201	C	1.373312	0.420489	0.558166
C202	C	0.706633	-0.184256	-0.108502
C203	C	1.039966	0.149077	0.224832
C204	C	1.373299	0.482411	0.558165
C205	C	0.637948	-0.184296	-0.039764
C206	C	0.971281	0.149037	0.293570
C207	C	1.304614	0.482371	0.626903
C208	C	0.637958	-0.246212	-0.039765
C209	C	0.971291	0.087122	0.293568
C210	C	1.304625	0.420455	0.626902
C211	C	0.672312	-0.277151	-0.074135
C212	C	1.005645	0.056182	0.259198
C213	C	1.338978	0.389516	0.592532
O214	O	0.608774	-0.344182	-0.010568
O215	O	0.942107	-0.010849	0.322765
O216	O	1.275440	0.322485	0.656098
O217	O	0.735875	-0.344163	-0.137719
O218	O	1.069208	-0.010830	0.195614
O219	O	1.402542	0.322504	0.528948
C220	C	0.776472	-0.000069	-0.069388
C221	C	1.109805	0.333265	0.263945
C222	C	1.443138	0.666598	0.597278
C223	C	0.839689	-0.000071	-0.070154
C224	C	1.173022	0.333262	0.263179
C225	C	1.506355	0.666595	0.596513
C226	C	0.677071	-0.000072	0.030013
C227	C	1.010404	0.333262	0.363346
C228	C	1.343738	0.666595	0.696679
C229	C	0.676305	-0.000076	0.093230
C230	C	1.009638	0.333257	0.426563
C231	C	1.342972	0.666591	0.759896
N232	N	0.672364	0.153196	-0.074131
N233	N	1.005698	0.486530	0.259202
N234	N	1.339031	0.819863	0.592536
C235	C	0.667577	-0.000045	-0.178283
C236	C	1.000910	0.333289	0.155051
C237	C	1.334244	0.666622	0.488384
C238	C	0.668343	-0.000036	-0.241500
C239	C	1.001676	0.333297	0.091833
C240	C	1.335010	0.666630	0.425167
C241	C	0.723539	-0.000049	0.492333
C242	C	1.056872	0.333284	0.825666
C243	C	1.390205	0.666618	1.158999
C244	C	0.722827	-0.000044	0.551733
C245	C	1.056160	0.333289	0.885066
C246	C	1.389494	0.666622	1.218400
O247	O	0.766613	-0.000027	0.588478
O248	O	1.099946	0.333306	0.921811
O249	O	1.433280	0.666639	1.255144
N250	N	0.670551	-0.000039	0.574359
N251	N	1.003884	0.333294	0.907693
N252	N	1.337217	0.666628	1.241026
C253	C	0.618983	-0.000032	0.537582
C254	C	0.952316	0.333301	0.870915
C255	C	1.285649	0.666634	1.204248
O256	O	0.574452	-0.000027	0.562281
O257	O	0.907785	0.333307	0.895615
O258	O	1.241119	0.666640	1.228948
C259	C	0.619695	-0.000033	0.478182
C260	C	0.953028	0.333301	0.811516
C261	C	1.286361	0.666634	1.144849
C262	C	0.671974	-0.000044	0.455560
C263	C	1.005308	0.333289	0.788893
C264	C	1.338641	0.666623	1.122227
C265	C	0.775814	-0.000060	0.469710
C266	C	1.109147	0.333274	0.803043
C267	C	1.442481	0.666607	1.136376
C268	C	0.776525	-0.000065	0.410313
C269	C	1.109859	0.333268	0.743647
C270	C	1.443192	0.666601	1.076980
C271	C	0.724961	-0.000060	0.373540
C272	C	1.058294	0.333273	0.706874
C273	C	1.391628	0.666606	1.040207
C274	C	0.672685	-0.000050	0.396164
C275	C	1.006019	0.333284	0.729497
C276	C	1.339352	0.666617	1.062830
C277	C	0.568127	-0.000022	0.441406
C278	C	0.901460	0.333312	0.774739
C279	C	1.234794	0.666645	1.108073
C280	C	0.568844	-0.000021	0.382004
C281	C	0.902177	0.333312	0.715337
C282	C	1.235510	0.666645	1.048670
C283	C	0.621123	-0.000033	0.359381
C284	C	0.954457	0.333301	0.692714
C285	C	1.287790	0.666634	1.026048
C286	C	0.621832	-0.000050	0.299995
C287	C	0.955166	0.333283	0.633328
C288	C	1.288499	0.666616	0.966661
N289	N	0.674109	-0.000056	0.277368
N290	N	1.007442	0.333278	0.610702
N291	N	1.340775	0.666611	0.944035
C292	C	0.725673	-0.000061	0.314141
C293	C	1.059006	0.333273	0.647475
C294	C	1.392340	0.666606	0.980808
C295	C	0.617491	-0.000031	0.662324
C296	C	0.950824	0.333303	0.995657
C297	C	1.284158	0.666636	1.328991
C298	C	0.616778	-0.000034	0.721722
C299	C	0.950112	0.333299	1.055055
C300	C	1.283445	0.666632	1.388389
C301	C	0.720623	-0.000045	0.735869
C302	C	1.053957	0.333288	1.069203
C303	C	1.387290	0.666621	1.402536
C304	C	0.721335	-0.000046	0.676470
C305	C	1.054669	0.333288	1.009804
C306	C	1.388002	0.666621	1.343137
C307	C	0.669767	-0.000036	0.639698
C308	C	1.003101	0.333298	0.973031
C309	C	1.336434	0.666631	1.306365
C310	C	0.727163	-0.000073	0.189405
C311	C	1.060496	0.333260	0.522738
C312	C	1.393829	0.666594	0.856071
C313	C	0.727869	-0.000081	0.130003
C314	C	1.061203	0.333252	0.463336
C315	C	1.394536	0.666586	0.796669
C316	C	0.624025	-0.000067	0.115860
C317	C	0.957358	0.333266	0.449194
C318	C	1.290691	0.666600	0.782527
C319	C	0.623318	-0.000062	0.175257
C320	C	0.956651	0.333271	0.508591
C321	C	1.289985	0.666605	0.841924
C322	C	0.674891	-0.000063	0.212029
C323	C	1.008225	0.333270	0.545362
C324	C	1.341558	0.666604	0.878695
O325	O	0.578070	-0.000065	0.263215
O326	O	0.911403	0.333268	0.596549
O327	O	1.244736	0.666602	0.929882
O328	O	0.770196	-0.000058	0.289433
O329	O	1.103529	0.333275	0.622767
O330	O	1.436863	0.666608	0.956100
H331	H	0.486602	-0.000024	-0.172255
H332	H	0.819935	0.333309	0.161079
H333	H	1.153269	0.666643	0.494412
H334	H	0.575698	-0.556249	0.022607
H335	H	0.909032	-0.222916	0.355941
H336	H	1.242365	0.110418	0.689274
H337	H	-0.167632	-0.000059	-0.164421
H338	H	0.165701	0.333275	0.168913
H339	H	0.499035	0.666608	0.502246
H340	H	0.609984	-0.159092	-0.011785
H341	H	0.943317	0.174241	0.321549
H342	H	1.276650	0.507575	0.654882
H343	H	0.768992	-0.556167	-0.170850
H344	H	1.102326	-0.222834	0.162483
H345	H	1.435659	0.110499	0.495817
H346	H	0.378851	-0.000041	-0.170970
H347	H	0.712185	0.333292	0.162363
H348	H	1.045518	0.666625	0.495697
H349	H	0.575693	-0.443929	0.022607
H350	H	0.909026	-0.110596	0.355940
H351	H	1.242359	0.222738	0.689274
H352	H	0.609989	-0.271432	-0.011784
H353	H	0.943323	0.061902	0.321550
H354	H	1.276656	0.395235	0.654883
Cl355	Cl	0.793597	-0.000094	0.101567
Cl356	Cl	1.126931	0.333239	0.434900
Cl357	Cl	1.460264	0.666573	0.768234
Cl358	Cl	0.791999	-0.000075	0.235622
Cl359	Cl	1.125332	0.333258	0.568956
Cl360	Cl	1.458666	0.666591	0.902289
H361	H	0.610048	-0.841070	-0.011784
H362	H	0.943382	-0.507736	0.321550
H363	H	1.276715	-0.174403	0.654883
H364	H	0.246123	-0.000104	0.071339
H365	H	0.579457	0.333229	0.404673
H366	H	0.912790	0.666563	0.738006
H367	H	0.734595	-0.159040	-0.136494
H368	H	1.067929	0.174293	0.196839
H369	H	1.401262	0.507627	0.530173
H370	H	0.762610	-0.000047	0.765821
H371	H	1.095943	0.333286	1.099154
H372	H	1.429276	0.666620	1.432488
Cl373	Cl	0.784176	-0.430136	-0.186089
Cl374	Cl	1.117510	-0.096803	0.147245
Cl375	Cl	1.450843	0.236530	0.480578
Cl376	Cl	0.840647	-0.000067	0.515929
Cl377	Cl	1.173980	0.333267	0.849262
Cl378	Cl	1.507314	0.666600	1.182596
H379	H	0.819097	-0.000072	0.391900
H380	H	1.152430	0.333261	0.725233
H381	H	1.485763	0.666595	1.058567
Cl382	Cl	0.551053	-0.000032	0.750154
Cl383	Cl	0.884386	0.333302	1.083487
Cl384	Cl	1.217719	0.666635	1.416821
H385	H	0.206289	-0.000035	-0.220908
H386	H	0.539622	0.333298	0.112426
H387	H	0.872956	0.666632	0.445759
H388	H	0.734663	-0.728688	-0.136490
H389	H	1.067996	-0.395355	0.196843
H390	H	1.401329	-0.062021	0.530177
H391	H	0.734620	-0.271360	-0.136488
H392	H	1.067953	0.061973	0.196846
H393	H	1.401287	0.395306	0.530179
Cl394	Cl	0.394491	-0.000073	0.040595
Cl395	Cl	0.727824	0.333260	0.373928
Cl396	Cl	1.061158	0.666593	0.707261
Cl397	Cl	0.502400	-0.000003	0.469831
Cl398	Cl	0.835733	0.333330	0.803164
Cl399	Cl	1.169066	0.666663	1.136497
Cl400	Cl	0.787060	-0.000059	0.648037
Cl401	Cl	1.120394	0.333274	0.981370
Cl402	Cl	1.453727	0.666607	1.314704
H403	H	0.138375	-0.000103	0.072634
H404	H	0.471708	0.333230	0.405967
H405	H	0.805041	0.666563	0.739300
H406	H	0.734670	-0.841026	-0.136486
H407	H	1.068003	-0.507692	0.196847
H408	H	1.401336	-0.174359	0.530181
H409	H	0.526850	-0.000013	0.352066
H410	H	0.860183	0.333321	0.685399
H411	H	1.193516	0.666654	1.018732
H412	H	-0.141947	-0.000076	0.023982
H413	H	0.191387	0.333258	0.357315
H414	H	0.524720	0.666591	0.690648
Cl415	Cl	0.594831	-0.715047	0.003446
Cl416	Cl	0.928164	-0.381714	0.336780
Cl417	Cl	1.261497	-0.048381	0.670113
H418	H	0.575496	-0.000028	0.632386
H419	H	0.908829	0.333306	0.965720
H420	H	1.242162	0.666639	1.299053
H421	H	0.580748	-0.000069	0.193677
H422	H	0.914081	0.333264	0.527011
H423	H	1.247414	0.666597	0.860344
Cl424	Cl	-0.017912	-0.000087	0.045533
Cl425	Cl	0.315421	0.333246	0.378866
Cl426	Cl	0.648755	0.666579	0.712200
Cl427	Cl	0.559205	-0.000059	0.069621
Cl428	Cl	0.892538	0.333274	0.402954
Cl429	Cl	1.225872	0.666607	0.736288
H430	H	-0.059867	-0.000055	-0.165717
H431	H	0.273467	0.333278	0.167616
H432	H	0.606800	0.666611	0.500950
H433	H	0.098544	-0.000046	-0.219617
H434	H	0.431877	0.333287	0.113716
H435	H	0.765211	0.666620	0.447049
H436	H	0.512280	-0.000054	0.016146
H437	H	0.845613	0.333279	0.349480
H438	H	1.178946	0.666612	0.682813
