data_functionalizedCrystal
_audit_creation_method	'MofGen! by Chris Wilmer'
_symmetry_space_group_name_H-M	'P1'
_symmetry_Int_Tables_number	1
_symmetry_cell_setting	triclinic
loop_
_symmetry_equiv_pos_as_xyz
  x,y,z
_cell_length_a	16.109302
_cell_length_b	8.559649
_cell_length_c	14.586319
_cell_angle_alpha	90.000709
_cell_angle_beta	89.992206
_cell_angle_gamma	76.620223
loop_
_atom_site_label
_atom_site_type_symbol
_atom_site_fract_x
_atom_site_fract_y
_atom_site_fract_z
O1	O	1.090049	0.205386	-0.076278
O2	O	0.846359	0.230945	-0.076270
O3	O	0.989673	-0.014448	-0.076272
O4	O	0.946734	0.450778	-0.076275
O5	O	0.989656	-0.014433	0.076208
O6	O	0.846342	0.230959	0.076211
O7	O	1.090032	0.205400	0.076203
Cu8	Cu	0.968186	0.218181	0.090130
Cu9	Cu	0.968205	0.218164	-0.090197
O10	O	0.946718	0.450793	0.076206
C11	C	0.815441	0.229917	-0.000029
C12	C	0.723344	0.226812	-0.000026
C13	C	0.511451	0.219641	0.083082
C14	C	0.424918	0.216707	0.083079
C15	C	0.424946	0.216699	-0.083164
C16	C	0.511479	0.219622	-0.083160
C17	C	0.554728	0.221101	-0.000034
C18	C	0.381662	0.215244	-0.000041
C19	C	0.287839	0.212063	-0.000045
C20	C	0.648558	0.224280	-0.000029
C21	C	0.992919	-0.073972	-0.000033
C22	C	1.002605	-0.251357	-0.000038
C23	C	1.120949	0.206428	-0.000040
C24	C	1.213047	0.209533	-0.000049
C25	C	0.943472	0.510317	-0.000035
C26	C	0.933786	0.687702	-0.000037
N27	N	0.968178	0.218192	0.216961
N28	N	0.968220	0.218140	-0.217028
C29	C	1.012426	0.315113	0.451965
C30	C	1.012436	0.315102	0.547947
C31	C	0.923971	0.121209	0.547961
C32	C	0.923967	0.121212	0.451981
C33	C	0.968192	0.218174	0.403986
C34	C	0.968206	0.218159	0.595947
C35	C	0.968216	0.218146	0.700014
C36	C	0.968184	0.218184	0.299912
H37	H	0.546717	0.220806	-0.150847
C38	C	1.092214	-0.364203	-0.000041
N39	N	1.159710	-0.449208	-0.000045
H40	H	0.389722	0.215497	-0.150842
C41	C	0.875315	0.014574	0.600765
N42	N	0.838663	-0.065739	0.640536
C43	C	1.061080	0.421771	0.600720
N44	N	1.097715	0.502127	0.640467
H45	H	0.867453	-0.228758	-0.000028
H46	H	1.048438	0.394065	0.412891
H47	H	0.546662	0.220845	0.150769
C48	C	0.377315	0.215120	0.174514
N49	N	0.341460	0.213929	0.243386
C50	C	0.875303	0.014568	0.399201
N51	N	0.838652	-0.065755	0.359447
