data_functionalizedCrystal
_audit_creation_method	'MofGen! by Chris Wilmer'
_symmetry_space_group_name_H-M	'P1'
_symmetry_Int_Tables_number	1
_symmetry_cell_setting	triclinic
loop_
_symmetry_equiv_pos_as_xyz
  x,y,z
_cell_length_a	19.805407
_cell_length_b	25.639239
_cell_length_c	19.805399
_cell_angle_alpha	89.971274
_cell_angle_beta	89.975799
_cell_angle_gamma	90.037933
loop_
_atom_site_label
_atom_site_type_symbol
_atom_site_fract_x
_atom_site_fract_y
_atom_site_fract_z
Zn1	Zn	1.034678	-0.208173	-0.382798
Zn2	Zn	1.034569	-0.295607	-0.269607
Zn3	Zn	0.921493	-0.208187	-0.269613
Zn4	Zn	0.921432	-0.295578	-0.382745
O5	O	0.978043	-0.251886	-0.326191
O6	O	1.129380	-0.219778	-0.367802
O7	O	1.019548	-0.284029	-0.174891
O8	O	0.936578	-0.135020	-0.284652
O9	O	1.129300	-0.284016	-0.284642
O10	O	1.019735	-0.135010	-0.367808
O11	O	0.936472	-0.219801	-0.174896
O12	O	0.826768	-0.219773	-0.284601
O13	O	0.936475	-0.283966	-0.477469
O14	O	0.826723	-0.283979	-0.367718
O15	O	1.019676	-0.219750	-0.477507
O16	O	1.019490	-0.368769	-0.284591
O17	O	0.936368	-0.368748	-0.367712
C18	C	0.802187	-0.251875	-0.326155
C19	C	0.726955	-0.251882	-0.326155
C20	C	0.977929	-0.387729	-0.326160
C21	C	0.977942	-0.445843	-0.326169
C22	C	0.265158	-0.285382	-0.369445
C23	C	0.335847	-0.285381	-0.369431
C24	C	0.371193	-0.251899	-0.326217
C25	C	0.335847	-0.218420	-0.283010
C26	C	0.265160	-0.218424	-0.283022
C27	C	0.620921	-0.218404	-0.282963
C28	C	0.691613	-0.218402	-0.282956
C29	C	0.691607	-0.285361	-0.369372
C30	C	0.620920	-0.285365	-0.369383
C31	C	0.585580	-0.251888	-0.326174
C32	C	0.508932	-0.251890	-0.326189
C33	C	0.447840	-0.251894	-0.326205
C34	C	1.021437	-0.806205	-0.282983
C35	C	1.021463	-0.860809	-0.282992
O36	O	1.058326	-0.889044	-0.246240
N37	N	0.978162	-0.888126	-0.326236
C38	C	0.934836	-0.860835	-0.369478
O39	O	0.898008	-0.889084	-0.406261
C40	C	0.934814	-0.806232	-0.369472
C41	C	0.978113	-0.778918	-0.326220
C42	C	1.064733	-0.778891	-0.239736
C43	C	1.064706	-0.724290	-0.239726
C44	C	1.021382	-0.697004	-0.282964
C45	C	0.978086	-0.724317	-0.326211
C46	C	0.891492	-0.778942	-0.412717
C47	C	0.891474	-0.724335	-0.412707
C48	C	0.934773	-0.697021	-0.369456
C49	C	0.934735	-0.642430	-0.369438
N50	N	0.978036	-0.615114	-0.326195
C51	C	1.021360	-0.642400	-0.282957
C52	C	0.934887	-0.975506	-0.369488
C53	C	0.934906	-1.030108	-0.369491
C54	C	1.021534	-1.030078	-0.283007
C55	C	1.021511	-0.975475	-0.283000
C56	C	0.978189	-0.948189	-0.326245
C57	C	1.021299	-0.527735	-0.282940
C58	C	1.021266	-0.473130	-0.282932
C59	C	0.934641	-0.473164	-0.369419
C60	C	0.934671	-0.527765	-0.369425
C61	C	0.978006	-0.555049	-0.326183
O62	O	0.897893	-0.614160	-0.406174
O63	O	1.058188	-0.614145	-0.246187
C64	C	1.154585	-0.251899	-0.326227
C65	C	1.229817	-0.251904	-0.326243
C66	C	0.978081	-0.251854	-0.502734
C67	C	0.978097	-0.251840	-0.577966
C68	C	0.978175	-0.115513	-0.326237
C69	C	0.978232	-0.057399	-0.326256
C70	C	1.021421	-0.218401	-0.613331
C71	C	1.021428	-0.218385	-0.684020
C72	C	0.978114	-0.251812	-0.719341
C73	C	0.934785	-0.285253	-0.683971
C74	C	0.934775	-0.285265	-0.613284
C75	C	0.934823	-0.285204	-0.969044
C76	C	0.934838	-0.285190	-1.039736
C77	C	1.021476	-0.218324	-1.039780
C78	C	1.021466	-0.218337	-0.969093
C79	C	0.978135	-0.251775	-0.933729
C80	C	0.978127	-0.251790	-0.857080
C81	C	0.978125	-0.251800	-0.795988
C82	C	0.978044	-0.251882	-0.150335
C83	C	0.978159	-0.251748	-0.075103
H84	H	0.364618	-0.312643	-0.404609
N85	N	1.065699	-0.184189	-0.933003
N86	N	1.065680	-0.184203	-0.869890
H87	H	1.096917	-0.160084	-0.844401
H88	H	1.099966	-0.702055	-0.204509
H89	H	0.720389	-0.312621	-0.404553
H90	H	1.056756	-0.191096	-1.068582
N91	N	0.847255	-0.806832	-0.456892
N92	N	0.784800	-0.800778	-0.452343
H93	H	0.753555	-0.820475	-0.483545
N94	N	0.890381	-0.445296	-0.413585
N95	N	0.827929	-0.451442	-0.409041
H96	H	0.796672	-0.431760	-0.440237
N97	N	0.890584	-0.319338	-1.075808
N98	N	0.851897	-0.349189	-1.044225
H99	H	0.820643	-0.373305	-1.069700
H100	H	0.856196	-0.702122	-0.447924
N101	N	0.727731	-0.184202	-0.238817
N102	N	0.767215	-0.150907	-0.262704
H103	H	0.792725	-0.126754	-0.231535
N104	N	1.065502	-0.445228	-0.238757
N105	N	1.108605	-0.414710	-0.262605
H106	H	1.139844	-0.395004	-0.231407
N107	N	0.890634	-0.947629	-0.413660
N108	N	0.914405	-0.917123	-0.456815
H109	H	0.883153	-0.897437	-0.488013
H110	H	0.592144	-0.312627	-0.404575
N111	N	0.890574	-0.319364	-0.932922
N112	N	0.914345	-0.352690	-0.893469
H113	H	0.883092	-0.376816	-0.867953
H114	H	0.364632	-0.191161	-0.247822
H115	H	0.899515	-0.312468	-0.712735
N116	N	0.229069	-0.184218	-0.238894
N117	N	0.237004	-0.135978	-0.243495
H118	H	0.211515	-0.111819	-0.212327
N119	N	1.065566	-0.555592	-0.238765
N120	N	1.104215	-0.531189	-0.200155
H121	H	1.135476	-0.550862	-0.168953
N122	N	0.890427	-0.555660	-0.413596
N123	N	0.851744	-0.531288	-0.452192
H124	H	0.820498	-0.550985	-0.483392
H125	H	1.056694	-0.191182	-0.584577
H126	H	1.100016	-0.801102	-0.204527
H127	H	0.592156	-0.191147	-0.247776
N128	N	1.065743	-0.947585	-0.238815
N129	N	1.104416	-0.971961	-0.200212
H130	H	1.135657	-0.952267	-0.169004
H131	H	0.899489	-0.312489	-0.584490
N132	N	1.065677	-0.184223	-0.720142
N133	N	1.061238	-0.135979	-0.712260
H134	H	1.092491	-0.111849	-0.737771
N135	N	0.229066	-0.319582	-0.413597
N136	N	0.260633	-0.349471	-0.452167
H137	H	0.235145	-0.373627	-0.483350
H138	H	1.056812	-1.052305	-0.247803
H139	H	0.899641	-1.052342	-0.404705
