data_functionalizedCrystal
_audit_creation_method	'MofGen! by Chris Wilmer'
_symmetry_space_group_name_H-M	'P1'
_symmetry_Int_Tables_number	1
_symmetry_cell_setting	triclinic
loop_
_symmetry_equiv_pos_as_xyz
  x,y,z
_cell_length_a	17.699083
_cell_length_b	11.892095
_cell_length_c	17.699083
_cell_angle_alpha	86.119663
_cell_angle_beta	83.283015
_cell_angle_gamma	93.885077
loop_
_atom_site_label
_atom_site_type_symbol
_atom_site_fract_x
_atom_site_fract_y
_atom_site_fract_z
O1	O	1.008916	0.093846	0.090872
O2	O	1.508916	0.593846	0.590872
O3	O	0.788539	0.093884	0.103322
O4	O	1.288539	0.593884	0.603322
O5	O	0.904953	0.093854	-0.013092
O6	O	1.404953	0.593854	0.486908
O7	O	0.892502	0.093876	0.207286
O8	O	1.392502	0.593876	0.707286
O9	O	0.895247	-0.094151	-0.003400
O10	O	1.395247	0.405849	0.496600
O11	O	0.778833	-0.094121	0.113014
O12	O	1.278833	0.405879	0.613014
O13	O	0.999210	-0.094159	0.100563
O14	O	1.499210	0.405841	0.600563
Zn15	Zn	0.887480	-0.123990	0.108327
Zn16	Zn	1.387480	0.376010	0.608327
Zn17	Zn	0.900269	0.123715	0.095558
Zn18	Zn	1.400269	0.623715	0.595558
O19	O	0.882796	-0.094129	0.216977
O20	O	1.382796	0.405871	0.716977
C21	C	0.755490	-0.000114	0.107722
C22	C	1.255490	0.499886	0.607722
C23	C	0.671472	-0.000100	0.106382
C24	C	1.171472	0.499900	0.606382
N25	N	0.878758	-0.293042	0.117041
N26	N	1.378758	0.206958	0.617041
C27	C	0.622852	-0.000094	0.174715
C28	C	1.122852	0.499906	0.674715
C29	C	0.543907	-0.000109	0.173454
C30	C	1.043907	0.499891	0.673454
C31	C	0.513586	-0.000122	0.103858
C32	C	1.013586	0.499878	0.603858
C33	C	0.562213	-0.000132	0.035520
C34	C	1.062213	0.499868	0.535520
C35	C	0.641155	-0.000125	0.036783
C36	C	1.141155	0.499875	0.536783
C37	C	0.243848	-0.000160	0.030426
C38	C	0.743848	0.499840	0.530426
C39	C	0.164900	-0.000163	0.029168
C40	C	0.664900	0.499837	0.529168
C41	C	0.146601	-0.000144	0.167097
C42	C	0.646601	0.499856	0.667097
C43	C	0.225543	-0.000137	0.168360
C44	C	0.725543	0.499863	0.668360
C45	C	0.274162	-0.000153	0.100023
C46	C	0.774162	0.499847	0.600023
C47	C	0.359762	-0.000139	0.101391
C48	C	0.859762	0.499861	0.601391
C49	C	0.427988	-0.000128	0.102488
C50	C	0.927988	0.499872	0.602488
C51	C	0.969691	-0.529713	0.026159
C52	C	1.469691	-0.029713	0.526159
C53	C	0.963600	-0.648053	0.032256
C54	C	1.463600	-0.148053	0.532256
C55	C	0.860481	-0.648065	0.135327
C56	C	1.360481	-0.148065	0.635327
C57	C	0.866572	-0.529725	0.129230
C58	C	1.366572	-0.029725	0.629230
C59	C	0.921180	-0.470553	0.074645
C60	C	1.421180	0.029447	0.574645
C61	C	0.927274	-0.352210	0.068553
C62	C	1.427274	0.147790	0.568553
C63	C	0.824152	-0.352224	0.171620
C64	C	1.324152	0.147776	0.671620
C65	C	0.818061	-0.470565	0.177716
C66	C	1.318061	0.029435	0.677716
C67	C	1.032260	-0.000158	0.096164
C68	C	1.532260	0.499842	0.596164
C69	C	1.116277	-0.000165	0.097503
C70	C	1.616277	0.499835	0.597503
C71	C	0.899654	-0.000149	-0.036443
C72	C	1.399654	0.499851	0.463557
C73	C	0.898315	-0.000149	-0.120461
C74	C	1.398315	0.499851	0.379539
N75	N	0.908997	0.292767	0.086838
N76	N	1.408997	0.792767	0.586838
C77	C	0.966648	-0.000162	-0.169081
C78	C	1.466648	0.499838	0.330919
C79	C	0.965386	-0.000152	-0.248025
C80	C	1.465386	0.499848	0.251975
C81	C	0.895791	-0.000137	-0.278347
C82	C	1.395791	0.499863	0.221653
C83	C	0.827453	-0.000120	-0.229720
C84	C	1.327453	0.499880	0.270280
C85	C	0.828716	-0.000122	-0.150778
C86	C	1.328716	0.499878	0.349222
C87	C	0.822358	-0.000110	-0.548084
C88	C	1.322358	0.499890	-0.048084
C89	C	0.821100	-0.000111	-0.627032
C90	C	1.321100	0.499889	-0.127032
C91	C	0.959029	-0.000140	-0.645331
C92	C	1.459029	0.499860	-0.145331
C93	C	0.960292	-0.000142	-0.566389
C94	C	1.460292	0.499858	-0.066389
C95	C	0.891955	-0.000119	-0.517770
C96	C	1.391955	0.499881	-0.017770
C97	C	0.893324	-0.000128	-0.432170
C98	C	1.393324	0.499872	0.067830
C99	C	0.894420	-0.000136	-0.363944
C100	C	1.394420	0.499864	0.136056
C101	C	0.888095	-0.000124	0.240328
C102	C	1.388095	0.499876	0.740328
C103	C	0.889434	-0.000116	0.324346
C104	C	1.389434	0.499884	0.824346
H105	H	0.647533	-0.000082	0.231388
H106	H	1.147533	0.499918	0.731388
Br107	Br	1.043809	-0.449405	-0.047908
Br108	Br	1.543809	0.050595	0.452092
H109	H	1.021030	-0.000165	-0.287609
H110	H	1.521030	0.499835	0.212391
Br111	Br	1.029435	-0.728340	-0.033553
Br112	Br	1.529435	-0.228340	0.466447
Br113	Br	0.266690	-0.000109	0.262814
Br114	Br	0.766690	0.499891	0.762814
Br115	Br	0.477925	-0.000096	0.266196
Br116	Br	0.977925	0.499904	0.766196
H117	H	0.107005	-0.000137	0.222741
H118	H	0.607005	0.499863	0.722741
H119	H	1.016963	-0.000160	-0.541705
H120	H	1.516963	0.499840	-0.041705
Br121	Br	0.733001	-0.000080	-0.270871
Br122	Br	1.233001	0.499920	0.229129
Br123	Br	1.051774	-0.000170	-0.711318
Br124	Br	1.551774	0.499830	-0.211318
H125	H	0.537518	-0.000159	-0.021145
H126	H	1.037518	0.499841	0.478855
H127	H	0.766714	-0.000092	-0.508507
H128	H	1.266714	0.499908	-0.008507
Br129	Br	0.786364	-0.728380	0.209392
Br130	Br	1.286364	-0.228380	0.709392
Br131	Br	0.309822	-0.000184	-0.062318
Br132	Br	0.809822	0.499816	0.437682
Br133	Br	0.123750	-0.000178	-0.065290
Br134	Br	0.623750	0.499822	0.434710
Br135	Br	0.707141	-0.000144	-0.055958
Br136	Br	1.207141	0.499856	0.444042
Br137	Br	0.726642	-0.000092	-0.668182
Br138	Br	1.226642	0.499908	-0.168182
Br139	Br	1.001387	-0.271907	-0.005522
Br140	Br	1.501387	0.228093	0.494478
H141	H	0.773072	-0.000111	-0.111192
H142	H	1.273072	0.499889	0.388808
H143	H	0.773598	-0.518756	0.222156
H144	H	1.273598	-0.018756	0.722156
Br145	Br	1.061104	-0.000199	-0.127938
Br146	Br	1.561104	0.499801	0.372062
Br147	Br	0.758320	-0.271925	0.237432
Br148	Br	1.258320	0.228075	0.737432
