data_functionalizedCrystal
_audit_creation_method	'MofGen! by Chris Wilmer'
_symmetry_space_group_name_H-M	'P1'
_symmetry_Int_Tables_number	1
_symmetry_cell_setting	triclinic
loop_
_symmetry_equiv_pos_as_xyz
  x,y,z
_cell_length_a	10.489741
_cell_length_b	19.288864
_cell_length_c	18.366186
_cell_angle_alpha	90.022894
_cell_angle_beta	89.994090
_cell_angle_gamma	96.162290
loop_
_atom_site_label
_atom_site_type_symbol
_atom_site_fract_x
_atom_site_fract_y
_atom_site_fract_z
O1	O	0.159110	-0.922420	-0.060783
O2	O	0.180573	-0.720303	-0.060733
O3	O	-0.015860	-0.825960	-0.060755
O4	O	0.355543	-0.816762	-0.060761
O5	O	-0.015870	-0.825942	0.060344
O6	O	0.180564	-0.720285	0.060366
O7	O	0.159100	-0.922402	0.060316
Zn8	Zn	0.169830	-0.821340	0.079568
Zn9	Zn	0.169843	-0.821364	-0.079985
O10	O	0.355534	-0.816744	0.060338
C11	C	0.179878	-0.694413	-0.000177
C12	C	0.177805	-0.617295	-0.000158
C13	C	-0.063381	-0.825257	-0.000205
C14	C	-0.204964	-0.823178	-0.000206
C15	C	0.159796	-0.948292	-0.000241
C16	C	0.161869	-1.025409	-0.000265
C17	C	-0.271583	-0.755951	-0.000195
C18	C	-0.364429	-0.787700	0.059505
C19	C	-0.364394	-0.787734	-0.059889
C20	C	-0.295944	-0.854954	0.059543
C21	C	-0.295900	-0.854979	-0.059905
C22	C	-0.388719	-0.886776	-0.000190
C23	C	0.403055	-0.817448	-0.000213
C24	C	0.544637	-0.819526	-0.000217
N25	N	0.169821	-0.821329	0.188460
C26	C	0.293063	-0.573372	-0.000171
C27	C	0.291115	-0.500912	-0.000179
C28	C	0.173903	-0.472378	-0.000189
C29	C	0.058629	-0.516311	-0.000171
C30	C	0.060580	-0.588770	-0.000156
C31	C	0.081764	-0.363505	-0.042638
C32	C	0.079818	-0.291047	-0.042658
C33	C	0.167880	-0.248892	-0.000233
C34	C	0.257911	-0.279202	0.042203
C35	C	0.259862	-0.351661	0.042218
C36	C	0.171774	-0.393810	-0.000205
C37	C	0.281035	-0.126399	-0.000254
C38	C	0.279082	-0.053938	-0.000257
C39	C	0.046593	-0.069339	-0.000256
C40	C	0.048549	-0.141798	-0.000245
C41	C	0.165773	-0.170324	-0.000248
N42	N	0.169842	-0.821381	-0.188876
C43	C	0.082883	-0.868130	0.226550
C44	C	0.082877	-0.868134	0.302778
C45	C	0.169831	-0.821344	0.340912
C46	C	0.256776	-0.774535	0.302812
C47	C	0.256771	-0.774527	0.226586
C48	C	0.286045	-0.812826	0.461672
C49	C	0.286052	-0.812838	0.537897
C50	C	0.169847	-0.821364	0.576020
C51	C	0.053631	-0.829893	0.537908
C52	C	0.053626	-0.829885	0.461682
C53	C	0.169846	-0.821347	0.423567
C54	C	0.082896	-0.868172	0.696766
C55	C	0.082888	-0.868172	0.772995
C56	C	0.256799	-0.774576	0.773027
C57	C	0.256795	-0.774573	0.696800
C58	C	0.169845	-0.821375	0.658673
H59	H	-0.220682	-0.700678	-0.000121
O60	O	-0.013217	-0.408971	-0.088403
H61	H	-0.076130	-0.375722	-0.117923
H62	H	0.327594	-0.736476	0.804076
O63	O	-0.404575	-0.750058	-0.126748
H64	H	-0.357180	-0.695769	-0.126603
H65	H	0.388516	-0.596592	-0.000175
O66	O	0.415439	-0.453529	-0.000191
H67	H	0.394385	-0.398351	-0.000195
O68	O	-0.071719	-0.839084	0.579012
H69	H	-0.052198	-0.837647	0.638420
O70	O	-0.079837	-0.038578	-0.000261
H71	H	-0.086296	-0.005965	-0.049627
O72	O	0.403406	-0.006560	-0.000264
H73	H	0.408074	0.026801	-0.049623
H74	H	-0.394801	-0.759247	0.109991
H75	H	-0.439394	-0.942099	-0.000170
O76	O	-0.017293	-0.258357	-0.088415
H77	H	-0.078223	-0.299842	-0.117899
H78	H	0.333164	-0.376337	0.076773
O79	O	0.352898	-0.233748	0.087972
H80	H	0.336409	-0.178272	0.080842
O81	O	-0.255978	-0.892587	0.126479
H82	H	-0.150434	-0.893810	0.125973
O83	O	-0.010915	-0.918599	0.185431
H84	H	0.005077	-0.972824	0.200035
O85	O	-0.255602	-0.892637	-0.126778
H86	H	-0.282685	-0.864632	-0.176265
H87	H	-0.036806	-0.493075	-0.000189
O88	O	0.411396	-0.803644	0.578996
H89	H	0.391881	-0.805092	0.638405
H90	H	0.327568	-0.736415	0.195572
O91	O	-0.063738	-0.636152	-0.000145
H92	H	-0.145575	-0.604141	-0.000154
O93	O	-0.010882	-0.918621	0.343876
H94	H	-0.071336	-0.951167	0.304558
H95	H	0.376486	-0.149625	-0.000245
O96	O	0.350579	-0.724096	0.655717
H97	H	0.297041	-0.690065	0.621018
O98	O	-0.071708	-0.839070	0.420573
H99	H	-0.152518	-0.844995	0.459882
H100	H	0.327574	-0.736437	0.333865
O101	O	-0.075766	-0.189181	-0.000237
H102	H	-0.157601	-0.157169	-0.000249
O103	O	0.411386	-0.803634	0.420555
H104	H	0.492196	-0.797719	0.459860
O105	O	-0.010895	-0.918639	0.655635
H106	H	-0.071368	-0.951176	0.694931
O107	O	-0.010871	-0.918660	0.814085
H108	H	-0.071316	-0.951207	0.774763
