data_functionalizedCrystal
_audit_creation_method	'MofGen! by Chris Wilmer'
_symmetry_space_group_name_H-M	'P1'
_symmetry_Int_Tables_number	1
_symmetry_cell_setting	triclinic
loop_
_symmetry_equiv_pos_as_xyz
  x,y,z
_cell_length_a	14.853568
_cell_length_b	14.853569
_cell_length_c	13.930277
_cell_angle_alpha	89.999469
_cell_angle_beta	90.004411
_cell_angle_gamma	96.364624
loop_
_atom_site_label
_atom_site_type_symbol
_atom_site_fract_x
_atom_site_fract_y
_atom_site_fract_z
O1	O	-1.196369	0.117706	-0.079760
O2	O	-0.696369	0.617706	0.420240
O3	O	-0.933909	0.131727	-0.079774
O4	O	-0.433909	0.631727	0.420226
O5	O	-1.072149	-0.006513	-0.079770
O6	O	-0.572149	0.493487	0.420230
O7	O	-1.058129	0.255946	-0.079764
O8	O	-0.558129	0.755946	0.420236
O9	O	-1.072130	-0.006516	0.079892
O10	O	-0.572130	0.493484	0.579892
O11	O	-0.933890	0.131724	0.079888
O12	O	-0.433890	0.631724	0.579888
O13	O	-1.196349	0.117703	0.079902
O14	O	-0.696349	0.617703	0.579902
Zn15	Zn	-1.065117	0.124713	0.105245
Zn16	Zn	-0.565117	0.624713	0.605245
Zn17	Zn	-1.065142	0.124717	-0.105117
Zn18	Zn	-0.565142	0.624717	0.394883
O19	O	-1.058110	0.255943	0.079898
O20	O	-0.558110	0.755943	0.579898
C21	C	-0.900311	0.131090	0.000055
C22	C	-0.400311	0.631090	0.500055
C23	C	-0.800227	0.129186	0.000049
C24	C	-0.300227	0.629186	0.500049
C25	C	-1.071504	-0.040103	0.000058
C26	C	-0.571504	0.459897	0.500058
C27	C	-1.069599	-0.140187	0.000049
C28	C	-0.569599	0.359813	0.500049
N29	N	-1.065106	0.124710	0.248811
N30	N	-0.565106	0.624710	0.748811
C31	C	-0.387693	0.039019	0.000069
C32	C	0.112307	0.539019	0.500069
C33	C	-0.366413	0.203252	0.000072
C34	C	0.133587	0.703252	0.500072
C35	C	-0.460447	0.205042	0.000069
C36	C	0.039553	0.705042	0.500069
C37	C	-0.518108	0.123820	0.000064
C38	C	-0.018108	0.623820	0.500064
C39	C	-0.481736	0.040807	0.000063
C40	C	0.018264	0.540807	0.500063
C41	C	-0.496826	0.288054	0.000061
C42	C	0.003174	0.788054	0.500061
C43	C	-0.590865	0.289847	0.000056
C44	C	-0.090865	0.789847	0.500056
C45	C	-0.648529	0.208624	0.000058
C46	C	-0.148529	0.708624	0.500058
C47	C	-0.612151	0.125608	0.000058
C48	C	-0.112151	0.625608	0.500058
C49	C	-0.669812	0.044385	0.000054
C50	C	-0.169812	0.544385	0.500054
C51	C	-0.633436	-0.038632	0.000060
C52	C	-0.133436	0.461368	0.500060
C53	C	-0.539399	-0.040416	0.000066
C54	C	-0.039399	0.459584	0.500066
C55	C	-0.742566	0.210408	0.000053
C56	C	-0.242566	0.710408	0.500053
C57	C	-0.763855	0.046173	0.000048
C58	C	-0.263855	0.546173	0.500048
C59	C	-0.229948	0.118339	0.000072
C60	C	0.270052	0.618339	0.500072
C61	C	-0.330032	0.120242	0.000074
C62	C	0.169968	0.620242	0.500074
C63	C	-1.058755	0.289533	0.000068
C64	C	-0.558755	0.789533	0.500068
C65	C	-1.060659	0.389617	0.000071
C66	C	-0.560659	0.889617	0.500071
C67	C	-1.143670	0.425994	0.000078
C68	C	-0.643670	0.925994	0.500078
C69	C	-0.979438	0.447283	0.000058
C70	C	-0.479438	0.947283	0.500058
C71	C	-0.981224	0.541317	0.000055
C72	C	-0.481224	1.041317	0.500055
C73	C	-1.064235	0.577694	0.000063
C74	C	-0.564235	1.077694	0.500063
C75	C	-1.145459	0.520036	0.000072
C76	C	-0.645459	1.020036	0.500072
C77	C	-0.900001	0.598981	0.000036
C78	C	-0.400001	1.098981	0.500036
C79	C	-0.901785	0.693022	0.000032
C80	C	-0.401785	1.193022	0.500032
C81	C	-0.984796	0.729400	0.000046
C82	C	-0.484796	1.229400	0.500046
C83	C	-1.066024	0.671736	0.000057
C84	C	-0.566024	1.171736	0.500057
C85	C	-1.149035	0.708113	0.000064
C86	C	-0.649035	1.208113	0.500064
C87	C	-1.230263	0.650451	0.000082
C88	C	-0.730263	1.150451	0.500082
C89	C	-1.228471	0.556415	0.000087
C90	C	-0.728471	1.056415	0.500087
C91	C	-0.986589	0.823436	0.000042
C92	C	-0.486589	1.323436	0.500042
C93	C	-1.150824	0.802156	0.000059
C94	C	-0.650824	1.302156	0.500059
N95	N	-1.065160	0.124713	-0.248683
N96	N	-0.565160	0.624713	0.251317
C97	C	-1.003927	0.185906	0.701078
C98	C	-0.503927	0.685906	1.201078
C99	C	-1.126382	0.063521	0.701051
C100	C	-0.626382	0.563521	1.201051
C101	C	-1.126371	0.063519	0.600556
C102	C	-0.626371	0.563519	1.100556
C103	C	-1.065138	0.124711	0.550317
C104	C	-0.565138	0.624711	1.050317
C105	C	-1.003916	0.185906	0.600573
C106	C	-0.503916	0.685906	1.100573
C107	C	-1.187598	0.002330	0.550291
C108	C	-0.687598	0.502330	1.050291
C109	C	-1.187590	0.002326	0.449790
C110	C	-0.687590	0.502326	0.949790
C111	C	-1.126353	0.063515	0.399549
C112	C	-0.626353	0.563515	0.899549
C113	C	-1.065128	0.124712	0.449812
C114	C	-0.565128	0.624712	0.949812
C115	C	-1.003895	0.185904	0.399572
C116	C	-0.503895	0.685904	0.899572
C117	C	-0.942665	0.247098	0.449833
C118	C	-0.442665	0.747098	0.949833
C119	C	-0.942679	0.247095	0.550332
C120	C	-0.442679	0.747095	1.050332
C121	C	-1.126339	0.063517	0.299050
C122	C	-0.626339	0.563517	0.799050
C123	C	-1.003884	0.185905	0.299067
C124	C	-0.503884	0.685905	0.799067
H125	H	-0.810798	-0.019969	0.000048
H126	H	-0.310798	0.480031	0.500048
H127	H	-0.772179	0.277999	0.000050
H128	H	-0.272179	0.777999	0.500050
Br129	Br	-0.418570	0.398277	0.000046
Br130	Br	0.081430	0.898277	0.500046
H131	H	-0.832418	0.569356	0.000022
H132	H	-0.332418	1.069356	0.500022
H133	H	-0.911854	0.417659	0.000045
H134	H	-0.411854	0.917659	0.500045
Br135	Br	-1.263488	0.851516	0.000080
Br136	Br	-0.763488	1.351516	0.500080
H137	H	-1.297851	0.680081	0.000070
H138	H	-0.797851	1.180081	0.500070
Br139	Br	-0.640225	0.402510	0.000047
Br140	Br	-0.140225	0.902510	0.500047
H141	H	-0.892828	0.296918	0.591261
H142	H	-0.392828	0.796918	1.091261
H143	H	-1.294603	0.509458	0.000101
H144	H	-0.794603	1.009458	0.500101
H145	H	-0.680397	-0.104763	0.000050
H146	H	-0.180397	0.395237	0.500050
Br147	Br	-0.920826	0.268945	0.769282
Br148	Br	-0.420826	0.768945	1.269282
H149	H	-1.209804	0.379041	0.000096
H150	H	-0.709804	0.879041	0.500096
H151	H	-0.509773	-0.108004	0.000094
H152	H	-0.009773	0.391996	0.500094
Br153	Br	-0.791549	0.771269	0.000006
Br154	Br	-0.291549	1.271269	0.500006
H155	H	-0.358072	-0.028571	0.000079
H156	H	0.141928	0.471429	0.500079
H157	H	-0.920454	0.870380	0.000023
H158	H	-0.420454	1.370380	0.500023
Br159	Br	-0.288159	0.313477	0.000061
Br160	Br	0.211841	0.813477	0.500061
H161	H	-0.954017	0.235733	0.258169
H162	H	-0.454017	0.735733	0.758169
Br163	Br	-0.859574	0.330151	0.381641
Br164	Br	-0.359574	0.830151	0.881641
H165	H	-1.176240	0.013704	0.741959
H166	H	-0.676240	0.513704	1.241959
Br167	Br	-1.270706	-0.080706	0.618469
Br168	Br	-0.770706	0.419294	1.118469
H169	H	-1.176195	0.013698	0.258132
H170	H	-0.676195	0.513698	0.758132
Br171	Br	-1.270684	-0.080721	0.381584
Br172	Br	-0.770684	0.419279	0.881584
