data_functionalizedCrystal
_audit_creation_method	'MofGen! by Chris Wilmer'
_symmetry_space_group_name_H-M	'P1'
_symmetry_Int_Tables_number	1
_symmetry_cell_setting	triclinic
loop_
_symmetry_equiv_pos_as_xyz
  x,y,z
_cell_length_a	12.594516
_cell_length_b	16.625548
_cell_length_c	16.625539
_cell_angle_alpha	89.981168
_cell_angle_beta	90.021462
_cell_angle_gamma	89.984088
loop_
_atom_site_label
_atom_site_type_symbol
_atom_site_fract_x
_atom_site_fract_y
_atom_site_fract_z
Zn1	Zn	-0.423764	-1.232688	0.455975
Zn2	Zn	-0.173764	-0.982688	0.705975
Zn3	Zn	0.076236	-0.732688	0.955975
Zn4	Zn	0.326236	-0.482688	1.205975
Zn5	Zn	-0.601759	-1.232615	0.321154
Zn6	Zn	-0.351759	-0.982615	0.571154
Zn7	Zn	-0.101759	-0.732615	0.821154
Zn8	Zn	0.148241	-0.482615	1.071154
Zn9	Zn	-0.423795	-1.097859	0.321152
Zn10	Zn	-0.173795	-0.847859	0.571152
Zn11	Zn	0.076205	-0.597859	0.821152
Zn12	Zn	0.326205	-0.347859	1.071152
Zn13	Zn	-0.601700	-1.097836	0.455940
Zn14	Zn	-0.351700	-0.847836	0.705940
Zn15	Zn	-0.101700	-0.597836	0.955940
Zn16	Zn	0.148300	-0.347836	1.205940
O17	O	-0.512755	-1.165249	0.388555
O18	O	-0.262755	-0.915249	0.638555
O19	O	-0.012755	-0.665249	0.888555
O20	O	0.237245	-0.415249	1.138555
O21	O	-0.447387	-1.345511	0.438107
O22	O	-0.197387	-1.095511	0.688107
O23	O	0.052613	-0.845511	0.938107
O24	O	0.302613	-0.595511	1.188107
O25	O	-0.578190	-1.214718	0.208322
O26	O	-0.328190	-0.964718	0.458322
O27	O	-0.078190	-0.714718	0.708322
O28	O	0.171810	-0.464718	0.958322
O29	O	-0.274845	-1.115784	0.339050
O30	O	-0.024845	-0.865784	0.589050
O31	O	0.225155	-0.615784	0.839050
O32	O	0.475155	-0.365784	1.089050
O33	O	-0.578160	-1.345457	0.339055
O34	O	-0.328160	-1.095457	0.589055
O35	O	-0.078160	-0.845457	0.839055
O36	O	0.171840	-0.595457	1.089055
O37	O	-0.274822	-1.214843	0.438105
O38	O	-0.024822	-0.964843	0.688105
O39	O	0.225178	-0.714843	0.938105
O40	O	0.475178	-0.464843	1.188105
O41	O	-0.447440	-1.115713	0.208320
O42	O	-0.197440	-0.865713	0.458320
O43	O	0.052560	-0.615713	0.708320
O44	O	0.302560	-0.365713	0.958320
O45	O	-0.447383	-0.985023	0.339016
O46	O	-0.197383	-0.735023	0.589016
O47	O	0.052617	-0.485023	0.839016
O48	O	0.302617	-0.235023	1.089016
O49	O	-0.578059	-1.115745	0.568777
O50	O	-0.328059	-0.865745	0.818777
O51	O	-0.078059	-0.615745	1.068777
O52	O	0.171941	-0.365745	1.318777
O53	O	-0.578089	-0.985006	0.438044
O54	O	-0.328089	-0.735006	0.688044
O55	O	-0.078089	-0.485006	0.938044
O56	O	0.171911	-0.235006	1.188044
O57	O	-0.447330	-1.214821	0.568803
O58	O	-0.197330	-0.964821	0.818803
O59	O	0.052670	-0.714821	1.068803
O60	O	0.302670	-0.464821	1.318803
O61	O	-0.750697	-1.214696	0.339020
O62	O	-0.500697	-0.964696	0.589020
O63	O	-0.250697	-0.714696	0.839020
O64	O	-0.000697	-0.464696	1.089020
O65	O	-0.750654	-1.115674	0.438047
O66	O	-0.500654	-0.865674	0.688047
O67	O	-0.250654	-0.615674	0.938047
O68	O	-0.000654	-0.365674	1.188047
C69	C	-0.512733	-0.955759	0.388526
C70	C	-0.262733	-0.705759	0.638526
C71	C	-0.012733	-0.455759	0.888526
C72	C	0.237267	-0.205759	1.138526
C73	C	-0.512750	-0.866138	0.388533
C74	C	-0.262750	-0.616138	0.638533
C75	C	-0.012750	-0.366138	0.888533
C76	C	0.237250	-0.116138	1.138533
C77	C	-0.512748	-0.537962	0.388557
C78	C	-0.262748	-0.287962	0.638557
C79	C	-0.012748	-0.037962	0.888557
C80	C	0.237252	0.212038	1.138557
C81	C	-0.512746	-0.629270	0.388548
C82	C	-0.262746	-0.379270	0.638548
C83	C	-0.012746	-0.129270	0.888548
C84	C	0.237254	0.120730	1.138548
C85	C	-0.512750	-0.702047	0.388545
C86	C	-0.262750	-0.452047	0.638545
C87	C	-0.012750	-0.202047	0.888545
C88	C	0.237250	0.047953	1.138545
C89	C	-0.512746	-0.793361	0.388537
C90	C	-0.262746	-0.543361	0.638537
C91	C	-0.012746	-0.293361	0.888537
C92	C	0.237254	-0.043361	1.138537
C93	C	-0.789296	-1.165197	0.388548
C94	C	-0.539296	-0.915197	0.638548
C95	C	-0.289296	-0.665197	0.888548
C96	C	-0.039296	-0.415197	1.138548
C97	C	-0.907601	-1.165248	0.388571
C98	C	-0.657601	-0.915248	0.638571
C99	C	-0.407601	-0.665248	0.888571
C100	C	-0.157601	-0.415248	1.138571
C101	C	-0.976869	-1.111385	0.442394
C102	C	-0.726869	-0.861385	0.692394
C103	C	-0.476869	-0.611385	0.942394
C104	C	-0.226869	-0.361385	1.192394
C105	C	-1.047726	-1.091744	0.368819
C106	C	-0.797726	-0.841744	0.618819
C107	C	-0.547726	-0.591744	0.868819
C108	C	-0.297726	-0.341744	1.118819
C109	C	-1.047543	-1.184962	0.462159
C110	C	-0.797543	-0.934962	0.712159
C111	C	-0.547543	-0.684962	0.962159
C112	C	-0.297543	-0.434962	1.212159
C113	C	-0.976900	-1.145568	0.314957
C114	C	-0.726900	-0.895568	0.564957
C115	C	-0.476900	-0.645568	0.814957
C116	C	-0.226900	-0.395568	1.064957
C117	C	-0.976710	-1.238820	0.408347
C118	C	-0.726710	-0.988820	0.658347
C119	C	-0.476710	-0.738820	0.908347
C120	C	-0.226710	-0.488820	1.158347
C121	C	-1.047535	-1.219208	0.334721
C122	C	-0.797535	-0.969208	0.584721
C123	C	-0.547535	-0.719208	0.834721
C124	C	-0.297535	-0.469208	1.084721
C125	C	-0.235134	-1.165324	0.388581
C126	C	0.014866	-0.915324	0.638581
C127	C	0.264866	-0.665324	0.888581
C128	C	0.514866	-0.415324	1.138581
C129	C	-0.116828	-1.165356	0.388592
C130	C	0.133172	-0.915356	0.638592
C131	C	0.383172	-0.665356	0.888592
C132	C	0.633172	-0.415356	1.138592
C133	C	-0.512684	-1.165289	0.598864
C134	C	-0.262684	-0.915289	0.848864
C135	C	-0.012684	-0.665289	1.098864
C136	C	0.237316	-0.415289	1.348864
C137	C	-0.512654	-1.165306	0.688486
C138	C	-0.262654	-0.915306	0.938486
C139	C	-0.012654	-0.665306	1.188486
C140	C	0.237346	-0.415306	1.438486
C141	C	-0.512769	-0.375558	0.388577
C142	C	-0.262769	-0.125558	0.638577
C143	C	-0.012769	0.124442	0.888577
C144	C	0.237231	0.374442	1.138577
C145	C	-0.512758	-0.465179	0.388567
C146	C	-0.262758	-0.215179	0.638567
C147	C	-0.012758	0.034821	0.888567
C148	C	0.237242	0.284821	1.138567
C149	C	-0.512748	-1.165256	0.179065
C150	C	-0.262748	-0.915256	0.429065
C151	C	-0.012748	-0.665256	0.679065
C152	C	0.237252	-0.415256	0.929065
C153	C	-0.512478	-1.165396	0.089444
C154	C	-0.262478	-0.915396	0.339444
C155	C	-0.012478	-0.665396	0.589444
C156	C	0.237522	-0.415396	0.839444
C157	C	-0.512631	-1.165319	0.761268
C158	C	-0.262631	-0.915319	1.011268
C159	C	-0.012631	-0.665319	1.261268
C160	C	0.237369	-0.415319	1.511268
C161	C	-0.512591	-1.165338	0.852577
C162	C	-0.262591	-0.915338	1.102577
C163	C	-0.012591	-0.665338	1.352577
C164	C	0.237409	-0.415338	1.602577
C165	C	-0.512554	-1.165357	0.925353
C166	C	-0.262554	-0.915357	1.175353
C167	C	-0.012554	-0.665357	1.425353
C168	C	0.237446	-0.415357	1.675353
C169	C	-0.512515	-1.165377	1.016667
C170	C	-0.262515	-0.915377	1.266667
C171	C	-0.012515	-0.665377	1.516667
C172	C	0.237485	-0.415377	1.766667
H173	H	-0.945839	-1.065753	0.487844
H174	H	-0.695839	-0.815753	0.737844
H175	H	-0.445839	-0.565753	0.987844
H176	H	-0.195839	-0.315753	1.237844
F177	F	-0.936513	-1.123740	0.233602
F178	F	-0.686513	-0.873740	0.483602
F179	F	-0.436513	-0.623740	0.733602
F180	F	-0.186513	-0.373740	0.983602
F181	F	-1.088496	-1.010482	0.346959
F182	F	-0.838496	-0.760482	0.596959
F183	F	-0.588496	-0.510482	0.846959
F184	F	-0.338496	-0.260482	1.096959
H185	H	-1.078368	-1.264804	0.289161
H186	H	-0.828368	-1.014804	0.539161
H187	H	-0.578368	-0.764804	0.789161
H188	H	-0.328368	-0.514804	1.039161
H189	H	-0.945496	-1.300974	0.425092
H190	H	-0.695496	-1.050974	0.675092
H191	H	-0.445496	-0.800974	0.925092
H192	H	-0.195496	-0.550974	1.175092
F193	F	-1.088106	-1.206698	0.543489
F194	F	-0.838106	-0.956698	0.793489
F195	F	-0.588106	-0.706698	1.043489
F196	F	-0.338106	-0.456698	1.293489
