data_functionalizedCrystal
_audit_creation_method	'MofGen! by Chris Wilmer'
_symmetry_space_group_name_H-M	'P1'
_symmetry_Int_Tables_number	1
_symmetry_cell_setting	triclinic
loop_
_symmetry_equiv_pos_as_xyz
  x,y,z
_cell_length_a	16.109301
_cell_length_b	9.065218
_cell_length_c	8.140239
_cell_angle_alpha	89.997198
_cell_angle_beta	89.998879
_cell_angle_gamma	95.761317
loop_
_atom_site_label
_atom_site_type_symbol
_atom_site_fract_x
_atom_site_fract_y
_atom_site_fract_z
O1	O	-0.121905	1.957448	-0.136598
O2	O	0.378095	2.457448	0.363402
O3	O	-0.131904	1.527922	-0.136599
O4	O	0.368096	2.027922	0.363401
O5	O	-0.005964	1.754484	-0.136607
O6	O	0.494036	2.254484	0.363393
O7	O	-0.247845	1.730885	-0.136590
O8	O	0.252155	2.230885	0.363410
O9	O	-0.005963	1.754472	0.136620
O10	O	0.494037	2.254472	0.636620
O11	O	-0.131903	1.527909	0.136628
O12	O	0.368097	2.027909	0.636628
O13	O	-0.121904	1.957436	0.136629
O14	O	0.378096	2.457436	0.636629
Zn15	Zn	-0.126903	1.742671	0.180009
Zn16	Zn	0.373097	2.242671	0.680009
Zn17	Zn	-0.126905	1.742687	-0.179979
Zn18	Zn	0.373095	2.242687	0.320021
O19	O	-0.247843	1.730873	0.136637
O20	O	0.252157	2.230873	0.636637
C21	C	-0.130943	1.472952	0.000014
C22	C	0.369057	1.972952	0.500014
C23	C	-0.128069	1.309179	0.000013
C24	C	0.371931	1.809179	0.500013
C25	C	-0.278826	1.731835	0.000025
C26	C	0.221174	2.231835	0.500025
C27	C	-0.371144	1.734701	0.000032
C28	C	0.128856	2.234701	0.500032
C29	C	-0.592434	1.606927	0.000008
C30	C	-0.092434	2.106927	0.500008
C31	C	-0.679176	1.609631	-0.000005
C32	C	-0.179176	2.109631	0.499995
C33	C	-0.661367	1.878441	0.000003
C34	C	-0.161367	2.378441	0.500003
C35	C	-0.574627	1.875735	0.000003
C36	C	-0.074627	2.375735	0.500003
C37	C	-0.540164	1.739974	0.000014
C38	C	-0.040164	2.239974	0.500014
C39	C	-0.713644	1.745384	0.000001
C40	C	-0.213644	2.245384	0.500001
C41	C	-0.807693	1.748317	-0.000012
C42	C	-0.307693	2.248317	0.499988
C43	C	-0.446109	1.737040	0.000025
C44	C	0.053891	2.237040	0.500025
C45	C	0.025019	1.753522	0.000001
C46	C	0.525019	2.253522	0.500001
C47	C	0.117336	1.750656	-0.000016
C48	C	0.617336	2.250656	0.499984
C49	C	-0.122865	2.012405	0.000012
C50	C	0.377135	2.512405	0.500012
C51	C	-0.125739	2.176179	0.000002
C52	C	0.374261	2.676179	0.500002
N53	N	-0.126901	1.742670	0.425692
N54	N	0.373099	2.242670	0.925692
N55	N	-0.126900	1.742699	-0.425662
N56	N	0.373100	2.242699	0.074338
H57	H	-0.564377	1.496382	0.000022
H58	H	-0.064377	1.996382	0.500022
Br59	Br	-0.503681	2.056311	-0.000005
Br60	Br	-0.003681	2.556311	0.499995
H61	H	-0.689438	1.988973	0.000011
H62	H	-0.189438	2.488973	0.500011
Br63	Br	-0.750112	1.429060	-0.000029
Br64	Br	-0.250112	1.929060	0.499971
