data_functionalizedCrystal
_audit_creation_method	'MofGen! by Chris Wilmer'
_symmetry_space_group_name_H-M	'P1'
_symmetry_Int_Tables_number	1
_symmetry_cell_setting	triclinic
loop_
_symmetry_equiv_pos_as_xyz
  x,y,z
_cell_length_a	14.971491
_cell_length_b	14.853567
_cell_length_c	14.048226
_cell_angle_alpha	89.997700
_cell_angle_beta	89.991176
_cell_angle_gamma	83.625583
loop_
_atom_site_label
_atom_site_type_symbol
_atom_site_fract_x
_atom_site_fract_y
_atom_site_fract_z
O1	O	1.186966	0.117509	-0.079193
O2	O	0.926569	0.131574	-0.079185
O3	O	1.063723	-0.006689	-0.079192
O4	O	1.049812	0.255772	-0.079186
O5	O	1.063705	-0.006697	0.079129
O6	O	0.926551	0.131567	0.079136
O7	O	1.186948	0.117502	0.079128
Zn8	Zn	1.056747	0.124533	0.104269
Zn9	Zn	1.056771	0.124543	-0.104326
O10	O	1.049794	0.255765	0.079135
C11	C	0.893235	0.130940	-0.000024
C12	C	0.793938	0.129053	-0.000021
C13	C	0.366241	0.120913	-0.086344
C14	C	0.459542	0.122683	-0.086340
C15	C	0.506178	0.123571	-0.000036
C16	C	0.459510	0.122678	0.086270
C17	C	0.366212	0.120901	0.086266
C18	C	0.653972	0.126384	0.086274
C19	C	0.747276	0.128163	0.086279
C20	C	0.747302	0.128167	-0.086332
C21	C	0.654004	0.126389	-0.086337
C22	C	0.607342	0.125499	-0.000030
C23	C	1.063084	-0.040282	-0.000034
C24	C	1.061195	-0.140365	-0.000043
C25	C	0.971738	-0.552884	-0.000022
C26	C	1.134680	-0.574192	-0.000027
C27	C	1.136456	-0.480159	-0.000032
C28	C	1.055872	-0.422483	-0.000031
C29	C	0.973512	-0.458842	-0.000024
C30	C	1.218815	-0.443793	-0.000030
C31	C	1.220594	-0.349754	-0.000034
C32	C	1.140009	-0.292077	-0.000040
C33	C	1.057646	-0.328441	-0.000034
C34	C	0.977061	-0.270766	-0.000033
C35	C	0.894697	-0.307127	-0.000034
C36	C	0.892926	-0.401165	-0.000030
C37	C	1.141779	-0.198040	-0.000044
C38	C	0.978835	-0.176723	-0.000036
C39	C	1.220282	0.118135	-0.000036
C40	C	1.319579	0.120023	-0.000044
C41	C	1.050433	0.289357	-0.000025
C42	C	1.052322	0.389441	-0.000023
N43	N	1.056737	0.124526	0.246630
C44	C	1.117488	0.063329	0.296445
C45	C	1.117493	0.063329	0.396102
C46	C	1.056751	0.124532	0.445943
C47	C	0.995994	0.185732	0.396121
C48	C	0.995985	0.185727	0.296466
C49	C	0.996018	0.185740	0.603836
C50	C	0.996028	0.185746	0.703498
C51	C	1.117525	0.063342	0.703472
C52	C	1.117517	0.063337	0.603817
C53	C	1.056761	0.124539	0.554002
N54	N	1.056778	0.124549	0.753313
H55	H	0.497489	0.123395	0.156541
H56	H	0.615981	0.125670	0.156554
C57	C	1.136812	-0.059337	0.815532
C58	C	1.184309	-0.003939	0.758220
H59	H	1.178044	-0.100872	0.849326
H60	H	1.100647	-0.022892	0.859476
H61	H	1.099544	-0.091827	0.776655
H62	H	1.221572	0.028557	0.797096
H63	H	1.220489	-0.040389	0.714270
H64	H	0.328276	0.120196	-0.156623
C65	C	0.976754	0.308422	0.815556
C66	C	0.929251	0.253017	0.758279
H67	H	0.935525	0.349955	0.849367
H68	H	1.012930	0.271981	0.859485
H69	H	1.014010	0.340915	0.776654
H70	H	0.891999	0.220519	0.797181
H71	H	0.893059	0.289463	0.714344
H72	H	0.829085	-0.260156	-0.000026
C73	C	0.875930	0.306745	0.613866
C74	C	0.929239	0.253018	0.549077
H75	H	0.834712	0.348284	0.580058
H76	H	0.843713	0.269167	0.652744
H77	H	0.913214	0.339232	0.652726
H78	H	0.891955	0.220525	0.510221
H79	H	0.961458	0.290600	0.510183
C80	C	0.875900	0.306726	0.306495
C81	C	0.929211	0.253001	0.241705
H82	H	0.834678	0.348260	0.272686
H83	H	0.843688	0.269146	0.345375
H84	H	0.913182	0.339218	0.345352
H85	H	0.891929	0.220503	0.202852
H86	H	0.961425	0.290585	0.202809
H87	H	1.208839	-0.168438	-0.000037
H88	H	0.904679	-0.582494	-0.000026
H89	H	1.166981	0.013506	0.563236
H90	H	1.166954	0.013495	0.255871
H91	H	0.785244	0.128891	0.156555
H92	H	0.785299	0.128893	-0.156606
C93	C	1.239193	0.043992	0.508153
C94	C	1.184272	-0.003933	0.450868
H95	H	1.280416	0.002464	0.541967
H96	H	1.271403	0.081565	0.469263
H97	H	1.203002	0.080439	0.552088
H98	H	1.220462	-0.040375	0.406927
H99	H	1.152059	-0.041522	0.489760
H100	H	0.497530	0.123402	-0.156614
C101	C	0.663397	0.126561	-0.256956
C102	C	0.602740	0.125411	-0.181203
H103	H	0.631747	0.125949	-0.315522
H104	H	0.693025	0.179785	-0.253372
H105	H	0.706547	0.074720	-0.253357
H106	H	0.559593	0.177256	-0.184798
H107	H	0.573097	0.072181	-0.184789
H108	H	0.328219	0.120186	0.156540
H109	H	0.913212	-0.129769	-0.000039
C110	C	1.357139	-0.490917	0.081359
C111	C	1.307391	-0.507186	-0.000030
H112	H	1.411822	-0.530060	0.081358
H113	H	1.369981	-0.429715	0.081354
H114	H	1.323357	-0.501957	0.136562
H115	H	1.341171	-0.496139	-0.055233
H116	H	1.294552	-0.568402	-0.000034
C117	C	0.796417	-0.494568	-0.081399
C118	C	0.802400	-0.441140	-0.000021
H119	H	0.740533	-0.519254	-0.081386
H120	H	0.800491	-0.458327	-0.136603
H121	H	0.844165	-0.542367	-0.081388
H122	H	0.754656	-0.393337	-0.000035
H123	H	0.798317	-0.477383	0.055197
C124	C	1.204306	-0.727804	-0.000020
C125	C	1.223255	-0.637586	-0.000026
H126	H	1.258992	-0.766942	-0.000026
H127	H	1.170541	-0.738828	0.055190
H128	H	1.170544	-0.738829	-0.055231
H129	H	1.257011	-0.626559	0.055188
H130	H	1.257034	-0.626557	-0.055242
H131	H	1.287661	-0.320157	-0.000035
H132	H	0.946533	0.235561	0.436708
