data_functionalizedCrystal
_audit_creation_method	'MofGen! by Chris Wilmer'
_symmetry_space_group_name_H-M	'P1'
_symmetry_Int_Tables_number	1
_symmetry_cell_setting	triclinic
loop_
_symmetry_equiv_pos_as_xyz
  x,y,z
_cell_length_a	23.196402
_cell_length_b	19.851628
_cell_length_c	19.851628
_cell_angle_alpha	90.005779
_cell_angle_beta	60.004489
_cell_angle_gamma	60.002583
loop_
_atom_site_label
_atom_site_type_symbol
_atom_site_fract_x
_atom_site_fract_y
_atom_site_fract_z
Zr1	Zr	0.630904	0.649052	-0.088290
O2	O	0.751168	0.541501	-0.195853
O3	O	0.510642	0.682013	-0.055320
O4	O	0.630892	0.682028	-0.195842
O5	O	0.630926	0.541484	0.055518
O6	O	0.630881	0.792890	-0.195828
O7	O	0.630918	0.541485	-0.055332
O8	O	0.415776	0.792862	0.055540
O9	O	0.846032	0.541512	-0.195849
O10	O	0.560099	0.778817	-0.041244
O11	O	0.560114	0.696081	0.041472
O12	O	0.701693	0.696099	-0.123974
O13	O	0.701707	0.613364	-0.041258
Zr14	Zr	0.630900	0.825863	0.088525
Zr15	Zr	0.630886	0.825864	-0.088269
Zr16	Zr	0.630918	0.649051	0.088503
Zr17	Zr	0.782201	0.649070	-0.088284
Zr18	Zr	0.479603	0.825845	0.088518
O19	O	0.751162	0.792902	0.055554
O20	O	0.751142	0.792904	-0.195823
O21	O	0.751187	0.541498	0.055524
O22	O	0.510637	0.933414	0.196088
O23	O	0.510617	0.933416	-0.055289
O24	O	0.510662	0.682011	0.196057
O25	O	0.630878	0.933431	-0.055284
O26	O	0.630912	0.792887	0.196076
O27	O	0.630923	0.682025	0.196063
O28	O	0.630887	0.933430	0.055566
O29	O	0.846018	0.682053	-0.195832
O30	O	0.415787	0.792861	0.196067
O31	O	0.415773	0.933403	0.196084
O32	O	0.415762	0.933404	0.055557
O33	O	0.846043	0.541511	-0.055322
O34	O	0.846029	0.682052	-0.055305
O35	O	0.560112	0.778816	0.124209
O36	O	0.560097	0.861551	0.041492
O37	O	0.701691	0.778834	-0.041238
O38	O	0.701706	0.696098	0.041478
C39	C	0.441652	0.737435	0.000109
C40	C	0.377423	0.737428	0.000106
C41	C	0.294993	0.798502	0.061176
C42	C	0.234632	0.798508	0.061184
C43	C	0.256707	0.737445	0.000109
C44	C	0.339151	0.676359	-0.060967
C45	C	0.399509	0.676351	-0.060968
C46	C	0.201116	0.718429	-0.074430
C47	C	0.140757	0.718443	-0.074429
C48	C	0.070545	0.737467	0.000112
C49	C	0.060690	0.756494	0.074657
C50	C	0.121048	0.756486	0.074656
C51	C	0.191265	0.737447	0.000103
C52	C	-0.077338	0.798552	0.061195
C53	C	-0.137697	0.798552	0.061203
C54	C	-0.033176	0.676406	-0.060954
C55	C	0.027180	0.676403	-0.060955
C56	C	0.005094	0.737480	0.000119
C57	C	0.630924	0.516293	0.000090
C58	C	0.630932	0.441232	0.000081
C59	C	0.708117	0.214786	-0.044999
C60	C	0.669521	0.192420	-0.077688
C61	C	0.630911	0.303825	0.000105
C62	C	0.669512	0.192450	0.032778
C63	C	0.630896	0.171093	0.000127
C64	C	0.592315	0.282448	-0.032629
C65	C	0.592316	0.282476	0.077880
C66	C	0.553664	0.260163	0.045211
C67	C	0.630922	0.380287	0.000090
C68	C	0.630879	0.094636	0.000141
C69	C	0.820152	0.737480	0.000125
C70	C	0.884382	0.737487	0.000128
C71	C	0.630885	0.737459	-0.221024
C72	C	0.630879	0.737460	-0.296078
C73	C	0.630880	0.958622	0.000144
C74	C	0.630872	1.033683	0.000153
C75	C	0.553694	0.782561	-0.477231
C76	C	0.592266	0.815269	-0.454845
C77	C	0.630911	0.737457	-0.566260
C78	C	0.592298	0.704790	-0.454885
C79	C	0.630891	0.737460	-0.433508
C80	C	0.669484	0.770210	-0.544864
C81	C	0.669505	0.659688	-0.544901
C82	C	0.708134	0.692376	-0.522569
C83	C	0.630920	0.737458	-0.642734
C84	C	0.630888	0.737461	-0.357039
C85	C	0.630920	0.737456	0.221259
C86	C	0.630926	0.737455	0.296312
C87	C	0.441630	0.958600	0.000136
C88	C	0.377393	1.033653	0.000142
C89	C	0.441670	0.737433	0.221250
C90	C	0.377446	0.737425	0.296301
C91	C	0.441648	0.958598	0.221277
C92	C	0.377416	1.033651	0.296337
C93	C	0.820157	0.516317	-0.221043
C94	C	0.884388	0.441264	-0.296102
C95	C	0.820174	0.516315	0.000099
C96	C	0.884411	0.441262	0.000092
C97	C	0.820135	0.737481	-0.221016
C98	C	0.884358	0.737490	-0.296066
C99	C	0.347227	1.025713	-0.043050
C100	C	0.286878	1.096227	-0.043060
C101	C	0.256691	1.174681	0.000126
C102	C	0.286863	1.182620	0.043320
C103	C	0.347215	1.112106	0.043325
C104	C	0.347285	0.780608	0.374740
C105	C	0.286948	0.780597	0.445265
C106	C	0.256770	0.737408	0.437349
C107	C	0.286937	0.694220	0.358901
C108	C	0.347277	0.694226	0.288378
C109	C	0.347245	1.112091	0.288409
C110	C	0.286901	1.182618	0.358928
C111	C	0.256726	1.174703	0.437376
C112	C	0.286903	1.096255	0.445302
C113	C	0.347250	1.025729	0.374783
C114	C	0.914567	0.362824	-0.288174
C115	C	0.974929	0.292297	-0.358694
C116	C	1.005108	0.300212	-0.437141
C117	C	0.974927	0.378660	-0.445068
C118	C	0.914569	0.449185	-0.374549
C119	C	0.914583	0.449202	0.043277
C120	C	0.974949	0.378688	0.043268
C121	C	1.005138	0.300234	0.000079
C122	C	0.974964	0.292295	-0.043111
C123	C	0.914603	0.362809	-0.043107
C124	C	0.914518	0.780687	-0.288124
C125	C	0.974855	0.780711	-0.358635
C126	C	1.005035	0.737532	-0.437088
C127	C	0.974870	0.694333	-0.445029
C128	C	0.914530	0.694315	-0.374519
H129	H	0.113022	0.771976	0.135353
H130	H	1.054288	0.242824	0.000082
C131	C	0.363434	0.609193	-0.128149
H132	H	0.315681	0.617950	-0.119407
H133	H	0.394797	0.556470	-0.125623
H134	H	0.394797	0.611732	-0.180869
C135	C	0.548207	0.667458	-0.402488
H136	H	0.584918	0.619998	-0.397603
H137	H	0.529327	0.652303	-0.428348
H138	H	0.503175	0.707049	-0.349174
H139	H	1.054168	0.737553	-0.494496
C140	C	0.253726	0.646727	0.350203
H141	H	0.213463	0.652922	0.403443
H142	H	0.297041	0.589911	0.320898
H143	H	0.230164	0.668066	0.320915
H144	H	0.890039	0.356332	-0.078270
H145	H	0.262394	0.815768	0.509134
C146	C	0.380427	0.939423	-0.090564
H147	H	0.353818	0.944805	-0.116293
H148	H	0.370541	0.910108	-0.053301
H149	H	0.437407	0.910126	-0.131430
C150	C	0.380429	1.120814	0.202126
H151	H	0.353817	1.177635	0.207516
H152	H	0.370537	1.095102	0.172814
H153	H	0.437410	1.095101	0.172823
C154	C	0.190298	1.252238	0.000122
H155	H	0.176654	1.236265	-0.031781
H156	H	0.210064	1.284154	-0.022992
H157	H	0.143205	1.284134	0.055144
C158	C	0.713560	0.570861	-0.597327
H159	H	0.686045	0.547720	-0.565912
H160	H	0.768120	0.538591	-0.613164
H161	H	0.713676	0.571472	-0.645245
C162	C	0.253691	1.268902	0.350199
H163	H	0.213429	1.309777	0.403429
H164	H	0.230144	1.275062	0.320903
H165	H	0.297010	1.275102	0.320889
C166	C	0.881325	0.828189	-0.201832
H167	H	0.841072	0.821993	-0.160968
H168	H	0.857773	0.885004	-0.195642
H169	H	0.924656	0.806867	-0.195648
C170	C	0.713529	0.807643	-0.597111
H171	H	0.731926	0.823240	-0.570909
H172	H	0.676952	0.854832	-0.602379
H173	H	0.758892	0.767939	-0.650277
H174	H	0.262320	1.089747	-0.078233
C175	C	0.253645	1.268921	0.090828
H176	H	0.213375	1.309772	0.084643
H177	H	0.296956	1.275130	0.069519
H178	H	0.230091	1.275107	0.147646
C179	C	0.713592	0.139986	-0.166522
H180	H	0.676864	0.135118	-0.171069
H181	H	0.758616	0.086676	-0.179544
H182	H	0.732478	0.165828	-0.203758
H183	H	0.999507	0.385168	0.078441
C184	C	1.008035	0.828220	-0.349885
H185	H	0.981427	0.853918	-0.293061
H186	H	0.998136	0.869099	-0.375582
H187	H	1.065017	0.790944	-0.375602
H188	H	0.999453	0.659178	-0.508916
C189	C	0.380393	1.120846	0.090838
H190	H	0.420666	1.067620	0.084656
H191	H	0.337064	1.150153	0.147649
H192	H	0.403934	1.150154	0.069507
C193	C	0.796383	0.640864	-0.547659
H194	H	0.823676	0.664196	-0.579057
H195	H	0.824013	0.585855	-0.579866
H196	H	0.795900	0.640779	-0.499525
C197	C	0.548267	0.334707	-0.070055
H198	H	0.548566	0.382387	-0.069862
H199	H	0.493570	0.350945	-0.038256
H200	H	0.575505	0.303029	-0.125150
H201	H	0.702161	0.153652	0.060402
C202	C	0.380481	0.828107	0.383465
H203	H	0.353878	0.853809	0.440286
H204	H	0.370587	0.868980	0.357761
H205	H	0.437463	0.790823	0.357745
C206	C	0.881371	0.646783	-0.383266
H207	H	0.907998	0.621066	-0.440090
H208	H	0.824392	0.684038	-0.357554
H209	H	0.891284	0.605906	-0.357565
H210	H	1.054254	0.242779	-0.494556
H211	H	0.999553	0.228409	-0.078274
C212	C	0.190393	0.737412	0.514928
H213	H	0.176750	0.769325	0.562775
H214	H	0.210171	0.682396	0.514938
H215	H	0.143295	0.760540	0.514941
C216	C	0.465409	0.285276	0.096737
H217	H	0.438112	0.316680	0.073409
H218	H	0.437790	0.317483	0.151741
H219	H	0.465880	0.237148	0.096830
C220	C	0.796300	0.189883	-0.096592
H221	H	0.805260	0.210986	-0.062559
H222	H	0.804875	0.211854	-0.140478
H223	H	0.833169	0.131439	-0.118559
H224	H	0.371826	0.659065	0.224512
H225	H	0.466630	0.626612	-0.110698
H226	H	0.207588	1.232136	0.494790
H227	H	0.262326	1.089822	0.509183
H228	H	0.277003	0.848235	0.110908
C229	C	0.380429	0.939448	0.383510
H230	H	0.420695	0.898572	0.330281
H231	H	0.337098	0.933271	0.412815
H232	H	0.403978	0.933267	0.412812
C233	C	0.881390	0.354101	-0.201892
H234	H	0.908024	0.297279	-0.207282
H235	H	0.824414	0.379803	-0.172578
H236	H	0.891287	0.379824	-0.172590
C237	C	0.881386	0.535492	0.090789
H238	H	0.908013	0.530110	0.116498
H239	H	0.824410	0.564793	0.131658
H240	H	0.891273	0.564802	0.053516
C241	C	0.143951	0.865694	0.128362
H242	H	0.139443	0.902069	0.164733
H243	H	0.118230	0.840610	0.158525
H244	H	0.118238	0.895863	0.103270
H245	H	0.003524	0.771979	0.135355
C246	C	1.008117	0.387360	-0.531360
H247	H	0.981506	0.444177	-0.525991
H248	H	0.998227	0.361630	-0.560658
H249	H	1.065098	0.361649	-0.560664
C250	C	1.008111	0.206014	-0.349960
H251	H	0.981479	0.211408	-0.293139
H252	H	1.065086	0.176708	-0.375661
H253	H	0.998220	0.176703	-0.375681
C254	C	0.548287	0.334905	0.166696
H255	H	0.575807	0.303484	0.189831
H256	H	0.493721	0.350761	0.198980
H257	H	0.548188	0.382813	0.166068
C258	C	0.881347	0.535467	-0.383276
H259	H	0.841074	0.576343	-0.330047
H260	H	0.857813	0.541613	-0.412583
H261	H	0.924659	0.541679	-0.412576
C262	C	0.465517	0.834140	-0.452349
H263	H	0.456572	0.800096	-0.473461
H264	H	0.456939	0.878025	-0.474322
H265	H	0.428639	0.856109	-0.393907
C266	C	-0.101626	0.865723	0.128381
H267	H	-0.159367	0.902091	0.164763
H268	H	-0.080258	0.895891	0.103302
H269	H	-0.080249	0.840622	0.158541
H270	H	0.559625	0.881040	-0.416040
C271	C	-0.228375	0.865733	0.128385
H272	H	-0.261160	0.856986	0.119647
H273	H	-0.239958	0.918453	0.125856
H274	H	-0.239951	0.863194	0.181105
C275	C	-0.008884	0.609234	-0.128135
H276	H	0.048857	0.572856	-0.164506
H277	H	-0.030258	0.634323	-0.158297
H278	H	-0.030255	0.579067	-0.103045
C279	C	0.117856	0.609228	-0.128141
H280	H	0.122360	0.572865	-0.164520
H281	H	0.143579	0.579056	-0.103063
H282	H	0.143568	0.634322	-0.158304
H283	H	0.258287	0.702929	-0.135135
C284	C	0.151611	0.697482	-0.156425
H285	H	0.105610	0.700211	-0.145749
H286	H	0.199440	0.643381	-0.190981
H287	H	0.156472	0.735927	-0.183125
