data_functionalizedCrystal
_audit_creation_method	'MofGen! by Chris Wilmer'
_symmetry_space_group_name_H-M	'P1'
_symmetry_Int_Tables_number	1
_symmetry_cell_setting	triclinic
loop_
_symmetry_equiv_pos_as_xyz
  x,y,z
_cell_length_a	16.120490
_cell_length_b	16.120444
_cell_length_c	11.169409
_cell_angle_alpha	92.861473
_cell_angle_beta	87.080796
_cell_angle_gamma	90.165174
loop_
_atom_site_label
_atom_site_type_symbol
_atom_site_fract_x
_atom_site_fract_y
_atom_site_fract_z
Zn1	Zn	1.254505	-0.395597	-0.798889
Zn2	Zn	1.247337	-0.534676	-0.607813
Zn3	Zn	1.115435	-0.388577	-0.587565
Zn4	Zn	1.108354	-0.527542	-0.797798
O5	O	1.181408	-0.461598	-0.698017
O6	O	1.369920	-0.419969	-0.782473
O7	O	1.229803	-0.515343	-0.437178
O8	O	1.139846	-0.273146	-0.607581
O9	O	1.364653	-0.522150	-0.642091
O10	O	1.242020	-0.278303	-0.762840
O11	O	1.132895	-0.408006	-0.422302
O12	O	0.998129	-0.401088	-0.606523
O13	O	1.127778	-0.509992	-0.965892
O14	O	0.992928	-0.503185	-0.760980
O15	O	1.235154	-0.413052	-0.966694
O16	O	1.222937	-0.650092	-0.641032
O17	O	1.120828	-0.644851	-0.780613
C18	C	0.965356	-0.450602	-0.681436
C19	C	0.872927	-0.445917	-0.674373
C20	C	0.659960	-0.485890	-0.734656
C21	C	0.703703	-0.437373	-0.661476
C22	C	0.797868	-0.442128	-0.668654
C23	C	0.565786	-0.481135	-0.727480
C24	C	1.170359	-0.677644	-0.712929
C25	C	1.165708	-0.770073	-0.719355
C26	C	1.205736	-0.983054	-0.664956
C27	C	1.157233	-0.939298	-0.731101
C28	C	1.161950	-0.845133	-0.724564
C29	C	1.201020	-1.077229	-0.671492
C30	C	1.398303	-0.472638	-0.714662
C31	C	1.490730	-0.477343	-0.721756
C32	C	1.181476	-0.461509	-1.011058
C33	C	1.181505	-0.461471	-1.144457
C34	C	1.192522	-0.244710	-0.683073
C35	C	1.197258	-0.152285	-0.676706
C36	C	1.181390	-0.461629	-0.386193
C37	C	1.181534	-0.461441	-0.252790
H38	H	0.693227	-0.530995	-0.802692
H39	H	0.670434	-0.392265	-0.593434
H40	H	1.112165	-0.972558	-0.792638
H41	H	1.250800	-0.949798	-0.603422
