data_functionalizedCrystal
_audit_creation_method	'MofGen! by Chris Wilmer'
_symmetry_space_group_name_H-M	'P1'
_symmetry_Int_Tables_number	1
_symmetry_cell_setting	triclinic
loop_
_symmetry_equiv_pos_as_xyz
  x,y,z
_cell_length_a	16.120530
_cell_length_b	16.120531
_cell_length_c	17.077396
_cell_angle_alpha	87.134749
_cell_angle_beta	87.083390
_cell_angle_gamma	89.826117
loop_
_atom_site_label
_atom_site_type_symbol
_atom_site_fract_x
_atom_site_fract_y
_atom_site_fract_z
Zn1	Zn	1.254425	0.395601	-0.522508
Zn2	Zn	1.754425	0.895601	-0.022508
Zn3	Zn	1.247252	0.534661	-0.397525
Zn4	Zn	1.747252	1.034661	0.102475
Zn5	Zn	1.115366	0.388569	-0.384290
Zn6	Zn	1.615366	0.888569	0.115710
Zn7	Zn	1.108262	0.527554	-0.521782
Zn8	Zn	1.608262	1.027554	-0.021782
O9	O	1.181326	0.461596	-0.456526
O10	O	1.681326	0.961596	0.043474
O11	O	1.369838	0.419965	-0.511772
O12	O	1.869838	0.919965	-0.011772
O13	O	1.229729	0.515313	-0.285922
O14	O	1.729729	1.015313	0.214078
O15	O	1.139788	0.273140	-0.397390
O16	O	1.639788	0.773140	0.102610
O17	O	1.364569	0.522132	-0.419947
O18	O	1.864569	1.022132	0.080053
O19	O	1.241954	0.278306	-0.498939
O20	O	1.741954	0.778306	0.001061
O21	O	1.132832	0.407980	-0.276199
O22	O	1.632832	0.907980	0.223801
O23	O	0.998059	0.401089	-0.396686
O24	O	1.498059	0.901089	0.103314
O25	O	1.127679	0.510018	-0.631725
O26	O	1.627679	1.010018	-0.131725
O27	O	0.992839	0.503200	-0.497700
O28	O	1.492839	1.003200	0.002300
O29	O	1.235065	0.413074	-0.632259
O30	O	1.735065	0.913074	-0.132259
O31	O	1.222840	0.650081	-0.419243
O32	O	1.722840	1.150081	0.080757
O33	O	1.120724	0.644859	-0.510534
O34	O	1.620724	1.144859	-0.010534
C35	C	0.965277	0.450610	-0.445679
C36	C	1.465277	0.950610	0.054321
C37	C	0.872849	0.445931	-0.441057
C38	C	1.372849	0.945931	0.058943
C39	C	0.703623	0.437367	-0.432626
C40	C	1.203623	0.937367	0.067374
C41	C	0.659867	0.485887	-0.480487
C42	C	1.159867	0.985887	0.019513
C43	C	0.565704	0.481122	-0.475796
C44	C	1.065704	0.981122	0.024204
C45	C	0.797795	0.442131	-0.437316
C46	C	1.297795	0.942131	0.062684
C47	C	1.170255	0.677642	-0.466264
C48	C	1.670255	1.177642	0.033736
C49	C	1.165595	0.770072	-0.470460
C50	C	1.665595	1.270072	0.029540
C51	C	1.157092	0.939302	-0.478136
C52	C	1.657092	1.439302	0.021864
C53	C	1.205592	0.983052	-0.434874
C54	C	1.705592	1.483052	0.065126
C55	C	1.200861	1.077218	-0.439145
C56	C	1.700861	1.577218	0.060855
C57	C	1.161822	0.845128	-0.473866
C58	C	1.661822	1.345128	0.026134
C59	C	1.398219	0.472626	-0.467417
C60	C	1.898219	0.972626	0.032583
C61	C	1.490646	0.477326	-0.472058
C62	C	1.990646	0.977326	0.027942
C63	C	1.181380	0.461538	-0.661270
C64	C	1.681380	0.961538	-0.161270
C65	C	1.181403	0.461513	-0.748520
C66	C	1.681403	0.961513	-0.248520
C67	C	1.192434	1.244706	-0.446753
C68	C	1.692434	1.744706	0.053247
C69	C	1.197091	1.152277	-0.442548
C70	C	1.697091	1.652277	0.057452
C71	C	1.237320	0.411029	-0.789790
C72	C	1.737320	0.911029	-0.289790
C73	C	1.237332	0.411002	-0.871769
C74	C	1.737332	0.911002	-0.371769
C75	C	1.181429	0.461463	-0.912479
C76	C	1.681429	0.961463	-0.412479
C77	C	1.125505	0.511949	-0.871203
C78	C	1.625505	1.011949	-0.371203
C79	C	1.125490	0.511971	-0.789225
C80	C	1.625490	1.011971	-0.289225
C81	C	1.125541	0.511901	-1.042073
C82	C	1.625541	1.011901	-0.542073
C83	C	1.125556	0.511880	-1.124057
C84	C	1.625556	1.011880	-0.624057
C85	C	1.237383	0.410931	-1.124617
C86	C	1.737383	0.910931	-0.624617
C87	C	1.237368	0.410954	-1.042639
C88	C	1.737368	0.910954	-0.542639
C89	C	1.181445	0.461441	-1.001369
C90	C	1.681445	0.961441	-0.501369
C91	C	1.181324	0.461597	-0.252578
C92	C	1.681324	0.961597	0.247422
C93	C	1.181474	0.461396	-0.165327
C94	C	1.681474	0.961396	0.334673
H95	H	0.693125	0.531003	-0.524986
H96	H	1.193125	1.031003	-0.024986
H97	H	1.282868	0.369895	-0.905367
H98	H	1.782868	0.869895	-0.405367
H99	H	1.282916	0.369822	-1.158223
H100	H	1.782916	0.869822	-0.658223
H101	H	0.670367	0.392254	-0.388131
H102	H	1.170367	0.892254	0.111869
N103	N	1.262121	0.941316	-0.384373
N104	N	1.762121	1.441316	0.115627
N105	N	1.265922	0.863771	-0.380919
N106	N	1.765922	1.363771	0.119081
H107	H	1.305836	0.834289	-0.345248
H108	H	1.805836	1.334289	0.154752
N109	N	1.100542	0.981038	-0.528607
N110	N	1.600542	1.481038	-0.028607
N111	N	1.045186	1.026908	-0.500434
N112	N	1.545186	1.526908	-0.000434
H113	H	1.005246	1.056395	-0.536076
H114	H	1.505246	1.556395	-0.036076
H115	H	1.282846	0.369940	-0.756650
H116	H	1.782846	0.869940	-0.256650
N117	N	1.294484	0.359414	-1.001067
N118	N	1.794484	0.859414	-0.501067
N119	N	1.344411	0.314343	-1.037921
N120	N	1.844411	0.814343	-0.537921
H121	H	1.384751	0.277941	-1.008561
H122	H	1.884751	0.777941	-0.508561
H123	H	1.080034	0.552968	-1.157201
H124	H	1.580034	1.052968	-0.657201
N125	N	1.068406	0.563470	-0.999928
N126	N	1.568406	1.063470	-0.499928
N127	N	1.018497	0.608522	-1.036282
N128	N	1.518497	1.108522	-0.536282
H129	H	0.978147	0.644944	-1.006518
H130	H	1.478147	1.144944	-0.506518
H131	H	1.079985	0.553032	-0.904355
H132	H	1.579985	1.053032	-0.404355
N133	N	1.068361	0.563527	-0.747065
N134	N	1.568361	1.063527	-0.247065
N135	N	0.991916	0.554101	-0.752115
N136	N	1.491916	1.054101	-0.252115
H137	H	0.951563	0.590510	-0.722339
H138	H	1.451563	1.090510	-0.222339
