data_functionalizedCrystal
_audit_creation_method	'MofGen! by Chris Wilmer'
_symmetry_space_group_name_H-M	'P1'
_symmetry_Int_Tables_number	1
_symmetry_cell_setting	triclinic
loop_
_symmetry_equiv_pos_as_xyz
  x,y,z
_cell_length_a	25.639239
_cell_length_b	25.639242
_cell_length_c	25.639233
_cell_angle_alpha	90.022166
_cell_angle_beta	90.018747
_cell_angle_gamma	90.034213
loop_
_atom_site_label
_atom_site_type_symbol
_atom_site_fract_x
_atom_site_fract_y
_atom_site_fract_z
Zn1	Zn	-0.208277	0.799225	0.295742
Zn2	Zn	0.291723	1.299225	0.795742
Zn3	Zn	-0.295696	0.799149	0.208307
Zn4	Zn	0.204304	1.299149	0.708307
Zn5	Zn	-0.208269	0.711801	0.208306
Zn6	Zn	0.291731	1.211801	0.708306
Zn7	Zn	-0.295676	0.711746	0.295696
Zn8	Zn	0.204324	1.211746	0.795696
O9	O	-0.251979	0.755480	0.252013
O10	O	0.248021	1.255480	0.752013
O11	O	-0.219884	0.872380	0.284163
O12	O	0.280116	1.372380	0.784163
O13	O	-0.284103	0.787553	0.135141
O14	O	0.215897	1.287553	0.635141
O15	O	-0.135105	0.723453	0.219924
O16	O	0.364895	1.223453	0.719924
O17	O	-0.284111	0.872324	0.219924
O18	O	0.215889	1.372324	0.719924
O19	O	-0.135111	0.787683	0.284163
O20	O	0.364889	1.287683	0.784163
O21	O	-0.219871	0.723379	0.135141
O22	O	0.280129	1.223379	0.635141
O23	O	-0.219853	0.638629	0.219880
O24	O	0.280147	1.138629	0.719880
O25	O	-0.284078	0.723360	0.368868
O26	O	0.215922	1.223360	0.868868
O27	O	-0.284070	0.638589	0.284085
O28	O	0.215930	1.138589	0.784085
O29	O	-0.219866	0.787630	0.368901
O30	O	0.280134	1.287630	0.868901
O31	O	-0.368858	0.787499	0.219880
O32	O	0.131142	1.287499	0.719880
O33	O	-0.368844	0.723286	0.284085
O34	O	0.131156	1.223286	0.784085
C35	C	-0.251959	0.619638	0.251977
C36	C	0.248041	1.119638	0.751977
C37	C	-0.251963	0.561524	0.251975
C38	C	0.248037	1.061524	0.751975
C39	C	-0.285473	0.201149	0.285413
C40	C	0.214527	0.701149	0.785413
C41	C	-0.285477	0.146544	0.285421
C42	C	0.214523	0.646544	0.785421
O43	O	-0.313943	0.118297	0.313821
O44	O	0.186057	0.618297	0.813821
N45	N	-0.251994	0.119241	0.252047
N46	N	0.248006	0.619241	0.752047
C47	C	-0.218502	0.146545	0.218666
C48	C	0.281498	0.646545	0.718666
O49	O	-0.190022	0.118308	0.190280
O50	O	0.309978	0.618308	0.690280
C51	C	-0.218496	0.201149	0.218661
C52	C	0.281504	0.701149	0.718661
C53	C	-0.251985	0.228449	0.252034
C54	C	0.248015	0.728449	0.752034
C55	C	-0.318959	0.228449	0.318783
C56	C	0.181041	0.728449	0.818783
C57	C	-0.318956	0.283049	0.318774
C58	C	0.181044	0.783049	0.818774
C59	C	-0.285468	0.310350	0.285395
C60	C	0.214532	0.810350	0.785395
C61	C	-0.251983	0.283049	0.252024
C62	C	0.248017	0.783049	0.752024
C63	C	-0.185002	0.228452	0.185283
C64	C	0.314998	0.728452	0.685283
C65	C	-0.185000	0.283059	0.185281
C66	C	0.315000	0.783059	0.685281
C67	C	-0.218488	0.310359	0.218654
C68	C	0.281512	0.810359	0.718654
C69	C	-0.218492	0.364950	0.218636
C70	C	0.281508	0.864950	0.718636
N71	N	-0.251974	0.392253	0.252010
N72	N	0.248026	0.892253	0.752010
C73	C	-0.285463	0.364953	0.285389
C74	C	0.214537	0.864953	0.785389
C75	C	-0.218515	0.031875	0.218680
C76	C	0.281485	0.531875	0.718680
C77	C	-0.218523	-0.022728	0.218683
C78	C	0.281477	0.477272	0.718683
C79	C	-0.285497	-0.022725	0.285438
C80	C	0.214503	0.477275	0.785438
C81	C	-0.285492	0.031878	0.285433
C82	C	0.214508	0.531878	0.785433
C83	C	-0.251998	0.059178	0.252054
C84	C	0.248002	0.559178	0.752054
C85	C	-0.285455	0.479618	0.285368
C86	C	0.214545	0.979618	0.785368
C87	C	-0.285451	0.534223	0.285354
C88	C	0.214549	1.034223	0.785354
C89	C	-0.218475	0.534216	0.218601
C90	C	0.281525	1.034216	0.718601
C91	C	-0.218481	0.479615	0.218612
C92	C	0.281519	0.979615	0.718612
C93	C	-0.251972	0.452318	0.252000
C94	C	0.248028	0.952318	0.752000
O95	O	-0.190038	0.393232	0.190252
O96	O	0.309962	0.893232	0.690252
O97	O	-0.313933	0.393197	0.313776
O98	O	0.186067	0.893197	0.813776
C99	C	-0.387822	0.755392	0.251989
C100	C	0.112178	1.255392	0.751989
C101	C	-0.445936	0.755403	0.251996
C102	C	0.054064	1.255403	0.751996
C103	C	-0.806294	0.789004	0.218638
C104	C	-0.306294	1.289004	0.718638
C105	C	-0.860898	0.789024	0.218645
C106	C	-0.360898	1.289024	0.718645
O107	O	-0.889131	0.817502	0.190257
O108	O	-0.389131	1.317502	0.690257
N109	N	-0.888218	0.755572	0.252048
N110	N	-0.388218	1.255572	0.752048
C111	C	-0.860932	0.722102	0.285449
C112	C	-0.360932	1.222102	0.785449
O113	O	-0.889184	0.693651	0.313861
O114	O	-0.389184	1.193651	0.813861
C115	C	-0.806328	0.722085	0.285444
C116	C	-0.306328	1.222085	0.785444
C117	C	-0.779011	0.755535	0.252036
C118	C	-0.279011	1.255535	0.752036
C119	C	-0.778976	0.822452	0.185233
C120	C	-0.278976	1.322452	0.685233
C121	C	-0.724376	0.822431	0.185226
C122	C	-0.224376	1.322431	0.685226
C123	C	-0.697093	0.788962	0.218623
C124	C	-0.197093	1.288962	0.718623
C125	C	-0.724410	0.755514	0.252028
C126	C	-0.224410	1.255514	0.752028
C127	C	-0.779042	0.688617	0.318847
C128	C	-0.279042	1.188617	0.818847
C129	C	-0.724435	0.688603	0.318840
C130	C	-0.224435	1.188603	0.818840
C131	C	-0.697118	0.722053	0.285432
C132	C	-0.197118	1.222053	0.785432
C133	C	-0.642527	0.722024	0.285418
C134	C	-0.142527	1.222024	0.785418
N135	N	-0.615206	0.755475	0.252016
N136	N	-0.115206	1.255475	0.752016
C137	C	-0.642490	0.788944	0.218618
C138	C	-0.142490	1.288944	0.718618
C139	C	-0.975602	0.722141	0.285457
C140	C	-0.475602	1.222141	0.785457
C141	C	-1.030204	0.722155	0.285459
C142	C	-0.530204	1.222155	0.785459
C143	C	-1.030167	0.789078	0.218656
C144	C	-0.530167	1.289078	0.718656
C145	C	-0.975564	0.789061	0.218652
C146	C	-0.475564	1.289061	0.718652
C147	C	-0.948282	0.755593	0.252055
C148	C	-0.448282	1.255593	0.752055
C149	C	-0.527824	0.788897	0.218605
C150	C	-0.027824	1.288897	0.718605
C151	C	-0.473219	0.788872	0.218599
C152	C	0.026781	1.288872	0.718599
C153	C	-0.473261	0.721951	0.285403
C154	C	0.026739	1.221951	0.785403
C155	C	-0.527862	0.721974	0.285408
C156	C	-0.027862	1.221974	0.785408
C157	C	-0.555142	0.755452	0.252007
C158	C	-0.055142	1.255452	0.752007
O159	O	-0.614260	0.693562	0.313793
O160	O	-0.114260	1.193562	0.813793
O161	O	-0.614231	0.817396	0.190216
O162	O	-0.114231	1.317396	0.690216
C163	C	-0.115606	0.755583	0.252048
C164	C	0.384394	1.255583	0.752048
C165	C	-0.057492	0.755627	0.252064
C166	C	0.442508	1.255627	0.752064
C167	C	-0.251970	0.755497	0.388386
C168	C	0.248030	1.255497	0.888386
C169	C	-0.251966	0.755504	0.446500
C170	C	0.248034	1.255504	0.946500
C171	C	-0.252000	0.891853	0.252049
C172	C	0.248000	1.391853	0.752049
C173	C	-0.252009	0.949967	0.252064
C174	C	0.247991	1.449967	0.752064
C175	C	-0.251951	0.755494	0.116170
C176	C	0.248049	1.255494	0.616170
C177	C	-0.251807	0.755588	0.058057
C178	C	0.248193	1.255588	0.558057
C179	C	-0.218432	0.789012	0.806886
C180	C	0.281568	1.289012	1.306886
C181	C	-0.218417	0.789019	0.861491
C182	C	0.281583	1.289019	1.361491
O183	O	-0.189967	0.817466	0.889747
O184	O	0.310033	1.317466	1.389747
N185	N	-0.251844	0.755562	0.888783
N186	N	0.248156	1.255562	1.388783
C187	C	-0.285283	0.722093	0.861468
C188	C	0.214717	1.222093	1.361468
O189	O	-0.313713	0.693636	0.889695
O190	O	0.186287	1.193636	1.389695
C191	C	-0.285294	0.722084	0.806864
C192	C	0.214706	1.222084	1.306864
C193	C	-0.251870	0.755547	0.779575
C194	C	0.248130	1.255547	1.279575
C195	C	-0.185009	0.822472	0.779597
C196	C	0.314991	1.322472	1.279597
C197	C	-0.185025	0.822466	0.724997
C198	C	0.314975	1.322466	1.224997
C199	C	-0.218462	0.789000	0.697685
C200	C	0.281538	1.289000	1.197685
C201	C	-0.251885	0.755541	0.724974
C202	C	0.248115	1.255541	1.224974
C203	C	-0.318731	0.688613	0.779550
C204	C	0.181269	1.188613	1.279550
C205	C	-0.318739	0.688607	0.724943
C206	C	0.181261	1.188607	1.224943
C207	C	-0.285314	0.722069	0.697654
C208	C	0.214686	1.222069	1.197654
C209	C	-0.285338	0.722070	0.643063
C210	C	0.214662	1.222070	1.143063
N211	N	-0.251912	0.755526	0.615771
N212	N	0.248088	1.255526	1.115771
C213	C	-0.218474	0.788992	0.643082
C214	C	0.281526	1.288992	1.143082
C215	C	-0.285256	0.722113	0.976138
C216	C	0.214744	1.222113	1.476138
C217	C	-0.285247	0.722124	1.030741
C218	C	0.214753	1.222124	1.530741
C219	C	-0.218381	0.789049	1.030760
C220	C	0.281619	1.289049	1.530760
C221	C	-0.218392	0.789041	0.976157
C222	C	0.281608	1.289041	1.476157
C223	C	-0.251829	0.755570	0.948846
C224	C	0.248171	1.255570	1.448846
C225	C	-0.218509	0.788977	0.528417
C226	C	0.281491	1.288977	1.028417
C227	C	-0.218529	0.788970	0.473811
C228	C	0.281471	1.288970	0.973811
C229	C	-0.285393	0.722043	0.473797
C230	C	0.214607	1.222043	0.973797
C231	C	-0.285375	0.722052	0.528397
C232	C	0.214625	1.222052	1.028397
C233	C	-0.251929	0.755521	0.555706
C234	C	0.248071	1.255521	1.055706
O235	O	-0.313773	0.693635	0.614771
O236	O	0.186227	1.193635	1.114771
O237	O	-0.190044	0.817439	0.614847
O238	O	0.309956	1.317439	1.114847
H239	H	-0.312760	0.054103	0.312609
H240	H	0.187240	0.554103	0.812609
H241	H	-0.953325	0.816300	0.191448
H242	H	-0.453325	1.316300	0.691448
H243	H	-0.191310	0.816221	0.451595
H244	H	0.308690	1.316221	0.951595
N245	N	-0.321327	0.686020	0.946678
N246	N	0.178673	1.186020	1.446678
H247	H	-0.300082	0.661801	0.924020
H248	H	0.199918	1.161801	1.424020
H249	H	-0.342494	0.664862	0.972285
H250	H	0.157506	1.164862	1.472285
H251	H	-0.191241	0.054099	0.191496
H252	H	0.308759	0.554099	0.691496
N253	N	-0.321618	-0.052176	0.321442
N254	N	0.178382	0.447824	0.821442
H255	H	-0.316536	-0.090908	0.316380
H256	H	0.183464	0.409092	0.816380
H257	H	-0.313534	-0.042610	0.358797
H258	H	0.186466	0.457390	0.858797
H259	H	-0.191272	0.816229	0.550645
H260	H	0.308728	1.316229	1.050645
N261	N	-0.808401	0.858550	0.149208
N262	N	-0.308401	1.358550	0.649208
H263	H	-0.798858	0.895899	0.157365
H264	H	-0.298858	1.395899	0.657365
H265	H	-0.798904	0.850403	0.111858
H266	H	-0.298904	1.350403	0.611858
N267	N	-0.182411	-0.052170	0.182680
N268	N	0.317589	0.447830	0.682680
H269	H	-0.161199	-0.026585	0.161535
H270	H	0.338801	0.473415	0.661535
H271	H	-0.158245	-0.074801	0.204007
H272	H	0.341755	0.425199	0.704007
H273	H	-0.345949	0.661364	0.801759
H274	H	0.154051	1.161364	1.301759
N275	N	-0.354808	0.652504	0.695493
N276	N	0.145192	1.152504	1.195493
H277	H	-0.379050	0.673728	0.672842
H278	H	0.120950	1.173728	1.172842
H279	H	-0.333527	0.628293	0.672864
H280	H	0.166473	1.128293	1.172864
H281	H	-0.953392	0.694883	0.312656
H282	H	-0.453392	1.194883	0.812656
H283	H	-0.312619	0.694798	0.451550
H284	H	0.187381	1.194798	0.951550
N285	N	-0.321574	0.563669	0.321348
N286	N	0.178426	1.063669	0.821348
H287	H	-0.342788	0.538085	0.342495
H288	H	0.157212	1.038085	0.842495
H289	H	-0.300329	0.586350	0.345580
H290	H	0.199671	1.086350	0.845580
N291	N	-0.321578	0.450180	0.321376
N292	N	0.178422	0.950180	0.821376
H293	H	-0.342789	0.475767	0.342511
H294	H	0.157211	0.975767	0.842511
H295	H	-0.345745	0.427502	0.300053
H296	H	0.154255	0.927502	0.800053
H297	H	-0.801275	0.661376	0.346049
H298	H	-0.301275	1.161376	0.846049
H299	H	-0.157734	0.206233	0.158106
H300	H	0.342266	0.706233	0.658106
H301	H	-0.157721	0.305283	0.158103
H302	H	0.342279	0.805283	0.658103
H303	H	-0.312597	0.694809	0.550617
H304	H	0.187403	1.194809	1.050617
H305	H	-1.052391	0.816333	0.191464
H306	H	-0.552391	1.316333	0.691464
N307	N	-0.148972	0.858556	0.695567
N308	N	0.351028	1.358556	1.195567
H309	H	-0.127789	0.879753	0.721161
H310	H	0.372211	1.379753	1.221161
H311	H	-0.124776	0.837290	0.672910
H312	H	0.375224	1.337290	1.172910
N313	N	-0.182369	0.450166	0.182612
N314	N	0.317631	0.950166	0.682612
H315	H	-0.161156	0.475749	0.161464
H316	H	0.338844	0.975749	0.661464
H317	H	-0.158203	0.427538	0.203943
H318	H	0.341797	0.927538	0.703943
N319	N	-0.182358	0.563667	0.182599
N320	N	0.317642	1.063667	0.682599
H321	H	-0.187439	0.602399	0.187662
H322	H	0.312561	1.102399	0.687662
H323	H	-0.145030	0.554148	0.190809
H324	H	0.354970	1.054148	0.690809
H325	H	-0.346225	0.305272	0.345950
H326	H	0.153775	0.805272	0.845950
N327	N	-0.148936	0.858564	0.809049
N328	N	0.351064	1.358564	1.309049
H329	H	-0.127766	0.879754	0.783468
H330	H	0.372234	1.379754	1.283468
H331	H	-0.170212	0.882752	0.831708
H332	H	0.329788	1.382752	1.331708
H333	H	-0.450979	0.816111	0.191392
H334	H	0.049021	1.316111	0.691392
H335	H	-1.052442	0.694912	0.312659
H336	H	-0.552442	1.194912	0.812659
H337	H	-0.191174	0.816288	0.953941
H338	H	0.308826	1.316288	1.453941
H339	H	-0.550105	0.694738	0.312613
H340	H	-0.050105	1.194738	0.812613
H341	H	-0.550030	0.816159	0.191408
H342	H	-0.050030	1.316159	0.691408
H343	H	-0.702137	0.849670	0.158024
H344	H	-0.202137	1.349670	0.658024
H345	H	-0.346229	0.206227	0.345967
H346	H	0.153771	0.706227	0.845967
H347	H	-0.702225	0.661350	0.346042
H348	H	-0.202225	1.161350	0.846042
N349	N	-0.443829	0.685850	0.321420
N350	N	0.056171	1.185850	0.821420
H351	H	-0.405094	0.690917	0.316344
H352	H	0.094906	1.190917	0.816344
H353	H	-0.453346	0.693966	0.358772
H354	H	0.046654	1.193966	0.858772
N355	N	-0.182314	0.825145	1.060222
N356	N	0.317686	1.325145	1.560222
H357	H	-0.187380	0.820069	1.098954
H358	H	0.312620	1.320069	1.598954
H359	H	-0.144974	0.817034	1.050681
H360	H	0.355026	1.317034	1.550681
N361	N	-0.321306	0.686040	1.060171
N362	N	0.178694	1.186040	1.560171
H363	H	-0.342489	0.664841	1.034579
H364	H	0.157511	1.164841	1.534579
H365	H	-0.300016	0.661860	1.082821
H366	H	0.199984	1.161860	1.582821
