data_functionalizedCrystal
_audit_creation_method	'MofGen! by Chris Wilmer'
_symmetry_space_group_name_H-M	'P1'
_symmetry_Int_Tables_number	1
_symmetry_cell_setting	triclinic
loop_
_symmetry_equiv_pos_as_xyz
  x,y,z
_cell_length_a	11.169416
_cell_length_b	11.169417
_cell_length_c	17.077396
_cell_angle_alpha	90.018074
_cell_angle_beta	89.977334
_cell_angle_gamma	89.991438
loop_
_atom_site_label
_atom_site_type_symbol
_atom_site_fract_x
_atom_site_fract_y
_atom_site_fract_z
Zn1	Zn	-0.477864	-1.834920	-0.443845
Zn2	Zn	-0.678576	-1.834822	-0.312592
Zn3	Zn	-0.477899	-1.634218	-0.312596
Zn4	Zn	-0.678498	-1.634213	-0.443819
O5	O	-0.578209	-1.734543	-0.378213
O6	O	-0.504507	-2.002857	-0.426443
O7	O	-0.652003	-1.808172	-0.202745
O8	O	-0.309945	-1.660885	-0.330019
O9	O	-0.651969	-2.002785	-0.330012
O10	O	-0.309919	-1.808340	-0.426447
O11	O	-0.504567	-1.660790	-0.202748
O12	O	-0.504491	-1.466268	-0.329994
O13	O	-0.651836	-1.660876	-0.553669
O14	O	-0.651870	-1.466264	-0.426403
O15	O	-0.504431	-1.808335	-0.553688
O16	O	-0.846515	-1.808168	-0.329987
O17	O	-0.846458	-1.660781	-0.426399
C18	C	-0.578177	-1.422719	-0.378196
C19	C	-0.578191	-1.289319	-0.378208
C20	C	-0.890034	-1.734496	-0.378207
C21	C	-1.023434	-1.734585	-0.378230
C22	C	-0.265167	-1.734624	-0.378236
C23	C	-0.131767	-1.734658	-0.378246
C24	C	-0.578121	-1.734616	-0.582957
C25	C	-0.578083	-1.734647	-0.670207
C26	C	-0.578231	-1.047586	-0.378225
C27	C	-0.578211	-1.180986	-0.378216
C28	C	-0.501323	-1.811431	-0.711208
C29	C	-0.501283	-1.811446	-0.793189
C30	C	-0.578010	-1.734681	-0.834166
C31	C	-0.654773	-1.657888	-0.793159
C32	C	-0.654806	-1.657869	-0.711180
C33	C	-0.654701	-1.657936	-0.964030
C34	C	-0.654670	-1.657957	-1.046014
C35	C	-0.501178	-1.811514	-1.046038
C36	C	-0.501211	-1.811494	-0.964059
C37	C	-0.577976	-1.734702	-0.923057
C38	C	-0.578211	-1.734540	-0.174265
C39	C	-0.577910	-1.734742	-0.087015
H40	H	-0.438847	-1.873946	-0.677850
Cl41	Cl	-0.751206	-1.561395	-0.912486
Cl42	Cl	-0.404675	-1.908053	-1.097582
H43	H	-0.717145	-1.595446	-1.079376
H44	H	-0.717241	-1.595381	-0.826530
Cl45	Cl	-0.751305	-1.561332	-0.659636
H46	H	-0.438740	-1.874009	-0.930697
Cl47	Cl	-0.404833	-1.908032	-0.844730
