data_functionalizedCrystal
_audit_creation_method	'MofGen! by Chris Wilmer'
_symmetry_space_group_name_H-M	'P1'
_symmetry_Int_Tables_number	1
_symmetry_cell_setting	triclinic
loop_
_symmetry_equiv_pos_as_xyz
  x,y,z
_cell_length_a	14.044220
_cell_length_b	14.421503
_cell_length_c	14.044209
_cell_angle_alpha	90.001982
_cell_angle_beta	86.811584
_cell_angle_gamma	90.003446
loop_
_atom_site_label
_atom_site_type_symbol
_atom_site_fract_x
_atom_site_fract_y
_atom_site_fract_z
O1	O	1.277171	0.077023	-0.230155
O2	O	1.777171	0.577023	0.269845
O3	O	1.000499	0.077047	-0.221849
O4	O	1.500499	0.577047	0.278151
O5	O	1.134683	0.077022	-0.087666
O6	O	1.634683	0.577022	0.412334
O7	O	1.142987	0.077048	-0.364338
O8	O	1.642987	0.577048	0.135662
O9	O	1.134661	-0.077201	-0.087686
O10	O	1.634661	0.422799	0.412314
O11	O	1.000477	-0.077177	-0.221869
O12	O	1.500477	0.422823	0.278131
O13	O	1.277148	-0.077200	-0.230175
O14	O	1.777148	0.422800	0.269825
Cu15	Cu	1.138811	-0.091270	-0.226024
Cu16	Cu	1.638811	0.408730	0.273976
Cu17	Cu	1.138837	0.091117	-0.226000
Cu18	Cu	1.638837	0.591117	0.274000
O19	O	1.142964	-0.077176	-0.364358
O20	O	1.642964	0.422824	0.135642
C21	C	0.964866	-0.000062	-0.218223
C22	C	1.464866	0.499938	0.281777
C23	C	0.858724	-0.000054	-0.207379
C24	C	1.358724	0.499946	0.292621
N25	N	1.138799	-0.219552	-0.226040
N26	N	1.638799	0.280448	0.273960
C27	C	0.664386	-0.000074	-0.187553
C28	C	1.164386	0.499926	0.312447
C29	C	0.613256	-0.000071	-0.264467
C30	C	1.113256	0.499929	0.235533
C31	C	0.505120	-0.000082	-0.253435
C32	C	1.005120	0.499918	0.246565
C33	C	0.772532	-0.000063	-0.198583
C34	C	1.272532	0.499937	0.301417
C35	C	1.076738	-0.469194	-0.288055
C36	C	1.576738	0.030806	0.211945
C37	C	1.164571	-0.531002	-0.313879
C38	C	1.664571	-0.031002	0.186121
C39	C	1.138820	-0.408713	-0.226019
C40	C	1.638820	0.091287	0.273981
C41	C	1.051011	-0.530999	-0.200219
C42	C	1.551011	-0.030999	0.299781
C43	C	1.138833	-0.591434	-0.226001
C44	C	1.638833	-0.091434	0.273999
C45	C	1.226701	-0.469160	-0.251890
C46	C	1.726701	0.030840	0.248110
C47	C	1.113080	-0.469152	-0.138188
C48	C	1.613080	0.030848	0.361812
C49	C	1.200973	-0.530932	-0.163981
C50	C	1.700973	-0.030932	0.336019
C51	C	1.138811	-0.303452	-0.226032
C52	C	1.638811	0.196548	0.273968
C53	C	1.138852	-0.696693	-0.225988
C54	C	1.638852	-0.196693	0.274012
C55	C	1.312781	-0.000089	-0.233800
C56	C	1.812781	0.499911	0.266200
C57	C	1.418924	-0.000091	-0.244645
C58	C	1.918924	0.499909	0.255355
C59	C	1.131037	-0.000091	-0.052054
C60	C	1.631037	0.499909	0.447946
C61	C	1.120193	-0.000094	0.054088
C62	C	1.620193	0.499906	0.554088
N63	N	1.138856	0.219398	-0.225977
N64	N	1.638856	0.719398	0.274023
C65	C	1.100368	-0.000085	0.248426
C66	C	1.600368	0.499915	0.748426
C67	C	1.177283	-0.000090	0.299556
C68	C	1.677283	0.499910	0.799556
C69	C	1.166252	-0.000085	0.407692
C70	C	1.666252	0.499915	0.907692
C71	C	1.111398	-0.000090	0.140280
C72	C	1.611398	0.499910	0.640280
C73	C	1.146613	-0.000068	0.600030
C74	C	1.646613	0.499932	1.100030
C75	C	1.157463	-0.000080	0.493888
C76	C	1.657463	0.499920	0.993888
H77	H	0.650694	-0.000060	-0.338601
H78	H	1.150694	0.499940	0.161399
H79	H	1.186354	-0.558169	-0.388149
H80	H	1.686354	-0.058169	0.111851
H81	H	1.253542	-0.557869	-0.111513
H82	H	1.753542	-0.057869	0.388487
N83	N	1.002173	-0.000090	0.298005
N84	N	1.502173	0.499910	0.798005
H85	H	0.966309	0.057079	0.278952
H86	H	1.466309	0.557079	0.778952
H87	H	1.008191	-0.000127	0.369331
H88	H	1.508191	0.499873	0.869331
H89	H	1.091272	-0.441963	-0.063940
H90	H	1.591272	0.058037	0.436060
H91	H	0.626950	-0.000086	-0.113425
H92	H	1.126950	0.499914	0.386575
H93	H	0.976746	-0.558165	-0.178407
H94	H	1.476746	-0.058165	0.321593
H95	H	1.024299	-0.442087	-0.340567
H96	H	1.524299	0.057913	0.159433
N97	N	1.275487	-0.000108	0.249980
N98	N	1.775487	0.499892	0.749980
H99	H	1.283502	0.057058	0.208769
H100	H	1.783502	0.557058	0.708769
H101	H	1.283410	-0.057321	0.208829
H102	H	1.783410	0.442679	0.708829
N103	N	1.325108	-0.433342	-0.280896
N104	N	1.825108	0.066658	0.219104
H105	H	1.324490	-0.363311	-0.280751
H106	H	1.824490	0.136689	0.219249
H107	H	1.344636	-0.456454	-0.347006
H108	H	1.844636	0.043546	0.152994
