data_functionalizedCrystal
_audit_creation_method	'MofGen! by Chris Wilmer'
_symmetry_space_group_name_H-M	'P1'
_symmetry_Int_Tables_number	1
_symmetry_cell_setting	triclinic
loop_
_symmetry_equiv_pos_as_xyz
  x,y,z
_cell_length_a	17.000371
_cell_length_b	16.956995
_cell_length_c	16.053802
_cell_angle_alpha	92.373609
_cell_angle_beta	87.622785
_cell_angle_gamma	75.826860
loop_
_atom_site_label
_atom_site_type_symbol
_atom_site_fract_x
_atom_site_fract_y
_atom_site_fract_z
O1	O	1.057799	0.025257	-0.069432
O2	O	1.557799	0.525257	0.430568
O3	O	0.824153	0.054331	-0.069433
O4	O	1.324153	0.554331	0.430567
O5	O	0.955012	-0.077268	-0.069429
O6	O	1.455012	0.422732	0.430571
O7	O	0.926940	0.156857	-0.069436
O8	O	1.426940	0.656857	0.430564
O9	O	0.947811	-0.070053	0.069430
O10	O	1.447811	0.429947	0.569430
O11	O	0.816953	0.061547	0.069426
O12	O	1.316953	0.561547	0.569426
O13	O	1.050598	0.032473	0.069426
O14	O	1.550598	0.532473	0.569426
Zn15	Zn	0.932632	0.048155	0.091473
Zn16	Zn	1.432632	0.548155	0.591473
Zn17	Zn	0.942120	0.038648	-0.091479
Zn18	Zn	1.442120	0.538648	0.408521
O19	O	0.919739	0.164072	0.069423
O20	O	1.419739	0.664072	0.569423
C21	C	0.790797	0.059501	-0.000003
C22	C	1.290797	0.559501	0.499997
C23	C	0.702132	0.064145	-0.000003
C24	C	1.202132	0.564145	0.499997
C25	C	0.674808	-0.007316	0.000000
C26	C	1.174808	0.492684	0.500000
C27	C	0.591498	-0.002949	-0.000006
C28	C	1.091498	0.497051	0.499994
C29	C	0.535513	0.072881	-0.000010
C30	C	1.035513	0.572881	0.499990
C31	C	0.562843	0.144347	-0.000016
C32	C	1.062843	0.644347	0.499984
C33	C	0.646152	0.139979	-0.000016
C34	C	1.146152	0.639979	0.499984
C35	C	0.283258	0.089756	-0.000016
C36	C	0.783258	0.589756	0.499984
C37	C	0.199944	0.094120	-0.000013
C38	C	0.699944	0.594120	0.499987
C39	C	0.228605	-0.053177	-0.000005
C40	C	0.728605	0.446823	0.499995
C41	C	0.311914	-0.057539	-0.000000
C42	C	0.811914	0.442461	0.500000
C43	C	0.339236	0.013927	-0.000011
C44	C	0.839236	0.513927	0.499989
C45	C	0.450357	0.077348	-0.000013
C46	C	0.950357	0.577348	0.499987
C47	C	0.424392	0.009460	-0.000013
C48	C	0.924392	0.509460	0.499987
C49	C	0.952849	-0.103469	-0.000001
C50	C	1.452849	0.396531	0.499999
C51	C	0.957122	-0.192290	-0.000004
C52	C	1.457122	0.307710	0.499996
C53	C	1.083955	0.027303	-0.000005
C54	C	1.583955	0.527303	0.499995
C55	C	1.172619	0.022659	-0.000010
C56	C	1.672619	0.522659	0.499990
C57	C	0.989090	-0.693832	-0.000007
C58	C	1.489090	-0.193832	0.499993
C59	C	0.985069	-0.610374	-0.000002
C60	C	1.485069	-0.110374	0.499998
C61	C	0.909586	-0.553994	-0.000006
C62	C	1.409586	-0.053994	0.499994
C63	C	0.838120	-0.581073	-0.000006
C64	C	1.338120	-0.081073	0.499994
C65	C	0.842142	-0.664529	-0.000005
C66	C	1.342142	-0.164529	0.499995
C67	C	0.889678	-0.302825	-0.000003
C68	C	1.389678	0.197175	0.499997
C69	C	0.885661	-0.219365	-0.000007
C70	C	1.385661	0.280635	0.499993
C71	C	1.032611	-0.248671	-0.000001
C72	C	1.532611	0.251329	0.499999
C73	C	1.036627	-0.332128	-0.000005
C74	C	1.536627	0.167872	0.499995
C75	C	0.965160	-0.359200	-0.000001
C76	C	1.465160	0.140800	0.499999
N77	N	0.905473	-0.468686	-0.000003
N78	N	1.405473	0.031314	0.499997
N79	N	0.969273	-0.444505	0.000003
N80	N	1.469273	0.055495	0.500003
C81	C	0.921903	0.190273	-0.000007
C82	C	1.421903	0.690273	0.499993
C83	C	0.917630	0.279093	-0.000010
C84	C	1.417630	0.779093	0.499990
N85	N	0.926163	0.054643	0.216333
N86	N	1.426163	0.554643	0.716333
N87	N	0.948595	0.032154	-0.216339
N88	N	1.448595	0.532154	0.283661
C89	C	0.981861	-0.001336	0.260029
C90	C	1.481861	0.498664	0.760029
C91	C	0.977343	0.003209	0.347435
C92	C	1.477343	0.503209	0.847435
C93	C	0.917129	0.063737	0.391145
C94	C	1.417129	0.563737	0.891145
C95	C	0.861425	0.119719	0.347443
C96	C	1.361425	0.619719	0.847443
C97	C	0.865940	0.115169	0.260038
C98	C	1.365940	0.615169	0.760038
C99	C	0.897407	0.083586	0.652554
C100	C	1.397407	0.583586	1.152554
C101	C	0.892897	0.088133	0.739965
C102	C	1.392897	0.588133	1.239965
C103	C	1.008814	-0.028378	0.739951
C104	C	1.508814	0.471622	1.239951
C105	C	1.013328	-0.032919	0.652544
C106	C	1.513328	0.467081	1.152544
C107	C	0.957621	0.023060	0.608850
C108	C	1.457621	0.523060	1.108850
N109	N	0.912511	0.068386	0.480489
N110	N	1.412511	0.568386	0.980489
N111	N	0.962236	0.018407	0.519508
N112	N	1.462236	0.518407	1.019508
H113	H	0.154361	0.155873	-0.000012
H114	H	0.654361	0.655873	0.499988
H115	H	0.668396	0.198170	-0.000015
H116	H	1.168396	0.698170	0.499985
Br117	Br	0.500372	-0.093449	-0.000014
Br118	Br	1.000372	0.406551	0.499986
Br119	Br	1.082057	-0.573634	-0.000018
Br120	Br	1.582057	-0.073634	0.499982
H121	H	0.852049	0.129168	0.616985
H122	H	1.352049	0.629168	1.116985
H123	H	0.305493	0.147949	-0.000030
H124	H	0.805493	0.647949	0.499970
Br125	Br	0.790341	0.191139	0.200737
Br126	Br	1.290341	0.691139	0.700737
Br127	Br	0.783213	-0.142847	-0.000011
Br128	Br	1.283213	0.357153	0.499989
Br129	Br	1.139072	-0.408640	0.000001
Br130	Br	1.639072	0.091360	0.500001
H131	H	0.569256	-0.061140	-0.000004
H132	H	1.069256	0.438860	0.499996
Br133	Br	0.374372	0.180257	-0.000022
Br134	Br	0.874372	0.680257	0.499978
Br135	Br	1.063590	-0.083480	0.200718
Br136	Br	1.563590	0.416520	0.700718
H137	H	1.022696	-0.042373	0.383012
H138	H	1.522696	0.457627	0.883012
Br139	Br	0.486865	0.247260	-0.000032
Br140	Br	0.986865	0.747260	0.499968
H141	H	1.050557	-0.739733	-0.000010
H142	H	1.550557	-0.239733	0.499990
H143	H	0.720386	-0.069065	0.000006
H144	H	1.220386	0.430935	0.500006
H145	H	0.831486	-0.324857	-0.000010
H146	H	1.331486	0.175143	0.499990
Br147	Br	0.387888	-0.160454	0.000015
Br148	Br	0.887888	0.339546	0.500015
H149	H	1.062358	-0.082205	0.616958
H150	H	1.562358	0.417795	1.116958
Br151	Br	0.191520	-0.150161	0.000006
Br152	Br	0.691520	0.349839	0.500006
H153	H	1.090796	-0.226620	-0.000010
H154	H	1.590796	0.273380	0.499990
H155	H	0.776659	-0.535161	-0.000005
H156	H	1.276659	-0.035161	0.499995
H157	H	0.783950	-0.686571	-0.000001
H158	H	1.283950	-0.186571	0.499999
Br159	Br	0.779699	0.201860	0.406760
Br160	Br	1.279699	0.701860	0.906760
H161	H	1.054167	-0.073954	0.775535
H162	H	1.554167	0.426046	1.275535
Br163	Br	0.811174	0.170289	0.799280
Br164	Br	1.311174	0.670289	1.299280
