data_functionalizedCrystal
_audit_creation_method	'MofGen! by Chris Wilmer'
_symmetry_space_group_name_H-M	'P1'
_symmetry_Int_Tables_number	1
_symmetry_cell_setting	triclinic
loop_
_symmetry_equiv_pos_as_xyz
  x,y,z
_cell_length_a	16.120490
_cell_length_b	29.839131
_cell_length_c	16.120297
_cell_angle_alpha	87.139604
_cell_angle_beta	89.870317
_cell_angle_gamma	87.127008
loop_
_atom_site_label
_atom_site_type_symbol
_atom_site_fract_x
_atom_site_fract_y
_atom_site_fract_z
Zn1	Zn	1.247365	-0.227636	0.534445
Zn2	Zn	1.747365	0.272364	1.034445
Zn3	Zn	1.254290	-0.299152	0.395359
Zn4	Zn	1.754290	0.200848	0.895359
Zn5	Zn	1.115357	-0.220041	0.388369
Zn6	Zn	1.615357	0.279959	0.888369
Zn7	Zn	1.108246	-0.298734	0.527332
Zn8	Zn	1.608246	0.201266	1.027332
O9	O	1.181315	-0.261391	0.461376
O10	O	1.681315	0.238609	0.961376
O11	O	1.364649	-0.240476	0.521897
O12	O	1.864649	0.259524	1.021897
O13	O	1.241735	-0.285654	0.278067
O14	O	1.741735	0.214346	0.778067
O15	O	1.132947	-0.158185	0.407798
O16	O	1.632947	0.341815	0.907798
O17	O	1.369737	-0.293019	0.419711
O18	O	1.869737	0.206981	0.919711
O19	O	1.229932	-0.163765	0.515119
O20	O	1.729932	0.336235	1.015119
O21	O	1.139661	-0.227531	0.272932
O22	O	1.639661	0.272469	0.772932
O23	O	0.998048	-0.227126	0.400900
O24	O	1.498048	0.272874	0.900900
O25	O	1.120826	-0.292307	0.644639
O26	O	1.620826	0.207693	1.144639
O27	O	0.992823	-0.284942	0.502996
O28	O	1.492823	0.215058	1.002996
O29	O	1.223036	-0.240071	0.649865
O30	O	1.723036	0.259929	1.149865
O31	O	1.234839	-0.361961	0.412813
O32	O	1.734839	0.138039	0.912813
O33	O	1.127541	-0.361653	0.509773
O34	O	1.627541	0.138347	1.009773
C35	C	0.965264	-0.255165	0.450418
C36	C	1.465264	0.244835	0.950418
C37	C	0.872835	-0.252513	0.445750
C38	C	1.372835	0.247487	0.945750
C39	C	1.181191	-0.378108	0.461299
C40	C	1.681191	0.121892	0.961299
C41	C	1.181213	-0.428043	0.461298
C42	C	1.681213	0.071957	0.961298
C43	C	0.659865	-0.275145	0.485591
C44	C	1.159865	0.224855	0.985591
C45	C	0.703612	-0.247674	0.437226
C46	C	1.203612	0.252326	0.937226
C47	C	0.797776	-0.250367	0.441971
C48	C	1.297776	0.249633	0.941971
C49	C	0.565692	-0.272453	0.480848
C50	C	1.065692	0.227547	0.980848
C51	C	1.231799	-0.740564	0.517333
C52	C	1.731799	-0.240564	1.017333
C53	C	1.231887	-0.928240	0.517388
C54	C	1.731887	-0.428240	1.017388
O55	O	1.274776	-0.954947	0.564972
O56	O	1.774776	-0.454947	1.064972
N57	N	1.181451	-0.948839	0.461475
N58	N	1.681451	-0.448839	0.961475
C59	C	1.130985	-0.922516	0.405549
C60	C	1.630985	-0.422516	0.905549
O61	O	1.088082	-0.944343	0.357999
O62	O	1.588082	-0.444343	0.857999
C63	C	1.130894	-0.734840	0.405499
C64	C	1.630894	-0.234840	0.905499
C65	C	1.181340	-0.714244	0.461409
C66	C	1.681340	-0.214244	0.961409
C67	C	1.282240	-0.719967	0.573240
C68	C	1.782240	-0.219967	1.073240
C69	C	1.282221	-0.673051	0.573223
C70	C	1.782221	-0.173051	1.073223
C71	C	1.231761	-0.646731	0.517299
C72	C	1.731761	-0.146731	1.017299
C73	C	1.181320	-0.667327	0.461392
C74	C	1.681320	-0.167327	0.961392
C75	C	1.080424	-0.708517	0.349577
C76	C	1.580424	-0.208517	0.849577
C77	C	1.080404	-0.661595	0.349571
C78	C	1.580404	-0.161595	0.849571
C79	C	1.130850	-0.640999	0.405481
C80	C	1.630850	-0.140999	0.905481
C81	C	1.130841	-0.594091	0.405451
C82	C	1.630841	-0.094091	0.905451
N83	N	1.181278	-0.573492	0.461364
N84	N	1.681278	-0.073492	0.961364
C85	C	1.231737	-0.599812	0.517287
C86	C	1.731737	-0.099812	1.017287
C87	C	1.131038	-1.021049	0.405578
C88	C	1.631038	-0.521049	0.905578
C89	C	1.131062	-1.067967	0.405589
C90	C	1.631062	-0.567967	0.905589
C91	C	1.231963	-1.073689	0.517429
C92	C	1.731963	-0.573689	1.017429
C93	C	1.231943	-1.026769	0.517413
C94	C	1.731943	-0.526769	1.017413
C95	C	1.181474	-1.000450	0.461490
C96	C	1.681474	-0.500450	0.961490
C97	C	1.231694	-0.501284	0.517247
C98	C	1.731694	-0.001284	1.017247
C99	C	1.231673	-0.454363	0.517222
C100	C	1.731673	0.045637	1.017222
C101	C	1.130769	-0.448646	0.405385
C102	C	1.630769	0.051354	0.905385
C103	C	1.130793	-0.495562	0.405406
C104	C	1.630793	0.004438	0.905406
C105	C	1.181258	-0.521881	0.461344
C106	C	1.681258	-0.021881	0.961344
O107	O	1.087968	-0.567357	0.357898
O108	O	1.587968	-0.067357	0.857898
O109	O	1.274621	-0.577976	0.564843
O110	O	1.774621	-0.077976	1.064843
C111	C	1.231819	-0.787480	0.517350
C112	C	1.731819	-0.287480	1.017350
C113	C	1.181378	-0.808076	0.461444
C114	C	1.681378	-0.308076	0.961444
C115	C	1.130918	-0.781757	0.405520
C116	C	1.630918	-0.281757	0.905520
C117	C	1.181402	-0.854995	0.461455
C118	C	1.681402	-0.354995	0.961455
C119	C	1.231861	-0.881315	0.517379
C120	C	1.731861	-0.381315	1.017379
C121	C	1.282297	-0.860716	0.573291
C122	C	1.782297	-0.360716	1.073291
C123	C	1.282278	-0.813800	0.573274
C124	C	1.782278	-0.313800	1.073274
C125	C	1.080482	-0.802355	0.349608
C126	C	1.580482	-0.302355	0.849608
C127	C	1.080506	-0.849272	0.349629
C128	C	1.580506	-0.349272	0.849629
C129	C	1.130966	-0.875592	0.405553
C130	C	1.630966	-0.375592	0.905553
C131	C	1.398209	-0.267642	0.472377
C132	C	1.898209	0.232358	0.972377
C133	C	1.490637	-0.270305	0.477065
C134	C	1.990637	0.229695	0.977065
C135	C	1.170365	-0.266989	0.678268
C136	C	1.670365	0.233011	1.178268
C137	C	1.165699	-0.269375	0.770695
C138	C	1.665699	0.230625	1.270695
C139	C	1.181460	-0.144219	0.461472
C140	C	1.681460	0.355781	0.961472
C141	C	1.181522	-0.094287	0.461513
C142	C	1.681522	0.405713	0.961513
C143	C	1.192269	-0.255783	0.245330
C144	C	1.692269	0.244217	0.745330
C145	C	1.197096	-0.253275	0.152912
C146	C	1.697096	0.246725	0.652912
C147	C	1.157150	-0.273720	0.939918
C148	C	1.657150	0.226280	1.439918
C149	C	1.205643	-0.248932	0.983694
C150	C	1.705643	0.251068	1.483694
C151	C	1.200886	-0.251349	1.077856
C152	C	1.700886	0.248651	1.577856
C153	C	1.161906	-0.271303	0.845748
C154	C	1.661906	0.228697	1.345748
H155	H	0.670345	-0.222134	0.392257
H156	H	1.170345	0.277866	0.892257
N157	N	0.703919	-0.308980	0.545147
N158	N	1.203919	0.191020	1.045147
H159	H	0.738038	-0.292766	0.585531
H160	H	1.238038	0.207234	1.085531
H161	H	0.741596	-0.329893	0.512984
H162	H	1.241596	0.170107	1.012984
N163	N	1.286085	-0.432149	0.577527
N164	N	1.786085	0.067851	1.077527
H165	H	1.318050	-0.455944	0.612957
H166	H	1.818050	0.044056	1.112957
H167	H	1.250256	-0.412703	0.614257
H168	H	1.750256	0.087297	1.114257
N169	N	1.286113	-0.529666	0.577586
N170	N	1.786113	-0.029666	1.077586
H171	H	1.318058	-0.509492	0.612997
H172	H	1.818058	-0.009492	1.112997
H173	H	1.326344	-0.549363	0.545739
H174	H	1.826344	-0.049363	1.045739
H175	H	1.039390	-0.780929	0.304069
H176	H	1.539390	-0.280929	0.804069
N177	N	1.336624	-0.650839	0.633532
N178	N	1.836624	-0.150839	1.133532
H179	H	1.368585	-0.674638	0.668960
H180	H	1.868585	-0.174638	1.168960
H181	H	1.300790	-0.631397	0.670264
H182	H	1.800790	-0.131397	1.170264
H183	H	1.112066	-0.296757	0.973155
H184	H	1.612066	0.203243	1.473155
H185	H	1.250731	-0.225893	0.950455
H186	H	1.750731	0.274107	1.450455
H187	H	1.273019	-1.010003	0.562941
H188	H	1.773019	-0.510003	1.062941
N189	N	1.336647	-0.748351	0.633583
N190	N	1.836647	-0.248351	1.133583
H191	H	1.368585	-0.728176	0.668998
H192	H	1.868585	-0.228176	1.168998
H193	H	1.376884	-0.768049	0.601746
H194	H	1.876884	-0.268049	1.101746
H195	H	1.089994	-1.084733	0.360053
H196	H	1.589994	-0.584733	0.860053
N197	N	1.286387	-1.102073	0.577762
N198	N	1.786387	-0.602073	1.077762
H199	H	1.326670	-1.121773	0.545974
H200	H	1.826670	-0.621773	1.045974
H201	H	1.250560	-1.121535	0.614541
H202	H	1.750560	-0.621535	1.114541
N203	N	1.076606	-0.992664	0.345253
N204	N	1.576606	-0.492664	0.845253
H205	H	1.044666	-1.012837	0.309836
H206	H	1.544666	-0.512837	0.809836
H207	H	1.112420	-0.973176	0.308510
H208	H	1.612420	-0.473176	0.808510
N209	N	1.026016	-0.730724	0.289271
N210	N	1.526016	-0.230724	0.789271
H211	H	0.994048	-0.706925	0.253851
H212	H	1.494048	-0.206925	0.753851
H213	H	0.985805	-0.749963	0.321140
H214	H	1.485805	-0.249963	0.821140
H215	H	1.089723	-0.512333	0.359873
H216	H	1.589723	-0.012333	0.859873
N217	N	1.025973	-0.633206	0.289253
N218	N	1.525973	-0.133206	0.789253
H219	H	0.965903	-0.640017	0.299110
H220	H	1.465903	-0.140017	0.799110
H221	H	1.042007	-0.640236	0.230536
H222	H	1.542007	-0.140236	0.730536
N223	N	1.076352	-0.420253	0.345065
N224	N	1.576352	0.079747	0.845065
H225	H	1.083997	-0.387406	0.353545
H226	H	1.583997	0.112594	0.853545
H227	H	1.016304	-0.427099	0.354950
H228	H	1.516304	0.072901	0.854950
H229	H	1.323356	-0.797034	0.618802
H230	H	1.823356	-0.297034	1.118802
H231	H	1.323387	-0.882154	0.618824
H232	H	1.823387	-0.382154	1.118824
H233	H	1.039428	-0.866037	0.304092
H234	H	1.539428	-0.366037	0.804092
