data_functionalizedCrystal
_audit_creation_method	'MofGen! by Chris Wilmer'
_symmetry_space_group_name_H-M	'P1'
_symmetry_Int_Tables_number	1
_symmetry_cell_setting	triclinic
loop_
_symmetry_equiv_pos_as_xyz
  x,y,z
_cell_length_a	18.101395
_cell_length_b	12.759401
_cell_length_c	12.759393
_cell_angle_alpha	90.022497
_cell_angle_beta	89.967630
_cell_angle_gamma	89.968074
loop_
_atom_site_label
_atom_site_type_symbol
_atom_site_fract_x
_atom_site_fract_y
_atom_site_fract_z
Zn1	Zn	-0.294778	-1.606147	-0.594050
Zn2	Zn	0.205222	-1.106147	-0.094050
Zn3	Zn	-0.418637	-1.605987	-0.418364
Zn4	Zn	0.081363	-1.105987	0.081636
Zn5	Zn	-0.294815	-1.430445	-0.418380
Zn6	Zn	0.205185	-0.930445	0.081620
Zn7	Zn	-0.418584	-1.430387	-0.593997
Zn8	Zn	0.081416	-0.930387	-0.093997
O9	O	-0.356703	-1.518242	-0.506198
O10	O	0.143297	-1.018242	-0.006198
O11	O	-0.311214	-1.753147	-0.570761
O12	O	0.188786	-1.253147	-0.070761
O13	O	-0.402250	-1.582659	-0.271345
O14	O	0.097750	-1.082659	0.228655
O15	O	-0.191177	-1.453844	-0.441712
O16	O	0.308823	-0.953844	0.058288
O17	O	-0.402213	-1.753030	-0.441685
O18	O	0.097787	-1.253030	0.058315
O19	O	-0.191150	-1.582931	-0.570776
O20	O	0.308850	-1.082931	-0.070776
O21	O	-0.311279	-1.453689	-0.271357
O22	O	0.188721	-0.953689	0.228643
O23	O	-0.311227	-1.283417	-0.441661
O24	O	0.188773	-0.783417	0.058339
O25	O	-0.402122	-1.453744	-0.741025
O26	O	0.097878	-0.953744	-0.241025
O27	O	-0.402159	-1.283374	-0.570685
O28	O	0.097841	-0.783374	-0.070685
O29	O	-0.311163	-1.582874	-0.741064
O30	O	0.188837	-1.082874	-0.241064
O31	O	-0.522263	-1.582603	-0.441633
O32	O	-0.022263	-1.082603	0.058367
O33	O	-0.522224	-1.453590	-0.570670
O34	O	-0.022224	-0.953590	-0.070670
C35	C	-0.356692	-1.245274	-0.506170
C36	C	0.143308	-0.745274	-0.006170
C37	C	-0.356705	-1.128498	-0.506183
C38	C	0.143295	-0.628498	-0.006183
C39	C	-0.404125	-1.073641	-0.573258
C40	C	0.095875	-0.573641	-0.073258
C41	C	-0.404127	-0.963917	-0.573276
C42	C	0.095873	-0.463917	-0.073276
C43	C	-0.309287	-0.963916	-0.439133
C44	C	0.190713	-0.463916	0.060867
C45	C	-0.309282	-1.073638	-0.439122
C46	C	0.190718	-0.573638	0.060878
C47	C	-0.549114	-1.518101	-0.506167
C48	C	-0.049114	-1.018101	-0.006167
C49	C	-0.631428	-1.518137	-0.506189
C50	C	-0.131428	-1.018137	-0.006189
C51	C	-0.930519	-1.518368	-0.506246
C52	C	-0.430519	-1.018368	-0.006246
C53	C	-0.899200	-1.437384	-0.587633
C54	C	-0.399200	-0.937384	-0.087633
C55	C	-0.813582	-1.436999	-0.587379
C56	C	-0.313582	-0.936999	-0.087379
C57	C	-0.782136	-1.518253	-0.506218
C58	C	-0.282136	-1.018253	-0.006218
C59	C	-0.813295	-1.488271	-0.395492
C60	C	-0.313295	-0.988271	0.104508
C61	C	-0.898940	-1.487748	-0.395979
C62	C	-0.398940	-0.987748	0.104021
C63	C	-0.898860	-1.629511	-0.534610
C64	C	-0.398860	-1.129511	-0.034610
C65	C	-0.813208	-1.628857	-0.537038
C66	C	-0.313208	-1.128857	-0.037038
C67	C	-0.698277	-1.518190	-0.506196
C68	C	-0.198277	-1.018190	-0.006196
C69	C	-1.014378	-1.518428	-0.506260
C70	C	-0.514378	-1.018428	-0.006260
C71	C	-0.163541	-1.518411	-0.506252
C72	C	0.336459	-1.018411	-0.006252
C73	C	-0.081227	-1.518484	-0.506275
C74	C	0.418773	-1.018484	-0.006275
C75	C	-0.356632	-1.518320	-0.780231
C76	C	0.143368	-1.018320	-0.280231
C77	C	-0.356602	-1.518354	-0.897008
C78	C	0.143398	-1.018354	-0.397008
C79	C	-0.356713	-0.792275	-0.506220
C80	C	0.143287	-0.292275	-0.006220
C81	C	-0.356712	-0.909051	-0.506212
C82	C	0.143288	-0.409051	-0.006212
C83	C	-0.309232	-1.585597	-0.951892
C84	C	0.190768	-1.085597	-0.451892
C85	C	-0.309200	-1.585614	-1.061616
C86	C	0.190800	-1.085614	-0.561616
C87	C	-0.403915	-1.451143	-1.061563
C88	C	0.096085	-0.951143	-0.561563
C89	C	-0.403942	-1.451121	-0.951841
C90	C	0.096058	-0.951121	-0.451841
C91	C	-0.356721	-1.518224	-0.233231
C92	C	0.143279	-1.018224	0.266769
C93	C	-0.356542	-1.518394	-0.116454
C94	C	0.143458	-1.018394	0.383546
H95	H	-0.270678	-0.919236	-0.384533
H96	H	0.229322	-0.419236	0.115467
H97	H	-0.442516	-1.396356	-0.907153
H98	H	0.057484	-0.896356	-0.407153
O99	O	-0.455314	-0.904814	-0.645618
O100	O	0.044686	-0.404814	-0.145618
H101	H	-0.422261	-0.854872	-0.699212
H102	H	0.077739	-0.354872	-0.199212
O103	O	-0.258133	-1.132802	-0.366760
O104	O	0.241867	-0.632802	0.133240
H105	H	-0.220486	-1.182834	-0.413870
H106	H	0.279514	-0.682834	0.086130
O107	O	-0.925505	-1.380135	-0.364155
O108	O	-0.425505	-0.880135	0.135845
H109	H	-0.904319	-1.321154	-0.420569
H110	H	-0.404319	-0.821154	0.079431
O111	O	-0.784853	-1.712996	-0.464220
O112	O	-0.284853	-1.212996	0.035780
H113	H	-0.753533	-1.772154	-0.510053
H114	H	-0.253533	-1.272154	-0.010053
H115	H	-0.791912	-1.407886	-0.371034
H116	H	-0.291912	-0.907886	0.128966
O117	O	-0.258172	-1.658104	-0.892745
O118	O	0.241828	-1.158104	-0.392745
H119	H	-0.200043	-1.640135	-0.913809
H120	H	0.299957	-1.140135	-0.413809
O121	O	-0.785663	-1.461766	-0.696147
O122	O	-0.285663	-0.961766	-0.196147
H123	H	-0.833334	-1.474131	-0.749404
H124	H	-0.333334	-0.974131	-0.249404
H125	H	-0.442738	-1.118304	-0.627866
H126	H	0.057262	-0.618304	-0.127866
H127	H	-0.270625	-1.640369	-1.106298
H128	H	0.229375	-1.140369	-0.606298
H129	H	-0.442459	-1.396407	-1.106221
H130	H	0.057541	-0.896407	-0.606221
O131	O	-0.925851	-1.709493	-0.456268
O132	O	-0.425851	-1.209493	0.043732
H133	H	-0.961620	-1.670338	-0.397389
H134	H	-0.461620	-1.170338	0.102611
H135	H	-0.919742	-1.455958	-0.670002
H136	H	-0.419742	-0.955958	-0.170002
O137	O	-0.927780	-1.328915	-0.563060
O138	O	-0.427780	-0.828915	-0.063060
H139	H	-0.964193	-1.332431	-0.493131
H140	H	-0.464193	-0.832431	0.006869
O141	O	-0.786521	-1.327885	-0.562465
O142	O	-0.286521	-0.827885	-0.062465
H143	H	-0.834607	-1.275190	-0.550543
H144	H	-0.334607	-0.775190	-0.050543
H145	H	-0.919661	-1.544174	-0.333271
H146	H	-0.419661	-1.044174	0.166729
O147	O	-0.786320	-1.563942	-0.312973
O148	O	-0.286320	-1.063942	0.187027
H149	H	-0.809120	-1.541023	-0.235508
H150	H	-0.309120	-1.041023	0.264492
H151	H	-0.792840	-1.651467	-0.618527
H152	H	-0.292840	-1.151467	-0.118527
O153	O	-0.927383	-1.665722	-0.639744
O154	O	-0.427383	-1.165722	-0.139744
H155	H	-0.964447	-1.604899	-0.672955
H156	H	-0.464447	-1.104899	-0.172955
