data_functionalizedCrystal
_audit_creation_method	'MofGen! by Chris Wilmer'
_symmetry_space_group_name_H-M	'P1'
_symmetry_Int_Tables_number	1
_symmetry_cell_setting	triclinic
loop_
_symmetry_equiv_pos_as_xyz
  x,y,z
_cell_length_a	6.817900
_cell_length_b	9.582860
_cell_length_c	10.992410
_cell_angle_alpha	90.912681
_cell_angle_beta	108.764651
_cell_angle_gamma	111.206767
loop_
_atom_site_label
_atom_site_type_symbol
_atom_site_fract_x
_atom_site_fract_y
_atom_site_fract_z
V1	V	-4.127214	-0.207056	-0.400358
O2	O	-4.071753	0.009950	-0.392979
O3	O	-4.117537	-0.410556	-0.397386
O4	O	-4.104607	-0.203871	-0.575074
O5	O	-4.084772	-0.198167	-0.214061
V6	V	-4.602483	-0.181099	-0.378103
O7	O	-4.406580	-0.263993	-0.449174
O8	O	-4.773314	-0.124162	-0.329287
O9	O	-4.388954	0.022402	-0.381075
O10	O	-4.775341	-0.398105	-0.385482
O11	O	-4.762322	-0.189988	-0.564400
O12	O	-4.401883	-0.184284	-0.203387
C13	C	-3.971123	-0.460166	-0.391011
C14	C	-4.044670	-0.626530	-0.389746
C15	C	-3.954628	-0.196515	-0.617667
C16	C	-4.017684	-0.195258	-0.760496
C17	C	-3.884090	-0.183800	-0.955633
C18	C	-3.818660	-0.185728	-0.807147
C19	C	-4.224941	-0.342815	-0.837433
C20	C	-4.289172	-0.341510	-0.986001
C21	C	-4.149046	-0.055786	-0.948294
C22	C	-4.078293	-0.055087	-0.799282
C23	C	-4.198710	0.072003	-0.387447
C24	C	-4.104404	0.238366	-0.388720
C25	C	-4.215204	-0.191644	-0.160788
C26	C	-4.131385	-0.192894	-0.017957
H27	H	-3.663561	-0.079628	-0.753927
H28	H	-4.471978	-0.354341	-1.028618
H29	H	-3.865321	-0.282313	-1.003513
Br30	Br	-3.733796	-0.352213	-0.765588
H31	H	-4.376087	-0.355117	-0.808615
Br32	Br	-4.274079	-0.514544	-1.062932
Br33	Br	-4.159548	-0.516280	-0.794561
H34	H	-4.039114	0.056265	-0.968780
Br35	Br	-3.828131	0.126855	-0.712236
H36	H	-4.220297	-0.053354	-0.766772
Br37	Br	-3.677525	-0.005576	-0.986972
Br38	Br	-4.447917	-0.064718	-1.016355
