data_functionalizedCrystal
_audit_creation_method	'MofGen! by Chris Wilmer'
_symmetry_space_group_name_H-M	'P1'
_symmetry_Int_Tables_number	1
_symmetry_cell_setting	triclinic
loop_
_symmetry_equiv_pos_as_xyz
  x,y,z
_cell_length_a	15.538191
_cell_length_b	11.026607
_cell_length_c	10.065875
_cell_angle_alpha	79.268236
_cell_angle_beta	95.241317
_cell_angle_gamma	77.929055
loop_
_atom_site_label
_atom_site_type_symbol
_atom_site_fract_x
_atom_site_fract_y
_atom_site_fract_z
O1	O	-1.197734	0.388991	-0.113517
O2	O	-0.945585	0.258610	-0.113513
O3	O	-1.050761	0.491248	-0.113510
O4	O	-1.092558	0.156353	-0.113520
O5	O	-1.030728	0.446754	0.113478
O6	O	-0.925551	0.214116	0.113475
O7	O	-1.177701	0.344498	0.113471
Zn8	Zn	-1.048446	0.272243	0.149512
Zn9	Zn	-1.074840	0.330865	-0.149554
O10	O	-1.072525	0.111860	0.113468
C11	C	-0.902786	0.222722	-0.000019
C12	C	-0.805102	0.182089	-0.000018
C13	C	-1.033034	0.510816	-0.000017
C14	C	-1.010049	0.635406	-0.000022
C15	C	-1.220500	0.380386	-0.000026
C16	C	-1.318185	0.421021	-0.000036
C17	C	-0.448859	0.585767	-0.000026
C18	C	-0.357073	0.547558	-0.000028
C19	C	-0.371075	0.332641	-0.000035
C20	C	-0.462864	0.370831	-0.000026
C21	C	-0.501748	0.497395	-0.000023
C22	C	-0.515753	0.282460	-0.000023
C23	C	-0.607535	0.320648	-0.000021
C24	C	-0.646427	0.447207	-0.000023
C25	C	-0.593530	0.535584	-0.000022
C26	C	-0.476868	0.155898	-0.000035
C27	C	-0.529757	0.067526	-0.000032
C28	C	-0.621539	0.105712	-0.000021
C29	C	-0.660431	0.232272	-0.000022
C30	C	-0.674436	0.017336	-0.000022
C31	C	-0.766217	0.055524	-0.000020
C32	C	-0.752213	0.270460	-0.000021
C33	C	-1.090252	0.092292	-0.000028
C34	C	-1.113238	-0.032296	-0.000032
N35	N	-1.030438	0.232238	0.353617
C36	C	-1.073516	0.737168	-0.000025
C37	C	-1.049761	0.865940	-0.000029
N38	N	-1.092853	0.370881	-0.353659
C39	C	-1.068568	0.316951	0.421397
C40	C	-1.054717	0.286157	0.578564
H41	H	-0.783874	0.373520	-0.000010
O42	O	-1.149680	0.497161	0.569102
H43	H	-1.120999	0.574787	0.596455
H44	H	-0.977834	0.874145	-0.000037
H45	H	-0.498085	-0.035522	-0.000040
H46	H	-1.145438	0.728955	-0.000017
O47	O	-0.997898	0.159867	0.655789
H48	H	-0.941436	0.175739	0.720920
H49	H	-1.185175	0.959522	-0.000136
H50	H	-0.721163	0.478302	-0.000040
O51	O	-0.377874	0.114706	-0.000035
H52	H	-0.348536	0.040099	0.092474
O53	O	-0.973630	0.105951	0.430853
H54	H	-0.905236	0.095324	0.403543
H55	H	-0.625191	0.638643	-0.000011
H56	H	-0.938127	0.643619	-0.000030
H57	H	-0.642763	-0.085710	-0.000038
O58	O	-0.490812	0.722275	-0.000020
H59	H	-0.438617	0.777318	-0.000026
H60	H	-0.314012	0.619531	-0.000033
H61	H	-0.339403	0.229594	-0.000043
O62	O	-1.125364	0.443245	0.344158
H63	H	-1.127319	0.447621	0.232834
H64	H	-0.809280	-0.016439	-0.000005
