data_functionalizedCrystal
_audit_creation_method	'MofGen! by Chris Wilmer'
_symmetry_space_group_name_H-M	'P1'
_symmetry_Int_Tables_number	1
_symmetry_cell_setting	triclinic
loop_
_symmetry_equiv_pos_as_xyz
  x,y,z
_cell_length_a	17.038272
_cell_length_b	17.038272
_cell_length_c	15.500227
_cell_angle_alpha	93.033254
_cell_angle_beta	86.956295
_cell_angle_gamma	91.111556
loop_
_atom_site_label
_atom_site_type_symbol
_atom_site_fract_x
_atom_site_fract_y
_atom_site_fract_z
O1	O	1.052160	0.167139	-0.071836
O2	O	1.552160	0.667139	0.428164
O3	O	0.824350	0.164430	-0.071862
O4	O	1.324350	0.664430	0.428138
O5	O	0.936901	0.051879	-0.071842
O6	O	1.436901	0.551879	0.428158
O7	O	0.939609	0.279690	-0.071856
O8	O	1.439609	0.779690	0.428144
O9	O	0.930069	0.058680	0.072045
O10	O	1.430069	0.558680	0.572045
O11	O	0.817518	0.171231	0.072026
O12	O	1.317518	0.671231	0.572026
O13	O	1.045328	0.173940	0.072051
O14	O	1.545328	0.673940	0.572051
Cu15	Cu	0.930799	0.173207	0.085177
Cu16	Cu	1.430799	0.673207	0.585177
Cu17	Cu	0.938879	0.165164	-0.084987
Cu18	Cu	1.438879	0.665164	0.415013
O19	O	0.932777	0.286491	0.072032
O20	O	1.432777	0.786491	0.572032
C21	C	0.791641	0.165368	0.000079
C22	C	1.291641	0.665368	0.500079
C23	C	0.704358	0.158019	0.000069
C24	C	1.204358	0.658019	0.500069
C25	C	0.658749	0.225482	0.000066
C26	C	1.158749	0.725482	0.500066
C27	C	0.576737	0.218574	0.000078
C28	C	1.076737	0.718574	0.500078
C29	C	0.540335	0.144201	0.000088
C30	C	1.040335	0.644201	0.500088
C31	C	0.585950	0.076733	0.000094
C32	C	1.085950	0.576733	0.500094
C33	C	0.667961	0.083642	0.000088
C34	C	1.167961	0.583642	0.500088
C35	C	0.292946	0.119792	0.000112
C36	C	0.792946	0.619792	0.500112
C37	C	0.210929	0.112887	0.000116
C38	C	0.710929	0.612887	0.500116
C39	C	0.201721	0.254729	0.000102
C40	C	0.701721	0.754729	0.500102
C41	C	0.283734	0.261632	0.000091
C42	C	0.783734	0.761632	0.500091
C43	C	0.329342	0.194164	0.000101
C44	C	0.829342	0.694164	0.500101
C45	C	0.456505	0.137138	0.000098
C46	C	0.956505	0.637138	0.500098
C47	C	0.413170	0.201228	0.000098
C48	C	0.913170	0.701228	0.500098
C49	C	0.931022	0.025987	0.000101
C50	C	1.431022	0.525987	0.500101
C51	C	0.923674	-0.061297	0.000100
C52	C	1.423674	0.438703	0.500100
C53	C	0.991137	-0.106906	0.000108
C54	C	1.491137	0.393094	0.500108
C55	C	0.984229	-0.188918	0.000100
C56	C	1.484229	0.311082	0.500100
C57	C	0.909856	-0.225320	0.000088
C58	C	1.409856	0.274680	0.500088
C59	C	0.842388	-0.179705	0.000077
C60	C	1.342388	0.320295	0.500077
C61	C	0.849297	-0.097694	0.000080
C62	C	1.349297	0.402306	0.500080
C63	C	0.885446	-0.472708	0.000074
C64	C	1.385446	0.027292	0.500074
C65	C	0.878541	-0.554725	0.000074
C66	C	1.378541	-0.054725	0.500074
C67	C	1.020383	-0.563932	0.000094
C68	C	1.520383	-0.063932	0.500094
C69	C	1.027286	-0.481919	0.000102
C70	C	1.527286	0.018081	0.500102
C71	C	0.959818	-0.436312	0.000087
C72	C	1.459818	0.063688	0.500087
C73	C	0.902792	-0.309149	0.000082
C74	C	1.402792	0.190851	0.500082
C75	C	0.966882	-0.352484	0.000087
C76	C	1.466882	0.147516	0.500087
C77	C	1.078037	0.173003	0.000109
C78	C	1.578037	0.673003	0.500109
C79	C	1.165320	0.180351	0.000113
C80	C	1.665320	0.680351	0.500113
C81	C	0.938656	0.312383	0.000087
C82	C	1.438656	0.812383	0.500087
C83	C	0.946004	0.399667	0.000082
C84	C	1.446004	0.899667	0.500082
N85	N	0.925122	0.178864	0.204861
N86	N	1.425122	0.678864	0.704861
N87	N	0.944561	0.159501	-0.204671
N88	N	1.444561	0.659501	0.295329
C89	C	0.972833	0.131192	0.250145
C90	C	1.472833	0.631192	0.750145
C91	C	0.968547	0.135478	0.340718
C92	C	1.468547	0.635478	0.840718
C93	C	0.916555	0.187440	0.386003
C94	C	1.416555	0.687440	0.886003
C95	C	0.868839	0.235114	0.340712
C96	C	1.368839	0.735114	0.840712
C97	C	0.873121	0.230823	0.250142
C98	C	1.373121	0.730823	0.750142
C99	C	0.901128	0.202884	0.659467
C100	C	1.401128	0.702884	1.159467
C101	C	0.896851	0.207172	0.750044
C102	C	1.396851	0.707172	1.250044
C103	C	0.996559	0.107535	0.750044
C104	C	1.496559	0.607535	1.250044
C105	C	1.000840	0.103252	0.659471
C106	C	1.500840	0.603252	1.159471
C107	C	0.953121	0.150923	0.614188
C108	C	1.453121	0.650923	1.114188
C109	C	0.912174	0.191824	0.478582
C110	C	1.412174	0.691824	0.978582
C111	C	0.957498	0.146534	0.521610
C112	C	1.457498	0.646534	1.021610
H113	H	0.556305	0.016177	0.000114
H114	H	1.056305	0.516177	0.500114
F115	F	1.056177	0.047949	0.611276
F116	F	1.556177	0.547949	1.111276
F117	F	1.028176	0.075890	0.201958
F118	F	1.528176	0.575890	0.701958
H119	H	0.688381	0.286045	0.000058
H120	H	1.188381	0.786045	0.500058
H121	H	0.705095	0.028706	0.000090
H122	H	1.205095	0.528706	0.500090
H123	H	0.817974	-0.584359	0.000078
H124	H	1.317974	-0.084359	0.500078
F125	F	0.823641	-0.347898	0.000066
F126	F	1.323641	0.152102	0.500066
F127	F	0.451912	0.280379	0.000091
F128	F	0.951912	0.780379	0.500091
F129	F	0.417757	0.057987	0.000105
F130	F	0.917757	0.557987	0.500105
F131	F	1.092182	-0.612476	0.000110
F132	F	1.592182	-0.112476	0.500110
F133	F	0.841510	0.262483	0.798235
F134	F	1.341510	0.762483	1.298235
H135	H	0.794361	-0.060560	0.000073
H136	H	1.294361	0.439440	0.500073
H137	H	1.007397	0.096659	0.377588
H138	H	1.507397	0.596659	0.877588
F139	F	1.047340	0.056802	0.798243
F140	F	1.547340	0.556802	1.298243
H141	H	1.051699	-0.077273	0.000123
H142	H	1.551699	0.422727	0.500123
H143	H	0.862274	0.241701	0.622605
H144	H	1.362274	0.741701	1.122605
H145	H	0.869842	0.234135	0.515461
H146	H	1.369842	0.734135	1.015461
H147	H	0.826501	0.277420	0.377589
H148	H	1.326501	0.777420	0.877589
F149	F	1.012828	0.091231	0.473413
F150	F	1.512828	0.591231	0.973413
F151	F	0.813639	-0.424180	0.000055
F152	F	1.313639	0.075820	0.500055
H153	H	0.539605	0.273510	0.000075
H154	H	1.039605	0.773510	0.500075
F155	F	0.322470	0.340789	0.000076
F156	F	0.822470	0.840789	0.500076
F157	F	0.822338	0.281560	0.201947
F158	F	1.322338	0.781560	0.701947
F159	F	0.153177	0.326529	0.000093
F160	F	0.653177	0.826529	0.500093
H161	H	1.027437	-0.322844	0.000077
H162	H	1.527437	0.177156	0.500077
H163	H	0.181294	0.052321	0.000123
H164	H	0.681294	0.552321	0.500123
H165	H	0.330070	0.064854	0.000122
H166	H	0.830070	0.564854	0.500122
F167	F	1.056033	-0.237455	0.000110
F168	F	1.556033	0.262545	0.500110
F169	F	0.763235	-0.218449	0.000056
F170	F	1.263235	0.281551	0.500056
F171	F	1.106444	-0.443185	0.000092
F172	F	1.606444	0.056815	0.500092
