data_functionalizedCrystal
_audit_creation_method	'MofGen! by Chris Wilmer'
_symmetry_space_group_name_H-M	'P1'
_symmetry_Int_Tables_number	1
_symmetry_cell_setting	triclinic
loop_
_symmetry_equiv_pos_as_xyz
  x,y,z
_cell_length_a	14.044191
_cell_length_b	12.784890
_cell_length_c	11.892113
_cell_angle_alpha	94.702629
_cell_angle_beta	94.019767
_cell_angle_gamma	83.149167
loop_
_atom_site_label
_atom_site_type_symbol
_atom_site_fract_x
_atom_site_fract_y
_atom_site_fract_z
O1	O	1.241613	0.260818	0.093947
O2	O	0.966401	0.251637	0.093961
O3	O	1.124147	0.103409	0.093947
O4	O	1.083867	0.409046	0.093961
O5	O	1.114397	0.090356	-0.094060
O6	O	0.956651	0.238583	-0.094046
O7	O	1.231863	0.247765	-0.094060
Zn8	Zn	1.092710	0.241101	-0.123903
Zn9	Zn	1.105555	0.258300	0.123804
O10	O	1.074118	0.395992	-0.094046
C11	C	1.121892	0.057531	-0.000055
C12	C	1.129687	-0.059723	-0.000053
C13	C	0.926543	0.241093	-0.000040
C14	C	0.822305	0.229110	-0.000035
C15	C	1.227381	-0.229434	-0.000057
C16	C	1.220063	-0.119264	-0.000058
C17	C	1.046624	-0.110361	-0.000049
C18	C	1.053942	-0.220532	-0.000048
C19	C	1.144324	-0.280065	-0.000049
C20	C	1.151641	-0.390237	-0.000040
C21	C	0.978203	-0.381333	-0.000039
C22	C	0.970885	-0.271162	-0.000041
C23	C	0.566819	0.292188	-0.000044
C24	C	0.631451	0.207219	-0.000045
C25	C	0.737652	0.219402	-0.000040
C26	C	0.460608	0.280006	-0.000049
C27	C	1.271722	0.258309	-0.000056
C28	C	1.375960	0.270292	-0.000054
C29	C	1.076372	0.441870	-0.000041
C30	C	1.068578	0.559125	-0.000036
N31	N	1.083950	0.229363	-0.292957
C32	C	1.175262	0.351759	-0.529606
C33	C	1.169148	0.343546	-0.647948
C34	C	1.065611	0.204720	-0.647985
C35	C	1.071726	0.212933	-0.529643
C36	C	1.126552	0.286456	-0.470458
C37	C	1.132661	0.294673	-0.352114
C38	C	1.029131	0.155843	-0.352153
C39	C	1.023016	0.147630	-0.470495
N40	N	1.114323	0.270030	0.292858
H41	H	1.225235	-0.438707	-0.000034
H42	H	1.020986	0.144851	-0.696194
C43	C	1.222722	0.415385	-0.713008
H44	H	1.256242	0.460351	-0.660807
H45	H	1.267180	0.373097	-0.759171
H46	H	1.177789	0.457045	-0.759173
H47	H	0.897299	-0.222676	-0.000043
H48	H	0.989462	0.102674	-0.303982
C49	C	0.886836	-0.437028	-0.000029
H50	H	0.904136	-0.511169	-0.000032
H51	H	0.853407	-0.412583	0.065535
H52	H	0.846606	-0.421704	-0.065598
C53	C	1.326793	-0.294923	-0.000051
H54	H	1.375212	-0.248989	-0.000058
H55	H	1.336647	-0.333531	0.065511
H56	H	1.329856	-0.342640	-0.065622
C57	C	1.311422	-0.063568	-0.000066
H58	H	1.294122	0.010572	-0.000077
H59	H	1.351656	-0.078897	0.065492
H60	H	1.344847	-0.088010	-0.065641
C61	C	1.192966	0.375541	-0.287006
H62	H	1.189627	0.371088	-0.208054
H63	H	1.257926	0.360739	-0.306388
H64	H	1.168538	0.444692	-0.306400
C65	C	0.962708	0.066766	-0.535604
H66	H	0.966037	0.071231	-0.614556
H67	H	0.987124	-0.002383	-0.516211
H68	H	0.897745	0.081580	-0.516222
H69	H	0.607030	0.125331	0.000031
C70	C	0.947215	-0.044864	-0.000058
H71	H	0.954757	0.028000	-0.000058
H72	H	0.909386	-0.065649	-0.065618
H73	H	0.916180	-0.056524	0.065514
C74	C	0.599810	0.402812	-0.000021
H75	H	0.667899	0.396591	-0.000007
H76	H	0.572559	0.435505	-0.065576
H77	H	0.579348	0.444585	0.065556
H78	H	1.219894	0.411633	-0.481417
