data_functionalizedCrystal
_audit_creation_method	'MofGen! by Chris Wilmer'
_symmetry_space_group_name_H-M	'P1'
_symmetry_Int_Tables_number	1
_symmetry_cell_setting	triclinic
loop_
_symmetry_equiv_pos_as_xyz
  x,y,z
_cell_length_a	10.723024
_cell_length_b	14.421503
_cell_length_c	10.723024
_cell_angle_alpha	89.994498
_cell_angle_beta	84.467869
_cell_angle_gamma	90.007403
loop_
_atom_site_label
_atom_site_type_symbol
_atom_site_fract_x
_atom_site_fract_y
_atom_site_fract_z
O1	O	1.657196	0.077103	0.175010
O2	O	1.294044	0.077106	0.191763
O3	O	1.483996	0.077101	0.001811
O4	O	1.467243	0.077108	0.364963
O5	O	1.483965	-0.077122	0.001839
O6	O	1.294012	-0.077117	0.191792
O7	O	1.657164	-0.077120	0.175038
Cu8	Cu	1.475585	-0.091201	0.183418
Cu9	Cu	1.475623	0.091186	0.183384
O10	O	1.467212	-0.077115	0.364991
C11	C	1.247528	-0.000005	0.190558
C12	C	1.108974	-0.000004	0.186911
N13	N	1.475568	-0.219482	0.183440
C14	C	1.033991	-0.000002	0.293198
C15	C	0.890788	-0.000000	0.289431
C16	C	1.387718	-0.469133	0.271235
C17	C	1.500687	-0.530936	0.296421
C18	C	1.475598	-0.408643	0.183411
C19	C	1.362659	-0.530934	0.158254
C20	C	1.475617	-0.591365	0.183385
C21	C	1.588625	-0.469086	0.208654
C22	C	1.450522	-0.469078	0.070437
C23	C	1.563572	-0.530853	0.095576
C24	C	1.475586	-0.303382	0.183429
C25	C	1.475643	-0.696624	0.183366
C26	C	1.703680	-0.000007	0.176243
C27	C	1.842234	-0.000002	0.179891
C28	C	1.482762	-0.000010	-0.044675
C29	C	1.479114	-0.000006	-0.183229
N30	N	1.475650	0.219468	0.183352
C31	C	1.585401	-0.000006	-0.258212
C32	C	1.581634	-0.000002	-0.401415
C33	C	1.468447	-0.000003	0.411477
C34	C	1.472094	0.000000	0.550031
H35	H	0.826355	0.000006	0.380421
H36	H	1.637979	-0.557783	0.021292
H37	H	1.267140	-0.558104	0.136988
H38	H	1.679187	-0.000012	-0.216390
H39	H	1.067152	0.000018	0.093125
N40	N	0.927566	-0.000016	0.059352
H41	H	0.875482	-0.000019	-0.014265
H42	H	0.982197	0.057155	0.055881
H43	H	1.521915	-0.558107	0.391949
N44	N	1.089377	0.000009	0.417434
H45	H	1.019663	0.000012	0.487848
H46	H	1.142788	-0.057164	0.423746
N47	N	1.422370	-0.433057	-0.056064
H48	H	1.336986	-0.455516	-0.074982
H49	H	1.423460	-0.363034	-0.055264
N50	N	1.702170	-0.000012	-0.486750
H51	H	1.682393	-0.000012	-0.576953
H52	H	1.752400	0.057158	-0.470141
N53	N	1.351561	-0.000013	-0.364628
H54	H	1.347998	0.057153	-0.309998
H55	H	1.278007	-0.000049	-0.416792
N56	N	1.289367	-0.433238	0.369680
H57	H	1.308484	-0.455745	0.454979
H58	H	1.289550	-0.363214	0.368356
N59	N	1.354883	-0.000009	-0.238624
H60	H	1.305794	-0.057182	-0.209946
H61	H	1.305908	0.057197	-0.209946
N62	N	1.715185	-0.433262	0.236968
H63	H	1.714386	-0.363231	0.236840
H64	H	1.734263	-0.456377	0.321987
