data_functionalizedCrystal
_audit_creation_method	'MofGen! by Chris Wilmer'
_symmetry_space_group_name_H-M	'P1'
_symmetry_Int_Tables_number	1
_symmetry_cell_setting	triclinic
loop_
_symmetry_equiv_pos_as_xyz
  x,y,z
_cell_length_a	17.019372
_cell_length_b	17.038272
_cell_length_c	15.500227
_cell_angle_alpha	86.966746
_cell_angle_beta	91.029586
_cell_angle_gamma	92.757136
loop_
_atom_site_label
_atom_site_type_symbol
_atom_site_fract_x
_atom_site_fract_y
_atom_site_fract_z
O1	O	1.053042	-0.099898	0.006440
O2	O	0.825040	-0.111748	-0.010534
O3	O	0.937686	0.007996	-0.002141
O4	O	0.940397	-0.219642	-0.001953
O5	O	0.930848	0.000758	0.141238
O6	O	0.818203	-0.118986	0.132846
O7	O	1.046204	-0.107136	0.149819
Cu8	Cu	0.931579	-0.113722	0.154424
Cu9	Cu	0.939665	-0.105162	-0.015139
O10	O	0.933559	-0.226880	0.141426
C11	C	0.792305	-0.114776	0.058973
C12	C	0.704948	-0.113005	0.052470
C13	C	0.211070	-0.102765	0.011712
C14	C	0.293150	-0.104429	0.017834
C15	C	0.330455	-0.109213	0.099052
C16	C	0.285675	-0.112324	0.174153
C17	C	0.203597	-0.110654	0.168030
C18	C	0.578091	-0.114447	0.121448
C19	C	0.660175	-0.116119	0.127565
C20	C	0.667644	-0.108223	-0.028754
C21	C	0.585564	-0.106558	-0.034869
C22	C	0.540792	-0.109665	0.040231
C23	C	0.414353	-0.110916	0.105311
C24	C	0.456895	-0.107956	0.033971
C25	C	0.931802	0.033512	0.069365
C26	C	0.924448	0.120326	0.068817
C27	C	1.078940	-0.104108	0.080310
C28	C	1.166297	-0.105878	0.086807
C29	C	0.939443	-0.252396	0.069918
C30	C	0.946797	-0.339210	0.070460
N31	N	0.925898	-0.119742	0.273686
C32	C	0.991968	0.170246	0.073845
C33	C	0.985053	0.251817	0.073322
C34	C	0.910618	0.283466	0.067777
C35	C	0.843094	0.233539	0.062747
C36	C	0.850009	0.151970	0.063264
C37	C	0.886188	0.529295	0.065947
C38	C	0.879277	0.610870	0.065433
C39	C	1.021238	0.629142	0.076006
C40	C	1.028147	0.547570	0.076528
C41	C	0.960622	0.497651	0.071493
C42	C	0.903549	0.366844	0.067246
C43	C	0.967693	0.414275	0.072019
N44	N	0.945353	-0.099136	-0.134400
C45	C	0.973648	-0.069021	0.322520
C46	C	0.969359	-0.073581	0.412773
C47	C	0.917323	-0.128866	0.454191
C48	C	0.869567	-0.179589	0.405350
C49	C	0.873852	-0.175025	0.315098
C50	C	0.901883	-0.145295	0.726507
C51	C	0.897602	-0.149857	0.816766
C52	C	0.997394	-0.043848	0.824183
C53	C	1.001679	-0.039291	0.733929
C54	C	0.953920	-0.090012	0.685096
C55	C	0.912939	-0.133530	0.546444
C56	C	0.958300	-0.085343	0.592844
H57	H	0.555197	-0.102662	-0.101005
H58	H	0.834968	-0.216326	0.275337
H59	H	0.444736	-0.114812	0.171439
H60	H	1.008241	-0.032279	0.452534
H61	H	0.426519	-0.104058	-0.032156
H62	H	1.028298	0.388504	0.076514
H63	H	1.076212	0.669795	0.080104
F64	F	0.325380	-0.117412	0.260591
F65	F	1.048217	0.010131	0.876160
H66	H	0.842943	0.392621	0.062733
H67	H	0.329602	-0.101889	-0.043316
H68	H	1.016025	-0.024005	0.288804
F69	F	0.715300	-0.104912	-0.108675
F70	F	0.857560	-0.192369	0.590529
F71	F	0.814321	0.476177	0.060586
H72	H	0.818660	0.636634	0.060932
F73	F	0.778145	0.098842	0.057910
H74	H	0.862997	-0.186595	0.686754
F75	F	0.171375	-0.097680	-0.074732
F76	F	1.071192	0.136571	0.079754
H77	H	1.044051	0.005726	0.700209
F78	F	0.699875	-0.121209	0.214012
F79	F	0.530450	-0.117770	0.201378
F80	F	0.842215	-0.208704	0.860839
H81	H	0.782487	0.259314	0.058227
F82	F	1.107372	0.513895	0.082407
H83	H	0.827193	-0.224601	0.439077
H84	H	0.167143	-0.113197	0.229180
H85	H	1.000665	-0.040327	0.559119
H86	H	1.040035	0.292459	0.077417
