data_functionalizedCrystal
_audit_creation_method	'MofGen! by Chris Wilmer'
_symmetry_space_group_name_H-M	'P1'
_symmetry_Int_Tables_number	1
_symmetry_cell_setting	triclinic
loop_
_symmetry_equiv_pos_as_xyz
  x,y,z
_cell_length_a	16.120297
_cell_length_b	12.759401
_cell_length_c	12.759400
_cell_angle_alpha	89.984446
_cell_angle_beta	92.876661
_cell_angle_gamma	87.120011
loop_
_atom_site_label
_atom_site_type_symbol
_atom_site_fract_x
_atom_site_fract_y
_atom_site_fract_z
Zn1	Zn	-0.471371	-1.576124	-0.448372
Zn2	Zn	-0.331969	-1.584933	-0.615156
Zn3	Zn	-0.331978	-1.409338	-0.439497
Zn4	Zn	-0.471340	-1.400419	-0.624012
O5	O	-0.401665	-1.492703	-0.531759
O6	O	-0.452888	-1.724313	-0.470504
O7	O	-0.215307	-1.569059	-0.584435
O8	O	-0.350486	-1.431509	-0.293654
O9	O	-0.350470	-1.730785	-0.593040
O10	O	-0.452897	-1.554046	-0.300175
O11	O	-0.215314	-1.440050	-0.455379
O12	O	-0.350456	-1.261134	-0.463966
O13	O	-0.588008	-1.416307	-0.608133
O14	O	-0.452844	-1.254581	-0.599528
O15	O	-0.588030	-1.545397	-0.479091
O16	O	-0.350441	-1.560410	-0.763351
O17	O	-0.452836	-1.424849	-0.769857
C18	C	-0.401648	-1.219737	-0.531745
C19	C	-0.401661	-1.102960	-0.531766
C20	C	-0.619114	-1.478875	-0.545590
C21	C	-0.711778	-1.472982	-0.551483
C22	C	-0.401652	-1.492645	-0.804726
C23	C	-0.401674	-1.492714	-0.921504
C24	C	-0.881437	-1.462184	-0.562220
C25	C	-0.922744	-1.523430	-0.500984
C26	C	-1.017148	-1.517422	-0.506958
C27	C	-0.787024	-1.468190	-0.556248
C28	C	-0.185061	-1.506539	-0.517907
C29	C	-0.092397	-1.512635	-0.511717
C30	C	-0.401682	-1.766735	-0.531774
C31	C	-0.401689	-1.883512	-0.531780
C32	C	-0.454891	-1.044718	-0.602450
C33	C	-0.454907	-0.934993	-0.602455
C34	C	-0.348457	-0.941761	-0.461089
C35	C	-0.348445	-1.051483	-0.461079
C36	C	-0.455063	-1.556538	-1.089412
C37	C	-0.455044	-1.556485	-0.979687
C38	C	-0.348314	-1.429000	-0.973051
C39	C	-0.348329	-1.429059	-1.082775
C40	C	-0.401696	-1.492789	-0.257728
C41	C	-0.401709	-1.492826	-0.140952
H42	H	-0.887210	-1.580375	-0.444069
H43	H	-0.498532	-1.608457	-1.136777
H44	H	-0.916969	-1.405243	-0.619130
F45	F	-0.511830	-1.624298	-0.924839
F46	F	-0.291536	-1.361249	-1.137630
F47	F	-0.511530	-1.099499	-0.677678
F48	F	-0.511563	-0.873013	-0.677685
F49	F	-0.291510	-1.361135	-0.911126
H50	H	-0.305129	-0.899835	-0.403540
F51	F	-0.291792	-1.113472	-0.385838
