data_functionalizedCrystal
_audit_creation_method	'MofGen! by Chris Wilmer'
_symmetry_space_group_name_H-M	'P1'
_symmetry_Int_Tables_number	1
_symmetry_cell_setting	triclinic
loop_
_symmetry_equiv_pos_as_xyz
  x,y,z
_cell_length_a	19.805407
_cell_length_b	25.639240
_cell_length_c	19.805399
_cell_angle_alpha	89.964092
_cell_angle_beta	89.982197
_cell_angle_gamma	90.030074
loop_
_atom_site_label
_atom_site_type_symbol
_atom_site_fract_x
_atom_site_fract_y
_atom_site_fract_z
Zn1	Zn	1.034706	-0.208200	-0.382648
Zn2	Zn	1.034608	-0.295634	-0.269444
Zn3	Zn	0.921520	-0.208211	-0.269477
Zn4	Zn	0.921471	-0.295602	-0.382594
O5	O	0.978076	-0.251912	-0.326041
O6	O	1.129409	-0.219808	-0.367641
O7	O	1.019586	-0.284055	-0.174732
O8	O	0.936596	-0.135044	-0.284526
O9	O	1.129338	-0.284045	-0.284470
O10	O	1.019753	-0.135037	-0.367672
O11	O	0.936501	-0.219825	-0.174756
O12	O	0.826797	-0.219794	-0.284473
O13	O	0.936513	-0.283991	-0.477318
O14	O	0.826761	-0.284001	-0.367580
O15	O	1.019705	-0.219777	-0.477358
O16	O	1.019539	-0.368795	-0.284417
O17	O	0.936418	-0.368772	-0.367548
C18	C	0.802220	-0.251896	-0.326024
C19	C	0.726988	-0.251901	-0.326033
C20	C	0.691682	-0.218512	-0.369406
C21	C	0.620994	-0.218515	-0.369409
C22	C	0.585613	-0.251910	-0.326041
C23	C	0.620924	-0.285300	-0.282664
C24	C	0.691611	-0.285295	-0.282658
C25	C	0.335851	-0.285324	-0.282684
C26	C	0.265159	-0.285328	-0.282695
C27	C	0.265233	-0.218544	-0.369435
C28	C	0.335921	-0.218538	-0.369430
C29	C	0.371225	-0.251927	-0.326050
C30	C	0.447874	-0.251923	-0.326046
C31	C	0.508966	-0.251917	-0.326048
C32	C	0.977981	-0.387755	-0.325988
C33	C	0.978002	-0.445869	-0.325988
C34	C	1.021398	-0.806189	-0.369413
C35	C	1.021418	-0.860793	-0.369427
O36	O	1.058201	-0.888994	-0.406295
N37	N	0.978170	-0.888151	-0.326106
C38	C	0.934895	-0.860901	-0.282773
O39	O	0.898112	-0.889185	-0.245927
C40	C	0.934873	-0.806298	-0.282764
C41	C	0.978128	-0.778943	-0.326083
C42	C	1.064649	-0.778834	-0.412729
C43	C	1.064629	-0.724234	-0.412715
C44	C	1.021359	-0.696988	-0.369384
C45	C	0.978108	-0.724343	-0.326068
C46	C	0.891595	-0.779049	-0.239435
C47	C	0.891575	-0.724442	-0.239429
C48	C	0.934830	-0.697088	-0.282748
C49	C	0.934819	-0.642497	-0.282722
N50	N	0.978066	-0.615139	-0.326043
C51	C	1.021336	-0.642385	-0.369374
C52	C	0.934946	-0.975572	-0.282798
C53	C	0.934972	-1.030174	-0.282804
C54	C	1.021493	-1.030063	-0.369459
C55	C	1.021470	-0.975459	-0.369449
C56	C	0.978193	-0.948214	-0.326119
C57	C	1.021293	-0.527720	-0.369339
C58	C	1.021272	-0.473114	-0.369318
C59	C	0.934748	-0.473231	-0.282666
C60	C	0.934772	-0.527831	-0.282684
C61	C	0.978046	-0.555075	-0.326026
O62	O	0.898053	-0.614261	-0.245875
O63	O	1.058108	-0.614095	-0.406220
C64	C	1.154619	-0.251929	-0.326058
C65	C	1.229851	-0.251936	-0.326065
C66	C	0.978114	-0.251879	-0.502584
C67	C	0.978131	-0.251865	-0.577816
C68	C	0.978191	-0.115539	-0.326109
C69	C	0.978240	-0.057425	-0.326138
C70	C	1.021450	-0.218427	-0.613182
C71	C	1.021457	-0.218412	-0.683870
C72	C	0.978147	-0.251838	-0.719191
C73	C	0.934823	-0.285277	-0.683820
C74	C	0.934813	-0.285289	-0.613133
C75	C	0.934861	-0.285228	-0.968894
C76	C	0.934876	-0.285215	-1.039586
C77	C	1.021505	-0.218351	-1.039631
C78	C	1.021495	-0.218363	-0.968944
C79	C	0.978169	-0.251800	-0.933579
C80	C	0.978161	-0.251816	-0.856930
C81	C	0.978158	-0.251825	-0.795838
C82	C	0.978078	-0.251907	-0.150185
C83	C	0.978193	-0.251774	-0.074953
H84	H	0.720484	-0.191319	-0.404723
H85	H	0.364587	-0.312511	-0.247362
O86	O	1.063587	-0.185844	-0.934738
C87	C	1.101836	-0.156335	-0.981112
H88	H	1.074123	-0.154514	-1.031497
H89	H	1.153228	-0.175484	-0.988627
C90	C	1.145669	-0.102932	-0.891670
C91	C	1.111629	-0.100691	-0.953553
H92	H	1.151713	-0.068608	-0.874669
H93	H	1.119903	-0.122813	-0.860426
H94	H	1.188492	-0.118891	-0.897941
H95	H	1.068804	-0.084738	-0.947279
H96	H	1.137388	-0.080805	-0.984795
O97	O	0.849464	-0.697953	-0.197433
C98	C	0.805725	-0.666362	-0.235921
H99	H	0.801521	-0.682784	-0.289231
H100	H	0.826634	-0.624964	-0.238258
C101	C	0.740542	-0.645420	-0.137317
C102	C	0.735375	-0.665593	-0.202791
H103	H	0.697147	-0.644943	-0.116880
H104	H	0.770011	-0.666702	-0.111386
H105	H	0.757969	-0.610923	-0.139273
H106	H	0.717956	-0.700091	-0.200833
H107	H	0.705901	-0.644316	-0.228721
O108	O	1.106548	-0.697609	-0.454835
C109	C	1.067974	-0.666035	-0.498525
H110	H	1.016695	-0.657894	-0.474601
H111	H	1.060507	-0.687060	-0.548676
C112	C	1.168175	-0.624141	-0.540203
C113	C	1.105196	-0.614138	-0.510817
H114	H	1.191136	-0.592129	-0.547789
H115	H	1.194164	-0.645414	-0.510771
H116	H	1.161944	-0.641663	-0.581992
H117	H	1.111428	-0.596622	-0.469025
H118	H	1.079208	-0.592860	-0.540243
O119	O	1.063524	-0.185881	-1.074090
C120	C	1.054259	-0.193042	-1.144054
H121	H	1.002011	-0.210158	-1.153693
H122	H	1.094385	-0.220885	-1.164109
C123	C	1.124685	-0.119112	-1.168532
C124	C	1.060511	-0.140129	-1.180370
H125	H	1.128544	-0.086473	-1.190934
H126	H	1.130930	-0.114288	-1.121395
H127	H	1.158117	-0.142319	-1.185244
H128	H	1.027081	-0.116925	-1.163651
H129	H	1.054261	-0.144948	-1.227505
O130	O	0.892735	-0.317701	-1.073793
C131	C	0.854502	-0.347224	-1.027423
H132	H	0.852168	-0.325819	-0.977044
H133	H	0.879248	-0.386939	-1.019888
C134	C	0.785331	-0.381033	-1.116876
C135	C	0.782459	-0.354740	-1.055002
H136	H	0.740893	-0.385672	-1.133889
H137	H	0.811091	-0.361144	-1.148118
H138	H	0.805956	-0.414126	-1.110589
H139	H	0.761843	-0.321645	-1.061292
H140	H	0.756694	-0.374624	-1.023762
H141	H	0.899555	-0.550105	-0.247405
O142	O	0.231042	-0.186089	-0.411635
C143	C	0.277429	-0.156606	-0.449901
H144	H	0.327805	-0.178022	-0.452184
H145	H	0.284961	-0.116871	-0.425217
C146	C	0.188003	-0.122845	-0.519156
C147	C	0.249874	-0.149150	-0.521965
H148	H	0.171005	-0.118243	-0.563608
H149	H	0.156750	-0.142706	-0.493375
H150	H	0.194288	-0.089735	-0.498583
H151	H	0.243587	-0.182262	-0.542530
H152	H	0.281125	-0.129295	-0.547752
O153	O	0.230893	-0.317784	-0.240498
C154	C	0.277211	-0.347262	-0.202219
H155	H	0.327610	-0.325841	-0.199923
H156	H	0.284717	-0.386997	-0.226899
C157	C	0.187682	-0.381030	-0.132987
C158	C	0.249582	-0.354719	-0.130162
H159	H	0.170639	-0.385633	-0.088539
H160	H	0.156476	-0.361173	-0.158777
H161	H	0.193946	-0.414140	-0.153557
H162	H	0.243316	-0.321607	-0.109600
H163	H	0.280787	-0.374571	-0.104366
O164	O	1.063604	-0.185916	-0.718120
C165	C	1.101820	-0.156410	-0.671787
H166	H	1.104136	-0.177836	-0.621389
H167	H	1.077070	-0.116699	-0.664284
C168	C	1.171023	-0.122565	-0.761290
C169	C	1.173873	-0.148883	-0.699392
H170	H	1.215468	-0.117920	-0.778319
H171	H	1.145275	-0.142442	-0.792506
H172	H	1.150396	-0.089475	-0.755029
H173	H	1.194492	-0.181975	-0.705655
H174	H	1.199626	-0.129012	-0.668177
O175	O	0.586452	-0.317724	-0.240599
C176	C	0.516491	-0.310562	-0.249893
H177	H	0.506866	-0.293492	-0.302172
H178	H	0.496429	-0.282680	-0.209817
C179	C	0.491990	-0.384425	-0.179350
C180	C	0.480169	-0.363464	-0.243562
H181	H	0.469584	-0.417057	-0.175442
H182	H	0.539125	-0.389249	-0.173086
H183	H	0.475272	-0.361185	-0.145961
H184	H	0.496894	-0.386701	-0.276949
H185	H	0.433036	-0.358645	-0.249831
O186	O	0.892869	-0.317737	-0.934479
C187	C	0.931359	-0.351532	-0.893589
H188	H	0.982666	-0.333101	-0.883002
H189	H	0.938771	-0.390271	-0.920818
C190	C	0.831070	-0.383649	-0.839445
C191	C	0.894083	-0.361010	-0.826438
H192	H	0.808075	-0.389498	-0.798024
H193	H	0.805137	-0.360883	-0.866995
H194	H	0.837255	-0.415929	-0.862137
H195	H	0.887896	-0.328728	-0.803754
H196	H	0.920014	-0.383772	-0.798883
O197	O	1.063311	-0.446623	-0.411467
C198	C	1.101515	-0.482385	-0.449703
H199	H	1.073802	-0.521323	-0.452028
H200	H	1.152938	-0.488177	-0.424966
C201	C	1.145257	-0.413201	-0.518890
C202	C	1.111216	-0.461024	-0.521750
H203	H	1.151244	-0.400025	-0.563331
H204	H	1.119521	-0.389108	-0.493128
H205	H	1.188106	-0.418035	-0.498273
H206	H	1.068365	-0.456190	-0.542359
H207	H	1.136946	-0.485117	-0.547517
H208	H	0.720356	-0.312483	-0.247339
H209	H	1.056725	-1.052256	-0.404743
O210	O	0.892720	-0.317827	-0.578881
C211	C	0.854488	-0.347321	-0.625212
H212	H	0.882214	-0.349120	-0.675606
H213	H	0.803094	-0.328175	-0.632726
C214	C	0.810643	-0.400765	-0.535702
C215	C	0.844699	-0.402978	-0.597596
H216	H	0.804601	-0.435096	-0.518667
H217	H	0.836398	-0.380893	-0.504487
H218	H	0.767818	-0.384808	-0.541972
H219	H	0.887525	-0.418929	-0.591323
H220	H	0.818950	-0.422854	-0.628809
O221	O	1.106750	-0.805215	-0.454845
C222	C	1.144900	-0.769351	-0.493081
H223	H	1.147232	-0.730445	-0.465346
H224	H	1.120084	-0.763529	-0.544464
C225	C	1.214084	-0.838382	-0.536967
C226	C	1.216952	-0.790598	-0.502899
H227	H	1.258528	-0.851488	-0.543027
H228	H	1.188380	-0.862544	-0.511209
H229	H	1.193401	-0.833523	-0.579783
H230	H	1.237627	-0.795458	-0.460081
H231	H	1.242661	-0.766437	-0.528651
H232	H	0.592251	-0.191327	-0.404729
H233	H	0.899520	-0.451039	-0.247385
H234	H	0.364724	-0.191346	-0.404746
H235	H	0.899557	-0.312491	-0.712584
H236	H	1.056527	-0.549895	-0.404637
O237	O	0.893054	-1.056768	-0.240649
C238	C	0.931620	-1.088368	-0.196984
H239	H	0.984927	-1.071886	-0.192845
H240	H	0.933950	-1.129737	-0.217922
C241	C	0.833118	-1.109511	-0.131676
C242	C	0.898589	-1.089265	-0.126588
H243	H	0.812743	-1.110067	-0.088254
H244	H	0.807135	-1.088223	-0.161096
H245	H	0.835069	-1.143983	-0.149127
H246	H	0.896637	-1.054792	-0.109146
H247	H	0.924572	-1.110548	-0.097164
H248	H	1.056692	-0.953190	-0.404723
H249	H	0.899706	-0.953392	-0.247508
H250	H	0.856372	-0.801312	-0.204159
H251	H	1.056720	-0.191210	-0.584428
