data_functionalizedCrystal
_audit_creation_method	'MofGen! by Chris Wilmer'
_symmetry_space_group_name_H-M	'P1'
_symmetry_Int_Tables_number	1
_symmetry_cell_setting	triclinic
loop_
_symmetry_equiv_pos_as_xyz
  x,y,z
_cell_length_a	19.288840
_cell_length_b	15.538191
_cell_length_c	18.366186
_cell_angle_alpha	89.996634
_cell_angle_beta	89.983389
_cell_angle_gamma	65.199056
loop_
_atom_site_label
_atom_site_type_symbol
_atom_site_fract_x
_atom_site_fract_y
_atom_site_fract_z
O1	O	0.892004	0.117528	-0.060660
O2	O	0.685770	0.133422	-0.060634
O3	O	0.829032	-0.011830	-0.060656
O4	O	0.748742	0.262780	-0.060638
O5	O	0.829014	-0.011833	0.060444
O6	O	0.685752	0.133419	0.060466
O7	O	0.891986	0.117525	0.060439
Zn8	Zn	0.788866	0.125471	0.079679
Zn9	Zn	0.788890	0.125476	-0.079874
O10	O	0.748724	0.262777	0.060461
C11	C	0.660011	0.132913	-0.000081
C12	C	0.583287	0.131390	-0.000071
C13	C	0.547277	0.130660	-0.066084
C14	C	0.475190	0.129218	-0.066093
C15	C	0.439123	0.128487	-0.000085
C16	C	0.475141	0.129223	0.065936
C17	C	0.547223	0.130674	0.065944
C18	C	0.344161	0.070950	0.050472
C19	C	0.272083	0.069492	0.050462
C20	C	0.216797	0.124015	-0.000105
C21	C	0.233603	0.179982	-0.050674
C22	C	0.305685	0.181433	-0.050667
C23	C	0.360962	0.126914	-0.000086
C24	C	0.102621	0.121722	-0.066132
C25	C	0.030531	0.120286	-0.066139
C26	C	0.030487	0.120282	0.065893
C27	C	0.102572	0.121727	0.065898
C28	C	0.138637	0.122443	-0.000117
C29	C	0.837424	-0.046963	-0.000110
C30	C	0.862446	-0.151646	-0.000120
C31	C	0.613857	-0.438352	-0.000072
C32	C	0.637386	-0.536720	-0.000074
C33	C	0.769736	-0.559741	-0.000091
C34	C	0.746217	-0.461372	-0.000093
C35	C	0.668277	-0.400685	-0.000083
C36	C	0.800637	-0.423706	-0.000104
C37	C	0.777120	-0.325346	-0.000102
C38	C	0.699183	-0.264652	-0.000090
C39	C	0.644759	-0.302325	-0.000081
C40	C	0.878577	-0.484395	-0.000109
C41	C	0.932997	-0.446728	-0.000120
C42	C	0.909480	-0.348366	-0.000123
C43	C	0.831543	-0.287673	-0.000111
C44	C	0.963903	-0.310694	-0.000132
C45	C	0.940386	-0.212334	-0.000130
C46	C	0.808026	-0.189313	-0.000109
C47	C	0.917745	0.118034	-0.000116
C48	C	0.994469	0.119557	-0.000130
C49	C	0.740333	0.297910	-0.000087
C50	C	0.715310	0.402593	-0.000081
N51	N	0.788855	0.125468	0.188571
C52	C	0.816591	0.182519	0.226663
C53	C	0.816602	0.182516	0.302891
C54	C	0.788862	0.125475	0.341023
C55	C	0.761126	0.068412	0.302922
C56	C	0.761123	0.068409	0.226696
C57	C	0.726843	0.123098	0.461812
C58	C	0.726843	0.123108	0.538037
C59	C	0.788875	0.125479	0.576131
C60	C	0.850903	0.127861	0.537990
C61	C	0.850899	0.127857	0.461764
C62	C	0.788863	0.125471	0.423678
C63	C	0.816626	0.182531	0.696878
C64	C	0.816641	0.182522	0.773107
C65	C	0.761157	0.068423	0.773137
C66	C	0.761151	0.068427	0.696909
C67	C	0.788882	0.125486	0.658784
N68	N	0.788902	0.125478	0.811235
H69	H	0.445864	0.128625	-0.119851
N70	N	0.323815	0.241791	-0.105205
H71	H	0.277859	0.276111	-0.137244
H72	H	0.337267	0.289572	-0.078545
N73	N	0.731204	0.006889	0.344044
H74	H	0.762223	-0.061775	0.330775
H75	H	0.735412	0.015628	0.398101
H76	H	0.738536	0.021950	0.195681
H77	H	0.576636	0.131243	-0.119839
N78	N	0.673807	-0.158562	-0.000088
H79	H	0.694116	-0.139382	0.044799
H80	H	0.694132	-0.139459	-0.045014
N81	N	0.903942	-0.590483	-0.000107
H82	H	0.883635	-0.609661	-0.044997
H83	H	0.961573	-0.623141	-0.000082
H84	H	0.581293	-0.252909	-0.000078
N85	N	0.586062	0.131463	0.137150
H86	H	0.593880	0.072764	0.166006
H87	H	0.637174	0.132526	0.127080
N88	N	0.723958	-0.123864	-0.000087
H89	H	0.711250	-0.082549	0.044811
H90	H	0.711300	-0.082595	-0.045002
H91	H	0.188588	0.224383	-0.091848
H92	H	0.131983	0.122315	-0.119885
H93	H	0.839208	0.228991	0.665835
N94	N	0.141418	0.122514	0.137098
H95	H	0.107633	0.121833	0.178914
H96	H	0.191700	0.064669	0.139975
H97	H	0.550390	-0.388936	-0.000069
N98	N	0.578687	-0.577348	-0.000061
H99	H	0.525746	-0.523975	-0.000054
H100	H	0.585567	-0.617658	-0.044954
N101	N	-0.008311	0.119492	-0.137341
H102	H	-0.058590	0.177338	-0.140290
H103	H	0.025533	0.120127	-0.179115
N104	N	1.017058	-0.512185	-0.000124
H105	H	1.023700	-0.580212	-0.000121
H106	H	1.041854	-0.500023	-0.045022
N107	N	-0.008401	0.119488	0.137090
H108	H	-0.059529	0.118455	0.127069
H109	H	0.024568	0.061287	0.165907
H110	H	0.258408	0.023916	0.091635
N111	N	1.047964	-0.376153	-0.000129
H112	H	1.054604	-0.444179	-0.000123
H113	H	1.072766	-0.363997	-0.045025
H114	H	0.738572	0.021978	0.804184
H115	H	0.389172	0.026548	0.091653
N116	N	0.659953	0.120520	0.579171
H117	H	0.620663	0.118997	0.543474
H118	H	0.678199	0.061978	0.610790
H119	H	0.901405	0.129793	0.430713
H120	H	0.901414	0.129796	0.569005
H121	H	0.445770	0.128630	0.119681
H122	H	0.984701	-0.181665	-0.000138
N123	N	0.853798	-0.625193	-0.000109
H124	H	0.878633	-0.613104	0.044777
H125	H	0.860379	-0.693194	-0.000135
N126	N	0.846511	0.244047	0.185542
H127	H	0.864087	0.280184	0.221245
H128	H	0.890864	0.202799	0.153908
H129	H	0.839232	0.228977	0.804121
N130	N	0.846518	0.244052	0.343989
H131	H	0.864086	0.280196	0.308270
H132	H	0.804578	0.290258	0.375625
N133	N	0.731229	0.006895	0.655824
H134	H	0.675959	0.025679	0.669109
H135	H	0.735487	0.015570	0.601762
N136	N	0.659932	0.120539	0.420729
H137	H	0.678091	0.061999	0.389105
H138	H	0.620666	0.119076	0.456503
