data_functionalizedCrystal
_audit_creation_method	'MofGen! by Chris Wilmer'
_symmetry_space_group_name_H-M	'P1'
_symmetry_Int_Tables_number	1
_symmetry_cell_setting	triclinic
loop_
_symmetry_equiv_pos_as_xyz
  x,y,z
_cell_length_a	6.817900
_cell_length_b	7.190339
_cell_length_c	11.102300
_cell_angle_alpha	92.055699
_cell_angle_beta	71.394150
_cell_angle_gamma	119.388276
loop_
_atom_site_label
_atom_site_type_symbol
_atom_site_fract_x
_atom_site_fract_y
_atom_site_fract_z
V1	V	4.172428	0.295094	-0.395358
O2	O	4.067636	-0.014181	-0.388756
O3	O	4.209057	0.585123	-0.391765
O4	O	4.148272	0.290555	-0.568193
O5	O	4.128842	0.282426	-0.211107
V6	V	4.641896	0.258101	-0.373428
O7	O	4.464515	0.376241	-0.443463
O8	O	4.800006	0.176954	-0.325323
O9	O	4.382061	-0.031927	-0.377021
O10	O	4.864084	0.567377	-0.380030
O11	O	4.802879	0.270769	-0.557679
O12	O	4.442845	0.262641	-0.200593
C13	C	3.996419	0.280072	-0.610348
C14	C	4.058515	0.278280	-0.751636
C15	C	4.273897	0.288090	-0.824455
C16	C	4.332228	0.286398	-0.957209
C17	C	3.959776	0.265095	-0.944313
C18	C	3.901441	0.266771	-0.811560
C19	C	4.073976	0.655828	-0.385305
C20	C	4.187468	0.897387	-0.383488
C21	C	4.258041	0.273130	-0.158431
C22	C	4.175180	0.274912	-0.017142
H23	H	3.726037	0.258766	-0.752267
H24	H	4.401799	0.297457	-0.775669
H25	H	4.507607	0.294384	-1.016492
H26	H	3.831903	0.255730	-0.993120
