data_functionalizedCrystal
_audit_creation_method	'MofGen! by Chris Wilmer'
_symmetry_space_group_name_H-M	'P1'
_symmetry_Int_Tables_number	1
_symmetry_cell_setting	triclinic
loop_
_symmetry_equiv_pos_as_xyz
  x,y,z
_cell_length_a	19.121063
_cell_length_b	12.759401
_cell_length_c	12.759393
_cell_angle_alpha	90.020566
_cell_angle_beta	92.404035
_cell_angle_gamma	87.532891
loop_
_atom_site_label
_atom_site_type_symbol
_atom_site_fract_x
_atom_site_fract_y
_atom_site_fract_z
Zn1	Zn	-0.279612	-1.588330	-0.611802
Zn2	Zn	-0.397079	-1.580686	-0.443597
Zn3	Zn	-0.279643	-1.412627	-0.436140
Zn4	Zn	-0.397023	-1.405089	-0.619232
O5	O	-0.338339	-1.496683	-0.527693
O6	O	-0.295205	-1.734336	-0.589501
O7	O	-0.381537	-1.558348	-0.295589
O8	O	-0.181355	-1.442288	-0.453212
O9	O	-0.381507	-1.728720	-0.465921
O10	O	-0.181332	-1.571376	-0.582270
O11	O	-0.295257	-1.434875	-0.290111
O12	O	-0.295203	-1.264606	-0.460417
O13	O	-0.381412	-1.429441	-0.765265
O14	O	-0.381441	-1.259068	-0.594933
O15	O	-0.295151	-1.564067	-0.759807
O16	O	-0.495355	-1.551039	-0.473125
O17	O	-0.495314	-1.422028	-0.602163
C18	C	-0.338320	-1.223717	-0.527673
C19	C	-0.338329	-1.106939	-0.527690
C20	C	-0.293471	-1.054997	-0.592146
C21	C	-0.293475	-0.945273	-0.592151
C22	C	-0.383201	-0.939442	-0.463243
C23	C	-0.383193	-1.049165	-0.463232
C24	C	-0.520819	-1.484915	-0.539283
C25	C	-0.598884	-1.479976	-0.544276
C26	C	-0.635558	-1.544877	-0.479494
C27	C	-0.708909	-1.540239	-0.484197
C28	C	-0.745585	-1.470694	-0.553676
C29	C	-0.708906	-1.405790	-0.618465
C30	C	-0.635557	-1.410434	-0.613767
C31	C	-0.967053	-1.453313	-0.571224
C32	C	-1.040408	-1.448671	-0.575914
C33	C	-1.040405	-1.583122	-0.441647
C34	C	-0.967054	-1.587755	-0.436951
C35	C	-0.930382	-1.522856	-0.501743
C36	C	-0.820561	-1.465949	-0.558482
C37	C	-0.855407	-1.527607	-0.496942
C38	C	-0.155147	-1.508525	-0.516081
C39	C	-0.077081	-1.513572	-0.511132
C40	C	-0.338272	-1.496766	-0.801722
C41	C	-0.338243	-1.496801	-0.918497
C42	C	-0.338352	-0.770715	-0.527710
C43	C	-0.338341	-0.887492	-0.527706
C44	C	-0.293320	-1.566906	-0.970518
C45	C	-0.293289	-1.566926	-1.080240
C46	C	-0.383112	-1.426732	-1.085911
C47	C	-0.383138	-1.426708	-0.976191
C48	C	-0.338355	-1.496664	-0.254727
C49	C	-0.338186	-1.496845	-0.137940
H50	H	-0.738765	-1.593087	-0.431444
O51	O	-0.931538	-1.655414	-0.369440
C52	C	-0.939278	-1.788251	-0.236732
C53	C	-0.979588	-1.711693	-0.313157
H54	H	-0.978109	-1.833757	-0.191190
H55	H	-0.904905	-1.845404	-0.282772
H56	H	-0.904971	-1.742205	-0.179600
H57	H	-1.013933	-1.757652	-0.370305
H58	H	-1.013917	-1.654540	-0.267048
H59	H	-1.070271	-1.635961	-0.388898
O60	O	-0.599825	-1.612342	-0.412027
C61	C	-0.486829	-1.679135	-0.345328
C62	C	-0.527205	-1.602661	-0.421763
H63	H	-0.428109	-1.671349	-0.353189
H64	H	-0.501254	-1.659816	-0.261496
H65	H	-0.501239	-1.762916	-0.364767
H66	H	-0.512817	-1.518853	-0.402421
H67	H	-0.512776	-1.622070	-0.505573
O68	O	-0.426872	-1.099574	-0.400736
C69	C	-0.546294	-1.125405	-0.356977
C70	C	-0.496914	-1.068264	-0.427840
H71	H	-0.602933	-1.100096	-0.378851
H72	H	-0.538640	-1.213759	-0.368048
H73	H	-0.533858	-1.104607	-0.271511
H74	H	-0.509320	-1.088977	-0.513334
H75	H	-0.504577	-0.979925	-0.416679
H76	H	-1.070267	-1.392052	-0.632511
H77	H	-0.937200	-1.400467	-0.623978
O78	O	-0.250000	-0.894696	-0.654826
C79	C	-0.240680	-0.771530	-0.796159
C80	C	-0.289996	-0.828718	-0.725232
H81	H	-0.272998	-0.718191	-0.853115
H82	H	-0.203928	-0.722435	-0.745747
H83	H	-0.208600	-0.831696	-0.842173
H84	H	-0.322122	-0.768624	-0.679205
H85	H	-0.326702	-0.877832	-0.775701
H86	H	-0.256937	-1.102034	-0.644628
H87	H	-0.738774	-1.349169	-0.675041
O88	O	-0.599896	-1.347542	-0.676804
C89	C	-0.516980	-1.338595	-0.813285
C90	C	-0.557333	-1.409938	-0.741970
H91	H	-0.482547	-1.389013	-0.865974
H92	H	-0.555758	-1.288108	-0.863827
H93	H	-0.482724	-1.285834	-0.762787
H94	H	-0.591591	-1.462762	-0.792387
H95	H	-0.518518	-1.460353	-0.691421
H96	H	-0.256761	-1.623978	-0.923547
O97	O	-0.249630	-1.635129	-1.130609
C98	C	-0.160514	-1.774141	-1.113396
C99	C	-0.209937	-1.696972	-1.056223
H100	H	-0.128399	-1.824146	-1.053280
H101	H	-0.192718	-1.827072	-1.166789
H102	H	-0.123800	-1.728275	-1.162456
H103	H	-0.246661	-1.742752	-1.007106
H104	H	-0.177690	-1.644041	-1.002893
H105	H	-0.825543	-1.584235	-0.440376
H106	H	-0.419728	-0.892389	-0.410765
H107	H	-0.850431	-1.409323	-0.615050
O108	O	-0.426701	-1.358752	-1.142118
C109	C	-0.466441	-1.296613	-1.313659
C110	C	-0.417050	-1.373672	-1.250138
H111	H	-0.458644	-1.308634	-1.401004
H112	H	-0.523096	-1.311394	-1.295756
H113	H	-0.454111	-1.212702	-1.291229
H114	H	-0.429316	-1.457612	-1.272532
H115	H	-0.360409	-1.358800	-1.268047
H116	H	-0.419719	-1.369612	-0.933834
