data_functionalizedCrystal
_audit_creation_method	'MofGen! by Chris Wilmer'
_symmetry_space_group_name_H-M	'P1'
_symmetry_Int_Tables_number	1
_symmetry_cell_setting	triclinic
loop_
_symmetry_equiv_pos_as_xyz
  x,y,z
_cell_length_a	12.759400
_cell_length_b	19.077105
_cell_length_c	19.076919
_cell_angle_alpha	90.076224
_cell_angle_beta	87.725144
_cell_angle_gamma	92.288832
loop_
_atom_site_label
_atom_site_type_symbol
_atom_site_fract_x
_atom_site_fract_y
_atom_site_fract_z
Zn1	Zn	-0.508276	-1.058328	0.440436
Zn2	Zn	-0.677203	-1.062987	0.322935
Zn3	Zn	-0.494202	-0.945544	0.318229
Zn4	Zn	-0.676569	-0.940808	0.435688
O5	O	-0.589062	-1.001917	0.379322
O6	O	-0.536840	-1.157278	0.428806
O7	O	-0.647302	-1.051339	0.223980
O8	O	-0.349051	-0.960537	0.334457
O9	O	-0.660950	-1.160701	0.342479
O10	O	-0.359391	-1.043399	0.424243
O11	O	-0.512852	-0.965055	0.220522
O12	O	-0.512238	-0.846583	0.329853
O13	O	-0.659870	-0.952466	0.534649
O14	O	-0.646223	-0.843104	0.416150
O15	O	-0.536225	-1.038807	0.538138
O16	O	-0.824137	-1.046747	0.337875
O17	O	-0.823671	-0.956983	0.420714
C18	C	-0.862026	-1.001876	0.379306
C19	C	-0.978807	-1.001921	0.379325
C20	C	-0.599547	-0.994588	0.562603
C21	C	-0.604015	-0.991465	0.640706
C22	C	-0.577635	-0.819347	0.371976
C23	C	-0.572772	-0.741242	0.368850
C24	C	-1.033882	-1.048709	0.336242
C25	C	-1.143610	-1.048751	0.336266
C26	C	-1.143177	-0.955212	0.422456
C27	C	-1.033452	-0.955173	0.422436
C28	C	-0.979237	-1.095457	0.293132
C29	C	-1.034313	-1.142248	0.250045
C30	C	-1.144041	-1.142290	0.250068
C31	C	-1.198693	-1.095542	0.293178
C32	C	-0.315035	-1.001976	0.379355
C33	C	-0.198260	-1.002002	0.379368
C34	C	-0.600535	-1.185199	0.386697
C35	C	-0.605424	-1.263303	0.389840
C36	C	-0.640344	-0.702758	0.412241
C37	C	-0.635761	-0.629371	0.409307
C38	C	-0.563612	-0.594468	0.362979
C39	C	-0.496033	-0.632957	0.319586
C40	C	-0.500611	-0.706344	0.322524
C41	C	-0.542424	-0.375179	0.349385
C42	C	-0.537853	-0.301787	0.346449
C43	C	-0.677581	-0.298205	0.436172
C44	C	-0.682157	-0.371593	0.439102
C45	C	-0.614574	-0.410076	0.395712
N46	N	-0.558928	-0.519454	0.359977
N47	N	-0.619253	-0.485088	0.398718
C48	C	-0.578545	-1.009257	0.196756
C49	C	-0.573790	-1.012516	0.118659
C50	C	-0.541742	-1.034949	0.679216
C51	C	-0.545935	-1.032006	0.752602
C52	C	-0.612408	-0.985583	0.787477
C53	C	-0.674683	-0.942094	0.748961
C54	C	-0.670484	-0.945034	0.675576
C55	C	-0.631866	-0.971967	1.006758
C56	C	-0.636063	-0.969032	1.080148
C57	C	-0.507313	-1.058943	1.083785
C58	C	-0.503124	-1.061882	1.010398
C59	C	-0.565395	-1.018391	0.971889
N60	N	-0.616698	-0.982575	0.862489
N61	N	-0.561099	-1.021396	0.896878
H62	H	-0.889891	-1.095426	0.293106
O63	O	-0.980105	-0.909661	0.464309
C64	C	-1.051863	-0.868419	0.502376
H65	H	-1.128301	-0.867176	0.473508
H66	H	-1.068135	-0.891987	0.556795
C67	C	-0.911131	-0.794738	0.544896
C68	C	-1.005010	-0.793206	0.509438
H69	H	-0.882229	-0.748344	0.549256
H70	H	-0.862785	-0.822525	0.519253
H71	H	-0.924704	-0.814382	0.590242
H72	H	-0.991433	-0.773571	0.464090
H73	H	-1.053352	-0.765414	0.535074
H74	H	-0.495228	-1.067417	0.783954
H75	H	-0.487401	-0.406503	0.314049
H76	H	-0.989810	-1.180314	0.214950
O77	O	-1.197378	-1.187768	0.208154
C78	C	-1.125615	-1.229030	0.170116
H79	H	-1.045498	-1.200318	0.166488
H80	H	-1.118669	-1.281344	0.198032
C81	C	-1.263234	-1.277484	0.100211
C82	C	-1.164835	-1.242217	0.095750
H83	H	-1.287428	-1.285622	0.054339
H84	H	-1.311584	-1.249687	0.125839
H85	H	-1.257433	-1.321075	0.123477
H86	H	-1.170639	-1.198624	0.072492
H87	H	-1.116487	-1.270007	0.070116
H88	H	-0.721182	-0.909618	0.644221
O89	O	-0.477014	-1.079969	0.645372
C90	C	-0.372374	-1.063925	0.662715
H91	H	-0.364714	-1.006981	0.680624
H92	H	-0.349709	-1.099896	0.706837
C93	C	-0.308443	-1.144669	0.575871
C94	C	-0.299033	-1.074728	0.597861
H95	H	-0.263201	-1.151336	0.535868
H96	H	-0.378941	-1.155481	0.564188
H97	H	-0.289557	-1.174637	0.612644
H98	H	-0.317931	-1.044762	0.561091
H99	H	-0.228536	-1.063911	0.609537
H100	H	-0.690196	-0.931226	1.108541
O101	O	-0.739230	-0.897059	0.782947
C102	C	-0.729567	-0.903775	0.855976
H103	H	-0.699131	-0.957611	0.868190
H104	H	-0.672201	-0.861275	0.875129
C105	C	-0.875003	-0.829679	0.878377
C106	C	-0.837629	-0.895804	0.893379
H107	H	-0.941658	-0.824759	0.901450
H108	H	-0.881511	-0.825152	0.829176
H109	H	-0.827188	-0.794270	0.894338
H110	H	-0.885437	-0.931212	0.877410
H111	H	-0.831131	-0.900337	0.942578
H112	H	-1.288042	-1.095585	0.293200
O113	O	-0.701520	-0.592096	0.451475
C114	C	-0.766174	-0.638638	0.493001
H115	H	-0.771346	-0.692095	0.466310
H116	H	-0.731386	-0.644320	0.546732
C117	C	-0.870452	-0.543931	0.534618
C118	C	-0.876812	-0.609587	0.501832
H119	H	-0.938697	-0.526011	0.540068
H120	H	-0.826891	-0.512574	0.506643
H121	H	-0.841458	-0.548675	0.579390
H122	H	-0.905793	-0.604841	0.457058
H123	H	-0.920380	-0.640943	0.529799
H124	H	-1.187684	-0.917151	0.457553
H125	H	-0.699099	-0.731171	0.449965
H126	H	-0.740911	-0.400006	0.476826
O127	O	-0.743112	-0.260715	0.478295
C128	C	-0.723623	-0.188458	0.465759
H129	H	-0.640555	-0.179356	0.442436
H130	H	-0.782412	-0.169115	0.427435
C131	C	-0.837155	-0.159135	0.563985
C132	C	-0.735127	-0.147954	0.535345
H133	H	-0.844256	-0.134148	0.606908
H134	H	-0.850289	-0.207815	0.572430
H135	H	-0.886135	-0.143016	0.532042
H136	H	-0.686150	-0.164081	0.567283
H137	H	-0.721985	-0.099275	0.526907
H138	H	-0.456614	-1.094350	1.115147
O139	O	-0.438447	-1.106867	0.976456
C140	C	-0.365644	-1.068550	0.932435
H141	H	-0.398769	-1.015744	0.919278
H142	H	-0.288947	-1.059685	0.960438
C143	C	-0.304290	-1.174861	0.880455
C144	C	-0.344979	-1.110006	0.864290
H145	H	-0.291538	-1.200433	0.838420
H146	H	-0.353336	-1.200676	0.910114
H147	H	-0.240380	-1.167463	0.903792
H148	H	-0.408893	-1.117404	0.840961
H149	H	-0.295943	-1.084193	0.834625
O150	O	-0.467828	-0.267771	0.301480
C151	C	-0.478256	-0.194746	0.308213
H152	H	-0.560090	-0.183802	0.330705
H153	H	-0.416901	-0.172448	0.344899
C154	C	-0.361473	-0.173325	0.208004
C155	C	-0.461987	-0.159883	0.235624
H156	H	-0.351433	-0.151818	0.163229
H157	H	-0.354444	-0.222523	0.203469
H158	H	-0.310356	-0.154743	0.238582
H159	H	-0.513102	-0.178472	0.205050
H160	H	-0.469024	-0.110687	0.240152
O161	O	-0.426034	-0.598946	0.274604
C162	C	-0.436463	-0.525920	0.281327
H163	H	-0.518284	-0.514974	0.303840
H164	H	-0.375083	-0.503612	0.317989
C165	C	-0.319747	-0.504515	0.181081
C166	C	-0.420244	-0.491070	0.208727
H167	H	-0.309738	-0.483017	0.136299
H168	H	-0.312717	-0.553714	0.176552
H169	H	-0.268609	-0.485925	0.211639
H170	H	-0.471380	-0.509668	0.178173
H171	H	-0.427282	-0.441874	0.213248
H172	H	-0.445582	-0.737676	0.287194
H173	H	-0.682588	-0.936564	0.975413
