data_functionalizedCrystal
_audit_creation_method	'MofGen! by Chris Wilmer'
_symmetry_space_group_name_H-M	'P1'
_symmetry_Int_Tables_number	1
_symmetry_cell_setting	triclinic
loop_
_symmetry_equiv_pos_as_xyz
  x,y,z
_cell_length_a	21.395362
_cell_length_b	11.169416
_cell_length_c	21.395355
_cell_angle_alpha	89.991917
_cell_angle_beta	90.043940
_cell_angle_gamma	89.971030
loop_
_atom_site_label
_atom_site_type_symbol
_atom_site_fract_x
_atom_site_fract_y
_atom_site_fract_z
Zn1	Zn	0.957936	0.477437	0.354631
Zn2	Zn	0.957871	0.678108	0.249873
Zn3	Zn	0.853151	0.477493	0.249832
Zn4	Zn	0.853153	0.678133	0.354577
O5	O	0.905528	0.577793	0.302228
O6	O	1.045605	0.504023	0.340774
O7	O	0.943952	0.651509	0.162189
O8	O	0.867078	0.309536	0.263740
O9	O	1.045557	0.651455	0.263808
O10	O	0.944063	0.309495	0.340735
O11	O	0.867015	0.504118	0.162160
O12	O	0.765473	0.504142	0.263688
O13	O	0.867080	0.651497	0.442262
O14	O	0.765474	0.651551	0.340643
O15	O	0.944064	0.504047	0.442302
O16	O	0.943953	0.846061	0.263756
O17	O	0.867017	0.846079	0.340682
C18	C	0.742740	0.577856	0.302156
C19	C	0.673099	0.577912	0.302139
C20	C	0.640403	0.654770	0.342150
C21	C	0.574967	0.654741	0.342178
C22	C	0.542230	0.577866	0.302184
C23	C	0.574935	0.500994	0.262170
C24	C	0.640369	0.501017	0.262148
C25	C	0.438504	0.568198	0.245778
C26	C	0.373071	0.568183	0.245799
C27	C	0.340410	0.577788	0.302253
C28	C	0.373189	0.587433	0.358688
C29	C	0.438623	0.587456	0.358665
C30	C	0.471278	0.577832	0.302204
C31	C	0.236761	0.654618	0.342298
C32	C	0.171324	0.654580	0.342327
C33	C	0.171293	0.500839	0.262313
C34	C	0.236728	0.500871	0.262290
C35	C	0.269458	0.577766	0.302281
C36	C	0.905495	0.889618	0.302232
C37	C	0.905538	1.023018	0.302254
C38	C	1.068951	0.577730	0.302302
C39	C	1.138592	0.577703	0.302333
C40	C	0.905580	0.577769	0.465652
C41	C	0.905602	0.577758	0.535293
C42	C	0.905571	1.264751	0.302245
C43	C	0.905574	1.131351	0.302269
C44	C	0.905512	0.577731	0.139441
C45	C	0.905611	0.577403	0.069800
C46	C	0.945686	0.500978	0.568028
C47	C	0.945685	0.500926	0.633463
C48	C	0.905607	0.577676	0.666161
C49	C	0.865515	0.654462	0.633419
C50	C	0.865513	0.654503	0.567985
C51	C	0.900648	0.685744	0.769836
C52	C	0.900655	0.685706	0.835269
C53	C	0.905611	0.577550	0.867982
C54	C	0.910573	0.469429	0.835255
C55	C	0.910570	0.469470	0.769821
C56	C	0.905605	0.577640	0.737114
C57	C	0.945696	0.500707	0.971669
C58	C	0.945690	0.500653	1.037106
C59	C	0.865524	0.654200	1.037061
C60	C	0.865526	0.654243	0.971625
C61	C	0.905615	0.577498	0.938934
H62	H	0.548341	0.717327	0.374762
H63	H	0.896618	0.773744	0.861910
H64	H	0.914609	0.381435	0.743177
H65	H	0.896445	0.773795	0.743206
H66	H	0.548276	0.438400	0.229608
H67	H	0.978331	0.438122	1.063758
H68	H	0.667047	0.717383	0.374715
H69	H	0.832885	0.716679	1.063683
H70	H	0.465310	0.595306	0.404616
H71	H	0.914609	0.381359	0.861889
H72	H	0.978329	0.438485	0.541414
H73	H	0.666990	0.438427	0.229566
H74	H	0.978325	0.438396	0.660121
H75	H	0.978335	0.438210	0.945051
H76	H	0.144704	0.717164	0.374912
H77	H	0.465092	0.560371	0.199803
H78	H	0.144640	0.438241	0.229752
H79	H	0.346598	0.595252	0.404658
H80	H	0.263411	0.717225	0.374864
H81	H	0.263350	0.438291	0.229706
H82	H	0.346387	0.560337	0.199847
H83	H	0.832889	0.716773	0.944972
H84	H	0.832881	0.716949	0.660046
H85	H	0.832869	0.717026	0.541332
