data_functionalizedCrystal
_audit_creation_method	'MofGen! by Chris Wilmer'
_symmetry_space_group_name_H-M	'P1'
_symmetry_Int_Tables_number	1
_symmetry_cell_setting	triclinic
loop_
_symmetry_equiv_pos_as_xyz
  x,y,z
_cell_length_a	16.109301
_cell_length_b	10.489741
_cell_length_c	15.186229
_cell_angle_alpha	89.996534
_cell_angle_beta	89.999362
_cell_angle_gamma	84.000327
loop_
_atom_site_label
_atom_site_type_symbol
_atom_site_fract_x
_atom_site_fract_y
_atom_site_fract_z
O1	O	1.104141	0.163947	-0.073172
O2	O	0.862205	0.184350	-0.073186
O3	O	0.988678	-0.011529	-0.073174
O4	O	0.977668	0.359826	-0.073185
O5	O	0.988670	-0.011532	0.073284
O6	O	0.862196	0.184347	0.073271
O7	O	1.104133	0.163944	0.073285
Zn8	Zn	0.983163	0.174145	0.096531
Zn9	Zn	0.983174	0.174149	-0.096433
O10	O	0.977659	0.359823	0.073272
C11	C	0.831221	0.183522	0.000041
C12	C	0.738910	0.181044	0.000035
C13	C	0.987842	-0.059050	0.000054
C14	C	0.985354	-0.200644	0.000053
C15	C	0.517319	0.291514	0.000042
C16	C	0.430584	0.289175	0.000048
C17	C	0.449026	0.056771	0.000051
C18	C	0.535759	0.059111	0.000052
C19	C	0.569903	0.176486	0.000043
C20	C	0.396435	0.171808	0.000048
C21	C	0.302393	0.169272	0.000054
C22	C	0.663950	0.179022	0.000038
C23	C	0.904883	-0.267616	0.000042
C24	C	0.942893	-0.360292	0.072255
C25	C	0.942920	-0.360264	-0.072141
C26	C	1.023397	-0.291454	0.072325
C27	C	1.023413	-0.291417	-0.072135
C28	C	1.061482	-0.384066	0.000096
C29	C	1.135117	0.164772	0.000056
C30	C	1.227427	0.167250	0.000056
C31	C	0.978495	0.407344	0.000042
C32	C	0.980983	0.548938	0.000038
N33	N	0.983162	0.174142	0.228224
N34	N	0.983183	0.174142	-0.228125
C35	C	1.039183	0.087436	0.453952
C36	C	1.039186	0.087433	0.546142
C37	C	0.927155	0.260852	0.546140
C38	C	0.927149	0.260848	0.453952
C39	C	0.983168	0.174141	0.407860
C40	C	0.983176	0.174142	0.592238
C41	C	0.983179	0.174140	0.692194
C42	C	0.983165	0.174142	0.307898
H43	H	0.545116	0.387088	0.000042
H44	H	0.881530	0.331455	0.416421
C45	C	0.411459	-0.072334	0.000053
N46	N	0.383164	-0.169579	0.000051
C47	C	0.865536	0.356222	0.596849
N48	N	0.819123	0.428056	0.635042
C49	C	0.896889	-0.401528	0.154725
N50	N	0.862233	-0.432584	0.216838
H51	H	1.084798	0.016828	0.583667
C52	C	0.372745	0.415716	0.000052
N53	N	0.329180	0.511032	0.000057
C54	C	1.069378	-0.250136	-0.154612
N55	N	1.103992	-0.219040	-0.216741
C56	C	0.593605	-0.067435	0.000053
N57	N	0.637175	-0.162746	0.000056
H58	H	0.838720	-0.217005	0.000110
H59	H	1.057413	-0.261117	0.133445
C60	C	0.896909	-0.401444	-0.154618
N61	N	0.862248	-0.432454	-0.216736
C62	C	1.150942	-0.452146	0.000157
N63	N	1.218322	-0.503429	0.000209
C64	C	1.100799	-0.007954	0.403255
N65	N	1.147207	-0.079809	0.365072
