data_functionalizedCrystal
_audit_creation_method	'MofGen! by Chris Wilmer'
_symmetry_space_group_name_H-M	'P1'
_symmetry_Int_Tables_number	1
_symmetry_cell_setting	triclinic
loop_
_symmetry_equiv_pos_as_xyz
  x,y,z
_cell_length_a	12.827892
_cell_length_b	18.215407
_cell_length_c	18.215399
_cell_angle_alpha	90.017777
_cell_angle_beta	89.976162
_cell_angle_gamma	89.988988
loop_
_atom_site_label
_atom_site_type_symbol
_atom_site_fract_x
_atom_site_fract_y
_atom_site_fract_z
Zn1	Zn	-0.416166	-1.125120	-0.416097
Zn2	Zn	0.083834	-0.625120	0.083903
Zn3	Zn	-0.590925	-1.125049	-0.293039
Zn4	Zn	-0.090925	-0.625049	0.206961
Zn5	Zn	-0.416185	-1.002053	-0.293048
Zn6	Zn	0.083815	-0.502053	0.206952
Zn7	Zn	-0.590852	-1.002039	-0.416068
Zn8	Zn	-0.090852	-0.502039	0.083932
O9	O	-0.503532	-1.063566	-0.354563
O10	O	-0.003532	-0.563566	0.145437
O11	O	-0.439370	-1.228095	-0.399781
O12	O	0.060630	-0.728095	0.100219
O13	O	-0.567784	-1.108710	-0.190056
O14	O	-0.067784	-0.608710	0.309944
O15	O	-0.269947	-1.018414	-0.309387
O16	O	0.230053	-0.518414	0.190613
O17	O	-0.567765	-1.228043	-0.309371
O18	O	-0.067765	-0.728043	0.190629
O19	O	-0.269932	-1.108831	-0.399790
O20	O	0.230068	-0.608831	0.100210
O21	O	-0.439404	-1.018345	-0.190063
O22	O	0.060596	-0.518345	0.309937
O23	O	-0.439333	-0.899067	-0.309359
O24	O	0.060667	-0.399067	0.190641
O25	O	-0.567641	-1.018390	-0.519056
O26	O	-0.067641	-0.518390	-0.019056
O27	O	-0.567660	-0.899057	-0.399742
O28	O	-0.067660	-0.399057	0.100258
O29	O	-0.439300	-1.108818	-0.519077
O30	O	0.060700	-0.608818	-0.019077
O31	O	-0.737151	-1.108696	-0.309344
O32	O	-0.237151	-0.608696	0.190656
O33	O	-0.737098	-1.018321	-0.399733
O34	O	-0.237098	-0.518321	0.100267
C35	C	-0.503491	-0.872359	-0.354549
C36	C	-0.003491	-0.372359	0.145451
C37	C	-0.503499	-0.790560	-0.354560
C38	C	-0.003499	-0.290560	0.145440
C39	C	-0.436773	-0.602393	-0.401710
C40	C	0.063227	-0.102393	0.098290
C41	C	-0.436779	-0.525534	-0.401711
C42	C	0.063221	-0.025534	0.098289
C43	C	-0.570275	-0.525490	-0.307422
C44	C	-0.070275	-0.025490	0.192578
C45	C	-0.570264	-0.602348	-0.307417
C46	C	-0.070264	-0.102348	0.192583
C47	C	-0.503514	-0.640797	-0.354565
C48	C	-0.003514	-0.140797	0.145435
C49	C	-0.503531	-0.487081	-0.354572
C50	C	-0.003531	0.012919	0.145428
C51	C	-0.503538	-0.403747	-0.354574
C52	C	-0.003538	0.096253	0.145426
C53	C	-0.503506	-0.724136	-0.354563
C54	C	-0.003506	-0.224136	0.145437
C55	C	-0.775042	-1.063519	-0.354550
C56	C	-0.275042	-0.563519	0.145450
C57	C	-0.891195	-1.063567	-0.354569
C58	C	-0.391195	-0.563567	0.145431
C59	C	-0.942972	-1.108341	-0.309891
C60	C	-0.442972	-0.608341	0.190109
C61	C	-1.063022	-1.108391	-0.309910
C62	C	-0.563022	-0.608391	0.190090
C63	C	-0.230962	-1.063632	-0.354592
C64	C	0.269038	-0.563632	0.145408
C65	C	-0.114809	-1.063660	-0.354605
C66	C	0.385191	-0.563660	0.145395
C67	C	-0.503460	-1.063610	-0.546516
C68	C	-0.003460	-0.563610	-0.046516
C69	C	-0.503429	-1.063629	-0.628315
C70	C	-0.003429	-0.563629	-0.128315
C71	C	-0.503562	-0.255518	-0.354576
C72	C	-0.003562	0.244482	0.145424
C73	C	-0.503546	-0.337317	-0.354577
C74	C	-0.003546	0.162683	0.145423
C75	C	-0.436540	-1.110732	-0.816521
C76	C	0.063460	-0.610732	-0.316521
C77	C	-0.436509	-1.110741	-0.893380
C78	C	0.063491	-0.610741	-0.393380
C79	C	-0.570158	-1.016579	-0.893347
C80	C	-0.070158	-0.516579	-0.393347
C81	C	-0.570182	-1.016567	-0.816490
C82	C	-0.070182	-0.516567	-0.316490
C83	C	-0.503375	-1.063648	-0.778079
C84	C	-0.003375	-0.563648	-0.278079
C85	C	-0.503320	-1.063668	-0.931795
C86	C	-0.003320	-0.563668	-0.431795
C87	C	-0.503287	-1.063678	-1.015128
C88	C	-0.003287	-0.563678	-0.515128
C89	C	-0.503405	-1.063638	-0.694740
C90	C	-0.003405	-0.563638	-0.194740
C91	C	-0.503529	-1.063563	-0.163357
C92	C	-0.003529	-0.563563	0.336643
C93	C	-0.503265	-1.063687	-0.081558
C94	C	-0.003265	-0.563687	0.418442
H95	H	-0.624614	-0.633617	-0.269023
H96	H	-0.124614	-0.133617	0.230977
C97	C	-0.363361	-0.483293	-0.453576
C98	C	0.136639	0.016707	0.046424
N99	N	-0.308059	-0.451477	-0.492644
N100	N	0.191941	0.048523	0.007356
H101	H	-0.624622	-0.494176	-0.269037
H102	H	-0.124622	0.005824	0.230963
C103	C	-0.882793	-1.160077	-0.258196
C104	C	-0.382793	-0.660077	0.241804
N105	N	-0.837468	-1.199045	-0.219256
N106	N	-0.337468	-0.699045	0.280744
C107	C	-1.123173	-1.160176	-0.258232
C108	C	-0.623173	-0.660176	0.241768
N109	N	-1.168481	-1.199183	-0.219307
N110	N	-0.668481	-0.699183	0.280693
H111	H	-1.070290	-1.025323	-0.392854
H112	H	-0.570290	-0.525323	0.107146
C113	C	-0.951374	-1.011829	-0.406263
C114	C	-0.451374	-0.511829	0.093737
N115	N	-0.996699	-0.972858	-0.445199
N116	N	-0.496699	-0.472858	0.054801
C117	C	-0.363040	-1.162515	-0.774272
C118	C	0.136960	-0.662515	-0.274272
N119	N	-0.307675	-1.201517	-0.742451
N120	N	0.192325	-0.701517	-0.242451
C121	C	-0.362988	-1.162539	-0.935663
C122	C	0.137012	-0.662539	-0.435663
N123	N	-0.307608	-1.201555	-0.967510
N124	N	0.192392	-0.701555	-0.467510
C125	C	-0.643640	-0.964792	-0.935606
C126	C	-0.143640	-0.464792	-0.435606
N127	N	-0.698988	-0.925784	-0.967435
N128	N	-0.198988	-0.425784	-0.467435
H129	H	-0.382418	-0.633696	-0.440098
H130	H	0.117582	-0.133696	0.059902
H131	H	-0.624606	-0.978220	-0.785189
H132	H	-0.124606	-0.478220	-0.285189
