data_functionalizedCrystal
_audit_creation_method	'MofGen! by Chris Wilmer'
_symmetry_space_group_name_H-M	'P1'
_symmetry_Int_Tables_number	1
_symmetry_cell_setting	triclinic
loop_
_symmetry_equiv_pos_as_xyz
  x,y,z
_cell_length_a	15.944545
_cell_length_b	15.944551
_cell_length_c	15.186229
_cell_angle_alpha	90.004697
_cell_angle_beta	90.000573
_cell_angle_gamma	83.497455
loop_
_atom_site_label
_atom_site_type_symbol
_atom_site_fract_x
_atom_site_fract_y
_atom_site_fract_z
O1	O	1.114526	0.108306	0.073173
O2	O	0.869976	0.121668	0.073188
O3	O	0.998929	-0.007288	0.073172
O4	O	0.985573	0.237262	0.073189
O5	O	0.998921	-0.007290	-0.073285
O6	O	0.869967	0.121666	-0.073269
O7	O	1.114518	0.108304	-0.073284
Zn8	Zn	0.992241	0.114985	-0.096530
Zn9	Zn	0.992252	0.114987	0.096434
O10	O	0.985564	0.237260	-0.073268
C11	C	0.838677	0.121113	-0.000039
C12	C	0.745431	0.119453	-0.000034
C13	C	0.474798	0.034559	-0.000049
C14	C	0.525376	0.075487	-0.072259
C15	C	0.409787	0.113532	-0.000049
C16	C	0.525365	0.075510	0.072136
C17	C	0.574701	0.116437	-0.000040
C18	C	0.459136	0.154439	-0.072319
C19	C	0.459122	0.154450	0.072141
C20	C	0.509667	0.195436	-0.000087
C21	C	0.314785	0.111856	-0.000055
C22	C	0.669700	0.118119	-0.000040
C23	C	0.998370	-0.038583	-0.000056
C24	C	0.996708	-0.131829	-0.000057
C25	C	0.912803	-0.346684	-0.000040
C26	C	0.951762	-0.407703	-0.072254
C27	C	0.993701	-0.302555	-0.000050
C28	C	0.951789	-0.407685	0.072141
C29	C	0.990790	-0.467468	-0.000039
C30	C	1.032681	-0.362346	-0.072324
C31	C	1.032697	-0.362321	0.072136
C32	C	1.071715	-0.423322	-0.000096
C33	C	0.995375	-0.207553	-0.000057
C34	C	0.989122	-0.562469	-0.000039
C35	C	1.145816	0.108859	-0.000055
C36	C	1.239062	0.110519	-0.000054
C37	C	0.986123	0.268555	-0.000037
C38	C	0.987785	0.361801	-0.000031
N39	N	0.992239	0.114982	-0.228222
C40	C	1.049359	0.057900	-0.453952
C41	C	1.049362	0.057898	-0.546142
C42	C	0.935135	0.172068	-0.546137
C43	C	0.935129	0.172065	-0.453949
C44	C	0.992246	0.114982	-0.407859
C45	C	0.992254	0.114983	-0.592237
C46	C	0.992257	0.114981	-0.692193
C47	C	0.992242	0.114983	-0.307897
N48	N	0.992261	0.114983	0.228127
H49	H	0.525159	0.263501	-0.000125
H50	H	0.554286	0.042145	0.133181
H51	H	1.066865	-0.342357	-0.133443
H52	H	0.917542	-0.427811	-0.133302
N53	N	0.455136	-0.050752	-0.000148
N54	N	0.379855	-0.065696	0.000467
H55	H	0.365965	-0.125945	0.000393
H56	H	1.138922	-0.456483	-0.000141
N57	N	0.876799	0.230379	-0.406846
N58	N	0.876806	0.230368	-0.324537
H59	H	0.835612	0.271550	-0.291268
H60	H	0.554303	0.042134	-0.133312
H61	H	0.430179	0.187774	0.133196
N62	N	0.422983	0.196259	-0.148975
N63	N	0.345053	0.201719	-0.161361
H64	H	0.319516	0.231256	-0.215497
H65	H	1.066888	-0.342191	0.133187
H66	H	0.845655	-0.313375	-0.000108
H67	H	1.095866	0.011419	-0.416428
N68	N	0.908843	-0.432883	0.148719
N69	N	0.833348	-0.405108	0.161569
H70	H	0.803010	-0.422902	0.215648
H71	H	1.095868	0.011416	-0.583668
H72	H	0.888632	0.218544	-0.583673
