data_functionalizedCrystal
_audit_creation_method	'MofGen! by Chris Wilmer'
_symmetry_space_group_name_H-M	'P1'
_symmetry_Int_Tables_number	1
_symmetry_cell_setting	triclinic
loop_
_symmetry_equiv_pos_as_xyz
  x,y,z
_cell_length_a	15.500227
_cell_length_b	14.519731
_cell_length_c	14.519709
_cell_angle_alpha	83.684499
_cell_angle_beta	92.832432
_cell_angle_gamma	87.149950
loop_
_atom_site_label
_atom_site_type_symbol
_atom_site_fract_x
_atom_site_fract_y
_atom_site_fract_z
O1	O	-0.071948	1.228138	0.116711
O2	O	0.178052	1.478138	0.366711
O3	O	0.428052	1.728138	0.616711
O4	O	0.678052	1.978138	0.866711
O5	O	-0.071949	0.959664	0.130927
O6	O	0.178051	1.209664	0.380927
O7	O	0.428051	1.459664	0.630927
O8	O	0.678051	1.709664	0.880927
O9	O	-0.071941	1.101019	-0.010419
O10	O	0.178059	1.351019	0.239581
O11	O	0.428059	1.601019	0.489581
O12	O	0.678059	1.851019	0.739581
O13	O	-0.071956	1.086784	0.258056
O14	O	0.178044	1.336784	0.508056
O15	O	0.428044	1.586784	0.758056
O16	O	0.678044	1.836784	1.008056
O17	O	0.071947	1.092441	-0.001875
O18	O	0.321947	1.342441	0.248125
O19	O	0.571947	1.592441	0.498125
O20	O	0.821947	1.842441	0.748125
O21	O	0.071939	0.951086	0.139470
O22	O	0.321939	1.201086	0.389470
O23	O	0.571939	1.451086	0.639470
O24	O	0.821939	1.701086	0.889470
O25	O	0.071940	1.219561	0.125254
O26	O	0.321940	1.469561	0.375254
O27	O	0.571940	1.719561	0.625254
O28	O	0.821940	1.969561	0.875254
Cu29	Cu	0.085078	1.084540	0.133142
Cu30	Cu	0.335078	1.334540	0.383142
Cu31	Cu	0.585078	1.584540	0.633142
Cu32	Cu	0.835078	1.834540	0.883142
Cu33	Cu	-0.085087	1.094685	0.123038
Cu34	Cu	0.164913	1.344685	0.373038
Cu35	Cu	0.414913	1.594685	0.623038
Cu36	Cu	0.664913	1.844685	0.873038
O37	O	0.071932	1.078206	0.266600
O38	O	0.321932	1.328206	0.516600
O39	O	0.571932	1.578206	0.766600
O40	O	0.821932	1.828206	1.016600
C41	C	-0.000005	0.921016	0.134532
C42	C	0.249995	1.171016	0.384532
C43	C	0.499995	1.421016	0.634532
C44	C	0.749995	1.671016	0.884532
C45	C	-0.000006	0.818636	0.132536
C46	C	0.249994	1.068636	0.382536
C47	C	0.499994	1.318636	0.632536
C48	C	0.749994	1.568636	0.882536
N49	N	0.204762	1.077412	0.140248
N50	N	0.454762	1.327412	0.390248
N51	N	0.704762	1.577412	0.640248
N52	N	0.954762	1.827412	0.890248
N53	N	-0.204771	1.101820	0.115925
N54	N	0.045229	1.351820	0.365925
N55	N	0.295229	1.601820	0.615925
N56	N	0.545229	1.851820	0.865925
C57	C	-0.000009	0.735492	0.130914
C58	C	0.249991	0.985492	0.380914
C59	C	0.499991	1.235492	0.630914
C60	C	0.749991	1.485492	0.880914
C61	C	-0.000009	0.631183	0.128887
C62	C	0.249991	0.881183	0.378887
C63	C	0.499991	1.131183	0.628887
C64	C	0.749991	1.381183	0.878887
C65	C	-0.000009	0.548044	0.127279
C66	C	0.249991	0.798044	0.377279
C67	C	0.499991	1.048044	0.627279
C68	C	0.749991	1.298044	0.877279
C69	C	-0.000011	0.443729	0.125252
C70	C	0.249989	0.693729	0.375252
C71	C	0.499989	0.943729	0.625252
C72	C	0.749989	1.193729	0.875252
C73	C	0.250043	1.137330	0.080377
C74	C	0.500043	1.387330	0.330377
C75	C	0.750043	1.637330	0.580377
C76	C	1.000043	1.887330	0.830377
C77	C	0.340615	1.131947	0.085760
C78	C	0.590615	1.381947	0.335760
C79	C	0.840615	1.631947	0.585760
C80	C	1.090615	1.881947	0.835760
C81	C	0.385906	1.066651	0.151018
C82	C	0.635906	1.316651	0.401018
C83	C	0.885906	1.566651	0.651018
C84	C	1.135906	1.816651	0.901018
C85	C	0.340619	1.006727	0.210892
C86	C	0.590619	1.256727	0.460892
C87	C	0.840619	1.506727	0.710892
C88	C	1.090619	1.756727	0.960892
C89	C	0.250048	1.012105	0.205504
C90	C	0.500048	1.262105	0.455504
C91	C	0.750048	1.512105	0.705504
C92	C	1.000048	1.762105	0.955504
C93	C	0.659371	1.047275	0.170411
C94	C	0.909371	1.297275	0.420411
C95	C	1.159371	1.547275	0.670411
C96	C	1.409371	1.797275	0.920411
C97	C	0.749949	1.041902	0.175796
C98	C	0.999949	1.291902	0.425796
C99	C	1.249949	1.541902	0.675796
C100	C	1.499949	1.791902	0.925796
C101	C	0.749938	1.167122	0.050662
C102	C	0.999938	1.417122	0.300662
C103	C	1.249938	1.667122	0.550662
C104	C	1.499938	1.917122	0.800662
C105	C	0.659366	1.172499	0.045284
C106	C	0.909366	1.422499	0.295284
C107	C	1.159366	1.672499	0.545284
C108	C	1.409366	1.922499	0.795284
C109	C	0.614087	1.112572	0.105155
C110	C	0.864087	1.362572	0.355155
C111	C	1.114087	1.612572	0.605155
C112	C	1.364087	1.862572	0.855155
C113	C	0.478485	1.061150	0.156523
C114	C	0.728485	1.311150	0.406523
C115	C	0.978485	1.561150	0.656523
C116	C	1.228485	1.811150	0.906523
C117	C	0.521509	1.118069	0.099644
C118	C	0.771509	1.368069	0.349644
C119	C	1.021509	1.618069	0.599644
C120	C	1.271509	1.868069	0.849644
C121	C	0.000004	1.096067	-0.040507
C122	C	0.250004	1.346067	0.209493
C123	C	0.500004	1.596067	0.459493
C124	C	0.750004	1.846067	0.709493
C125	C	0.000004	1.094078	-0.142888
C126	C	0.250004	1.344078	0.107112
C127	C	0.500004	1.594078	0.357112
C128	C	0.750004	1.844078	0.607112
C129	C	-0.000005	1.258209	0.121648
C130	C	0.249995	1.508209	0.371648
C131	C	0.499995	1.758209	0.621648
C132	C	0.749995	2.008209	0.871648
C133	C	-0.000011	1.360590	0.123644
C134	C	0.249989	1.610590	0.373644
C135	C	0.499989	1.860590	0.623644
C136	C	0.749989	2.110590	0.873644
C137	C	-0.000019	1.086760	-0.517786
C138	C	0.249981	1.336760	-0.267786
C139	C	0.499981	1.586760	-0.017786
C140	C	0.749981	1.836760	0.232214
C141	C	-0.000012	1.088793	-0.413478
C142	C	0.249988	1.338793	-0.163478
C143	C	0.499988	1.588793	0.086522
C144	C	0.749988	1.838793	0.336522
C145	C	-0.000006	1.090419	-0.330340
C146	C	0.249994	1.340419	-0.080340
C147	C	0.499994	1.590419	0.169660
C148	C	0.749994	1.840419	0.419660
C149	C	-0.000002	1.092452	-0.226025
C150	C	0.249998	1.342452	0.023975
C151	C	0.499998	1.592452	0.273975
C152	C	0.749998	1.842452	0.523975
C153	C	-0.000014	1.083158	0.296687
C154	C	0.249986	1.333158	0.546687
C155	C	0.499986	1.583158	0.796687
C156	C	0.749986	1.833158	1.046687
C157	C	-0.000021	1.085147	0.399069
C158	C	0.249979	1.335147	0.649069
C159	C	0.499979	1.585147	0.899069
C160	C	0.749979	1.835147	1.149069
H161	H	0.213173	1.190505	0.027241
H162	H	0.463173	1.440505	0.277241
H163	H	0.713173	1.690505	0.527241
H164	H	0.963173	1.940505	0.777241
Cl165	Cl	0.397540	1.207273	0.010491
Cl166	Cl	0.647540	1.457273	0.260491
Cl167	Cl	0.897540	1.707273	0.510491
Cl168	Cl	1.147540	1.957273	0.760491
H169	H	0.622492	1.225669	-0.007854
H170	H	0.872492	1.475669	0.242146
H171	H	1.122492	1.725669	0.492146
H172	H	1.372492	1.975669	0.742146
H173	H	0.515368	1.007985	0.209660
H174	H	0.765368	1.257985	0.459660
H175	H	1.015368	1.507985	0.709660
H176	H	1.265368	1.757985	0.959660
Cl177	Cl	0.806864	1.242452	-0.024602
Cl178	Cl	1.056864	1.492452	0.225398
Cl179	Cl	1.306864	1.742452	0.475398
Cl180	Cl	1.556864	1.992452	0.725398
Cl181	Cl	0.193125	0.936773	0.280771
Cl182	Cl	0.443125	1.186773	0.530771
Cl183	Cl	0.693125	1.436773	0.780771
Cl184	Cl	0.943125	1.686773	1.030771
H185	H	0.484631	1.171231	0.046507
H186	H	0.734631	1.421231	0.296507
H187	H	0.984631	1.671231	0.546507
H188	H	1.234631	1.921231	0.796507
H189	H	0.786820	0.988727	0.228941
H190	H	1.036820	1.238727	0.478941
H191	H	1.286820	1.488727	0.728941
H192	H	1.536820	1.738727	0.978941
Cl193	Cl	0.602456	0.971943	0.245678
Cl194	Cl	0.852456	1.221943	0.495678
Cl195	Cl	1.102456	1.471943	0.745678
Cl196	Cl	1.352456	1.721943	0.995678
H197	H	0.377500	0.953556	0.264024
H198	H	0.627500	1.203556	0.514024
H199	H	0.877500	1.453556	0.764024
H200	H	1.127500	1.703556	1.014024
