data_functionalizedCrystal
_audit_creation_method	'MofGen! by Chris Wilmer'
_symmetry_space_group_name_H-M	'P1'
_symmetry_Int_Tables_number	1
_symmetry_cell_setting	triclinic
loop_
_symmetry_equiv_pos_as_xyz
  x,y,z
_cell_length_a	19.288864
_cell_length_b	13.339070
_cell_length_c	17.766277
_cell_angle_alpha	89.997794
_cell_angle_beta	89.976791
_cell_angle_gamma	99.382770
loop_
_atom_site_label
_atom_site_type_symbol
_atom_site_fract_x
_atom_site_fract_y
_atom_site_fract_z
O1	O	0.945924	0.126087	-0.062840
O2	O	0.746977	0.143096	-0.062789
O3	O	0.823618	-0.012568	-0.062806
O4	O	0.869283	0.281751	-0.062822
O5	O	0.823598	-0.012576	0.062383
O6	O	0.746957	0.143088	0.062400
O7	O	0.945903	0.126079	0.062349
Cu8	Cu	0.846428	0.134583	0.073805
Cu9	Cu	0.846452	0.134592	-0.074245
O10	O	0.869263	0.281743	0.062366
C11	C	0.720984	0.142544	-0.000188
C12	C	0.643560	0.140901	-0.000168
C13	C	0.815894	-0.050226	-0.000211
C14	C	0.792901	-0.162423	-0.000208
C15	C	0.616663	0.232238	-0.000185
C16	C	0.543915	0.230694	-0.000193
C17	C	0.498067	0.137809	-0.000200
C18	C	0.524972	0.046461	-0.000178
C19	C	0.597719	0.048007	-0.000163
C20	C	0.375583	0.064794	-0.044080
C21	C	0.302838	0.063252	-0.044100
C22	C	0.273691	0.133037	-0.000245
C23	C	0.317301	0.204382	0.043621
C24	C	0.390047	0.205928	0.043637
C25	C	0.419184	0.136123	-0.000216
C26	C	0.167913	0.222706	-0.000270
C27	C	0.095163	0.221159	-0.000273
C28	C	0.076222	0.036923	-0.000266
C29	C	0.148970	0.038473	-0.000255
C30	C	0.194812	0.131367	-0.000260
C31	C	0.971681	-0.528031	-0.000253
C32	C	0.993286	-0.422617	-0.000252
C33	C	0.943192	-0.357563	-0.000241
C34	C	0.871489	-0.397934	-0.000231
C35	C	0.849881	-0.503359	-0.000227
C36	C	0.821392	-0.332891	-0.000215
C37	C	0.749689	-0.373262	-0.000205
C38	C	0.728085	-0.478677	-0.000201
C39	C	0.778180	-0.543730	-0.000212
C40	C	0.842999	-0.227467	-0.000219
C41	C	0.721199	-0.202795	-0.000193
C42	C	0.699594	-0.308209	-0.000195
C43	C	0.971897	0.126630	-0.000254
C44	C	1.049320	0.128273	-0.000278
C45	C	0.876987	0.319401	-0.000231
C46	C	0.899980	0.431598	-0.000238
N47	N	0.846416	0.134575	0.177935
N48	N	0.846468	0.134591	-0.178375
C49	C	0.880375	0.065681	0.217315
C50	C	0.880378	0.065676	0.296116
C51	C	0.846433	0.134583	0.335536
C52	C	0.812467	0.203483	0.296147
C53	C	0.812459	0.203479	0.217347
C54	C	0.855080	0.226676	0.460370
C55	C	0.855093	0.226682	0.539169
C56	C	0.846454	0.134595	0.578582
C57	C	0.837815	0.042500	0.539187
C58	C	0.837807	0.042496	0.460387
C59	C	0.846437	0.134595	0.420982
C60	C	0.880417	0.065690	0.703408
C61	C	0.880415	0.065684	0.782211
C62	C	0.812509	0.203500	0.782240
C63	C	0.812506	0.203497	0.703438
C64	C	0.846463	0.134593	0.664027
H65	H	0.653984	0.307880	-0.000191
H66	H	0.680408	-0.149828	-0.000180
H67	H	0.908031	0.009572	0.328185
O68	O	0.775827	0.277795	0.174877
H69	H	0.733890	0.235365	0.139006
H70	H	0.830779	-0.032485	0.571275
H71	H	0.862104	0.301669	0.428287
O72	O	0.622260	-0.351763	-0.000179
H73	H	0.591051	-0.288825	-0.000178
O74	O	0.026777	-0.063261	-0.000264
H75	H	0.057706	-0.126516	-0.000245
H76	H	0.908065	0.009582	0.671317
O77	O	0.775862	0.277820	0.338654
H78	H	0.733938	0.235411	0.374590
O79	O	0.066153	0.319681	-0.000286
H80	H	0.007866	0.303003	-0.000285
H81	H	0.522011	0.305074	-0.000205
H82	H	0.830771	-0.032491	0.428314
H83	H	0.619617	-0.026373	-0.000149
O84	O	0.920333	-0.183937	-0.000240
H85	H	0.933087	-0.136511	0.050785
O86	O	0.917052	-0.008616	0.824690
H87	H	0.940671	-0.056515	0.784043
O88	O	0.217359	0.322897	-0.000260
H89	H	0.250979	0.328023	-0.051282
O90	O	0.177984	-0.060044	-0.000239
H91	H	0.210709	-0.063743	-0.051253
O92	O	0.916992	-0.008647	0.174812
H93	H	0.958924	0.033771	0.138889
O94	O	0.255803	-0.013704	-0.091400
H95	H	0.288288	-0.061987	-0.121878
H96	H	0.960787	-0.271731	-0.000240
H97	H	0.399307	0.007964	-0.079797
H98	H	0.425551	0.264016	0.079357
O99	O	0.775896	0.277827	0.824744
H100	H	0.781610	0.266261	0.886155
H101	H	0.784857	0.259601	0.671374
H102	H	0.487638	-0.029167	-0.000194
H103	H	0.862132	0.301671	0.571239
H104	H	1.012460	-0.581006	-0.000256
O105	O	0.285878	0.279654	0.090933
H106	H	0.227966	0.266587	0.083564
H107	H	1.051667	-0.389754	-0.000259
H108	H	0.760592	-0.629568	-0.000216
H109	H	0.669700	-0.511543	-0.000188
