data_functionalizedCrystal
_audit_creation_method	'MofGen! by Chris Wilmer'
_symmetry_space_group_name_H-M	'P1'
_symmetry_Int_Tables_number	1
_symmetry_cell_setting	triclinic
loop_
_symmetry_equiv_pos_as_xyz
  x,y,z
_cell_length_a	12.759395
_cell_length_b	25.639240
_cell_length_c	25.639234
_cell_angle_alpha	90.028287
_cell_angle_beta	90.009129
_cell_angle_gamma	90.033519
loop_
_atom_site_label
_atom_site_type_symbol
_atom_site_fract_x
_atom_site_fract_y
_atom_site_fract_z
Zn1	Zn	1.606013	-0.208192	0.295568
Zn2	Zn	2.106013	0.291808	0.795568
Zn3	Zn	1.605885	-0.295614	0.208121
Zn4	Zn	2.105885	0.204386	0.708121
Zn5	Zn	1.430348	-0.208196	0.208148
Zn6	Zn	1.930348	0.291804	0.708148
Zn7	Zn	1.430249	-0.295599	0.295527
Zn8	Zn	1.930249	0.204401	0.795527
O9	O	1.518124	-0.251900	0.251841
O10	O	2.018124	0.248100	0.751841
O11	O	1.753017	-0.219793	0.283974
O12	O	2.253017	0.280207	0.783974
O13	O	1.582588	-0.284026	0.134960
O14	O	2.082588	0.215974	0.634960
O15	O	1.453746	-0.135030	0.219773
O16	O	1.953746	0.364970	0.719773
O17	O	1.752923	-0.284022	0.219727
O18	O	2.252923	0.215978	0.719727
O19	O	1.582806	-0.135027	0.284000
O20	O	2.082806	0.364973	0.784000
O21	O	1.453621	-0.219800	0.134979
O22	O	1.953621	0.280200	0.634979
O23	O	1.283314	-0.219785	0.219733
O24	O	1.783314	0.280215	0.719733
O25	O	1.453576	-0.283996	0.368698
O26	O	1.953576	0.216004	0.868698
O27	O	1.283241	-0.284000	0.283931
O28	O	1.783241	0.216000	0.783931
O29	O	1.582710	-0.219778	0.368728
O30	O	2.082710	0.280222	0.868728
O31	O	1.582491	-0.368777	0.219688
O32	O	2.082491	0.131223	0.719688
O33	O	1.453452	-0.368766	0.283905
O34	O	1.953452	0.131234	0.783905
C35	C	1.245156	-0.251892	0.251831
C36	C	1.745156	0.248108	0.751831
C37	C	1.128380	-0.251901	0.251839
C38	C	1.628380	0.248099	0.751839
C39	C	0.909043	-0.185139	0.318864
C40	C	1.409043	0.314861	0.818864
C41	C	0.963958	-0.151747	0.352362
C42	C	1.463958	0.348253	0.852362
C43	C	1.073680	-0.151738	0.352353
C44	C	1.573680	0.348262	0.852353
C45	C	1.128489	-0.185126	0.318844
C46	C	1.628489	0.314874	0.818844
C47	C	1.073573	-0.218518	0.285346
C48	C	1.573573	0.281482	0.785346
C49	C	0.963849	-0.218522	0.285357
C50	C	1.463849	0.281478	0.785357
C51	C	1.073464	-0.285293	0.218341
C52	C	1.573464	0.214707	0.718341
C53	C	0.963743	-0.285300	0.218347
C54	C	1.463743	0.214700	0.718347
C55	C	1.128273	-0.318681	0.184832
C56	C	1.628273	0.181319	0.684832
C57	C	1.073358	-0.352071	0.151330
C58	C	1.573358	0.147929	0.651330
C59	C	0.963630	-0.352078	0.151340
C60	C	1.463630	0.147922	0.651340
C61	C	0.908828	-0.318692	0.184849
C62	C	1.408828	0.181308	0.684849
C63	C	1.517975	-0.387743	0.251800
C64	C	2.017975	0.112257	0.751800
C65	C	1.518008	-0.445857	0.251800
C66	C	2.018008	0.054143	0.751800
C67	C	1.585359	-0.806180	0.285344
C68	C	2.085359	-0.306180	0.785344
C69	C	1.585390	-0.860784	0.285355
C70	C	2.085390	-0.360784	0.785355
O71	O	1.642478	-0.888987	0.313833
O72	O	2.142478	-0.388987	0.813833
N73	N	1.518270	-0.888139	0.251892
N74	N	2.018270	-0.388139	0.751892
C75	C	1.451106	-0.860887	0.218419
C76	C	1.951106	-0.360887	0.718419
O77	O	1.394017	-0.889169	0.189957
O78	O	1.894017	-0.389169	0.689957
C79	C	1.451071	-0.806284	0.218412
C80	C	1.951071	-0.306284	0.718412
C81	C	1.518203	-0.778931	0.251873
C82	C	2.018203	-0.278931	0.751873
C83	C	1.652485	-0.778827	0.318804
C84	C	2.152485	-0.278827	0.818804
C85	C	1.652455	-0.724227	0.318792
C86	C	2.152455	-0.224227	0.818792
C87	C	1.585299	-0.696979	0.285321
C88	C	2.085299	-0.196979	0.785321
C89	C	1.518173	-0.724331	0.251862
C90	C	2.018173	-0.224331	0.751862
C91	C	1.383903	-0.779033	0.184942
C92	C	1.883903	-0.279033	0.684942
C93	C	1.383873	-0.724426	0.184938
C94	C	1.883873	-0.224426	0.684938
C95	C	1.451005	-0.697073	0.218400
C96	C	1.951005	-0.197073	0.718400
C97	C	1.450987	-0.642482	0.218380
C98	C	1.950987	-0.142482	0.718380
N99	N	1.518108	-0.615127	0.251843
N100	N	2.018108	-0.115127	0.751843
C101	C	1.585264	-0.642375	0.285314
C102	C	2.085264	-0.142375	0.785314
C103	C	1.451185	-0.975558	0.218438
C104	C	1.951185	-0.475558	0.718438
C105	C	1.451225	-1.030160	0.218443
C106	C	1.951225	-0.530160	0.718443
C107	C	1.585507	-1.030053	0.285380
C108	C	2.085507	-0.530053	0.785380
C109	C	1.585472	-0.975450	0.285372
C110	C	2.085472	-0.475450	0.785372
C111	C	1.518305	-0.948203	0.251902
C112	C	2.018305	-0.448203	0.751902
C113	C	1.585197	-0.527710	0.285287
C114	C	2.085197	-0.027710	0.785287
C115	C	1.585164	-0.473105	0.285271
C116	C	2.085164	0.026895	0.785271
C117	C	1.450878	-0.473216	0.218337
C118	C	1.950878	0.026784	0.718337
C119	C	1.450914	-0.527817	0.218350
C120	C	1.950914	-0.027817	0.718350
C121	C	1.518077	-0.555063	0.251830
C122	C	2.018077	-0.055063	0.751830
O123	O	1.393926	-0.614245	0.189917
O124	O	1.893926	-0.114245	0.689917
O125	O	1.642333	-0.614087	0.313776
O126	O	2.142333	-0.114087	0.813776
C127	C	1.792157	-0.251909	0.251852
C128	C	2.292157	0.248091	0.751852
C129	C	1.908934	-0.251912	0.251856
C130	C	2.408934	0.248088	0.751856
C131	C	1.518146	-0.251885	0.388214
C132	C	2.018146	0.248115	0.888214
C133	C	1.518156	-0.251879	0.446328
C134	C	2.018156	0.248121	0.946328
C135	C	1.518301	-0.115527	0.251894
C136	C	2.018301	0.384473	0.751894
C137	C	1.518377	-0.057413	0.251916
C138	C	2.018377	0.442587	0.751916
C139	C	1.518162	-0.251877	0.115999
C140	C	2.018162	0.248123	0.615999
C141	C	1.518356	-0.251736	0.057885
C142	C	2.018356	0.248264	0.557885
C143	C	1.450986	-0.285251	0.697501
C144	C	1.950986	0.214749	1.197501
C145	C	1.450968	-0.285263	0.642896
C146	C	1.950968	0.214737	1.142896
O147	O	1.393757	-0.313690	0.614642
O148	O	1.893757	0.186310	1.114642
N149	N	1.518196	-0.251837	0.615602
N150	N	2.018196	0.248163	1.115602
C151	C	1.585439	-0.218393	0.642915
C152	C	2.085439	0.281607	1.142915
O153	O	1.642620	-0.189961	0.614686
O154	O	2.142620	0.310039	1.114686
C155	C	1.585452	-0.218379	0.697519
C156	C	2.085452	0.281621	1.197519
C157	C	1.518227	-0.251811	0.724810
C158	C	2.018227	0.248189	1.224810
C159	C	1.383765	-0.318681	0.724792
C160	C	1.883765	0.181319	1.224792
C161	C	1.383786	-0.318670	0.779392
C162	C	1.883786	0.181330	1.279392
C163	C	1.451026	-0.285229	0.806702
C164	C	1.951026	0.214771	1.306702
C165	C	1.518247	-0.251800	0.779410
C166	C	2.018247	0.248200	1.279410
C167	C	1.652689	-0.184932	0.724831
C168	C	2.152689	0.315068	1.224831
C169	C	1.652695	-0.184921	0.779438
C170	C	2.152695	0.315079	1.279438
C171	C	1.585470	-0.218353	0.806729
C172	C	2.085470	0.281647	1.306729
C173	C	1.585507	-0.218348	0.861320
C174	C	2.085507	0.281652	1.361320
N175	N	1.518279	-0.251775	0.888614
N176	N	2.018279	0.248225	1.388614
C177	C	1.451038	-0.285215	0.861305
C178	C	1.951038	0.214785	1.361305
C179	C	1.585407	-0.218424	0.528245
C180	C	2.085407	0.281576	1.028245
C181	C	1.585401	-0.218440	0.473642
C182	C	2.085401	0.281560	0.973642
C183	C	1.450927	-0.285310	0.473627
C184	C	1.950927	0.214690	0.973627
C185	C	1.450940	-0.285296	0.528230
C186	C	1.950940	0.214704	1.028230
C187	C	1.518179	-0.251850	0.555539
C188	C	2.018179	0.248150	1.055539
C189	C	1.451086	-0.285189	0.975970
C190	C	1.951086	0.214811	1.475970
C191	C	1.451115	-0.285177	1.030576
C192	C	1.951115	0.214823	1.530576
C193	C	1.585585	-0.218305	1.030586
C194	C	2.085585	0.281695	1.530586
C195	C	1.585560	-0.218319	0.975986
C196	C	2.085560	0.281681	1.475986
C197	C	1.518302	-0.251763	0.948679
C198	C	2.018302	0.248237	1.448679
O199	O	1.642686	-0.189934	0.889610
O200	O	2.142686	0.310066	1.389610
O201	O	1.393858	-0.313636	0.889541
O202	O	1.893858	0.186364	1.389541
H203	H	1.639835	-0.450836	0.312520
H204	H	2.139835	0.049164	0.812520
H205	H	1.396258	-0.550088	0.191099
H206	H	1.896258	-0.050088	0.691099
H207	H	0.819702	-0.185132	0.318864
H208	H	1.319702	0.314868	0.818864
H209	H	1.707432	-0.157708	0.702620
H210	H	2.207432	0.342292	1.202620
H211	H	1.217614	-0.318674	0.184830
H212	H	1.717614	0.181326	0.684830
H213	H	0.919321	-0.124564	0.379646
H214	H	1.419321	0.375436	0.879646
Br215	Br	1.277398	-0.185122	0.318841
Br216	Br	1.777398	0.314878	0.818841
Br217	Br	1.359744	-0.436226	0.172913
Br218	Br	1.859744	0.063774	0.672913
H219	H	1.639880	-0.549887	0.312553
H220	H	2.139880	-0.049887	0.812553
H221	H	1.707117	-0.701960	0.346041
H222	H	2.207117	-0.201960	0.846041
H223	H	1.329237	-0.801294	0.157694
H224	H	1.829237	-0.301294	0.657694
Br225	Br	1.676657	-0.173075	0.436611
Br226	Br	2.176657	0.326925	0.936611
Br227	Br	1.743632	-0.815797	0.364238
Br228	Br	2.243632	-0.315797	0.864238
Br229	Br	1.360026	-0.938585	0.173007
Br230	Br	1.860026	-0.438585	0.673007
H231	H	1.329041	-0.345892	0.801608
H232	H	1.829041	0.154108	1.301608
Br233	Br	1.676839	-0.172925	1.067659
Br234	Br	2.176839	0.327075	1.567659
H235	H	1.329004	-0.345912	0.702562
H236	H	1.829004	0.154088	1.202562
H237	H	1.329174	-0.702244	0.157683
H238	H	1.829174	-0.202244	0.657683
Br239	Br	0.889111	-0.397405	0.105882
Br240	Br	1.389111	0.102595	0.605882
Br241	Br	1.148212	-0.106424	0.397818
Br242	Br	1.648212	0.393576	0.897818
Br243	Br	1.359674	-0.330696	0.436554
Br244	Br	1.859674	0.169304	0.936554
H245	H	0.819486	-0.318688	0.184854
H246	H	1.319486	0.181312	0.684854
H247	H	1.640169	-0.191189	0.550476
H248	H	2.140169	0.308811	1.050476
H249	H	1.707446	-0.157682	0.801669
H250	H	2.207446	0.342318	1.301669
Br251	Br	1.359881	-0.330555	1.067611
Br252	Br	1.859881	0.169445	1.567611
H253	H	1.117992	-0.379255	0.124052
H254	H	1.617992	0.120745	0.624052
H255	H	1.640136	-0.953183	0.312620
H256	H	2.140136	-0.453183	0.812620
H257	H	1.396309	-0.312418	0.953744
H258	H	1.896309	0.187582	1.453744
H259	H	1.640307	-0.191099	0.953764
H260	H	2.140307	0.308901	1.453764
Br261	Br	1.360131	-1.067274	0.173020
Br262	Br	1.860131	-0.567274	0.673020
Br263	Br	1.676649	-1.067043	0.330805
Br264	Br	2.176649	-0.567043	0.830805
Br265	Br	1.359702	-0.330670	0.565263
Br266	Br	1.859702	0.169330	1.065263
