data_functionalizedCrystal
_audit_creation_method	'MofGen! by Chris Wilmer'
_symmetry_space_group_name_H-M	'P1'
_symmetry_Int_Tables_number	1
_symmetry_cell_setting	triclinic
loop_
_symmetry_equiv_pos_as_xyz
  x,y,z
_cell_length_a	12.759395
_cell_length_b	13.897447
_cell_length_c	12.759395
_cell_angle_alpha	90.009767
_cell_angle_beta	90.005123
_cell_angle_gamma	90.021067
loop_
_atom_site_label
_atom_site_type_symbol
_atom_site_fract_x
_atom_site_fract_y
_atom_site_fract_z
Zn1	Zn	1.606074	-0.384131	0.594000
Zn2	Zn	1.605997	-0.545397	0.418319
Zn3	Zn	1.430419	-0.384122	0.418337
Zn4	Zn	1.430350	-0.545390	0.593957
O5	O	1.518210	-0.464760	0.506153
O6	O	1.753085	-0.405530	0.570705
O7	O	1.582703	-0.524004	0.271300
O8	O	1.453782	-0.249142	0.441664
O9	O	1.753028	-0.524012	0.441633
O10	O	1.582834	-0.249148	0.570723
O11	O	1.453707	-0.405516	0.271313
O12	O	1.283389	-0.405508	0.441623
O13	O	1.453663	-0.523999	0.740984
O14	O	1.283338	-0.523991	0.570651
O15	O	1.582767	-0.405523	0.741015
O16	O	1.582636	-0.680378	0.441592
O17	O	1.453588	-0.680372	0.570633
C18	C	1.245242	-0.464748	0.506135
C19	C	1.128466	-0.464767	0.506152
C20	C	1.518124	-0.715375	0.506129
C21	C	1.518184	-0.822588	0.506154
C22	C	1.128451	-0.588342	0.640291
C23	C	1.073583	-0.650137	0.707364
C24	C	0.963861	-0.650149	0.707377
C25	C	0.909005	-0.588357	0.640312
C26	C	0.963873	-0.526561	0.573240
C27	C	1.073598	-0.526558	0.573232
C28	C	0.963888	-0.402983	0.439107
C29	C	1.073610	-0.402974	0.439088
C30	C	0.909032	-0.341191	0.372043
C31	C	0.963900	-0.279399	0.304963
C32	C	1.073628	-0.279390	0.304952
C33	C	1.128478	-0.341179	0.372015
C34	C	1.518235	-0.909658	0.506178
C35	C	1.518308	-1.018891	0.506205
C36	C	1.792243	-0.464773	0.506172
C37	C	1.909020	-0.464778	0.506180
C38	C	1.518216	-0.464761	0.780187
C39	C	1.518218	-0.464761	0.896963
C40	C	1.518324	-0.213167	0.506201
C41	C	1.518373	-0.105953	0.506221
C42	C	1.652663	-0.341400	0.897016
C43	C	1.719885	-0.279724	0.951902
C44	C	1.719881	-0.279727	1.061624
C45	C	1.652646	-0.341410	1.116461
C46	C	1.585423	-0.403086	1.061574
C47	C	1.585437	-0.403079	0.951850
C48	C	1.450975	-0.526441	1.061522
C49	C	1.450982	-0.526445	0.951801
C50	C	1.383739	-0.588125	1.116359
C51	C	1.316520	-0.649807	1.061472
C52	C	1.316528	-0.649802	0.951744
C53	C	1.383760	-0.588121	0.896914
C54	C	1.518197	-0.464777	1.233186
C55	C	1.518197	-0.464765	1.116409
H56	H	1.217792	-0.588346	0.640280
O57	O	1.251376	-0.709764	0.898310
C58	C	1.237187	-0.840029	0.774449
C59	C	1.311087	-0.772168	0.834876
H60	H	1.285435	-0.890514	0.723165
H61	H	1.182300	-0.795788	0.723007
H62	H	1.189110	-0.884069	0.832509
H63	H	1.359232	-0.728113	0.776893
H64	H	1.365905	-0.816464	0.886335
O65	O	0.802449	-0.341048	0.372147
C66	C	0.645019	-0.248620	0.399270
C67	C	0.765723	-0.248652	0.399220
H68	H	0.615289	-0.173922	0.421135
H69	H	0.615168	-0.303347	0.458759
H70	H	0.615239	-0.268562	0.317870
H71	H	0.795591	-0.228686	0.480576
H72	H	0.795502	-0.193945	0.339676
H73	H	1.774613	-0.229499	1.106313
O74	O	0.910778	-0.219289	0.239791
C75	C	0.922360	-0.096758	0.106692
C76	C	0.982656	-0.164766	0.180466
H77	H	0.980447	-0.052672	0.058694
H78	H	0.871051	-0.046331	0.154986
H79	H	0.870931	-0.140981	0.051727
H80	H	1.034142	-0.120621	0.235446
H81	H	1.033899	-0.215195	0.132108
H82	H	1.118296	-0.229062	0.250341
H83	H	1.217819	-0.341181	0.372010
O84	O	1.785168	-0.219903	0.898471
C85	C	1.844737	-0.165192	0.729462
C86	C	1.770769	-0.233002	0.789836
H87	H	1.833105	-0.175745	0.641620
H88	H	1.929462	-0.182153	0.750970
H89	H	1.826348	-0.087420	0.751110
H90	H	1.789063	-0.310797	0.768220
H91	H	1.686066	-0.215959	0.768322
H92	H	1.118259	-0.700445	0.761968
H93	H	1.383777	-0.588115	0.807572
O94	O	1.383738	-0.588307	1.222942
C95	C	1.410729	-0.680785	1.380375
C96	C	1.410743	-0.680713	1.259671
H97	H	1.432582	-0.755482	1.410108
H98	H	1.329376	-0.660821	1.410218
H99	H	1.470295	-0.626073	1.410161
H100	H	1.351229	-0.735426	1.229796
H101	H	1.492134	-0.700634	1.229900
H102	H	1.652640	-0.341399	1.205802
O103	O	1.251116	-0.709751	1.114577
C104	C	1.117809	-0.832154	1.102957
C105	C	1.191808	-0.764299	1.042682
H106	H	1.069855	-0.876288	1.044857
H107	H	1.062821	-0.787907	1.154293
H108	H	1.166031	-0.882551	1.154358
H109	H	1.143670	-0.713888	0.991225
H110	H	1.246798	-0.808606	0.991412
O111	O	0.910720	-0.710260	0.772570
C112	C	0.922271	-0.832780	0.905676
C113	C	0.982584	-0.764775	0.831879
H114	H	0.980348	-0.876859	0.953663
H115	H	0.870903	-0.883214	0.857402
H116	H	0.870900	-0.788555	0.960652
H117	H	1.034012	-0.808922	0.776889
H118	H	1.033887	-0.714339	0.880219
O119	O	0.802422	-0.588516	0.640427
C120	C	0.644959	-0.656290	0.714094
C121	C	0.765663	-0.656224	0.714056
H122	H	0.615202	-0.711011	0.773633
H123	H	0.615089	-0.676243	0.632729
H124	H	0.615225	-0.581601	0.735997
H125	H	0.795486	-0.730889	0.692198
H126	H	0.795462	-0.636216	0.795431
H127	H	1.652683	-0.341400	0.807674
