data_functionalizedCrystal
_audit_creation_method	'MofGen! by Chris Wilmer'
_symmetry_space_group_name_H-M	'P1'
_symmetry_Int_Tables_number	1
_symmetry_cell_setting	triclinic
loop_
_symmetry_equiv_pos_as_xyz
  x,y,z
_cell_length_a	21.395364
_cell_length_b	21.395361
_cell_length_c	21.395355
_cell_angle_alpha	89.978489
_cell_angle_beta	89.975484
_cell_angle_gamma	90.026472
loop_
_atom_site_label
_atom_site_type_symbol
_atom_site_fract_x
_atom_site_fract_y
_atom_site_fract_z
Zn1	Zn	0.957859	-0.249582	-0.354248
Zn2	Zn	1.207859	0.000418	-0.104248
Zn3	Zn	1.457859	0.250418	0.145752
Zn4	Zn	1.707859	0.500418	0.395752
Zn5	Zn	0.957761	-0.354342	-0.249465
Zn6	Zn	1.207761	-0.104342	0.000535
Zn7	Zn	1.457761	0.145658	0.250535
Zn8	Zn	1.707761	0.395658	0.500535
Zn9	Zn	0.853074	-0.249574	-0.249485
Zn10	Zn	1.103074	0.000426	0.000515
Zn11	Zn	1.353074	0.250426	0.250515
Zn12	Zn	1.603074	0.500426	0.500515
Zn13	Zn	0.853043	-0.354318	-0.354205
Zn14	Zn	1.103043	-0.104318	-0.104205
Zn15	Zn	1.353043	0.145682	0.145795
Zn16	Zn	1.603043	0.395682	0.395795
O17	O	0.905434	-0.301954	-0.301851
O18	O	1.155434	-0.051954	-0.051851
O19	O	1.405434	0.198046	0.198149
O20	O	1.655434	0.448046	0.448149
O21	O	1.045524	-0.263492	-0.340358
O22	O	1.295524	-0.013492	-0.090358
O23	O	1.545524	0.236508	0.159642
O24	O	1.795524	0.486508	0.409642
O25	O	0.943847	-0.340451	-0.161789
O26	O	1.193847	-0.090451	0.088211
O27	O	1.443847	0.159549	0.338211
O28	O	1.693847	0.409549	0.588211
O29	O	0.867028	-0.161897	-0.263408
O30	O	1.117028	0.088103	-0.013408
O31	O	1.367028	0.338103	0.236592
O32	O	1.617028	0.588103	0.486592
O33	O	1.045452	-0.340458	-0.263374
O34	O	1.295452	-0.090458	-0.013374
O35	O	1.545452	0.159542	0.236626
O36	O	1.795452	0.409542	0.486626
O37	O	0.944013	-0.161903	-0.340377
O38	O	1.194013	0.088097	-0.090377
O39	O	1.444013	0.338097	0.159623
O40	O	1.694013	0.588097	0.409623
O41	O	0.866933	-0.263479	-0.161804
O42	O	1.116933	-0.013479	0.088196
O43	O	1.366933	0.236521	0.338196
O44	O	1.616933	0.486521	0.588196
O45	O	0.765392	-0.263456	-0.263366
O46	O	1.015392	-0.013456	-0.013366
O47	O	1.265392	0.236544	0.236634
O48	O	1.515392	0.486544	0.486634
O49	O	0.866975	-0.340418	-0.441889
O50	O	1.116975	-0.090418	-0.191889
O51	O	1.366975	0.159582	0.058111
O52	O	1.616975	0.409582	0.308111
O53	O	0.765369	-0.340410	-0.340304
O54	O	1.015369	-0.090410	-0.090304
O55	O	1.265369	0.159590	0.159696
O56	O	1.515369	0.409590	0.409696
O57	O	0.943983	-0.263469	-0.441920
O58	O	1.193983	-0.013469	-0.191920
O59	O	1.443983	0.236531	0.058080
O60	O	1.693983	0.486531	0.308080
O61	O	0.943817	-0.442016	-0.263333
O62	O	1.193817	-0.192016	-0.013333
O63	O	1.443817	0.057984	0.236667
O64	O	1.693817	0.307984	0.486667
O65	O	0.866881	-0.441999	-0.340285
O66	O	1.116881	-0.191999	-0.090285
O67	O	1.366881	0.058001	0.159715
O68	O	1.616881	0.308001	0.409715
C69	C	0.742647	-0.301930	-0.301833
C70	C	0.992647	-0.051930	-0.051833
C71	C	1.242647	0.198070	0.198167
C72	C	1.492647	0.448070	0.448167
C73	C	0.673006	-0.301935	-0.301840
C74	C	0.923006	-0.051935	-0.051840
C75	C	1.173006	0.198065	0.198160
C76	C	1.423006	0.448065	0.448160
C77	C	0.171246	-0.261972	-0.342010
C78	C	0.421246	-0.011972	-0.092010
C79	C	0.671246	0.238028	0.157990
C80	C	0.921246	0.488028	0.407990
C81	C	0.236681	-0.261967	-0.342010
C82	C	0.486681	-0.011967	-0.092010
C83	C	0.736681	0.238033	0.157990
C84	C	0.986681	0.488033	0.407990
C85	C	0.269367	-0.301973	-0.301865
C86	C	0.519367	-0.051973	-0.051865
C87	C	0.769367	0.198027	0.198135
C88	C	1.019367	0.448027	0.448135
C89	C	0.236612	-0.341998	-0.261728
C90	C	0.486612	-0.091998	-0.011728
C91	C	0.736612	0.158002	0.238272
C92	C	0.986612	0.408002	0.488272
C93	C	0.171178	-0.342006	-0.261734
C94	C	0.421178	-0.092006	-0.011734
C95	C	0.671178	0.157994	0.238266
C96	C	0.921178	0.407994	0.488266
C97	C	0.373004	-0.306825	-0.245397
C98	C	0.623004	-0.056825	0.004603
C99	C	0.873004	0.193175	0.254603
C100	C	1.123004	0.443175	0.504603
C101	C	0.438437	-0.306813	-0.245390
C102	C	0.688437	-0.056813	0.004610
C103	C	0.938437	0.193187	0.254610
C104	C	1.188437	0.443187	0.504610
C105	C	0.471188	-0.301952	-0.301847
C106	C	0.721188	-0.051952	-0.051847
C107	C	0.971188	0.198048	0.198153
C108	C	1.221188	0.448048	0.448153
C109	C	0.438498	-0.297091	-0.358313
C110	C	0.688498	-0.047091	-0.108313
C111	C	0.938498	0.202909	0.141687
C112	C	1.188498	0.452909	0.391687
C113	C	0.373064	-0.297099	-0.358318
C114	C	0.623064	-0.047099	-0.108318
C115	C	0.873064	0.202901	0.141682
C116	C	1.123064	0.452901	0.391682
C117	C	0.340320	-0.301969	-0.301854
C118	C	0.590320	-0.051969	-0.051854
C119	C	0.840320	0.198031	0.198146
C120	C	1.090320	0.448031	0.448146
C121	C	0.574888	-0.261928	-0.341984
C122	C	0.824888	-0.011928	-0.091984
C123	C	1.074888	0.238072	0.158016
C124	C	1.324888	0.488072	0.408016
C125	C	0.640324	-0.261928	-0.341985
C126	C	0.890324	-0.011928	-0.091985
C127	C	1.140324	0.238072	0.158015
C128	C	1.390324	0.488072	0.408015
C129	C	0.640254	-0.341955	-0.261698
C130	C	0.890254	-0.091955	-0.011698
C131	C	1.140254	0.158045	0.238302
C132	C	1.390254	0.408045	0.488302
C133	C	0.574818	-0.341959	-0.261702
C134	C	0.824818	-0.091959	-0.011702
C135	C	1.074818	0.158041	0.238298
C136	C	1.324818	0.408041	0.488298
C137	C	0.542139	-0.301942	-0.301845
C138	C	0.792139	-0.051942	-0.051845
C139	C	1.042139	0.198058	0.198155
C140	C	1.292139	0.448058	0.448155
C141	C	0.905352	-0.464742	-0.301816
C142	C	1.155352	-0.214742	-0.051816
C143	C	1.405352	0.035258	0.198184
C144	C	1.655352	0.285258	0.448184
C145	C	0.905374	-0.534383	-0.301822
C146	C	1.155374	-0.284383	-0.051822
C147	C	1.405374	-0.034383	0.198178
C148	C	1.655374	0.215617	0.448178
C149	C	0.945470	-0.567084	-0.261794
C150	C	1.195470	-0.317084	-0.011794
C151	C	1.445470	-0.067084	0.238206
C152	C	1.695470	0.182916	0.488206
C153	C	0.945499	-0.632520	-0.261808
C154	C	1.195499	-0.382520	-0.011808
C155	C	1.445499	-0.132520	0.238192
C156	C	1.695499	0.117480	0.488192
C157	C	0.905421	-0.665251	-0.301843
C158	C	1.155421	-0.415251	-0.051843
C159	C	1.405421	-0.165251	0.198157
C160	C	1.655421	0.084749	0.448157
C161	C	0.865322	-0.632542	-0.341879
C162	C	1.115322	-0.382542	-0.091879
C163	C	1.365322	-0.132542	0.158121
C164	C	1.615322	0.117458	0.408121
C165	C	0.865298	-0.567108	-0.341868
C166	C	1.115298	-0.317108	-0.091868
C167	C	1.365298	-0.067108	0.158132
C168	C	1.615298	0.182892	0.408132
C169	C	0.849006	-0.768962	-0.306753
C170	C	1.099006	-0.518962	-0.056753
C171	C	1.349006	-0.268962	0.193247
C172	C	1.599006	-0.018962	0.443247
C173	C	0.849029	-0.834395	-0.306759
C174	C	1.099029	-0.584395	-0.056759
C175	C	1.349029	-0.334395	0.193241
C176	C	1.599029	-0.084395	0.443241
C177	C	0.905494	-0.867072	-0.301880
C178	C	1.155494	-0.617072	-0.051880
C179	C	1.405494	-0.367072	0.198120
C180	C	1.655494	-0.117072	0.448120
C181	C	0.961938	-0.834308	-0.296981
C182	C	1.211938	-0.584308	-0.046981
C183	C	1.461938	-0.334308	0.203019
C184	C	1.711938	-0.084308	0.453019
C185	C	0.961915	-0.768873	-0.296970
C186	C	1.211915	-0.518873	-0.046970
C187	C	1.461915	-0.268873	0.203030
C188	C	1.711915	-0.018873	0.453030
C189	C	0.905442	-0.736203	-0.301860
C190	C	1.155442	-0.486203	-0.051860
C191	C	1.405442	-0.236203	0.198140
C192	C	1.655442	0.013797	0.448140
C193	C	0.945625	-0.970726	-0.261865
C194	C	1.195625	-0.720726	-0.011865
C195	C	1.445625	-0.470726	0.238135
C196	C	1.695625	-0.220726	0.488135
C197	C	0.945655	-1.036162	-0.261883
C198	C	1.195655	-0.786162	-0.011883
C199	C	1.445655	-0.536162	0.238117
C200	C	1.695655	-0.286162	0.488117
C201	C	0.865472	-1.036183	-0.341951
C202	C	1.115472	-0.786183	-0.091951
C203	C	1.365472	-0.536183	0.158049
C204	C	1.615472	-0.286183	0.408049
C205	C	0.865448	-0.970748	-0.341936
C206	C	1.115448	-0.720748	-0.091936
C207	C	1.365448	-0.470748	0.158064
C208	C	1.615448	-0.220748	0.408064
C209	C	0.905523	-0.938023	-0.301890
C210	C	1.155523	-0.688023	-0.051890
C211	C	1.405523	-0.438023	0.198110
C212	C	1.655523	-0.188023	0.448110
C213	C	1.068858	-0.301979	-0.301868
C214	C	1.318858	-0.051979	-0.051868
C215	C	1.568858	0.198021	0.198132
C216	C	1.818858	0.448021	0.448132
C217	C	1.138499	-0.301989	-0.301876
C218	C	1.388499	-0.051989	-0.051876
C219	C	1.638499	0.198011	0.198124
C220	C	1.888499	0.448011	0.448124
C221	C	0.905486	-0.301941	-0.465274
C222	C	1.155486	-0.051941	-0.215274
C223	C	1.405486	0.198059	0.034726
C224	C	1.655486	0.448059	0.284726
C225	C	0.905509	-0.301936	-0.534915
C226	C	1.155509	-0.051936	-0.284915
C227	C	1.405509	0.198064	-0.034915
C228	C	1.655509	0.448064	0.215085
C229	C	0.905535	-0.138531	-0.301899
C230	C	1.155535	0.111469	-0.051899
C231	C	1.405535	0.361469	0.198101
C232	C	1.655535	0.611469	0.448101
C233	C	0.905577	-0.068889	-0.301920
C234	C	1.155577	0.181111	-0.051920
C235	C	1.405577	0.431111	0.198080
C236	C	1.655577	0.681111	0.448080
C237	C	0.945605	-0.261867	-0.567646
C238	C	1.195605	-0.011867	-0.317646
C239	C	1.445605	0.238133	-0.067646
C240	C	1.695605	0.488133	0.182354
C241	C	0.945604	-0.261840	-0.633081
C242	C	1.195604	-0.011840	-0.383081
C243	C	1.445604	0.238160	-0.133081
C244	C	1.695604	0.488160	0.116919
C245	C	0.905513	-0.301893	-0.665784
C246	C	1.155513	-0.051893	-0.415784
C247	C	1.405513	0.198107	-0.165784
C248	C	1.655513	0.448107	0.084216
C249	C	0.865409	-0.341965	-0.633045
C250	C	1.115409	-0.091965	-0.383045
C251	C	1.365409	0.158035	-0.133045
C252	C	1.615409	0.408035	0.116955
C253	C	0.865407	-0.341986	-0.567611
C254	C	1.115407	-0.091986	-0.317611
C255	C	1.365407	0.158014	-0.067611
C256	C	1.615407	0.408014	0.182389
C257	C	0.900538	-0.358308	-0.769446
C258	C	1.150538	-0.108308	-0.519446
C259	C	1.400538	0.141692	-0.269446
C260	C	1.650538	0.391692	-0.019446
C261	C	0.900544	-0.358288	-0.834879
C262	C	1.150544	-0.108288	-0.584879
C263	C	1.400544	0.141712	-0.334879
C264	C	1.650544	0.391712	-0.084879
C265	C	0.905517	-0.301827	-0.867604
C266	C	1.155517	-0.051827	-0.617604
C267	C	1.405517	0.198173	-0.367604
C268	C	1.655517	0.448173	-0.117604
C269	C	0.910497	-0.245385	-0.834889
C270	C	1.160497	0.004615	-0.584889
C271	C	1.410497	0.254615	-0.334889
C272	C	1.660497	0.504615	-0.084889
C273	C	0.910494	-0.245406	-0.769454
C274	C	1.160494	0.004594	-0.519454
C275	C	1.410494	0.254594	-0.269454
C276	C	1.660494	0.504594	-0.019454
C277	C	0.905511	-0.301874	-0.736736
C278	C	1.155511	-0.051874	-0.486736
C279	C	1.405511	0.198126	-0.236736
C280	C	1.655511	0.448126	0.013264
C281	C	0.945615	-0.261725	-0.971287
C282	C	1.195615	-0.011725	-0.721287
C283	C	1.445615	0.238275	-0.471287
C284	C	1.695615	0.488275	-0.221287
C285	C	0.945610	-0.261697	-1.036724
C286	C	1.195610	-0.011697	-0.786724
C287	C	1.445610	0.238303	-0.536724
C288	C	1.695610	0.488303	-0.286724
C289	C	0.865418	-0.341828	-1.036687
C290	C	1.115418	-0.091828	-0.786687
C291	C	1.365418	0.158172	-0.536687
C292	C	1.615418	0.408172	-0.286687
C293	C	0.865420	-0.341850	-0.971252
C294	C	1.115420	-0.091850	-0.721252
C295	C	1.365420	0.158150	-0.471252
C296	C	1.615420	0.408150	-0.221252
C297	C	0.905522	-0.301800	-0.938556
C298	C	1.155522	-0.051800	-0.688556
C299	C	1.405522	0.198200	-0.438556
C300	C	1.655522	0.448200	-0.188556
C301	C	0.905419	-0.301921	-0.139063
C302	C	1.155419	-0.051921	0.110937
C303	C	1.405419	0.198079	0.360937
C304	C	1.655419	0.448079	0.610937
C305	C	0.905518	-0.301750	-0.069422
C306	C	1.155518	-0.051750	0.180578
C307	C	1.405518	0.198250	0.430578
C308	C	1.655518	0.448250	0.680578
H309	H	0.465163	-0.293130	-0.404285
H310	H	0.715163	-0.043130	-0.154285
H311	H	0.965163	0.206870	0.095715
H312	H	1.215163	0.456870	0.345715
H313	H	0.144516	-0.374594	-0.229051
H314	H	0.394516	-0.124594	0.020949
H315	H	0.644516	0.125406	0.270949
H316	H	0.894516	0.375406	0.520949
H317	H	0.978264	-0.229110	-0.944665
H318	H	1.228264	0.020890	-0.694665
H319	H	1.478264	0.270890	-0.444665
H320	H	1.728264	0.520890	-0.194665
H321	H	0.896320	-0.404274	-0.742807
H322	H	1.146320	-0.154274	-0.492807
H323	H	1.396320	0.095726	-0.242807
H324	H	1.646320	0.345726	0.007193
N325	N	0.539635	-0.218773	-0.385280
N326	N	0.789635	0.031227	-0.135280
N327	N	1.039635	0.281227	0.114720
N328	N	1.289635	0.531227	0.364720
H329	H	0.570312	-0.193424	-0.410710
H330	H	0.820312	0.056576	-0.160710
H331	H	1.070312	0.306576	0.089290
H332	H	1.320312	0.556576	0.339290
H333	H	0.512490	-0.244321	-0.414230
H334	H	0.762490	0.005679	-0.164230
H335	H	1.012490	0.255679	0.085770
H336	H	1.262490	0.505679	0.335770
H337	H	0.896494	-0.404247	-0.861511
H338	H	1.146494	-0.154247	-0.611511
H339	H	1.396494	0.095753	-0.361511
H340	H	1.646494	0.345753	-0.111511
H341	H	0.832773	-0.374483	-0.944602
H342	H	1.082773	-0.124483	-0.694602
H343	H	1.332773	0.125517	-0.444602
H344	H	1.582773	0.375517	-0.194602
N345	N	0.822048	-0.531829	-0.385038
N346	N	1.072048	-0.281829	-0.135038
N347	N	1.322048	-0.031829	0.114962
N348	N	1.572048	0.218171	0.364962
H349	H	0.831759	-0.543181	-0.429817
H350	H	1.081759	-0.293181	-0.179817
H351	H	1.331759	-0.043181	0.070183
H352	H	1.581759	0.206819	0.320183
H353	H	0.777307	-0.543273	-0.375214
H354	H	1.027307	-0.293273	-0.125214
H355	H	1.277307	-0.043273	0.124786
H356	H	1.527307	0.206727	0.374786
H357	H	0.978258	-0.229254	-0.541029
H358	H	1.228258	0.020746	-0.291029
H359	H	1.478258	0.270746	-0.041029
H360	H	1.728258	0.520746	0.208971
H361	H	0.144643	-0.229390	-0.374700
H362	H	0.394643	0.020610	-0.124700
H363	H	0.644643	0.270610	0.125300
H364	H	0.894643	0.520610	0.375300
H365	H	0.666986	-0.229343	-0.374672
H366	H	0.916986	0.020657	-0.124672
H367	H	1.166986	0.270657	0.125328
H368	H	1.416986	0.520657	0.375328
N369	N	0.915862	-0.184478	-0.870169
N370	N	1.165862	0.065522	-0.620169
N371	N	1.415862	0.315522	-0.370169
N372	N	1.665862	0.565522	-0.120169
H373	H	0.954470	-0.185317	-0.897335
H374	H	1.204470	0.064683	-0.647335
H375	H	1.454470	0.314683	-0.397335
H376	H	1.704470	0.564683	-0.147335
H377	H	0.877667	-0.178617	-0.897264
H378	H	1.127667	0.071383	-0.647264
H379	H	1.377667	0.321383	-0.397264
H380	H	1.627667	0.571383	-0.147264
N381	N	0.788149	-0.869723	-0.312045
N382	N	1.038149	-0.619723	-0.062045
N383	N	1.288149	-0.369723	0.187955
N384	N	1.538149	-0.119723	0.437955
H385	H	0.788986	-0.896851	-0.350659
H386	H	1.038986	-0.646851	-0.100659
H387	H	1.288986	-0.396851	0.149341
H388	H	1.538986	-0.146851	0.399341
H389	H	0.782328	-0.896860	-0.273847
H390	H	1.032328	-0.646860	-0.023847
H391	H	1.282328	-0.396860	0.226153
H392	H	1.532328	-0.146860	0.476153
N393	N	0.988858	-0.218623	-0.668389
N394	N	1.238858	0.031377	-0.418389
N395	N	1.488858	0.281377	-0.168389
N396	N	1.738858	0.531377	0.081611
H397	H	1.017875	-0.244087	-0.695546
H398	H	1.267875	0.005913	-0.445546
H399	H	1.517875	0.255913	-0.195546
H400	H	1.767875	0.505913	0.054454
H401	H	0.963375	-0.189581	-0.695494
H402	H	1.213375	0.060419	-0.445494
H403	H	1.463375	0.310419	-0.195494
H404	H	1.713375	0.560419	0.054506
H405	H	0.263229	-0.374572	-0.229043
H406	H	0.513229	-0.124572	0.020957
H407	H	0.763229	0.125428	0.270957
H408	H	1.013229	0.375428	0.520957
H409	H	0.548155	-0.374542	-0.229018
H410	H	0.798155	-0.124542	0.020982
H411	H	1.048155	0.125458	0.270982
H412	H	1.298155	0.375458	0.520982
H413	H	0.465048	-0.310767	-0.199413
H414	H	0.715048	-0.060767	0.050587
H415	H	0.965048	0.189233	0.300587
H416	H	1.215048	0.439233	0.550587
N417	N	0.822175	-0.385024	-1.071954
N418	N	1.072175	-0.135024	-0.821954
N419	N	1.322175	0.114976	-0.571954
N420	N	1.572175	0.364976	-0.321954
H421	H	0.847619	-0.414054	-1.099113
H422	H	1.097619	-0.164054	-0.849113
H423	H	1.347619	0.085946	-0.599113
H424	H	1.597619	0.335946	-0.349113
H425	H	0.796781	-0.410372	-1.041249
H426	H	1.046781	-0.160372	-0.791249
H427	H	1.296781	0.089628	-0.541249
H428	H	1.546781	0.339628	-0.291249
H429	H	0.832691	-0.659196	-0.374477
H430	H	1.082691	-0.409196	-0.124477
H431	H	1.332691	-0.159196	0.125523
H432	H	1.582691	0.090804	0.375523
N433	N	0.337682	-0.312072	-0.184501
N434	N	0.587682	-0.062072	0.065499
N435	N	0.837682	0.187928	0.315499
N436	N	1.087682	0.437928	0.565499
H437	H	0.368318	-0.315145	-0.148731
H438	H	0.618318	-0.065145	0.101269
H439	H	0.868318	0.184855	0.351269
H440	H	1.118318	0.434855	0.601269
H441	H	0.310542	-0.273893	-0.178754
H442	H	0.560542	-0.023893	0.071246
H443	H	0.810542	0.226107	0.321246
H444	H	1.060542	0.476107	0.571246
H445	H	0.978103	-0.540442	-0.229187
H446	H	1.228103	-0.290442	0.020813
H447	H	1.478103	-0.040442	0.270813
H448	H	1.728103	0.209558	0.520813
N449	N	0.915866	-0.184535	-0.734167
N450	N	1.165866	0.065465	-0.484167
N451	N	1.415866	0.315465	-0.234167
N452	N	1.665866	0.565465	0.015833
H453	H	0.919019	-0.148762	-0.764822
H454	H	1.169019	0.101238	-0.514822
H455	H	1.419019	0.351238	-0.264822
H456	H	1.669019	0.601238	-0.014822
H457	H	0.877694	-0.178721	-0.707002
H458	H	1.127694	0.071279	-0.457002
H459	H	1.377694	0.321279	-0.207002
H460	H	1.627694	0.571279	0.042998
H461	H	0.978260	-0.229065	-1.063372
H462	H	1.228260	0.020935	-0.813372
H463	H	1.478260	0.270935	-0.563372
H464	H	1.728260	0.520935	-0.313372
N465	N	0.822158	-0.385156	-0.668312
N466	N	1.072158	-0.135156	-0.418312
N467	N	1.322158	0.114844	-0.168312
N468	N	1.572158	0.364844	0.081688
H469	H	0.828242	-0.379061	-0.714732
H470	H	1.078242	-0.129061	-0.464732
H471	H	1.328242	0.120939	-0.214732
H472	H	1.578242	0.370939	0.035268
H473	H	0.831873	-0.429912	-0.656879
H474	H	1.081873	-0.179912	-0.406879
H475	H	1.331873	0.070088	-0.156879
H476	H	1.581873	0.320088	0.093121
N477	N	0.675498	-0.385110	-0.218402
N478	N	0.925498	-0.135110	0.031598
N479	N	1.175498	0.114890	0.281598
N480	N	1.425498	0.364890	0.531598
H481	H	0.721920	-0.379035	-0.224489
H482	H	0.971920	-0.129035	0.025511
H483	H	1.221920	0.120965	0.275511
H484	H	1.471920	0.370965	0.525511
H485	H	0.664042	-0.375297	-0.173672
H486	H	0.914042	-0.125297	0.076328
H487	H	1.164042	0.124703	0.326328
H488	H	1.414042	0.374703	0.576328
N489	N	0.337938	-0.291952	-0.419299
N490	N	0.587938	-0.041952	-0.169299
N491	N	0.837938	0.208048	0.080701
N492	N	1.087938	0.458048	0.330701
H493	H	0.310772	-0.253363	-0.418685
H494	H	0.560772	-0.003363	-0.168685
H495	H	0.810772	0.246637	0.081315
H496	H	1.060772	0.496637	0.331315
H497	H	0.368767	-0.288937	-0.454935
H498	H	0.618767	-0.038937	-0.204935
H499	H	0.868767	0.211063	0.045065
H500	H	1.118767	0.461063	0.295065
N501	N	0.822150	-0.385197	-0.532304
N502	N	1.072150	-0.135197	-0.282304
N503	N	1.322150	0.114803	-0.032304
N504	N	1.572150	0.364803	0.217696
H505	H	0.796747	-0.410563	-0.562947
H506	H	1.046747	-0.160563	-0.312947
H507	H	1.296747	0.089437	-0.062947
H508	H	1.546747	0.339437	0.187053
H509	H	0.847627	-0.414209	-0.505160
H510	H	1.097627	-0.164209	-0.255160
H511	H	1.347627	0.085791	-0.005160
H512	H	1.597627	0.335791	0.244840
H513	H	0.978310	-1.062787	-0.229289
H514	H	1.228310	-0.812787	0.020711
H515	H	1.478310	-0.562787	0.270711
H516	H	1.728310	-0.312787	0.520711
N517	N	0.272012	-0.218806	-0.385299
N518	N	0.522012	0.031194	-0.135299
N519	N	0.772012	0.281194	0.114701
N520	N	1.022012	0.531194	0.364701
H521	H	0.241381	-0.193458	-0.410730
H522	H	0.491381	0.056542	-0.160730
H523	H	0.741381	0.306542	0.089270
H524	H	0.991381	0.556542	0.339270
H525	H	0.299157	-0.189774	-0.359840
H526	H	0.549157	0.060226	-0.109840
H527	H	0.799157	0.310226	0.140160
H528	H	1.049157	0.560226	0.390160
N529	N	0.988748	-0.667801	-0.218634
N530	N	1.238748	-0.417801	0.031366
N531	N	1.488748	-0.167801	0.281366
N532	N	1.738748	0.082199	0.531366
H533	H	1.014132	-0.637141	-0.193265
H534	H	1.264132	-0.387141	0.056735
H535	H	1.514132	-0.137141	0.306735
H536	H	1.764132	0.112859	0.556735
H537	H	0.963262	-0.694986	-0.189623
H538	H	1.213262	-0.444986	0.060377
H539	H	1.463262	-0.194986	0.310377
H540	H	1.713262	0.055014	0.560377
H541	H	1.007873	-0.742198	-0.292983
H542	H	1.257873	-0.492198	-0.042983
H543	H	1.507873	-0.242198	0.207017
H544	H	1.757873	0.007802	0.457017
H545	H	1.007918	-0.860912	-0.293008
H546	H	1.257918	-0.610912	-0.043008
H547	H	1.507918	-0.360912	0.206992
H548	H	1.757918	-0.110912	0.456992
H549	H	0.832843	-1.062833	-0.374552
H550	H	1.082843	-0.812833	-0.124552
H551	H	1.332843	-0.562833	0.125448
H552	H	1.582843	-0.312833	0.375448
N553	N	0.988847	-0.935424	-0.218676
N554	N	1.238847	-0.685424	0.031324
N555	N	1.488847	-0.435424	0.281324
N556	N	1.738847	-0.185424	0.531324
H557	H	1.014257	-0.966072	-0.193323
H558	H	1.264257	-0.716072	0.056677
H559	H	1.514257	-0.466072	0.306677
H560	H	1.764257	-0.216072	0.556677
H561	H	1.017819	-0.908234	-0.244201
H562	H	1.267819	-0.658234	0.005799
H563	H	1.517819	-0.408234	0.255799
H564	H	1.767819	-0.158234	0.505799
H565	H	0.832795	-0.944121	-0.374528
H566	H	1.082795	-0.694121	-0.124528
H567	H	1.332795	-0.444121	0.125472
H568	H	1.582795	-0.194121	0.375472
N569	N	0.788101	-0.733721	-0.312023
N570	N	1.038101	-0.483721	-0.062023
N571	N	1.288101	-0.233721	0.187977
N572	N	1.538101	0.016279	0.437977
H573	H	0.752349	-0.764404	-0.315123
H574	H	1.002349	-0.514404	-0.065123
H575	H	1.252349	-0.264404	0.184877
H576	H	1.502349	-0.014404	0.434877
H577	H	0.782291	-0.706596	-0.273838
H578	H	1.032291	-0.456596	-0.023838
H579	H	1.282291	-0.206596	0.226162
H580	H	1.532291	0.043404	0.476162
