data_functionalizedCrystal
_audit_creation_method	'MofGen! by Chris Wilmer'
_symmetry_space_group_name_H-M	'P1'
_symmetry_Int_Tables_number	1
_symmetry_cell_setting	triclinic
loop_
_symmetry_equiv_pos_as_xyz
  x,y,z
_cell_length_a	15.297475
_cell_length_b	12.645330
_cell_length_c	15.299447
_cell_angle_alpha	80.300189
_cell_angle_beta	69.207769
_cell_angle_gamma	80.321044
loop_
_atom_site_label
_atom_site_type_symbol
_atom_site_fract_x
_atom_site_fract_y
_atom_site_fract_z
Zn1	Zn	1.512865	-0.573216	-0.771531
Zn2	Zn	1.485844	-0.776634	-0.616008
Zn3	Zn	1.330419	-0.573192	-0.589159
Zn4	Zn	1.357313	-0.724232	-0.744618
O5	O	1.421610	-0.661818	-0.680329
O6	O	1.639426	-0.622140	-0.773400
O7	O	1.442663	-0.771568	-0.482300
O8	O	1.354674	-0.424853	-0.613377
O9	O	1.619574	-0.771591	-0.659138
O10	O	1.488717	-0.424871	-0.747365
O11	O	1.328473	-0.622100	-0.462573
O12	O	1.203842	-0.571287	-0.587281
O13	O	1.400511	-0.682278	-0.878335
O14	O	1.223601	-0.682255	-0.701496
O15	O	1.514794	-0.571328	-0.898108
O16	O	1.468741	-0.918025	-0.633042
O17	O	1.374310	-0.879525	-0.727531
C18	C	1.179976	-0.621083	-0.638555
C19	C	1.076608	-0.603678	-0.620706
C20	C	0.826417	-0.786222	-0.807901
C21	C	0.923537	-0.802583	-0.824668
C22	C	0.961809	-0.752858	-0.773679
C23	C	0.902953	-0.686769	-0.705920
C24	C	0.805823	-0.670413	-0.689145
C25	C	0.941215	-0.637049	-0.654924
C26	C	0.882359	-0.570961	-0.587165
C27	C	0.785239	-0.554607	-0.570394
C28	C	0.746966	-0.604332	-0.621383
C29	C	1.038345	-0.653405	-0.671698
C30	C	1.017751	-0.537597	-0.552943
C31	C	0.920632	-0.521236	-0.536176
C32	C	1.421540	-0.937239	-0.680304
C33	C	1.421601	-1.055074	-0.680339
C34	C	1.362529	-1.198474	-0.740055
C35	C	1.362123	-1.075892	-0.739760
C36	C	1.378102	-1.111677	-0.577745
C37	C	1.377741	-1.234128	-0.578107
C38	C	1.524472	-1.234539	-0.722499
C39	C	1.524239	-1.111470	-0.724538
C40	C	1.664188	-0.702714	-0.722266
C41	C	1.767561	-0.720141	-0.740138
C42	C	1.463667	-0.620960	-0.922911
C43	C	1.481589	-0.603549	-1.026285
C44	C	1.421710	-0.385323	-0.680379
C45	C	1.421752	-0.267498	-0.680400
C46	C	1.294104	-0.785537	-1.276500
C47	C	1.277256	-0.801888	-1.179374
C48	C	1.328338	-0.752305	-1.141096
C49	C	1.396270	-0.686367	-1.199956
C50	C	1.413114	-0.670007	-1.297091
C51	C	1.447348	-0.636775	-1.161687
C52	C	1.515280	-0.570837	-1.220546
C53	C	1.532122	-0.554480	-1.317671
C54	C	1.481040	-0.604063	-1.355949
C55	C	1.430504	-0.653136	-1.064552
C56	C	1.549514	-0.537605	-1.085143
C57	C	1.566362	-0.521254	-1.182269
C58	C	1.379771	-0.702450	-0.438700
C59	C	1.362030	-0.719593	-0.335358
H60	H	0.872697	-0.467426	-0.481005
H61	H	1.086257	-0.707215	-0.726870
N62	N	1.604624	-0.484130	-1.043873
H63	H	1.593141	-0.403106	-1.058289
H64	H	1.583622	-0.504587	-0.973424
H65	H	1.252517	-0.825896	-1.307675
N66	N	0.785145	-0.839848	-0.862895
H67	H	0.799509	-0.920861	-0.851252
H68	H	0.714699	-0.819379	-0.841961
H69	H	1.040889	-0.766183	-0.787336
H70	H	1.048911	-0.497108	-0.511423
H71	H	1.314618	-0.765624	-1.062011
N72	N	1.278875	-1.060068	-0.532781
H73	H	1.238978	-1.067631	-0.571188
H74	H	1.251566	-1.097072	-0.466786
H75	H	1.587430	-0.500781	-1.365592
H76	H	0.737318	-0.500806	-0.515210
H77	H	1.418085	-1.281537	-0.531230
N78	N	1.401024	-1.224869	-0.840400
H79	H	1.350763	-1.252918	-0.855752
H80	H	1.420880	-1.157517	-0.884445
N81	N	1.432419	-1.096629	-0.516257
H82	H	1.499993	-1.129149	-0.543435
H83	H	1.430361	-1.016972	-0.513517
H84	H	1.287212	-1.219922	-0.711115
N85	N	0.987005	-0.873862	-0.897746
H86	H	0.981643	-0.843477	-0.961306
H87	H	1.054311	-0.876664	-0.900556
H88	H	1.391303	-1.036316	-0.815302
H89	H	0.667885	-0.591012	-0.607736
H90	H	1.560837	-1.257649	-0.796935
H91	H	1.286314	-1.037164	-0.710529
N92	N	1.587575	-1.094257	-0.672974
H93	H	1.550466	-1.049462	-0.619992
H94	H	1.613037	-1.166524	-0.646369
H95	H	1.556734	-1.073563	-0.800125
N96	N	1.583199	-1.296539	-0.665224
H97	H	1.543511	-1.345745	-0.612268
H98	H	1.638562	-1.341150	-0.706960
H99	H	1.375187	-0.706816	-1.016637
H100	H	1.494757	-0.590757	-1.435037
N101	N	1.277613	-1.260830	-0.533479
H102	H	1.234125	-1.193101	-0.513758
H103	H	1.259095	-1.291347	-0.580438
H104	H	1.221953	-0.855585	-1.131458
H105	H	1.621672	-0.467565	-1.230205
