data_functionalizedCrystal
_audit_creation_method	'MofGen! by Chris Wilmer'
_symmetry_space_group_name_H-M	'P1'
_symmetry_Int_Tables_number	1
_symmetry_cell_setting	triclinic
loop_
_symmetry_equiv_pos_as_xyz
  x,y,z
_cell_length_a	12.759401
_cell_length_b	16.625546
_cell_length_c	12.759393
_cell_angle_alpha	90.036194
_cell_angle_beta	90.018496
_cell_angle_gamma	90.022629
loop_
_atom_site_label
_atom_site_type_symbol
_atom_site_fract_x
_atom_site_fract_y
_atom_site_fract_z
Zn1	Zn	1.606199	-0.320951	0.593948
Zn2	Zn	2.106199	0.179049	1.093948
Zn3	Zn	1.606069	-0.455807	0.418253
Zn4	Zn	2.106069	0.044193	0.918253
Zn5	Zn	1.430501	-0.320993	0.418287
Zn6	Zn	1.930501	0.179007	0.918287
Zn7	Zn	1.430465	-0.455745	0.593895
Zn8	Zn	1.930465	0.044255	1.093895
O9	O	1.518308	-0.388374	0.506096
O10	O	2.018308	0.111626	1.006096
O11	O	1.753203	-0.338848	0.570649
O12	O	2.253203	0.161152	1.070649
O13	O	1.582740	-0.437968	0.271237
O14	O	2.082740	0.062032	0.771237
O15	O	1.453876	-0.208155	0.441625
O16	O	1.953876	0.291845	0.941625
O17	O	1.753107	-0.437927	0.441568
O18	O	2.253107	0.062073	0.941568
O19	O	1.582961	-0.208124	0.570682
O20	O	2.082961	0.291876	1.070682
O21	O	1.453751	-0.338920	0.271261
O22	O	1.953751	0.161080	0.771261
O23	O	1.283475	-0.338860	0.441574
O24	O	1.783475	0.161140	0.941574
O25	O	1.453816	-0.437821	0.740923
O26	O	1.953816	0.062179	1.240923
O27	O	1.283449	-0.437862	0.570592
O28	O	1.783449	0.062138	1.070592
O29	O	1.582927	-0.338788	0.740962
O30	O	2.082927	0.161212	1.240962
O31	O	1.582706	-0.568632	0.441517
O32	O	2.082706	-0.068632	0.941517
O33	O	1.453691	-0.568586	0.570560
O34	O	1.953691	-0.068586	1.070560
C35	C	1.245341	-0.388359	0.506081
C36	C	1.745341	0.111641	1.006081
C37	C	1.128564	-0.388372	0.506100
C38	C	1.628564	0.111628	1.006100
C39	C	1.073717	-0.440005	0.573169
C40	C	1.573717	0.059995	1.073169
C41	C	0.963992	-0.440015	0.573180
C42	C	1.463992	0.059985	1.073180
C43	C	0.963974	-0.336758	0.439045
C44	C	1.463974	0.163242	0.939045
C45	C	1.073696	-0.336744	0.439040
C46	C	1.573696	0.163256	0.939040
C47	C	1.128585	-0.491634	0.640229
C48	C	1.628585	0.008366	1.140229
C49	C	1.073737	-0.543271	0.707303
C50	C	1.573737	-0.043271	1.207303
C51	C	0.964013	-0.543282	0.707314
C52	C	1.464013	-0.043282	1.207314
C53	C	0.909137	-0.491654	0.640252
C54	C	1.409137	0.008346	1.140252
C55	C	1.518209	-0.597865	0.506052
C56	C	2.018209	-0.097865	1.006052
C57	C	1.518263	-0.687486	0.506068
C58	C	2.018263	-0.187486	1.006068
C59	C	1.518446	-1.015662	0.506177
C60	C	2.018446	-0.515662	1.006177
C61	C	1.518392	-0.924353	0.506150
C62	C	2.018392	-0.424353	1.006150
C63	C	1.518353	-0.851577	0.506122
C64	C	2.018353	-0.351577	1.006122
C65	C	1.518301	-0.760262	0.506096
C66	C	2.018301	-0.260262	1.006096
C67	C	1.792342	-0.388390	0.506111
C68	C	2.292342	0.111610	1.006111
C69	C	1.909118	-0.388396	0.506117
C70	C	2.409118	0.111604	1.006117
C71	C	1.518382	-0.388293	0.780129
C72	C	2.018382	0.111707	1.280129
C73	C	1.518413	-0.388258	0.896906
C74	C	2.018413	0.111742	1.396906
C75	C	1.518437	-0.178065	0.506163
C76	C	2.018437	0.321935	1.006163
C77	C	1.518492	-0.088444	0.506191
C78	C	2.018492	0.411556	1.006191
C79	C	1.518296	-0.388397	0.233128
C80	C	2.018296	0.111603	0.733128
C81	C	1.518468	-0.388204	0.116352
C82	C	2.018468	0.111796	0.616352
C83	C	1.585650	-0.336687	0.951790
C84	C	2.085650	0.163313	1.451790
C85	C	1.585675	-0.336657	1.061514
C86	C	2.085675	0.163343	1.561514
C87	C	1.451223	-0.439778	1.061461
C88	C	1.951223	0.060222	1.561461
C89	C	1.451194	-0.439803	0.951739
C90	C	1.951194	0.060197	1.451739
C91	C	1.652870	-0.285142	0.896957
C92	C	2.152870	0.214858	1.396957
C93	C	1.720113	-0.233567	0.951841
C94	C	2.220113	0.266433	1.451841
C95	C	1.720138	-0.233538	1.061565
C96	C	2.220138	0.266462	1.561565
C97	C	1.652920	-0.285084	1.116405
C98	C	2.152920	0.214916	1.616405
H99	H	1.652859	-0.285162	0.807614
H100	H	2.152859	0.214838	1.307614
H101	H	1.118424	-0.585299	0.761909
H102	H	1.618424	-0.085299	1.261909
O103	O	1.792614	-0.177978	0.892697
O104	O	2.292614	0.322022	1.392697
H105	H	1.745611	-0.136968	0.842709
H106	H	2.245611	0.363032	1.342709
O107	O	0.904858	-0.598970	0.779662
O108	O	1.404858	-0.098970	1.279662
H109	H	0.819342	-0.590301	0.768413
H110	H	1.319342	-0.090301	1.268413
O111	O	1.246929	-0.491629	0.640209
O112	O	1.746929	0.008371	1.140209
H113	H	1.275909	-0.475404	0.719485
H114	H	1.775909	0.024596	1.219485
H115	H	1.774883	-0.191537	1.106249
H116	H	2.274883	0.308463	1.606249
O117	O	0.904801	-0.281079	0.366707
O118	O	1.404801	0.218921	0.866707
H119	H	0.925842	-0.294832	0.284221
H120	H	1.425842	0.205168	0.784221
H121	H	1.652934	-0.285046	1.205750
H122	H	2.152934	0.214954	1.705750
O123	O	0.790790	-0.491670	0.640249
O124	O	1.290790	0.008330	1.140249
H125	H	0.761867	-0.536253	0.698146
H126	H	1.261867	-0.036253	1.198146
O127	O	1.132866	-0.281063	0.366695
O128	O	1.632866	0.218937	0.866695
H129	H	1.076281	-0.245175	0.320051
H130	H	1.576281	0.254825	0.820051
H131	H	1.396497	-0.481744	1.106120
H132	H	1.896497	0.018256	1.606120
O133	O	1.378675	-0.495423	0.892530
O134	O	1.878675	0.004577	1.392530
H135	H	1.331948	-0.531269	0.949090
H136	H	1.831948	-0.031269	1.449090
