data_functionalizedCrystal
_audit_creation_method	'MofGen! by Chris Wilmer'
_symmetry_space_group_name_H-M	'P1'
_symmetry_Int_Tables_number	1
_symmetry_cell_setting	triclinic
loop_
_symmetry_equiv_pos_as_xyz
  x,y,z
_cell_length_a	14.044209
_cell_length_b	10.654550
_cell_length_c	9.130313
_cell_angle_alpha	90.004303
_cell_angle_beta	89.998548
_cell_angle_gamma	88.836428
loop_
_atom_site_label
_atom_site_type_symbol
_atom_site_fract_x
_atom_site_fract_y
_atom_site_fract_z
O1	O	-1.259699	-0.302974	-0.121615
O2	O	-0.983658	-0.292044	-0.121657
O3	O	-1.128025	-0.115408	-0.121630
O4	O	-1.115332	-0.479611	-0.121643
O5	O	-1.128014	-0.115397	0.121969
O6	O	-0.983646	-0.292034	0.121941
O7	O	-1.259688	-0.302964	0.121983
Cu8	Cu	-1.121666	-0.297498	0.144205
Cu9	Cu	-1.121680	-0.297510	-0.143879
O10	O	-1.115320	-0.479601	0.121956
C11	C	-0.948306	-0.287253	0.000137
C12	C	-0.842986	-0.272979	0.000121
C13	C	-1.127087	-0.068511	0.000167
C14	C	-1.124299	0.071213	0.000162
N15	N	-1.121663	-0.297490	0.346828
C16	C	-0.650153	-0.246882	0.000147
C17	C	-0.593186	-0.348131	0.000149
C18	C	-0.485887	-0.333610	0.000164
C19	C	-0.757462	-0.261401	0.000132
C20	C	-0.295039	-0.307757	0.000182
C21	C	-0.400358	-0.322040	0.000176
C22	C	-1.116258	-0.526497	0.000155
C23	C	-1.119046	-0.666221	0.000151
C24	C	-1.209300	0.142157	0.000179
C25	C	-1.206674	0.273442	0.000169
C26	C	-1.034039	0.262825	0.000129
C27	C	-1.036666	0.131543	0.000130
C28	C	-1.296934	0.081827	0.000212
C29	C	-1.381942	0.152773	0.000231
C30	C	-1.379316	0.284057	0.000220
C31	C	-1.291682	0.344396	0.000190
C32	C	-1.063648	-0.214798	0.576857
C33	C	-1.063641	-0.214783	0.423520
C34	C	-1.179702	-0.380208	0.423479
C35	C	-1.179713	-0.380215	0.576813
C36	C	-1.005615	-0.132095	0.653542
C37	C	-0.947577	-0.049375	0.576901
C38	C	-0.947571	-0.049360	0.423564
C39	C	-1.005602	-0.132065	0.346868
N40	N	-1.121680	-0.297512	0.653498
H41	H	-0.624998	-0.445718	0.000139
Cl42	Cl	-0.874636	0.054601	0.673315
H43	H	-0.618342	-0.149303	0.000158
H44	H	-1.299081	-0.025071	0.000225
H45	H	-1.453290	0.103636	0.000218
Cl46	Cl	-1.486181	0.373242	0.000228
Cl47	Cl	-1.288384	0.509442	0.000242
Cl48	Cl	-0.923878	0.338682	0.000096
H49	H	-0.967450	0.073778	0.000117
Cl50	Cl	-1.005614	-0.132113	0.846308
Cl51	Cl	-0.874612	0.054629	0.327219
H52	H	-1.005598	-0.132040	0.222011
Cl53	Cl	-1.252647	-0.484177	0.327061
Cl54	Cl	-1.252674	-0.484195	0.673170
