data_functionalizedCrystal
_audit_creation_method	'MofGen! by Chris Wilmer'
_symmetry_space_group_name_H-M	'P1'
_symmetry_Int_Tables_number	1
_symmetry_cell_setting	triclinic
loop_
_symmetry_equiv_pos_as_xyz
  x,y,z
_cell_length_a	10.540539
_cell_length_b	16.109301
_cell_length_c	15.186229
_cell_angle_alpha	90.000638
_cell_angle_beta	89.998389
_cell_angle_gamma	96.006514
loop_
_atom_site_label
_atom_site_type_symbol
_atom_site_fract_x
_atom_site_fract_y
_atom_site_fract_z
O1	O	0.163159	-1.104128	-0.073169
O2	O	0.183464	-0.862191	-0.073182
O3	O	-0.011474	-0.988679	-0.073174
O4	O	0.358096	-0.977640	-0.073177
O5	O	-0.011477	-0.988671	0.073283
O6	O	0.183461	-0.862182	0.073275
O7	O	0.163156	-1.104120	0.073289
Zn8	Zn	0.173308	-0.983150	0.096535
Zn9	Zn	0.173312	-0.983161	-0.096429
O10	O	0.358094	-0.977631	0.073280
C11	C	0.182640	-0.831206	0.000045
C12	C	0.180174	-0.738896	0.000039
C13	C	-0.058767	-0.987847	0.000053
C14	C	-0.199679	-0.985370	0.000048
N15	N	0.173305	-0.983148	0.228228
C16	C	-0.381753	-0.890460	-0.000286
C17	C	-0.235171	-0.892971	0.000044
C18	C	-0.261972	-1.029832	0.083685
C19	C	-0.408472	-1.026678	0.083755
C20	C	-0.409014	-1.028567	-0.082794
C21	C	-0.262044	-1.029418	-0.083900
C22	C	0.405386	-0.978463	0.000052
C23	C	0.546299	-0.980940	0.000051
C24	C	0.163980	-1.135104	0.000060
C25	C	0.166446	-1.227414	0.000059
C26	C	0.290112	-0.517296	0.000049
C27	C	0.287785	-0.430561	0.000054
C28	C	0.056499	-0.449021	0.000053
C29	C	0.058827	-0.535754	0.000053
C30	C	0.175637	-0.569889	0.000047
C31	C	0.170982	-0.396421	0.000052
C32	C	0.168459	-0.302380	0.000058
C33	C	0.178162	-0.663936	0.000042
N34	N	0.173305	-0.983169	-0.228121
C35	C	0.087015	-1.039177	0.453954
C36	C	0.087012	-1.039179	0.546144
C37	C	0.259598	-0.927134	0.546146
C38	C	0.259594	-0.927128	0.453958
C39	C	0.173304	-0.983154	0.407864
C40	C	0.173305	-0.983163	0.592242
C41	C	0.173303	-0.983165	0.692198
C42	C	0.173305	-0.983151	0.307902
H43	H	-0.192068	-0.857986	-0.059910
H44	H	-0.440139	-0.998666	-0.146185
H45	H	-0.034398	-0.578578	0.000054
H46	H	0.381003	-0.387743	0.000058
H47	H	-0.220721	-0.996886	-0.145772
H48	H	0.016747	-1.084796	0.583668
H49	H	-0.409832	-0.853964	-0.060263
O50	O	-0.056855	-0.415723	0.000013
C51	C	-0.034366	-0.327892	0.000032
H52	H	0.064703	-0.308115	-0.027694
H53	H	-0.109102	-0.300825	-0.042491
H54	H	-0.040514	-0.303714	0.070294
O55	O	0.003067	-1.093623	0.409315
C56	C	-0.073074	-1.143082	0.469769
H57	H	-0.074516	-1.108991	0.535486
H58	H	-0.174444	-1.155161	0.443137
H59	H	-0.031834	-1.205088	0.479566
O60	O	0.403688	-0.550318	0.000089
C61	C	0.504226	-0.485295	0.000071
H62	H	0.468659	-0.426175	0.027798
H63	H	0.585773	-0.503898	0.042595
H64	H	0.539543	-0.473232	-0.070190
H65	H	-0.192914	-0.857734	0.060094
O66	O	0.343376	-0.872799	0.591059
C67	C	0.324861	-0.884804	0.682311
H68	H	0.277445	-0.950620	0.694897
H69	H	0.420990	-0.876128	0.717342
H70	H	0.261179	-0.837371	0.708481
O71	O	0.343544	-0.872675	0.409317
C72	C	0.419693	-0.823217	0.469766
H73	H	0.421151	-0.857313	0.535479
H74	H	0.521057	-0.811132	0.443122
H75	H	0.378449	-0.761215	0.479578
H76	H	-0.411444	-0.854106	0.059352
H77	H	-0.457388	-1.093130	0.087553
O78	O	-0.441697	-0.987375	0.158241
C79	C	-0.500711	-0.915772	0.135400
H80	H	-0.541481	-0.923369	0.065996
H81	H	-0.581017	-0.907496	0.183868
H82	H	-0.427359	-0.858552	0.137868
O83	O	-0.236293	-1.110753	0.087295
C84	C	-0.161483	-1.128429	0.014025
H85	H	-0.109148	-1.067930	-0.012145
H86	H	-0.089075	-1.172535	0.034718
H87	H	-0.225729	-1.159115	-0.039746
O88	O	-0.210763	-0.992857	0.157911
C89	C	-0.233254	-0.908111	0.158862
H90	H	-0.319068	-0.899110	0.115537
H91	H	-0.253234	-0.888442	0.229198
H92	H	-0.145647	-0.868251	0.132621
O93	O	-0.234043	-1.109735	-0.089879
C94	C	-0.100705	-1.110989	-0.095091
H95	H	-0.051319	-1.051067	-0.065501
H96	H	-0.071673	-1.166979	-0.056997
H97	H	-0.071301	-1.115938	-0.166989
O98	O	-0.466643	-1.108148	-0.083357
C99	C	-0.546918	-1.120795	-0.009249
H100	H	-0.574547	-1.058122	0.014847
H101	H	-0.636614	-1.162795	-0.028085
H102	H	-0.494507	-1.151695	0.045416
