data_functionalizedCrystal
_audit_creation_method	'MofGen! by Chris Wilmer'
_symmetry_space_group_name_H-M	'P1'
_symmetry_Int_Tables_number	1
_symmetry_cell_setting	triclinic
loop_
_symmetry_equiv_pos_as_xyz
  x,y,z
_cell_length_a	33.592126
_cell_length_b	33.591377
_cell_length_c	33.588093
_cell_angle_alpha	60.004089
_cell_angle_beta	60.008299
_cell_angle_gamma	59.994549
loop_
_atom_site_label
_atom_site_type_symbol
_atom_site_fract_x
_atom_site_fract_y
_atom_site_fract_z
O1	O	0.055297	-0.581666	0.486338
O2	O	0.555297	-0.081666	0.986338
O3	O	0.020882	-0.452873	0.391864
O4	O	0.520882	0.047127	0.891864
O5	O	0.102445	-0.534352	0.391775
O6	O	0.602445	-0.034352	0.891775
O7	O	-0.026266	-0.500187	0.486427
O8	O	0.473734	-0.000187	0.986427
O9	O	0.129510	-0.507292	0.418747
O10	O	0.629510	-0.007292	0.918747
O11	O	0.047947	-0.425814	0.418835
O12	O	0.547947	0.074186	0.918835
O13	O	0.082362	-0.554606	0.513309
O14	O	0.582362	-0.054606	1.013309
Cu15	Cu	0.067626	-0.487739	0.468535
Cu16	Cu	0.567626	0.012261	0.968535
Cu17	Cu	0.035618	-0.519740	0.436638
Cu18	Cu	0.535618	-0.019740	0.936638
O19	O	0.000799	-0.473128	0.513398
O20	O	0.500799	0.026872	1.013398
N21	N	0.090139	-0.465235	0.490972
N22	N	0.590139	0.034765	0.990972
N23	N	0.013110	-0.542249	0.414202
N24	N	0.513110	-0.042249	0.914202
C25	C	0.124394	-0.431229	0.734914
C26	C	0.624394	0.068771	1.234914
C27	C	0.334265	-0.431145	0.524799
C28	C	0.834265	0.068855	1.024799
C29	C	0.124204	-0.431200	0.524965
C30	C	0.624204	0.068800	1.024965
C31	C	0.124184	-0.221175	0.524955
C32	C	0.624184	0.278825	1.024955
C33	C	0.158017	-0.322536	0.558710
C34	C	0.658017	0.177464	1.058710
C35	C	0.158027	-0.397406	0.558711
C36	C	0.658027	0.102594	1.058711
C37	C	0.176763	-0.378688	0.577408
C38	C	0.676763	0.121312	1.077408
C39	C	0.258412	-0.364594	0.534386
C40	C	0.758412	0.135406	1.034386
C41	C	0.309454	-0.381596	0.517340
C42	C	0.809454	0.118404	1.017340
C43	C	0.309485	-0.464188	0.548836
C44	C	0.809485	0.035812	1.048836
C45	C	0.258444	-0.447186	0.565883
C46	C	0.758444	0.052814	1.065883
C47	C	0.170304	-0.297002	0.508532
C48	C	0.670304	0.202998	1.008532
C49	C	0.153260	-0.245956	0.491537
C50	C	0.653260	0.254044	0.991537
C51	C	0.111648	-0.245983	0.574901
C52	C	0.611648	0.254017	1.074901
C53	C	0.128691	-0.297029	0.591896
C54	C	0.628691	0.202971	1.091896
C55	C	0.107841	-0.385091	0.571080
C56	C	0.607841	0.114909	1.071080
C57	C	0.090813	-0.402108	0.554078
C58	C	0.590813	0.097892	1.054078
C59	C	0.174153	-0.443755	0.512351
C60	C	0.674153	0.056245	1.012351
C61	C	0.191183	-0.426739	0.529347
C62	C	0.691183	0.073261	1.029347
C63	C	0.107923	-0.385106	0.659111
C64	C	0.607923	0.114894	1.159111
C65	C	0.090955	-0.402138	0.710156
C66	C	0.590955	0.097862	1.210156
C67	C	0.174335	-0.443795	0.710087
C68	C	0.674335	0.056205	1.210087
C69	C	0.191302	-0.426764	0.659041
C70	C	0.691302	0.073236	1.159041
C71	C	0.158095	-0.397418	0.633555
C72	C	0.658095	0.102582	1.133555
C73	C	0.232909	-0.397388	0.558656
C74	C	0.732909	0.102612	1.058656
C75	C	0.105069	-0.449619	0.791057
C76	C	0.605069	0.050381	1.291057
C77	C	0.390406	-0.449193	0.505789
C78	C	0.890406	0.050807	1.005789
C79	C	0.104813	-0.449599	0.506607
C80	C	0.604813	0.050401	1.006607
C81	C	0.105125	-0.165028	0.506915
C82	C	0.605125	0.334972	1.006915
C83	C	-0.020560	-0.576246	0.169890
C84	C	0.479440	-0.076246	0.669890
C85	C	-0.020889	-0.786183	0.379970
C86	C	0.479111	-0.286183	0.879970
C87	C	-0.020859	-0.576235	0.380063
C88	C	0.479141	-0.076235	0.880063
C89	C	-0.230772	-0.576015	0.379658
C90	C	0.269228	-0.076015	0.879658
C91	C	-0.129417	-0.609898	0.346025
C92	C	0.370583	-0.109898	0.846025
C93	C	-0.054587	-0.609979	0.346172
C94	C	0.445413	-0.109979	0.846172
C95	C	-0.073269	-0.628671	0.327396
C96	C	0.426731	-0.128671	0.827396
C97	C	-0.087401	-0.710299	0.370335
C98	C	0.412599	-0.210299	0.870335
C99	C	-0.070424	-0.761345	0.387369
C100	C	0.429576	-0.261345	0.887369
C101	C	0.012165	-0.761428	0.356003
C102	C	0.512165	-0.261428	0.856003
C103	C	-0.004813	-0.710383	0.338967
C104	C	0.495187	-0.210383	0.838967
C105	C	-0.155001	-0.622196	0.396191
C106	C	0.344999	-0.122196	0.896191
C107	C	-0.206043	-0.605128	0.413125
C108	C	0.293957	-0.105128	0.913125
C109	C	-0.205914	-0.563467	0.329724
C110	C	0.294086	-0.063467	0.829724
C111	C	-0.154872	-0.580535	0.312790
C112	C	0.345128	-0.080535	0.812790
C113	C	-0.066886	-0.559797	0.333828
C114	C	0.433114	-0.059797	0.833828
C115	C	-0.049903	-0.542809	0.350903
C116	C	0.450097	-0.042809	0.850903
C117	C	-0.008321	-0.626180	0.392654
C118	C	0.491679	-0.126180	0.892654
C119	C	-0.025304	-0.643170	0.375585
C120	C	0.474696	-0.143170	0.875585
C121	C	-0.066758	-0.559805	0.245702
C122	C	0.433242	-0.059805	0.745702
C123	C	-0.049671	-0.542819	0.194658
C124	C	0.450329	-0.042819	0.694658
C125	C	-0.008026	-0.626194	0.194706
C126	C	0.491974	-0.126194	0.694706
C127	C	-0.025111	-0.643179	0.245752
C128	C	0.474889	-0.143179	0.745752
C129	C	-0.054479	-0.609983	0.271248
C130	C	0.445521	-0.109983	0.771248
C131	C	-0.054597	-0.684821	0.346135
C132	C	0.445403	-0.184821	0.846135
C133	C	-0.002109	-0.556901	0.113746
C134	C	0.497891	-0.056901	0.613746
C135	C	-0.002869	-0.842328	0.398966
C136	C	0.497131	-0.342328	0.898966
C137	C	-0.002496	-0.556887	0.398501
C138	C	0.497504	-0.056887	0.898501
C139	C	-0.286914	-0.556929	0.397631
C140	C	0.213086	-0.056929	0.897631
N141	N	0.436349	-0.465146	0.490703
N142	N	0.936349	0.034854	0.990703
O143	O	0.592194	-0.469605	0.374236
O144	O	1.092194	0.030395	0.874236
O145	O	0.592389	-0.564393	0.502890
O146	O	1.092389	-0.064393	1.002890
O147	O	0.592305	-0.564176	0.421300
O148	O	1.092305	-0.064176	0.921300
O149	O	0.592277	-0.469822	0.455826
O150	O	1.092277	0.030178	0.955826
O151	O	0.511216	-0.537214	0.448415
O152	O	1.011216	-0.037214	0.948415
O153	O	0.511300	-0.537431	0.530004
O154	O	1.011300	-0.037431	1.030004
O155	O	0.511104	-0.442643	0.401350
O156	O	1.011104	0.057357	0.901350
Cu157	Cu	0.503798	-0.487575	0.468153
Cu158	Cu	1.003798	0.012425	0.968153
Cu159	Cu	0.599695	-0.519461	0.436087
Cu160	Cu	1.099695	-0.019461	0.936087
O161	O	0.511188	-0.442860	0.482940
O162	O	1.011188	0.057140	0.982940
N163	N	0.667145	-0.541890	0.413532
N164	N	1.167145	-0.041890	0.913532
N165	N	0.090108	-0.119085	0.490958
N166	N	0.590108	0.380915	0.990958
O167	O	-0.026275	0.036848	0.486394
O168	O	0.473725	0.536848	0.986394
O169	O	0.102381	0.036888	0.391584
O170	O	0.602381	0.536888	0.891584
O171	O	0.020751	0.036852	0.391854
O172	O	0.520751	0.536852	0.891854
O173	O	0.055356	0.036884	0.486124
O174	O	0.555356	0.536884	0.986124
O175	O	0.047821	-0.044242	0.418876
O176	O	0.547821	0.455758	0.918876
O177	O	0.129452	-0.044207	0.418606
O178	O	0.629452	0.455793	0.918606
O179	O	0.000796	-0.044246	0.513417
O180	O	0.500796	0.455754	1.013417
Cu181	Cu	0.067596	-0.051631	0.468479
Cu182	Cu	0.567596	0.448369	0.968479
Cu183	Cu	0.035582	0.044273	0.436522
Cu184	Cu	0.535582	0.544273	0.936522
O185	O	0.082426	-0.044211	0.513146
O186	O	0.582426	0.455789	1.013146
N187	N	0.013063	0.111726	0.414043
N188	N	0.513063	0.611726	0.914043
N189	N	0.090453	-0.465282	0.837001
N190	N	0.590453	0.034718	1.337001
O191	O	0.085913	-0.581648	0.992925
O192	O	0.585913	-0.081648	1.492925
O193	O	-0.008857	-0.452947	0.992970
O194	O	0.491143	0.047053	1.492970
O195	O	-0.008635	-0.534562	0.992946
O196	O	0.491365	-0.034562	1.492946
O197	O	0.085691	-0.500033	0.992949
O198	O	0.585691	-0.000033	1.492949
O199	O	0.018365	-0.507512	0.911855
O200	O	0.518365	-0.007512	1.411855
O201	O	0.018143	-0.425898	0.911878
O202	O	0.518143	0.074102	1.411878
O203	O	0.112912	-0.554598	0.911834
O204	O	0.612912	-0.054598	1.411834
Cu205	Cu	0.067993	-0.487778	0.904452
Cu206	Cu	0.567993	0.012222	1.404452
Cu207	Cu	0.036063	-0.519767	1.000352
Cu208	Cu	0.536063	-0.019767	1.500352
O209	O	0.112691	-0.472984	0.911857
O210	O	0.612691	0.027016	1.411857
N211	N	0.013602	-0.542269	1.067803
N212	N	0.513602	-0.042269	1.567803
C213	C	0.031188	-0.423114	0.392334
C214	C	0.531188	0.076886	0.892334
C215	C	0.132194	-0.524016	0.392223
C216	C	0.632194	-0.024016	0.892223
C217	C	0.072056	-0.584366	0.512840
C218	C	0.572056	-0.084366	1.012840
C219	C	-0.028950	-0.483464	0.512950
C220	C	0.471050	0.016536	1.012950
C221	C	0.551868	-0.563965	0.532655
C222	C	1.051868	-0.063965	1.032655
C223	C	0.551766	-0.563697	0.431617
C224	C	1.051766	-0.063697	0.931617
C225	C	0.551623	-0.443070	0.371586
C226	C	1.051623	0.056930	0.871586
C227	C	0.551728	-0.443339	0.472623
C228	C	1.051728	0.056661	0.972623
C229	C	0.132090	-0.003555	0.392006
C230	C	0.632090	0.496445	0.892006
C231	C	0.031035	-0.003698	0.392374
C232	C	0.531035	0.496302	0.892374
C233	C	-0.028947	-0.003703	0.512961
C234	C	0.471053	0.496297	1.012961
C235	C	0.072143	-0.003661	0.512626
C236	C	0.572143	0.496339	1.012626
C237	C	-0.008408	-0.423209	0.952430
C238	C	0.491592	0.076791	1.452430
C239	C	-0.008128	-0.524272	0.952385
C240	C	0.491872	-0.024272	1.452385
C241	C	0.112464	-0.584336	0.952374
C242	C	0.612464	-0.084336	1.452374
C243	C	0.112190	-0.483267	0.952401
C244	C	0.612190	0.016733	1.452401
H245	H	0.050098	-0.392105	0.730957
H246	H	0.550098	0.107895	1.230957
C247	C	0.035610	-0.388567	0.567683
C248	C	0.535610	0.111433	1.067683
H249	H	0.018301	-0.368665	0.587612
H250	H	0.518301	0.131335	1.087612
H251	H	0.027207	-0.371244	0.538838
H252	H	0.527207	0.128756	1.038838
H253	H	0.027264	-0.417441	0.585004
H254	H	0.527264	0.082559	1.085004
H255	H	0.052703	-0.782242	0.350169
H256	H	0.552703	-0.282242	0.850169
H257	H	0.551560	-0.413310	0.334638
H258	H	1.051560	0.086690	0.834638
C259	C	0.181890	-0.003211	0.351685
C260	C	0.681890	0.496789	0.851685
H261	H	0.181892	-0.003149	0.323369
H262	H	0.681892	0.496851	0.823369
H263	H	0.187659	0.025144	0.344104
H264	H	0.687659	0.525144	0.844104
H265	H	0.206842	-0.031417	0.362706
H266	H	0.706842	0.468583	0.862706
C267	C	0.551713	-0.403296	0.482600
C268	C	1.051713	0.096704	0.982600
H269	H	0.551751	-0.415215	0.514878
H270	H	1.051751	0.084785	1.014878
H271	H	0.579964	-0.394386	0.460086
H272	H	1.079964	0.105614	0.960086
H273	H	0.523406	-0.375583	0.478999
H274	H	1.023406	0.124417	0.978999
H275	H	0.023621	-0.003702	0.362756
H276	H	0.523621	0.496298	0.862756
C277	C	0.021255	-0.373137	0.352245
C278	C	0.521255	0.126863	0.852245
H279	H	-0.011025	-0.352723	0.364122
H280	H	0.488975	0.147277	0.864122
H281	H	0.043767	-0.358490	0.343345
H282	H	0.543767	0.141510	0.843345
H283	H	0.024888	-0.377367	0.324538
H284	H	0.524888	0.122633	0.824538
H285	H	-0.065895	-0.003715	0.542725
H286	H	0.434105	0.496285	1.042725
C287	C	-0.048603	-0.373278	0.952449
C288	C	0.451397	0.126722	1.452449
H289	H	-0.036829	-0.352791	0.952457
H290	H	0.463171	0.147209	1.452457
H291	H	-0.057475	-0.358685	0.924175
H292	H	0.442525	0.141315	1.424175
H293	H	-0.076303	-0.377555	0.980735
H294	H	0.423697	0.122445	1.480735
H295	H	0.551779	-0.593338	0.424228
H296	H	1.051779	-0.093338	0.924228
H297	H	0.142219	-0.621297	0.952354
H298	H	0.642219	-0.121297	1.452354
C299	C	0.182131	-0.533847	0.352070
C300	C	0.682131	-0.033847	0.852070
H301	H	0.202596	-0.566119	0.363891
H302	H	0.702596	-0.066119	0.863891
H303	H	0.177866	-0.530181	0.324370
H304	H	0.677866	-0.030181	0.824370
H305	H	0.196745	-0.511309	0.343183
H306	H	0.696745	-0.011309	0.843183
C307	C	-0.048146	-0.534231	0.952338
C308	C	0.451854	-0.034231	1.452338
H309	H	-0.076525	-0.506044	0.952342
H310	H	0.423475	-0.006044	1.452342
H311	H	-0.036871	-0.541960	0.924046
H312	H	0.463129	-0.041960	1.424046
H313	H	-0.055736	-0.560832	0.980607
H314	H	0.444264	-0.060832	1.480607
H315	H	0.079554	-0.003651	0.542242
H316	H	0.579554	0.496349	1.042242
C317	C	0.152225	-0.473287	0.952391
C318	C	0.652225	0.026713	1.452391
H319	H	0.140308	-0.440997	0.952396
H320	H	0.640308	0.059003	1.452396
H321	H	0.161122	-0.495782	0.980661
H322	H	0.661122	0.004218	1.480661
H323	H	0.179944	-0.476915	0.924101
H324	H	0.679944	0.023085	1.424101
H325	H	0.080878	-0.361206	0.638363
H326	H	0.580878	0.138794	1.138363
C327	C	0.081985	-0.634344	0.552928
C328	C	0.581985	-0.134344	1.052928
H329	H	0.053790	-0.634480	0.581292
H330	H	0.553790	-0.134480	1.081292
H331	H	0.089706	-0.659127	0.541708
H332	H	0.589706	-0.159127	1.041708
H333	H	0.108581	-0.640253	0.560522
H334	H	0.608581	-0.140253	1.060522
C335	C	0.210625	-0.476083	0.480116
C336	C	0.710625	0.023917	0.980116
H337	H	0.193297	-0.484477	0.471783
H338	H	0.693297	0.015523	0.971783
H339	H	0.230552	-0.458807	0.451233
H340	H	0.730552	0.041193	0.951233
H341	H	0.230522	-0.504934	0.497468
H342	H	0.730522	-0.004934	0.997468
C343	C	0.210863	-0.476065	0.738118
C344	C	0.710863	0.023935	1.238118
H345	H	0.193574	-0.484442	0.772178
H346	H	0.693574	0.015558	1.272178
H347	H	0.230779	-0.504922	0.729739
H348	H	0.730779	-0.004922	1.229739
H349	H	0.230765	-0.458732	0.729736
H350	H	0.730765	0.041268	1.229736
C351	C	0.246494	-0.440310	0.630933
C352	C	0.746494	0.059690	1.130933
H353	H	0.263838	-0.460221	0.653423
H354	H	0.763838	0.039779	1.153423
H355	H	0.254850	-0.457623	0.611019
H356	H	0.754850	0.042377	1.111019
H357	H	0.254842	-0.411438	0.611020
H358	H	0.754842	0.088562	1.111020
H359	H	0.551918	-0.593721	0.569607
H360	H	1.051918	-0.093721	1.069607
C361	C	0.246386	-0.440279	0.515740
C362	C	0.746386	0.059721	1.015740
H363	H	0.263695	-0.460186	0.495819
H364	H	0.763695	0.039814	0.995819
H365	H	0.254733	-0.411408	0.498422
H366	H	0.754733	0.088592	0.998422
H367	H	0.254788	-0.457604	0.544588
H368	H	0.754788	0.042396	1.044588
C369	C	-0.078888	-0.473637	0.553103
C370	C	0.421112	0.026363	1.053103
H371	H	-0.078962	-0.501869	0.581434
H372	H	0.421038	-0.001869	1.081434
H373	H	-0.084820	-0.447056	0.560731
H374	H	0.415180	0.052944	1.060731
H375	H	-0.103693	-0.465932	0.541917
H376	H	0.396307	0.034068	1.041917
C377	C	0.230391	-0.483261	0.592578
C378	C	0.730391	0.016739	1.092578
H379	H	0.252910	-0.515352	0.594435
H380	H	0.752910	-0.015352	1.094435
H381	H	0.210502	-0.481966	0.624561
H382	H	0.710502	0.018034	1.124561
H383	H	0.210458	-0.474723	0.575202
H384	H	0.710458	0.025277	1.075202
H385	H	0.080840	-0.361208	0.594989
H386	H	0.580840	0.138792	1.094989
H387	H	0.330277	-0.504737	0.554712
H388	H	0.830277	-0.004737	1.054712
H389	H	0.237625	-0.324046	0.528499
H390	H	0.737625	0.175954	1.028499
C391	C	0.337510	-0.345525	0.490640
C392	C	0.837510	0.154475	0.990640
H393	H	0.371566	-0.362784	0.481526
H394	H	0.871566	0.137216	0.981526
H395	H	0.329117	-0.322152	0.462284
H396	H	0.829117	0.177848	0.962284
H397	H	0.329161	-0.329389	0.511642
H398	H	0.829161	0.170611	1.011642
C399	C	0.202556	-0.325059	0.472031
C400	C	0.702556	0.174941	0.972031
H401	H	0.207425	-0.302539	0.439712
H402	H	0.707425	0.197461	0.939712
H403	H	0.233165	-0.344965	0.476906
H404	H	0.733165	0.155035	0.976906
H405	H	0.186968	-0.344977	0.476950
H406	H	0.686968	0.155023	0.976950
H407	H	-0.015291	-0.684031	0.385637
H408	H	0.484709	-0.184031	0.885637
H409	H	0.087777	-0.225214	0.601924
H410	H	0.587777	0.274786	1.101924
C411	C	0.166773	-0.217866	0.436339
C412	C	0.666773	0.282134	0.936339
H413	H	0.186682	-0.240368	0.419010
H414	H	0.686682	0.259632	0.919010
H415	H	0.137896	-0.197959	0.427994
H416	H	0.637896	0.302041	0.927994
H417	H	0.184087	-0.197947	0.427960
H418	H	0.684087	0.302053	0.927960
H419	H	0.118680	-0.317820	0.632757
H420	H	0.618680	0.182180	1.132757
H421	H	-0.090673	-0.532769	0.266460
H422	H	0.409327	-0.032769	0.766460
C423	C	-0.063189	-0.487620	0.166565
C424	C	0.436811	0.012380	0.666565
H425	H	-0.083130	-0.470285	0.189063
H426	H	0.416870	0.029715	0.689063
H427	H	-0.034316	-0.479278	0.146695
H428	H	0.465684	0.020722	0.646695
H429	H	-0.080472	-0.479241	0.146610
H430	H	0.419528	0.020759	0.646610
C431	C	-0.011605	-0.698377	0.273849
C432	C	0.488395	-0.198377	0.773849
H433	H	0.008326	-0.715713	0.251352
H434	H	0.508326	-0.215713	0.751352
H435	H	0.005674	-0.706765	0.293809
H436	H	0.505674	-0.206765	0.793809
H437	H	-0.040487	-0.706709	0.293715
H438	H	0.459513	-0.206709	0.793715
C439	C	0.024265	-0.662708	0.166663
C440	C	0.524265	-0.162708	0.666663
H441	H	0.032680	-0.645408	0.132605
H442	H	0.532680	-0.145408	0.632605
H443	H	0.053099	-0.682650	0.175084
H444	H	0.553099	-0.182650	0.675084
H445	H	0.006932	-0.682590	0.174996
H446	H	0.506932	-0.182590	0.674996
C447	C	-0.063427	-0.487612	0.337329
C448	C	0.436573	0.012388	0.837329
H449	H	-0.049122	-0.482248	0.351713
H450	H	0.450878	0.017752	0.851713
H451	H	-0.051640	-0.473293	0.302891
H452	H	0.448360	0.026707	0.802891
H453	H	-0.097868	-0.473241	0.349018
H454	H	0.402132	0.026759	0.849018
C455	C	0.023894	-0.662690	0.425000
C456	C	0.523894	-0.162690	0.925000
H457	H	0.032253	-0.645387	0.433398
H458	H	0.532253	-0.145387	0.933398
H459	H	0.006545	-0.682580	0.453842
H460	H	0.506545	-0.182580	0.953842
H461	H	0.052768	-0.682624	0.407710
H462	H	0.552768	-0.182624	0.907710
C463	C	0.031272	-0.682354	0.312348
C464	C	0.531272	-0.182354	0.812348
H465	H	0.014032	-0.648292	0.303223
H466	H	0.514032	-0.148292	0.803223
H467	H	0.047371	-0.690731	0.333392
H468	H	0.547371	-0.190731	0.833392
H469	H	0.054671	-0.690743	0.283996
H470	H	0.554671	-0.190743	0.783996
C471	C	-0.106508	-0.789374	0.414000
C472	C	0.393492	-0.289374	0.914000
H473	H	-0.089266	-0.823436	0.423117
H474	H	0.410734	-0.323436	0.923117
H475	H	-0.129902	-0.780985	0.442349
H476	H	0.370098	-0.280985	0.942349
H477	H	-0.122613	-0.781000	0.392959
H478	H	0.377387	-0.281000	0.892959
C479	C	-0.142160	-0.682185	0.378211
C480	C	0.357840	-0.182185	0.878211
H481	H	-0.159263	-0.704673	0.395059
H482	H	0.340737	-0.204673	0.895059
H483	H	-0.154157	-0.662262	0.396913
H484	H	0.345843	-0.162262	0.896913
H485	H	-0.146843	-0.662279	0.347515
H486	H	0.353157	-0.162279	0.847515
C487	C	-0.127002	-0.654490	0.432747
C488	C	0.372998	-0.154490	0.932747
H489	H	-0.149551	-0.659363	0.465051
H490	H	0.350449	-0.159363	0.965051
H491	H	-0.107097	-0.685097	0.427867
H492	H	0.392903	-0.185097	0.927867
H493	H	-0.107090	-0.638927	0.427882
H494	H	0.392910	-0.138927	0.927882
H495	H	-0.226875	-0.615140	0.453976
H496	H	0.273125	-0.115140	0.953976
C497	C	-0.233918	-0.531171	0.293170
C498	C	0.266082	-0.031171	0.793170
H499	H	-0.267981	-0.522767	0.310441
H500	H	0.232019	-0.022767	0.810441
H501	H	-0.225519	-0.502330	0.273266
H502	H	0.274481	-0.002330	0.773266
H503	H	-0.225535	-0.548498	0.273255
H504	H	0.274465	-0.048498	0.773255
C505	C	-0.126727	-0.567013	0.257606
C506	C	0.373273	-0.067013	0.757606
H507	H	-0.149198	-0.547085	0.240238
H508	H	0.350802	-0.047085	0.740238
H509	H	-0.106806	-0.549725	0.249274
H510	H	0.393194	-0.049725	0.749274
H511	H	-0.106820	-0.595892	0.249259
H512	H	0.393180	-0.095892	0.749259
H513	H	-0.090726	-0.532768	0.309877
H514	H	0.409274	-0.032768	0.809877
