data_functionalizedCrystal
_audit_creation_method	'MofGen! by Chris Wilmer'
_symmetry_space_group_name_H-M	'P1'
_symmetry_Int_Tables_number	1
_symmetry_cell_setting	triclinic
loop_
_symmetry_equiv_pos_as_xyz
  x,y,z
_cell_length_a	10.489741
_cell_length_b	27.732048
_cell_length_c	9.565339
_cell_angle_alpha	89.995294
_cell_angle_beta	89.999100
_cell_angle_gamma	83.590915
loop_
_atom_site_label
_atom_site_type_symbol
_atom_site_fract_x
_atom_site_fract_y
_atom_site_fract_z
O1	O	1.691056	0.068187	-0.116191
O2	O	1.319579	0.074588	-0.116214
O3	O	1.516855	0.001064	-0.116175
O4	O	1.493780	0.141712	-0.116230
O5	O	1.516839	0.001068	0.116345
O6	O	1.319563	0.074593	0.116306
O7	O	1.691040	0.068192	0.116329
Zn8	Zn	1.505299	0.071393	0.153235
Zn9	Zn	1.505320	0.071387	-0.153120
O10	O	1.493765	0.141716	0.116290
C11	C	1.272061	0.074107	0.000043
C12	C	1.130495	0.072661	0.000036
C13	C	1.064411	0.025879	0.000067
C14	C	0.971320	0.047976	-0.114583
C15	C	0.971339	0.047992	0.114663
C16	C	1.039269	0.094777	-0.114709
C17	C	1.039297	0.094786	0.114640
C18	C	0.946232	0.116916	-0.000038
C19	C	1.516363	-0.016944	0.000089
C20	C	1.514904	-0.070608	0.000100
C21	C	1.622299	-0.408745	0.000035
C22	C	1.616888	-0.610439	0.000015
O23	O	1.715093	-0.641075	-0.000040
N24	N	1.499911	-0.630301	0.000009
C25	C	1.384279	-0.599736	-0.000001
O26	O	1.284660	-0.621258	-0.000021
C27	C	1.389692	-0.398044	0.000009
C28	C	1.506676	-0.378184	0.000029
C29	C	1.739274	-0.388886	0.000054
C30	C	1.740625	-0.338465	0.000066
C31	C	1.625002	-0.307904	0.000060
C32	C	1.508028	-0.327764	0.000042
C33	C	1.274062	-0.367480	-0.000011
C34	C	1.275425	-0.317054	-0.000012
C35	C	1.392409	-0.297195	0.000008
C36	C	1.393757	-0.246783	0.000048
N37	N	1.510733	-0.226920	0.000054
C38	C	1.626356	-0.257481	0.000060
C39	C	1.381446	-0.705628	-0.000003
C40	C	1.380092	-0.756051	-0.000003
C41	C	1.612701	-0.766751	0.000010
C42	C	1.614053	-0.716327	0.000020
C43	C	1.498422	-0.685766	0.000003
C44	C	1.629186	-0.151594	0.000088
C45	C	1.630527	-0.101169	0.000106
C46	C	1.397919	-0.090474	0.000085
C47	C	1.396577	-0.140895	0.000074
C48	C	1.512221	-0.171454	0.000071
O49	O	1.295604	-0.216118	0.000088
O50	O	1.725961	-0.235950	0.000049
C51	C	1.620947	-0.459166	0.000023
C52	C	1.503973	-0.479025	0.000004
C53	C	1.388350	-0.448464	-0.000002
C54	C	1.502619	-0.529448	0.000004
C55	C	1.618242	-0.560009	0.000010
C56	C	1.735219	-0.540147	0.000016
C57	C	1.736570	-0.489727	0.000029
C58	C	1.271374	-0.468327	-0.000008
C59	C	1.270032	-0.518748	-0.000019
C60	C	1.385654	-0.549308	-0.000013
C61	C	1.738559	0.068673	0.000069
C62	C	1.880124	0.070119	0.000067
C63	C	1.494257	0.159724	0.000023
C64	C	1.495715	0.213388	0.000003
N65	N	1.505295	0.071397	0.362315
N66	N	1.505335	0.071379	-0.362199
C67	C	1.414034	0.105388	0.453500
C68	C	1.529101	0.115168	0.546682
C69	C	1.390277	0.061621	0.546688
C70	C	1.620419	0.081198	0.453445
C71	C	1.481520	0.027633	0.453443
C72	C	1.596671	0.037394	0.546583
H73	H	1.069467	0.114566	0.211560
H74	H	1.336927	0.134160	0.412630
N75	N	1.076829	0.119600	-0.236429
N76	N	1.132074	0.157038	-0.223915
H77	H	1.158598	0.174572	-0.309876
H78	H	0.941224	0.028191	0.211592
N79	N	1.154573	-0.387764	-0.000030
N80	N	1.127832	-0.414708	0.097970
H81	H	1.043436	-0.429034	0.097956
H82	H	1.706846	-0.791642	0.000016
H83	H	1.723354	-0.176470	0.000080
H84	H	1.717725	0.089504	0.412659
H85	H	1.725793	-0.085003	0.000126
N86	N	0.933494	0.023155	-0.236176
N87	N	0.956593	0.038669	-0.355166
H88	H	0.929881	0.021138	-0.441041
N89	N	0.882116	0.165213	-0.000142
N90	N	0.899345	0.193377	-0.098678
H91	H	0.854063	0.227486	-0.098758
H92	H	1.673948	0.008640	0.587197
H93	H	1.461348	-0.009359	0.412456
N94	N	1.268246	0.051258	0.598101
N95	N	1.203447	0.081247	0.674558
H96	H	1.117260	0.073932	0.710870
N97	N	1.128807	-0.022374	-0.000065
N98	N	1.111795	-0.050541	-0.098647
H99	H	1.157274	-0.084619	-0.098747
H100	H	1.835885	-0.322301	0.000077
N101	N	1.857392	-0.420097	0.000100
N102	N	1.882586	-0.449424	0.098130
H103	H	1.966015	-0.471464	0.098176
N104	N	1.157309	-0.285837	-0.000059
N105	N	1.079305	-0.287883	-0.098091
H106	H	0.995885	-0.265836	-0.098126
H107	H	1.709312	-0.700161	0.000036
H108	H	1.287280	-0.680750	-0.000017
N109	N	1.260585	-0.776326	0.000009
N110	N	1.157365	-0.749028	0.000005
H111	H	1.072957	-0.763344	0.000008
N112	N	1.277073	-0.161176	0.000097
N113	N	1.173847	-0.133881	0.000113
H114	H	1.089444	-0.148201	0.000125
H115	H	1.303782	-0.065582	0.000085
H116	H	1.831831	-0.473562	0.000045
N117	N	1.853327	-0.571369	0.000051
N118	N	1.878506	-0.600704	0.098063
H119	H	1.961915	-0.622757	0.098085
N120	N	1.150515	-0.539021	-0.000023
N121	N	1.047295	-0.511723	-0.000030
H122	H	0.962887	-0.526040	-0.000042
N123	N	1.153260	-0.437114	-0.000033
N124	N	1.075241	-0.439160	-0.098051
H125	H	0.991815	-0.417118	-0.098064
N126	N	1.554356	0.161589	0.598046
N127	N	1.480163	0.198605	0.568221
H128	H	1.497991	0.231392	0.604490
