data_functionalizedCrystal
_audit_creation_method	'MofGen! by Chris Wilmer'
_symmetry_space_group_name_H-M	'P1'
_symmetry_Int_Tables_number	1
_symmetry_cell_setting	triclinic
loop_
_symmetry_equiv_pos_as_xyz
  x,y,z
_cell_length_a	14.971486
_cell_length_b	13.330367
_cell_length_c	14.853576
_cell_angle_alpha	90.001339
_cell_angle_beta	83.626306
_cell_angle_gamma	90.002734
loop_
_atom_site_label
_atom_site_type_symbol
_atom_site_fract_x
_atom_site_fract_y
_atom_site_fract_z
O1	O	1.186974	0.083306	0.117482
O2	O	0.926577	0.083333	0.131551
O3	O	1.063727	0.083315	-0.006714
O4	O	1.049824	0.083324	0.255747
O5	O	1.063706	-0.083533	-0.006711
O6	O	0.926556	-0.083514	0.131554
O7	O	1.186953	-0.083541	0.117484
Cu8	Cu	1.056753	-0.098762	0.124519
Cu9	Cu	1.056777	0.098554	0.124516
O10	O	1.049803	-0.083523	0.255750
C11	C	0.893242	-0.000087	0.130923
C12	C	0.793944	-0.000077	0.129038
C13	C	0.736736	-0.000076	0.210265
C14	C	0.643436	-0.000091	0.208488
C15	C	0.607346	-0.000100	0.125483
C16	C	0.664562	-0.000104	0.044249
C17	C	0.757860	-0.000097	0.046027
C18	C	0.470098	-0.000118	0.040549
C19	C	0.376794	-0.000124	0.038771
C20	C	0.355675	-0.000112	0.203009
C21	C	0.448973	-0.000105	0.204787
C22	C	0.506182	-0.000107	0.123554
N23	N	1.056742	-0.237544	0.124521
C24	C	1.063085	-0.000108	-0.040301
C25	C	1.061193	-0.000104	-0.140384
C26	C	1.220289	-0.000119	0.118112
C27	C	1.319586	-0.000123	0.119998
C28	C	1.002430	-0.290065	0.069752
C29	C	1.111065	-0.290051	0.179286
C30	C	1.111075	-0.395069	0.179286
C31	C	1.056763	-0.447590	0.124516
C32	C	1.002441	-0.395093	0.069748
C33	C	1.165404	-0.447574	0.234046
C34	C	1.165417	-0.552599	0.234047
C35	C	1.111100	-0.605122	0.179282
C36	C	1.056774	-0.552618	0.124512
C37	C	1.002462	-0.605140	0.069743
C38	C	0.948131	-0.552638	0.014977
C39	C	0.948123	-0.447616	0.014982
C40	C	1.111108	-0.710144	0.179276
C41	C	1.002473	-0.710168	0.069738
N42	N	1.056795	0.237335	0.124507
C43	C	1.060314	0.090849	-0.187401
C44	C	1.060302	-0.091054	-0.187411
C45	C	1.058529	-0.091054	-0.281445
C46	C	1.057650	-0.000101	-0.328461
C47	C	1.058544	0.090852	-0.281443
C48	C	1.057644	-0.182006	-0.328470
C49	C	1.055872	-0.182009	-0.422510
C50	C	1.054987	-0.091055	-0.469527
C51	C	1.055880	-0.000098	-0.422504
C52	C	1.055001	0.090855	-0.469520
C53	C	1.055888	0.181812	-0.422498
C54	C	1.057659	0.181806	-0.328461
C55	C	1.053216	-0.091049	-0.563564
C56	C	1.053231	0.090857	-0.563563
C57	C	1.050445	-0.000099	0.289337
C58	C	1.052337	-0.000096	0.389420
H59	H	0.766113	-0.000067	0.277857
H60	H	0.478354	-0.000087	0.272377
C61	C	1.225159	-0.389795	0.294272
N62	N	1.270173	-0.346271	0.339632
C63	C	1.058650	0.281850	-0.276731
N64	N	1.059404	0.357203	-0.237766
H65	H	1.055177	0.255866	-0.460791
C66	C	1.052242	-0.191096	-0.615285
N67	N	1.051505	-0.266457	-0.654239
H68	H	0.804439	-0.000097	-0.020116
C69	C	0.888530	-0.389857	-0.045421
N70	N	0.843705	-0.346348	-0.090977
C71	C	0.292743	-0.000115	0.292368
N72	N	0.245339	-0.000114	0.359669
H73	H	1.061033	0.164904	-0.149110
H74	H	1.058367	-0.256055	-0.290184
C75	C	1.054885	-0.282064	-0.474224
N76	N	1.054137	-0.357426	-0.513176
C77	C	0.580511	-0.000107	0.297844
N78	N	0.533115	-0.000127	0.365151
C79	C	0.337097	-0.000136	-0.052539
N80	N	0.307198	-0.000145	-0.121315
C81	C	1.170816	-0.232274	0.239518
N82	N	1.215824	-0.188752	0.284885
C83	C	1.052281	0.190915	-0.615276
N84	N	1.051574	0.266279	-0.654226
H85	H	0.516676	-0.000122	-0.025600
H86	H	0.635170	-0.000126	-0.023335
H87	H	0.958192	-0.247314	0.025165
H88	H	0.958241	-0.752923	0.025142
H89	H	1.155346	-0.752886	0.223862
H90	H	0.903914	-0.595414	-0.029620
H91	H	1.209656	-0.595337	0.278642
H92	H	1.061024	-0.165104	-0.149125
