data_functionalizedCrystal
_audit_creation_method	'MofGen! by Chris Wilmer'
_symmetry_space_group_name_H-M	'P1'
_symmetry_Int_Tables_number	1
_symmetry_cell_setting	triclinic
loop_
_symmetry_equiv_pos_as_xyz
  x,y,z
_cell_length_a	16.704494
_cell_length_b	16.704486
_cell_length_c	23.196401
_cell_angle_alpha	57.664705
_cell_angle_beta	90.013666
_cell_angle_gamma	54.477068
loop_
_atom_site_label
_atom_site_type_symbol
_atom_site_fract_x
_atom_site_fract_y
_atom_site_fract_z
Zr1	Zr	0.748836	0.864413	-0.093166
O2	O	0.598541	1.061700	-0.201091
O3	O	0.804604	0.677622	-0.053118
O4	O	0.790580	0.859781	-0.183432
O5	O	0.612599	0.879536	0.024096
O6	O	0.931036	0.844187	-0.177424
O7	O	0.612565	0.879542	-0.070777
O8	O	0.956121	0.518339	0.055684
O9	O	0.587513	1.205384	-0.209012
O10	O	0.921495	0.738927	-0.039967
O11	O	0.816700	0.750560	0.026351
O12	O	0.800189	0.965028	-0.127076
O13	O	0.695394	0.976661	-0.060758
Zr14	Zr	0.972900	0.839533	0.067728
Zr15	Zr	0.972846	0.839543	-0.083583
Zr16	Zr	0.748889	0.864404	0.058145
Zr17	Zr	0.731247	1.093572	-0.105799
Zr18	Zr	0.990488	0.610374	0.080361
O19	O	0.917131	1.026324	0.027680
O20	O	0.917055	1.026338	-0.187465
O21	O	0.598618	1.061687	0.014055
O22	O	1.123194	0.642246	0.175653
O23	O	1.123117	0.642260	-0.039492
O24	O	0.804680	0.677609	0.162027
O25	O	1.109136	0.824411	-0.049534
O26	O	0.931155	0.844166	0.157994
O27	O	0.790700	0.859760	0.151986
O28	O	1.109170	0.824405	0.045339
O29	O	0.765571	1.185615	-0.201394
O30	O	0.956164	0.518331	0.175956
O31	O	1.134222	0.498563	0.183574
O32	O	1.134179	0.498570	0.063301
O33	O	0.587556	1.205377	-0.088739
O34	O	0.765614	1.185608	-0.081122
O35	O	0.921546	0.738918	0.101638
O36	O	1.026341	0.727285	0.035320
O37	O	0.905035	0.953386	-0.051789
O38	O	0.800240	0.965019	0.014529
C39	C	0.882868	0.565330	0.003083
C40	C	0.890335	0.468046	0.008446
C41	C	0.737412	0.460762	-0.101381
C42	C	0.744424	0.369361	-0.096346
C43	C	0.911372	0.193841	0.023547
C44	C	0.904361	0.285242	0.018512
C45	C	0.817377	0.418703	-0.043953
C46	C	0.810363	0.510106	-0.048985
C47	C	0.977315	0.334585	0.070904
C48	C	0.984326	0.243183	0.075939
C49	C	0.580665	0.883082	-0.024706
C50	C	0.485567	0.893641	-0.028774
C51	C	0.433521	0.677410	0.054542
C52	C	0.344171	0.687324	0.050721
C53	C	0.217517	0.923382	-0.040230
C54	C	0.306866	0.913468	-0.036410
C55	C	0.414868	0.790478	0.010977
C56	C	0.504219	0.780565	0.014792
C57	C	0.377563	1.016621	-0.076155
C58	C	0.288213	1.026536	-0.079975
C59	C	1.141070	0.820864	-0.000732
C60	C	1.236168	0.810306	0.003336
C61	C	0.860800	0.851985	-0.201986
C62	C	0.860777	0.851989	-0.266222
C63	C	0.838867	1.138616	-0.028521
C64	C	0.831400	1.235900	-0.033884
C65	C	0.797462	0.970008	-0.341865
C66	C	0.797489	0.970006	-0.402219
C67	C	0.860816	0.851982	-0.386927
C68	C	0.924145	0.733947	-0.311270
C69	C	0.924125	0.733951	-0.250918
C70	C	0.859627	0.767077	-0.449848
C71	C	0.859639	0.767079	-0.510201
C72	C	0.860883	0.851965	-0.573071
C73	C	0.862093	0.936872	-0.575589
C74	C	0.862074	0.936876	-0.515237
C75	C	0.860845	0.851965	-0.452363
C76	C	0.797594	0.969990	-0.714160
C77	C	0.797628	0.969983	-0.774513
C78	C	0.924277	0.733922	-0.683562
C79	C	0.924250	0.733931	-0.623211
C80	C	0.860902	0.851969	-0.638515
C81	C	0.860935	0.851961	0.176549
C82	C	0.860958	0.851957	0.240784
C83	C	1.163071	0.534221	0.015070
C84	C	1.265636	0.426379	0.024501
C85	C	0.882936	0.565318	0.192350
C86	C	0.890426	0.468030	0.261949
C87	C	1.163138	0.534209	0.204337
C88	C	1.265726	0.426363	0.278004
C89	C	0.558597	1.169737	-0.229775
C90	C	0.456009	1.277584	-0.303442
C91	C	0.558664	1.169725	-0.040508
C92	C	0.456099	1.277568	-0.049939
C93	C	0.838799	1.138628	-0.217788
C94	C	0.831310	1.235916	-0.287387
C95	C	1.259073	0.381812	-0.010375
C96	C	1.355434	0.280497	-0.001529
C97	C	1.458358	0.223743	0.042199
C98	C	1.464918	0.268320	0.077075
C99	C	1.368557	0.369640	0.068224
C100	C	0.948671	0.416266	0.333938
C101	C	0.955704	0.324867	0.399339
C102	C	0.904496	0.285227	0.392748
C103	C	0.846243	0.337001	0.320751
C104	C	0.839205	0.428405	0.255352
C105	C	1.368614	0.369644	0.277982
C106	C	1.465014	0.268323	0.347193
C107	C	1.458524	0.223716	0.416427
C108	C	1.355625	0.280446	0.416447
C109	C	1.259227	0.381771	0.347236
C110	C	0.353120	1.334314	-0.303420
C111	C	0.256718	1.435663	-0.372634
C112	C	0.263208	1.480274	-0.441867
C113	C	0.366107	1.423539	-0.441887
C114	C	0.462506	1.322198	-0.372675
C115	C	0.462661	1.322144	-0.015069
C116	C	0.366298	1.423485	-0.023934
C117	C	0.263375	1.480241	-0.067664
C118	C	0.256815	1.435661	-0.102537
C119	C	0.353177	1.334328	-0.093677
C120	C	0.882530	1.275526	-0.280772
C121	C	0.875514	1.366924	-0.346160
C122	C	0.817270	1.418718	-0.418163
C123	C	0.766049	1.379099	-0.424776
C124	C	0.773072	1.287696	-0.359388
H125	H	0.739527	0.618774	-0.099841
Cl126	Cl	1.376827	0.425645	0.112081
Cl127	Cl	1.003904	0.585544	-0.664330
Cl128	Cl	1.347163	0.224474	-0.045376
H129	H	0.184705	1.562794	-0.498219
H130	H	1.003142	0.282722	0.457956
H131	H	0.371378	1.459875	-0.498266
Cl132	Cl	0.127374	1.506962	-0.372591
H133	H	0.546280	1.276009	-0.372701
H134	H	0.863101	1.005999	-0.626781
H135	H	1.042424	0.300343	0.117669
Cl136	Cl	0.692821	1.444237	-0.515301
H137	H	0.746013	1.066104	-0.726622
H138	H	0.990372	0.448530	0.339319
H139	H	1.350357	0.244112	0.472827
H140	H	1.536812	0.141242	0.049400
H141	H	1.548730	0.222096	0.112678
Cl142	Cl	0.781877	0.287151	0.312479
Cl143	Cl	0.152438	1.181143	-0.139540
H144	H	0.746073	1.066091	-0.836107
Cl145	Cl	0.592038	1.250819	0.039905
Cl146	Cl	0.808447	1.533630	-0.500359
Cl147	Cl	1.003828	0.585558	-0.528113
Cl148	Cl	0.939905	1.416719	-0.337829
Cl149	Cl	0.354114	1.158772	-0.130945
H150	H	0.858606	0.697954	-0.398661
H151	H	0.521459	0.577266	0.093130
H152	H	0.731357	1.255457	-0.364785
Cl153	Cl	0.374570	1.479502	0.019917
H154	H	0.791779	0.470540	0.196738
Cl155	Cl	1.376801	0.425707	0.190954
Cl156	Cl	0.628057	0.628542	-0.179901
H157	H	0.129571	1.023514	-0.078800
H158	H	0.184919	1.562752	-0.074872
Cl159	Cl	0.127417	1.507021	-0.157506
Cl160	Cl	0.717803	1.118401	-0.361108
H161	H	0.910236	0.210799	0.446007
Cl162	Cl	0.717887	1.118384	-0.497325
H163	H	0.975685	0.637843	-0.189324
H164	H	1.548789	0.222143	0.347164
H165	H	0.863062	1.006008	-0.517289
Cl166	Cl	0.344909	1.278294	-0.137513
H167	H	0.679309	0.403617	-0.143110
Cl168	Cl	1.579722	0.096330	0.503430
H169	H	0.858647	0.697948	-0.508147
H170	H	0.982200	0.085166	0.074396
Cl171	Cl	1.003761	0.585573	-0.292044
H172	H	0.929957	1.233369	-0.222150
H173	H	1.175456	0.427940	0.347265
Cl174	Cl	0.344933	1.278253	-0.216393
H175	H	1.055148	0.134510	0.126795
H176	H	0.592156	0.680419	0.053381
H177	H	0.359368	0.595253	0.086197
H178	H	1.175276	0.428019	-0.045991
