data_functionalizedCrystal
_audit_creation_method	'MofGen! by Chris Wilmer'
_symmetry_space_group_name_H-M	'P1'
_symmetry_Int_Tables_number	1
_symmetry_cell_setting	triclinic
loop_
_symmetry_equiv_pos_as_xyz
  x,y,z
_cell_length_a	6.817900
_cell_length_b	19.551823
_cell_length_c	17.110486
_cell_angle_alpha	96.698619
_cell_angle_beta	99.060439
_cell_angle_gamma	101.663376
loop_
_atom_site_label
_atom_site_type_symbol
_atom_site_fract_x
_atom_site_fract_y
_atom_site_fract_z
V1	V	-3.967875	-0.096467	-0.247089
O2	O	-3.965827	0.004850	-0.242005
O3	O	-3.910834	-0.191483	-0.245766
O4	O	-3.897881	-0.094889	-0.354686
O5	O	-3.978870	-0.092413	-0.132330
V6	V	-4.455421	-0.084359	-0.233319
O7	O	-4.220309	-0.123025	-0.277296
O8	O	-4.653184	-0.057800	-0.203112
O9	O	-4.289256	0.010657	-0.234642
O10	O	-4.574866	-0.185675	-0.238403
O11	O	-4.561823	-0.088412	-0.348078
O12	O	-4.302209	-0.085937	-0.125722
C13	C	-3.754431	-0.214649	-0.241962
C14	C	-3.788936	-0.292325	-0.241597
C15	C	-3.986117	-0.332368	-0.245382
C16	C	-4.018541	-0.405354	-0.245047
C17	C	-3.853767	-0.438293	-0.240911
C18	C	-3.656559	-0.398242	-0.237129
C19	C	-3.624143	-0.325258	-0.237472
C20	C	-3.750609	-0.544823	-0.190733
C21	C	-3.783029	-0.617805	-0.190386
C22	C	-3.953741	-0.663400	-0.239856
C23	C	-4.092057	-0.636003	-0.289665
C24	C	-4.059642	-0.563019	-0.290008
C25	C	-3.888896	-0.517431	-0.240539
C26	C	-4.186093	-0.782583	-0.243280
C27	C	-4.218512	-0.855571	-0.242949
C28	C	-3.856520	-0.848456	-0.235023
C29	C	-3.824110	-0.775470	-0.235361
C30	C	-3.988903	-0.742538	-0.239486
C31	C	-3.737907	-0.091432	-0.380901
C32	C	-3.761905	-0.090771	-0.468864
C33	C	-3.954149	-0.093948	-0.514234
C34	C	-3.976686	-0.093326	-0.596885
C35	C	-3.806979	-0.089532	-0.634165
C36	C	-3.614718	-0.086353	-0.588789
C37	C	-3.592181	-0.086970	-0.506139
C38	C	-3.865969	-0.087491	-0.883512
C39	C	-3.888522	-0.086877	-0.966169
C40	C	-4.250489	-0.093848	-0.974259
C41	C	-4.227937	-0.094468	-0.891608
C42	C	-4.035678	-0.091286	-0.846238
C43	C	-3.830012	-0.088899	-0.718648
C44	C	-4.012645	-0.091914	-0.761756
C45	C	-4.109001	0.033819	-0.238444
C46	C	-4.053733	0.111495	-0.238814
C47	C	-4.125525	-0.089395	-0.099503
C48	C	-4.080766	-0.090053	-0.011539
H49	H	-4.379086	-0.888174	-0.246037
H50	H	-4.133226	-0.095909	-0.633821
H51	H	-3.722358	-0.875275	-0.231660
N52	N	-3.658608	-0.084070	-0.834597
H53	H	-3.662896	-0.127680	-0.807974
H54	H	-3.619567	-0.040634	-0.792318
N55	N	-3.705463	-0.082764	-1.006377
H56	H	-3.580242	-0.080833	-0.965094
H57	H	-3.685274	-0.038842	-1.032637
N58	N	-3.633848	-0.647363	-0.136684
H59	H	-3.706639	-0.673629	-0.098284
H60	H	-3.520790	-0.607378	-0.105457
N61	N	-3.431668	-0.082256	-0.628992
H62	H	-3.475113	-0.082349	-0.688236
H63	H	-3.370405	-0.124352	-0.620626
H64	H	-3.691841	-0.085813	-0.749011
H65	H	-3.435629	-0.084366	-0.469196
N66	N	-4.195669	-0.096000	-0.721543
H67	H	-4.216079	-0.139919	-0.695279
H68	H	-4.320779	-0.097891	-0.762863
H69	H	-4.179116	-0.437963	-0.248130
N70	N	-4.163857	-0.296851	-0.249856
H71	H	-4.293698	-0.333298	-0.252212
H72	H	-4.175047	-0.273478	-0.299487
N73	N	-3.566482	-0.495650	-0.137367
H74	H	-3.566930	-0.445258	-0.145142
H75	H	-3.438414	-0.508045	-0.151667
H76	H	-4.172263	-0.540715	-0.330565
H77	H	-3.463572	-0.292655	-0.234391
H78	H	-4.230863	-0.673136	-0.330057
H79	H	-4.366134	-0.097557	-0.861260
N80	N	-4.457846	-0.097273	-1.023187
H81	H	-4.496987	-0.140681	-1.065510
H82	H	-4.453411	-0.053632	-1.049754
H83	H	-4.320277	-0.755767	-0.246637
H84	H	-3.663543	-0.742866	-0.232274
H85	H	-3.522401	-0.425065	-0.233763
N86	N	-4.137196	-0.098045	-0.474029
H87	H	-4.262400	-0.099961	-0.515315
H88	H	-4.114020	-0.054942	-0.432063
