data_functionalizedCrystal
_audit_creation_method	'MofGen! by Chris Wilmer'
_symmetry_space_group_name_H-M	'P1'
_symmetry_Int_Tables_number	1
_symmetry_cell_setting	triclinic
loop_
_symmetry_equiv_pos_as_xyz
  x,y,z
_cell_length_a	18.426585
_cell_length_b	14.560432
_cell_length_c	14.560432
_cell_angle_alpha	90.001358
_cell_angle_beta	60.003210
_cell_angle_gamma	59.998641
loop_
_atom_site_label
_atom_site_type_symbol
_atom_site_fract_x
_atom_site_fract_y
_atom_site_fract_z
Zr1	Zr	0.794329	0.884767	-0.120465
O2	O	0.945729	0.738117	-0.267107
O3	O	0.642930	0.929724	-0.075516
O4	O	0.794325	0.929723	-0.267109
O5	O	0.794336	0.738118	0.075624
O6	O	0.794322	1.080864	-0.267106
O7	O	0.794333	0.738118	-0.075514
O8	O	0.523503	1.080866	0.075619
O9	O	1.065155	0.738116	-0.267101
O10	O	0.705200	1.061692	-0.056337
O11	O	0.705205	0.948896	0.056452
O12	O	0.883454	0.948895	-0.169124
O13	O	0.883458	0.836100	-0.056334
Zr14	Zr	0.794329	1.125820	0.120588
Zr15	Zr	0.794324	1.125820	-0.120459
Zr16	Zr	0.794334	0.884767	0.120582
Zr17	Zr	0.984801	0.884766	-0.120456
Zr18	Zr	0.603858	1.125821	0.120579
O19	O	0.945729	1.080863	0.075639
O20	O	0.945722	1.080863	-0.267099
O21	O	0.945736	0.738117	0.075631
O22	O	0.642930	1.272470	0.267230
O23	O	0.642923	1.272471	-0.075508
O24	O	0.642937	0.929724	0.267222
O25	O	0.794322	1.272470	-0.075501
O26	O	0.794333	1.080864	0.267233
O27	O	0.794336	0.929723	0.267229
O28	O	0.794325	1.272470	0.075637
O29	O	1.065151	0.929721	-0.267097
O30	O	0.523507	1.080866	0.267220
O31	O	0.523503	1.272471	0.267224
O32	O	0.523500	1.272471	0.075624
O33	O	1.065159	0.738116	-0.075501
O34	O	1.065155	0.929721	-0.075496
O35	O	0.705205	1.061692	0.169247
O36	O	0.705200	1.174487	0.056458
O37	O	0.883454	1.061691	-0.056329
O38	O	0.883458	0.948895	0.056461
C39	C	0.556079	1.005295	0.000050
C40	C	0.475219	1.005296	0.000047
C41	C	0.794336	1.005293	0.301575
C42	C	0.794338	1.005293	0.403906
C43	C	0.794323	1.306815	0.000069
C44	C	0.794321	1.409148	0.000071
C45	C	0.179109	1.005289	0.000079
C46	C	0.261496	1.005288	0.000073
C47	C	0.327162	1.005292	0.000062
C48	C	0.409553	1.005292	0.000057
C49	C	1.032580	1.005292	0.000073
C50	C	1.113440	1.005292	0.000077
C51	C	0.794336	0.703773	0.000054
C52	C	0.794338	0.601439	0.000052
C53	C	0.608223	1.526926	0.117833
C54	C	0.515177	1.633888	0.176715
C55	C	0.515181	1.730035	0.176712
C56	C	0.608242	1.719216	0.117819
C57	C	0.701287	1.612254	0.058937
C58	C	0.701273	1.516111	0.058948
C59	C	0.887384	1.494477	-0.058830
C60	C	0.887381	1.398329	-0.058822
C61	C	0.980444	1.483658	-0.117724
C62	C	1.073492	1.376695	-0.176601
C63	C	1.073484	1.280545	-0.176595
C64	C	0.980427	1.291367	-0.117705
C65	C	0.794323	1.005294	-0.301452
C66	C	0.794321	1.005294	-0.403782
C67	C	0.980436	0.887544	0.286172
C68	C	1.073482	0.828674	0.275383
C69	C	1.073478	0.828677	0.371535
C70	C	0.980417	0.887552	0.478486
C71	C	0.887371	0.946422	0.489276
C72	C	0.887386	0.946416	0.393115
C73	C	0.701275	1.064163	0.607007
C74	C	0.701277	1.064169	0.510856
C75	C	0.608215	1.123039	0.713958
C76	C	0.515167	1.181916	0.724749
C77	C	0.515175	1.181913	0.628588
C78	C	0.608231	1.123039	0.521646
C79	C	0.556072	1.306816	0.000058
C80	C	0.475210	1.409150	0.000056
C81	C	0.556085	1.005295	0.301564
C82	C	0.475227	1.005295	0.403890
C83	C	0.556079	1.306816	0.301571
C84	C	0.475219	1.409150	0.403900
C85	C	1.032580	0.703771	-0.301448
C86	C	1.113440	0.601437	-0.403777
C87	C	1.032586	0.703771	0.000066
C88	C	1.113449	0.601437	0.000067
C89	C	1.032574	1.005292	-0.301440
C90	C	1.113432	1.005292	-0.403767
C91	C	0.437236	1.398329	-0.058832
C92	C	0.361268	1.494474	-0.058856
C93	C	0.323270	1.601438	0.000016
C94	C	0.361251	1.612256	0.058906
C95	C	0.437223	1.516113	0.058923
C96	C	0.437255	1.064174	0.510832
C97	C	0.361291	1.064170	0.606989
C98	C	0.323295	1.005294	0.596201
C99	C	0.361274	0.946408	0.489248
C100	C	0.437242	0.946406	0.393094
C101	C	0.437243	1.516095	0.393080
C102	C	0.361277	1.612258	0.489220
C103	C	0.323283	1.601473	0.596179
C104	C	0.361265	1.494517	0.606997
C105	C	0.437235	1.398356	0.510858
C106	C	1.151425	0.494492	-0.392957
C107	C	1.227414	0.398329	-0.489097
C108	C	1.265413	0.409114	-0.596056
C109	C	1.227426	0.516071	-0.606874
C110	C	1.151442	0.612231	-0.510735
C111	C	1.151430	0.612258	0.058946
C112	C	1.227419	0.516114	0.058943
C113	C	1.265420	0.409149	0.000067
C114	C	1.227435	0.398331	-0.058818
C115	C	1.151453	0.494474	-0.058822
C116	C	1.151404	1.064179	-0.392943
C117	C	1.227369	1.064201	-0.489081
C118	C	1.265365	1.005327	-0.596042
C119	C	1.227386	0.946438	-0.606864
C120	C	1.151417	0.946424	-0.510727
H121	H	0.608210	1.448644	0.117850
H122	H	0.980422	0.887538	0.556773
H123	H	0.608247	1.123036	0.443346
N124	N	0.478238	1.127668	0.522480
H125	H	0.465011	1.186927	0.485222
H126	H	0.442634	1.164886	0.604844
N127	N	0.320280	1.482893	0.722363
H128	H	0.266388	1.560044	0.781616
H129	H	0.288804	1.440387	0.731274
N130	N	1.110490	0.482795	-0.122329
H131	H	1.146097	0.400442	-0.159620
H132	H	1.034224	0.520112	-0.068273
N133	N	0.320246	1.727634	0.122409
H134	H	0.288713	1.736650	0.204776
H135	H	0.378240	1.736596	0.091456
H136	H	0.261437	1.005305	0.674504
N137	N	0.414816	1.645539	0.240231
H138	H	0.374144	1.688012	0.322595
H139	H	0.374209	1.687985	0.209265
H140	H	0.608218	1.123031	0.792246
N141	N	0.980399	1.187682	-0.117703
H142	H	1.016916	1.141417	-0.197443
H143	H	1.016913	1.141466	-0.084154
N144	N	0.414824	1.845401	0.240214
H145	H	0.374147	1.854416	0.322579
H146	H	0.429036	1.904595	0.231184
H147	H	0.330359	1.699338	0.480392
H148	H	1.120479	1.112121	-0.305859
N149	N	0.241318	1.705128	0.000004
H150	H	0.223002	1.774537	0.046235
H151	H	0.267825	1.705057	-0.079772
H152	H	1.149244	0.780733	0.362745
N153	N	0.478173	1.527792	0.122446
H154	H	0.442566	1.610145	0.159737
H155	H	0.464943	1.490475	0.181645
N156	N	1.173844	1.165182	-0.240095
H157	H	1.159725	1.105911	-0.231157
H158	H	1.214472	1.156273	-0.322433
H159	H	0.330326	0.898473	0.480480
N160	N	0.478223	1.527749	0.277727
H161	H	0.532114	1.450610	0.218453
H162	H	0.420199	1.570277	0.268817
H163	H	1.327224	1.005348	-0.674314
H164	H	1.149254	1.367899	-0.224553
H165	H	1.258284	1.112154	-0.480248
N166	N	0.608239	1.822921	0.117803
H167	H	0.571712	1.869207	0.197539
H168	H	0.681331	1.799754	0.071512
N169	N	0.980444	1.587362	-0.117732
H170	H	0.943922	1.633638	-0.037995
H171	H	1.053537	1.564193	-0.164026
H172	H	1.149250	0.780737	0.188294
N173	N	1.347367	0.305451	0.000077
H174	H	1.410407	0.305415	-0.033423
H175	H	1.320830	0.305482	0.079846
H176	H	0.468149	0.898464	0.306020
N177	N	0.320334	1.127688	0.722335
H178	H	0.355927	1.164993	0.714569
H179	H	0.244065	1.186880	0.764796
H180	H	0.261423	1.679782	0.674453
H181	H	0.980449	0.887550	0.207874
H182	H	0.468174	1.311242	-0.106787
N183	N	1.110473	0.727578	-0.522413
H184	H	1.146078	0.719807	-0.604762
H185	H	1.034208	0.770031	-0.485102
N186	N	0.478186	1.283006	0.522528
H187	H	0.509705	1.273996	0.565007
H188	H	0.420161	1.274094	0.564975
H189	H	1.120490	0.485689	-0.305874
H190	H	1.258331	0.311250	-0.480267
H191	H	1.327283	0.330805	-0.674330
H192	H	1.258387	0.311228	-0.106753
H193	H	1.258374	0.524838	-0.693972
N194	N	1.110454	0.727619	0.122451
H195	H	1.146059	0.719868	0.159739
H196	H	1.123672	0.770075	0.068387
H197	H	1.258334	0.524944	0.106899
N198	N	1.268372	0.882942	-0.722231
H199	H	1.322262	0.891889	-0.781482
H200	H	1.299851	0.800599	-0.731146
N201	N	1.110467	0.882904	-0.522410
H202	H	1.146072	0.845613	-0.604759
H203	H	1.123700	0.823701	-0.485094
H204	H	0.439405	1.229846	0.637386
N205	N	0.414804	1.245417	0.840093
H206	H	0.410657	1.191415	0.882606
H207	H	0.410717	1.304665	0.882522
N208	N	0.320314	1.482791	-0.122377
H209	H	0.355911	1.400439	-0.159657
H210	H	0.244045	1.520122	-0.068327
