data_functionalizedCrystal
_audit_creation_method	'MofGen! by Chris Wilmer'
_symmetry_space_group_name_H-M	'P1'
_symmetry_Int_Tables_number	1
_symmetry_cell_setting	triclinic
loop_
_symmetry_equiv_pos_as_xyz
  x,y,z
_cell_length_a	15.995300
_cell_length_b	15.995350
_cell_length_c	9.130313
_cell_angle_alpha	89.997713
_cell_angle_beta	89.994890
_cell_angle_gamma	83.482091
loop_
_atom_site_label
_atom_site_type_symbol
_atom_site_fract_x
_atom_site_fract_y
_atom_site_fract_z
O1	O	1.111011	0.107726	-0.121846
O2	O	0.867230	0.121097	-0.121836
O3	O	0.995784	-0.007477	-0.121840
O4	O	0.982456	0.236300	-0.121842
O5	O	0.995775	-0.007481	0.121759
O6	O	0.867221	0.121094	0.121763
O7	O	1.111002	0.107722	0.121753
Cu8	Cu	0.989111	0.114408	0.144001
Cu9	Cu	0.989121	0.114412	-0.144083
O10	O	0.982447	0.236297	0.121757
C11	C	0.836030	0.120550	-0.000035
C12	C	0.743077	0.118915	-0.000032
C13	C	0.572894	0.115896	-0.000043
C14	C	0.525428	0.207443	-0.000041
C15	C	0.428740	0.205773	-0.000597
C16	C	0.405337	0.112924	-0.000052
C17	C	0.446475	0.067506	-0.138885
C18	C	0.543109	0.069822	-0.138997
C19	C	0.543378	0.068463	0.138030
C20	C	0.446433	0.068471	0.139851
C21	C	0.310642	0.111239	-0.000063
C22	C	0.667590	0.117577	-0.000043
C23	C	0.995229	-0.038674	-0.000043
C24	C	0.993577	-0.131624	-0.000051
C25	C	0.987644	-0.469370	-0.000046
C26	C	0.896090	-0.421920	-0.000589
C27	C	0.897743	-0.325230	-0.000040
C28	C	0.990587	-0.301810	-0.000049
C29	C	1.035740	-0.342898	0.139053
C30	C	1.033440	-0.439533	0.139170
C31	C	1.035341	-0.439888	-0.137848
C32	C	1.035319	-0.342942	-0.139686
C33	C	0.992255	-0.207113	-0.000047
C34	C	0.985979	-0.564068	-0.000039
C35	C	1.142202	0.108269	-0.000051
C36	C	1.235154	0.109904	-0.000064
C37	C	0.983003	0.267493	-0.000043
C38	C	0.984655	0.360443	-0.000044
N39	N	0.989109	0.114404	0.346623
N40	N	0.989129	0.114409	-0.346706
C41	C	1.046052	0.057495	0.423273
C42	C	1.046060	0.057495	0.576610
C43	C	0.932180	0.171321	0.576633
C44	C	0.932168	0.171316	0.423299
H45	H	0.575159	0.000966	0.139366
Br46	Br	0.382324	0.265003	-0.167442
Br47	Br	1.123339	-0.019746	0.680633
H48	H	1.102844	-0.471661	-0.138790
Br49	Br	0.978547	-0.470034	0.312486
H50	H	1.092416	0.011153	0.360847
Br51	Br	0.854907	0.248557	0.680698
H52	H	0.885795	0.217658	0.360886
H53	H	0.400274	0.241461	0.098901
H54	H	0.545040	0.243687	-0.099449
Br55	Br	0.573653	0.124381	-0.312627
Br56	Br	0.556823	0.269018	0.165155
H57	H	0.575382	0.002598	-0.144929
H58	H	0.432376	-0.000718	-0.143657
Br59	Br	0.400861	0.123748	0.311048
H60	H	0.431095	0.000777	0.148645
H61	H	0.418093	0.098646	-0.242593
Br62	Br	1.145469	-0.493308	0.149696
Br63	Br	0.838585	-0.277840	-0.166237
H64	H	1.004372	-0.314513	0.242575
H65	H	0.563874	0.098601	0.243291
H66	H	0.859501	-0.440443	-0.100341
H67	H	0.859656	-0.441509	0.098611
H68	H	0.862003	-0.297360	0.099847
H69	H	1.103950	-0.328785	0.144219
H70	H	1.005411	-0.460420	-0.243280
H71	H	1.002307	-0.315686	-0.242591
Br72	Br	1.148168	-0.317353	-0.153713
