data_functionalizedCrystal
_audit_creation_method	'MofGen! by Chris Wilmer'
_symmetry_space_group_name_H-M	'P1'
_symmetry_Int_Tables_number	1
_symmetry_cell_setting	triclinic
loop_
_symmetry_equiv_pos_as_xyz
  x,y,z
_cell_length_a	15.297979
_cell_length_b	15.299816
_cell_length_c	15.296720
_cell_angle_alpha	69.242954
_cell_angle_beta	91.645807
_cell_angle_gamma	91.635460
loop_
_atom_site_label
_atom_site_type_symbol
_atom_site_fract_x
_atom_site_fract_y
_atom_site_fract_z
Zn1	Zn	1.291030	-0.271038	0.780856
Zn2	Zn	1.333286	-0.393406	0.658533
Zn3	Zn	1.168679	-0.262185	0.607275
Zn4	Zn	1.168608	-0.444487	0.789634
O5	O	1.240401	-0.342779	0.709075
O6	O	1.416757	-0.269597	0.782408
O7	O	1.329165	-0.350918	0.524223
O8	O	1.167254	-0.135854	0.605176
O9	O	1.447803	-0.359501	0.692537
O10	O	1.257145	-0.142358	0.732705
O11	O	1.208229	-0.254510	0.486564
O12	O	1.048547	-0.304041	0.613687
O13	O	1.167134	-0.446561	0.915980
O14	O	1.048495	-0.437977	0.747666
O15	O	1.257076	-0.319128	0.909531
O16	O	1.329096	-0.527688	0.701049
O17	O	1.208108	-0.565217	0.797368
C18	C	1.017375	-0.375592	0.676067
C19	C	0.921964	-0.389656	0.661973
C20	C	0.893302	-0.442961	0.608449
C21	C	0.803658	-0.456177	0.595211
C22	C	0.742667	-0.416084	0.635490
C23	C	0.771328	-0.362773	0.689009
C24	C	0.860981	-0.349561	0.702255
C25	C	0.710345	-0.322685	0.729296
C26	C	0.739006	-0.269373	0.782815
C27	C	0.828651	-0.256163	0.796057
C28	C	0.889642	-0.296256	0.755778
C29	C	0.620692	-0.335896	0.716050
C30	C	0.588371	-0.242497	0.809856
C31	C	0.678015	-0.229280	0.823094
C32	C	1.273201	-0.579514	0.755746
C33	C	1.287307	-0.680784	0.775755
C34	C	1.140102	-0.952944	0.566464
C35	C	1.126844	-0.857797	0.547666
C36	C	1.166959	-0.813539	0.604687
C37	C	1.220333	-0.864438	0.680508
C38	C	1.233587	-0.959596	0.699312
C39	C	1.260444	-0.820191	0.737534
C40	C	1.313819	-0.871090	0.813356
C41	C	1.327071	-0.966239	0.832156
C42	C	1.286956	-1.010497	0.775135
C43	C	1.247190	-0.725032	0.718731
C44	C	1.340676	-0.731685	0.851579
C45	C	1.353934	-0.826832	0.870376
C46	C	1.464298	-0.309839	0.742211
C47	C	1.559709	-0.295802	0.756332
C48	C	1.207383	-0.389530	0.946742
C49	C	1.193313	-0.409452	1.048022
C50	C	1.207494	-0.105121	0.662244
C51	C	1.193471	-0.003845	0.642288
C52	C	1.273330	-0.296137	0.472326
C53	C	1.287531	-0.275934	0.371021
C54	C	1.340972	-0.200227	1.320085
C55	C	1.354198	-0.181509	1.224929
C56	C	1.313978	-0.238493	1.180697
C57	C	1.260530	-0.314198	1.231632
C58	C	1.247309	-0.332922	1.326799
C59	C	1.220314	-0.371188	1.187411
C60	C	1.166867	-0.446893	1.238345
C61	C	1.153648	-0.465613	1.333503
C62	C	1.193868	-0.408629	1.377735
C63	C	1.233535	-0.352465	1.092244
C64	C	1.139872	-0.485160	1.098958
C65	C	1.126647	-0.503877	1.194114
H66	H	0.962639	-0.285495	0.766551
C67	C	0.709545	-0.170647	0.881969
H68	H	0.660387	-0.148654	0.904058
H69	H	0.743860	-0.208208	0.933662
H70	H	0.743830	-0.118892	0.844497
C71	C	1.385205	-0.137553	1.368739
H72	H	1.369670	-0.159544	1.432707
H73	H	1.446893	-0.139331	1.364309
H74	H	1.366324	-0.075110	1.339224
C75	C	1.412641	-0.882823	0.953777
H76	H	1.434642	-0.842842	0.985042
H77	H	1.379439	-0.932602	0.995924
H78	H	1.460076	-0.907557	0.931809
H79	H	1.324749	-0.223249	1.103216
H80	H	1.203732	-0.683599	0.656997
H81	H	1.083129	-0.565516	1.235598
C82	C	1.385777	-1.022231	0.915557
H83	H	1.387920	-1.085240	0.918593
H84	H	1.443129	-0.995485	0.907715
H85	H	1.362488	-1.020523	0.971824
H86	H	0.780329	-0.499584	0.551636
C87	C	0.960390	-0.487056	0.564151
H88	H	1.017885	-0.471547	0.579701
H89	H	0.952354	-0.553065	0.587286
H90	H	0.952330	-0.463746	0.498124
C91	C	1.384807	-0.683010	0.914302
H92	H	1.369277	-0.619049	0.892239
H93	H	1.365867	-0.712484	0.976728
H94	H	1.446507	-0.687451	0.912618
C95	C	1.179322	-0.429217	1.482408
H96	H	1.210932	-0.384436	1.501451
H97	H	1.118756	-0.425846	1.492631
H98	H	1.199323	-0.490068	1.517721
C99	C	1.292317	-0.269193	1.036221
H100	H	1.294439	-0.266204	0.973213
H101	H	1.269114	-0.212890	1.037899
H102	H	1.349676	-0.277121	1.062984
C103	C	1.412982	-0.098240	1.168907
H104	H	1.435036	-0.066979	1.208874
H105	H	1.460366	-0.120290	1.144188
H106	H	1.379802	-0.056063	1.119101
H107	H	0.669675	-0.426848	0.624708
H108	H	1.110135	-0.527263	1.374974
H109	H	0.851983	-0.212764	0.839646
C110	C	1.095624	-0.547843	1.050312
H111	H	1.111145	-0.525844	0.986341
H112	H	1.114494	-0.610284	1.079826
H113	H	1.033932	-0.546054	1.054743
H114	H	1.156162	-0.736065	0.589376
H115	H	0.597366	-0.379304	0.672475
H116	H	0.538710	-0.209851	0.842655
H117	H	1.083386	-0.816359	0.485934
H118	H	1.107442	-0.988990	0.520050
H119	H	1.297751	-1.087973	0.790433
