data_functionalizedCrystal
_audit_creation_method	'MofGen! by Chris Wilmer'
_symmetry_space_group_name_H-M	'P1'
_symmetry_Int_Tables_number	1
_symmetry_cell_setting	triclinic
loop_
_symmetry_equiv_pos_as_xyz
  x,y,z
_cell_length_a	17.077404
_cell_length_b	13.032721
_cell_length_c	17.077396
_cell_angle_alpha	97.153695
_cell_angle_beta	89.981638
_cell_angle_gamma	97.202376
loop_
_atom_site_label
_atom_site_type_symbol
_atom_site_fract_x
_atom_site_fract_y
_atom_site_fract_z
Zn1	Zn	1.160369	-0.416096	-0.483506
Zn2	Zn	1.143608	-0.590861	-0.368909
Zn3	Zn	1.029098	-0.416126	-0.352259
Zn4	Zn	1.012407	-0.590792	-0.500129
O5	O	1.086370	-0.503469	-0.426201
O6	O	1.267991	-0.439296	-0.468316
O7	O	1.128388	-0.567724	-0.256857
O8	O	1.060511	-0.269884	-0.355745
O9	O	1.255676	-0.567695	-0.384122
O10	O	1.156955	-0.269862	-0.452171
O11	O	1.044258	-0.439346	-0.244625
O12	O	0.917038	-0.439280	-0.371863
O13	O	1.032064	-0.567577	-0.607767
O14	O	0.904776	-0.567606	-0.480502
O15	O	1.140771	-0.439229	-0.595554
O16	O	1.112204	-0.737091	-0.400240
O17	O	1.015811	-0.737040	-0.496647
C18	C	0.882425	-0.503439	-0.426180
C19	C	0.795174	-0.503452	-0.426193
C20	C	0.760586	-0.436713	-0.470120
C21	C	0.678605	-0.436720	-0.470125
C22	C	0.631213	-0.503471	-0.426205
C23	C	0.665807	-0.570213	-0.382272
C24	C	0.747787	-0.570200	-0.382264
C25	C	0.494935	-0.570237	-0.382294
C26	C	0.412949	-0.570251	-0.382303
C27	C	0.425752	-0.436756	-0.470155
C28	C	0.507732	-0.436744	-0.470146
C29	C	0.542321	-0.503487	-0.426214
C30	C	1.060399	-0.774983	-0.452071
C31	C	1.049360	-0.891138	-0.463165
C32	C	1.092173	-0.942914	-0.420446
C33	C	1.080765	-1.062966	-0.431911
C34	C	1.291112	-0.503499	-0.426222
C35	C	1.378360	-0.503512	-0.426231
C36	C	1.086425	-0.503392	-0.630938
C37	C	1.086449	-0.503359	-0.718184
C38	C	1.112465	-0.230895	-0.400247
C39	C	1.123585	-0.114740	-0.389187
C40	C	1.143055	-0.436523	-0.752816
C41	C	1.143067	-0.436488	-0.834793
C42	C	1.086477	-0.503296	-0.882138
C43	C	1.029865	-0.570135	-0.847501
C44	C	1.029849	-0.570164	-0.765524
C45	C	1.029902	-0.570072	-1.018365
C46	C	1.029919	-0.570045	-1.100347
C47	C	1.143121	-0.436396	-1.087634
C48	C	1.143105	-0.436425	-1.005658
C49	C	1.086494	-0.503266	-0.971026
C50	C	1.086368	-0.503470	-0.222253
C51	C	1.086525	-0.503209	-0.134979
H52	H	0.799167	-0.382359	-0.505887
H53	H	0.397587	-0.382410	-0.505924
H54	H	1.137277	-0.898366	-0.375388
O55	O	0.645130	-0.371857	-0.512867
C56	C	0.704540	-0.312924	-0.551617
H57	H	0.758886	-0.355729	-0.558357
H58	H	0.681932	-0.301885	-0.612428
H59	H	0.720841	-0.233506	-0.515403
O60	O	0.995544	-0.944115	-0.516983
C61	C	0.957936	-0.872665	-0.554461
H62	H	0.997432	-0.794793	-0.549824
H63	H	0.946547	-0.904237	-0.619295
H64	H	0.899418	-0.861188	-0.524573
H65	H	0.627215	-0.624558	-0.346508
O66	O	0.553658	-0.371804	-0.512825
C67	C	0.505551	-0.312914	-0.551616
H68	H	0.447448	-0.309247	-0.519129
H69	H	0.537111	-0.230589	-0.552242
H70	H	0.493193	-0.351284	-0.614844
H71	H	1.189140	-0.382123	-0.714274
O72	O	1.198135	-0.371533	-0.868310
C73	C	1.248071	-0.312561	-0.808943
H74	H	1.246677	-0.355390	-0.754585
H75	H	1.310989	-0.301421	-0.831579
H76	H	1.226928	-0.233189	-0.792661
O77	O	1.026967	-1.116262	-0.485615
C78	C	1.027563	-1.224263	-0.485118
H79	H	1.051907	-1.239090	-0.425968
H80	H	0.964836	-1.265881	-0.494336
H81	H	1.066425	-1.255150	-0.534645
O82	O	0.367030	-0.635123	-0.339568
C83	C	0.415134	-0.694043	-0.300802
H84	H	0.477662	-0.651227	-0.294047
H85	H	0.390360	-0.705085	-0.239997
H86	H	0.416277	-0.773461	-0.337012
H87	H	0.983785	-0.624528	-0.886055
H88	H	1.168692	-1.070194	-0.344126
H89	H	0.775948	-0.624545	-0.346493
H90	H	1.189190	-0.382030	-0.967112
H91	H	0.983748	-0.624579	-0.737328
O92	O	1.198028	-0.371485	-1.121393
C93	C	1.185916	-0.385791	-1.203900
H94	H	1.122065	-0.420011	-1.218343
H95	H	1.198731	-0.307497	-1.227597
H96	H	1.227157	-0.441429	-1.232478
H97	H	0.523094	-0.624583	-0.346517
H98	H	0.983836	-0.624444	-1.138893
H99	H	0.983793	-0.624485	-0.990170
