data_functionalizedCrystal
_audit_creation_method	'MofGen! by Chris Wilmer'
_symmetry_space_group_name_H-M	'P1'
_symmetry_Int_Tables_number	1
_symmetry_cell_setting	triclinic
loop_
_symmetry_equiv_pos_as_xyz
  x,y,z
_cell_length_a	13.897449
_cell_length_b	10.686285
_cell_length_c	10.686551
_cell_angle_alpha	99.084519
_cell_angle_beta	85.604174
_cell_angle_gamma	94.367057
loop_
_atom_site_label
_atom_site_type_symbol
_atom_site_fract_x
_atom_site_fract_y
_atom_site_fract_z
Zn1	Zn	1.541007	0.450121	-0.679016
Zn2	Zn	1.874341	0.783454	-0.345682
Zn3	Zn	2.207674	1.116788	-0.012349
Zn4	Zn	1.540929	0.678701	-0.450513
Zn5	Zn	1.874263	1.012034	-0.117180
Zn6	Zn	2.207596	1.345368	0.216153
Zn7	Zn	1.368204	0.466480	-0.466777
Zn8	Zn	1.701537	0.799813	-0.133443
Zn9	Zn	2.034870	1.133146	0.199890
Zn10	Zn	1.391196	0.662322	-0.662716
Zn11	Zn	1.724529	0.995656	-0.329383
Zn12	Zn	2.057862	1.328989	0.003951
O13	O	1.460334	0.564406	-0.564756
O14	O	1.793667	0.897739	-0.231422
O15	O	2.127001	1.231073	0.101911
O16	O	1.675980	0.480451	-0.648720
O17	O	2.009313	0.813784	-0.315386
O18	O	2.342647	1.147118	0.017947
O19	O	1.508362	0.664250	-0.275040
O20	O	1.841695	0.997583	0.058293
O21	O	2.175029	1.330917	0.391626
O22	O	1.381537	0.286687	-0.508558
O23	O	1.714870	0.620020	-0.175225
O24	O	2.048204	0.953354	0.158108
O25	O	1.675923	0.648388	-0.480840
O26	O	2.009256	0.981721	-0.147507
O27	O	2.342589	1.315054	0.185827
O28	O	1.508495	0.274669	-0.664490
O29	O	1.841828	0.608002	-0.331156
O30	O	2.175162	0.941335	0.002177
O31	O	1.381461	0.508332	-0.286989
O32	O	1.714795	0.841665	0.046344
O33	O	2.048128	1.174998	0.379678
O34	O	1.236271	0.492450	-0.492753
O35	O	1.569604	0.825783	-0.159420
O36	O	1.902937	1.159117	0.173913
O37	O	1.420723	0.620473	-0.842509
O38	O	1.754057	0.953806	-0.509175
O39	O	2.087390	1.287139	-0.175842
O40	O	1.253163	0.636335	-0.636709
O41	O	1.586496	0.969668	-0.303376
O42	O	1.919829	1.303002	0.029958
O43	O	1.530789	0.464569	-0.854484
O44	O	1.864123	0.797903	-0.521151
O45	O	2.197456	1.131236	-0.187817
O46	O	1.530656	0.854151	-0.465035
O47	O	1.863990	1.187484	-0.131702
O48	O	2.197323	1.520817	0.201632
O49	O	1.420648	0.842117	-0.620939
O50	O	1.753981	1.175451	-0.287606
O51	O	2.087314	1.508784	0.045727
C52	C	1.478166	0.894187	-0.539481
C53	C	1.811499	1.227521	-0.206148
C54	C	2.144833	1.560854	0.127185
C55	C	1.485885	1.035266	-0.528711
C56	C	1.819219	1.368599	-0.195378
C57	C	2.152552	1.701933	0.137955
C58	C	1.209717	0.564391	-0.564728
C59	C	1.543051	0.897725	-0.231395
C60	C	1.876384	1.231058	0.101939
C61	C	1.102505	0.564413	-0.564744
C62	C	1.435839	0.897746	-0.231410
C63	C	1.769172	1.231080	0.101923
C64	C	1.478330	0.538869	-0.895842
C65	C	1.811663	0.872203	-0.562508
C66	C	2.144996	1.205536	-0.229175
C67	C	1.485998	0.527987	-1.036931
C68	C	1.819332	0.861320	-0.703598
C69	C	2.152665	1.194654	-0.370264
C70	C	0.906212	0.564415	-0.564777
C71	C	1.239546	0.897748	-0.231443
C72	C	1.572879	1.231082	0.101890
C73	C	1.015443	0.564410	-0.564755
C74	C	1.348777	0.897744	-0.231422
C75	C	1.682110	1.231077	0.101911
C76	C	1.711930	0.564422	-0.564784
C77	C	2.045263	0.897755	-0.231451
C78	C	2.378596	1.231088	0.101883
C79	C	1.819145	0.564428	-0.564796
C80	C	2.152478	0.897762	-0.231463
C81	C	2.485811	1.231095	0.101871
C82	C	1.442460	0.233335	-0.590156
C83	C	1.775793	0.566668	-0.256823
C84	C	2.109127	0.900001	0.076510
C85	C	1.434843	0.092252	-0.600981
C86	C	1.768177	0.425585	-0.267647
C87	C	2.101510	0.758918	0.065686
C88	C	1.442459	0.589752	-0.234964
C89	C	1.775792	0.923085	0.098369
C90	C	2.109126	1.256418	0.431702
C91	C	1.434958	0.600276	-0.093903
C92	C	1.768291	0.933610	0.239430
C93	C	2.101624	1.266943	0.572763
H94	H	1.535486	1.094415	-0.458585
H95	H	1.868819	1.427748	-0.125251
H96	H	2.202152	1.761081	0.208082
O97	O	1.551640	0.434952	-1.115284
O98	O	1.884973	0.768285	-0.781951
O99	O	2.218307	1.101618	-0.448617
H100	H	1.547552	0.440700	-1.217523
H101	H	1.880886	0.774033	-0.884190
H102	H	2.214219	1.107366	-0.550856
O103	O	1.369274	0.693262	-1.015538
O104	O	1.702607	1.026596	-0.682205
O105	O	2.035940	1.359929	-0.348871
H106	H	1.333090	0.744496	-1.079463
H107	H	1.666424	1.077829	-0.746129
H108	H	1.999757	1.411163	-0.412796
O109	O	1.369141	1.013926	-0.693870
O110	O	1.702474	1.347259	-0.360537
O111	O	2.035807	1.680593	-0.027203
H112	H	1.373195	0.911691	-0.688052
H113	H	1.706528	1.245025	-0.354718
H114	H	2.039862	1.578358	-0.021385
