data_functionalizedCrystal
_audit_creation_method	'MofGen! by Chris Wilmer'
_symmetry_space_group_name_H-M	'P1'
_symmetry_Int_Tables_number	1
_symmetry_cell_setting	triclinic
loop_
_symmetry_equiv_pos_as_xyz
  x,y,z
_cell_length_a	14.908795
_cell_length_b	21.295417
_cell_length_c	14.908308
_cell_angle_alpha	86.738273
_cell_angle_beta	90.211334
_cell_angle_gamma	93.319839
loop_
_atom_site_label
_atom_site_type_symbol
_atom_site_fract_x
_atom_site_fract_y
_atom_site_fract_z
Zn1	Zn	1.345263	-0.220181	0.587806
Zn2	Zn	1.353821	-0.319059	0.437434
Zn3	Zn	1.203577	-0.219499	0.428777
Zn4	Zn	1.194844	-0.331112	0.579054
O5	O	1.274376	-0.272463	0.508268
O6	O	1.472227	-0.228539	0.575145
O7	O	1.341127	-0.300522	0.310463
O8	O	1.222445	-0.131499	0.449912
O9	O	1.478515	-0.301184	0.464667
O10	O	1.326541	-0.132000	0.566750
O11	O	1.230743	-0.227376	0.304103
O12	O	1.076590	-0.239064	0.441426
O13	O	1.207562	-0.321726	0.706038
O14	O	1.070174	-0.321065	0.551834
O15	O	1.318074	-0.240226	0.712468
O16	O	1.332660	-0.408748	0.456181
O17	O	1.215860	-0.417604	0.560229
C18	C	1.040756	-0.281299	0.494742
C19	C	0.940811	-0.285095	0.488976
C20	C	0.803223	-0.328196	0.423242
C21	C	0.897130	-0.324632	0.428659
C22	C	0.890577	-0.249117	0.543879
C23	C	0.796670	-0.252682	0.538463
C24	C	0.752996	-0.292223	0.478143
C25	C	0.659087	-0.295790	0.472732
C26	C	0.652535	-0.220273	0.587947
C27	C	0.746443	-0.216708	0.593364
C28	C	1.274265	-0.436017	0.508216
C29	C	1.274297	-0.505984	0.508228
C30	C	1.328465	-0.539057	0.569105
C31	C	1.328495	-0.604800	0.569129
C32	C	1.274368	-0.637465	0.508261
C33	C	1.220190	-0.604384	0.447380
C34	C	1.220154	-0.538643	0.447363
N35	N	1.272120	-0.737636	0.429180
N36	N	1.272159	-0.800087	0.429198
C37	C	1.274471	-0.835537	0.508308
N38	N	1.276760	-0.806178	0.587400
N39	N	1.276726	-0.743721	0.587381
C40	C	1.274401	-0.708749	0.508272
C41	C	1.328675	-0.939896	0.569215
C42	C	1.328699	-1.005640	0.569240
C43	C	1.220398	-1.005222	0.447483
C44	C	1.220369	-0.939480	0.447466
C45	C	1.274512	-0.906821	0.508331
C46	C	1.508909	-0.263593	0.521848
C47	C	1.608853	-0.259813	0.527635
C48	C	1.260889	-0.282397	0.742789
C49	C	1.255141	-0.286630	0.842728
C50	C	1.274512	-0.108270	0.508341
C51	C	1.274570	-0.038301	0.508373
C52	C	1.287863	-0.262520	0.274662
C53	C	1.293785	-0.258103	0.174734
C54	C	1.359415	-0.209704	1.037221
C55	C	1.354017	-0.213680	1.131123
C56	C	1.238945	-0.298552	1.124435
C57	C	1.244342	-0.294577	1.030534
C58	C	1.304580	-0.250152	0.986930
C59	C	1.309982	-0.246180	0.893027
C60	C	1.194906	-0.331050	0.886340
C61	C	1.189508	-0.335025	0.980242
H62	H	0.611630	-0.190981	0.632653
H63	H	1.398667	-0.180741	1.172067
O64	O	1.424389	-0.161794	0.990192
H65	H	1.472576	-0.186431	0.950055
O66	O	1.387123	-1.041312	0.634911
H67	H	1.378043	-1.092514	0.624708
H68	H	1.176117	-0.630984	0.397822
H69	H	1.189902	-0.334721	1.159954
H70	H	0.767663	-0.360398	0.374134
H71	H	1.372758	-0.913304	0.618778
O72	O	0.951308	-0.363431	0.369446
H73	H	0.905159	-0.391526	0.326598
H74	H	0.926153	-0.216921	0.592984
H75	H	0.782015	-0.184513	0.642472
O76	O	0.611983	-0.338432	0.407667
H77	H	0.566884	-0.373835	0.445351
H78	H	1.176043	-0.511714	0.397789
O79	O	1.162021	-1.040450	0.381831
H80	H	1.090546	-1.031201	0.393108
H81	H	1.176265	-0.912550	0.397891
H82	H	1.372597	-0.631734	0.618712
O83	O	1.386875	-0.503829	0.634734
H84	H	1.424550	-0.537876	0.677067
H85	H	1.359032	-0.210008	0.857526
H86	H	1.140462	-0.371193	1.015757
O87	O	1.135753	-0.374679	0.832100
H88	H	1.149620	-0.364451	0.759477
