data_functionalizedCrystal
_audit_creation_method	'MofGen! by Chris Wilmer'
_symmetry_space_group_name_H-M	'P1'
_symmetry_Int_Tables_number	1
_symmetry_cell_setting	triclinic
loop_
_symmetry_equiv_pos_as_xyz
  x,y,z
_cell_length_a	14.971486
_cell_length_b	14.971494
_cell_length_c	14.048226
_cell_angle_alpha	89.995286
_cell_angle_beta	89.998499
_cell_angle_gamma	83.615843
loop_
_atom_site_label
_atom_site_type_symbol
_atom_site_fract_x
_atom_site_fract_y
_atom_site_fract_z
O1	O	1.186951	0.116564	-0.079047
O2	O	0.926551	0.130523	-0.079073
O3	O	1.063726	-0.006656	-0.079057
O4	O	1.049775	0.253743	-0.079063
O5	O	1.063710	-0.006664	0.079264
O6	O	0.926534	0.130515	0.079248
O7	O	1.186934	0.116556	0.079274
Zn8	Zn	1.056732	0.123534	0.104398
Zn9	Zn	1.056753	0.123545	-0.104197
O10	O	1.049759	0.253735	0.079258
C11	C	0.893218	0.129895	0.000084
C12	C	0.793921	0.128024	0.000075
C13	C	0.736698	0.208613	0.000074
C14	C	0.643398	0.206850	0.000088
C15	C	0.607323	0.124497	0.000096
C16	C	0.664554	0.043902	0.000100
C17	C	0.757851	0.045666	0.000092
C18	C	0.470091	0.040231	0.000113
C19	C	0.376787	0.038466	0.000118
C20	C	0.355638	0.201415	0.000109
C21	C	0.448936	0.203179	0.000102
C22	C	0.506160	0.122583	0.000103
C23	C	1.063093	-0.039985	0.000102
C24	C	1.061219	-0.139281	0.000097
C25	C	1.060350	-0.185922	-0.086205
C26	C	1.058583	-0.279221	-0.086206
C27	C	1.057693	-0.325879	0.000096
C28	C	1.058559	-0.279231	0.086404
C29	C	1.060319	-0.185933	0.086405
C30	C	1.054893	-0.473695	0.086398
C31	C	1.053135	-0.566999	0.086398
C32	C	1.053158	-0.566982	-0.086213
C33	C	1.054917	-0.473684	-0.086213
C34	C	1.055786	-0.427043	0.000096
C35	C	1.220267	0.117184	0.000114
C36	C	1.319564	0.119055	0.000118
C37	C	1.050392	0.287064	0.000097
C38	C	1.052266	0.386360	0.000095
N39	N	1.056723	0.123526	0.246759
N40	N	1.056769	0.123546	-0.246558
C41	C	1.117484	0.062809	0.296584
C42	C	1.117490	0.062808	0.396241
C43	C	1.056739	0.123530	0.446072
C44	C	0.995972	0.184251	0.396240
C45	C	0.995962	0.184246	0.296584
C46	C	0.995998	0.184257	0.603955
C47	C	0.996008	0.184263	0.703617
C48	C	1.117525	0.062819	0.703611
C49	C	1.117515	0.062815	0.603956
C50	C	1.056749	0.123537	0.554131
H51	H	0.804442	-0.019958	0.000092
H52	H	0.946484	0.233688	0.256018
N53	N	0.930445	0.249738	0.449989
H54	H	0.964669	0.289402	0.491323
H55	H	0.891964	0.288141	0.403243
N56	N	1.183041	-0.002679	0.550213
H57	H	1.148816	-0.042339	0.508876
H58	H	1.222657	0.031632	0.508911
N59	N	0.625638	-0.044918	0.000107
H60	H	0.646497	-0.080229	-0.058582
H61	H	0.646507	-0.080161	0.058837
N62	N	1.055841	-0.423383	0.179483
H63	H	1.001168	-0.377481	0.183329
H64	H	1.055048	-0.467153	0.234104
H65	H	1.166957	0.013365	0.256018
N66	N	0.930464	0.249751	0.550209
H67	H	0.890821	0.215504	0.508873
H68	H	0.892042	0.288208	0.596955
H69	H	0.309041	0.267038	0.000112
H70	H	1.166965	0.013367	0.436808
N71	N	0.775594	0.297442	0.000067
H72	H	0.813836	0.301805	0.058752
H73	H	0.813783	0.301759	-0.058666
N74	N	1.052248	-0.617253	-0.179325
H75	H	0.996120	-0.648777	-0.183229
H76	H	1.053129	-0.573458	-0.233914
N77	N	0.581678	0.293770	0.000196
H78	H	0.618689	0.346207	0.000219
H79	H	0.542453	0.296657	-0.058456
N80	N	0.487849	0.291999	0.000075
H81	H	0.437443	0.342789	0.000074
H82	H	0.526105	0.296282	0.058760
N83	N	1.055887	-0.423358	-0.179293
H84	H	1.055069	-0.467059	-0.233969
H85	H	1.001212	-0.377456	-0.183056
N86	N	0.337864	-0.050350	0.000151
H87	H	0.299622	-0.054718	-0.058533
H88	H	0.388313	-0.101093	0.000198
N89	N	1.052173	-0.617327	0.179477
H90	H	1.052983	-0.573624	0.234154
H91	H	0.996037	-0.648848	0.183220
N92	N	0.531814	-0.046695	0.000121
H93	H	0.494805	-0.099134	0.000124
H94	H	0.570982	-0.049509	-0.058574
H95	H	1.057829	-0.317227	0.156673
H96	H	1.061080	-0.147940	-0.156482
H97	H	1.057879	-0.317192	-0.156482
H98	H	1.061014	-0.147958	0.156681
H99	H	1.167002	0.013377	0.744185
H100	H	0.946538	0.233709	0.744185
