data_functionalizedCrystal
_audit_creation_method	'MofGen! by Chris Wilmer'
_symmetry_space_group_name_H-M	'P1'
_symmetry_Int_Tables_number	1
_symmetry_cell_setting	triclinic
loop_
_symmetry_equiv_pos_as_xyz
  x,y,z
_cell_length_a	29.839135
_cell_length_b	29.839133
_cell_length_c	29.839125
_cell_angle_alpha	89.992589
_cell_angle_beta	89.984512
_cell_angle_gamma	90.032133
loop_
_atom_site_label
_atom_site_type_symbol
_atom_site_fract_x
_atom_site_fract_y
_atom_site_fract_z
Zn1	Zn	0.686757	-0.178886	-0.254079
Zn2	Zn	0.686704	-0.253998	-0.178963
Zn3	Zn	0.611639	-0.178886	-0.178957
Zn4	Zn	0.611603	-0.253993	-0.254060
O5	O	0.649176	-0.216441	-0.216515
O6	O	0.749617	-0.188852	-0.244126
O7	O	0.676740	-0.244036	-0.116095
O8	O	0.621641	-0.116019	-0.188929
O9	O	0.749578	-0.244036	-0.188938
O10	O	0.676829	-0.116019	-0.244120
O11	O	0.621590	-0.188852	-0.116091
O12	O	0.548767	-0.188847	-0.188909
O13	O	0.621578	-0.244028	-0.316930
O14	O	0.548740	-0.244028	-0.244087
O15	O	0.676794	-0.188847	-0.316944
O16	O	0.676704	-0.316864	-0.188919
O17	O	0.621528	-0.316861	-0.244092
C18	C	0.532453	-0.216437	-0.216496
C19	C	0.482519	-0.216447	-0.216498
C20	C	0.172892	-0.187750	-0.245294
C21	C	-0.014781	-0.187753	-0.245306
O22	O	-0.039031	-0.163343	-0.269768
N23	N	-0.038266	-0.216441	-0.216531
C24	C	-0.014831	-0.245129	-0.187749
O25	O	-0.039113	-0.269527	-0.163271
C26	C	0.172841	-0.245123	-0.187734
C27	C	0.196324	-0.216436	-0.216514
C28	C	0.196376	-0.159065	-0.274071
C29	C	0.243291	-0.159066	-0.274069
C30	C	0.266723	-0.187752	-0.245290
C31	C	0.243240	-0.216437	-0.216513
C32	C	0.196276	-0.273808	-0.158950
C33	C	0.243197	-0.273803	-0.158948
C34	C	0.266680	-0.245116	-0.187728
C35	C	0.313588	-0.245125	-0.187732
N36	N	0.337073	-0.216436	-0.216507
C37	C	0.313641	-0.187750	-0.245286
C38	C	-0.113362	-0.245130	-0.187759
C39	C	-0.160279	-0.245132	-0.187764
C40	C	-0.160226	-0.187756	-0.245320
C41	C	-0.113307	-0.187756	-0.245318
C42	C	-0.089876	-0.216442	-0.216534
C43	C	0.412167	-0.187755	-0.245280
C44	C	0.459087	-0.187760	-0.245277
C45	C	0.459029	-0.245135	-0.187719
C46	C	0.412113	-0.245132	-0.187724
C47	C	0.388684	-0.216438	-0.216506
O48	O	0.337867	-0.269518	-0.163280
O49	O	0.337931	-0.163349	-0.269753
C50	C	0.125977	-0.187748	-0.245295
C51	C	0.102494	-0.216434	-0.216518
C52	C	0.125926	-0.245120	-0.187739
C53	C	0.055576	-0.216436	-0.216522
C54	C	0.032144	-0.187749	-0.245301
C55	C	0.055629	-0.159061	-0.274076
C56	C	0.102545	-0.159062	-0.274074
C57	C	0.102440	-0.273808	-0.158964
C58	C	0.055525	-0.273805	-0.158968
C59	C	0.032092	-0.245119	-0.187747
C60	C	0.649119	-0.333163	-0.216514
C61	C	0.649135	-0.383098	-0.216528
C62	C	0.677929	-0.739650	-0.245286
C63	C	0.677886	-0.551977	-0.245286
O64	O	0.702309	-0.527682	-0.269730
N65	N	0.649171	-0.528543	-0.216527
C66	C	0.620466	-0.552030	-0.187764
O67	O	0.596044	-0.527792	-0.163300
C68	C	0.620511	-0.739702	-0.187763
C69	C	0.649225	-0.763134	-0.216527
C70	C	0.706641	-0.763081	-0.274047
C71	C	0.706649	-0.809997	-0.274049
C72	C	0.677946	-0.833481	-0.245289
C73	C	0.649234	-0.810049	-0.216528
C74	C	0.591809	-0.763189	-0.158998
C75	C	0.591824	-0.810110	-0.159000
C76	C	0.620538	-0.833541	-0.187764
C77	C	0.620539	-0.880449	-0.187770
N78	N	0.649254	-0.903883	-0.216529
C79	C	0.677958	-0.880399	-0.245289
C80	C	0.620444	-0.453499	-0.187768
C81	C	0.620432	-0.406582	-0.187769
C82	C	0.677853	-0.406532	-0.245289
C83	C	0.677862	-0.453450	-0.245290
C84	C	0.649159	-0.476933	-0.216526
C85	C	0.677973	-0.978924	-0.245290
C86	C	0.677978	-1.025844	-0.245290
C87	C	0.620559	-1.025890	-0.187768
C88	C	0.620553	-0.978974	-0.187769
C89	C	0.649263	-0.955493	-0.216532
O90	O	0.596132	-0.904772	-0.163335
O91	O	0.702383	-0.904645	-0.269742
C92	C	0.677920	-0.692734	-0.245285
C93	C	0.649208	-0.669303	-0.216524
C94	C	0.620505	-0.692787	-0.187764
C95	C	0.649196	-0.622385	-0.216524
C96	C	0.677900	-0.598901	-0.245284
C97	C	0.706615	-0.622335	-0.274043
C98	C	0.706623	-0.669250	-0.274044
C99	C	0.591789	-0.669353	-0.159005
C100	C	0.591783	-0.622437	-0.159007
C101	C	0.620486	-0.598953	-0.187766
C102	C	0.766354	-0.216445	-0.216534
C103	C	0.816288	-0.216446	-0.216543
C104	C	0.649188	-0.216437	-0.333693
C105	C	0.649193	-0.216435	-0.383628
C106	C	0.649245	-0.099262	-0.216526
C107	C	0.649275	-0.049328	-0.216531
C108	C	0.677974	-0.187627	-0.693282
C109	C	0.677996	-0.187589	-0.880955
O110	O	0.702433	-0.163138	-0.905229
N111	N	0.649253	-0.216315	-0.904413
C112	C	0.620499	-0.245050	-0.880950
O113	O	0.596048	-0.269479	-0.905209
C114	C	0.620475	-0.245086	-0.693278
C115	C	0.649224	-0.216361	-0.669822
C116	C	0.706720	-0.158905	-0.669826
C117	C	0.706716	-0.158916	-0.622910
C118	C	0.677966	-0.187650	-0.599451
C119	C	0.649220	-0.216373	-0.622907
C120	C	0.591720	-0.273819	-0.669816
C121	C	0.591716	-0.273824	-0.622894
C122	C	0.620464	-0.245100	-0.599439
C123	C	0.620465	-0.245119	-0.552531
N124	N	0.649209	-0.216393	-0.529073
C125	C	0.677959	-0.187659	-0.552533
C126	C	0.620515	-0.245030	-0.979481
C127	C	0.620521	-0.245022	-1.026398
C128	C	0.678018	-0.187560	-1.026400
C129	C	0.678013	-0.187571	-0.979481
C130	C	0.649258	-0.216304	-0.956022
C131	C	0.677948	-0.187685	-0.454007
C132	C	0.677943	-0.187701	-0.407087
C133	C	0.620445	-0.245161	-0.407090
C134	C	0.620452	-0.245147	-0.454005
C135	C	0.649205	-0.216406	-0.477463
O136	O	0.596038	-0.269553	-0.528229
O137	O	0.702399	-0.163226	-0.528266
C138	C	0.677978	-0.187616	-0.740197
C139	C	0.649232	-0.216338	-0.763653
C140	C	0.620482	-0.245072	-0.740193
C141	C	0.649239	-0.216330	-0.810571
C142	C	0.677989	-0.187596	-0.834031
C143	C	0.706732	-0.158870	-0.810572
C144	C	0.706728	-0.158881	-0.763657
C145	C	0.591738	-0.273798	-0.763651
C146	C	0.591745	-0.273785	-0.810567
C147	C	0.620495	-0.245050	-0.834027
C148	C	0.649189	-0.216412	-0.099792
C149	C	0.649271	-0.216288	-0.049858
H150	H	0.036543	-0.135705	-0.297511
H151	H	0.597099	-0.268431	-0.960385
H152	H	0.568335	-0.297180	-0.829660
H153	H	0.701242	-0.472525	-0.268714
C154	C	0.709568	-0.156098	-0.381289
N155	N	0.733386	-0.132294	-0.361859
C156	C	0.269117	-0.127501	-0.305724
N157	N	0.288565	-0.103723	-0.329565
H158	H	0.701224	-0.387403	-0.268707
H159	H	0.701360	-0.164280	-0.473101
H160	H	0.177302	-0.135702	-0.297506
C161	C	0.709570	-1.051616	-0.276931
N162	N	0.733366	-1.071026	-0.300761
H163	H	0.597039	-0.268557	-0.387980
C164	C	-0.186010	-0.156198	-0.276975
N165	N	-0.205433	-0.132427	-0.300813
H166	H	0.568450	-0.829227	-0.135576
C167	C	-0.186106	-0.276693	-0.156106
N168	N	-0.205557	-0.300462	-0.132257
H169	H	0.568310	-0.297209	-0.688905
H170	H	-0.094288	-0.268491	-0.164319
C171	C	0.738350	-0.127278	-0.737862
N172	N	0.762169	-0.103471	-0.718436
H173	H	0.478116	-0.268492	-0.164289
H174	H	0.121661	-0.135702	-0.297510
H175	H	0.597045	-0.387507	-0.164351
C176	C	0.738355	-0.127260	-0.836387
N177	N	0.762170	-0.103450	-0.855833
C178	C	0.560083	-0.305435	-0.597093
N179	N	0.536259	-0.329246	-0.577660
C180	C	0.738245	-0.835765	-0.305684
N181	N	0.762048	-0.855171	-0.329510
H182	H	0.568327	-0.297198	-0.744555
C183	C	0.170455	-0.305361	-0.127283
N184	N	0.151007	-0.329126	-0.103427
C185	C	0.738190	-0.596494	-0.305677
N186	N	0.761973	-0.577028	-0.329500
C187	C	0.588969	-0.953199	-0.156125
N188	N	0.565184	-0.933788	-0.132285
H189	H	0.730125	-0.135525	-0.603817
C190	C	0.588830	-0.276748	-0.479807
N191	N	0.565009	-0.300548	-0.499238
H192	H	0.036408	-0.297170	-0.135533
C193	C	0.709635	-0.155968	-0.953685
N194	N	0.733453	-0.132163	-0.934257
C195	C	0.268968	-0.305362	-0.127284
N196	N	0.288379	-0.329133	-0.103436
H197	H	-0.094190	-0.164396	-0.268752
C198	C	0.588899	-0.276624	-1.052194
N199	N	0.565077	-0.300426	-1.071622
H200	H	0.392992	-0.268496	-0.164294
H201	H	0.121514	-0.297168	-0.135527
C202	C	0.709555	-0.953101	-0.276932
N203	N	0.733340	-0.933652	-0.300767
C204	C	0.738221	-0.737256	-0.305686
N205	N	0.762008	-0.717808	-0.329521
C206	C	0.589019	-1.051731	-0.156102
N207	N	0.565277	-1.071196	-0.132237
C208	C	0.588863	-0.479325	-0.156126
N209	N	0.565074	-0.498775	-0.132295
C210	C	0.709640	-0.155949	-1.052214
N211	N	0.733454	-0.132139	-1.071660
H212	H	0.568428	-0.744117	-0.135576
C213	C	0.560187	-0.596668	-0.127367
N214	N	0.536392	-0.577260	-0.103536
C215	C	0.560209	-0.695179	-0.127368
N216	N	0.536418	-0.714629	-0.103539
H217	H	0.478204	-0.164399	-0.268715
H218	H	0.393096	-0.164389	-0.268716
H219	H	0.730132	-0.135503	-0.688922
H220	H	0.730005	-0.688324	-0.297467
