data_functionalizedCrystal
_audit_creation_method	'MofGen! by Chris Wilmer'
_symmetry_space_group_name_H-M	'P1'
_symmetry_Int_Tables_number	1
_symmetry_cell_setting	triclinic
loop_
_symmetry_equiv_pos_as_xyz
  x,y,z
_cell_length_a	12.811457
_cell_length_b	15.944493
_cell_length_c	11.295483
_cell_angle_alpha	94.100278
_cell_angle_beta	91.289320
_cell_angle_gamma	83.760055
loop_
_atom_site_label
_atom_site_type_symbol
_atom_site_fract_x
_atom_site_fract_y
_atom_site_fract_z
O1	O	1.388996	0.116031	0.050993
O2	O	1.085751	0.126472	0.018244
O3	O	1.245686	-0.000947	0.035507
O4	O	1.229060	0.243450	0.033731
O5	O	1.231639	0.010227	0.232041
O6	O	1.071704	0.137647	0.214779
O7	O	1.374948	0.127205	0.247528
Cu8	Cu	1.222043	0.133446	0.249098
Cu9	Cu	1.238656	0.120231	0.016674
O10	O	1.215013	0.254625	0.230265
C11	C	1.039923	0.131132	0.112320
C12	C	0.924299	0.128358	0.099833
C13	C	0.691713	0.135313	0.290653
C14	C	0.583073	0.132707	0.278926
C15	C	0.598378	0.120533	0.064652
C16	C	0.707018	0.123140	0.076379
C17	C	0.753681	0.130531	0.189384
C18	C	0.862322	0.133143	0.201110
C19	C	0.877626	0.120964	-0.013163
C20	C	0.768986	0.118357	-0.024890
C21	C	1.237984	-0.026662	0.133695
C22	C	1.235948	-0.119931	0.133460
C23	C	1.330087	-0.354784	0.143650
C24	C	1.286246	-0.411350	0.041266
C25	C	1.232172	-0.290687	0.133067
C26	C	1.272374	-0.400309	0.235031
C27	C	1.228532	-0.455631	0.132693
C28	C	1.188363	-0.346029	0.030606
C29	C	1.174499	-0.334980	0.224460
C30	C	1.130588	-0.391514	0.122045
C31	C	1.234272	-0.195668	0.133282
C32	C	1.226425	-0.550648	0.132469
C33	C	1.420776	0.122545	0.153449
C34	C	1.536401	0.125319	0.165929
C35	C	1.222716	0.280339	0.132074
C36	C	1.224752	0.373608	0.132301
N37	N	1.210366	0.142740	0.412574
N38	N	1.250341	0.110931	-0.146802
C39	C	1.334398	0.043980	0.675251
C40	C	1.325581	0.051010	0.798963
C41	C	1.183911	0.163824	0.783712
C42	C	1.192728	0.156795	0.660000
C43	C	1.267975	0.096871	0.605774
C44	C	1.276796	0.089846	0.482061
C45	C	1.135122	0.202656	0.466812
C46	C	1.126305	0.209686	0.590524
H47	H	0.900312	0.139167	0.293124
O48	O	1.110767	0.221915	0.836531
C49	C	1.041414	0.180333	0.901131
H50	H	1.081594	0.116071	0.924108
H51	H	0.967835	0.171145	0.845162
C52	C	0.961422	0.313057	0.988046
C53	C	1.010776	0.234132	1.016275
H54	H	0.942519	0.346243	1.059070
H55	H	1.008144	0.341073	0.944520
H56	H	0.900112	0.305389	0.941403
H57	H	1.072091	0.241800	1.062904
H58	H	0.964064	0.206119	1.059812
H59	H	1.065037	0.258472	0.634688
O60	O	1.314892	-0.428852	0.337988
C61	C	1.402016	-0.488856	0.312343
H62	H	1.434177	-0.478405	0.221894
H63	H	1.376689	-0.555287	0.311058
C64	C	1.448454	-0.491620	0.519340
C65	C	1.487960	-0.478779	0.408253
H66	H	1.501467	-0.485407	0.578503
H67	H	1.389754	-0.451196	0.536619
H68	H	1.427349	-0.546978	0.518252
H69	H	1.509052	-0.423418	0.409337
H70	H	1.546666	-0.519193	0.390977
H71	H	1.046184	-0.407795	0.112876
H72	H	0.928092	0.117075	-0.095624
H73	H	1.379668	0.007939	0.855528
H74	H	1.414436	-0.338351	0.152661
O75	O	1.407387	-0.014328	0.622597
C76	C	1.388359	-0.095943	0.651000
H77	H	1.302553	-0.095279	0.676035
H78	H	1.440989	-0.115956	0.729014
C79	C	1.517777	-0.159770	0.512074
C80	C	1.412386	-0.158957	0.542813
H81	H	1.532602	-0.198642	0.445342
H82	H	1.530599	-0.104785	0.492941
H83	H	1.561623	-0.176446	0.577095
H84	H	1.368542	-0.142271	0.477799
H85	H	1.399557	-0.213941	0.561933
O86	O	1.070691	0.254161	0.399388
C87	C	1.085438	0.339201	0.431483
H88	H	1.166402	0.342378	0.474477
H89	H	1.022587	0.367369	0.497079
C90	C	0.977636	0.385849	0.267051
C91	C	1.077081	0.389751	0.319847
H92	H	0.972477	0.417032	0.198191
H93	H	0.967697	0.328556	0.245430
H94	H	0.925272	0.409321	0.321725
H95	H	1.129443	0.366269	0.265179
H96	H	1.087029	0.447041	0.341457
H97	H	1.152897	-0.322269	-0.055867
H98	H	1.333453	-0.444556	-0.036192
H99	H	1.127327	-0.301758	0.301925
O100	O	0.553135	0.113467	-0.045173
C101	C	0.572491	0.183005	-0.108736
H102	H	0.645263	0.210828	-0.070193
H103	H	0.502016	0.233211	-0.101351
C104	C	0.501154	0.119387	-0.287549
C105	C	0.590539	0.153555	-0.240216
H106	H	0.512282	0.101223	-0.368653
H107	H	0.488109	0.072539	-0.244725
H108	H	0.442434	0.161231	-0.281384
H109	H	0.649254	0.111708	-0.246368
H110	H	0.603594	0.200396	-0.283045
H111	H	1.338069	0.041056	0.437912
H112	H	0.729705	0.141343	0.382665
H113	H	0.532621	0.136606	0.361390
O114	O	0.723751	0.111294	-0.134720
C115	C	0.743118	0.180835	-0.198272
H116	H	0.815886	0.208655	-0.159715
H117	H	0.672644	0.231041	-0.190894
C118	C	0.671800	0.117225	-0.377102
C119	C	0.761181	0.151390	-0.329752
H120	H	0.682938	0.099064	-0.458206
H121	H	0.658748	0.070375	-0.334286
H122	H	0.613080	0.159070	-0.370942
H123	H	0.819896	0.109542	-0.335898
H124	H	0.774243	0.198232	-0.372573
