data_functionalizedCrystal
_audit_creation_method	'MofGen! by Chris Wilmer'
_symmetry_space_group_name_H-M	'P1'
_symmetry_Int_Tables_number	1
_symmetry_cell_setting	triclinic
loop_
_symmetry_equiv_pos_as_xyz
  x,y,z
_cell_length_a	19.121102
_cell_length_b	19.121063
_cell_length_c	13.897441
_cell_angle_alpha	92.405670
_cell_angle_beta	87.539222
_cell_angle_gamma	90.126902
loop_
_atom_site_label
_atom_site_type_symbol
_atom_site_fract_x
_atom_site_fract_y
_atom_site_fract_z
Zn1	Zn	1.059871	-0.324874	-0.626425
Zn2	Zn	1.559871	0.175126	-0.126425
Zn3	Zn	1.054772	-0.442120	-0.471683
Zn4	Zn	1.554772	0.057880	0.028317
Zn5	Zn	0.942627	-0.319896	-0.457988
Zn6	Zn	1.442627	0.180104	0.042012
Zn7	Zn	0.937596	-0.437065	-0.625779
Zn8	Zn	1.437596	0.062935	-0.125779
O9	O	0.998716	-0.380989	-0.545469
O10	O	1.498716	0.119011	-0.045469
O11	O	1.157299	-0.344626	-0.611899
O12	O	1.657299	0.155374	-0.111899
O13	O	1.039867	-0.425939	-0.334884
O14	O	1.539867	0.074061	0.165116
O15	O	0.962420	-0.222453	-0.474871
O16	O	1.462420	0.277547	0.025129
O17	O	1.153553	-0.430766	-0.498211
O18	O	1.653553	0.069234	0.001789
O19	O	1.048558	-0.226111	-0.598621
O20	O	1.548558	0.273889	-0.098621
O21	O	0.957475	-0.336141	-0.324823
O22	O	1.457475	0.163859	0.175177
O23	O	0.843855	-0.331240	-0.474245
O24	O	1.343855	0.168760	0.025755
O25	O	0.953844	-0.422150	-0.760847
O26	O	1.453844	0.077850	-0.260847
O27	O	0.840158	-0.417323	-0.597520
O28	O	1.340158	0.082677	-0.097520
O29	O	1.043679	-0.339725	-0.761321
O30	O	1.543679	0.160275	-0.261321
O31	O	1.034988	-0.539553	-0.497585
O32	O	1.534988	-0.039553	0.002415
O33	O	0.948899	-0.535839	-0.610799
O34	O	1.448899	-0.035839	-0.110799
C35	C	0.816569	-0.373193	-0.534327
C36	C	1.316569	0.126807	-0.034327
C37	C	0.738644	-0.369875	-0.529585
C38	C	1.238644	0.130125	-0.029585
C39	C	0.700126	-0.413203	-0.591446
C40	C	1.200126	0.086797	-0.091446
C41	C	0.626908	-0.410076	-0.586994
C42	C	1.126908	0.089924	-0.086994
C43	C	0.592210	-0.363624	-0.520675
C44	C	1.092210	0.136376	-0.020675
C45	C	0.630734	-0.320291	-0.458811
C46	C	1.130734	0.179709	0.041189
C47	C	0.703950	-0.323415	-0.463268
C48	C	1.203950	0.176585	0.036732
C49	C	0.371239	-0.351942	-0.504014
C50	C	0.871239	0.148058	-0.004014
C51	C	0.298017	-0.348823	-0.499560
C52	C	0.798017	0.151177	0.000440
C53	C	0.294197	-0.438607	-0.627745
C54	C	0.794197	0.061393	-0.127745
C55	C	0.367415	-0.441730	-0.632193
C56	C	0.867415	0.058270	-0.132193
C57	C	0.405932	-0.398395	-0.570332
C58	C	0.905932	0.101605	-0.070332
C59	C	0.517370	-0.360428	-0.516121
C60	C	1.017370	0.139572	-0.016121
C61	C	0.480771	-0.401587	-0.574891
C62	C	0.980771	0.098413	-0.074891
C63	C	0.990863	-0.563133	-0.555630
C64	C	1.490863	-0.063133	-0.055630
C65	C	0.987568	-0.641058	-0.560013
C66	C	1.487568	-0.141058	-0.060013
C67	C	1.030876	-0.679580	-0.503181
C68	C	1.530876	-0.179580	-0.003181
C69	C	1.027781	-0.752798	-0.507309
C70	C	1.527781	-0.252798	-0.007309
C71	C	0.981374	-0.787495	-0.568265
C72	C	1.481374	-0.287495	-0.068265
C73	C	0.938064	-0.748968	-0.625104
C74	C	1.438064	-0.248968	-0.125104
C75	C	0.941163	-0.675751	-0.620980
C76	C	1.441163	-0.175751	-0.120980
C77	C	0.969775	-1.008468	-0.583668
C78	C	1.469775	-0.508468	-0.083668
C79	C	0.966678	-1.081691	-0.587785
C80	C	1.466678	-0.581691	-0.087785
C81	C	1.056397	-1.085516	-0.469991
C82	C	1.556397	-0.585516	0.030009
C83	C	1.059489	-1.012297	-0.465868
C84	C	1.559489	-0.512297	0.034132
C85	C	1.016182	-0.973777	-0.522711
C86	C	1.516182	-0.473777	-0.022711
C87	C	0.978207	-0.862336	-0.572484
C88	C	1.478207	-0.362336	-0.072484
C89	C	1.019352	-0.898937	-0.518496
C90	C	1.519352	-0.398937	-0.018496
C91	C	1.181575	-0.388816	-0.556655
C92	C	1.681575	0.111184	-0.056655
C93	C	1.259499	-0.392151	-0.561421
C94	C	1.759499	0.107849	-0.061421
C95	C	0.998769	-0.380929	-0.797062
C96	C	1.498769	0.119071	-0.297062
C97	C	0.998791	-0.380903	-0.904275
C98	C	1.498791	0.119097	-0.404275
C99	C	1.006619	-0.198134	-0.535290
C100	C	1.506619	0.301866	-0.035290
C101	C	1.009987	-0.120212	-0.530953
C102	C	1.509987	0.379788	-0.030953
C103	C	0.998812	-0.380857	-1.100569
C104	C	1.498812	0.119143	-0.600569
C105	C	0.998798	-0.380885	-0.991337
C106	C	1.498798	0.119115	-0.491337
C107	C	0.998707	-0.381000	-0.294855
C108	C	1.498707	0.119000	0.205145
C109	C	0.998829	-0.380833	-0.187639
C110	C	1.498829	0.119167	0.312361
H111	H	0.602477	-0.282466	-0.404816
H112	H	1.102477	0.217534	0.095184
O113	O	0.408686	-0.309781	-0.444057
O114	O	0.908686	0.190219	0.055943
C115	C	0.453017	-0.266368	-0.499131
C116	C	0.953017	0.233632	0.000869
H117	H	0.431162	-0.261162	-0.573531
H118	H	0.931162	0.238838	-0.073531
H119	H	0.456161	-0.212421	-0.461401
H120	H	0.956161	0.287579	0.038599
H121	H	0.507574	-0.290414	-0.506995
H122	H	1.007574	0.209586	-0.006995
O123	O	1.064331	-0.865201	-0.459173
O124	O	1.564331	-0.365201	0.040827
C125	C	1.026224	-0.821198	-0.392033
C126	C	1.526224	-0.321198	0.107967
H127	H	0.970076	-0.840957	-0.383886
H128	H	1.470076	-0.340957	0.116114
H129	H	1.051638	-0.821465	-0.319331
H130	H	1.551638	-0.321465	0.180669
H131	H	1.026143	-0.765592	-0.418588
H132	H	1.526143	-0.265592	0.081412
H133	H	0.735311	-0.288129	-0.412898
H134	H	1.235311	0.211871	0.087102
O135	O	0.589574	-0.452142	-0.647217
O136	O	1.089574	0.047858	-0.147217
C137	C	0.608144	-0.437670	-0.743633
C138	C	1.108144	0.062330	-0.243633
H139	H	0.662463	-0.412985	-0.747429
H140	H	1.162463	0.087015	-0.247429
H141	H	0.608490	-0.488418	-0.789736
H142	H	1.108490	0.011582	-0.289736
H143	H	0.568497	-0.399908	-0.771700
H144	H	1.068497	0.100092	-0.271700
H145	H	0.940421	-0.890594	-0.622113
H146	H	1.440421	-0.390594	-0.122113
H147	H	1.091657	-1.116887	-0.423715
H148	H	1.591657	-0.616887	0.076285
O149	O	0.514392	-0.446803	-0.639266
O150	O	1.014392	0.053197	-0.139266
C151	C	0.493503	-0.515895	-0.620815
C152	C	0.993503	-0.015895	-0.120815
H153	H	0.440267	-0.515050	-0.580579
H154	H	0.940267	-0.015050	-0.080579
H155	H	0.489672	-0.547290	-0.691964
H156	H	0.989672	-0.047290	-0.191964
H157	H	0.533678	-0.541215	-0.574987
H158	H	1.033678	-0.041215	-0.074987
O159	O	0.483621	-0.315403	-0.451607
O160	O	0.983621	0.184597	0.048393
C161	C	0.439509	-0.353450	-0.388884
C162	C	0.939509	0.146550	0.111116
H163	H	0.459196	-0.409598	-0.387206
H164	H	0.959196	0.090402	0.112794
H165	H	0.439730	-0.327984	-0.313242
H166	H	0.939730	0.172016	0.186758
H167	H	0.383930	-0.353531	-0.415483
H168	H	0.883930	0.146469	0.084517
O169	O	0.927673	-0.970974	-0.638732
O170	O	1.427673	-0.470974	-0.138732
C171	C	0.884195	-0.926768	-0.578610
C172	C	1.384195	-0.426768	-0.078610
H173	H	0.909415	-0.916879	-0.506437
H174	H	1.409415	-0.416879	-0.006437
H175	H	0.876963	-0.874865	-0.614412
H176	H	1.376963	-0.374865	-0.114412
H177	H	0.831048	-0.952814	-0.566364
H178	H	1.331048	-0.452814	-0.066364
O179	O	1.076017	-0.645990	-0.443944
O180	O	1.576017	-0.145990	0.056056
C181	C	1.113566	-0.695694	-0.394651
C182	C	1.613566	-0.195694	0.105349
H183	H	1.113770	-0.747963	-0.437251
H184	H	1.613770	-0.247963	0.062749
H185	H	1.169703	-0.676860	-0.386605
H186	H	1.669703	-0.176860	0.113395
H187	H	1.087588	-0.702449	-0.320238
H188	H	1.587588	-0.202449	0.179762
H189	H	0.900280	-0.777224	-0.674740
H190	H	1.400280	-0.277224	-0.174740
H191	H	1.097278	-0.984049	-0.416233
H192	H	1.597278	-0.484049	0.083767
H193	H	0.395661	-0.479557	-0.686195
H194	H	0.895661	0.020443	-0.186195
O195	O	1.070020	-0.790203	-0.452319
O196	O	1.570020	-0.290203	0.047681
C197	C	1.113480	-0.834356	-0.512544
C198	C	1.613480	-0.334356	-0.012544
H199	H	1.118570	-0.812422	-0.587543
H200	H	1.618570	-0.312422	-0.087543
H201	H	1.167467	-0.837369	-0.481205
H202	H	1.667467	-0.337369	0.018795
H203	H	1.089548	-0.888979	-0.517584
H204	H	1.589548	-0.388979	-0.017584
H205	H	0.928896	-1.109938	-0.637440
H206	H	1.428896	-0.609938	-0.137440
H207	H	0.905897	-0.644387	-0.667260
H208	H	1.405897	-0.144387	-0.167260
H209	H	0.262828	-0.473887	-0.678110
H210	H	0.762828	0.026113	-0.178110
O211	O	0.733910	-0.458232	-0.655917
O212	O	1.233910	0.041768	-0.155917
C213	C	0.777987	-0.420179	-0.718678
C214	C	1.277987	0.079821	-0.218678
H215	H	0.791235	-0.367490	-0.682477
H216	H	1.291235	0.132510	-0.182477
H217	H	0.828246	-0.450944	-0.736271
H218	H	1.328246	0.049056	-0.236271
H219	H	0.750123	-0.411335	-0.788034
H220	H	1.250123	0.088665	-0.288034
H221	H	0.269768	-0.310988	-0.445560
H222	H	0.769768	0.189012	0.054440
