data_functionalizedCrystal
_audit_creation_method	'MofGen! by Chris Wilmer'
_symmetry_space_group_name_H-M	'P1'
_symmetry_Int_Tables_number	1
_symmetry_cell_setting	triclinic
loop_
_symmetry_equiv_pos_as_xyz
  x,y,z
_cell_length_a	19.188930
_cell_length_b	19.188930
_cell_length_c	17.666332
_cell_angle_alpha	90.023234
_cell_angle_beta	89.988397
_cell_angle_gamma	96.855221
loop_
_atom_site_label
_atom_site_type_symbol
_atom_site_fract_x
_atom_site_fract_y
_atom_site_fract_z
O1	O	0.087169	-0.926150	-0.063200
O2	O	0.587169	-0.426150	0.436800
O3	O	0.098903	-0.722838	-0.063149
O4	O	0.598903	-0.222838	0.436851
O5	O	-0.008620	-0.830361	-0.063161
O6	O	0.491380	-0.330361	0.436839
O7	O	0.194692	-0.818627	-0.063188
O8	O	0.694692	-0.318627	0.436812
O9	O	-0.008625	-0.830342	0.062735
O10	O	0.491375	-0.330342	0.562735
O11	O	0.098897	-0.722820	0.062747
O12	O	0.598897	-0.222820	0.562747
O13	O	0.087163	-0.926131	0.062697
O14	O	0.587163	-0.426131	0.562697
Cu15	Cu	0.093030	-0.824473	0.074217
Cu16	Cu	0.593030	-0.324473	0.574217
Cu17	Cu	0.093036	-0.824496	-0.074670
Cu18	Cu	0.593036	-0.324496	0.425330
O19	O	0.194686	-0.818608	0.062709
O20	O	0.694686	-0.318608	0.562709
C21	C	0.098520	-0.696818	-0.000194
C22	C	0.598520	-0.196818	0.499806
C23	C	0.097380	-0.619313	-0.000174
C24	C	0.597380	-0.119313	0.499826
C25	C	-0.034634	-0.829972	-0.000211
C26	C	0.465366	-0.329972	0.499789
C27	C	-0.112138	-0.828831	-0.000204
C28	C	0.387862	-0.328831	0.499796
C29	C	0.087546	-0.952151	-0.000260
C30	C	0.587546	-0.452151	0.499740
C31	C	0.088687	-1.029656	-0.000285
C32	C	0.588687	-0.529656	0.499715
C33	C	-0.157062	-0.891922	-0.000216
C34	C	0.342938	-0.391922	0.499784
C35	C	-0.229886	-0.890850	-0.000228
C36	C	0.270114	-0.390850	0.499772
C37	C	-0.257782	-0.826684	-0.000212
C38	C	0.242218	-0.326684	0.499788
C39	C	-0.212849	-0.763585	-0.000205
C40	C	0.287151	-0.263585	0.499795
C41	C	-0.140026	-0.764658	-0.000200
C42	C	0.359974	-0.264658	0.499800
N43	N	-0.365789	-0.777630	0.042645
N44	N	0.134211	-0.277630	0.542645
N45	N	-0.434968	-0.776615	0.042642
N46	N	0.065032	-0.276615	0.542642
C47	C	-0.477191	-0.823446	-0.000227
C48	C	0.022809	-0.323446	0.499773
N49	N	-0.447624	-0.871341	-0.043084
N50	N	0.052376	-0.371341	0.456916
N51	N	-0.378439	-0.872359	-0.043079
N52	N	0.121561	-0.372359	0.456921
C53	C	-0.336745	-0.825513	-0.000218
C54	C	0.163255	-0.325513	0.499782
C55	C	-0.601079	-0.885379	-0.000253
C56	C	-0.101079	-0.385379	0.499747
C57	C	-0.673904	-0.884305	-0.000270
C58	C	-0.173904	-0.384305	0.499730
C59	C	-0.656865	-0.757038	-0.000239
C60	C	-0.156865	-0.257038	0.499761
C61	C	-0.584042	-0.758114	-0.000230
C62	C	-0.084042	-0.258114	0.499770
C63	C	-0.556154	-0.822287	-0.000233
C64	C	-0.056154	-0.322287	0.499767
C65	C	0.220700	-0.818997	-0.000244
C66	C	0.720700	-0.318997	0.499756
C67	C	0.298204	-0.820138	-0.000255
C68	C	0.798204	-0.320138	0.499745
N69	N	0.093025	-0.824463	0.178937
N70	N	0.593025	-0.324463	0.678937
C71	C	0.160470	-0.574389	-0.000194
C72	C	0.660470	-0.074389	0.499806
C73	C	0.159399	-0.501566	-0.000203
C74	C	0.659399	-0.001566	0.499797
C75	C	0.095233	-0.473669	-0.000206
C76	C	0.595233	0.026331	0.499794
C77	C	0.032133	-0.518603	-0.000181
C78	C	0.532133	-0.018603	0.499819
C79	C	0.033207	-0.591425	-0.000166
C80	C	0.533207	-0.091425	0.499834
N81	N	0.046188	-0.365695	-0.043078
N82	N	0.546188	0.134305	0.456922
N83	N	0.045172	-0.296517	-0.043095
N84	N	0.545172	0.203483	0.456905
C85	C	0.091994	-0.254260	-0.000252
C86	C	0.591994	0.245740	0.499748
N87	N	0.139881	-0.283795	0.042599
N88	N	0.639881	0.216205	0.542599
N89	N	0.140899	-0.352979	0.042612
N90	N	0.640899	0.147021	0.542612
C91	C	0.094062	-0.394707	-0.000222
C92	C	0.594062	0.105293	0.499778
C93	C	0.153928	-0.130372	-0.000280
C94	C	0.653928	0.369628	0.499720
C95	C	0.152853	-0.057547	-0.000283
C96	C	0.652853	0.442453	0.499717
C97	C	0.025586	-0.074586	-0.000270
C98	C	0.525586	0.425414	0.499730
C99	C	0.026662	-0.147409	-0.000258
C100	C	0.526662	0.352591	0.499742
C101	C	0.090835	-0.175298	-0.000267
C102	C	0.590835	0.324702	0.499733
N103	N	0.093036	-0.824512	-0.179390
N104	N	0.593036	-0.324512	0.320610
C105	C	0.045437	-0.872089	0.218541
C106	C	0.545437	-0.372089	0.718541
C107	C	0.045433	-0.872093	0.297789
C108	C	0.545433	-0.372093	0.797789
C109	C	0.093030	-0.824478	0.337429
C110	C	0.593030	-0.324478	0.837429
C111	C	0.140621	-0.776842	0.297815
C112	C	0.640621	-0.276842	0.797815
C113	C	0.140619	-0.776835	0.218569
C114	C	0.640619	-0.276835	0.718569
N115	N	0.154837	-0.815401	0.461841
N116	N	0.654837	-0.315401	0.961841
N117	N	0.154837	-0.815413	0.537121
N118	N	0.654837	-0.315413	1.037121
C119	C	0.093040	-0.824496	0.576193
C120	C	0.593040	-0.324496	1.076193
N121	N	0.031239	-0.833582	0.537140
N122	N	0.531239	-0.333582	1.037140
N123	N	0.031240	-0.833574	0.461853
N124	N	0.531240	-0.333574	0.961853
C125	C	0.093038	-0.824480	0.423358
C126	C	0.593038	-0.324480	0.923358
C127	C	0.045444	-0.872130	0.701727
C128	C	0.545444	-0.372130	1.201727
C129	C	0.045440	-0.872129	0.780976
C130	C	0.545440	-0.372129	1.280976
C131	C	0.140634	-0.776881	0.781000
C132	C	0.640634	-0.276881	1.281000
C133	C	0.140632	-0.776878	0.701753
C134	C	0.640632	-0.276878	1.201753
C135	C	0.093038	-0.824506	0.662121
C136	C	0.593038	-0.324506	1.162121
H137	H	-0.134360	-0.944176	-0.000222
H138	H	0.365640	-0.444176	0.499778
O139	O	0.191968	-0.725490	0.340560
O140	O	0.691968	-0.225490	0.840560
H141	H	0.162670	-0.691653	0.376701
H142	H	0.662670	-0.191653	0.876701
O143	O	-0.686947	-0.687830	-0.000217
O144	O	-0.186947	-0.187830	0.499783
H145	H	-0.668879	-0.657532	-0.051524
H146	H	-0.168879	-0.157532	0.448476
H147	H	-0.266470	-0.942228	-0.000241
H148	H	0.233530	-0.442228	0.499759
H149	H	0.179371	-0.738051	0.186322
H150	H	0.679371	-0.238051	0.686322
O151	O	0.191960	-0.725510	0.659029
O152	O	0.691960	-0.225510	1.159029
H153	H	0.225817	-0.754789	0.622892
H154	H	0.725817	-0.254789	1.122892
O155	O	-0.242930	-0.694375	-0.000179
O156	O	0.257070	-0.194375	0.499821
H157	H	-0.301116	-0.704227	-0.000174
H158	H	0.198884	-0.204227	0.499826
H159	H	-0.103448	-0.713281	-0.000190
H160	H	0.396552	-0.213281	0.499810
H161	H	-0.018171	-0.628003	-0.000150
H162	H	0.481829	-0.128003	0.499850
H163	H	-0.578372	-0.937632	-0.000259
H164	H	-0.078372	-0.437632	0.499741
O165	O	-0.005891	-0.923497	0.823700
O166	O	0.494109	-0.423497	1.323700
H167	H	0.023424	-0.957330	0.859785
H168	H	0.523424	-0.457330	1.359785
H169	H	0.212725	-0.597091	-0.000203
H170	H	0.712725	-0.097091	0.499797
H171	H	-0.710481	-0.935683	-0.000284
H172	H	-0.210481	-0.435683	0.499716
O173	O	-0.535581	-0.690066	-0.000198
O174	O	-0.035581	-0.190066	0.499802
H175	H	-0.567211	-0.645266	-0.000180
H176	H	-0.067211	-0.145266	0.499820
O177	O	0.227448	-0.453098	-0.000232
O178	O	0.727448	0.046902	0.499768
H179	H	0.272251	-0.484725	-0.000241
H180	H	0.772251	0.015275	0.499759
H181	H	0.204232	-0.020970	-0.000295
H182	H	0.704232	0.479030	0.499705
H183	H	-0.020111	-0.495885	-0.000194
H184	H	0.479889	0.004115	0.499806
O185	O	-0.041386	-0.195871	-0.000243
O186	O	0.458614	0.304129	0.499757
H187	H	-0.086186	-0.164240	-0.000251
H188	H	0.413814	0.335760	0.499749
O189	O	0.223137	-0.160461	-0.000274
O190	O	0.723137	0.339539	0.499726
H191	H	0.266830	-0.116984	-0.000274
H192	H	0.766830	0.383016	0.499726
H193	H	-0.026659	-0.051874	-0.000319
H194	H	0.473341	0.448126	0.499681
H195	H	0.006681	-0.910869	0.186275
H196	H	0.506681	-0.410869	0.686275
O197	O	-0.005888	-0.923470	0.340520
O198	O	0.494112	-0.423470	0.840520
H199	H	-0.038979	-0.956591	0.299648
H200	H	0.461021	-0.456591	0.799648
H201	H	0.006688	-0.910909	0.669457
H202	H	0.506688	-0.410909	1.169457
O203	O	0.191974	-0.725523	0.823742
O204	O	0.691974	-0.225523	1.323742
H205	H	0.183985	-0.733531	0.885501
H206	H	0.683985	-0.233531	1.385501
