data_functionalizedCrystal
_audit_creation_method	'MofGen! by Chris Wilmer'
_symmetry_space_group_name_H-M	'P1'
_symmetry_Int_Tables_number	1
_symmetry_cell_setting	triclinic
loop_
_symmetry_equiv_pos_as_xyz
  x,y,z
_cell_length_a	16.974800
_cell_length_b	14.853559
_cell_length_c	15.455313
_cell_angle_alpha	87.329071
_cell_angle_beta	89.026089
_cell_angle_gamma	83.510332
loop_
_atom_site_label
_atom_site_type_symbol
_atom_site_fract_x
_atom_site_fract_y
_atom_site_fract_z
O1	O	1.049197	0.114925	-0.001552
O2	O	0.819779	0.128693	0.014560
O3	O	0.940620	-0.009414	0.006073
O4	O	0.928357	0.253033	0.006936
O5	O	0.933709	-0.001549	-0.137704
O6	O	0.812869	0.136558	-0.129217
O7	O	1.042287	0.122790	-0.145328
Cu8	Cu	0.926947	0.130392	-0.150400
Cu9	Cu	0.935119	0.121091	0.019632
O10	O	0.921446	0.260898	-0.136841
C11	C	0.786964	0.131958	-0.055266
C12	C	0.699480	0.129958	-0.049122
C13	C	0.654618	0.133303	-0.124610
C14	C	0.572419	0.131409	-0.118840
C15	C	0.535083	0.126176	-0.037580
C16	C	0.579952	0.122828	0.037913
C17	C	0.662150	0.124715	0.032142
C18	C	0.289653	0.120065	-0.011916
C19	C	0.207448	0.118180	-0.006150
C20	C	0.199921	0.126760	-0.162904
C21	C	0.282121	0.128652	-0.168668
C22	C	0.326982	0.125299	-0.093175
N23	N	0.451063	0.124243	-0.031680
N24	N	0.411002	0.127226	-0.099076
C25	C	0.936610	-0.039071	-0.065775
C26	C	0.934949	-0.139157	-0.065654
C27	C	0.931667	-0.566627	0.013214
C28	C	0.924133	-0.558047	-0.143537
C29	C	0.925701	-0.464012	-0.143647
C30	C	0.930250	-0.421280	-0.065326
C31	C	0.933232	-0.472583	0.013106
C32	C	0.922711	-0.412701	-0.222078
C33	C	0.924277	-0.318660	-0.222192
C34	C	0.928833	-0.275927	-0.143870
C35	C	0.931816	-0.327236	-0.065434
C36	C	0.936366	-0.284504	0.012887
C37	C	0.939354	-0.335813	0.091323
C38	C	0.937788	-0.429851	0.091428
C39	C	0.930399	-0.181889	-0.143975
C40	C	0.937931	-0.190460	0.012779
C41	C	1.075102	0.119526	-0.075500
C42	C	1.162586	0.121526	-0.081638
C43	C	0.925456	0.290555	-0.064991
C44	C	0.927117	0.390641	-0.065107
N45	N	0.921205	0.136934	-0.269993
C46	C	0.972560	0.078283	-0.318994
C47	C	0.968225	0.083238	-0.409497
C48	C	0.912537	0.146850	-0.450998
C49	C	0.861177	0.205503	-0.401990
C50	C	0.865509	0.200543	-0.311488
C51	C	0.893839	0.168236	-0.721266
C52	C	0.889512	0.173194	-0.811775
C53	C	0.996560	0.050927	-0.819276
C54	C	1.000890	0.045976	-0.728772
C55	C	0.949526	0.104626	-0.679772
N56	N	0.908106	0.151918	-0.543507
N57	N	0.953954	0.099553	-0.587264
N58	N	0.940867	0.114543	0.139224
H59	H	0.177052	0.113922	0.060025
F60	F	0.942779	-0.144990	0.096141
H61	H	0.535898	0.134118	-0.180311
F62	F	0.337387	0.116497	0.068432
H63	H	0.312514	0.132909	-0.234839
H64	H	0.163386	0.129488	-0.224367
F65	F	0.540217	0.117231	0.124396
H66	H	0.823689	0.248302	-0.271592
H67	H	0.844163	0.224998	-0.845560
H68	H	0.927948	-0.140116	-0.207835
H69	H	0.919002	-0.447500	-0.285842
F70	F	1.060159	-0.021726	-0.684605
F71	F	0.709896	0.121152	0.112487
H72	H	0.943053	-0.301007	0.155092
F73	F	0.919279	-0.603526	-0.226886
F74	F	0.940972	-0.484462	0.174897
H75	H	1.038376	0.003175	-0.859179
F76	F	0.934855	-0.621233	0.096687
F77	F	0.921093	-0.264062	-0.305668
H78	H	1.017910	0.026487	-0.285210
F79	F	1.022882	0.020814	-0.461648
F80	F	0.839177	0.230658	-0.669124
H81	H	0.685010	0.137571	-0.190781
F82	F	0.801906	0.273200	-0.446159
