data_functionalizedCrystal
_audit_creation_method	'MofGen! by Chris Wilmer'
_symmetry_space_group_name_H-M	'P1'
_symmetry_Int_Tables_number	1
_symmetry_cell_setting	triclinic
loop_
_symmetry_equiv_pos_as_xyz
  x,y,z
_cell_length_a	23.532407
_cell_length_b	17.699083
_cell_length_c	16.176319
_cell_angle_alpha	90.007696
_cell_angle_beta	89.997915
_cell_angle_gamma	96.934154
loop_
_atom_site_label
_atom_site_type_symbol
_atom_site_fract_x
_atom_site_fract_y
_atom_site_fract_z
O1	O	0.755526	-0.091879	-0.068645
O2	O	1.088859	0.241454	0.264688
O3	O	1.422192	0.574787	0.598022
O4	O	0.589701	-0.105173	-0.068670
O5	O	0.923034	0.228160	0.264664
O6	O	1.256367	0.561493	0.597997
O7	O	0.677298	0.011687	-0.068649
O8	O	1.010631	0.345020	0.264684
O9	O	1.343965	0.678353	0.598017
O10	O	0.667928	-0.208739	-0.068665
O11	O	1.001261	0.124594	0.264668
O12	O	1.334595	0.457927	0.598001
O13	O	0.677286	0.011694	0.068844
O14	O	1.010619	0.345027	0.402177
O15	O	1.343953	0.678361	0.735510
O16	O	0.589689	-0.105166	0.068824
O17	O	0.923022	0.228167	0.402157
O18	O	1.256355	0.561501	0.735490
O19	O	0.755514	-0.091872	0.068848
O20	O	1.088847	0.241461	0.402181
O21	O	1.422180	0.574795	0.735515
Cu22	Cu	0.672600	-0.098518	0.081390
Cu23	Cu	1.005933	0.234815	0.414723
Cu24	Cu	1.339267	0.568148	0.748057
Cu25	Cu	0.672614	-0.098527	-0.081212
Cu26	Cu	1.005948	0.234806	0.252122
Cu27	Cu	1.339281	0.568140	0.585455
O28	O	0.667916	-0.208732	0.068828
O29	O	1.001249	0.124601	0.402161
O30	O	1.334583	0.457935	0.735495
C31	C	0.568478	-0.104831	0.000074
C32	C	0.901811	0.228502	0.333407
C33	C	1.235144	0.561836	0.666741
C34	C	0.505258	-0.103813	0.000065
C35	C	0.838591	0.229520	0.333398
C36	C	1.171924	0.562853	0.666731
N37	N	0.672594	-0.098512	0.195755
N38	N	1.005927	0.234822	0.529089
N39	N	1.339261	0.568155	0.862422
C40	C	0.676956	0.039886	0.000097
C41	C	1.010290	0.373219	0.333431
C42	C	1.343623	0.706552	0.666764
C43	C	0.675949	0.123899	0.000097
C44	C	1.009282	0.457232	0.333431
C45	C	1.342616	0.790565	0.666764
C46	C	0.106335	-0.166585	0.000098
C47	C	0.439668	0.166749	0.333431
C48	C	0.773001	0.500082	0.666764
C49	C	0.046932	-0.165639	0.000103
C50	C	0.380265	0.167694	0.333436
C51	C	0.713599	0.501028	0.666770
O52	O	0.010354	-0.223829	0.000129
O53	O	0.343688	0.109504	0.333462
O54	O	0.677021	0.442838	0.666795
N55	N	0.024106	-0.096166	0.000107
N56	N	0.357439	0.237167	0.333440
N57	N	0.690773	0.570501	0.666773
C58	C	0.060687	-0.027634	0.000113
C59	C	0.394020	0.305700	0.333447
C60	C	0.727353	0.639033	0.666780
O61	O	0.035817	0.031545	0.000118
O62	O	0.369150	0.364879	0.333451
O63	O	0.702484	0.698212	0.666784
C64	C	0.120089	-0.028580	0.000114
C65	C	0.453422	0.304753	0.333448
C66	C	0.786755	0.638087	0.666781
C67	C	0.142911	-0.098058	0.000102
C68	C	0.476244	0.235276	0.333436
C69	C	0.809577	0.568609	0.666769
C70	C	0.129158	-0.236057	0.000087
C71	C	0.462491	0.097277	0.333420
C72	C	0.795824	0.430610	0.666753
C73	C	0.188557	-0.237002	0.000080
C74	C	0.521890	0.096331	0.333413
C75	C	0.855223	0.429665	0.666747
C76	C	0.225133	-0.168475	0.000084
C77	C	0.558466	0.164858	0.333418
C78	C	0.891799	0.498192	0.666751
C79	C	0.202310	-0.099003	0.000096
C80	C	0.535643	0.234330	0.333429
C81	C	0.868976	0.567664	0.666762
C82	C	0.156668	0.039951	0.000127
C83	C	0.490001	0.373285	0.333460
C84	C	0.823335	0.706618	0.666794
C85	C	0.216073	0.038999	0.000129
C86	C	0.549407	0.372332	0.333462
C87	C	0.882740	0.705666	0.666795
C88	C	0.238896	-0.030479	0.000116
C89	C	0.572229	0.302855	0.333450
C90	C	0.905562	0.636188	0.666783
C91	C	0.298285	-0.031421	0.000093
C92	C	0.631618	0.301912	0.333427
C93	C	0.964951	0.635245	0.666760
N94	N	0.321110	-0.100894	0.000090
N95	N	0.654444	0.232439	0.333423
N96	N	0.987777	0.565772	0.666756
C97	C	0.284534	-0.169421	0.000085
C98	C	0.617868	0.163912	0.333419
C99	C	0.951201	0.497245	0.666752
C100	C	-0.064061	-0.025652	0.000113
C101	C	0.269272	0.307682	0.333447
C102	C	0.602605	0.641015	0.666780
C103	C	-0.123462	-0.024705	0.000107
C104	C	0.209871	0.308629	0.333440
C105	C	0.543205	0.641962	0.666773
C106	C	-0.137213	-0.162710	0.000097
C107	C	0.196120	0.170623	0.333431
C108	C	0.529454	0.503956	0.666764
C109	C	-0.077811	-0.163657	0.000098
C110	C	0.255522	0.169677	0.333432
C111	C	0.588855	0.503010	0.666765
C112	C	-0.041236	-0.095125	0.000110
C113	C	0.292098	0.238208	0.333443
C114	C	0.625431	0.571542	0.666776
C115	C	0.409277	-0.171401	0.000070
C116	C	0.742610	0.161932	0.333404
C117	C	1.075943	0.495266	0.666737
C118	C	0.468682	-0.172340	0.000060
C119	C	0.802015	0.160993	0.333394
C120	C	1.135348	0.494327	0.666727
C121	C	0.482427	-0.034335	0.000074
C122	C	0.815760	0.298998	0.333407
C123	C	1.149094	0.632332	0.666740
C124	C	0.423028	-0.033395	0.000080
C125	C	0.756361	0.299938	0.333413
C126	C	1.089694	0.633271	0.666746
C127	C	0.386453	-0.101935	0.000081
C128	C	0.719787	0.231399	0.333414
C129	C	1.053120	0.564732	0.666747
O130	O	0.334897	0.026738	0.000071
O131	O	0.668230	0.360071	0.333404
O132	O	1.001563	0.693405	0.666738
O133	O	0.309412	-0.228591	0.000092
O134	O	0.642746	0.104743	0.333425
O135	O	0.976079	0.438076	0.666758
C136	C	0.776737	-0.092214	0.000103
C137	C	1.110070	0.241119	0.333436
C138	C	1.443403	0.574452	0.666769
C139	C	0.839957	-0.093232	0.000106
C140	C	1.173290	0.240101	0.333440
C141	C	1.506623	0.573435	0.666773
C142	C	0.668258	-0.236931	0.000079
C143	C	1.001591	0.096402	0.333413
C144	C	1.334925	0.429736	0.666746
C145	C	0.669265	-0.320944	0.000074
C146	C	1.002598	0.012389	0.333407
C147	C	1.335932	0.345723	0.666740
C148	C	0.727367	0.172781	0.000106
C149	C	1.060700	0.506114	0.333440
C150	C	1.394034	0.839447	0.666773
C151	C	0.726417	0.251719	0.000099
C152	C	1.059751	0.585052	0.333432
C153	C	1.393084	0.918386	0.666765
C154	C	0.674049	0.281774	0.000089
C155	C	1.007382	0.615107	0.333422
C156	C	1.340716	0.948441	0.666755
C157	C	0.622627	0.232886	0.000077
C158	C	0.955960	0.566219	0.333411
C159	C	1.289294	0.899553	0.666744
C160	C	0.623577	0.153949	0.000079
C161	C	0.956911	0.487282	0.333412
C162	C	1.290244	0.820616	0.666745
C163	C	0.618793	0.551230	0.000070
C164	C	0.952126	0.884563	0.333403
C165	C	1.285460	1.217896	0.666737
C166	C	0.617847	0.630173	0.000071
C167	C	0.951180	0.963506	0.333404
C168	C	1.284513	1.296839	0.666738
C169	C	0.721633	0.649000	0.000090
C170	C	1.054966	0.982333	0.333423
C171	C	1.388300	1.315666	0.666757
C172	C	0.722583	0.570063	0.000092
C173	C	1.055917	0.903396	0.333425
C174	C	1.389250	1.236729	0.666758
C175	C	0.671162	0.521181	0.000076
C176	C	1.004495	0.854515	0.333409
C177	C	1.337828	1.187848	0.666743
C178	C	0.672192	0.435587	0.000082
C179	C	1.005526	0.768921	0.333416
C180	C	1.338859	1.102254	0.666749
C181	C	0.673018	0.367366	0.000088
C182	C	1.006351	0.700700	0.333421
C183	C	1.339684	1.034033	0.666755
N184	N	0.672625	-0.098528	-0.195577
N185	N	1.005958	0.234806	0.137757
N186	N	1.339291	0.568139	0.471090
C187	C	0.711394	-0.046787	0.239028
C188	C	1.044727	0.286546	0.572362
C189	C	1.378061	0.619880	0.905695
C190	C	0.711397	-0.046786	0.325576
C191	C	1.044730	0.286547	0.658909
C192	C	1.378064	0.619880	0.992242
C193	C	0.672602	-0.098514	0.368848
C194	C	1.005936	0.234819	0.702181
C195	C	1.339269	0.568152	1.035515
C196	C	0.633798	-0.150241	0.325569
C197	C	0.967132	0.183092	0.658902
C198	C	1.300465	0.516425	0.992235
C199	C	0.633793	-0.150238	0.239023
C200	C	0.967126	0.183095	0.572357
C201	C	1.300460	0.516429	0.905690
C202	C	0.633818	-0.150255	0.674597
C203	C	0.967151	0.183078	1.007930
C204	C	1.300484	0.516411	1.341264
C205	C	0.633827	-0.150256	0.761149
C206	C	0.967160	0.183077	1.094482
C207	C	1.300494	0.516410	1.427815
C208	C	0.711422	-0.046804	0.761149
C209	C	1.044755	0.286530	1.094483
C210	C	1.378088	0.619863	1.427816
C211	C	0.711416	-0.046800	0.674604
C212	C	1.044750	0.286533	1.007937
C213	C	1.378083	0.619866	1.341270
C214	C	0.672611	-0.098524	0.631332
C215	C	1.005944	0.234809	0.964665
C216	C	1.339277	0.568142	1.297999
C217	C	0.672607	-0.098524	0.537488
C218	C	1.005941	0.234810	0.870821
C219	C	1.339274	0.568143	1.204155
C220	C	0.672608	-0.098519	0.462690
C221	C	1.005941	0.234814	0.796024
C222	C	1.339275	0.568148	1.129357
H223	H	0.487260	-0.228920	0.000050
H224	H	0.820593	0.104414	0.333383
H225	H	1.153926	0.437747	0.666717
F226	F	0.752708	0.008252	0.628554
F227	F	1.086042	0.341586	0.961887
F228	F	1.419375	0.674919	1.295220
H229	H	-0.059234	-0.220231	0.000093
H230	H	0.274100	0.113102	0.333426
H231	H	0.607433	0.446435	0.666760
H232	H	0.763503	0.688809	0.000098
H233	H	1.096836	1.022142	0.333432
H234	H	1.430169	1.355475	0.666765
F235	F	0.090238	-0.308999	0.000082
F236	F	0.423572	0.024334	0.333415
F237	F	0.756905	0.357668	0.666749
F238	F	-0.025139	0.047294	0.000117
F239	F	0.308194	0.380628	0.333451
F240	F	0.641527	0.713961	0.666784
H241	H	0.742990	-0.004668	0.360808
H242	H	1.076324	0.328666	0.694141
H243	H	1.409657	0.661999	1.027475
F244	F	0.212838	-0.310950	0.000071
F245	F	0.546171	0.022383	0.333404
F246	F	0.879504	0.355717	0.666738
H247	H	0.602208	-0.192357	0.360806
H248	H	0.935541	0.140977	0.694139
H249	H	1.268875	0.474310	1.027473
F250	F	0.752721	0.008249	0.807208
F251	F	1.086054	0.341582	1.140542
F252	F	1.419388	0.674916	1.473875
H253	H	0.765227	0.545597	0.000104
H254	H	1.098560	0.878930	0.333437
H255	H	1.431894	1.212263	0.666771
F256	F	0.592520	-0.205305	0.628551
F257	F	0.925853	0.128028	0.961884
F258	F	1.259187	0.461362	1.295217
F259	F	-0.147744	0.049243	0.000101
F260	F	0.185589	0.382576	0.333434
F261	F	0.518922	0.715909	0.666767
F262	F	-0.176150	-0.235643	0.000096
F263	F	0.157183	0.097690	0.333429
F264	F	0.490516	0.431023	0.666763
H265	H	0.602234	-0.192381	0.796379
H266	H	0.935567	0.140952	1.129713
H267	H	1.268900	0.474286	1.463046
H268	H	0.770011	0.148316	0.000120
H269	H	1.103345	0.481650	0.333453
H270	H	1.436678	0.814983	0.666786
H271	H	0.379504	-0.227212	0.000074
H272	H	0.712838	0.106121	0.333407
H273	H	1.046171	0.439454	0.666741
F274	F	0.132392	0.113900	0.000128
F275	F	0.465726	0.447233	0.333462
F276	F	0.799059	0.780567	0.666795
H277	H	0.602198	-0.192356	0.203791
H278	H	0.935531	0.140977	0.537124
H279	H	1.268864	0.474310	0.870458
F280	F	0.521364	0.038592	0.000080
F281	F	0.854697	0.371926	0.333413
F282	F	1.188031	0.705259	0.666746
H283	H	0.404445	0.023179	0.000077
H284	H	0.737778	0.356512	0.333411
H285	H	1.071112	0.689846	0.666744
F286	F	0.254997	0.111942	0.000143
F287	F	0.588330	0.445275	0.333476
F288	F	0.921664	0.778609	0.666809
F289	F	0.781143	0.303740	0.000110
F290	F	1.114477	0.637073	0.333443
F291	F	1.447810	0.970407	0.666776
H292	H	0.575200	0.654640	0.000064
H293	H	0.908533	0.987973	0.333398
H294	H	1.241866	1.321306	0.666731
F295	F	0.564065	0.499216	0.000051
F296	F	0.897399	0.832550	0.333385
F297	F	1.230732	1.165883	0.666718
F298	F	0.566892	0.264875	0.000057
F299	F	0.900226	0.598208	0.333390
F300	F	1.233559	0.931542	0.666724
H301	H	0.581708	0.114149	0.000071
H302	H	0.915041	0.447483	0.333405
H303	H	1.248374	0.780816	0.666738
H304	H	0.742987	-0.004667	0.203802
H305	H	1.076321	0.328666	0.537135
H306	H	1.409654	0.661999	0.870468
