data_functionalizedCrystal
_audit_creation_method	'MofGen! by Chris Wilmer'
_symmetry_space_group_name_H-M	'P1'
_symmetry_Int_Tables_number	1
_symmetry_cell_setting	triclinic
loop_
_symmetry_equiv_pos_as_xyz
  x,y,z
_cell_length_a	14.519709
_cell_length_b	10.540539
_cell_length_c	13.596369
_cell_angle_alpha	89.996161
_cell_angle_beta	90.000291
_cell_angle_gamma	84.102818
loop_
_atom_site_label
_atom_site_type_symbol
_atom_site_fract_x
_atom_site_fract_y
_atom_site_fract_z
O1	O	1.224765	0.166400	-0.081658
O2	O	1.474765	0.416400	0.168342
O3	O	1.724765	0.666400	0.418342
O4	O	1.974765	0.916400	0.668342
O5	O	0.956394	0.185995	-0.081688
O6	O	1.206394	0.435995	0.168312
O7	O	1.456394	0.685995	0.418312
O8	O	1.706394	0.935995	0.668312
O9	O	1.096702	-0.008572	-0.081671
O10	O	1.346702	0.241428	0.168329
O11	O	1.596702	0.491428	0.418329
O12	O	1.846702	0.741428	0.668329
O13	O	1.084457	0.360966	-0.081675
O14	O	1.334457	0.610966	0.168325
O15	O	1.584457	0.860966	0.418325
O16	O	1.834457	1.110966	0.668325
O17	O	1.096688	-0.008582	0.081912
O18	O	1.346688	0.241418	0.331912
O19	O	1.596688	0.491418	0.581912
O20	O	1.846688	0.741418	0.831912
O21	O	0.956380	0.185985	0.081895
O22	O	1.206380	0.435985	0.331895
O23	O	1.456380	0.685985	0.581895
O24	O	1.706380	0.935985	0.831895
O25	O	1.224751	0.166389	0.081924
O26	O	1.474751	0.416389	0.331924
O27	O	1.724751	0.666389	0.581924
O28	O	1.974751	0.916389	0.831924
Zn29	Zn	1.090563	0.176185	0.107882
Zn30	Zn	1.340563	0.426185	0.357882
Zn31	Zn	1.590563	0.676185	0.607882
Zn32	Zn	1.840563	0.926185	0.857882
Zn33	Zn	1.090582	0.176199	-0.107646
Zn34	Zn	1.340582	0.426199	0.142354
Zn35	Zn	1.590582	0.676199	0.392354
Zn36	Zn	1.840582	0.926199	0.642354
O37	O	1.084442	0.360956	0.081908
O38	O	1.334442	0.610956	0.331908
O39	O	1.584442	0.860956	0.581908
O40	O	1.834442	1.110956	0.831908
C41	C	0.922022	0.185077	0.000100
C42	C	1.172022	0.435077	0.250100
C43	C	1.422022	0.685077	0.500100
C44	C	1.672022	0.935077	0.750100
C45	C	0.819626	0.182340	0.000088
C46	C	1.069626	0.432340	0.250088
C47	C	1.319626	0.682340	0.500088
C48	C	1.569626	0.932340	0.750088
C49	C	0.444676	0.172265	0.000133
C50	C	0.694676	0.422265	0.250133
C51	C	0.944676	0.672265	0.500133
C52	C	1.194676	0.922265	0.750133
C53	C	0.548999	0.175063	0.000120
C54	C	0.798999	0.425063	0.250120
C55	C	1.048999	0.675063	0.500120
C56	C	1.298999	0.925063	0.750120
C57	C	0.632148	0.177303	0.000110
C58	C	0.882148	0.427303	0.250110
C59	C	1.132148	0.677303	0.500110
C60	C	1.382148	0.927303	0.750110
C61	C	0.736477	0.180101	0.000099
C62	C	0.986477	0.430101	0.250099
C63	C	1.236477	0.680101	0.500099
C64	C	1.486477	0.930101	0.750099
C65	C	1.095777	-0.055870	0.000118
C66	C	1.345777	0.194130	0.250118
C67	C	1.595777	0.444130	0.500118
C68	C	1.845777	0.694130	0.750118
C69	C	1.093029	-0.196790	0.000113
C70	C	1.343029	0.053210	0.250113
C71	C	1.593029	0.303210	0.500113
C72	C	1.843029	0.553210	0.750113
C73	C	0.987750	-0.379142	-0.000266
C74	C	1.237750	-0.129142	0.249734
C75	C	1.487750	0.120858	0.499734
C76	C	1.737750	0.370858	0.749734
C77	C	0.990535	-0.232553	0.000102
C78	C	1.240535	0.017447	0.250102
C79	C	1.490535	0.267447	0.500102
C80	C	1.740535	0.517447	0.750102
C81	C	1.142346	-0.258957	0.093532
C82	C	1.392346	-0.008957	0.343532
C83	C	1.642346	0.241043	0.593532
C84	C	1.892346	0.491043	0.843532
C85	C	1.138848	-0.405466	0.093610
C86	C	1.388848	-0.155466	0.343610
C87	C	1.638848	0.094534	0.593610
C88	C	1.888848	0.344534	0.843610
C89	C	1.140949	-0.405994	-0.092414
C90	C	1.390949	-0.155994	0.157586
C91	C	1.640949	0.094006	0.407586
C92	C	1.890949	0.344006	0.657586
C93	C	1.141893	-0.259022	-0.093649
C94	C	1.391893	-0.009022	0.156351
C95	C	1.641893	0.240978	0.406351
C96	C	1.891893	0.490978	0.656351
C97	C	1.259123	0.167308	0.000135
C98	C	1.509123	0.417308	0.250135
C99	C	1.759123	0.667308	0.500135
C100	C	2.009123	0.917308	0.750135
C101	C	1.361519	0.170044	0.000140
C102	C	1.611519	0.420044	0.250140
C103	C	1.861519	0.670044	0.500140
C104	C	2.111519	0.920044	0.750140
C105	C	1.085368	0.408255	0.000116
C106	C	1.335368	0.658255	0.250116
C107	C	1.585368	0.908255	0.500116
C108	C	1.835368	1.158255	0.750116
C109	C	1.088115	0.549175	0.000115
C110	C	1.338115	0.799175	0.250115
C111	C	1.588115	1.049175	0.500115
C112	C	1.838115	1.299175	0.750115
N113	N	1.090557	0.176175	0.254974
N114	N	1.340557	0.426175	0.504974
N115	N	1.590557	0.676175	0.754974
N116	N	1.840557	0.926175	1.004974
N117	N	1.090595	0.176199	-0.254737
N118	N	1.340595	0.426199	-0.004737
N119	N	1.590595	0.676199	0.245263
N120	N	1.840595	0.926199	0.495263
C121	C	1.090580	0.176200	0.656265
C122	C	1.340580	0.426200	0.906265
C123	C	1.590580	0.676200	1.156265
C124	C	1.840580	0.926200	1.406265
C125	C	1.090571	0.176198	0.544613
C126	C	1.340571	0.426198	0.794613
C127	C	1.590571	0.676198	1.044613
C128	C	1.840571	0.926198	1.294613
C129	C	1.090569	0.176189	0.455623
C130	C	1.340569	0.426189	0.705623
C131	C	1.590569	0.676189	0.955623
C132	C	1.840569	0.926189	1.205623
C133	C	1.090559	0.176184	0.343964
C134	C	1.340559	0.426184	0.593964
C135	C	1.590559	0.676184	0.843964
C136	C	1.840559	0.926184	1.093964
H137	H	0.951729	-0.189549	-0.066865
H138	H	1.201729	0.060451	0.183135
H139	H	1.451729	0.310451	0.433135
H140	H	1.701729	0.560451	0.683135
H141	H	1.107782	-0.437204	-0.163219
H142	H	1.357782	-0.187204	0.086781
H143	H	1.607782	0.062796	0.336781
H144	H	1.857782	0.312796	0.586781
H145	H	0.947268	-0.407325	-0.067259
H146	H	1.197268	-0.157325	0.182741
H147	H	1.447268	0.092675	0.432741
H148	H	1.697268	0.342675	0.682741
H149	H	1.212560	-0.454188	0.097856
H150	H	1.462560	-0.204188	0.347856
H151	H	1.712560	0.045812	0.597856
H152	H	1.962560	0.295812	0.847856
H153	H	1.108076	-0.216013	0.163044
H154	H	1.358076	0.033987	0.413044
H155	H	1.608076	0.283987	0.663044
H156	H	1.858076	0.533987	0.913044
H157	H	0.951446	-0.190402	0.067172
H158	H	1.201446	0.059598	0.317172
H159	H	1.451446	0.309598	0.567172
H160	H	1.701446	0.559598	0.817172
H161	H	1.217615	-0.237372	0.097013
H162	H	1.467615	0.012628	0.347013
H163	H	1.717615	0.262628	0.597013
H164	H	1.967615	0.512628	0.847013
H165	H	1.214980	-0.453976	-0.093034
H166	H	1.464980	-0.203976	0.156966
H167	H	1.714980	0.046024	0.406966
H168	H	1.964980	0.296024	0.656966
H169	H	1.102389	-0.433298	0.163435
H170	H	1.352389	-0.183298	0.413435
H171	H	1.602389	0.066702	0.663435
H172	H	1.852389	0.316702	0.913435
H173	H	1.105808	-0.217791	-0.162758
H174	H	1.355808	0.032209	0.087242
H175	H	1.605808	0.282209	0.337242
H176	H	1.855808	0.532209	0.587242
H177	H	1.216619	-0.235563	-0.099282
H178	H	1.466619	0.014437	0.150718
H179	H	1.716619	0.264437	0.400718
H180	H	1.966619	0.514437	0.650718
H181	H	0.947421	-0.408942	0.066343
H182	H	1.197421	-0.158942	0.316343
H183	H	1.447421	0.091058	0.566343
H184	H	1.697421	0.341058	0.816343
