data_functionalizedCrystal
_audit_creation_method	'MofGen! by Chris Wilmer'
_symmetry_space_group_name_H-M	'P1'
_symmetry_Int_Tables_number	1
_symmetry_cell_setting	triclinic
loop_
_symmetry_equiv_pos_as_xyz
  x,y,z
_cell_length_a	16.120490
_cell_length_b	16.120444
_cell_length_c	12.759393
_cell_angle_alpha	87.135249
_cell_angle_beta	92.918609
_cell_angle_gamma	90.165174
loop_
_atom_site_label
_atom_site_type_symbol
_atom_site_fract_x
_atom_site_fract_y
_atom_site_fract_z
Zn1	Zn	1.254499	-0.395628	0.699339
Zn2	Zn	1.247332	-0.534700	0.532073
Zn3	Zn	1.115430	-0.388601	0.514348
Zn4	Zn	1.108349	-0.527574	0.698384
O5	O	1.181403	-0.461626	0.611036
O6	O	1.369914	-0.420000	0.684969
O7	O	1.229800	-0.515361	0.382701
O8	O	1.139841	-0.273170	0.531870
O9	O	1.364649	-0.522175	0.562079
O10	O	1.242014	-0.278333	0.667782
O11	O	1.132892	-0.408022	0.369679
O12	O	0.998125	-0.401112	0.530943
O13	O	1.127771	-0.510030	0.845531
O14	O	0.992922	-0.503216	0.666153
O15	O	1.235147	-0.413090	0.846233
O16	O	1.222933	-0.650117	0.561153
O17	O	1.120822	-0.644882	0.683340
C18	C	0.965351	-0.450629	0.596522
C19	C	0.872922	-0.445944	0.590339
C20	C	0.659954	-0.485919	0.643110
C21	C	0.703699	-0.437399	0.579049
C22	C	0.797863	-0.442155	0.585333
C23	C	0.565781	-0.481164	0.636828
C24	C	1.170354	-0.677672	0.624091
C25	C	1.165703	-0.770102	0.629716
C26	C	1.205731	-0.983081	0.582096
C27	C	1.157228	-0.939327	0.639998
C28	C	1.161945	-0.845162	0.634275
C29	C	1.201015	-1.077255	0.587817
C30	C	1.398298	-0.472666	0.625608
C31	C	1.490725	-0.477371	0.631817
C32	C	1.181469	-0.461549	0.885069
C33	C	1.181497	-0.461516	1.001845
C34	C	1.192517	-0.244737	0.597955
C35	C	1.197253	-0.152312	0.592381
C36	C	1.181387	-0.461645	0.338069
C37	C	1.181532	-0.461451	0.221290
C38	C	1.237412	-0.411032	1.057074
C39	C	1.237428	-0.410996	1.166797
C40	C	1.125611	-0.511938	1.166053
C41	C	1.125592	-0.511968	1.056332
H42	H	0.693221	-0.531027	0.702668
N43	N	1.262273	-0.941377	0.514514
N44	N	1.338534	-0.954817	0.527273
H45	H	1.378466	-0.925356	0.479541
H46	H	1.112159	-0.972590	0.693867
N47	N	1.294520	-0.359493	1.001433
N48	N	1.344439	-0.314420	1.050763
H49	H	1.384773	-0.278017	1.011470
N50	N	1.294546	-0.359418	1.223195
N51	N	1.344450	-0.314375	1.174529
H52	H	1.384791	-0.277943	1.214358
H53	H	1.080097	-0.553016	1.210429
N54	N	1.068461	-0.563539	0.999925
N55	N	1.018554	-0.608584	1.048583
H56	H	0.978204	-0.645002	1.008746
H57	H	0.670429	-0.392288	0.519486
