data_functionalizedCrystal
_audit_creation_method	'MofGen! by Chris Wilmer'
_symmetry_space_group_name_H-M	'P1'
_symmetry_Int_Tables_number	1
_symmetry_cell_setting	triclinic
loop_
_symmetry_equiv_pos_as_xyz
  x,y,z
_cell_length_a	13.262415
_cell_length_b	13.339070
_cell_length_c	11.804365
_cell_angle_alpha	105.124870
_cell_angle_beta	86.401984
_cell_angle_gamma	80.569776
loop_
_atom_site_label
_atom_site_type_symbol
_atom_site_fract_x
_atom_site_fract_y
_atom_site_fract_z
O1	O	0.487264	-1.397363	-0.256875
O2	O	0.421401	-1.098153	-0.235537
O3	O	0.310859	-1.245609	-0.199733
O4	O	0.597806	-1.249906	-0.292678
O5	O	0.339920	-1.206787	-0.011090
O6	O	0.450461	-1.059330	-0.046894
O7	O	0.516325	-1.358540	-0.068231
Cu8	Cu	0.486047	-1.205390	-0.040338
Cu9	Cu	0.451679	-1.251303	-0.263431
O10	O	0.626866	-1.211083	-0.104035
C11	C	0.424805	-1.040261	-0.137611
C12	C	0.391642	-0.925602	-0.126868
C13	C	0.287913	-1.222869	-0.093275
C14	C	0.176241	-1.212936	-0.057111
C15	C	0.512920	-1.416432	-0.166160
C16	C	0.546082	-1.531093	-0.176910
C17	C	-0.201894	-1.269592	-0.366494
C18	C	-0.096973	-1.278934	-0.400479
C19	C	-0.028664	-1.262435	-0.314640
C20	C	-0.065288	-1.236593	-0.194810
C21	C	-0.170218	-1.227259	-0.160823
C22	C	0.003012	-1.220101	-0.108968
C23	C	-0.033611	-1.194260	0.010861
C24	C	-0.138532	-1.184926	0.044843
C25	C	-0.206841	-1.201425	-0.040996
C26	C	0.107942	-1.229436	-0.142956
C27	C	0.139618	-1.187102	0.062716
C28	C	0.034697	-1.177761	0.096700
C29	C	0.649812	-1.233824	-0.210496
C30	C	0.761483	-1.243759	-0.246667
N31	N	0.510220	-1.173106	0.116573
C32	C	0.649500	-0.579143	-0.210410
C33	C	0.680661	-0.686872	-0.220508
C34	C	0.608409	-0.746560	-0.197099
C35	C	0.504990	-0.698508	-0.163590
C36	C	0.473825	-0.590770	-0.153500
C37	C	0.432734	-0.758187	-0.140188
C38	C	0.329315	-0.710135	-0.106680
C39	C	0.298155	-0.602408	-0.096590
C40	C	0.370407	-0.542720	-0.120000
C41	C	0.463899	-0.865924	-0.150279
C42	C	0.288224	-0.877551	-0.093368
C43	C	0.257063	-0.769822	-0.083270
N44	N	0.427500	-1.283595	-0.420340
C45	C	0.369431	-1.361121	0.536123
C46	C	0.351139	-1.385543	0.417386
C47	C	0.390907	-1.332435	0.342177
C48	C	0.448971	-1.254902	0.385716
C49	C	0.467272	-1.230484	0.504463
C50	C	0.488749	-1.201798	0.310517
C51	C	0.546813	-1.124265	0.354057
C52	C	0.565110	-1.099850	0.472792
C53	C	0.525341	-1.152958	0.548001
C54	C	0.470448	-1.226217	0.191771
C55	C	0.568289	-1.095580	0.160111
C56	C	0.586581	-1.071158	0.278848
H57	H	0.137750	-1.250476	-0.240522
H58	H	0.423172	-1.289344	0.156332
C59	C	0.214753	-1.168949	0.157146
N60	N	0.271351	-1.155278	0.228264
C61	C	0.325695	-1.419531	0.618857
N62	N	0.292749	-1.463530	0.681175
C63	C	0.143303	-0.716953	-0.046419
N64	N	0.057619	-0.677130	-0.018663
H65	H	0.633859	-1.008029	0.314313
H66	H	0.303865	-1.448670	0.381940
H67	H	0.548104	-0.905037	-0.177557
C68	C	-0.005603	-1.149338	0.228511
N69	N	-0.035958	-1.127930	0.327790
H70	H	0.540230	-1.133071	0.644688
H71	H	0.600675	-1.052336	0.098875
C72	C	0.628987	-1.014566	0.520680
N73	N	0.677098	-0.950328	0.556747
H74	H	0.376011	-1.352323	0.245496
C75	C	0.086738	-1.272617	-0.352024
N76	N	0.173657	-1.280250	-0.380185
C77	C	0.794419	-0.739718	-0.257351
N78	N	0.880110	-0.779521	-0.285097
H79	H	-0.067162	-1.299976	-0.498044
H80	H	-0.257518	-1.283031	-0.436372
H81	H	0.345041	-0.454998	-0.111779
H82	H	-0.292278	-1.193819	-0.013331
C83	C	0.642693	-0.865062	-0.208193
N84	N	0.668521	-0.954320	-0.216542
H85	H	-0.168345	-1.163898	0.142416
H86	H	0.708314	-0.530539	-0.229476
H87	H	0.213943	-0.563290	-0.069318
H88	H	0.229390	-0.926150	-0.074311
