data_functionalizedCrystal
_audit_creation_method	'MofGen! by Chris Wilmer'
_symmetry_space_group_name_H-M	'P1'
_symmetry_Int_Tables_number	1
_symmetry_cell_setting	triclinic
loop_
_symmetry_equiv_pos_as_xyz
  x,y,z
_cell_length_a	12.759401
_cell_length_b	12.759398
_cell_length_c	12.759393
_cell_angle_alpha	89.972056
_cell_angle_beta	90.018496
_cell_angle_gamma	89.969866
loop_
_atom_site_label
_atom_site_type_symbol
_atom_site_fract_x
_atom_site_fract_y
_atom_site_fract_z
Zn1	Zn	1.606144	0.418200	0.594008
Zn2	Zn	1.605991	0.593919	0.418339
Zn3	Zn	1.430446	0.418255	0.418347
Zn4	Zn	1.430388	0.593838	0.593980
O5	O	1.518242	0.506053	0.506169
O6	O	1.753145	0.441520	0.570713
O7	O	1.582665	0.570673	0.271319
O8	O	1.453841	0.271227	0.441664
O9	O	1.753033	0.570620	0.441650
O10	O	1.582925	0.271186	0.570721
O11	O	1.453693	0.441614	0.271325
O12	O	1.283417	0.441536	0.441637
O13	O	1.453742	0.570482	0.741005
O14	O	1.283374	0.570536	0.570674
O15	O	1.582869	0.441442	0.741025
O16	O	1.582609	0.740929	0.441623
O17	O	1.453594	0.740870	0.570666
C18	C	1.245275	0.506034	0.506154
C19	C	1.128498	0.506051	0.506173
C20	C	1.073641	0.573328	0.573252
C21	C	0.963917	0.573342	0.573263
C22	C	0.963917	0.438796	0.439108
C23	C	1.073639	0.438779	0.439103
C24	C	1.128501	0.640600	0.640322
C25	C	1.073644	0.707885	0.707405
C26	C	0.963920	0.707898	0.707416
C27	C	0.909053	0.640627	0.640344
C28	C	1.518107	0.779020	0.506164
C29	C	1.518145	0.895797	0.506197
C30	C	1.451054	1.060493	0.438986
C31	C	1.451012	0.950769	0.438963
C32	C	1.585317	0.950555	0.573466
C33	C	1.585353	1.060277	0.573494
C34	C	1.383924	1.115459	0.371739
C35	C	1.316750	1.060708	0.304471
C36	C	1.316708	0.950984	0.304448
C37	C	1.383840	0.896010	0.371693
C38	C	1.792275	0.506073	0.506183
C39	C	1.909052	0.506082	0.506190
C40	C	1.518316	0.505947	0.780202
C41	C	1.518347	0.505902	0.896979
C42	C	1.518343	1.232020	0.506206
C43	C	1.518223	1.115243	0.506248
C44	C	1.518229	0.506083	0.233201
C45	C	1.518402	0.505832	0.116425
C46	C	1.585593	0.438704	0.951853
C47	C	1.585618	0.438666	1.061577
C48	C	1.451148	0.573033	1.061543
C49	C	1.451119	0.573065	0.951821
C50	C	1.652821	0.371541	0.897011
C51	C	1.720074	0.304339	0.951885
C52	C	1.720099	0.304301	1.061609
C53	C	1.652871	0.371465	1.116459
H54	H	0.919235	0.384029	0.384501
H55	H	1.396345	0.627767	0.907141
C56	C	0.930198	0.759301	0.885237
C57	C	0.903621	0.781852	0.781155
H58	H	0.892978	0.804967	0.930757
H59	H	0.912243	0.688742	0.900729
H60	H	1.003399	0.768920	0.894814
H61	H	0.830422	0.772226	0.771576
H62	H	0.921569	0.852428	0.765657
C63	C	1.265678	1.094656	0.126529
C64	C	1.242956	1.121128	0.230561
H65	H	1.220113	1.131951	0.080903
H66	H	1.336274	1.112592	0.111225
H67	H	1.256039	1.021471	0.116904
H68	H	1.252603	1.194312	0.240188
H69	H	1.172343	1.103199	0.245870
C70	C	1.138821	0.917405	0.253097
C71	C	1.242870	0.890803	0.230512
H72	H	1.093239	0.880257	0.207442
H73	H	1.123402	0.899379	0.323659
H74	H	1.129253	0.990620	0.243488
H75	H	1.252439	0.817588	0.240128
H76	H	1.258294	0.908821	0.159932
H77	H	1.774851	0.249574	1.106285
H78	H	1.640036	1.104856	0.628277
H79	H	1.652811	0.371567	0.807668
C80	C	0.751874	0.713845	0.713454
C81	C	0.788442	0.640604	0.640393
H82	H	0.677416	0.713825	0.713486
H83	H	0.776765	0.695759	0.781259
H84	H	0.776631	0.781625	0.695152
H85	H	0.763691	0.572822	0.658700
H86	H	0.763540	0.658685	0.572573
C87	C	1.310649	0.738948	0.298441
C88	C	1.383788	0.775399	0.371675
H89	H	1.310624	0.664489	0.298426
H90	H	1.242862	0.763819	0.316559
H91	H	1.328873	0.763802	0.230666
H92	H	1.365560	0.750551	0.439451
H93	H	1.451590	0.750517	0.353562
H94	H	1.774801	0.249649	0.907219
C95	C	1.726124	0.298262	1.273657
C96	C	1.652903	0.371428	1.237070
H97	H	1.726151	0.298250	1.348115
H98	H	1.707985	0.230479	1.248854
H99	H	1.793900	0.316451	1.248825
H100	H	1.585126	0.353236	1.261896
H101	H	1.671036	0.439227	1.261884
H102	H	1.217844	0.640599	0.640318
H103	H	1.118324	0.762647	0.762018
H104	H	1.396415	0.627714	1.106211
H105	H	1.118304	0.383987	0.384490
C106	C	1.310858	1.272754	0.298543
C107	C	1.383964	1.236068	0.371767
H108	H	1.310883	1.347213	0.298567
H109	H	1.329065	1.247969	0.230766
H110	H	1.243043	1.247974	0.316649
H111	H	1.451781	1.260842	0.353656
H112	H	1.365764	1.260864	0.439558
H113	H	1.639974	0.905788	0.628214
