data_functionalizedCrystal
_audit_creation_method	'MofGen! by Chris Wilmer'
_symmetry_space_group_name_H-M	'P1'
_symmetry_Int_Tables_number	1
_symmetry_cell_setting	triclinic
loop_
_symmetry_equiv_pos_as_xyz
  x,y,z
_cell_length_a	12.811445
_cell_length_b	12.811415
_cell_length_c	16.776229
_cell_angle_alpha	84.562504
_cell_angle_beta	84.561450
_cell_angle_gamma	83.528277
loop_
_atom_site_label
_atom_site_type_symbol
_atom_site_fract_x
_atom_site_fract_y
_atom_site_fract_z
O1	O	1.393302	0.141416	-0.177223
O2	O	1.893302	0.641416	0.322777
O3	O	1.087784	0.156780	-0.156251
O4	O	1.587784	0.656780	0.343749
O5	O	1.248228	-0.003661	-0.156247
O6	O	1.748228	0.496339	0.343753
O7	O	1.232858	0.301857	-0.177228
O8	O	1.732858	0.801857	0.322772
O9	O	1.248207	-0.003671	-0.023668
O10	O	1.748207	0.496329	0.476332
O11	O	1.087763	0.156770	-0.023672
O12	O	1.587763	0.656770	0.476328
O13	O	1.393281	0.141406	-0.044645
O14	O	1.893281	0.641406	0.455355
Zn15	Zn	1.240518	0.149086	-0.013109
Zn16	Zn	1.740518	0.649086	0.486891
Zn17	Zn	1.240547	0.149100	-0.187787
Zn18	Zn	1.740547	0.649100	0.312213
O19	O	1.232837	0.301847	-0.044649
O20	O	1.732837	0.801847	0.455351
C21	C	1.048665	0.155913	-0.087073
C22	C	1.548665	0.655913	0.412927
C23	C	0.932136	0.153330	-0.078463
C24	C	1.432136	0.653330	0.421537
C25	C	0.713183	0.148508	-0.206839
C26	C	1.213183	0.648508	0.293161
C27	C	0.603693	0.146082	-0.198753
C28	C	1.103693	0.646082	0.301247
C29	C	0.603663	0.146059	-0.054207
C30	C	1.103663	0.646059	0.445793
C31	C	0.713153	0.148485	-0.062293
C32	C	1.213153	0.648485	0.437707
C33	C	0.767909	0.149708	-0.138611
C34	C	1.267909	0.649708	0.361389
C35	C	0.877402	0.152127	-0.146696
C36	C	1.377402	0.652127	0.353304
C37	C	0.877369	0.152112	-0.002151
C38	C	1.377369	0.652112	0.497849
C39	C	0.767879	0.149686	0.005935
C40	C	1.267879	0.649686	0.505935
C41	C	1.247356	-0.042774	-0.087069
C42	C	1.747356	0.457226	0.412931
C43	C	1.244775	-0.159304	-0.078461
C44	C	1.744775	0.340696	0.421539
C45	C	1.239931	-0.378254	-0.206838
C46	C	1.739931	0.121746	0.293162
C47	C	1.237506	-0.487744	-0.198754
C48	C	1.737506	0.012256	0.301246
C49	C	1.237494	-0.487776	-0.054209
C50	C	1.737494	0.012224	0.445791
C51	C	1.239919	-0.378286	-0.062293
C52	C	1.739919	0.121714	0.437707
C53	C	1.241139	-0.323529	-0.138610
C54	C	1.741139	0.176471	0.361390
C55	C	1.243571	-0.214038	-0.146694
C56	C	1.743571	0.285962	0.353306
C57	C	1.243551	-0.214070	-0.002149
C58	C	1.743551	0.285930	0.497851
C59	C	1.241126	-0.323561	0.005935
C60	C	1.741126	0.176439	0.505935
C61	C	1.432400	0.142273	-0.113825
C62	C	1.932400	0.642273	0.386175
C63	C	1.548929	0.144856	-0.122439
C64	C	2.048929	0.644856	0.377561
C65	C	1.233709	0.340961	-0.113829
C66	C	1.733709	0.840961	0.386171
C67	C	1.236290	0.457491	-0.122442
C68	C	1.736290	0.957491	0.377558
N69	N	1.240507	0.149077	0.106104
N70	N	1.740507	0.649077	0.606104
N71	N	1.240566	0.149101	-0.307000
N72	N	1.740566	0.649101	0.193000
C73	C	1.311573	0.078063	0.147819
C74	C	1.811573	0.578063	0.647819
C75	C	1.311579	0.078062	0.231271
C76	C	1.811579	0.578062	0.731271
C77	C	1.240523	0.149081	0.273005
C78	C	1.740523	0.649081	0.773005
C79	C	1.169448	0.220099	0.231284
C80	C	1.669448	0.720099	0.731284
C81	C	1.169438	0.220094	0.147835
C82	C	1.669438	0.720094	0.647835
C83	C	1.169486	0.220119	0.567827
C84	C	1.669486	0.720119	1.067827
C85	C	1.169504	0.220121	0.651282
C86	C	1.669504	0.720121	1.151282
C87	C	1.311627	0.078088	0.651264
C88	C	1.811627	0.578088	1.151264
C89	C	1.311617	0.078083	0.567814
C90	C	1.811617	0.578083	1.067814
C91	C	1.240540	0.149096	0.526101
C92	C	1.740540	0.649096	1.026101
C93	C	1.240533	0.149095	0.435613
C94	C	1.740533	0.649095	0.935613
C95	C	1.240534	0.149088	0.363491
C96	C	1.740534	0.649088	0.863491
H97	H	0.921939	0.153087	0.053405
H98	H	1.421939	0.653087	0.553405
Br99	Br	1.072980	0.316467	0.091222
Br100	Br	1.572980	0.816467	0.591222
H101	H	0.757767	0.149499	-0.268980
H102	H	1.257767	0.649499	0.231020
Br103	Br	0.693557	0.148034	0.109504
Br104	Br	1.193557	0.648034	0.609504
Br105	Br	1.245206	-0.139797	0.090451
Br106	Br	1.745206	0.360203	0.590451
Br107	Br	1.245233	-0.139726	-0.250266
Br108	Br	1.745233	0.360274	0.249734
H109	H	0.921983	0.153122	-0.208838
H110	H	1.421983	0.653122	0.291162
Br111	Br	1.408024	-0.018319	0.287888
Br112	Br	1.908024	0.481681	0.787888
H113	H	1.369499	0.020261	0.685236
H114	H	1.869499	0.520261	1.185236
Br115	Br	1.235860	-0.562011	-0.291353
Br116	Br	1.735860	-0.062011	0.208647
Br117	Br	1.073030	0.316493	0.511221
Br118	Br	1.573030	0.816493	1.011221
Br119	Br	1.239458	-0.397881	0.109504
Br120	Br	1.739458	0.102119	0.609504
Br121	Br	1.241608	-0.303939	-0.310409
Br122	Br	1.741608	0.196061	0.189591
Br123	Br	0.529422	0.144461	-0.291352
Br124	Br	1.029422	0.644461	0.208648
H125	H	1.236492	-0.532377	0.007926
H126	H	1.736492	-0.032377	0.507926
Br127	Br	0.529330	0.144424	0.049358
Br128	Br	1.029330	0.644424	0.549358
H129	H	1.369440	0.020235	0.113844
H130	H	1.869440	0.520235	0.613844
Br131	Br	1.408059	-0.018297	0.511177
Br132	Br	1.908059	0.481703	1.011177
H133	H	1.111637	0.277955	0.685261
H134	H	1.611637	0.777955	1.185261
H135	H	1.111588	0.277920	0.265270
H136	H	1.611588	0.777920	0.765270
