data_functionalizedCrystal
_audit_creation_method	'MofGen! by Chris Wilmer'
_symmetry_space_group_name_H-M	'P1'
_symmetry_Int_Tables_number	1
_symmetry_cell_setting	triclinic
loop_
_symmetry_equiv_pos_as_xyz
  x,y,z
_cell_length_a	16.109301
_cell_length_b	15.538191
_cell_length_c	15.186229
_cell_angle_alpha	89.999546
_cell_angle_beta	89.999362
_cell_angle_gamma	65.366787
loop_
_atom_site_label
_atom_site_type_symbol
_atom_site_fract_x
_atom_site_fract_y
_atom_site_fract_z
O1	O	1.066616	0.121093	-0.073166
O2	O	0.820010	0.136163	-0.073179
O3	O	0.991317	-0.008516	-0.073174
O4	O	0.895309	0.265773	-0.073171
O5	O	0.991309	-0.008518	0.073283
O6	O	0.820002	0.136161	0.073278
O7	O	1.066608	0.121091	0.073291
Zn8	Zn	0.943304	0.128626	0.096538
Zn9	Zn	0.943314	0.128629	-0.096426
O10	O	0.895301	0.265771	0.073286
C11	C	0.789215	0.135552	0.000048
C12	C	0.697472	0.133722	0.000042
C13	C	0.450596	0.215316	0.000053
C14	C	0.364396	0.213589	0.000059
C15	C	0.436032	0.041932	0.000053
C16	C	0.522229	0.043660	0.000054
C17	C	0.529508	0.130355	0.000050
C18	C	0.357111	0.126900	0.000055
C19	C	0.263649	0.125027	0.000061
C20	C	0.622975	0.132228	0.000045
C21	C	1.001358	-0.043615	0.000052
C22	C	1.031279	-0.148198	0.000045
C23	C	0.734025	-0.435898	0.000048
C24	C	0.762161	-0.534172	0.000051
C25	C	0.920419	-0.556664	0.000059
C26	C	0.892297	-0.458389	0.000052
C27	C	0.799099	-0.398013	0.000047
C28	C	0.957370	-0.420505	0.000051
C29	C	0.929249	-0.322239	0.000047
C30	C	0.836055	-0.261857	0.000045
C31	C	0.770978	-0.299747	0.000044
C32	C	1.050568	-0.480882	0.000062
C33	C	1.115641	-0.442998	0.000061
C34	C	1.087520	-0.344730	0.000051
C35	C	0.994326	-0.284349	0.000049
C36	C	1.152598	-0.306840	0.000053
C37	C	1.124477	-0.208574	0.000050
C38	C	0.966206	-0.186083	0.000046
C39	C	1.097403	0.121703	0.000062
C40	C	1.189147	0.123533	0.000062
C41	C	0.885260	0.300870	0.000058
C42	C	0.855340	0.405453	0.000059
N43	N	0.943303	0.128624	0.228231
N44	N	0.943324	0.128624	-0.228119
C45	C	1.019171	0.064581	0.453956
C46	C	1.019174	0.064579	0.546145
C47	C	0.867450	0.192669	0.546150
C48	C	0.867445	0.192666	0.453962
C49	C	0.943310	0.128623	0.407867
C50	C	0.943318	0.128624	0.592245
C51	C	0.943321	0.128622	0.692201
C52	C	0.943306	0.128624	0.307905
H53	H	0.890314	-0.136921	0.000035
H54	H	0.586487	-0.025530	0.000054
C55	C	0.458607	0.310673	0.000056
H56	H	0.521244	0.299537	0.000047
H57	H	0.429764	0.345652	0.051130
H58	H	0.429762	0.345655	-0.051022
C59	C	1.255109	-0.373255	0.000064
H60	H	1.289838	-0.336618	0.000068
H61	H	1.269374	-0.412065	-0.051004
H62	H	1.269361	-0.412047	0.051149
H63	H	0.996301	-0.605834	0.000067
C64	C	0.690574	-0.575841	0.000040
H65	H	0.631044	-0.525807	0.000028
H66	H	0.698247	-0.613709	0.051110
H67	H	0.698261	-0.613704	-0.051042
C68	C	0.783999	0.263120	0.403257
H69	H	0.794861	0.253940	0.341752
H70	H	0.774055	0.325999	0.418362
H71	H	0.731604	0.252871	0.418367
C72	C	1.081505	-0.588974	0.000068
H73	H	1.146329	-0.619505	0.000083
H74	H	1.058649	-0.607057	-0.051006
H75	H	1.058635	-0.607045	0.051146
C76	C	1.218152	-0.509415	0.000061
H77	H	1.225581	-0.573365	0.000058
H78	H	1.246061	-0.497930	0.051131
H79	H	1.246054	-0.497932	-0.051021
C80	C	0.428019	-0.053424	0.000047
H81	H	0.365381	-0.042286	0.000038
H82	H	0.456862	-0.088412	0.051117
H83	H	0.456862	-0.088398	-0.051035
H84	H	0.300146	0.282773	0.000064
C85	C	0.783991	0.263091	0.596853
H86	H	0.738802	0.301218	0.556198
H87	H	0.802033	0.302330	0.632825
H88	H	0.759634	0.229158	0.632805
H89	H	1.177466	-0.177729	0.000050
H90	H	0.813161	-0.181843	0.000048
C91	C	0.668461	-0.233328	0.000030
H92	H	0.633729	-0.269962	0.000032
H93	H	0.654211	-0.194529	-0.051044
H94	H	0.654198	-0.194527	0.051109
C95	C	1.102623	-0.005863	0.596839
H96	H	1.147804	-0.043998	0.556180
H97	H	1.084562	-0.045093	0.632805
H98	H	1.127000	0.028046	0.632797
C99	C	1.102613	-0.005871	0.403254
H100	H	1.147789	-0.044018	0.443910
H101	H	1.126991	0.028024	0.367286
H102	H	1.084536	-0.045101	0.367298
C103	C	0.631509	-0.369478	0.000034
H104	H	0.596776	-0.406112	0.000037
H105	H	0.617259	-0.330679	-0.051039
H106	H	0.617245	-0.330677	0.051113
