data_functionalizedCrystal
_audit_creation_method	'MofGen! by Chris Wilmer'
_symmetry_space_group_name_H-M	'P1'
_symmetry_Int_Tables_number	1
_symmetry_cell_setting	triclinic
loop_
_symmetry_equiv_pos_as_xyz
  x,y,z
_cell_length_a	12.759401
_cell_length_b	19.805405
_cell_length_c	12.759393
_cell_angle_alpha	89.965059
_cell_angle_beta	89.980387
_cell_angle_gamma	90.026957
loop_
_atom_site_label
_atom_site_type_symbol
_atom_site_fract_x
_atom_site_fract_y
_atom_site_fract_z
Zn1	Zn	1.606168	-0.269419	-0.593988
Zn2	Zn	1.606025	-0.382624	-0.418298
Zn3	Zn	1.430470	-0.269455	-0.418324
Zn4	Zn	1.430421	-0.382572	-0.593936
O5	O	1.518271	-0.326017	-0.506136
O6	O	1.753170	-0.284443	-0.570693
O7	O	1.582698	-0.367648	-0.271280
O8	O	1.453856	-0.174733	-0.441659
O9	O	1.753065	-0.367614	-0.441614
O10	O	1.582941	-0.174707	-0.570719
O11	O	1.453718	-0.284503	-0.271299
O12	O	1.283442	-0.284453	-0.441608
O13	O	1.453774	-0.367525	-0.740964
O14	O	1.283407	-0.367560	-0.570630
O15	O	1.582894	-0.284392	-0.741002
O16	O	1.582651	-0.477334	-0.441564
O17	O	1.453636	-0.477295	-0.570604
C18	C	1.245304	-0.326005	-0.506117
C19	C	1.128527	-0.326016	-0.506133
C20	C	1.073614	-0.369254	-0.438830
C21	C	0.963890	-0.369266	-0.438848
C22	C	0.964001	-0.282796	-0.573476
C23	C	1.073723	-0.282788	-0.573462
C24	C	1.073549	-0.419175	-0.361101
C25	C	0.963825	-0.419186	-0.361119
C26	C	1.518151	-0.501873	-0.506098
C27	C	1.518196	-0.577105	-0.506117
C28	C	1.585371	-0.612378	-0.573371
C29	C	1.585409	-0.683066	-0.573391
C30	C	1.518276	-0.718481	-0.506150
C31	C	1.451094	-0.683204	-0.438893
C32	C	1.451052	-0.612517	-0.438880
C33	C	1.451263	-0.968277	-0.438947
C34	C	1.451313	-1.038969	-0.438964
C35	C	1.585620	-1.038827	-0.573458
C36	C	1.585577	-0.968139	-0.573445
C37	C	1.518392	-0.932868	-0.506192
C38	C	1.518350	-0.856220	-0.506173
C39	C	1.518323	-0.795128	-0.506163
C40	C	1.792304	-0.326030	-0.506157
C41	C	1.909081	-0.326036	-0.506165
C42	C	1.518344	-0.325949	-0.780170
C43	C	1.518376	-0.325920	-0.896947
C44	C	1.518420	-0.149475	-0.506198
C45	C	1.518483	-0.074243	-0.506224
C46	C	1.585618	-0.282629	-0.951830
C47	C	1.585643	-0.282604	-1.061554
C48	C	1.451181	-0.369168	-1.061501
C49	C	1.451151	-0.369189	-0.951779
C50	C	1.663252	-0.232653	-0.951862
C51	C	1.663277	-0.232629	-1.061586
C52	C	1.518258	-0.326037	-0.233169
C53	C	1.518430	-0.325875	-0.116393
H54	H	0.919367	-0.247602	-0.628293
N55	N	0.924309	-0.400503	-0.253408
H56	H	0.950625	-0.434439	-0.200495
H57	H	0.950684	-0.354032	-0.234271
N58	N	1.378611	-0.574466	-0.366335
H59	H	1.329882	-0.545145	-0.408984
H60	H	1.336160	-0.607666	-0.323750
H61	H	1.103305	-0.471611	-0.382742
H62	H	1.744643	-0.246668	-1.091365
H63	H	1.107556	-0.400335	-0.283856
N64	N	1.657845	-0.721131	-0.645919
H65	H	1.615118	-0.750454	-0.694563
H66	H	1.700369	-0.687944	-0.688457
H67	H	1.640322	-1.067553	-0.628222
H68	H	0.929781	-0.469010	-0.390126
N69	N	1.657784	-0.574183	-0.645890
H70	H	1.700342	-0.607257	-0.688499
H71	H	1.614974	-0.544854	-0.694467
N72	N	1.378904	-1.077169	-0.366435
H73	H	1.336334	-1.044099	-0.323830
H74	H	1.330286	-1.106507	-0.409169
H75	H	1.640246	-0.939307	-0.628194
N76	N	1.378813	-0.930240	-0.366404
H77	H	1.336300	-0.963403	-0.323806
H78	H	1.421593	-0.900912	-0.317818
H79	H	1.118429	-0.247587	-0.628278
H80	H	1.396430	-0.712044	-0.384149
N81	N	1.378587	-0.415855	-0.892581
H82	H	1.336000	-0.443256	-0.943969
H83	H	1.421278	-0.447200	-0.847027
H84	H	1.641500	-0.180235	-0.922110
N85	N	1.378663	-0.415826	-1.120643
H86	H	1.388878	-0.409241	-1.198480
H87	H	1.394954	-0.464174	-1.101452
H88	H	1.740517	-0.251445	-0.917826
N89	N	1.624741	-0.166660	-1.106705
H90	H	1.606106	-0.134801	-1.047803
H91	H	1.681662	-0.145863	-1.151299
