data_functionalizedCrystal
_audit_creation_method	'MofGen! by Chris Wilmer'
_symmetry_space_group_name_H-M	'P1'
_symmetry_Int_Tables_number	1
_symmetry_cell_setting	triclinic
loop_
_symmetry_equiv_pos_as_xyz
  x,y,z
_cell_length_a	10.654550
_cell_length_b	15.944551
_cell_length_c	9.130313
_cell_angle_alpha	89.997799
_cell_angle_beta	89.996220
_cell_angle_gamma	83.991820
loop_
_atom_site_label
_atom_site_type_symbol
_atom_site_fract_x
_atom_site_fract_y
_atom_site_fract_z
O1	O	1.666308	0.117973	-0.121923
O2	O	1.300684	0.129213	-0.121900
O3	O	1.493480	0.001376	-0.121899
O4	O	1.473511	0.245810	-0.121924
O5	O	1.493478	0.001379	0.121700
O6	O	1.300681	0.129216	0.121699
O7	O	1.666305	0.117976	0.121676
Cu8	Cu	1.483493	0.123596	0.143930
Cu9	Cu	1.483496	0.123592	-0.144154
O10	O	1.473509	0.245813	0.121675
C11	C	1.253895	0.128389	-0.000098
C12	C	1.114484	0.125920	-0.000088
C13	C	1.034024	0.201188	-0.000117
C14	C	0.903034	0.198863	-0.000142
C15	C	0.932975	0.045995	-0.000116
C16	C	1.063963	0.048321	-0.000080
C17	C	1.016737	0.289446	-0.000139
C18	C	0.885746	0.287121	-0.000164
C19	C	1.492650	-0.029921	-0.000099
C20	C	1.490165	-0.123182	-0.000098
C21	C	1.364720	-0.338765	-0.000111
C22	C	1.422971	-0.399443	0.119995
C23	C	1.485668	-0.293934	-0.000109
C24	C	1.423002	-0.399430	-0.120175
C25	C	1.481317	-0.458872	-0.000126
C26	C	1.543953	-0.353384	0.120095
C27	C	1.543967	-0.353364	-0.120182
C28	C	1.602306	-0.414024	-0.000048
C29	C	1.488172	-0.198917	-0.000098
C30	C	1.478822	-0.553887	-0.000127
C31	C	1.713094	0.118800	-0.000130
C32	C	1.852505	0.121269	-0.000149
C33	C	1.474339	0.277110	-0.000128
C34	C	1.476824	0.370371	-0.000139
N35	N	1.483500	0.123599	0.346552
N36	N	1.483499	0.123583	-0.346777
C37	C	1.568892	0.067012	0.423205
C38	C	1.568889	0.067002	0.576542
C39	C	1.398098	0.180173	0.576560
C40	C	1.398096	0.180178	0.423226
C41	C	1.667501	0.001676	0.423195
C42	C	1.667498	0.001666	0.576532
H43	H	1.052030	0.317547	-0.105314
H44	H	1.763823	0.016057	0.618141
C45	C	1.549448	-0.348771	-0.382922
C46	C	1.612966	-0.325780	-0.257268
H47	H	1.592036	-0.331734	-0.467559
H48	H	1.547712	-0.408203	-0.384395
H49	H	1.465523	-0.321956	-0.382038
H50	H	1.696889	-0.352600	-0.258146
H51	H	1.614716	-0.266337	-0.255796
C52	C	1.324332	0.325123	0.623780
C53	C	1.304224	0.242366	0.660838
H54	H	1.266369	0.363517	0.675802
H55	H	1.408126	0.334764	0.648920
H56	H	1.312114	0.333214	0.521486
H57	H	1.316450	0.234272	0.763132
H58	H	1.220409	0.232721	0.635709
H59	H	1.045620	0.323965	0.101809
C60	C	0.873469	0.275923	0.261577
C61	C	0.823625	0.323126	0.141807
H62	H	0.835124	0.298153	0.349224
H63	H	0.857099	0.218854	0.250345
H64	H	0.961986	0.278762	0.266400
H65	H	0.735109	0.320282	0.136977
H66	H	0.839985	0.380210	0.153041
C67	C	1.278050	-0.015991	0.000000
C68	C	1.152408	-0.034416	-0.000035
H69	H	1.332650	-0.067072	0.000037
H70	H	1.293383	0.015782	-0.084946
H71	H	1.293331	0.015802	0.084951
H72	H	1.137125	-0.066204	-0.084991
H73	H	1.137069	-0.066202	0.084921
C74	C	0.745473	-0.025449	-0.000158
C75	C	0.877437	-0.039300	-0.000121
H76	H	0.711191	-0.078108	-0.000172
H77	H	0.717844	0.005570	0.084777
H78	H	0.717887	0.005575	-0.085120
H79	H	0.905023	-0.070318	0.084847
H80	H	0.905077	-0.070332	-0.085065
C81	C	0.925306	0.361552	-0.221253
C82	C	0.828817	0.332008	-0.137796
H83	H	0.890159	0.389258	-0.306218
H84	H	0.967296	0.400059	-0.164609
H85	H	0.983893	0.315369	-0.249550
H86	H	0.770235	0.378192	-0.109489
H87	H	0.786807	0.293497	-0.194451
C88	C	1.416068	-0.402623	0.382776
C89	C	1.353918	-0.426995	0.257076
H90	H	1.373426	-0.419627	0.467397
H91	H	1.500444	-0.428636	0.382892
H92	H	1.416463	-0.343074	0.383295
H93	H	1.353530	-0.486545	0.256551
H94	H	1.269519	-0.400985	0.256960
C95	C	1.229545	-0.388585	-0.256996
C96	C	1.353926	-0.426945	-0.257252
H97	H	1.186900	-0.405566	-0.341623
H98	H	1.187408	-0.405133	-0.171717
H99	H	1.229975	-0.329038	-0.257500
H100	H	1.353496	-0.486492	-0.256738
H101	H	1.396074	-0.410403	-0.342554
H102	H	1.264327	-0.306038	0.000016
C103	C	1.717702	-0.285594	0.214988
C104	C	1.612949	-0.326002	0.257326
H105	H	1.760287	-0.268685	0.299710
H106	H	1.773440	-0.323310	0.158858
H107	H	1.690417	-0.237375	0.157701
H108	H	1.640235	-0.374225	0.314604
H109	H	1.557201	-0.288284	0.313480
C110	C	1.801719	-0.433662	-0.124553
C111	C	1.737963	-0.457981	0.000030
H112	H	1.885474	-0.460789	-0.124492
H113	H	1.758975	-0.449442	-0.209912
H114	H	1.803965	-0.374262	-0.123730
H115	H	1.735710	-0.517381	-0.000799
H116	H	1.780719	-0.442207	0.085411
C117	C	1.622785	-0.138336	0.486293
C118	C	1.639671	-0.085473	0.367006
H119	H	1.605595	-0.192135	0.451600
H120	H	1.697314	-0.144269	0.544075
H121	H	1.553976	-0.114461	0.544090
H122	H	1.708485	-0.109346	0.309214
H123	H	1.565133	-0.079544	0.309200
C124	C	1.805354	0.111154	0.406409
C125	C	1.790241	0.029301	0.359001
H126	H	1.881133	0.128210	0.366793
H127	H	1.735693	0.148688	0.374271
H128	H	1.809506	0.112071	0.510319
H129	H	1.786079	0.028384	0.255091
H130	H	1.859920	-0.008243	0.391131
H131	H	1.328553	0.226248	0.360817
H132	H	1.637774	-0.059344	0.624087
