data_functionalizedCrystal
_audit_creation_method	'MofGen! by Chris Wilmer'
_symmetry_space_group_name_H-M	'P1'
_symmetry_Int_Tables_number	1
_symmetry_cell_setting	triclinic
loop_
_symmetry_equiv_pos_as_xyz
  x,y,z
_cell_length_a	9.065218
_cell_length_b	15.995350
_cell_length_c	8.140239
_cell_angle_alpha	89.998714
_cell_angle_beta	89.997198
_cell_angle_gamma	84.254130
loop_
_atom_site_label
_atom_site_type_symbol
_atom_site_fract_x
_atom_site_fract_y
_atom_site_fract_z
O1	O	1.957507	0.122770	-0.136609
O2	O	1.527985	0.132840	-0.136610
O3	O	1.754487	0.006007	-0.136608
O4	O	1.731005	0.249604	-0.136611
O5	O	1.754475	0.006005	0.136619
O6	O	1.527973	0.132839	0.136617
O7	O	1.957495	0.122769	0.136619
Zn8	Zn	1.742732	0.127803	0.179998
Zn9	Zn	1.742748	0.127806	-0.179990
O10	O	1.730992	0.249602	0.136616
C11	C	1.473015	0.131872	0.000003
C12	C	1.309240	0.128978	0.000002
C13	C	1.753510	-0.025196	0.000003
C14	C	1.750600	-0.118169	-0.000007
C15	C	1.740148	-0.455995	-0.000001
C16	C	1.578837	-0.409785	-0.000615
C17	C	1.581748	-0.313072	0.000001
C18	C	1.745332	-0.288396	-0.000005
C19	C	1.824889	-0.328871	0.156019
C20	C	1.820837	-0.425537	0.156149
C21	C	1.824183	-0.425868	-0.154561
C22	C	1.824145	-0.328923	-0.156623
C23	C	1.748271	-0.193676	-0.000001
C24	C	1.737214	-0.550716	0.000006
C25	C	2.012465	0.123737	0.000002
C26	C	2.176239	0.126631	-0.000008
C27	C	1.731969	0.280805	0.000002
C28	C	1.734880	0.373778	0.000001
N29	N	1.742731	0.127802	0.425681
N30	N	1.742760	0.127801	-0.425673
H31	H	1.519210	-0.285124	-0.111842
O32	O	1.501724	-0.432353	-0.134040
C33	C	1.357742	-0.389899	-0.130911
H34	H	1.357823	-0.330554	-0.053378
H35	H	1.321420	-0.372174	-0.261469
H36	H	1.277555	-0.432638	-0.075358
H37	H	1.939269	-0.456887	0.163224
O38	O	1.754996	-0.296989	-0.294497
C39	C	1.826708	-0.333794	-0.434317
H40	H	1.888741	-0.396797	-0.399301
H41	H	1.740777	-0.343947	-0.532672
H42	H	1.908591	-0.290401	-0.484038
O43	O	1.968315	-0.311041	0.163166
C44	C	2.036365	-0.348285	0.304627
H45	H	1.974160	-0.403257	0.345215
H46	H	2.156346	-0.371936	0.275577
H47	H	2.033619	-0.299779	0.407477
O48	O	1.966453	-0.309474	-0.167589
C49	C	1.997997	-0.258515	-0.033298
H50	H	1.918973	-0.268793	0.072081
H51	H	2.117123	-0.275862	0.008614
H52	H	1.983405	-0.189684	-0.071997
O53	O	1.966133	-0.462582	-0.156045
C54	C	2.040433	-0.435138	-0.295162
H55	H	1.983015	-0.372368	-0.338631
H56	H	2.160383	-0.427271	-0.261749
H57	H	2.037985	-0.483581	-0.397599
O58	O	1.758746	-0.295462	0.294382
C59	C	1.640632	-0.235476	0.250684
H60	H	1.601336	-0.249135	0.121298
H61	H	1.545241	-0.238825	0.340936
H62	H	1.679808	-0.169963	0.254483
O63	O	1.751361	-0.447843	0.295165
C64	C	1.605727	-0.407597	0.298512
H65	H	1.568679	-0.390142	0.168065
H66	H	1.527925	-0.451842	0.353646
H67	H	1.602810	-0.348266	0.376531
H68	H	1.771448	-0.446807	-0.272818
O69	O	1.506434	-0.280341	0.133485
C70	C	1.386697	-0.223420	0.081565
H71	H	1.355303	-0.238946	-0.049755
H72	H	1.287649	-0.228620	0.165926
H73	H	1.420314	-0.156668	0.086539
O74	O	1.502341	-0.433881	0.132071
C75	C	1.494396	-0.521415	0.126349
H76	H	1.589125	-0.551986	0.047964
H77	H	1.503693	-0.548200	0.256137
H78	H	1.383947	-0.534842	0.070324
