data_functionalizedCrystal
_audit_creation_method	'MofGen! by Chris Wilmer'
_symmetry_space_group_name_H-M	'P1'
_symmetry_Int_Tables_number	1
_symmetry_cell_setting	triclinic
loop_
_symmetry_equiv_pos_as_xyz
  x,y,z
_cell_length_a	23.532407
_cell_length_b	23.532407
_cell_length_c	22.010155
_cell_angle_alpha	89.999577
_cell_angle_beta	89.996931
_cell_angle_gamma	82.848678
loop_
_atom_site_label
_atom_site_type_symbol
_atom_site_fract_x
_atom_site_fract_y
_atom_site_fract_z
O1	O	0.755264	0.069127	-0.050455
O2	O	1.255264	0.569127	0.449545
O3	O	0.589400	0.079130	-0.050474
O4	O	1.089400	0.579130	0.449526
O5	O	0.677334	-0.008803	-0.050453
O6	O	1.177334	0.491197	0.449547
O7	O	0.667330	0.157060	-0.050476
O8	O	1.167330	0.657060	0.449524
O9	O	0.677318	-0.008790	0.050597
O10	O	1.177318	0.491210	0.550597
O11	O	0.589384	0.079143	0.050576
O12	O	1.089384	0.579143	0.550576
O13	O	0.755248	0.069140	0.050595
O14	O	1.255248	0.569140	0.550595
Cu15	Cu	0.672315	0.074143	0.059812
Cu16	Cu	1.172315	0.574143	0.559812
Cu17	Cu	0.672333	0.074127	-0.059691
Cu18	Cu	1.172333	0.574127	0.440309
O19	O	0.667314	0.157073	0.050574
O20	O	1.167314	0.657073	0.550574
C21	C	0.568176	0.078882	0.000049
C22	C	1.068176	0.578882	0.500049
C23	C	0.504959	0.078116	0.000042
C24	C	1.004959	0.578116	0.500042
C25	C	0.105856	0.125350	0.000063
C26	C	0.605856	0.625350	0.500063
C27	C	0.046456	0.124638	0.000067
C28	C	0.546456	0.624638	0.500067
O29	O	0.009711	0.168424	0.000083
O30	O	0.509711	0.668424	0.500083
N31	N	0.023830	0.072362	0.000073
N32	N	0.523830	0.572362	0.500073
C33	C	0.060607	0.020794	0.000082
C34	C	0.560607	0.520794	0.500082
O35	O	0.035908	-0.023737	0.000088
O36	O	0.535908	0.476263	0.500088
C37	C	0.120006	0.021506	0.000082
C38	C	0.620006	0.521506	0.500082
C39	C	0.142629	0.073785	0.000070
C40	C	0.642629	0.573785	0.500070
C41	C	0.128479	0.177625	0.000051
C42	C	0.628479	0.677625	0.500051
C43	C	0.187876	0.178336	0.000046
C44	C	0.687876	0.678336	0.500046
C45	C	0.224649	0.126772	0.000053
C46	C	0.724649	0.626772	0.500053
C47	C	0.202025	0.074497	0.000065
C48	C	0.702025	0.574497	0.500065
C49	C	0.156783	-0.030062	0.000096
C50	C	0.656783	0.469938	0.500096
C51	C	0.216185	-0.029345	0.000097
C52	C	0.716185	0.470655	0.500097
C53	C	0.238808	0.022934	0.000084
C54	C	0.738808	0.522934	0.500084
C55	C	0.298194	0.023643	0.000067
C56	C	0.798194	0.523643	0.500067
N57	N	0.320820	0.075920	0.000061
N58	N	0.820820	0.575920	0.500061
C59	C	0.284048	0.127484	0.000054
C60	C	0.784048	0.627484	0.500054
C61	C	-0.064135	0.019302	0.000082
C62	C	0.435865	0.519302	0.500082
C63	C	-0.123533	0.018589	0.000077
C64	C	0.376467	0.518589	0.500077
C65	C	-0.137680	0.122434	0.000063
C66	C	0.362320	0.622434	0.500063
C67	C	-0.078281	0.123146	0.000064
C68	C	0.421719	0.623146	0.500064
C69	C	-0.041509	0.071578	0.000076
C70	C	0.458491	0.571578	0.500076
C71	C	0.408784	0.128974	0.000043
C72	C	0.908784	0.628974	0.500043
C73	C	0.468186	0.129680	0.000035
C74	C	0.968186	0.629680	0.500035
C75	C	0.482329	0.025836	0.000052
C76	C	0.982329	0.525836	0.500052
C77	C	0.422932	0.025129	0.000057
C78	C	0.922932	0.525129	0.500057
C79	C	0.386160	0.076702	0.000054
C80	C	0.886160	0.576702	0.500054
O81	O	0.334974	-0.020119	0.000054
O82	O	0.834974	0.479881	0.500054
O83	O	0.308755	0.172007	0.000055
O84	O	0.808755	0.672007	0.500055
C85	C	0.677071	-0.030013	0.000074
C86	C	1.177071	0.469987	0.500074
C87	C	0.676305	-0.093230	0.000078
C88	C	1.176305	0.406770	0.500078
C89	C	0.723539	-0.492333	0.000050
C90	C	1.223539	0.007667	0.500050
C91	C	0.722827	-0.551733	0.000046
C92	C	1.222827	-0.051733	0.500046
O93	O	0.766613	-0.588478	0.000028
O94	O	1.266613	-0.088478	0.500028
N95	N	0.670551	-0.574359	0.000040
N96	N	1.170551	-0.074359	0.500040
C97	C	0.618983	-0.537582	0.000033
C98	C	1.118983	-0.037582	0.500033
O99	O	0.574452	-0.562281	0.000027
O100	O	1.074452	-0.062281	0.500027
C101	C	0.619695	-0.478182	0.000033
C102	C	1.119695	0.021818	0.500033
C103	C	0.671974	-0.455560	0.000045
C104	C	1.171974	0.044440	0.500045
C105	C	0.775814	-0.469710	0.000061
C106	C	1.275814	0.030290	0.500061
C107	C	0.776525	-0.410313	0.000067
C108	C	1.276525	0.089687	0.500067
C109	C	0.724961	-0.373540	0.000062
C110	C	1.224961	0.126460	0.500062
C111	C	0.672685	-0.396164	0.000051
C112	C	1.172685	0.103836	0.500051
C113	C	0.568127	-0.441406	0.000022
C114	C	1.068127	0.058594	0.500022
C115	C	0.568844	-0.382004	0.000022
C116	C	1.068844	0.117996	0.500022
C117	C	0.621123	-0.359381	0.000034
C118	C	1.121123	0.140619	0.500034
C119	C	0.621832	-0.299995	0.000052
C120	C	1.121832	0.200005	0.500052
N121	N	0.674109	-0.277368	0.000057
N122	N	1.174109	0.222632	0.500057
C123	C	0.725673	-0.314141	0.000062
C124	C	1.225673	0.185859	0.500062
C125	C	0.617491	-0.662324	0.000031
C126	C	1.117491	-0.162324	0.500031
C127	C	0.616778	-0.721722	0.000035
C128	C	1.116778	-0.221722	0.500035
C129	C	0.720623	-0.735869	0.000047
C130	C	1.220623	-0.235869	0.500047
C131	C	0.721335	-0.676470	0.000047
C132	C	1.221335	-0.176470	0.500047
C133	C	0.669767	-0.639698	0.000037
C134	C	1.169767	-0.139698	0.500037
C135	C	0.727163	-0.189405	0.000075
C136	C	1.227163	0.310595	0.500075
C137	C	0.727869	-0.130003	0.000083
C138	C	1.227869	0.369997	0.500083
C139	C	0.624025	-0.115860	0.000069
C140	C	1.124025	0.384140	0.500069
C141	C	0.623318	-0.175257	0.000064
C142	C	1.123318	0.324743	0.500064
C143	C	0.674891	-0.212029	0.000065
C144	C	1.174891	0.287971	0.500065
O145	O	0.578070	-0.263215	0.000067
O146	O	1.078070	0.236785	0.500067
O147	O	0.770196	-0.289433	0.000060
O148	O	1.270196	0.210567	0.500060
C149	C	0.776472	0.069388	0.000071
C150	C	1.276472	0.569388	0.500071
C151	C	0.839689	0.070154	0.000073
C152	C	1.339689	0.570154	0.500073
C153	C	0.667577	0.178283	0.000046
C154	C	1.167577	0.678283	0.500046
C155	C	0.668343	0.241500	0.000037
C156	C	1.168343	0.741500	0.500037
N157	N	0.672305	0.074153	0.143865
N158	N	1.172305	0.574153	0.643865
N159	N	0.672347	0.074112	-0.143744
N160	N	1.172347	0.574112	0.356256
C161	C	0.711273	0.035196	0.563653
C162	C	1.211273	0.535196	1.063653
C163	C	0.711275	0.035192	0.627261
C164	C	1.211275	0.535192	1.127261
O165	O	0.744384	0.002076	0.660160
O166	O	1.244384	0.502076	1.160160
N167	N	0.672333	0.074115	0.659072
N168	N	1.172333	0.574115	1.159072
C169	C	0.633382	0.113041	0.627272
C170	C	1.133382	0.613041	1.127272
O171	O	0.600259	0.146148	0.660170
O172	O	1.100259	0.646148	1.160170
C173	C	0.633377	0.113042	0.563665
C174	C	1.133377	0.613042	1.063665
C175	C	0.672326	0.074120	0.531858
C176	C	1.172326	0.574120	1.031858
C177	C	0.750217	-0.003723	0.531846
C178	C	1.250217	0.496277	1.031846
C179	C	0.750215	-0.003719	0.468243
C180	C	1.250215	0.496281	0.968243
C181	C	0.711268	0.035205	0.436447
C182	C	1.211268	0.535205	0.936447
C183	C	0.672324	0.074125	0.468255
C184	C	1.172324	0.574125	0.968255
C185	C	0.594424	0.151965	0.531866
C186	C	1.094424	0.651965	1.031866
C187	C	0.594422	0.151962	0.468256
C188	C	1.094422	0.651962	0.968256
C189	C	0.633370	0.113040	0.436448
C190	C	1.133370	0.613040	0.936448
C191	C	0.633374	0.113054	0.372856
C192	C	1.133374	0.613054	0.872856
N193	N	0.672317	0.074130	0.341045
N194	N	1.172317	0.574130	0.841045
C195	C	0.711263	0.035206	0.372841
C196	C	1.211263	0.535206	0.872841
C197	C	0.633395	0.113036	0.760850
C198	C	1.133395	0.613036	1.260850
C199	C	0.633402	0.113039	0.824455
C200	C	1.133402	0.613039	1.324455
C201	C	0.711294	0.035188	0.824440
C202	C	1.211294	0.535188	1.324440
C203	C	0.711290	0.035189	0.760833
C204	C	1.211290	0.535189	1.260833
C205	C	0.672337	0.074113	0.729039
C206	C	1.172337	0.574113	1.229039
C207	C	0.711256	0.035220	0.239269
C208	C	1.211256	0.535220	0.739269
C209	C	0.711252	0.035229	0.175660
C210	C	1.211252	0.535229	0.675660
C211	C	0.633358	0.113077	0.175681
C212	C	1.133358	0.613077	0.675681
C213	C	0.633364	0.113070	0.239284
C214	C	1.133364	0.613070	0.739284
C215	C	0.672315	0.074136	0.271077
C216	C	1.172315	0.574136	0.771077
O217	O	0.600282	0.146151	0.339916
O218	O	1.100282	0.646151	0.839916
O219	O	0.744376	0.002100	0.339935
O220	O	1.244376	0.502100	0.839935
H221	H	0.098544	0.219617	0.000048
H222	H	0.598544	0.719617	0.500048
O223	O	0.560389	-0.746116	0.000034
O224	O	1.060389	-0.246116	0.500034
H225	H	0.568550	-0.793598	0.000038
H226	H	1.068550	-0.293598	0.500038
O227	O	0.369127	0.184597	0.000039
O228	O	0.869127	0.684597	0.500039
H229	H	0.377136	0.209619	-0.041156
H230	H	0.877136	0.709619	0.458844
H231	H	0.819097	-0.391900	0.000074
H232	H	1.319097	0.108100	0.500074
H233	H	0.582043	-0.085909	0.000067
H234	H	1.082043	0.414091	0.500067
O235	O	0.591398	0.155027	0.858755
O236	O	1.091398	0.655027	1.358755
H237	H	0.597941	0.148493	0.908328
H238	H	1.097941	0.648493	1.408328
H239	H	0.601654	0.144769	0.265183
H240	H	1.101654	0.644769	0.765183
H241	H	-0.167632	0.164421	0.000060
H242	H	0.332368	0.664421	0.500060
O243	O	0.492588	0.186069	0.000032
O244	O	0.992588	0.686069	0.500032
H245	H	0.457034	0.221804	0.000037
H246	H	0.957034	0.721804	0.500037
H247	H	-0.141947	-0.023982	0.000078
H248	H	0.358053	0.476018	0.500078
H249	H	0.138375	-0.072634	0.000106
H250	H	0.638375	0.427366	0.500106
O251	O	-0.024473	-0.036321	0.000086
O252	O	0.475527	0.463679	0.500086
H253	H	-0.050191	-0.072787	0.000085
H254	H	0.449809	0.427213	0.500085
O255	O	0.255849	-0.084966	0.000107
O256	O	0.755849	0.415034	0.500107
H257	H	0.230134	-0.121435	0.000111
H258	H	0.730134	0.378565	0.500111
H259	H	-0.059867	0.165717	0.000057
H260	H	0.440133	0.665717	0.500057
O261	O	0.398525	-0.031256	0.000068
O262	O	0.898525	0.468744	0.500068
H263	H	0.434078	-0.066992	0.000075
H264	H	0.934078	0.433008	0.500075
O265	O	0.831436	-0.509365	0.000077
O266	O	1.331436	-0.009365	0.500077
H267	H	0.856483	-0.501353	-0.041101
H268	H	1.356483	-0.001353	0.458899
H269	H	0.206289	0.220908	0.000036
H270	H	0.706289	0.720908	0.500036
O271	O	0.521999	-0.029777	0.000069
O272	O	1.021999	0.470223	0.500069
H273	H	0.549408	-0.031943	-0.041113
H274	H	1.049408	0.468057	0.458887
H275	H	0.601650	0.144771	0.149783
H276	H	1.101650	0.644771	0.649783
O277	O	0.784258	-0.105601	0.000086
O278	O	1.284258	0.394399	0.500086
H279	H	0.819993	-0.141155	0.000080
H280	H	1.319993	0.358845	0.500080
O281	O	0.782786	-0.229061	0.000085
O282	O	1.282786	0.270939	0.500085
H283	H	0.819252	-0.203342	0.000101
H284	H	1.319252	0.296658	0.500101
H285	H	0.763906	-0.658056	0.000056
H286	H	1.263906	-0.158056	0.500056
O287	O	0.591378	0.155027	0.726566
O288	O	1.091378	0.655027	1.226566
H289	H	0.563827	0.131196	0.697597
H290	H	1.063827	0.631196	1.197597
O291	O	0.753258	-0.006756	0.141352
O292	O	1.253258	0.493244	0.641352
H293	H	0.780335	-0.033827	0.174152
H294	H	1.280335	0.466173	0.674152
H295	H	0.762610	-0.765821	0.000048
H296	H	1.262610	-0.265821	0.500048
H297	H	0.575496	-0.632386	0.000028
H298	H	1.075496	-0.132386	0.500028
H299	H	0.525555	-0.459814	0.000009
H300	H	1.025555	0.040186	0.500009
H301	H	0.526850	-0.352066	0.000013
H302	H	1.026850	0.147934	0.500013
O303	O	0.566933	-0.199664	0.000053
O304	O	1.066933	0.300336	0.500053
H305	H	0.531197	-0.164111	0.000048
H306	H	1.031197	0.335889	0.500048
O307	O	0.552411	0.193948	0.433961
O308	O	1.052411	0.693948	0.933961
H309	H	0.525335	0.221013	0.466770
H310	H	1.025335	0.721013	0.966770
O311	O	0.552435	0.193966	0.566165
O312	O	1.052435	0.693966	1.066165
H313	H	0.525360	0.221031	0.533359
H314	H	1.025360	0.721031	1.033359
O315	O	0.753274	-0.006765	0.273556
O316	O	1.253274	0.493235	0.773556
H317	H	0.780356	-0.033818	0.240744
H318	H	1.280356	0.466182	0.740744
O319	O	0.792216	-0.045707	0.433939
O320	O	1.292216	0.454293	0.933939
H321	H	0.819290	-0.072775	0.466743
H322	H	1.319290	0.427225	0.966743
O323	O	0.792235	-0.045701	0.566135
O324	O	1.292235	0.454299	1.066135
H325	H	0.819316	-0.072755	0.533322
H326	H	1.319316	0.427245	1.033322
O327	O	0.753286	-0.006798	0.726523
O328	O	1.253286	0.493202	1.226523
H329	H	0.797643	0.000225	0.738723
H330	H	1.297643	0.500225	1.238723
O331	O	0.753299	-0.006802	0.858739
O332	O	1.253299	0.493198	1.358739
H333	H	0.746751	-0.000265	0.908311
H334	H	1.246751	0.499735	1.408311
