data_functionalizedCrystal
_audit_creation_method	'MofGen! by Chris Wilmer'
_symmetry_space_group_name_H-M	'P1'
_symmetry_Int_Tables_number	1
_symmetry_cell_setting	triclinic
loop_
_symmetry_equiv_pos_as_xyz
  x,y,z
_cell_length_a	17.699097
_cell_length_b	16.776229
_cell_length_c	9.065218
_cell_angle_alpha	90.004766
_cell_angle_beta	84.152158
_cell_angle_gamma	90.010738
loop_
_atom_site_label
_atom_site_type_symbol
_atom_site_fract_x
_atom_site_fract_y
_atom_site_fract_z
O1	O	1.005528	0.066351	0.186654
O2	O	0.785340	0.066338	0.210906
O3	O	0.899985	0.066343	-0.015997
O4	O	0.890883	0.066346	0.413557
O5	O	0.899970	-0.066233	-0.016011
O6	O	0.785324	-0.066238	0.210892
O7	O	1.005512	-0.066225	0.186640
Zn8	Zn	0.895416	-0.087281	0.198764
Zn9	Zn	0.895436	0.087394	0.198782
O10	O	0.890867	-0.066230	0.413543
C11	C	0.757129	0.000048	0.210026
C12	C	0.673091	0.000043	0.207409
C13	C	0.157256	0.072343	0.191376
C14	C	0.236219	0.072339	0.193825
C15	C	0.275686	0.000068	0.195044
C16	C	0.236187	-0.072204	0.193800
C17	C	0.157226	-0.072199	0.191340
C18	C	0.554628	-0.072224	0.203716
C19	C	0.633594	-0.072224	0.206180
C20	C	0.633621	0.072313	0.206201
C21	C	0.554660	0.072318	0.203741
C22	C	0.515168	0.000047	0.202489
C23	C	0.429548	0.000052	0.199831
C24	C	0.361305	0.000062	0.197713
N25	N	0.895407	-0.206492	0.198750
C26	C	0.946188	-0.248207	0.098319
C27	C	0.946192	-0.331659	0.098318
C28	C	0.895419	-0.373395	0.198756
C29	C	0.844633	-0.331675	0.299192
C30	C	0.844625	-0.248224	0.299185
C31	C	0.844660	-0.668222	0.299221
C32	C	0.844673	-0.751678	0.299223
C33	C	0.946227	-0.751657	0.098354
C34	C	0.946220	-0.668207	0.098347
C35	C	0.895431	-0.626493	0.198777
C36	C	0.895426	-0.536005	0.198775
C37	C	0.895427	-0.463882	0.198766
C38	C	1.033724	0.000067	0.187519
C39	C	1.117762	0.000077	0.190136
C40	C	0.899103	0.000056	-0.070965
C41	C	0.896487	0.000060	-0.234730
N42	N	0.895451	0.206605	0.198784
C43	C	0.891750	0.000058	0.468510
C44	C	0.894365	0.000060	0.632276
H45	H	0.268328	-0.131048	0.194783
H46	H	0.987537	-0.214231	0.016537
C47	C	0.279177	0.150743	0.195415
C48	C	0.316882	0.154953	0.323676
C49	C	0.356469	0.227167	0.325180
H50	H	0.244442	0.193850	0.194424
H51	H	0.315202	0.153759	0.110423
H52	H	0.280862	0.151945	0.408645
H53	H	0.351630	0.111863	0.324694
H54	H	0.392494	0.230183	0.240189
H55	H	0.321729	0.270268	0.324186
H56	H	0.382062	0.230030	0.412197
C57	C	0.114475	-0.150743	0.190075
C58	C	0.165934	-0.214037	0.191709
C59	C	0.126580	-0.286405	0.190556
H60	H	0.088850	-0.153857	0.103142
H61	H	0.078502	-0.153790	0.275144
H62	H	0.201893	-0.210991	0.106649
H63	H	0.191561	-0.210949	0.278636
H64	H	0.090608	-0.289452	0.275625
H65	H	0.100957	-0.289511	0.103622
H66	H	0.161489	-0.329359	0.191678
C67	C	1.001421	-0.376806	-0.010770
C68	C	1.045905	-0.322394	-0.098690
C69	C	1.096802	-0.363952	-0.199184
H70	H	0.973879	-0.409378	-0.072271
H71	H	1.033326	-0.409326	0.042210
H72	H	1.014005	-0.289887	-0.151667
H73	H	1.073464	-0.289819	-0.037231
H74	H	1.128707	-0.396473	-0.146203
H75	H	1.069254	-0.396524	-0.260674
H76	H	1.126995	-0.327041	-0.258840
H77	H	0.987567	-0.634228	0.016565
H78	H	0.987580	-0.785629	0.016573
C79	C	0.789454	-0.796850	0.408333
C80	C	0.744957	-0.742459	0.496255
C81	C	0.694078	-0.784042	0.596762
H82	H	0.817010	-0.829394	0.469830
H83	H	0.757556	-0.829401	0.355362
H84	H	0.776851	-0.709921	0.549222
H85	H	0.717385	-0.709913	0.434799
H86	H	0.662180	-0.816593	0.543792
H87	H	0.721640	-0.816584	0.658249
H88	H	0.663877	-0.747144	0.656420
H89	H	0.522530	0.131168	0.202756
H90	H	0.803308	-0.634266	0.380997
C91	C	0.789590	-0.377129	0.408177
C92	C	0.800479	-0.459141	0.386719
C93	C	0.749796	-0.501036	0.487107
H94	H	0.738937	-0.363568	0.392370
H95	H	0.798487	-0.363487	0.506647
H96	H	0.791576	-0.472778	0.288272
H97	H	0.851122	-0.472727	0.402538
H98	H	0.758693	-0.487394	0.585578
H99	H	0.699146	-0.487468	0.471293
H100	H	0.757181	-0.556685	0.472572
C101	C	0.789461	-0.203075	0.408396
C102	C	0.745010	-0.257484	0.496386
C103	C	0.694188	-0.215923	0.597018
H104	H	0.757521	-0.170532	0.355568
H105	H	0.817082	-0.170524	0.469823
H106	H	0.717391	-0.290021	0.434966
H107	H	0.776929	-0.290029	0.549246
H108	H	0.721810	-0.183373	0.658446
H109	H	0.662254	-0.183381	0.544178
H110	H	0.664027	-0.252833	0.656740
H111	H	0.665786	0.131160	0.207214
C112	C	0.114491	0.150869	0.190291
C113	C	0.126080	0.194477	0.317746
C114	C	0.086708	0.266825	0.316784
H115	H	0.061791	0.140636	0.188728
H116	H	0.132633	0.180606	0.104747
H117	H	0.107935	0.164747	0.403267
H118	H	0.178771	0.204731	0.319335
H119	H	0.104850	0.296562	0.231240
H120	H	0.034011	0.256585	0.315217
H121	H	0.094572	0.296426	0.403253
C122	C	0.676426	-0.150718	0.207182
C123	C	0.664876	-0.194302	0.079678
C124	C	0.704328	-0.266606	0.080542
H125	H	0.658337	-0.180514	0.292663
H126	H	0.729120	-0.140401	0.208751
H127	H	0.612193	-0.204622	0.078124
H128	H	0.682968	-0.164531	-0.005823
H129	H	0.757022	-0.256288	0.082111
H130	H	0.686236	-0.296395	0.166028
H131	H	0.696502	-0.296183	-0.005973
C132	C	0.511743	-0.150668	0.202044
C133	C	0.474081	-0.154898	0.073731
C134	C	0.434576	-0.227158	0.072123
H135	H	0.475698	-0.153761	0.286968
H136	H	0.546546	-0.193726	0.203042
H137	H	0.439282	-0.111851	0.072747
H138	H	0.510109	-0.151819	-0.011214
H139	H	0.469379	-0.270216	0.073121
H140	H	0.398535	-0.230244	0.157053
H141	H	0.409023	-0.230041	-0.014942
