data_functionalizedCrystal
_audit_creation_method	'MofGen! by Chris Wilmer'
_symmetry_space_group_name_H-M	'P1'
_symmetry_Int_Tables_number	1
_symmetry_cell_setting	triclinic
loop_
_symmetry_equiv_pos_as_xyz
  x,y,z
_cell_length_a	29.839134
_cell_length_b	21.295417
_cell_length_c	21.295412
_cell_angle_alpha	90.030668
_cell_angle_beta	89.966777
_cell_angle_gamma	89.974633
loop_
_atom_site_label
_atom_site_type_symbol
_atom_site_fract_x
_atom_site_fract_y
_atom_site_fract_z
Zn1	Zn	0.686804	0.250711	-0.356074
Zn2	Zn	1.020137	0.584044	-0.022741
Zn3	Zn	1.353470	0.917378	0.310592
Zn4	Zn	0.686735	0.355980	-0.250800
Zn5	Zn	1.020069	0.689313	0.082534
Zn6	Zn	1.353402	1.022646	0.415867
Zn7	Zn	0.611672	0.250719	-0.250802
Zn8	Zn	0.945005	0.584052	0.082532
Zn9	Zn	1.278338	0.917385	0.415865
Zn10	Zn	0.611648	0.355937	-0.356014
Zn11	Zn	0.944982	0.689270	-0.022680
Zn12	Zn	1.278315	1.022604	0.310653
O13	O	0.649215	0.303337	-0.303422
O14	O	0.982548	0.636670	0.029911
O15	O	1.315881	0.970003	0.363244
O16	O	0.749662	0.264690	-0.342134
O17	O	1.082995	0.598023	-0.008801
O18	O	1.416328	0.931356	0.324532
O19	O	0.676759	0.342037	-0.162711
O20	O	1.010092	0.675371	0.170623
O21	O	1.343426	1.008704	0.503956
O22	O	0.621676	0.162628	-0.264792
O23	O	0.955010	0.495962	0.068541
O24	O	1.288343	0.829295	0.401874
O25	O	0.749611	0.342030	-0.264789
O26	O	1.082945	0.675363	0.068544
O27	O	1.416278	1.008697	0.401877
O28	O	0.676875	0.162623	-0.342136
O29	O	1.010209	0.495956	-0.008803
O30	O	1.343542	0.829289	0.324531
O31	O	0.621610	0.264703	-0.162712
O32	O	0.954943	0.598036	0.170621
O33	O	1.288277	0.931369	0.503955
O34	O	0.548801	0.264662	-0.264734
O35	O	0.882135	0.597995	0.068600
O36	O	1.215468	0.931328	0.401933
O37	O	0.621637	0.341958	-0.444111
O38	O	0.954970	0.675291	-0.110778
O39	O	1.288303	1.008624	0.222555
O40	O	0.548784	0.341965	-0.342032
O41	O	0.882118	0.675298	-0.008699
O42	O	1.215451	1.008632	0.324634
O43	O	0.676853	0.264649	-0.444156
O44	O	1.010186	0.597982	-0.110822
O45	O	1.343520	0.931315	0.222511
O46	O	0.676737	0.444063	-0.264730
O47	O	1.010070	0.777397	0.068603
O48	O	1.343403	1.110730	0.401936
O49	O	0.621571	0.444032	-0.342031
O50	O	0.954904	0.777365	-0.008697
O51	O	1.288237	1.110699	0.324636
C52	C	0.532492	0.303310	-0.303377
C53	C	0.865825	0.636643	0.029956
C54	C	1.199159	0.969977	0.363290
C55	C	0.482558	0.303314	-0.303372
C56	C	0.815891	0.636647	0.029961
C57	C	1.149224	0.969980	0.363294
C58	C	0.649156	0.466888	-0.303388
C59	C	0.982489	0.800222	0.029946
C60	C	1.315822	1.133555	0.363279
C61	C	0.649172	0.536856	-0.303394
C62	C	0.982505	0.870190	0.029940
C63	C	1.315838	1.203523	0.363273
C64	C	0.649250	0.303297	-0.467613
C65	C	0.982583	0.636631	-0.134279
C66	C	1.315917	0.969964	0.199054
C67	C	0.649265	0.303281	-0.537581
C68	C	0.982598	0.636614	-0.204248
C69	C	1.315932	0.969947	0.129086
C70	C	0.172915	0.343648	-0.343623
C71	C	0.506248	0.676981	-0.010289
C72	C	0.839582	1.010315	0.323044
C73	C	-0.014758	0.343666	-0.343651
C74	C	0.318575	0.676999	-0.010317
C75	C	0.651909	1.010332	0.323016
O76	O	-0.039022	0.377930	-0.377846
O77	O	0.294311	0.711263	-0.044512
O78	O	0.627644	1.044596	0.288821
N79	N	-0.038227	0.303360	-0.303470
N80	N	0.295106	0.636693	0.029864
N81	N	0.628439	0.970026	0.363197
C82	C	-0.014775	0.263043	-0.263282
C83	C	0.318558	0.596377	0.070051
C84	C	0.651891	0.929710	0.403385
O85	O	-0.039044	0.228756	-0.229111
O86	O	0.294290	0.562090	0.104222
O87	O	0.627623	0.895423	0.437556
C88	C	0.172897	0.263023	-0.263258
C89	C	0.506230	0.596356	0.070076
C90	C	0.839563	0.929690	0.403409
C91	C	0.196364	0.303336	-0.303437
C92	C	0.529697	0.636669	0.029897
C93	C	0.863030	0.970003	0.363230
C94	C	0.196382	0.383957	-0.383799
C95	C	0.529715	0.717291	-0.050465
C96	C	0.863048	1.050624	0.282868
C97	C	0.243297	0.383955	-0.383789
C98	C	0.576631	0.717288	-0.050456
C99	C	0.909964	1.050622	0.282878
C100	C	0.266746	0.343643	-0.343603
C101	C	0.600079	0.676976	-0.010270
C102	C	0.933413	1.010310	0.323064
C103	C	0.243279	0.303334	-0.303427
C104	C	0.576612	0.636667	0.029907
C105	C	0.909946	0.970000	0.363240
C106	C	0.196348	0.222704	-0.223074
C107	C	0.529681	0.556037	0.110260
C108	C	0.863014	0.889371	0.443593
C109	C	0.243269	0.222701	-0.223072
C110	C	0.576602	0.556035	0.110261
C111	C	0.909936	0.889368	0.443594
C112	C	0.266736	0.263015	-0.263251
C113	C	0.600069	0.596348	0.070082
C114	C	0.933402	0.929681	0.403415
C115	C	0.313643	0.263019	-0.263231
C116	C	0.646976	0.596353	0.070102
C117	C	0.980310	0.929686	0.403436
N118	N	0.337112	0.303326	-0.303412
N119	N	0.670446	0.636659	0.029922
N120	N	1.003779	0.969992	0.363255
C121	C	0.313664	0.343637	-0.343598
C122	C	0.646997	0.676971	-0.010264
C123	C	0.980330	1.010304	0.323069
C124	C	-0.113306	0.263058	-0.263297
C125	C	0.220027	0.596391	0.070037
C126	C	0.553361	0.929725	0.403370
C127	C	-0.160224	0.263064	-0.263302
C128	C	0.173109	0.596397	0.070031
C129	C	0.506443	0.929730	0.403365
C130	C	-0.160203	0.343685	-0.343671
C131	C	0.173130	0.677019	-0.010338
C132	C	0.506463	1.010352	0.322995
C133	C	-0.113285	0.343682	-0.343663
C134	C	0.220049	0.677016	-0.010329
C135	C	0.553382	1.010349	0.323004
C136	C	-0.089837	0.303364	-0.303478
C137	C	0.243496	0.636697	0.029856
C138	C	0.576830	0.970031	0.363189
C139	C	0.412190	0.343630	-0.343574
C140	C	0.745523	0.676963	-0.010240
C141	C	1.078856	1.010296	0.323093
C142	C	0.459109	0.343625	-0.343558
C143	C	0.792442	0.676959	-0.010225
C144	C	1.125776	1.010292	0.323108
C145	C	0.459084	0.263002	-0.263192
C146	C	0.792418	0.596335	0.070142
C147	C	1.125751	0.929668	0.403475
C148	C	0.412169	0.263008	-0.263204
C149	C	0.745502	0.596341	0.070129
C150	C	1.078836	0.929675	0.403462
C151	C	0.388723	0.303324	-0.303400
C152	C	0.722056	0.636657	0.029933
C153	C	1.055389	0.969991	0.363266
O154	O	0.337936	0.228768	-0.229059
O155	O	0.671270	0.562102	0.104275
O156	O	1.004603	0.895435	0.437608
O157	O	0.337940	0.377909	-0.377773
O158	O	0.671273	0.711243	-0.044440
O159	O	1.004607	1.044576	0.288893
C160	C	0.125999	0.343650	-0.343632
C161	C	0.459333	0.676984	-0.010299
C162	C	0.792666	1.010317	0.323034
C163	C	0.102533	0.303341	-0.303456
C164	C	0.435866	0.636674	0.029877
C165	C	0.769199	0.970008	0.363210
C166	C	0.125981	0.263029	-0.263270
C167	C	0.459315	0.596362	0.070063
C168	C	0.792648	0.929696	0.403396
C169	C	0.055615	0.303347	-0.303461
C170	C	0.388948	0.636680	0.029872
C171	C	0.722281	0.970013	0.363205
C172	C	0.032166	0.343659	-0.343647
C173	C	0.365500	0.676992	-0.010314
C174	C	0.698833	1.010325	0.323019
C175	C	0.055635	0.383965	-0.383828
C176	C	0.388969	0.717298	-0.050495
C177	C	0.722302	1.050631	0.282838
C178	C	0.102551	0.383962	-0.383818
C179	C	0.435884	0.717296	-0.050485
C180	C	0.769218	1.050629	0.282848
C181	C	0.102512	0.222723	-0.223090
C182	C	0.435845	0.556056	0.110244
C183	C	0.769179	0.889390	0.443577
C184	C	0.055597	0.222729	-0.223102
C185	C	0.388930	0.556063	0.110231
C186	C	0.722263	0.889396	0.443564
C187	C	0.032148	0.263041	-0.263288
C188	C	0.365481	0.596374	0.070045
C189	C	0.698815	0.929708	0.403379
C190	C	0.766393	0.303364	-0.303468
C191	C	1.099726	0.636697	0.029865
C192	C	1.433060	0.970031	0.363198
C193	C	0.816327	0.303375	-0.303488
C194	C	1.149661	0.636709	0.029845
C195	C	1.482994	0.970042	0.363179
C196	C	0.649286	0.139146	-0.303471
C197	C	0.982619	0.472480	0.029862
C198	C	1.315953	0.805813	0.363195
C199	C	0.649316	0.069178	-0.303492
C200	C	0.982650	0.402512	0.029841
C201	C	1.315983	0.735845	0.363175
C202	C	0.677922	0.569718	-0.263185
C203	C	1.011256	0.903052	0.070149
C204	C	1.344589	1.236385	0.403482
C205	C	0.677943	0.635461	-0.263199
C206	C	1.011277	0.968794	0.070134
C207	C	1.344610	1.302128	0.403468
C208	C	0.649206	0.668339	-0.303415
C209	C	0.982539	1.001672	0.029918
C210	C	1.315872	1.335005	0.363251
C211	C	0.620453	0.635469	-0.343632
C212	C	0.953787	0.968802	-0.010299
C213	C	1.287120	1.302136	0.323035
C214	C	0.620436	0.569728	-0.343621
C215	C	0.953770	0.903061	-0.010288
C216	C	1.287103	1.236394	0.323045
N217	N	0.609906	0.771600	-0.308199
N218	N	0.943239	1.104933	0.025134
N219	N	1.276573	1.438266	0.358468
N220	N	0.609923	0.834051	-0.308206
N221	N	0.943257	1.167385	0.025128
N222	N	1.276590	1.500718	0.358461
C223	C	0.649256	0.866413	-0.303451
C224	C	0.982589	1.199747	0.029882
C225	C	1.315923	1.533080	0.363215
N226	N	0.688572	0.833965	-0.298678
N227	N	1.021905	1.167298	0.034655
N228	N	1.355238	1.500632	0.367989
N229	N	0.688554	0.771508	-0.298668
N230	N	1.021887	1.104841	0.034665
N231	N	1.355220	1.438175	0.367998
C232	C	0.649221	0.739624	-0.303432
C233	C	0.982555	1.072957	0.029901
C234	C	1.315888	1.406291	0.363235
C235	C	0.678032	0.970561	-0.263256
C236	C	1.011365	1.303894	0.070078
C237	C	1.344699	1.637228	0.403411
C238	C	0.678054	1.036305	-0.263274
C239	C	1.011387	1.369638	0.070059
C240	C	1.344720	1.702971	0.403392
C241	C	0.620560	1.036311	-0.343704
C242	C	0.953893	1.369645	-0.010371
C243	C	1.287226	1.702978	0.322962
C244	C	0.620542	0.970569	-0.343689
C245	C	0.953875	1.303902	-0.010356
C246	C	1.287209	1.637236	0.322978
C247	C	0.649277	0.937698	-0.303461
C248	C	0.982611	1.271031	0.029872
C249	C	1.315944	1.604364	0.363205
C250	C	0.620556	0.263008	-0.570438
C251	C	0.953890	0.596341	-0.237105
C252	C	1.287223	0.929675	0.096228
C253	C	0.620555	0.262996	-0.636181
C254	C	0.953888	0.596330	-0.302848
C255	C	1.287222	0.929663	0.030486
C256	C	0.649270	0.303251	-0.669063
C257	C	0.982603	0.636584	-0.335730
C258	C	1.315936	0.969917	-0.002397
C259	C	0.677980	0.343531	-0.636198
C260	C	1.011313	0.676865	-0.302865
C261	C	1.344647	1.010198	0.030469
C262	C	0.677978	0.343546	-0.570457
C263	C	1.011311	0.676880	-0.237123
C264	C	1.344644	1.010213	0.096210
N265	N	0.688596	0.308063	-0.772311
N266	N	1.021930	0.641397	-0.438978
N267	N	1.355263	0.974730	-0.105644
N268	N	0.688597	0.308045	-0.834762
N269	N	1.021931	0.641379	-0.501429
N270	N	1.355264	0.974712	-0.168096
C271	C	0.649278	0.303209	-0.867138
C272	C	0.982611	0.636542	-0.533805
C273	C	1.315945	0.969876	-0.200472
N274	N	0.609957	0.298379	-0.834703
N275	N	0.943290	0.631712	-0.501370
N276	N	1.276623	0.965045	-0.168037
N277	N	0.609956	0.298393	-0.772246
N278	N	0.943290	0.631727	-0.438913
N279	N	1.276623	0.965060	-0.105579
C280	C	0.649275	0.303239	-0.740349
C281	C	0.982609	0.636573	-0.407016
C282	C	1.315942	0.969906	-0.073682
C283	C	0.620565	0.262921	-0.971281
C284	C	0.953899	0.596255	-0.637948
C285	C	1.287232	0.929588	-0.304615
C286	C	0.620563	0.262914	-1.037025
C287	C	0.953896	0.596247	-0.703692
C288	C	1.287230	0.929581	-0.370358
C289	C	0.677992	0.343446	-1.037041
C290	C	1.011326	0.676779	-0.703708
C291	C	1.344659	1.010112	-0.370374
C292	C	0.677991	0.343456	-0.971299
C293	C	1.011324	0.676790	-0.637965
C294	C	1.344657	1.010123	-0.304632
C295	C	0.649278	0.303191	-0.938423
C296	C	0.982611	0.636524	-0.605089
C297	C	1.315944	0.969857	-0.271756
C298	C	0.649206	0.303330	-0.139871
C299	C	0.982539	0.636663	0.193463
C300	C	1.315872	0.969997	0.526796
C301	C	0.649278	0.303170	-0.069903
C302	C	0.982611	0.636503	0.263430
C303	C	1.315944	0.969836	0.596764
H304	H	0.393105	0.376457	-0.376307
H305	H	0.726438	0.709791	-0.042973
H306	H	1.059772	1.043124	0.290360
C307	C	0.598539	0.655666	-0.450192
C308	C	0.931872	0.988999	-0.116859
C309	C	1.265205	1.322332	0.216474
C310	C	0.588865	0.671607	-0.387840
C311	C	0.922199	1.004940	-0.054506
C312	C	1.255532	1.338273	0.278827
H313	H	0.579040	0.677979	-0.477486
H314	H	0.912373	1.011313	-0.144152
H315	H	1.245706	1.344646	0.189181
H316	H	0.594412	0.611815	-0.455938
H317	H	0.927745	0.945148	-0.122604
H318	H	1.261079	1.278482	0.210729
H319	H	0.628724	0.666403	-0.459442
H320	H	0.962058	0.999736	-0.126109
H321	H	1.295391	1.333070	0.207224
H322	H	0.558680	0.660865	-0.378588
H323	H	0.892014	0.994198	-0.045255
H324	H	1.225347	1.327532	0.288079
H325	H	0.592988	0.715468	-0.382091
H326	H	0.926322	1.048801	-0.048758
H327	H	1.259655	1.382134	0.284575
H328	H	0.121653	0.416789	-0.416536
H329	H	0.454987	0.750123	-0.083203
H330	H	0.788320	1.083456	0.250130
C331	C	0.614308	1.110185	-0.428381
C332	C	0.947641	1.443518	-0.095047
C333	C	1.280975	1.776852	0.238286
C334	C	0.588972	1.072443	-0.387914
C335	C	0.922305	1.405777	-0.054581
C336	C	1.255639	1.739110	0.278753
H337	H	0.594806	1.132495	-0.455673
H338	H	0.928140	1.465828	-0.122340
H339	H	1.261473	1.799162	0.210993
H340	H	0.633862	1.084497	-0.452482
H341	H	0.967195	1.417830	-0.119148
H342	H	1.300528	1.751164	0.214185
H343	H	0.631433	1.139166	-0.404430
H344	H	0.964766	1.472499	-0.071096
H345	H	1.298100	1.805832	0.262237
H346	H	0.571849	1.043459	-0.411865
H347	H	0.905183	1.376792	-0.078532
H348	H	1.238516	1.710126	0.254802
H349	H	0.569410	1.098133	-0.363811
H350	H	0.902743	1.431467	-0.030478
H351	H	1.236077	1.764800	0.302856
H352	H	0.597024	0.542971	-0.376365
H353	H	0.930357	0.876304	-0.043032
H354	H	1.263690	1.209637	0.290302
C355	C	0.734864	0.977155	-0.183757
C356	C	1.068198	1.310488	0.149576
C357	C	1.401531	1.643822	0.482909
C358	C	0.709620	0.934424	-0.219043
C359	C	1.042953	1.267757	0.114290
C360	C	1.376286	1.601090	0.447624
H361	H	0.754366	0.954845	-0.156465
H362	H	1.087700	1.288179	0.176868
H363	H	1.421033	1.621512	0.510202
H364	H	0.715307	1.002837	-0.159656
H365	H	1.048640	1.336170	0.173678
H366	H	1.381974	1.669504	0.507011
H367	H	0.752046	1.002756	-0.211222
H368	H	1.085379	1.336089	0.122111
H369	H	1.418712	1.669423	0.455444
H370	H	0.692435	0.908826	-0.191578
H371	H	1.025769	1.242159	0.141755
H372	H	1.359102	1.575492	0.475089
H373	H	0.729179	0.908731	-0.243146
H374	H	1.062513	1.242064	0.090187
H375	H	1.395846	1.575398	0.423520
C376	C	0.703475	0.736239	-0.227479
C377	C	1.036808	1.069572	0.105854
C378	C	1.370142	1.402905	0.439188
C379	C	0.709535	0.671594	-0.218980
C380	C	1.042868	1.004927	0.114353
C381	C	1.376201	1.338261	0.447686
H382	H	0.722977	0.758543	-0.200177
H383	H	1.056310	1.091876	0.133156
H384	H	1.389643	1.425210	0.466489
H385	H	0.673295	0.747038	-0.218241
H386	H	1.006628	1.080371	0.115092
H387	H	1.339961	1.413705	0.448426
H388	H	0.710052	0.746977	-0.269782
H389	H	1.043385	1.080311	0.063552
H390	H	1.376719	1.413644	0.396885
H391	H	0.702955	0.660855	-0.176679
H392	H	1.036288	0.994188	0.156655
H393	H	1.369621	1.327521	0.489988
H394	H	0.739722	0.660790	-0.228214
H395	H	1.073055	0.994124	0.105119
H396	H	1.406389	1.327457	0.438453
H397	H	-0.179327	0.230243	-0.230578
H398	H	0.154007	0.563576	0.102755
H399	H	0.487340	0.896910	0.436089
C400	C	0.614248	0.896589	-0.428342
C401	C	0.947581	1.229922	-0.095008
C402	C	1.280914	1.563255	0.238325
C403	C	0.588934	0.934444	-0.387884
C404	C	0.922267	1.267778	-0.054551
C405	C	1.255601	1.601111	0.278783
H406	H	0.594733	0.874291	-0.455630
H407	H	0.928066	1.207624	-0.122297
H408	H	1.261400	1.540958	0.211036
H409	H	0.631355	0.867603	-0.404388
H410	H	0.964688	1.200936	-0.071054
H411	H	1.298021	1.534270	0.262279
H412	H	0.633818	0.922203	-0.452453
H413	H	0.967151	1.255536	-0.119119
H414	H	1.300484	1.588869	0.214214
H415	H	0.569366	0.908830	-0.363770
H416	H	0.902699	1.242163	-0.030436
H417	H	1.236033	1.575496	0.302897
H418	H	0.571819	0.963434	-0.411841
H419	H	0.905153	1.296767	-0.078507
H420	H	1.238486	1.630100	0.254826
C421	C	0.738429	0.352180	-1.111000
C422	C	1.071762	0.685514	-0.777667
C423	C	1.405095	1.018847	-0.444333
C424	C	0.709562	0.387692	-1.073172
C425	C	1.042896	0.721025	-0.739839
C426	C	1.376229	1.054358	-0.406506
H427	H	0.757921	0.379498	-1.133303
H428	H	1.091255	0.712832	-0.799970
H429	H	1.424588	1.046165	-0.466636
H430	H	0.721329	0.328205	-1.139981
H431	H	1.054663	0.661539	-0.806648
H432	H	1.387996	0.994872	-0.473314
H433	H	0.755618	0.324762	-1.085366
H434	H	1.088951	0.658095	-0.752033
H435	H	1.422284	0.991428	-0.418699
H436	H	0.692371	0.415107	-1.098807
H437	H	1.025704	0.748441	-0.765473
H438	H	1.359037	1.081774	-0.432140
H439	H	0.726664	0.411677	-1.044188
H440	H	1.059997	0.745011	-0.710855
H441	H	1.393330	1.078344	-0.377521
C442	C	-0.060543	0.428368	-0.352254
C443	C	0.272791	0.761702	-0.018921
C444	C	0.606124	1.095035	0.314412
C445	C	-0.087493	0.387992	-0.387832
C446	C	0.245841	0.721325	-0.054499
C447	C	0.579174	1.054658	0.278834
H448	H	-0.044624	0.455726	-0.379526
H449	H	0.288709	0.789059	-0.046193
H450	H	0.622043	1.122392	0.287140
H451	H	-0.039861	0.404361	-0.328331
H452	H	0.293473	0.737694	0.005003
H453	H	0.626806	1.071027	0.338336
H454	H	-0.078868	0.452410	-0.324785
H455	H	0.254465	0.785744	0.008549
H456	H	0.587798	1.119077	0.341882
H457	H	-0.069167	0.363946	-0.415299
H458	H	0.264167	0.697280	-0.081966
H459	H	0.597500	1.030613	0.251368
H460	H	-0.108177	0.412002	-0.411767
H461	H	0.225156	0.745336	-0.078433
H462	H	0.558490	1.078669	0.254900
C463	C	0.563792	0.183404	-0.577031
C464	C	0.897125	0.516737	-0.243698
C465	C	1.230459	0.850070	0.089635
C466	C	0.588992	0.218754	-0.534302
C467	C	0.922325	0.552087	-0.200969
C468	C	1.255659	0.885420	0.132365
H469	H	0.544304	0.156087	-0.554720
H470	H	0.877637	0.489420	-0.221386
H471	H	1.210970	0.822753	0.111947
H472	H	0.583378	0.159326	-0.602692
H473	H	0.916712	0.492659	-0.269359
H474	H	1.250045	0.825992	0.063975
H475	H	0.546598	0.210827	-0.602654
H476	H	0.879931	0.544160	-0.269320
H477	H	1.213264	0.877493	0.064013
H478	H	0.606189	0.191331	-0.508682
H479	H	0.939522	0.524664	-0.175349
H480	H	1.272856	0.857997	0.157984
H481	H	0.569403	0.242834	-0.508631
H482	H	0.902737	0.576167	-0.175297
H483	H	1.236070	0.909500	0.158036
C484	C	0.734760	0.423047	-0.977920
C485	C	1.068094	0.756380	-0.644587
C486	C	1.401427	1.089713	-0.311253
C487	C	0.709554	0.387718	-0.935177
C488	C	1.042888	0.721051	-0.601844
C489	C	1.376221	1.054384	-0.268511
H490	H	0.754249	0.450370	-0.955619
H491	H	1.087582	0.783704	-0.622285
H492	H	1.420915	1.117037	-0.288952
H493	H	0.715178	0.447117	-1.003536
H494	H	1.048511	0.780450	-0.670203
H495	H	1.381845	1.113783	-0.336870
H496	H	0.751955	0.395611	-1.003585
H497	H	1.085288	0.728944	-0.670252
H498	H	1.418622	1.062277	-0.336919
H499	H	0.692357	0.415153	-0.909515
H500	H	1.025690	0.748487	-0.576181
H501	H	1.359024	1.081820	-0.242848
H502	H	0.729139	0.363646	-0.909550
H503	H	1.062473	0.696979	-0.576217
H504	H	1.395806	1.030312	-0.242883
C505	C	0.560134	0.254206	-0.710078
C506	C	0.893467	0.587540	-0.376745
C507	C	1.226801	0.920873	-0.043411
C508	C	0.588999	0.218722	-0.672309
C509	C	0.922333	0.552055	-0.338975
C510	C	1.255666	0.885389	-0.005642
H511	H	0.540653	0.226871	-0.732377
H512	H	0.873986	0.560205	-0.399044
H513	H	1.207319	0.893538	-0.065710
H514	H	0.577235	0.278177	-0.739063
H515	H	0.910568	0.611511	-0.405730
H516	H	1.243902	0.944844	-0.072396
H517	H	0.542933	0.281628	-0.684406
H518	H	0.876266	0.614961	-0.351072
H519	H	1.209600	0.948295	-0.017739
H520	H	0.606203	0.191304	-0.697982
H521	H	0.939536	0.524637	-0.364648
H522	H	1.272869	0.857970	-0.031315
H523	H	0.571896	0.194740	-0.643320
H524	H	0.905230	0.528074	-0.309987
H525	H	1.238563	0.861407	0.023346
C526	C	-0.118049	0.183371	-0.183853
C527	C	0.215284	0.516704	0.149481
C528	C	0.548617	0.850038	0.482814
C529	C	-0.087536	0.218740	-0.219117
C530	C	0.245797	0.552073	0.114217
C531	C	0.579131	0.885407	0.447550
H532	H	-0.102141	0.156016	-0.156574
H533	H	0.231193	0.489349	0.176759
H534	H	0.564526	0.822682	0.510093
H535	H	-0.136328	0.159333	-0.211328
H536	H	0.197005	0.492666	0.122006
H537	H	0.530339	0.826000	0.455339
H538	H	-0.136368	0.210780	-0.159732
H539	H	0.196965	0.544113	0.173602
H540	H	0.530298	0.877446	0.506935
H541	H	-0.069219	0.191331	-0.243241
H542	H	0.264114	0.524665	0.090092
H543	H	0.597447	0.857998	0.423425
H544	H	-0.069250	0.242780	-0.191638
H545	H	0.264084	0.576113	0.141695
H546	H	0.597417	0.909446	0.475029
C547	C	0.473499	0.232201	-0.156653
C548	C	0.806832	0.565534	0.176680
C549	C	1.140165	0.898867	0.510014
C550	C	0.484868	0.218696	-0.219019
C551	C	0.818201	0.552030	0.114314
C552	C	1.151535	0.885363	0.447648
H553	H	0.489420	0.204849	-0.129385
H554	H	0.822754	0.538182	0.203948
H555	H	1.156087	0.871516	0.537281
H556	H	0.442203	0.226424	-0.150906
H557	H	0.775536	0.559757	0.182428
H558	H	1.108869	0.893091	0.515761
H559	H	0.481170	0.274486	-0.147370
H560	H	0.814503	0.607819	0.185964
H561	H	1.147836	0.941153	0.519297
H562	H	0.477194	0.176412	-0.228304
H563	H	0.810527	0.509745	0.105029
H564	H	1.143860	0.843079	0.438363
H565	H	0.516171	0.224468	-0.224769
H566	H	0.849504	0.557801	0.108564
H567	H	1.182838	0.891134	0.441897
C568	C	0.738553	1.110091	-0.254708
C569	C	1.071886	1.443425	0.078625
C570	C	1.405219	1.776758	0.411959
C571	C	0.709704	1.072395	-0.219108
C572	C	1.043038	1.405728	0.114225
C573	C	1.376371	1.739061	0.447558
H574	H	0.758107	1.132359	-0.227450
H575	H	1.091440	1.465692	0.105883
H576	H	1.424774	1.799025	0.439216
H577	H	0.721444	1.139104	-0.278628
H578	H	1.054778	1.472438	0.054706
H579	H	1.388111	1.805771	0.388039
H580	H	0.755677	1.084374	-0.282182
H581	H	1.089010	1.417707	0.051151
H582	H	1.422343	1.751040	0.384485
H583	H	0.692578	1.098113	-0.191637
H584	H	1.025911	1.431446	0.141696
H585	H	1.359245	1.764780	0.475029
H586	H	0.726814	1.043379	-0.195178
H587	H	1.060148	1.376712	0.138156
H588	H	1.393481	1.710045	0.471489
H589	H	0.597185	0.230135	-0.944512
H590	H	0.930519	0.563469	-0.611179
H591	H	1.263852	0.896802	-0.277846
H592	H	0.597182	0.230121	-1.063776
H593	H	0.930515	0.563454	-0.730443
H594	H	1.263849	0.896788	-0.397110
C595	C	-0.232120	0.379477	-0.379367
C596	C	0.101213	0.712810	-0.046033
C597	C	0.434547	1.046143	0.287300
C598	C	-0.185984	0.387992	-0.387850
C599	C	0.147349	0.721326	-0.054517
C600	C	0.480683	1.054659	0.278817
H601	H	-0.248036	0.406824	-0.406645
H602	H	0.085297	0.740157	-0.073312
H603	H	0.418630	1.073490	0.260022
H604	H	-0.239828	0.388643	-0.337061
H605	H	0.093506	0.721976	-0.003728
H606	H	0.426839	1.055309	0.329605
H607	H	-0.239785	0.337189	-0.388651
H608	H	0.093548	0.670523	-0.055317
H609	H	0.426882	1.003856	0.278016
H610	H	-0.178318	0.430279	-0.378561
H611	H	0.155015	0.763612	-0.045228
H612	H	0.488348	1.096946	0.288105
H613	H	-0.178273	0.378831	-0.430165
H614	H	0.155060	0.712164	-0.096832
H615	H	0.488393	1.045498	0.236502
C616	C	0.703489	0.379255	-0.736983
C617	C	1.036823	0.712588	-0.403650
C618	C	1.370156	1.045922	-0.070316
C619	C	0.709547	0.387776	-0.672340
C620	C	1.042880	0.721110	-0.339007
C621	C	1.376213	1.054443	-0.005674
H622	H	0.722980	0.406570	-0.759294
H623	H	1.056313	0.739903	-0.425960
H624	H	1.389646	1.073237	-0.092627
H625	H	0.673305	0.388461	-0.747730
H626	H	1.006638	0.721794	-0.414397
H627	H	1.339972	1.055127	-0.081064
H628	H	0.710083	0.336956	-0.747765
H629	H	1.043417	0.670289	-0.414432
H630	H	1.376750	1.003623	-0.081099
H631	H	0.702950	0.430074	-0.661557
H632	H	1.036283	0.763408	-0.328224
H633	H	1.369616	1.096741	0.005110
H634	H	0.739738	0.378575	-0.661588
H635	H	1.073071	0.711908	-0.328255
H636	H	1.406405	1.045242	0.005078
C637	C	0.359437	0.178312	-0.254641
C638	C	0.692770	0.511645	0.078692
C639	C	1.026104	0.844979	0.412026
C640	C	0.386375	0.218687	-0.219044
C641	C	0.719709	0.552021	0.114290
C642	C	1.053042	0.885354	0.447623
H643	H	0.343516	0.150946	-0.227382
H644	H	0.676849	0.484280	0.105952
H645	H	1.010182	0.817613	0.439285
H646	H	0.377768	0.154285	-0.282108
H647	H	0.711101	0.487618	0.051226
H648	H	1.044434	0.820952	0.384559
H649	H	0.338754	0.202325	-0.278568
H650	H	0.672087	0.535658	0.054765
H651	H	1.005420	0.868992	0.388098
H652	H	0.407061	0.194675	-0.195120
H653	H	0.740395	0.528008	0.138213
H654	H	1.073728	0.861341	0.471547
H655	H	0.368043	0.242717	-0.191566
H656	H	0.701377	0.576050	0.141767
H657	H	1.034710	0.909384	0.475101
C658	C	0.699815	0.450150	-0.550199
C659	C	1.033148	0.783483	-0.216865
C660	C	1.366482	1.116816	0.116468
C661	C	0.709539	0.387815	-0.534337
C662	C	1.042872	0.721148	-0.201003
C663	C	1.376206	1.054481	0.132330
H664	H	0.719303	0.477477	-0.527901
H665	H	1.052636	0.810811	-0.194568
H666	H	1.385969	1.144144	0.138766
H667	H	0.669630	0.459352	-0.539394
H668	H	1.002963	0.792685	-0.206061
H669	H	1.336297	1.126019	0.127273
H670	H	0.703926	0.455896	-0.594058
H671	H	1.037259	0.789230	-0.260725
H672	H	1.370593	1.122563	0.072609
H673	H	0.705425	0.382067	-0.490478
H674	H	1.038758	0.715400	-0.157144
H675	H	1.372091	1.048733	0.176189
H676	H	0.739731	0.378609	-0.545137
H677	H	1.073065	0.711943	-0.211804
H678	H	1.406398	1.045276	0.121530
C679	C	0.454410	0.423316	-0.423006
C680	C	0.787743	0.756649	-0.089673
C681	C	1.121076	1.089982	0.243661
C682	C	0.484903	0.387937	-0.387730
C683	C	0.818236	0.721271	-0.054396
C684	C	1.151570	1.054604	0.278937
H685	H	0.470333	0.450667	-0.450277
H686	H	0.803667	0.784000	-0.116944
H687	H	1.137000	1.117334	0.216389
H688	H	0.436090	0.447359	-0.395538
H689	H	0.769424	0.780692	-0.062205
H690	H	1.102757	1.114025	0.271128
H691	H	0.436129	0.395913	-0.447135
H692	H	0.769462	0.729246	-0.113802
H693	H	1.102796	1.062579	0.219532
H694	H	0.503182	0.415340	-0.363597
H695	H	0.836515	0.748674	-0.030264
H696	H	1.169848	1.082007	0.303070
H697	H	0.503230	0.363893	-0.415201
H698	H	0.836563	0.697226	-0.081868
H699	H	1.169897	1.030559	0.251466
H700	H	0.262400	0.416781	-0.416508
H701	H	0.595733	0.750114	-0.083175
H702	H	0.929066	1.083448	0.250159
H703	H	0.177295	0.416784	-0.416526
H704	H	0.510628	0.750118	-0.083193
H705	H	0.843962	1.083451	0.250140
H706	H	0.262358	0.189865	-0.190352
H707	H	0.595691	0.523198	0.142982
H708	H	0.929024	0.856531	0.476315
C709	C	0.201060	0.143000	-0.143650
C710	C	0.534394	0.476334	0.189683
C711	C	0.867727	0.809667	0.523016
C712	C	0.170561	0.178384	-0.178912
C713	C	0.503895	0.511717	0.154421
C714	C	0.837228	0.845051	0.487754
H715	H	0.185140	0.115634	-0.116390
H716	H	0.518474	0.448967	0.216944
H717	H	0.851807	0.782300	0.550277
H718	H	0.219337	0.170394	-0.119517
H719	H	0.552671	0.503727	0.213817
H720	H	0.886004	0.837061	0.547150
H721	H	0.219382	0.118967	-0.171132
H722	H	0.552716	0.452301	0.162201
H723	H	0.886049	0.785634	0.495534
H724	H	0.152241	0.202420	-0.151430
H725	H	0.485575	0.535754	0.181903
H726	H	0.818908	0.869087	0.515236
H727	H	0.152277	0.150987	-0.203048
H728	H	0.485610	0.484320	0.130285
H729	H	0.818943	0.817653	0.463619
H730	H	0.036535	0.416790	-0.416547
H731	H	0.369869	0.750123	-0.083214
H732	H	0.703202	1.083457	0.250119
H733	H	0.036494	0.189902	-0.190378
H734	H	0.369827	0.523236	0.142955
H735	H	0.703161	0.856569	0.476289
H736	H	0.121599	0.189896	-0.190365
H737	H	0.454932	0.523229	0.142969
H738	H	0.788266	0.856562	0.476302
H739	H	0.701321	0.542956	-0.230431
H740	H	1.034655	0.876290	0.102903
H741	H	1.367988	1.209623	0.436236
