data_functionalizedCrystal
_audit_creation_method	'MofGen! by Chris Wilmer'
_symmetry_space_group_name_H-M	'P1'
_symmetry_Int_Tables_number	1
_symmetry_cell_setting	triclinic
loop_
_symmetry_equiv_pos_as_xyz
  x,y,z
_cell_length_a	11.169416
_cell_length_b	12.759401
_cell_length_c	12.759393
_cell_angle_alpha	90.020473
_cell_angle_beta	89.971874
_cell_angle_gamma	89.988135
loop_
_atom_site_label
_atom_site_type_symbol
_atom_site_fract_x
_atom_site_fract_y
_atom_site_fract_z
Zn1	Zn	-0.477694	-1.606293	-0.594041
Zn2	Zn	0.022306	-1.106293	-0.094041
Zn3	Zn	-0.678425	-1.606199	-0.418371
Zn4	Zn	-0.178425	-1.106199	0.081629
Zn5	Zn	-0.477759	-1.430594	-0.418377
Zn6	Zn	0.022241	-0.930594	0.081623
Zn7	Zn	-0.678339	-1.430597	-0.594008
Zn8	Zn	-0.178339	-0.930597	-0.094008
O9	O	-0.578054	-1.518421	-0.506199
O10	O	-0.078054	-1.018421	-0.006199
O11	O	-0.504329	-1.753302	-0.570750
O12	O	-0.004329	-1.253302	-0.070750
O13	O	-0.651869	-1.582864	-0.271350
O14	O	-0.151869	-1.082864	0.228650
O15	O	-0.309801	-1.453938	-0.441696
O16	O	0.190199	-0.953938	0.058304
O17	O	-0.651806	-1.753233	-0.441685
O18	O	-0.151806	-1.253233	0.058315
O19	O	-0.309753	-1.583024	-0.570756
O20	O	0.190247	-1.083024	-0.070756
O21	O	-0.504442	-1.453847	-0.271355
O22	O	-0.004442	-0.953847	0.228645
O23	O	-0.504358	-1.283573	-0.441663
O24	O	-0.004358	-0.783573	0.058337
O25	O	-0.651659	-1.453945	-0.741033
O26	O	-0.151659	-0.953945	-0.241033
O27	O	-0.651723	-1.283576	-0.570698
O28	O	-0.151723	-0.783576	-0.070698
O29	O	-0.504246	-1.583028	-0.741058
O30	O	-0.004246	-1.083028	-0.241058
O31	O	-0.846363	-1.582868	-0.441653
O32	O	-0.346363	-1.082868	0.058347
O33	O	-0.846300	-1.453854	-0.570692
O34	O	-0.346300	-0.953854	-0.070692
C35	C	-0.889879	-1.518379	-0.506191
C36	C	-0.389879	-1.018379	-0.006191
C37	C	-1.023279	-1.518458	-0.506223
C38	C	-0.523279	-1.018458	-0.006223
C39	C	-0.578039	-1.245454	-0.506178
C40	C	-0.078039	-0.745454	-0.006178
C41	C	-0.578062	-1.128677	-0.506194
C42	C	-0.078062	-0.628677	-0.006194
C43	C	-0.577936	-1.518497	-0.780233
C44	C	-0.077936	-1.018497	-0.280233
C45	C	-0.577885	-1.518530	-0.897009
C46	C	-0.077885	-1.018530	-0.397009
C47	C	-0.265012	-1.518491	-0.506230
C48	C	0.234988	-1.018491	-0.006230
C49	C	-0.131612	-1.518521	-0.506243
C50	C	0.368388	-1.018521	-0.006243
C51	C	-0.578070	-1.792454	-0.506221
C52	C	-0.078070	-1.292454	-0.006221
C53	C	-0.578076	-1.909231	-0.506230
C54	C	-0.078076	-1.409231	-0.006230
C55	C	-0.654912	-1.073844	-0.573277
C56	C	-0.154912	-0.573844	-0.073277
C57	C	-0.654916	-0.964120	-0.573298
C58	C	-0.154916	-0.464120	-0.073298
C59	C	-0.501218	-0.964071	-0.439144
C60	C	-0.001218	-0.464071	0.060856
C61	C	-0.501209	-1.073793	-0.439129
C62	C	-0.001209	-0.573793	0.060871
C63	C	-0.501070	-1.585770	-1.061617
C64	C	-0.001070	-1.085770	-0.561617
C65	C	-0.501116	-1.585750	-0.951893
C66	C	-0.001116	-1.085750	-0.451893
C67	C	-0.654622	-1.451333	-0.951856
C68	C	-0.154622	-0.951333	-0.451856
C69	C	-0.654580	-1.451359	-1.061578
C70	C	-0.154580	-0.951359	-0.561578
C71	C	-0.578085	-1.518405	-0.233232
C72	C	-0.078085	-1.018405	0.266768
C73	C	-0.577798	-1.518576	-0.116456
C74	C	-0.077798	-1.018576	0.383544
H75	H	-0.717493	-0.919480	-0.627925
H76	H	-0.217493	-0.419480	-0.127925
O77	O	-0.729156	-1.385898	-0.898669
O78	O	-0.229156	-0.885898	-0.398669
C79	C	-0.702909	-1.281194	-0.925452
C80	C	-0.202909	-0.781194	-0.425452
H81	H	-0.656726	-1.279040	-1.005117
H82	H	-0.156726	-0.779040	-0.505117
H83	H	-0.789533	-1.234080	-0.929204
H84	H	-0.289533	-0.734080	-0.429204
H85	H	-0.641247	-1.245793	-0.863696
H86	H	-0.141247	-0.745793	-0.363696
H87	H	-0.438649	-0.919372	-0.384540
H88	H	0.061351	-0.419372	0.115460
H89	H	-0.717068	-1.396641	-1.106228
H90	H	-0.217068	-0.896641	-0.606228
H91	H	-0.717488	-1.118527	-0.627889
H92	H	-0.217488	-0.618527	-0.127889
H93	H	-0.438621	-1.118440	-0.384502
H94	H	0.061379	-0.618440	0.115498
H95	H	-0.438548	-1.640502	-1.106296
H96	H	0.061452	-1.140502	-0.606296
H97	H	-0.438638	-1.640467	-0.907248
H98	H	0.061362	-1.140467	-0.407248
