data_functionalizedCrystal
_audit_creation_method	'MofGen! by Chris Wilmer'
_symmetry_space_group_name_H-M	'P1'
_symmetry_Int_Tables_number	1
_symmetry_cell_setting	triclinic
loop_
_symmetry_equiv_pos_as_xyz
  x,y,z
_cell_length_a	19.077236
_cell_length_b	18.050588
_cell_length_c	19.076919
_cell_angle_alpha	92.272257
_cell_angle_beta	89.887323
_cell_angle_gamma	92.322377
loop_
_atom_site_label
_atom_site_type_symbol
_atom_site_fract_x
_atom_site_fract_y
_atom_site_fract_z
Zn1	Zn	1.058268	-0.269585	-0.440545
Zn2	Zn	1.391602	0.063748	-0.107211
Zn3	Zn	1.724935	0.397082	0.226122
Zn4	Zn	1.062898	-0.388600	-0.323039
Zn5	Zn	1.396232	-0.055267	0.010294
Zn6	Zn	1.729565	0.278066	0.343627
Zn7	Zn	0.945484	-0.269196	-0.318325
Zn8	Zn	1.278817	0.064138	0.015008
Zn9	Zn	1.612151	0.397471	0.348342
Zn10	Zn	0.940717	-0.398508	-0.435778
Zn11	Zn	1.274050	-0.065175	-0.102444
Zn12	Zn	1.607384	0.268158	0.230889
O13	O	1.001842	-0.331472	-0.379422
O14	O	1.335175	0.001861	-0.046088
O15	O	1.668509	0.335194	0.287245
O16	O	1.157217	-0.281389	-0.428926
O17	O	1.490550	0.051944	-0.095592
O18	O	1.823883	0.385277	0.237741
O19	O	1.051256	-0.368452	-0.224083
O20	O	1.384589	-0.035118	0.109250
O21	O	1.717923	0.298215	0.442583
O22	O	0.960503	-0.165321	-0.334560
O23	O	1.293836	0.168012	-0.001226
O24	O	1.627169	0.501345	0.332107
O25	O	1.160618	-0.368829	-0.342595
O26	O	1.493952	-0.035496	-0.009262
O27	O	1.827285	0.297837	0.324072
O28	O	1.043365	-0.165607	-0.424354
O29	O	1.376698	0.167726	-0.091021
O30	O	1.710032	0.501059	0.242313
O31	O	0.964992	-0.280726	-0.220619
O32	O	1.298325	0.052608	0.112714
O33	O	1.631659	0.385941	0.446047
O34	O	0.846518	-0.290333	-0.329937
O35	O	1.179851	0.043001	0.003396
O36	O	1.513184	0.376334	0.336730
O37	O	0.952378	-0.385716	-0.534741
O38	O	1.285711	-0.052382	-0.201408
O39	O	1.619044	0.280951	0.131926
O40	O	0.843015	-0.385338	-0.416229
O41	O	1.176348	-0.052005	-0.082896
O42	O	1.509682	0.281329	0.250437
O43	O	1.038742	-0.290996	-0.538243
O44	O	1.372076	0.042337	-0.204910
O45	O	1.705409	0.375670	0.128423
O46	O	1.046633	-0.493841	-0.337973
O47	O	1.379967	-0.160507	-0.004639
O48	O	1.713300	0.172826	0.328694
O49	O	0.956867	-0.501120	-0.420801
O50	O	1.290200	-0.167787	-0.087467
O51	O	1.623534	0.165547	0.245866
C52	C	0.819269	-0.338869	-0.372055
C53	C	1.152603	-0.005536	-0.038721
C54	C	1.485936	0.327798	0.294612
C55	C	0.741163	-0.342052	-0.368920
C56	C	1.074497	-0.008718	-0.035586
C57	C	1.407830	0.324615	0.297747
C58	C	0.702696	-0.298100	-0.412463
C59	C	1.036029	0.035233	-0.079130
C60	C	1.369363	0.368567	0.254203
C61	C	0.629307	-0.301087	-0.409512
C62	C	0.962641	0.032246	-0.076178
C63	C	1.295974	0.365580	0.257155
C64	C	0.594387	-0.348030	-0.363019
C65	C	0.927721	-0.014696	-0.029686
C66	C	1.261054	0.318637	0.303647
C67	C	0.632860	-0.391983	-0.319471
C68	C	0.966194	-0.058650	0.013862
C69	C	1.299527	0.274684	0.347196
C70	C	0.706248	-0.388992	-0.322420
C71	C	1.039581	-0.055659	0.010914
C72	C	1.372914	0.277675	0.344247
C73	C	0.375093	-0.361846	-0.349370
C74	C	0.708426	-0.028512	-0.016037
C75	C	1.041760	0.304821	0.317297
C76	C	0.301700	-0.364835	-0.346426
C77	C	0.635033	-0.031502	-0.013093
C78	C	0.968367	0.301832	0.320240
C79	C	0.298152	-0.273938	-0.436466
C80	C	0.631486	0.059396	-0.103133
C81	C	0.964819	0.392729	0.230201
C82	C	0.371541	-0.270954	-0.439414
C83	C	0.704875	0.062380	-0.106080
C84	C	1.038208	0.395713	0.227253
C85	C	0.410008	-0.314904	-0.395863
C86	C	0.743341	0.018429	-0.062529
C87	C	1.076674	0.351763	0.270804
N88	N	0.519372	-0.351086	-0.360003
N89	N	0.852706	-0.017752	-0.026669
N90	N	1.186039	0.315581	0.306664
N91	N	0.485022	-0.311844	-0.398876
N92	N	0.818355	0.021489	-0.065543
N93	N	1.151688	0.354823	0.267790
C94	C	1.001754	-0.524427	-0.379397
C95	C	1.335087	-0.191094	-0.046064
C96	C	1.668420	0.142239	0.287270
C97	C	1.001779	-0.606973	-0.379413
C98	C	1.335113	-0.273639	-0.046079
C99	C	1.668446	0.059694	0.287254
C100	C	0.953038	-0.859781	-0.424458
C101	C	1.286372	-0.526447	-0.091125
C102	C	1.619705	-0.193114	0.242209
C103	C	1.016420	-0.808470	-0.444280
C104	C	1.349753	-0.475136	-0.110946
C105	C	1.683087	-0.141803	0.222387
C106	C	1.001924	-0.904089	-0.379458
C107	C	1.335257	-0.570755	-0.046124
C108	C	1.668590	-0.237422	0.287209
C109	C	0.938473	-0.808321	-0.359647
C110	C	1.271806	-0.474988	-0.026314
C111	C	1.605140	-0.141655	0.307020
C112	C	1.001849	-0.758106	-0.379437
C113	C	1.335183	-0.424773	-0.046104
C114	C	1.668516	-0.091439	0.287230
C115	C	1.065338	-0.853865	-0.399314
C116	C	1.398672	-0.520532	-0.065981
C117	C	1.732005	-0.187198	0.267353
C118	C	0.987349	-0.853721	-0.314650
C119	C	1.320683	-0.520388	0.018684
C120	C	1.654016	-0.187055	0.352017
C121	C	1.050776	-0.802430	-0.334449
C122	C	1.384110	-0.469097	-0.001116
C123	C	1.717443	-0.135763	0.332218
C124	C	1.001965	-0.988186	-0.379471
C125	C	1.335299	-0.654852	-0.046138
C126	C	1.668632	-0.321519	0.287195
C127	C	1.001815	-0.674010	-0.379424
C128	C	1.335148	-0.340677	-0.046090
C129	C	1.668481	-0.007344	0.287243
C130	C	1.185127	-0.324047	-0.386818
C131	C	1.518461	0.009286	-0.053485
C132	C	1.851794	0.342619	0.279849
C133	C	1.263233	-0.320883	-0.389970
C134	C	1.596566	0.012450	-0.056636
C135	C	1.929899	0.345783	0.276697
C136	C	0.994512	-0.339505	-0.562701
C137	C	1.327845	-0.006171	-0.229368
C138	C	1.661178	0.327162	0.103966
C139	C	0.991388	-0.342928	-0.640804
C140	C	1.324721	-0.009594	-0.307471
C141	C	1.658055	0.323739	0.025863
C142	C	1.001949	-0.137764	-0.379463
C143	C	1.335282	0.195569	-0.046129
C144	C	1.668616	0.528903	0.287204
C145	C	1.001995	-0.055217	-0.379480
C146	C	1.335328	0.278116	-0.046147
C147	C	1.668661	0.611450	0.287187
C148	C	1.034884	-0.295223	-0.679321
C149	C	1.368217	0.038111	-0.345988
C150	C	1.701550	0.371444	-0.012655
C151	C	1.031940	-0.298436	-0.752707
C152	C	1.365273	0.034897	-0.419373
C153	C	1.698607	0.368230	-0.086040
C154	C	0.985504	-0.349359	-0.787574
C155	C	1.318837	-0.016026	-0.454240
C156	C	1.652170	0.317308	-0.120907
C157	C	0.942003	-0.397066	-0.749051
C158	C	1.275337	-0.063733	-0.415718
C159	C	1.608670	0.269601	-0.082384
C160	C	0.944944	-0.393848	-0.675667
C161	C	1.278277	-0.060515	-0.342333
C162	C	1.611611	0.272818	-0.009000
C163	C	0.971884	-0.364268	-1.006853
C164	C	1.305218	-0.030934	-0.673520
C165	C	1.638551	0.302399	-0.340187
C166	C	0.968948	-0.367483	-1.080243
C167	C	1.302282	-0.034150	-0.746909
C168	C	1.635615	0.299183	-0.413576
C169	C	1.058884	-0.268852	-1.083893
C170	C	1.392218	0.064481	-0.750560
C171	C	1.725551	0.397814	-0.417227
C172	C	1.061824	-0.265642	-1.010508
C173	C	1.395157	0.067691	-0.677174
C174	C	1.728491	0.401025	-0.343841
C175	C	1.018321	-0.313346	-0.971991
C176	C	1.351654	0.019987	-0.638658
C177	C	1.684988	0.353320	-0.305325
N178	N	0.982495	-0.352647	-0.862585
N179	N	1.315829	-0.019314	-0.529252
N180	N	1.649162	0.314020	-0.195919
N181	N	1.021326	-0.310054	-0.896981
N182	N	1.354660	0.023279	-0.563647
N183	N	1.687993	0.356612	-0.230314
C184	C	1.009184	-0.323416	-0.196857
C185	C	1.342517	0.009917	0.136476
C186	C	1.675851	0.343251	0.469810
C187	C	1.012444	-0.319778	-0.118760
C188	C	1.345777	0.013555	0.214573
C189	C	1.679111	0.346888	0.547907
H190	H	0.737567	-0.424781	-0.286961
H191	H	1.070900	-0.091448	0.046372
H192	H	1.404234	0.241885	0.379705
H193	H	0.904191	-0.438526	-0.777445
H194	H	1.237525	-0.105193	-0.444112
H195	H	1.570858	0.228141	-0.110779
H196	H	0.273271	-0.403065	-0.308566
H197	H	0.606604	-0.069732	0.024767
H198	H	0.939937	0.263601	0.358100
H199	H	0.909518	-0.432688	-0.644306
H200	H	1.242851	-0.099354	-0.310973
H201	H	1.576185	0.233979	0.022360
C202	C	1.085961	-0.239204	-0.640974
C203	C	1.419294	0.094130	-0.307640
C204	C	1.752627	0.427463	0.025693
H205	H	1.111437	-0.211248	-0.674426
H206	H	1.444771	0.122086	-0.341093
H207	H	1.778104	0.455419	-0.007760
H208	H	1.117711	-0.265112	-0.613576
H209	H	1.451045	0.068222	-0.280242
H210	H	1.784378	0.401555	0.053091
H211	H	1.060237	-0.206677	-0.611270
H212	H	1.393571	0.126656	-0.277937
H213	H	1.726904	0.459990	0.055397
C214	C	1.106639	-0.768762	-0.283033
C215	C	1.439972	-0.435429	0.050301
C216	C	1.773305	-0.102095	0.383634
H217	H	1.151639	-0.784405	-0.297212
H218	H	1.484972	-0.451072	0.036122
H219	H	1.818306	-0.117739	0.369455
H220	H	1.096695	-0.784941	-0.237156
H221	H	1.430029	-0.451608	0.096178
H222	H	1.763362	-0.118275	0.429511
H223	H	1.106054	-0.716160	-0.283025
H224	H	1.439387	-0.382827	0.050309
H225	H	1.772720	-0.049494	0.383642
H226	H	0.975029	-0.873685	-0.259866
H227	H	1.308363	-0.540352	0.073467
H228	H	1.641696	-0.207019	0.406800
H229	H	0.731122	-0.259876	-0.450324
H230	H	1.064456	0.073457	-0.116991
H231	H	1.397789	0.406791	0.216343
H232	H	1.094301	-0.230013	-1.115261
H233	H	1.427634	0.103320	-0.781928
H234	H	1.760968	0.436653	-0.448595
C235	C	0.866033	-0.781186	-0.337036
C236	C	1.199366	-0.447853	-0.003702
C237	C	1.532700	-0.114519	0.329631
H238	H	0.831385	-0.800926	-0.369071
H239	H	1.164719	-0.467593	-0.035737
H240	H	1.498052	-0.134259	0.297596
H241	H	0.866666	-0.728527	-0.336786
H242	H	1.200000	-0.395194	-0.003452
H243	H	1.533333	-0.061861	0.329881
H244	H	0.855351	-0.797373	-0.291310
H245	H	1.188685	-0.464039	0.042024
H246	H	1.522018	-0.130706	0.375357
H247	H	0.604423	-0.430201	-0.281613
H248	H	0.937756	-0.096868	0.051721
H249	H	1.271089	0.236465	0.385054
H250	H	0.931132	-0.408953	-1.108629
H251	H	1.264466	-0.075619	-0.775296
H252	H	1.597799	0.257714	-0.441962
C253	C	0.586993	-0.252747	-0.457413
C254	C	0.920326	0.080587	-0.124079
C255	C	1.253659	0.413920	0.209254
H256	H	0.538285	-0.261244	-0.448995
H257	H	0.871618	0.072089	-0.115661
H258	H	1.204951	0.405422	0.217672
H259	H	0.597137	-0.265276	-0.505089
H260	H	0.930470	0.068057	-0.171756
H261	H	1.263804	0.401391	0.161577
H262	H	0.599444	-0.201890	-0.447697
H263	H	0.932777	0.131443	-0.114363
H264	H	1.266111	0.464777	0.218970
C265	C	0.897303	-0.893632	-0.475919
C266	C	1.230637	-0.560298	-0.142586
C267	C	1.563970	-0.226965	0.190747
H268	H	0.907752	-0.878184	-0.521943
H269	H	1.241085	-0.544851	-0.188610
H270	H	1.574418	-0.211518	0.144724
H271	H	0.852352	-0.877379	-0.462307
H272	H	1.185685	-0.544045	-0.128974
H273	H	1.519019	-0.210712	0.204360
H274	H	0.897436	-0.946224	-0.475265
H275	H	1.230769	-0.612890	-0.141931
H276	H	1.564102	-0.279557	0.191402
H277	H	1.067360	-0.259592	-0.784065
H278	H	1.400694	0.073742	-0.450731
H279	H	1.734027	0.407075	-0.117398
H280	H	0.406404	-0.397634	-0.313909
H281	H	0.739737	-0.064300	0.019425
H282	H	1.073070	0.269033	0.352758
C283	C	1.112904	-0.209627	-0.972159
C284	C	1.446237	0.123706	-0.638826
C285	C	1.779571	0.457039	-0.305492
H286	H	1.138385	-0.181672	-1.005610
H287	H	1.471718	0.151661	-0.672276
H288	H	1.805051	0.484995	-0.338943
H289	H	1.144651	-0.235544	-0.944764
H290	H	1.477984	0.097789	-0.611431
H291	H	1.811317	0.431123	-0.278097
H292	H	1.087186	-0.177099	-0.942452
H293	H	1.420520	0.156235	-0.609119
H294	H	1.753853	0.489568	-0.275785
H295	H	1.028720	-0.788524	-0.499078
H296	H	1.362054	-0.455190	-0.165745
H297	H	1.695387	-0.121857	0.167589
C298	C	0.924039	-0.416744	-0.964491
C299	C	1.257373	-0.083410	-0.631158
C300	C	1.590706	0.249923	-0.297825
H301	H	0.932433	-0.407533	-0.915792
H302	H	1.265766	-0.074199	-0.582459
H303	H	1.599099	0.259134	-0.249125
H304	H	0.933814	-0.466753	-0.976923
H305	H	1.267148	-0.133419	-0.643590
H306	H	1.600481	0.199914	-0.310256
H307	H	0.876348	-0.408310	-0.974615
H308	H	1.209681	-0.074977	-0.641281
H309	H	1.543014	0.258357	-0.307948
C310	C	0.409951	-0.219322	-0.490557
C311	C	0.743285	0.114012	-0.157224
C312	C	1.076618	0.447345	0.176110
H313	H	0.459167	-0.223842	-0.486083
H314	H	0.792501	0.109491	-0.152749
H315	H	1.125834	0.442825	0.180584
H316	H	0.398352	-0.169447	-0.479881
H317	H	0.731685	0.163887	-0.146548
H318	H	1.065018	0.497220	0.186785
H319	H	0.396038	-0.232838	-0.537269
H320	H	0.729372	0.100496	-0.203936
H321	H	1.062705	0.433829	0.129398
C322	C	0.255838	-0.225590	-0.484361
C323	C	0.589172	0.107744	-0.151028
C324	C	0.922505	0.441077	0.182306
H325	H	0.207130	-0.234088	-0.475944
H326	H	0.540464	0.099246	-0.142611
H327	H	0.873797	0.432579	0.190723
H328	H	0.265982	-0.238110	-0.532039
H329	H	0.599316	0.095223	-0.198706
H330	H	0.932649	0.428557	0.134627
H331	H	0.268291	-0.174735	-0.474636
H332	H	0.601625	0.158598	-0.141303
H333	H	0.934958	0.491932	0.192031
C334	C	1.137802	-0.880850	-0.422026
C335	C	1.471136	-0.547516	-0.088693
C336	C	1.804469	-0.214183	0.244640
H337	H	1.137380	-0.933493	-0.421918
H338	H	1.470713	-0.600160	-0.088585
H339	H	1.804046	-0.266826	0.244748
H340	H	1.172517	-0.860724	-0.390263
H341	H	1.505851	-0.527391	-0.056930
H342	H	1.839184	-0.194058	0.276404
H343	H	1.148207	-0.864989	-0.467921
H344	H	1.481541	-0.531656	-0.134588
H345	H	1.814874	-0.198322	0.198746
