data_functionalizedCrystal
_audit_creation_method	'MofGen! by Chris Wilmer'
_symmetry_space_group_name_H-M	'P1'
_symmetry_Int_Tables_number	1
_symmetry_cell_setting	triclinic
loop_
_symmetry_equiv_pos_as_xyz
  x,y,z
_cell_length_a	13.033304
_cell_length_b	13.032868
_cell_length_c	13.033288
_cell_angle_alpha	90.885024
_cell_angle_beta	76.656197
_cell_angle_gamma	105.190463
loop_
_atom_site_label
_atom_site_type_symbol
_atom_site_fract_x
_atom_site_fract_y
_atom_site_fract_z
Zn1	Zn	-1.689064	0.098096	0.818281
Zn2	Zn	-1.355730	0.431429	1.151614
Zn3	Zn	-1.022397	0.764763	1.484947
Zn4	Zn	-1.643821	0.298255	0.663174
Zn5	Zn	-1.310487	0.631588	0.996507
Zn6	Zn	-0.977154	0.964922	1.329841
Zn7	Zn	-1.483167	0.148894	0.623790
Zn8	Zn	-1.149833	0.482228	0.957124
Zn9	Zn	-0.816500	0.815561	1.290457
Zn10	Zn	-1.488795	0.298221	0.818142
Zn11	Zn	-1.155462	0.631554	1.151475
Zn12	Zn	-0.822128	0.964888	1.484809
O13	O	-1.576211	0.210867	0.730847
O14	O	-1.242878	0.544200	1.064180
O15	O	-0.909545	0.877533	1.397514
O16	O	-1.834109	0.103402	0.814246
O17	O	-1.500776	0.436736	1.147579
O18	O	-1.167443	0.770069	1.480912
O19	O	-1.601220	0.299715	0.511700
O20	O	-1.267887	0.633049	0.845034
O21	O	-0.934553	0.966382	1.178367
O22	O	-1.527058	-0.004105	0.633166
O23	O	-1.193725	0.329228	0.966499
O24	O	-0.860392	0.662562	1.299833
O25	O	-1.800870	0.250458	0.700289
O26	O	-1.467536	0.583792	1.033623
O27	O	-1.134203	0.917125	1.366956
O28	O	-1.678330	-0.041426	0.776057
O29	O	-1.344996	0.291907	1.109390
O30	O	-1.011663	0.625240	1.442724
O31	O	-1.483188	0.189981	0.482765
O32	O	-1.149855	0.523314	0.816099
O33	O	-0.816521	0.856648	1.149432
O34	O	-1.332866	0.189948	0.633031
O35	O	-0.999533	0.523281	0.966365
O36	O	-0.666199	0.856615	1.299698
O37	O	-1.536651	0.250401	0.964410
O38	O	-1.203317	0.583734	1.297743
O39	O	-0.869984	0.917067	1.631077
O40	O	-1.337001	0.299658	0.775821
O41	O	-1.003668	0.632991	1.109154
O42	O	-0.670334	0.966325	1.442487
O43	O	-1.683787	0.103370	0.964512
O44	O	-1.350454	0.436703	1.297845
O45	O	-1.017121	0.770036	1.631178
O46	O	-1.606677	0.444511	0.700155
O47	O	-1.273344	0.777845	1.033488
O48	O	-0.940011	1.111178	1.366822
O49	O	-1.492781	0.444487	0.814009
O50	O	-1.159447	0.777820	1.147343
O51	O	-0.826114	1.111153	1.480676
C52	C	-1.295769	0.250312	0.700138
C53	C	-0.962435	0.583646	1.033471
C54	C	-0.629102	0.916979	1.366805
C55	C	-1.175795	0.267209	0.687028
C56	C	-0.842461	0.600542	1.020362
C57	C	-0.509128	0.933876	1.353695
C58	C	-1.138756	0.202066	0.737676
C59	C	-0.805422	0.535399	1.071010
C60	C	-0.472089	0.868733	1.404343
C61	C	-1.014757	0.219528	0.724128
C62	C	-0.681423	0.552861	1.057462
C63	C	-0.348090	0.886194	1.390795
C64	C	-1.545463	0.482415	0.761367
C65	C	-1.212130	0.815749	1.094700
C66	C	-0.878796	1.149082	1.428034
C67	C	-1.532412	0.598566	0.774469
C68	C	-1.199079	0.931899	1.107802
C69	C	-0.865746	1.265233	1.441136
C70	C	-1.615894	0.171215	1.003442
C71	C	-1.282560	0.504548	1.336775
C72	C	-0.949227	0.837882	1.670109
C73	C	-1.632804	0.154318	1.119606
C74	C	-1.299470	0.487651	1.452939
C75	C	-0.966137	0.820984	1.786273
C76	C	-0.857749	0.171263	0.761668
C77	C	-0.524416	0.504597	1.095002
C78	C	-0.191082	0.837930	1.428335
C79	C	-0.977723	0.154376	0.774783
C80	C	-0.644389	0.487709	1.108117
C81	C	-0.311056	0.821042	1.441450
C82	C	-1.583013	0.650312	0.724032
C83	C	-1.249679	0.983646	1.057365
C84	C	-0.916346	1.316979	1.390698
C85	C	-1.569526	0.770360	0.737572
C86	C	-1.236192	1.103693	1.070906
C87	C	-0.902859	1.437027	1.404239
C88	C	-1.607076	0.938257	0.700218
C89	C	-1.273742	1.271590	1.033552
C90	C	-0.940409	1.604923	1.366885
C91	C	-1.620133	0.822104	0.687128
C92	C	-1.286800	1.155437	1.020461
C93	C	-0.953466	1.488770	1.353794
C94	C	-1.585016	0.202075	1.291407
C95	C	-1.251683	0.535409	1.624741
C96	C	-0.918349	0.868742	1.958074
C97	C	-1.567536	0.219540	1.171345
C98	C	-1.234202	0.552873	1.504679
C99	C	-0.900869	0.886207	1.838012
C100	C	-1.536672	0.250389	1.459314
C101	C	-1.203338	0.583723	1.792647
C102	C	-0.870005	0.917056	2.125980
C103	C	-1.519757	0.267289	1.343149
C104	C	-1.186424	0.600622	1.676483
C105	C	-0.853091	0.933955	2.009816
H106	H	-1.037808	0.085667	0.828173
H107	H	-0.704475	0.419000	1.161506
H108	H	-0.371141	0.752334	1.494840
H109	H	-1.701623	0.085554	1.164188
H110	H	-1.368290	0.418887	1.497521
H111	H	-1.034956	0.752220	1.830854
H112	H	-1.516221	0.814928	0.790786
H113	H	-1.182888	1.148261	1.124120
H114	H	-0.849554	1.481595	1.457453
H115	H	-1.115705	0.335906	0.633634
H116	H	-0.782371	0.669239	0.966968
H117	H	-0.449038	1.002572	1.300301
H118	H	-1.450949	0.336053	1.298564
H119	H	-1.117616	0.669386	1.631897
H120	H	-0.784283	1.002720	1.965230
H121	H	-1.673448	0.777535	0.633922
H122	H	-1.340114	1.110868	0.967255
H123	H	-1.006781	1.444201	1.300589
H124	H	-1.198845	0.133364	0.791064
H125	H	-0.865512	0.466697	1.124397
H126	H	-0.532179	0.800031	1.457731
H127	H	-1.636324	0.605741	0.670829
H128	H	-1.302991	0.939074	1.004163
H129	H	-0.969657	1.272407	1.337496
H130	H	-1.479111	0.643138	0.827680
H131	H	-1.145778	0.976471	1.161013
H132	H	-0.812445	1.309804	1.494346
H133	H	-1.653831	0.133318	1.335995
H134	H	-1.320498	0.466651	1.669328
H135	H	-0.987165	0.799985	2.002661
H136	H	-0.954670	0.288229	0.670730
H137	H	-0.621336	0.621563	1.004064
H138	H	-0.288003	0.954896	1.337397
H139	H	-1.498723	0.288309	1.126764
H140	H	-1.165390	0.621643	1.460097
H141	H	-0.832056	0.954976	1.793430
