data_functionalizedCrystal
_audit_creation_method	'MofGen! by Chris Wilmer'
_symmetry_space_group_name_H-M	'P1'
_symmetry_Int_Tables_number	1
_symmetry_cell_setting	triclinic
loop_
_symmetry_equiv_pos_as_xyz
  x,y,z
_cell_length_a	12.827893
_cell_length_b	15.297327
_cell_length_c	12.827885
_cell_angle_alpha	99.642715
_cell_angle_beta	89.980728
_cell_angle_gamma	99.706564
loop_
_atom_site_label
_atom_site_type_symbol
_atom_site_fract_x
_atom_site_fract_y
_atom_site_fract_z
Zn1	Zn	1.525601	-0.359117	-0.662774
Zn2	Zn	1.495216	-0.510002	-0.518254
Zn3	Zn	1.350834	-0.359161	-0.488057
Zn4	Zn	1.320562	-0.509935	-0.692941
O5	O	1.423053	-0.434554	-0.590506
O6	O	1.667805	-0.379142	-0.643616
O7	O	1.476016	-0.490040	-0.368022
O8	O	1.399403	-0.232910	-0.485971
O9	O	1.645481	-0.489997	-0.537438
O10	O	1.527804	-0.232878	-0.614335
O11	O	1.369939	-0.379217	-0.345836
O12	O	1.200584	-0.379152	-0.515222
O13	O	1.347808	-0.489883	-0.835166
O14	O	1.178343	-0.489925	-0.665749
O15	O	1.498450	-0.379077	-0.813003
O16	O	1.446662	-0.636239	-0.566689
O17	O	1.318345	-0.636189	-0.695031
C18	C	1.151547	-0.434537	-0.590483
C19	C	1.035391	-0.434551	-0.590502
C20	C	1.375950	-0.668948	-0.637433
C21	C	1.355894	-0.769223	-0.657544
C22	C	0.972611	-0.489451	-0.664907
C23	C	0.852558	-0.489467	-0.664929
C24	C	1.566825	-1.051858	-0.447130
C25	C	1.585667	-0.957645	-0.428230
C26	C	1.528226	-0.910535	-0.485557
C27	C	1.451938	-0.957647	-0.561787
C28	C	1.433088	-1.051869	-0.580683
C29	C	1.394489	-0.910546	-0.619110
C30	C	1.318201	-0.957658	-0.695340
C31	C	1.299355	-1.051871	-0.714233
C32	C	1.356796	-1.098981	-0.656906
C33	C	1.413339	-0.816324	-0.600214
C34	C	1.279602	-0.816335	-0.733767
C35	C	1.260760	-0.910548	-0.752667
C36	C	1.695620	-0.434572	-0.590531
C37	C	1.811771	-0.434580	-0.590541
C38	C	1.423142	-0.434468	-0.863059
C39	C	1.423180	-0.434431	-0.979205
C40	C	1.470370	-0.199245	-0.543419
C41	C	1.490533	-0.098970	-0.523353
C42	C	1.497731	-0.379590	-1.020021
C43	C	1.497772	-0.379551	-1.140063
C44	C	1.423038	-0.434575	-0.319001
C45	C	1.423254	-0.434358	-0.202805
H46	H	1.007743	-0.536437	-0.728595
H47	H	1.475453	-0.777973	-0.538147
H48	H	0.798610	-0.536471	-0.728627
H49	H	1.359378	-0.481347	-1.033131
O50	O	1.573789	-0.323436	-1.182004
C51	C	1.525961	-0.265209	-1.233503
H52	H	1.444799	-0.259620	-1.199423
H53	H	1.577712	-0.195782	-1.220955
H54	H	1.516695	-0.293139	-1.321772
O55	O	1.573894	-0.323524	-0.955840
C56	C	1.643237	-0.272543	-1.017100
H57	H	1.601173	-0.269330	-1.094287
H58	H	1.668633	-0.201498	-0.971267
H59	H	1.715975	-0.305573	-1.035283
H60	H	1.359428	-0.481315	-1.167670
O61	O	1.546530	-0.819017	-0.467396
C62	C	1.579659	-0.787455	-0.561235
H63	H	1.550923	-0.841725	-0.632298
H64	H	1.545116	-0.724446	-0.567137
H65	H	1.669723	-0.770672	-0.560154
H66	H	1.613579	-1.090224	-0.400457
H67	H	0.865711	-0.387579	-0.526834
H68	H	1.000261	-0.387558	-0.526821
H69	H	1.237224	-1.090228	-0.776293
O70	O	1.659702	-0.911985	-0.354067
C71	C	1.632285	-0.935076	-0.254523
H72	H	1.578420	-1.003512	-0.266048
H73	H	1.707089	-0.938281	-0.208376
H74	H	1.589177	-0.882109	-0.208653
O75	O	1.338687	-1.190503	-0.675268
C76	C	1.432547	-1.221881	-0.708513
H77	H	1.503611	-1.167549	-0.679818
H78	H	1.438546	-1.284929	-0.674038
H79	H	1.431382	-1.238542	-0.798565
H80	H	1.198645	-0.948920	-0.814734
O81	O	1.223958	-0.770542	-0.789566
C82	C	1.294342	-0.715943	-0.846145
H83	H	1.370974	-0.744277	-0.858354
H84	H	1.256723	-0.714846	-0.926314
H85	H	1.312243	-0.644556	-0.799520
