data_functionalizedCrystal
_audit_creation_method	'MofGen! by Chris Wilmer'
_symmetry_space_group_name_H-M	'P1'
_symmetry_Int_Tables_number	1
_symmetry_cell_setting	triclinic
loop_
_symmetry_equiv_pos_as_xyz
  x,y,z
_cell_length_a	27.731994
_cell_length_b	27.732048
_cell_length_c	14.048226
_cell_angle_alpha	89.988614
_cell_angle_beta	89.999619
_cell_angle_gamma	82.631595
loop_
_atom_site_label
_atom_site_type_symbol
_atom_site_fract_x
_atom_site_fract_y
_atom_site_fract_z
O1	O	0.640946	0.057393	-0.079035
O2	O	1.140946	0.557393	0.420965
O3	O	0.500148	0.066166	-0.079068
O4	O	1.000148	0.566166	0.420932
O5	O	0.574920	-0.008618	-0.079032
O6	O	1.074920	0.491382	0.420968
O7	O	0.566174	0.132177	-0.079071
O8	O	1.066174	0.632177	0.420929
O9	O	0.574911	-0.008622	0.079289
O10	O	1.074911	0.491378	0.579289
O11	O	0.500139	0.066162	0.079253
O12	O	1.000139	0.566162	0.579253
O13	O	0.640937	0.057389	0.079286
O14	O	1.140937	0.557389	0.579286
Zn15	Zn	0.570537	0.061775	0.104407
Zn16	Zn	1.070537	0.561775	0.604407
Zn17	Zn	0.570548	0.061780	-0.104188
Zn18	Zn	1.070548	0.561780	0.395812
O19	O	0.566165	0.132173	0.079251
O20	O	1.066165	0.632173	0.579251
C21	C	0.482137	0.065984	0.000089
C22	C	0.982137	0.565984	0.500089
C23	C	0.428480	0.065442	0.000077
C24	C	0.928480	0.565442	0.500077
C25	C	0.574732	-0.026627	0.000131
C26	C	1.074732	0.473373	0.500131
C27	C	0.574179	-0.080282	0.000139
C28	C	1.074179	0.419718	0.500139
C29	C	0.095757	0.062023	0.086415
C30	C	0.595757	0.562023	0.586415
C31	C	-0.105901	0.059962	0.086427
C32	C	0.394099	0.559962	0.586427
O33	O	-0.131978	0.059673	0.159822
O34	O	0.368022	0.559673	0.659822
N35	N	-0.131111	0.059708	0.000126
N36	N	0.368889	0.559708	0.500126
C37	C	-0.105903	0.059967	-0.086184
C38	C	0.394097	0.559967	0.413816
O39	O	-0.131972	0.059699	-0.159588
O40	O	0.368028	0.559699	0.340412
C41	C	0.095755	0.062025	-0.086194
C42	C	0.595755	0.562025	0.413806
C43	C	0.120961	0.062283	0.000112
C44	C	0.620961	0.562283	0.500112
C45	C	0.120964	0.062282	0.172715
C46	C	0.620964	0.562282	0.672715
C47	C	0.171375	0.062800	0.172711
C48	C	0.671375	0.562800	0.672711
C49	C	0.196579	0.063060	0.086408
C50	C	0.696579	0.563060	0.586408
C51	C	0.171372	0.062801	0.000108
C52	C	0.671372	0.562801	0.500108
C53	C	0.120962	0.062280	-0.172503
C54	C	0.620962	0.562280	0.327497
C55	C	0.171380	0.062793	-0.172498
C56	C	0.671380	0.562793	0.327502
C57	C	0.196587	0.063052	-0.086192
C58	C	0.696587	0.563052	0.413808
C59	C	0.246988	0.063579	-0.086198
C60	C	0.746988	0.563579	0.413802
N61	N	0.272198	0.063833	0.000102
N62	N	0.772198	0.563833	0.500102
C63	C	0.246994	0.063573	0.086406
C64	C	0.746994	0.563573	0.586406
C65	C	-0.211776	0.058887	-0.086172
C66	C	0.288224	0.558887	0.413828
C67	C	-0.262191	0.058373	-0.086170
C68	C	0.237809	0.558373	0.413830
C69	C	-0.262185	0.058368	0.086441
C70	C	0.237815	0.558368	0.586441
C71	C	-0.211771	0.058885	0.086438
C72	C	0.288229	0.558885	0.586438
C73	C	-0.186566	0.059141	0.000128
C74	C	0.313434	0.559141	0.500128
C75	C	0.352861	0.064662	0.086391
C76	C	0.852861	0.564662	0.586391
C77	C	0.403276	0.065182	0.086380
C78	C	0.903276	0.565182	0.586380
C79	C	0.403266	0.065185	-0.086230
C80	C	0.903266	0.565185	0.413770
C81	C	0.352855	0.064667	-0.086220
C82	C	0.852855	0.564667	0.413780
C83	C	0.327654	0.064404	0.000099
C84	C	0.827654	0.564404	0.500099
O85	O	0.273096	0.063864	-0.159555
O86	O	0.773096	0.563864	0.340445
O87	O	0.273073	0.063831	0.159799
O88	O	0.773073	0.563831	0.659799
C89	C	0.045346	0.061505	0.086419
C90	C	0.545346	0.561505	0.586419
C91	C	0.020139	0.061247	0.000120
C92	C	0.520139	0.561247	0.500120
C93	C	0.045343	0.061507	-0.086183
C94	C	0.545343	0.561507	0.413817
C95	C	-0.030275	0.060734	0.000122
C96	C	0.469725	0.560734	0.500122
C97	C	-0.055480	0.060474	0.086425
C98	C	0.444520	0.560474	0.586425
C99	C	-0.030270	0.060727	0.172726
C100	C	0.469730	0.560727	0.672726
C101	C	0.020141	0.061245	0.172722
C102	C	0.520141	0.561245	0.672722
C103	C	0.020133	0.061254	-0.172484
C104	C	0.520133	0.561254	0.327516
C105	C	-0.030278	0.060736	-0.172474
C106	C	0.469722	0.560736	0.327526
C107	C	-0.055482	0.060476	-0.086170
C108	C	0.444518	0.560476	0.413830
C109	C	0.614884	-0.419105	0.000099
C110	C	1.114884	0.080895	0.500099
C111	C	0.612833	-0.620764	0.000086
C112	C	1.112833	-0.120764	0.500086
O113	O	0.650055	-0.652027	0.000053
O114	O	1.150055	-0.152027	0.500053
N115	N	0.568496	-0.639879	0.000076
N116	N	1.068496	-0.139879	0.500076
C117	C	0.524670	-0.608576	0.000064
C118	C	1.024670	-0.108576	0.500064
O119	O	0.486912	-0.629462	0.000045
O120	O	0.986912	-0.129462	0.500045
C121	C	0.526721	-0.406918	0.000071
C122	C	1.026721	0.093082	0.500071
C123	C	0.571061	-0.387805	0.000090
C124	C	1.071061	0.112195	0.500090
C125	C	0.659220	-0.399992	0.000117
C126	C	1.159220	0.100008	0.500117
C127	C	0.659732	-0.349580	0.000126
C128	C	1.159732	0.150420	0.500126
C129	C	0.615908	-0.318281	0.000116
C130	C	1.115908	0.181719	0.500116
C131	C	0.571573	-0.337394	0.000098
C132	C	1.071573	0.162606	0.500098
C133	C	0.482895	-0.375615	0.000051
C134	C	0.982895	0.124385	0.500051
C135	C	0.483412	-0.325198	0.000051
C136	C	0.983412	0.174802	0.500051
C137	C	0.527751	-0.306086	0.000070
C138	C	1.027751	0.193914	0.500070
C139	C	0.528262	-0.255683	0.000098
C140	C	1.028262	0.244317	0.500098
N141	N	0.572598	-0.236567	0.000107
N142	N	1.072598	0.263433	0.500107
C143	C	0.616421	-0.267867	0.000117
C144	C	1.116421	0.232133	0.500117
C145	C	0.523596	-0.714450	0.000062
C146	C	1.023596	-0.214450	0.500062
C147	C	0.523083	-0.764864	0.000062
C148	C	1.023083	-0.264864	0.500062
C149	C	0.611246	-0.777049	0.000082
C150	C	1.111246	-0.277049	0.500082
C151	C	0.611759	-0.726633	0.000089
C152	C	1.111759	-0.226633	0.500089
C153	C	0.567932	-0.695335	0.000071
C154	C	1.067932	-0.195335	0.500071
C155	C	0.617494	-0.161998	0.000135
C156	C	1.117494	0.338002	0.500135
C157	C	0.618002	-0.111581	0.000148
C158	C	1.118002	0.388419	0.500148
C159	C	0.529839	-0.099401	0.000123
C160	C	1.029839	0.400599	0.500123
C161	C	0.529331	-0.149813	0.000115
C162	C	1.029331	0.350187	0.500115
C163	C	0.573162	-0.181111	0.000118
C164	C	1.073162	0.318889	0.500118
O165	O	0.491060	-0.224391	0.000120
O166	O	0.991060	0.275609	0.500120
O167	O	0.654174	-0.246971	0.000114
O168	O	1.154174	0.253029	0.500114
C169	C	0.614372	-0.469517	0.000091
C170	C	1.114372	0.030483	0.500091
C171	C	0.570036	-0.488629	0.000072
C172	C	1.070036	0.011371	0.500072
C173	C	0.526213	-0.457330	0.000063
C174	C	1.026213	0.042670	0.500063
C175	C	0.569523	-0.539043	0.000072
C176	C	1.069523	-0.039043	0.500072
C177	C	0.613346	-0.570343	0.000082
C178	C	1.113346	-0.070343	0.500082
C179	C	0.657683	-0.551228	0.000091
C180	C	1.157683	-0.051228	0.500091
C181	C	0.658195	-0.500816	0.000100
C182	C	1.158195	-0.000816	0.500100
C183	C	0.481876	-0.476445	0.000053
C184	C	0.981876	0.023555	0.500053
C185	C	0.481367	-0.526857	0.000046
C186	C	0.981367	-0.026857	0.500046
C187	C	0.525191	-0.558157	0.000055
C188	C	1.025191	-0.058157	0.500055
C189	C	0.658949	0.057571	0.000128
C190	C	1.158949	0.557571	0.500128
C191	C	0.712605	0.058114	0.000133
C192	C	1.212605	0.558114	0.500133
C193	C	0.566353	0.150182	0.000085
C194	C	1.066353	0.650182	0.500085
C195	C	0.566906	0.203837	0.000071
C196	C	1.066906	0.703837	0.500071
N197	N	0.570532	0.061771	0.246767
N198	N	1.070532	0.561771	0.746767
N199	N	0.570557	0.061781	-0.246549
N200	N	1.070557	0.561781	0.253451
C201	C	0.603651	0.028670	0.296601
C202	C	1.103651	0.528670	0.796601
C203	C	0.603655	0.028669	0.396259
C204	C	1.103655	0.528669	0.896259
C205	C	0.570541	0.061773	0.446081
C206	C	1.070541	0.561773	0.946081
C207	C	0.537418	0.094875	0.396240
C208	C	1.037418	0.594875	0.896240
C209	C	0.537413	0.094873	0.296584
C210	C	1.037413	0.594873	0.796584
C211	C	0.537432	0.094878	0.603954
C212	C	1.037432	0.594878	1.103954
C213	C	0.537438	0.094882	0.703617
C214	C	1.037438	0.594882	1.203617
C215	C	0.603674	0.028675	0.703629
C216	C	1.103674	0.528675	1.203629
C217	C	0.603668	0.028673	0.603973
C218	C	1.103668	0.528673	1.103973
C219	C	0.570546	0.061776	0.554139
C220	C	1.070546	0.561776	1.054139
H221	H	0.423797	0.065394	0.156664
H222	H	0.923797	0.565394	0.656664
H223	H	0.510444	0.121826	0.256010
H224	H	1.010444	0.621826	0.756010
H225	H	0.445258	-0.542413	0.000039
H226	H	0.945258	-0.042413	0.500039
Cl227	Cl	0.672597	-0.201336	0.000141
Cl228	Cl	1.172597	0.298664	0.500141
H229	H	-0.282711	0.058171	-0.156449
H230	H	0.217289	0.558171	0.343551
Cl231	Cl	0.089287	0.061958	0.281225
Cl232	Cl	0.589287	0.561958	0.781225
Cl233	Cl	0.495790	0.136494	0.541310
Cl234	Cl	0.995790	0.636494	1.041310
Cl235	Cl	0.321165	0.064350	-0.194720
Cl236	Cl	0.821165	0.564350	0.305280
Cl237	Cl	0.645285	-0.012946	0.233978
Cl238	Cl	1.145285	0.487054	0.733978
H239	H	0.630643	0.001721	0.744210
H240	H	1.130643	0.501721	1.244210
H241	H	0.423797	0.065398	-0.156496
H242	H	0.923797	0.565398	0.343504
H243	H	0.332347	0.064452	0.156680
H244	H	0.832347	0.564452	0.656680
Cl245	Cl	0.495786	0.136489	0.458871
Cl246	Cl	0.995786	0.636489	0.958871
Cl247	Cl	0.645290	-0.012944	0.458909
Cl248	Cl	1.145290	0.487056	0.958909
Cl249	Cl	0.645300	-0.012940	0.541338
Cl250	Cl	1.145300	0.487060	1.041338
Cl251	Cl	-0.180099	0.059210	-0.194687
Cl252	Cl	0.319901	0.559210	0.305313
Cl253	Cl	0.673747	-0.087558	0.000170
Cl254	Cl	1.173747	0.412442	0.500170
H255	H	0.695837	-0.334024	0.000138
H256	H	1.195837	0.165976	0.500138
Cl257	Cl	0.495806	0.136498	0.766243
Cl258	Cl	0.995806	0.636498	1.266243
H259	H	0.100448	0.062069	-0.242783
H260	H	0.600448	0.562069	0.257217
Cl261	Cl	0.666338	-0.816405	0.000089
Cl262	Cl	1.166338	-0.316405	0.500089
H263	H	0.493226	-0.165375	0.000126
H264	H	0.993226	0.334625	0.500126
H265	H	0.040660	0.061456	0.243002
H266	H	0.540660	0.561456	0.743002
Cl267	Cl	0.203056	0.063121	0.281217
Cl268	Cl	0.703056	0.563121	0.781217
H269	H	-0.191251	0.059096	0.156716
H270	H	0.308749	0.559096	0.656716
Cl271	Cl	-0.061960	0.060414	-0.280985
Cl272	Cl	0.438040	0.560414	0.219015
H273	H	-0.282715	0.058157	0.156712
H274	H	0.217285	0.558157	0.656712
Cl275	Cl	0.667501	-0.702612	0.000112
Cl276	Cl	1.167501	-0.202612	0.500112
Cl277	Cl	0.203062	0.063114	-0.281008
Cl278	Cl	0.703062	0.563114	0.218992
H279	H	0.040650	0.061464	-0.242764
H280	H	0.540650	0.561464	0.257236
Cl281	Cl	-0.061965	0.060402	0.281220
Cl282	Cl	0.438035	0.560402	0.781220
H283	H	0.694908	-0.425472	0.000122
H284	H	1.194908	0.074528	0.500122
Cl285	Cl	0.713939	-0.476797	0.000116
Cl286	Cl	1.213939	0.023203	0.500116
Cl287	Cl	0.467340	-0.788884	0.000056
Cl288	Cl	0.967340	-0.288884	0.500056
Cl289	Cl	0.468494	-0.675109	0.000041
Cl290	Cl	0.968494	-0.175109	0.500041
H291	H	0.446789	-0.391167	0.000030
H292	H	0.946789	0.108833	0.500030
Cl293	Cl	0.474750	-0.060044	0.000109
Cl294	Cl	0.974750	0.439956	0.500109
Cl295	Cl	0.428312	-0.285854	0.000028
Cl296	Cl	0.928312	0.214146	0.500028
Cl297	Cl	0.426778	-0.437104	0.000040
Cl298	Cl	0.926778	0.062896	0.500040
H299	H	0.693365	-0.576720	0.000103
H300	H	1.193365	-0.076720	0.500103
