data_functionalizedCrystal
_audit_creation_method	'MofGen! by Chris Wilmer'
_symmetry_space_group_name_H-M	'P1'
_symmetry_Int_Tables_number	1
_symmetry_cell_setting	triclinic
loop_
_symmetry_equiv_pos_as_xyz
  x,y,z
_cell_length_a	8.497374
_cell_length_b	21.395362
_cell_length_c	21.395355
_cell_angle_alpha	90.043940
_cell_angle_beta	89.999406
_cell_angle_gamma	89.983023
loop_
_atom_site_label
_atom_site_type_symbol
_atom_site_fract_x
_atom_site_fract_y
_atom_site_fract_z
Zn1	Zn	0.627570	0.957988	0.354664
Zn2	Zn	0.891343	0.957945	0.249919
Zn3	Zn	0.627643	0.853203	0.249865
Zn4	Zn	0.891375	0.853227	0.354624
O5	O	0.759483	0.905591	0.302268
O6	O	0.662516	1.045661	0.340808
O7	O	0.856379	0.944023	0.162234
O8	O	0.406871	0.867112	0.263761
O9	O	0.856308	1.045629	0.263853
O10	O	0.406817	0.944097	0.340756
O11	O	0.662641	0.867070	0.162194
O12	O	0.662672	0.765529	0.263722
O13	O	0.856364	0.867151	0.442307
O14	O	0.856435	0.765546	0.340688
O15	O	0.662547	0.944119	0.442336
O16	O	1.112109	0.944046	0.263814
O17	O	1.112133	0.867109	0.340740
C18	C	0.759566	0.742803	0.302195
C19	C	0.759640	0.673162	0.302179
C20	C	0.860666	0.640474	0.342195
C21	C	0.860627	0.575039	0.342223
C22	C	0.759579	0.542294	0.302224
C23	C	0.658534	0.574989	0.262205
C24	C	0.658564	0.640423	0.262182
C25	C	0.746870	0.438566	0.245817
C26	C	0.746851	0.373133	0.245838
C27	C	0.759476	0.340473	0.302293
C28	C	0.772154	0.373253	0.358728
C29	C	0.772184	0.438688	0.358706
C30	C	0.759534	0.471341	0.302244
C31	C	0.860465	0.236833	0.342342
C32	C	0.860416	0.171396	0.342371
C33	C	0.658331	0.171348	0.262348
C34	C	0.658372	0.236783	0.262324
C35	C	0.759448	0.269522	0.302321
C36	C	1.169363	0.905583	0.302277
C37	C	1.348007	0.905600	0.302267
C38	C	0.759451	0.905643	0.465691
C39	C	0.759437	0.905665	0.535332
C40	C	0.759400	1.069014	0.302341
C41	C	0.759365	1.138655	0.302372
C42	C	0.759401	0.905575	0.139480
C43	C	0.758970	0.905674	0.069839
C44	C	0.658513	0.945740	0.568062
C45	C	0.658445	0.945740	0.633497
C46	C	0.759330	0.905670	0.666201
C47	C	0.860261	0.865587	0.633464
C48	C	0.860315	0.865584	0.568029
C49	C	0.901380	0.900723	0.769882
C50	C	0.901329	0.900730	0.835315
C51	C	0.759163	0.905674	0.868022
C52	C	0.617044	0.910624	0.835287
C53	C	0.617097	0.910621	0.769853
C54	C	0.759282	0.905668	0.737153
C55	C	0.658156	0.945750	0.971704
C56	C	0.658086	0.945745	1.037140
C57	C	0.859916	0.865595	1.037105
C58	C	0.859973	0.865597	0.971670
C59	C	0.759095	0.905678	0.938973
H60	H	0.576257	0.548324	0.229638
H61	H	0.942894	0.548419	0.374811
H62	H	0.736538	0.346448	0.199885
H63	H	0.942498	0.832947	0.541381
H64	H	0.942967	0.667126	0.374764
H65	H	0.501279	0.914651	0.861915
H66	H	1.017051	0.896703	0.861963
H67	H	0.576292	0.667037	0.229596
H68	H	0.782432	0.346663	0.404699
H69	H	0.942680	0.144783	0.374961
H70	H	1.017119	0.896530	0.743258
H71	H	0.942166	0.832967	0.945021
H72	H	0.575892	0.978378	1.063788
H73	H	0.736582	0.465153	0.199841
H74	H	0.576368	0.978377	0.541444
H75	H	0.576251	0.978373	0.660151
H76	H	0.576007	0.978383	0.945080
H77	H	0.942043	0.832963	1.063732
H78	H	0.942759	0.263490	0.374913
H79	H	0.942397	0.832960	0.660095
H80	H	0.782502	0.465375	0.404657
H81	H	0.576048	0.144687	0.229782
H82	H	0.576114	0.263398	0.229736
H83	H	0.501379	0.914650	0.743203
