data_functionalizedCrystal
_audit_creation_method	'MofGen! by Chris Wilmer'
_symmetry_space_group_name_H-M	'P1'
_symmetry_Int_Tables_number	1
_symmetry_cell_setting	triclinic
loop_
_symmetry_equiv_pos_as_xyz
  x,y,z
_cell_length_a	19.805407
_cell_length_b	12.594516
_cell_length_c	19.805398
_cell_angle_alpha	90.021820
_cell_angle_beta	90.013121
_cell_angle_gamma	90.016053
loop_
_atom_site_label
_atom_site_type_symbol
_atom_site_fract_x
_atom_site_fract_y
_atom_site_fract_z
Zn1	Zn	1.034741	-0.423756	0.382752
Zn2	Zn	1.034689	-0.601753	0.269577
Zn3	Zn	0.921569	-0.423789	0.269576
Zn4	Zn	0.921540	-0.601693	0.382723
O5	O	0.978135	-0.512748	0.326157
O6	O	1.129451	-0.447379	0.367751
O7	O	1.019674	-0.578184	0.174860
O8	O	0.936615	-0.274838	0.284601
O9	O	1.129413	-0.578152	0.284602
O10	O	1.019762	-0.274815	0.367750
O11	O	0.936565	-0.447434	0.174860
O12	O	0.826848	-0.447377	0.284573
O13	O	0.936566	-0.578051	0.477444
O14	O	0.826827	-0.578082	0.367702
O15	O	1.019735	-0.447321	0.477464
O16	O	1.019646	-0.750691	0.284574
O17	O	0.936516	-0.750647	0.367703
C18	C	0.802279	-0.512727	0.326135
C19	C	0.727047	-0.512744	0.326142
C20	C	0.691709	-0.580905	0.369357
C21	C	0.621021	-0.580907	0.369366
C22	C	0.585671	-0.512752	0.326157
C23	C	0.621014	-0.444584	0.282940
C24	C	0.691701	-0.444578	0.282934
C25	C	0.335940	-0.444608	0.282962
C26	C	0.265248	-0.444622	0.282970
C27	C	0.265260	-0.580937	0.369394
C28	C	0.335948	-0.580930	0.369389
C29	C	0.371284	-0.512759	0.326175
C30	C	0.447932	-0.512756	0.326166
C31	C	0.509024	-0.512760	0.326162
C32	C	0.978090	-0.789289	0.326150
C33	C	0.978133	-0.907594	0.326170
C34	C	0.932914	-0.976862	0.371352
C35	C	0.916433	-1.047720	0.309590
C36	C	0.994677	-1.047535	0.387943
C37	C	0.961619	-0.976894	0.264375
C38	C	1.039892	-0.976703	0.342770
C39	C	1.023434	-1.047529	0.280965
C40	C	1.154678	-0.512769	0.326179
C41	C	1.229909	-0.512778	0.326189
C42	C	0.978153	-0.512676	0.502700
C43	C	0.978161	-0.512645	0.577932
C44	C	0.978198	-0.235127	0.326178
C45	C	0.978225	-0.116821	0.326188
C46	C	0.978156	-0.512742	0.150301
C47	C	0.978279	-0.512473	0.075069
C48	C	1.021542	-0.580557	1.039721
C49	C	1.021524	-0.580586	0.969032
C50	C	0.978245	-0.512525	0.933694
C51	C	0.934977	-0.444438	0.969047
C52	C	0.934993	-0.444416	1.039734
C53	C	0.934911	-0.444529	0.683974
C54	C	0.934900	-0.444555	0.613282
C55	C	1.021442	-0.580700	0.613272
C56	C	1.021458	-0.580677	0.683959
C57	C	0.978188	-0.512595	0.719306
C58	C	0.978208	-0.512566	0.795955
C59	C	0.978228	-0.512548	0.857047
H60	H	0.592252	-0.636411	0.404556
C61	C	1.013536	-1.089457	0.458504
C62	C	0.963915	-1.161016	0.497383
C63	C	0.982768	-1.202934	0.567945
C64	C	1.051241	-1.173294	0.599628
C65	C	1.100867	-1.101732	0.560748
C66	C	1.082014	-1.059814	0.490186
H67	H	0.913222	-1.182960	0.473930
H68	H	0.946031	-1.255910	0.596726
H69	H	1.065197	-1.204325	0.651862
H70	H	1.151560	-1.079788	0.584201
H71	H	1.118751	-1.006838	0.461405
C72	C	0.845932	-1.089868	0.290625
C73	C	0.784455	-1.062018	0.334797
C74	C	0.713954	-1.104163	0.315838
C75	C	0.704930	-1.174158	0.252706
C76	C	0.766409	-1.202012	0.208531
C77	C	0.836911	-1.159867	0.227490
H78	H	0.791133	-1.010200	0.381534
H79	H	0.668443	-1.083543	0.348540
H80	H	0.652741	-1.205356	0.238672
H81	H	0.759731	-1.253830	0.161794
H82	H	0.882422	-1.180487	0.194788
H83	H	1.056788	-0.635975	1.068488
C84	C	0.887287	-0.369689	0.574407
C85	C	0.887275	-0.369713	0.496654
C86	C	0.839664	-0.294851	0.457780
C87	C	0.792066	-0.219966	0.496658
C88	C	0.792076	-0.219940	0.574416
C89	C	0.839687	-0.294801	0.613290
H90	H	0.922511	-0.425150	0.467870
H91	H	0.839657	-0.294871	0.400218
H92	H	0.756822	-0.164549	0.467881
H93	H	0.756840	-0.164503	0.603200
H94	H	0.839694	-0.294781	0.670852
H95	H	0.364726	-0.636432	0.404572
C96	C	1.069033	-0.655605	0.574386
C97	C	1.122169	-0.609512	0.525791
C98	C	1.169758	-0.684414	0.486907
C99	C	1.164211	-0.805409	0.496619
C100	C	1.111072	-0.851508	0.545216
C101	C	1.063483	-0.776606	0.584100
H102	H	1.126278	-0.519939	0.518600
H103	H	1.209095	-0.650287	0.450932
H104	H	1.199439	-0.860855	0.467835
H105	H	1.106963	-0.941081	0.552407
H106	H	1.024146	-0.810733	0.620075
H107	H	1.061713	-1.078362	0.242720
H108	H	0.236481	-0.636442	0.404584
C109	C	1.069116	-0.655475	0.930149
C110	C	1.116727	-0.730333	0.969019
C111	C	1.164321	-0.805227	0.930136
C112	C	1.164305	-0.805264	0.852382
C113	C	1.116692	-0.730403	0.813508
C114	C	1.069098	-0.655509	0.852391
H115	H	1.116741	-0.730309	1.026580
H116	H	1.199567	-0.860644	0.958913
H117	H	1.199537	-0.860705	0.823599
H118	H	1.116678	-0.730428	0.755947
H119	H	1.033852	-0.600092	0.823614
H120	H	1.056703	-0.636095	0.712728
H121	H	0.720486	-0.636408	0.404541
H122	H	0.899677	-0.389094	0.712745
H123	H	1.092066	-0.945488	0.356826
C124	C	0.226362	-0.369641	0.235440
C125	C	0.265228	-0.294651	0.187907
C126	C	0.226341	-0.219677	0.140379
C127	C	0.148588	-0.219693	0.140384
C128	C	0.109717	-0.294686	0.187919
C129	C	0.148604	-0.369660	0.235447
H130	H	0.322789	-0.294637	0.187902
H131	H	0.255116	-0.164162	0.105191
H132	H	0.119802	-0.164193	0.105201
H133	H	0.052156	-0.294701	0.187924
H134	H	0.119829	-0.425175	0.270635
C135	C	0.887367	-0.369572	0.930177
C136	C	0.887349	-0.369590	0.852424
C137	C	0.839738	-0.294720	0.813555
C138	C	0.792147	-0.219832	0.852440
C139	C	0.792163	-0.219812	0.930198
C140	C	0.839774	-0.294682	0.969066
H141	H	0.922580	-0.425028	0.823635
H142	H	0.839726	-0.294736	0.755994
H143	H	0.756903	-0.164409	0.823667
H144	H	0.756932	-0.164373	0.958986
H145	H	0.839786	-0.294666	1.026627
C146	C	0.942688	-0.935158	0.193789
C147	C	0.939117	-0.814762	0.180743
C148	C	0.920188	-0.773024	0.110158
C149	C	0.904830	-0.851683	0.052619
C150	C	0.908402	-0.972087	0.065664
C151	C	0.927331	-1.013824	0.136249
H152	H	0.950485	-0.756527	0.223338
H153	H	0.917544	-0.683893	0.100502
H154	H	0.890818	-0.820786	0.000368
H155	H	0.897033	-1.030321	0.023068
H156	H	0.929974	-1.102956	0.145905
C157	C	0.374796	-0.369641	0.235409
C158	C	0.365089	-0.248652	0.241041
C159	C	0.403945	-0.173688	0.193477
C160	C	0.452508	-0.219713	0.140281
C161	C	0.462217	-0.340708	0.134647
C162	C	0.423361	-0.415672	0.182210
H163	H	0.329139	-0.214576	0.280422
H164	H	0.396758	-0.084120	0.197649
H165	H	0.481271	-0.164221	0.105072
H166	H	0.498168	-0.374784	0.095266
H167	H	0.430549	-0.505240	0.178039
H168	H	0.592226	-0.389087	0.247761
H169	H	0.720472	-0.389068	0.247748
H170	H	0.894606	-0.945832	0.409505
H171	H	0.899764	-0.388974	1.068514
