data_functionalizedCrystal
_audit_creation_method	'MofGen! by Chris Wilmer'
_symmetry_space_group_name_H-M	'P1'
_symmetry_Int_Tables_number	1
_symmetry_cell_setting	triclinic
loop_
_symmetry_equiv_pos_as_xyz
  x,y,z
_cell_length_a	12.827893
_cell_length_b	12.594516
_cell_length_c	12.827885
_cell_angle_alpha	89.971946
_cell_angle_beta	89.980538
_cell_angle_gamma	90.016213
loop_
_atom_site_label
_atom_site_type_symbol
_atom_site_fract_x
_atom_site_fract_y
_atom_site_fract_z
Zn1	Zn	1.597667	-0.423686	-0.590861
Zn2	Zn	1.597558	-0.601702	-0.416127
Zn3	Zn	1.422908	-0.423738	-0.416135
Zn4	Zn	1.422891	-0.601623	-0.590827
O5	O	1.510256	-0.512687	-0.503487
O6	O	1.743888	-0.447311	-0.567693
O7	O	1.574352	-0.578150	-0.269892
O8	O	1.446142	-0.274786	-0.439330
O9	O	1.743809	-0.578099	-0.439317
O10	O	1.574537	-0.274747	-0.567701
O11	O	1.446037	-0.447400	-0.269898
O12	O	1.276669	-0.447324	-0.439297
O13	O	1.446114	-0.577965	-0.737067
O14	O	1.276658	-0.578016	-0.567642
O15	O	1.574521	-0.447235	-0.737093
O16	O	1.574336	-0.750637	-0.439283
O17	O	1.446009	-0.750580	-0.567635
C18	C	1.238746	-0.512668	-0.503468
C19	C	1.122593	-0.512685	-0.503484
C20	C	1.070848	-0.448082	-0.567108
C21	C	0.950797	-0.448098	-0.567126
C22	C	1.510188	-0.789228	-0.503477
C23	C	1.510254	-0.907534	-0.503508
C24	C	1.440450	-0.976794	-0.573269
C25	C	1.414988	-1.047663	-0.477914
C26	C	1.535811	-1.047464	-0.598879
C27	C	1.484741	-0.976844	-0.408102
C28	C	1.605609	-0.976639	-0.529132
C29	C	1.580183	-1.047476	-0.433711
C30	C	1.782826	-0.512708	-0.503508
C31	C	1.898979	-0.512717	-0.503517
C32	C	1.510328	-0.512585	-0.776058
C33	C	1.510359	-0.512542	-0.892211
C34	C	1.510353	-0.235067	-0.503521
C35	C	1.510395	-0.116761	-0.503535
C36	C	1.446885	-0.447830	-0.943999
C37	C	1.446915	-0.447784	-1.064049
C38	C	1.510244	-0.512712	-0.231978
C39	C	1.510416	-0.512456	-0.115825
H40	H	1.115423	-0.392757	-0.621561
H41	H	1.381314	-0.945758	-0.632178
H42	H	1.392516	-0.392467	-0.899459
H43	H	1.639274	-1.078316	-0.374660
H44	H	1.334413	-1.078883	-0.456263
H45	H	1.078017	-0.568004	-0.449025
H46	H	0.906297	-0.392793	-0.621600
H47	H	1.463088	-0.945951	-0.327436
H48	H	1.392577	-0.392377	-1.108585
H49	H	1.686165	-0.945422	-0.550829
H50	H	1.557371	-1.078485	-0.679523
H51	H	1.564766	-0.567857	-1.071295
H52	H	0.943473	-0.568034	-0.449049
H53	H	1.564722	-0.567910	-0.936750
