data_functionalizedCrystal
_audit_creation_method	'MofGen! by Chris Wilmer'
_symmetry_space_group_name_H-M	'P1'
_symmetry_Int_Tables_number	1
_symmetry_cell_setting	triclinic
loop_
_symmetry_equiv_pos_as_xyz
  x,y,z
_cell_length_a	23.096457
_cell_length_b	18.426585
_cell_length_c	18.426585
_cell_angle_alpha	89.999024
_cell_angle_beta	119.998248
_cell_angle_gamma	60.003850
loop_
_atom_site_label
_atom_site_type_symbol
_atom_site_fract_x
_atom_site_fract_y
_atom_site_fract_z
Zr1	Zr	0.633750	-0.095221	-0.699131
O2	O	0.754528	-0.211088	-0.583258
O3	O	0.512966	-0.059706	-0.734649
O4	O	0.633747	-0.211098	-0.734653
O5	O	0.633751	0.059730	-0.583255
O6	O	0.633751	-0.211102	-0.854079
O7	O	0.633747	-0.059695	-0.583254
O8	O	0.417696	0.059712	-0.854072
O9	O	0.849806	-0.211083	-0.583261
O10	O	0.562651	-0.044556	-0.838927
O11	O	0.562651	0.044572	-0.749801
O12	O	0.704855	-0.133673	-0.749805
O13	O	0.704855	-0.044544	-0.660679
Zr14	Zr	0.633762	0.095244	-0.889602
Zr15	Zr	0.633756	-0.095226	-0.889601
Zr16	Zr	0.633756	0.095250	-0.699131
Zr17	Zr	0.785707	-0.095213	-0.699135
Zr18	Zr	0.481805	0.095236	-0.889597
O19	O	0.754546	0.059729	-0.854083
O20	O	0.754537	-0.211095	-0.854082
O21	O	0.754537	0.059737	-0.583258
O22	O	0.512984	0.211111	-1.005474
O23	O	0.512975	-0.059713	-1.005474
O24	O	0.512975	0.211119	-0.734650
O25	O	0.633761	-0.059707	-1.005478
O26	O	0.633765	0.211122	-0.854080
O27	O	0.633761	0.211125	-0.734654
O28	O	0.633765	0.059719	-1.005478
O29	O	0.849811	-0.211087	-0.734660
O30	O	0.417701	0.211110	-0.854073
O31	O	0.417706	0.211106	-1.005471
O32	O	0.417701	0.059707	-1.005471
O33	O	0.849811	-0.059684	-0.583261
O34	O	0.849816	-0.059688	-0.734660
O35	O	0.562657	0.133696	-0.838927
O36	O	0.562657	0.044567	-0.928053
O37	O	0.704861	-0.044549	-0.838931
O38	O	0.704861	0.044580	-0.749805
C39	C	0.443681	0.000002	-0.794360
C40	C	0.379171	-0.000002	-0.794358
C41	C	0.633748	0.000018	-0.556117
C42	C	0.633745	0.000020	-0.475257
C43	C	0.633764	0.238261	-0.794367
C44	C	0.633767	0.319121	-0.794367
C45	C	0.348870	-0.046529	-0.840875
C46	C	0.288247	-0.046522	-0.840884
C47	C	0.257940	0.000001	-0.794358
C48	C	0.288245	0.046538	-0.747839
C49	C	0.348860	0.046537	-0.747839
N50	N	0.195542	-0.006448	-0.718646
N51	N	0.137961	-0.006452	-0.718648
C52	C	0.075308	0.000009	-0.794357
N53	N	0.072419	0.006456	-0.870063
N54	N	0.130007	0.006455	-0.870060
C55	C	0.192212	0.000008	-0.794354
C56	C	-0.020727	-0.046513	-0.840888
C57	C	-0.081354	-0.046499	-0.840899
C58	C	-0.081350	0.046555	-0.747846
C59	C	-0.020730	0.046548	-0.747843
C60	C	0.009581	0.000009	-0.794362
C61	C	0.823831	0.000022	-0.794372
C62	C	0.888341	0.000025	-0.794374
C63	C	0.633748	-0.238238	-0.794366
C64	C	0.633745	-0.319098	-0.794365
C65	C	0.633742	0.615236	-0.794368
C66	C	0.633746	0.532850	-0.794370
C67	C	0.633754	0.467181	-0.794368
C68	C	0.633758	0.384790	-0.794369
C69	C	0.633770	0.000006	-0.179142
C70	C	0.633766	0.000007	-0.261528
C71	C	0.633758	0.000012	-0.327197
C72	C	0.633754	0.000016	-0.409588
C73	C	0.633764	0.000006	-0.032616
C74	C	0.633767	0.000005	-0.113475
C75	C	0.443689	-0.000005	-1.032610
C76	C	0.379181	-0.000011	-1.113467
C77	C	0.443689	0.238251	-0.794361
C78	C	0.379181	0.319107	-0.794359
C79	C	0.443697	0.238245	-1.032610
C80	C	0.379192	0.319099	-1.113468
C81	C	0.823815	-0.238221	-0.556122
C82	C	0.888320	-0.319075	-0.475264
C83	C	0.823823	0.000028	-0.556123
C84	C	0.888331	0.000034	-0.475265
C85	C	0.823823	-0.238228	-0.794372
C86	C	0.888331	-0.319084	-0.794374
C87	C	0.348885	-0.046543	-1.104916
C88	C	0.288282	-0.046566	-1.180883
C89	C	0.257973	-0.000051	-1.265401
C90	C	0.288275	0.046483	-1.273950
C91	C	0.348881	0.046500	-1.197984
C92	C	0.348891	0.403608	-0.840881
C93	C	0.288289	0.479588	-0.840876
C94	C	0.257973	0.471066	-0.794353
C95	C	0.288269	0.386557	-0.747825
C96	C	0.348875	0.310578	-0.747826
C97	C	0.348900	0.310544	-1.197971
C98	C	0.288300	0.386508	-1.273952
C99	C	0.257989	0.471025	-1.265430
C100	C	0.288286	0.479578	-1.180918
C101	C	0.348890	0.403615	-1.104938
C102	C	0.918619	-0.310521	-0.390762
C103	C	0.979238	-0.386485	-0.314780
C104	C	1.009553	-0.471002	-0.323303
C105	C	0.979251	-0.479555	-0.407814
C106	C	0.918637	-0.403592	-0.483794
C107	C	0.918633	0.046558	-0.483816
C108	C	0.979253	0.046560	-0.407849
C109	C	1.009565	0.000043	-0.323332
C110	C	0.979259	-0.046487	-0.314782
C111	C	0.918645	-0.046494	-0.390748
C112	C	0.918627	-0.310533	-0.840905
C113	C	0.979230	-0.386499	-0.840924
C114	C	1.009540	-0.471015	-0.794406
C115	C	0.979238	-0.479564	-0.747873
C116	C	0.918631	-0.403599	-0.747860
H117	H	0.263572	-0.084411	-0.878765
H118	H	0.263629	0.548392	-0.878767
H119	H	0.373540	0.084397	-1.204959
H120	H	0.263588	0.084353	-1.342775
H121	H	0.263564	0.084418	-0.709959
H122	H	0.263577	0.379631	-0.709948
H123	H	0.208623	-0.000072	-1.327250
O124	O	0.378318	0.412045	-1.022902
C125	C	0.413394	0.458901	-1.013158
H126	H	0.386030	0.500813	-1.081550
H127	H	0.400082	0.504080	-0.973217
H128	H	0.482430	0.409700	-0.976828
O129	O	0.378402	0.228429	-0.702656
C130	C	0.438378	0.163185	-0.712646
H131	H	0.464910	0.192769	-0.729768
H132	H	0.489352	0.104599	-0.647894
H133	H	0.409371	0.139429	-0.768352
O134	O	0.378278	0.412057	-0.886079
C135	C	0.338529	0.502940	-0.927144
H136	H	0.313546	0.543452	-0.890654
H137	H	0.384007	0.513527	-0.924623
H138	H	0.285894	0.525329	-0.999359
O139	O	0.378237	0.091745	-0.702568
C140	C	0.338474	0.132833	-0.661525
H141	H	0.313488	0.096350	-0.652316
H142	H	0.383942	0.130331	-0.593944
H143	H	0.285839	0.205041	-0.705125
O144	O	1.008677	-0.561713	-0.702812
C145	C	0.993851	-0.608437	-0.762545
H146	H	0.986286	-0.579407	-0.823789
H147	H	1.047699	-0.681545	-0.728806
H148	H	0.935583	-0.602144	-0.783341
O149	O	1.068474	-0.000074	-0.249450
C150	C	1.088723	-0.051090	-0.173012
H151	H	1.072023	-0.100289	-0.190432
H152	H	1.157230	-0.088951	-0.119373
H153	H	1.053293	-0.005283	-0.147421
O154	O	0.258827	0.561631	-1.172530
C155	C	0.223736	0.571391	-1.125691
H156	H	0.251115	0.503007	-1.083746
H157	H	0.237013	0.611369	-1.080542
H158	H	0.154705	0.607688	-1.174906
O159	O	0.008597	-0.091722	-0.886161
C160	C	-0.031143	-0.132798	-0.927213
H161	H	-0.092580	-0.096306	-0.936424
H162	H	-0.041584	-0.130294	-0.994794
H163	H	0.008598	-0.205006	-0.883618
H164	H	0.208624	0.532940	-0.794360
H165	H	0.373571	0.241733	-1.204927
H166	H	0.893958	-0.241723	-0.878786
O167	O	0.258935	0.378030	-1.355973
C168	C	0.298695	0.287142	-1.347192
H169	H	0.323660	0.246646	-1.279391
H170	H	0.253230	0.276542	-1.401673
H171	H	0.351343	0.264745	-1.353413
O172	O	0.889327	-0.412070	-0.702569
C173	C	0.929068	-0.502958	-0.661534
H174	H	0.990495	-0.543458	-0.652347
H175	H	0.939530	-0.513562	-0.593944
H176	H	0.889318	-0.525347	-0.705129
O177	O	1.008588	-0.378228	-0.886236
C178	C	0.993790	-0.419391	-0.951535
H179	H	0.940669	-0.422906	-0.968830
H180	H	0.977736	-0.379088	-1.013658
H181	H	1.050999	-0.489464	-0.924920
H182	H	0.373545	-0.084421	-0.878756
O183	O	1.008547	0.091913	-0.416215
C184	C	0.943852	0.182716	-0.463097
H185	H	0.892349	0.199169	-0.456734
H186	H	0.966967	0.224814	-0.434253
H187	H	0.919929	0.197592	-0.536211
O188	O	0.889067	-0.228360	-0.382629
C189	C	0.829084	-0.163135	-0.467803
H190	H	0.802567	-0.192740	-0.518162
H191	H	0.778100	-0.104549	-0.466954
H192	H	0.858079	-0.139370	-0.487167
O193	O	0.199089	0.544720	-1.339333
C194	C	0.178871	0.519035	-1.415741
H195	H	0.195578	0.448905	-1.398285
H196	H	0.110368	0.567019	-1.469401
H197	H	0.214317	0.520412	-1.441321
O198	O	1.008545	-0.378007	-0.232760
C199	C	0.968793	-0.287119	-0.241540
H200	H	0.907362	-0.246625	-0.309339
H201	H	0.958339	-0.276523	-0.187056
H202	H	1.008531	-0.264715	-0.235324
H203	H	1.058908	-0.532849	-0.261428
O204	O	1.008763	-0.561724	-0.415927
C205	C	1.068769	-0.626926	-0.330739
H206	H	1.058809	-0.597296	-0.280390
H207	H	1.063852	-0.685517	-0.331553
H208	H	1.132165	-0.650688	-0.311387
O209	O	0.889151	-0.411750	-0.565945
C210	C	0.829140	-0.326587	-0.631190
H211	H	0.839071	-0.276209	-0.601597
H212	H	0.834080	-0.327440	-0.689766
H213	H	0.765744	-0.307249	-0.654967
H214	H	0.893958	0.084444	-0.552628
H215	H	1.003949	-0.084361	-0.245957
O216	O	0.889129	-0.091566	-0.382387
C217	C	0.854101	-0.057360	-0.335486
H218	H	0.835911	0.013553	-0.341837
H219	H	0.797502	-0.057482	-0.364324
H220	H	0.900565	-0.100491	-0.262376
H221	H	-0.106030	-0.084384	-0.878784
H222	H	-0.106026	0.084435	-0.709964
O223	O	0.008650	0.091750	-0.702570
C224	C	-0.031111	0.132834	-0.661525
H225	H	-0.056093	0.096347	-0.652314
H226	H	0.014357	0.130333	-0.593944
H227	H	-0.083748	0.205042	-0.705124
O228	O	1.068494	-0.544868	-0.794257
C229	C	1.138627	-0.595756	-0.706235
H230	H	1.120332	-0.579160	-0.658218
H231	H	1.167968	-0.669454	-0.697431
H232	H	1.184292	-0.579807	-0.691878
O233	O	0.378463	-0.091799	-1.022774
C234	C	0.463389	-0.157099	-0.976055
H235	H	0.489096	-0.137536	-1.005064
H236	H	0.494792	-0.162732	-0.902938
H237	H	0.474953	-0.223830	-0.982382
O238	O	0.258913	-0.091778	-1.172408
C239	C	0.298671	-0.132832	-1.081519
H240	H	0.323641	-0.096326	-1.041020
H241	H	0.253204	-0.130326	-1.070921
H242	H	0.351317	-0.205041	-1.059120
