data_functionalizedCrystal
_audit_creation_method	'MofGen! by Chris Wilmer'
_symmetry_space_group_name_H-M	'P1'
_symmetry_Int_Tables_number	1
_symmetry_cell_setting	triclinic
loop_
_symmetry_equiv_pos_as_xyz
  x,y,z
_cell_length_a	16.959454
_cell_length_b	16.959455
_cell_length_c	16.959447
_cell_angle_alpha	90.014701
_cell_angle_beta	89.973264
_cell_angle_gamma	89.980497
loop_
_atom_site_label
_atom_site_type_symbol
_atom_site_fract_x
_atom_site_fract_y
_atom_site_fract_z
Zn1	Zn	-0.314678	-1.208384	-0.446936
Zn2	Zn	-0.446870	-1.208306	-0.314766
Zn3	Zn	-0.314709	-1.076212	-0.314773
Zn4	Zn	-0.446817	-1.076177	-0.446904
O5	O	-0.380769	-1.142270	-0.380845
O6	O	-0.332223	-1.318984	-0.429414
O7	O	-0.429374	-1.190766	-0.204156
O8	O	-0.204094	-1.093792	-0.332321
O9	O	-0.429344	-1.318927	-0.332310
O10	O	-0.204071	-1.190898	-0.429421
O11	O	-0.332275	-1.093717	-0.204161
O12	O	-0.332223	-0.965597	-0.332290
O13	O	-0.429253	-1.093732	-0.557519
O14	O	-0.429283	-0.965571	-0.429366
O15	O	-0.332171	-1.190864	-0.557543
O16	O	-0.557474	-1.190732	-0.332278
O17	O	-0.557435	-1.093657	-0.429359
C18	C	-0.586135	-1.142204	-0.380831
C19	C	-0.673991	-1.142248	-0.380852
C20	C	-0.380751	-0.936904	-0.380825
C21	C	-0.380763	-0.849047	-0.380836
C22	C	-0.380703	-1.142303	-0.587013
C23	C	-0.380675	-1.142317	-0.674870
C24	C	-1.045476	-1.091796	-0.431389
C25	C	-1.045457	-1.192964	-0.330381
C26	C	-0.962911	-1.192936	-0.330373
C27	C	-0.921644	-1.142337	-0.380874
C28	C	-0.962923	-1.091765	-0.431382
C29	C	-0.921627	-1.243501	-0.279861
C30	C	-0.839076	-1.243475	-0.279851
C31	C	-0.797807	-1.192879	-0.330356
C32	C	-0.839091	-1.142306	-0.380867
C33	C	-0.797824	-1.091707	-0.431367
C34	C	-0.839106	-1.041137	-0.481883
C35	C	-0.921654	-1.041170	-0.481887
C36	C	-0.715259	-1.192847	-0.330351
C37	C	-0.715270	-1.091676	-0.431360
C38	C	-0.174600	-1.142358	-0.380876
C39	C	-0.086744	-1.142395	-0.380889
C40	C	-0.380786	-1.348438	-0.380865
C41	C	-0.380794	-1.436295	-0.380873
C42	C	-0.431258	-0.807741	-0.330206
C43	C	-0.330275	-0.807799	-0.431472
C44	C	-0.330281	-0.725253	-0.431481
C45	C	-0.380775	-0.683948	-0.380851
C46	C	-0.431264	-0.725188	-0.330212
C47	C	-0.279788	-0.684006	-0.482114
C48	C	-0.279792	-0.601456	-0.482125
C49	C	-0.330291	-0.560149	-0.431499
C50	C	-0.380782	-0.601394	-0.380858
C51	C	-0.431276	-0.560088	-0.330228
C52	C	-0.481772	-0.601332	-0.279590
C53	C	-0.481763	-0.683881	-0.279585
C54	C	-0.330299	-0.477600	-0.431503
C55	C	-0.431282	-0.477535	-0.330234
C56	C	-0.431138	-1.091839	-1.046336
C57	C	-0.330046	-1.192983	-1.046356
C58	C	-0.330062	-1.192962	-0.963810
C59	C	-0.380619	-1.142380	-0.922523
C60	C	-0.431158	-1.091818	-0.963782
C61	C	-0.279530	-1.243529	-0.922544
C62	C	-0.279545	-1.243510	-0.839993
C63	C	-0.330098	-1.192923	-0.798705
C64	C	-0.380639	-1.142359	-0.839969
C65	C	-0.431195	-1.091776	-0.798683
C66	C	-0.481732	-1.041207	-0.839945
C67	C	-0.481711	-1.041231	-0.922494
C68	C	-0.330119	-1.192899	-0.716157
C69	C	-0.431215	-1.091755	-0.716129
C70	C	-0.380777	-1.142283	-0.175479
C71	C	-0.380582	-1.142422	-0.087622
H72	H	-0.681675	-1.050475	-0.472487
H73	H	-0.472372	-0.841326	-0.288980
O74	O	-0.675035	-1.241888	-0.281313
C75	C	-0.547857	-1.286713	-0.236569
C76	C	-0.593310	-1.231116	-0.292134
H77	H	-0.481774	-1.278034	-0.245311
H78	H	-0.564071	-1.272874	-0.172805
H79	H	-0.564084	-1.350437	-0.250496
H80	H	-0.577107	-1.167372	-0.278279
H81	H	-0.577092	-1.245023	-0.355882
O82	O	-0.798893	-0.992060	-0.530912
C83	C	-0.671721	-0.947147	-0.575615
C84	C	-0.717167	-1.002777	-0.520066
H85	H	-0.605637	-0.955780	-0.566853
H86	H	-0.687837	-0.960994	-0.639385
H87	H	-0.688052	-0.883434	-0.561690
H88	H	-0.700860	-1.066509	-0.533919
H89	H	-0.701046	-0.988862	-0.456313
O90	O	-0.480312	-1.042833	-1.086448
C91	C	-0.586974	-1.032166	-1.179661
C92	C	-0.531346	-1.087756	-1.134268
H93	H	-0.628237	-1.068464	-1.218347
H94	H	-0.623168	-0.996026	-1.136006
H95	H	-0.550653	-0.990843	-1.218278
H96	H	-0.567605	-1.129127	-1.095650
H97	H	-0.495149	-1.123841	-1.177966
H98	H	-1.079062	-1.234154	-0.289261
O99	O	-0.530775	-0.992188	-0.962698
C100	C	-0.575509	-0.947366	-1.089863
C101	C	-0.519919	-1.002957	-1.044427
H102	H	-0.566740	-0.956041	-1.155948
H103	H	-0.639269	-0.961213	-1.073677
H104	H	-0.561634	-0.883640	-1.073591
H105	H	-0.533723	-1.066702	-1.060674
H106	H	-0.456176	-0.989042	-1.060616
H107	H	-0.472405	-0.443910	-0.289007
H108	H	-0.522881	-0.567691	-0.238364
O109	O	-0.530959	-0.992166	-0.799866
C110	C	-0.665417	-0.953724	-0.774598
C111	C	-0.609757	-1.009317	-0.820028
H112	H	-0.729136	-0.967560	-0.790894
H113	H	-0.656816	-0.962414	-0.708503
H114	H	-0.651495	-0.889997	-0.790805
H115	H	-0.623645	-1.073065	-0.803888
H116	H	-0.618369	-1.000559	-0.886112
H117	H	-0.238375	-1.284715	-0.956166
O118	O	-0.530843	-0.724034	-0.230506
C119	C	-0.637562	-0.817179	-0.219691
C120	C	-0.582020	-0.771764	-0.275362
H121	H	-0.678963	-0.855767	-0.255935
H122	H	-0.601258	-0.855872	-0.178432
H123	H	-0.673620	-0.773467	-0.183486
H124	H	-0.545950	-0.815419	-0.311618
H125	H	-0.618369	-0.733059	-0.316569
O126	O	-0.961834	-1.292554	-0.230813
C127	C	-1.089002	-1.337243	-0.185873
C128	C	-1.043562	-1.281705	-0.241519
H129	H	-1.155087	-1.328479	-0.194497
H130	H	-1.072829	-1.401016	-0.199713
H131	H	-1.072723	-1.323310	-0.122164
H132	H	-1.059817	-1.295566	-0.305246
H133	H	-1.059739	-1.217948	-0.227610
O134	O	-0.480442	-1.042707	-0.676059
C135	C	-0.614899	-1.004251	-0.650809
C136	C	-0.559239	-1.059856	-0.696224
H137	H	-0.678618	-1.018085	-0.667109
H138	H	-0.606305	-1.012929	-0.584712
H139	H	-0.600971	-0.940528	-0.667026
H140	H	-0.573133	-1.123600	-0.680073
H141	H	-0.567844	-1.051109	-0.762310
H142	H	-0.288890	-1.234170	-1.079976
H143	H	-0.289161	-0.841435	-0.472689
H144	H	-0.805469	-1.284651	-0.238720
H145	H	-0.955274	-0.999998	-0.523013
O146	O	-0.230377	-1.292651	-0.800037
C147	C	-0.130134	-1.393006	-0.808776
C148	C	-0.185766	-1.337385	-0.854126
H149	H	-0.094064	-1.429200	-0.852487
H150	H	-0.088755	-1.356759	-0.770164
H151	H	-0.166446	-1.434277	-0.770094
H152	H	-0.149518	-1.296103	-0.892850
H153	H	-0.227147	-1.373681	-0.892688
H154	H	-0.288975	-1.234074	-0.682564
O155	O	-0.230785	-0.724046	-0.531404
C156	C	-0.192616	-0.749406	-0.665923
C157	C	-0.248146	-0.703992	-0.610186
H158	H	-0.206644	-0.733222	-0.729630
H159	H	-0.128848	-0.733184	-0.652217
H160	H	-0.201283	-0.815485	-0.657178
H161	H	-0.239550	-0.637903	-0.618899
H162	H	-0.311894	-0.720279	-0.623905
H163	H	-0.238676	-0.567882	-0.523358
O164	O	-1.085695	-1.042700	-0.480383
C165	C	-1.212869	-0.997944	-0.525205
C166	C	-1.167421	-1.053573	-0.469668
H167	H	-1.278953	-1.006727	-0.516574
H168	H	-1.196752	-0.934194	-0.511263
H169	H	-1.196541	-1.011768	-0.588942
H170	H	-1.183725	-1.039819	-0.405912
H171	H	-1.183542	-1.117307	-0.483678
O172	O	-0.281231	-0.437658	-0.480761
C173	C	-0.181029	-0.446431	-0.581166
C174	C	-0.236573	-0.491762	-0.525430
H175	H	-0.144897	-0.490154	-0.617283
H176	H	-0.217332	-0.407813	-0.622497
H177	H	-0.139696	-0.407758	-0.544934
H178	H	-0.277917	-0.530478	-0.561598
H179	H	-0.200221	-0.530330	-0.484097
