data_functionalizedCrystal
_audit_creation_method	'MofGen! by Chris Wilmer'
_symmetry_space_group_name_H-M	'P1'
_symmetry_Int_Tables_number	1
_symmetry_cell_setting	triclinic
loop_
_symmetry_equiv_pos_as_xyz
  x,y,z
_cell_length_a	10.654550
_cell_length_b	9.798715
_cell_length_c	10.654550
_cell_angle_alpha	89.998020
_cell_angle_beta	95.515097
_cell_angle_gamma	90.007217
loop_
_atom_site_label
_atom_site_type_symbol
_atom_site_fract_x
_atom_site_fract_y
_atom_site_fract_z
O1	O	1.667840	0.113600	-0.176396
O2	O	1.302362	0.113577	-0.193202
O3	O	1.493504	0.113584	-0.002060
O4	O	1.476698	0.113593	-0.367538
O5	O	1.493490	-0.113398	-0.002059
O6	O	1.302347	-0.113405	-0.193201
O7	O	1.667826	-0.113383	-0.176395
Zn8	Zn	1.485084	-0.149432	-0.184798
Zn9	Zn	1.485103	0.149627	-0.184799
O10	O	1.476683	-0.113389	-0.367538
C11	C	1.255556	0.000083	-0.191968
C12	C	1.116113	0.000075	-0.188276
N13	N	1.485080	-0.353532	-0.184797
C14	C	1.036627	0.000098	-0.300817
C15	C	0.905607	0.000121	-0.297341
C16	C	0.933570	0.000105	-0.068771
C17	C	1.064588	0.000072	-0.072249
C18	C	1.020482	0.000113	-0.432780
C19	C	0.889461	0.000136	-0.429304
C20	C	1.565336	-0.421306	-0.104188
C21	C	1.565356	-0.578469	-0.104184
C22	C	1.714631	0.000114	-0.177630
C23	C	1.854074	0.000132	-0.181321
C24	C	1.492263	0.000094	0.044739
C25	C	1.488571	0.000099	0.184182
N26	N	1.485117	0.353726	-0.184790
C27	C	1.477925	0.000103	-0.414336
C28	C	1.481616	0.000108	-0.553779
C29	C	1.601112	0.000102	0.263668
C30	C	1.597636	0.000111	0.394688
C31	C	1.369066	0.000109	0.366725
C32	C	1.372544	0.000110	0.235707
C33	C	1.733075	0.000097	0.279813
C34	C	1.729599	0.000106	0.410834
H35	H	1.129302	0.000034	0.019393
Br36	Br	1.211609	0.000132	0.436660
Br37	Br	0.863635	0.000096	0.088686
Br38	Br	1.803075	-0.163259	0.220416
Br39	Br	1.370595	-0.549148	-0.299837
Br40	Br	1.069371	-0.158207	-0.518808
Br41	Br	1.079935	0.163449	-0.502808
H42	H	0.843784	-0.097857	-0.469184
H43	H	1.416381	-0.411859	-0.253802
H44	H	1.280902	0.000126	0.170993
H45	H	1.769486	0.098113	0.456477
H46	H	1.784697	0.095085	0.250455
Br47	Br	1.679518	-0.324103	0.011157
H48	H	0.847734	0.095137	-0.479026
Br49	Br	1.679894	-0.675603	0.010839
H50	H	1.779314	-0.094881	0.452594
