data_functionalizedCrystal
_audit_creation_method	'MofGen! by Chris Wilmer'
_symmetry_space_group_name_H-M	'P1'
_symmetry_Int_Tables_number	1
_symmetry_cell_setting	triclinic
loop_
_symmetry_equiv_pos_as_xyz
  x,y,z
_cell_length_a	16.992697
_cell_length_b	15.021413
_cell_length_c	16.992695
_cell_angle_alpha	90.003993
_cell_angle_beta	90.668337
_cell_angle_gamma	89.998647
loop_
_atom_site_label
_atom_site_type_symbol
_atom_site_fract_x
_atom_site_fract_y
_atom_site_fract_z
O1	O	-1.050854	0.073904	-0.166908
O2	O	-0.822454	0.073934	-0.165077
O3	O	-0.935739	0.073912	-0.051793
O4	O	-0.937570	0.073926	-0.280193
O5	O	-0.935720	-0.074152	-0.051809
O6	O	-0.822436	-0.074130	-0.165093
O7	O	-1.050836	-0.074160	-0.166925
Zn8	Zn	-0.936633	-0.097654	-0.166011
Zn9	Zn	-0.936657	0.097427	-0.165990
O10	O	-0.937552	-0.074138	-0.280209
C11	C	-0.793085	-0.000094	-0.162729
C12	C	-0.705600	-0.000083	-0.155700
N13	N	-0.936623	-0.230791	-0.166026
C14	C	-0.659609	-0.000079	-0.223518
C15	C	-0.577409	-0.000090	-0.216909
C16	C	-0.541200	-0.000099	-0.142481
C17	C	-0.587197	-0.000106	-0.074658
C18	C	-0.669397	-0.000101	-0.081268
C19	C	-0.295886	-0.000121	-0.115086
C20	C	-0.213681	-0.000123	-0.108481
C21	C	-0.203898	-0.000109	-0.250733
C22	C	-0.286099	-0.000098	-0.257336
C23	C	-0.332089	-0.000110	-0.189513
N24	N	-0.457178	-0.000108	-0.135724
N25	N	-0.416109	-0.000108	-0.196271
C26	C	-0.884230	-0.470464	-0.218381
C27	C	-0.956318	-0.529807	-0.238117
C28	C	-0.936641	-0.412398	-0.166007
C29	C	-0.864574	-0.529797	-0.146290
C30	C	-0.936653	-0.587822	-0.165991
C31	C	-1.008768	-0.470435	-0.185781
C32	C	-0.916975	-0.470419	-0.093920
C33	C	-0.989113	-0.529735	-0.113629
C34	C	-0.936634	-0.311341	-0.166019
C35	C	-0.936669	-0.688878	-0.165979
C36	C	-0.080205	-0.000126	-0.169272
C37	C	-0.167690	-0.000119	-0.176299
C38	C	-0.933374	-0.000120	-0.022440
C39	C	-0.926345	-0.000119	0.065044
N40	N	-0.936674	0.230565	-0.165970
C41	C	-0.939916	-0.000105	-0.309561
C42	C	-0.946945	-0.000100	-0.397045
C43	C	-0.994163	-0.000128	0.111035
C44	C	-0.987554	-0.000119	0.193236
C45	C	-0.913126	-0.000106	0.229444
C46	C	-0.845303	-0.000094	0.183447
C47	C	-0.851913	-0.000097	0.101248
C48	C	-0.885732	-0.000091	0.474758
C49	C	-0.879127	-0.000090	0.556964
C50	C	-1.021379	-0.000114	0.566747
C51	C	-1.027982	-0.000122	0.484545
C52	C	-0.960159	-0.000105	0.438556
N53	N	-0.906369	-0.000100	0.313466
N54	N	-0.966917	-0.000105	0.354535
H55	H	-0.689084	-0.000071	-0.284125
Br56	Br	-0.810438	-0.427083	-0.292267
H57	H	-0.803622	-0.555875	-0.129622
Br58	Br	-0.514995	-0.000082	-0.308952
H59	H	-0.900309	-0.444313	-0.032982
H60	H	-1.042779	-0.000129	0.230678
Br61	Br	-0.984064	-0.573285	-0.339713
Br62	Br	-0.164541	-0.000155	-0.007466
Br63	Br	-0.744293	-0.000062	0.232586
Br64	Br	-1.110390	-0.427163	-0.213680
H65	H	-0.830505	-0.000077	0.437323
Br66	Br	-0.358291	-0.000139	-0.023040
Br67	Br	-1.095177	-0.000159	0.061903
Br68	Br	-0.141480	-0.000094	-0.342773
Br69	Br	-0.538059	-0.000128	0.026352
H70	H	-1.088589	-0.000133	0.455070
Br71	Br	-0.759871	-0.000076	0.038831
H72	H	-0.315574	-0.000081	-0.317943
H73	H	-0.706842	-0.000104	-0.026043
Br74	Br	-1.063077	-0.572846	-0.039795
H75	H	-1.076596	-0.000126	0.604200
H76	H	-0.818516	-0.000094	0.586442
