data_functionalizedCrystal
_audit_creation_method	'MofGen! by Chris Wilmer'
_symmetry_space_group_name_H-M	'P1'
_symmetry_Int_Tables_number	1
_symmetry_cell_setting	triclinic
loop_
_symmetry_equiv_pos_as_xyz
  x,y,z
_cell_length_a	17.038272
_cell_length_b	16.109301
_cell_length_c	14.586319
_cell_angle_alpha	90.005214
_cell_angle_beta	89.998439
_cell_angle_gamma	92.713482
loop_
_atom_site_label
_atom_site_type_symbol
_atom_site_fract_x
_atom_site_fract_y
_atom_site_fract_z
O1	O	1.037364	-0.180538	-0.076209
O2	O	0.809734	-0.177672	-0.076219
O3	O	0.929802	-0.058518	-0.076204
O4	O	0.917296	-0.299692	-0.076223
O5	O	0.929794	-0.058516	0.076277
O6	O	0.809725	-0.177669	0.076262
O7	O	1.037356	-0.180536	0.076272
Cu8	Cu	0.923540	-0.179102	0.090190
Cu9	Cu	0.923550	-0.179105	-0.090137
O10	O	0.917287	-0.299690	0.076257
C11	C	0.780601	-0.175063	0.000021
C12	C	0.693808	-0.167284	0.000017
C13	C	0.929291	-0.027506	0.000037
C14	C	0.927773	0.064897	0.000038
C15	C	1.066488	-0.183145	0.000031
C16	C	1.153281	-0.190924	0.000028
C17	C	1.203396	-0.119503	0.000031
C18	C	1.284946	-0.126817	0.000033
C19	C	1.316381	-0.205553	0.000027
C20	C	1.266259	-0.276979	0.000027
C21	C	1.184710	-0.269664	0.000031
C22	C	1.562138	-0.231395	0.000021
C23	C	1.643694	-0.238705	0.000015
C24	C	1.662375	-0.088542	0.000023
C25	C	1.580824	-0.081234	0.000021
C26	C	1.530710	-0.152660	0.000026
C27	C	1.399738	-0.213031	0.000027
C28	C	1.447354	-0.145181	0.000032
C29	C	0.917798	-0.330702	0.000014
C30	C	0.919317	-0.423105	0.000007
N31	N	0.923539	-0.179100	0.217021
C32	C	0.995487	0.282360	0.000026
C33	C	0.994054	0.369183	0.000019
C34	C	0.851597	0.359425	0.000016
C35	C	0.853031	0.272605	0.000017
C36	C	0.924978	0.234075	0.000027
C37	C	0.922111	0.407718	0.000018
C38	C	0.920557	0.501854	0.000010
C39	C	0.926533	0.139932	0.000033
N40	N	0.923557	-0.179101	-0.216968
C41	C	0.976723	-0.126359	0.452034
C42	C	0.976725	-0.126357	0.548015
C43	C	0.870368	-0.231845	0.548012
C44	C	0.870362	-0.231842	0.452033
C45	C	0.923544	-0.179100	0.404046
C46	C	0.923552	-0.179101	0.596007
C47	C	0.923554	-0.179100	0.700074
C48	C	0.923541	-0.179100	0.299972
H49	H	1.177809	-0.055388	0.000030
C50	C	1.464112	-0.003348	0.000014
C51	C	1.546273	0.005314	0.000021
H52	H	1.442783	0.050084	0.000003
H53	H	1.446912	-0.032986	0.053186
H54	H	1.446920	-0.033008	-0.053161
H55	H	1.563465	0.034969	0.053200
H56	H	1.563480	0.034964	-0.053157
H57	H	1.425341	-0.277138	0.000019
C58	C	0.765234	-0.336123	0.461662
C59	C	0.811906	-0.289822	0.399277
H60	H	0.729150	-0.371917	0.429091
H61	H	0.737124	-0.299513	0.499104
H62	H	0.797778	-0.368351	0.499091
H63	H	0.779362	-0.257589	0.361852
H64	H	0.840018	-0.326436	0.361819
H65	H	1.325747	-0.068658	0.000039
C66	C	1.795679	-0.033077	0.000029
C67	C	1.717462	-0.010034	0.000030
H68	H	1.829685	0.015394	0.000041
H69	H	1.805203	-0.065116	-0.053146
H70	H	1.805196	-0.065126	0.053201
H71	H	1.707943	0.022010	-0.053147
H72	H	1.707934	0.022018	0.053210
C73	C	1.136155	0.300729	0.000011
C74	C	1.074571	0.240007	0.000020
H75	H	1.184978	0.274582	-0.000002
H76	H	1.132636	0.334390	0.053182
H77	H	1.132622	0.334387	-0.053165
H78	H	1.078100	0.206353	0.053200
H79	H	1.078091	0.206332	-0.053157
H80	H	0.827069	-0.274787	0.587092
H81	H	1.051470	0.408493	0.000016
H82	H	1.669283	-0.302824	0.000022
H83	H	1.143907	-0.327822	0.000032
H84	H	1.421757	-0.081075	0.000027
H85	H	1.521345	-0.289556	0.000020
C86	C	1.022684	0.014293	0.577568
C87	C	1.035183	-0.068384	0.600762
H88	H	1.058779	0.050084	0.610128
H89	H	0.970518	0.027040	0.593310
H90	H	1.030292	0.021829	0.513536
H91	H	1.027569	-0.075921	0.664793
H92	H	1.087362	-0.081136	0.585027
C93	C	0.771998	0.169303	0.078397
C94	C	0.775523	0.219519	0.000016
H95	H	0.724153	0.136527	0.078388
H96	H	0.774390	0.203379	0.131562
H97	H	0.815057	0.133937	0.078388
H98	H	0.732467	0.254889	0.000029
H99	H	0.773124	0.185440	-0.053162
H100	H	1.291859	-0.341087	0.000027
C101	C	0.767345	0.451404	-0.078365
C102	C	0.772516	0.401784	0.000016
H103	H	0.718525	0.477557	-0.078358
H104	H	0.770861	0.417733	-0.131530
H105	H	0.809138	0.492584	-0.078355
H106	H	0.730727	0.360600	0.000002
H107	H	0.768993	0.435458	0.053194
C108	C	0.993665	-0.014381	0.344161
C109	C	1.035153	-0.068340	0.399309
H110	H	1.029733	0.021447	0.311617
H111	H	0.961117	0.017801	0.381630
H112	H	0.962017	-0.045801	0.301826
H113	H	1.066797	-0.036921	0.441649
H114	H	1.067715	-0.100526	0.361837
