data_functionalizedCrystal
_audit_creation_method	'MofGen! by Chris Wilmer'
_symmetry_space_group_name_H-M	'P1'
_symmetry_Int_Tables_number	1
_symmetry_cell_setting	triclinic
loop_
_symmetry_equiv_pos_as_xyz
  x,y,z
_cell_length_a	17.699077
_cell_length_b	11.792241
_cell_length_c	16.776229
_cell_angle_alpha	89.993219
_cell_angle_beta	89.993415
_cell_angle_gamma	83.736996
loop_
_atom_site_label
_atom_site_type_symbol
_atom_site_fract_x
_atom_site_fract_y
_atom_site_fract_z
O1	O	1.004846	0.143494	-0.066278
O2	O	1.504846	0.643494	0.433722
O3	O	0.784567	0.162175	-0.066282
O4	O	1.284567	0.662175	0.433718
O5	O	0.900052	-0.012400	-0.066274
O6	O	1.400052	0.487600	0.433726
O7	O	0.889361	0.318069	-0.066286
O8	O	1.389361	0.818069	0.433714
O9	O	0.900037	-0.012411	0.066302
O10	O	1.400037	0.487589	0.566302
O11	O	0.784551	0.162164	0.066295
O12	O	1.284551	0.662164	0.566295
O13	O	1.004831	0.143484	0.066299
O14	O	1.504831	0.643484	0.566299
Zn15	Zn	0.894689	0.152822	0.087346
Zn16	Zn	1.394689	0.652822	0.587346
Zn17	Zn	0.894709	0.152836	-0.087329
Zn18	Zn	1.394709	0.652836	0.412671
O19	O	0.889345	0.318059	0.066291
O20	O	1.389345	0.818059	0.566291
C21	C	0.756358	0.161501	0.000006
C22	C	1.256358	0.661501	0.500006
C23	C	0.672329	0.159497	0.000005
C24	C	1.172329	0.659497	0.500005
C25	C	0.632848	0.158546	0.072273
C26	C	1.132848	0.658546	0.572273
C27	C	0.553896	0.156644	0.072274
C28	C	1.053896	0.656644	0.572274
C29	C	0.514425	0.155701	0.000006
C30	C	1.014425	0.655701	0.500006
C31	C	0.553911	0.156648	-0.072268
C32	C	1.053911	0.656648	0.427732
C33	C	0.632863	0.158542	-0.072268
C34	C	1.132863	0.658542	0.427732
C35	C	0.235507	0.149011	-0.072270
C36	C	0.735507	0.649011	0.427730
C37	C	0.156550	0.147120	-0.072264
C38	C	0.656550	0.647120	0.427736
C39	C	0.156540	0.147113	0.072273
C40	C	0.656540	0.647113	0.572273
C41	C	0.235492	0.149007	0.072273
C42	C	0.735492	0.649007	0.572273
C43	C	0.274972	0.149948	-0.000001
C44	C	0.774972	0.649948	0.499999
C45	C	0.360582	0.152007	-0.000001
C46	C	0.860582	0.652007	0.499999
C47	C	0.428816	0.153650	0.000005
C48	C	0.928816	0.653650	0.500005
C49	C	0.899373	-0.054688	0.000014
C50	C	1.399373	0.445312	0.500014
C51	C	0.897363	-0.180678	0.000013
C52	C	1.397363	0.319322	0.500013
C53	C	0.893666	-0.411346	-0.000000
C54	C	1.393666	0.088654	0.500000
C55	C	0.895720	-0.282985	0.000007
C56	C	1.395720	0.217015	0.500007
C57	C	1.033039	0.144157	0.000009
C58	C	1.533039	0.644157	0.500009
C59	C	1.117068	0.146162	0.000005
C60	C	1.617068	0.646162	0.500005
C61	C	0.890025	0.360347	0.000001
C62	C	1.390025	0.860347	0.500001
C63	C	0.892035	0.486336	-0.000003
C64	C	1.392035	0.986336	0.499997
N65	N	0.894680	0.152812	0.206557
N66	N	1.394680	0.652812	0.706557
N67	N	0.894723	0.152838	-0.206541
N68	N	1.394723	0.652838	0.293459
C69	C	0.945833	0.075542	0.248278
C70	C	1.445833	0.575542	0.748278
C71	C	0.945837	0.075541	0.331730
C72	C	1.445837	0.575541	0.831730
C73	C	0.894692	0.152816	0.373460
C74	C	1.394692	0.652816	0.873460
C75	C	0.843533	0.230090	0.331734
C76	C	1.343533	0.730090	0.831734
C77	C	0.843526	0.230085	0.248283
C78	C	1.343526	0.730085	0.748283
C79	C	0.843561	0.230112	0.668281
C80	C	1.343561	0.730112	1.168281
C81	C	0.843574	0.230114	0.751737
C82	C	1.343574	0.730114	1.251737
C83	C	0.945872	0.075568	0.751728
C84	C	1.445872	0.575568	1.251728
C85	C	0.945864	0.075563	0.668277
C86	C	1.445864	0.575563	1.168277
C87	C	0.894704	0.152832	0.626558
C88	C	1.394704	0.652832	1.126558
C89	C	0.894699	0.152831	0.536070
C90	C	1.394699	0.652831	1.036070
C91	C	0.894700	0.152824	0.463947
C92	C	1.394700	0.652824	0.963947
H93	H	0.521768	0.155873	-0.131110
H94	H	1.021768	0.655873	0.368890
F95	F	0.674882	0.159549	-0.149186
F96	F	1.174882	0.659549	0.350814
H97	H	0.987484	0.012620	0.214306
H98	H	1.487484	0.512620	0.714306
H99	H	0.124386	0.146342	0.131121
H100	H	0.624386	0.646342	0.631121
F101	F	1.000302	-0.006679	0.623868
F102	F	1.500302	0.493321	1.123868
F103	F	0.114543	0.146115	-0.149186
F104	F	0.614543	0.646115	0.350814
F105	F	0.277515	0.150013	-0.149190
F106	F	0.777515	0.650013	0.350810
F107	F	1.000278	-0.006700	0.376132
F108	F	1.500278	0.493300	0.876132
F109	F	1.000320	-0.006673	0.796134
F110	F	1.500320	0.493327	1.296134
H111	H	0.801922	0.293043	0.785713
H112	H	1.301922	0.793043	1.285713
F113	F	0.789115	0.312350	0.623887
F114	F	1.289115	0.812350	1.123887
F115	F	0.789080	0.312323	0.203882
F116	F	1.289080	0.812323	0.703882
F117	F	0.789096	0.312328	0.376147
F118	F	1.289096	0.812328	0.876147
F119	F	0.511879	0.155649	0.149192
F120	F	1.011879	0.655649	0.649192
F121	F	0.674849	0.159557	0.149192
F122	F	1.174849	0.659557	0.649192
H123	H	0.267625	0.149780	0.131121
H124	H	0.767625	0.649780	0.631121
