data_functionalizedCrystal
_audit_creation_method	'MofGen! by Chris Wilmer'
_symmetry_space_group_name_H-M	'P1'
_symmetry_Int_Tables_number	1
_symmetry_cell_setting	triclinic
loop_
_symmetry_equiv_pos_as_xyz
  x,y,z
_cell_length_a	10.723024
_cell_length_b	17.699083
_cell_length_c	16.776229
_cell_angle_alpha	90.001114
_cell_angle_beta	89.994545
_cell_angle_gamma	96.124558
loop_
_atom_site_label
_atom_site_type_symbol
_atom_site_fract_x
_atom_site_fract_y
_atom_site_fract_z
O1	O	0.157797	-1.005074	-0.066174
O2	O	0.657797	-0.505074	0.433826
O3	O	0.178327	-0.784825	-0.066200
O4	O	0.678327	-0.284825	0.433800
O5	O	-0.013601	-0.900030	-0.066184
O6	O	0.486399	-0.400030	0.433816
O7	O	0.349725	-0.889869	-0.066191
O8	O	0.849725	-0.389869	0.433809
O9	O	-0.013613	-0.900014	0.066393
O10	O	0.486387	-0.400014	0.566393
O11	O	0.178315	-0.784809	0.066376
O12	O	0.678315	-0.284809	0.566376
O13	O	0.157785	-1.005058	0.066402
O14	O	0.657785	-0.505058	0.566402
Zn15	Zn	0.168048	-0.894931	0.087439
Zn16	Zn	0.668048	-0.394931	0.587439
Zn17	Zn	0.168064	-0.894952	-0.087237
Zn18	Zn	0.668064	-0.394952	0.412763
O19	O	0.349713	-0.889854	0.066386
O20	O	0.849713	-0.389854	0.566386
C21	C	0.177585	-0.756616	0.000085
C22	C	0.677585	-0.256616	0.500085
C23	C	0.175378	-0.672584	0.000075
C24	C	0.675378	-0.172584	0.500075
C25	C	-0.060094	-0.899283	0.000103
C26	C	0.439906	-0.399283	0.500103
C27	C	-0.198610	-0.897070	0.000100
C28	C	0.301390	-0.397070	0.500100
C29	C	0.158527	-1.033268	0.000115
C30	C	0.658527	-0.533268	0.500115
C31	C	0.160734	-1.117300	0.000120
C32	C	0.660734	-0.617300	0.500120
C33	C	-0.274698	-0.961533	0.000107
C34	C	0.225302	-0.461533	0.500107
C35	C	-0.417863	-0.959248	0.000104
C36	C	0.082137	-0.459248	0.500104
C37	C	0.396206	-0.890601	0.000097
C38	C	0.896206	-0.390601	0.500097
C39	C	0.534723	-0.892813	0.000095
C40	C	1.034723	-0.392813	0.500095
N41	N	0.168037	-0.894923	0.206650
N42	N	0.668037	-0.394923	0.706650
C43	C	0.288036	-0.624673	0.000073
C44	C	0.788036	-0.124673	0.500073
C45	C	0.285955	-0.545717	0.000083
C46	C	0.785955	-0.045717	0.500083
C47	C	0.171215	-0.514672	0.000090
C48	C	0.671215	-0.014672	0.500090
C49	C	0.058549	-0.562589	0.000094
C50	C	0.558549	-0.062589	0.500094
C51	C	0.060631	-0.641544	0.000090
C52	C	0.560631	-0.141544	0.500090
C53	C	0.050148	-0.244173	0.000114
C54	C	0.550148	0.255827	0.500114
C55	C	0.048075	-0.165212	0.000116
C56	C	0.548075	0.334788	0.500116
C57	C	0.275473	-0.148346	0.000108
C58	C	0.775473	0.351654	0.500108
C59	C	0.277555	-0.227301	0.000103
C60	C	0.777555	0.272699	0.500103
C61	C	0.164889	-0.275210	0.000112
C62	C	0.664889	0.224790	0.500112
C63	C	0.167147	-0.360824	0.000102
C64	C	0.667147	0.139176	0.500102
C65	C	0.168956	-0.429060	0.000094
C66	C	0.668956	0.070940	0.500094
N67	N	0.168065	-0.894966	-0.206448
N68	N	0.668065	-0.394966	0.293552
C69	C	0.083086	-0.945952	0.248374
C70	C	0.583086	-0.445952	0.748374
C71	C	0.083085	-0.945956	0.331826
C72	C	0.583085	-0.445956	0.831826
C73	C	0.168042	-0.894934	0.373553
C74	C	0.668042	-0.394934	0.873553
C75	C	0.252997	-0.843900	0.331822
C76	C	0.752997	-0.343900	0.831822
C77	C	0.252991	-0.843893	0.248372
C78	C	0.752991	-0.343893	0.748372
C79	C	0.253021	-0.843928	0.668370
C80	C	0.753021	-0.343928	1.168370
C81	C	0.253023	-0.843941	0.751826
C82	C	0.753023	-0.343941	1.251826
C83	C	0.083115	-0.945991	0.751824
C84	C	0.583115	-0.445991	1.251824
C85	C	0.083109	-0.945983	0.668374
C86	C	0.583109	-0.445983	1.168374
C87	C	0.168059	-0.894947	0.626651
C88	C	0.668059	-0.394947	1.126651
C89	C	0.168058	-0.894942	0.536162
C90	C	0.668058	-0.394942	1.036162
C91	C	0.168050	-0.894942	0.464040
C92	C	0.668050	-0.394942	0.964040
H93	H	-0.233851	-1.018413	0.000118
H94	H	0.266149	-0.518413	0.500118
F95	F	0.343433	-0.789614	0.623971
F96	F	0.843433	-0.289614	1.123971
H97	H	0.322166	-0.802354	0.365801
H98	H	0.822166	-0.302354	0.865801
H99	H	-0.045366	-0.139939	0.000123
H100	H	0.454634	0.360061	0.500123
F101	F	-0.059275	-0.692534	0.000094
F102	F	0.440725	-0.192534	0.500094
H103	H	-0.034875	-0.537306	0.000111
H104	H	0.465125	-0.037306	0.500111
H105	H	0.377693	-0.506711	0.000081
H106	H	0.877693	-0.006711	0.500081
H107	H	-0.399906	-0.837625	0.000094
H108	H	0.100094	-0.337625	0.500094
H109	H	0.013910	-0.987502	0.214406
H110	H	0.513910	-0.487502	0.714406
H111	H	-0.483241	-1.014433	0.000113
H112	H	0.016759	-0.514433	0.500113
H113	H	0.367210	-0.109328	0.000105
H114	H	0.867210	0.390672	0.500105
F115	F	0.343404	-0.789579	0.203967
F116	F	0.843404	-0.289579	0.703967
H117	H	-0.239457	-0.840190	0.000089
H118	H	0.260543	-0.340190	0.500089
H119	H	-0.041591	-0.283172	0.000122
H120	H	0.458409	0.216828	0.500122
F121	F	0.399676	-0.260336	0.000091
F122	F	0.899676	0.239664	0.500091
F123	F	0.410160	-0.657705	0.000060
F124	F	0.910160	-0.157705	0.500060
F125	F	-0.007331	-1.000265	0.376233
F126	F	0.492669	-0.500265	0.876233
F127	F	-0.007308	-1.000289	0.623969
F128	F	0.492692	-0.500289	1.123969
H129	H	0.013940	-0.987545	0.785804
H130	H	0.513940	-0.487545	1.285804
H131	H	0.322208	-0.802390	0.785798
H132	H	0.822208	-0.302390	1.285798
