data_functionalizedCrystal
_audit_creation_method	'MofGen! by Chris Wilmer'
_symmetry_space_group_name_H-M	'P1'
_symmetry_Int_Tables_number	1
_symmetry_cell_setting	triclinic
loop_
_symmetry_equiv_pos_as_xyz
  x,y,z
_cell_length_a	15.944499
_cell_length_b	15.944545
_cell_length_c	9.482900
_cell_angle_alpha	99.332832
_cell_angle_beta	80.709219
_cell_angle_gamma	83.486891
loop_
_atom_site_label
_atom_site_type_symbol
_atom_site_fract_x
_atom_site_fract_y
_atom_site_fract_z
O1	O	1.127651	0.094962	-0.120989
O2	O	0.883093	0.108365	-0.120974
O3	O	1.012051	-0.020611	-0.120965
O4	O	0.998693	0.223938	-0.120998
O5	O	0.985857	0.005692	0.120826
O6	O	0.856899	0.134668	0.120817
O7	O	1.101456	0.121265	0.120801
Cu8	Cu	0.976786	0.130368	0.142886
Cu9	Cu	1.007763	0.099262	-0.143059
O10	O	0.972498	0.250241	0.120792
C11	C	0.838701	0.120968	-0.000076
C12	C	0.745452	0.119324	-0.000070
C13	C	0.998400	-0.038753	-0.000068
C14	C	0.996739	-0.131999	-0.000064
C15	C	0.453918	0.194253	-0.000102
C16	C	0.527863	0.142333	-0.119315
C17	C	0.409819	0.113344	-0.000103
C18	C	0.502023	0.168244	0.119072
C19	C	0.574726	0.116287	-0.000084
C20	C	0.482547	0.061391	-0.119414
C21	C	0.456689	0.087325	0.119080
C22	C	0.530619	0.035342	-0.000162
C23	C	0.314820	0.111651	-0.000115
C24	C	0.669724	0.117972	-0.000083
C25	C	0.911846	-0.402619	-0.000088
C26	C	0.965692	-0.365010	-0.119307
C27	C	0.990823	-0.467646	-0.000105
C28	C	0.939887	-0.339104	0.119080
C29	C	0.993725	-0.302731	-0.000082
C30	C	1.044658	-0.431276	-0.119422
C31	C	1.018830	-0.405362	0.119072
C32	C	1.072737	-0.367790	-0.000176
C33	C	0.989149	-0.562649	-0.000119
C34	C	0.995407	-0.207731	-0.000078
C35	C	1.145849	0.108661	-0.000099
C36	C	1.239099	0.110305	-0.000115
C37	C	0.986150	0.268383	-0.000108
C38	C	0.987811	0.361628	-0.000121
N39	N	0.955004	0.152246	0.344005
N40	N	1.029552	0.077377	-0.344178
C41	C	1.001333	0.105710	0.416208
C42	C	0.983216	0.123920	0.583624
H43	H	0.420600	0.261385	-0.000227
H44	H	0.473499	0.016225	-0.220312
O45	O	1.153958	-0.349407	-0.000050
C46	C	1.182235	-0.371074	0.124555
H47	H	1.144191	-0.421400	0.165692
H48	H	1.171947	-0.311260	0.212932
C49	C	1.325138	-0.345745	0.035191
C50	C	1.278416	-0.407563	0.085708
H51	H	1.384468	-0.368250	0.011232
H52	H	1.306087	-0.331145	-0.048756
H53	H	1.316555	-0.295906	0.108847
H54	H	1.286991	-0.457396	0.012046
H55	H	1.297471	-0.422173	0.169642
O56	O	1.092885	0.013702	0.581952
C57	C	1.132458	-0.026014	0.681595
H58	H	1.086320	-0.015134	0.790149
H59	H	1.193215	0.002849	0.697698
C60	C	1.212604	-0.136450	0.488718
C61	C	1.155934	-0.123092	0.622043
H62	H	1.227089	-0.196331	0.451983
H63	H	1.185946	-0.109691	0.421585
H64	H	1.263228	-0.112391	0.502156
H65	H	1.105307	-0.147141	0.608601
H66	H	1.182584	-0.149858	0.689173
H67	H	0.425653	0.064097	0.219877
O68	O	0.512837	0.222268	0.239265
C69	C	0.473464	0.305965	0.238778
H70	H	0.421624	0.302389	0.168985
H71	H	0.523739	0.344476	0.192242
C72	C	0.496239	0.354591	0.481107
C73	C	0.432564	0.350198	0.395396
H74	H	0.471013	0.381878	0.577716
H75	H	0.522769	0.298204	0.481434
H76	H	0.538130	0.386682	0.442310
H77	H	0.390681	0.318098	0.434183
H78	H	0.406026	0.406581	0.395079
H79	H	0.843844	-0.418271	-0.000200
H80	H	0.943257	-0.347033	-0.220093
O81	O	1.045422	-0.426764	0.239458
C82	C	0.989973	-0.379192	0.364914
H83	H	0.925136	-0.357704	0.336357
H84	H	1.019090	-0.320395	0.408409
C85	C	1.057288	-0.462070	0.516850
C86	C	0.977652	-0.435684	0.481779
H87	H	1.049689	-0.496914	0.588942
H88	H	1.094647	-0.494118	0.432329
H89	H	1.081543	-0.413066	0.553088
H90	H	0.953402	-0.484687	0.445525
H91	H	0.940287	-0.403645	0.566297
O92	O	0.919942	0.187634	0.657561
C93	C	0.937836	0.266716	0.620488
H94	H	0.982128	0.254574	0.509924
H95	H	0.970511	0.301850	0.706105
C96	C	0.799012	0.336956	0.749487
C97	C	0.853406	0.322043	0.613685
H98	H	0.746932	0.371086	0.745296
H99	H	0.786957	0.283678	0.774469
H100	H	0.826251	0.366230	0.820820
H101	H	0.826171	0.292760	0.542358
H102	H	0.865455	0.375317	0.588690
H103	H	1.088917	-0.471065	-0.220323
H104	H	0.558879	0.165592	-0.220103
O105	O	0.570211	-0.044878	-0.000481
C106	C	0.560726	-0.100903	-0.126315
H107	H	0.548280	-0.062196	-0.213778
H108	H	0.504294	-0.137051	-0.099005
C109	C	0.658696	-0.213098	-0.075088
C110	C	0.643416	-0.165559	-0.182517
H111	H	0.709701	-0.252984	-0.109754
H112	H	0.665084	-0.175355	0.009692
H113	H	0.611663	-0.243214	-0.052340
H114	H	0.690443	-0.135436	-0.205250
H115	H	0.637038	-0.203299	-0.267302
O116	O	0.891733	0.215957	0.417948
C117	C	0.909627	0.295039	0.380875
H118	H	0.953919	0.282897	0.270311
H119	H	0.942302	0.330173	0.466492
C120	C	0.770803	0.365279	0.509874
C121	C	0.825197	0.350366	0.374071
H122	H	0.718723	0.399410	0.505683
H123	H	0.758748	0.312001	0.534856
H124	H	0.798042	0.394553	0.581207
H125	H	0.797962	0.321083	0.302745
H126	H	0.837246	0.403640	0.349077
O127	O	0.886950	-0.291621	0.239291
C128	C	0.802246	-0.309047	0.238825
H129	H	0.803710	-0.374709	0.169014
H130	H	0.765505	-0.257697	0.192321
C131	C	0.755573	-0.228102	0.481179
C132	C	0.757372	-0.308752	0.395446
H133	H	0.727890	-0.227917	0.577789
H134	H	0.812639	-0.216358	0.481492
H135	H	0.724957	-0.185319	0.442409
H136	H	0.787996	-0.351532	0.434206
H137	H	0.700310	-0.320503	0.395143
H138	H	1.054407	0.052385	0.354083
