data_functionalizedCrystal
_audit_creation_method	'MofGen! by Chris Wilmer'
_symmetry_space_group_name_H-M	'P1'
_symmetry_Int_Tables_number	1
_symmetry_cell_setting	triclinic
loop_
_symmetry_equiv_pos_as_xyz
  x,y,z
_cell_length_a	12.645330
_cell_length_b	11.169417
_cell_length_c	11.169409
_cell_angle_alpha	90.019824
_cell_angle_beta	89.967722
_cell_angle_gamma	89.981430
loop_
_atom_site_label
_atom_site_type_symbol
_atom_site_fract_x
_atom_site_fract_y
_atom_site_fract_z
Zn1	Zn	-0.421929	-1.834901	-0.678543
Zn2	Zn	0.078071	-1.334901	-0.178543
Zn3	Zn	-0.599240	-1.834765	-0.477860
Zn4	Zn	-0.099240	-1.334765	0.022140
Zn5	Zn	-0.421993	-1.634187	-0.477878
Zn6	Zn	0.078007	-1.134187	0.022122
Zn7	Zn	-0.599153	-1.634169	-0.678505
Zn8	Zn	-0.099153	-1.134169	-0.178505
O9	O	-0.510579	-1.734505	-0.578197
O10	O	-0.010579	-1.234505	-0.078197
O11	O	-0.445458	-2.002833	-0.651931
O12	O	0.054542	-1.502833	-0.151931
O13	O	-0.575791	-1.808108	-0.309913
O14	O	-0.075791	-1.308108	0.190087
O15	O	-0.273637	-1.660877	-0.504519
O16	O	0.226363	-1.160877	-0.004519
O17	O	-0.575728	-2.002732	-0.504490
O18	O	-0.075728	-1.502732	-0.004490
O19	O	-0.273590	-1.808341	-0.651948
O20	O	0.226410	-1.308341	-0.151948
O21	O	-0.445569	-1.660745	-0.309925
O22	O	0.054431	-1.160745	0.190075
O23	O	-0.445485	-1.466235	-0.504483
O24	O	0.054515	-0.966235	-0.004483
O25	O	-0.575581	-1.660846	-0.846460
O26	O	-0.075581	-1.160846	-0.346460
O27	O	-0.575644	-1.466221	-0.651883
O28	O	-0.075644	-0.966221	-0.151883
O29	O	-0.445375	-1.808323	-0.846488
O30	O	0.054625	-1.308323	-0.346488
O31	O	-0.747575	-1.808090	-0.504453
O32	O	-0.247575	-1.308090	-0.004453
O33	O	-0.747512	-1.660713	-0.651866
O34	O	-0.247512	-1.160713	-0.151866
C35	C	-0.510563	-1.422681	-0.578181
C36	C	-0.010563	-0.922681	-0.078181
C37	C	-0.510581	-1.289281	-0.578203
C38	C	-0.010581	-0.789281	-0.078203
C39	C	-0.786008	-1.734418	-0.578180
C40	C	-0.286008	-1.234418	-0.078180
C41	C	-0.903838	-1.734490	-0.578213
C42	C	-0.403838	-1.234490	-0.078213
C43	C	-0.510461	-1.734597	-0.891239
C44	C	-0.010461	-1.234597	-0.391239
C45	C	-0.510411	-1.734637	-1.024639
C46	C	-0.010411	-1.234637	-0.524639
C47	C	-1.071407	-1.642158	-0.671236
C48	C	-0.571407	-1.142158	-0.171236
C49	C	-0.948847	-1.641685	-0.670937
C50	C	-0.448847	-1.141685	-0.170937
C51	C	-0.948447	-1.700247	-0.451730
C52	C	-0.448447	-1.200247	0.048270
C53	C	-1.071046	-1.699683	-0.452295
C54	C	-0.571046	-1.199683	0.047705
C55	C	-1.070922	-1.861631	-0.610646
C56	C	-0.570922	-1.361631	-0.110646
C57	C	-0.948315	-1.860852	-0.613412
C58	C	-0.448315	-1.360852	-0.113412
C59	C	-0.234073	-1.734626	-0.578240
C60	C	0.265927	-1.234626	-0.078240
C61	C	-0.116243	-1.734677	-0.578258
C62	C	0.383757	-1.234677	-0.078258
C63	C	-0.510596	-2.047548	-0.578213
C64	C	-0.010596	-1.547548	-0.078213
C65	C	-0.510603	-2.180948	-0.578220
C66	C	-0.010603	-1.680948	-0.078220
C67	C	-0.510619	-1.734483	-0.266372
C68	C	-0.010619	-1.234483	0.233628
C69	C	-0.510371	-1.734676	-0.132972
C70	C	-0.010371	-1.234676	0.367028
H71	H	-0.918682	-1.663110	-0.764723
H72	H	-0.418682	-1.163110	-0.264723
H73	H	-0.917841	-1.608410	-0.423796
H74	H	-0.417841	-1.108410	0.076204
O75	O	-1.111752	-1.903004	-0.730746
O76	O	-0.611752	-1.403004	-0.230746
H77	H	-1.078659	-1.992692	-0.751523
H78	H	-0.578659	-1.492692	-0.251523
H79	H	-1.100807	-1.663386	-0.765330
H80	H	-0.600807	-1.163386	-0.265330
O81	O	-1.109319	-1.953059	-0.521066
O82	O	-0.609319	-1.453059	-0.021066
H83	H	-1.155259	-2.023346	-0.568256
H84	H	-0.655259	-1.523346	-0.068256
O85	O	-1.112320	-1.518257	-0.643178
O86	O	-0.612320	-1.018257	-0.143178
H87	H	-1.164448	-1.522285	-0.563298
H88	H	-0.664448	-1.022285	-0.063298
H89	H	-1.099742	-1.606879	-0.424857
H90	H	-0.599742	-1.106879	0.075143
O91	O	-0.910111	-1.517027	-0.642485
O92	O	-0.410111	-1.017027	-0.142485
H93	H	-0.978946	-1.456848	-0.628875
H94	H	-0.478946	-0.956848	-0.128875
O95	O	-1.110354	-1.785047	-0.357390
O96	O	-0.610354	-1.285047	0.142610
H97	H	-1.041794	-1.826542	-0.311289
H98	H	-0.541794	-1.326542	0.188711
H99	H	-0.919296	-1.765497	-0.380561
H100	H	-0.419296	-1.265497	0.119439
O101	O	-0.909674	-1.895086	-0.736701
O102	O	-0.409674	-1.395086	-0.236701
H103	H	-0.858998	-1.822418	-0.772767
H104	H	-0.358998	-1.322418	-0.272767
O105	O	-0.907774	-1.956972	-0.530211
O106	O	-0.407774	-1.456972	-0.030211
H107	H	-0.855056	-1.915999	-0.462168
H108	H	-0.355056	-1.415999	0.037832
