data_functionalizedCrystal
_audit_creation_method	'MofGen! by Chris Wilmer'
_symmetry_space_group_name_H-M	'P1'
_symmetry_Int_Tables_number	1
_symmetry_cell_setting	triclinic
loop_
_symmetry_equiv_pos_as_xyz
  x,y,z
_cell_length_a	10.489741
_cell_length_b	9.565339
_cell_length_c	14.044190
_cell_angle_alpha	90.004600
_cell_angle_beta	88.865476
_cell_angle_gamma	90.000900
loop_
_atom_site_label
_atom_site_type_symbol
_atom_site_fract_x
_atom_site_fract_y
_atom_site_fract_z
O1	O	1.707631	0.116190	0.133829
O2	O	1.337710	0.116214	0.146392
O3	O	1.517113	0.116175	0.002088
O4	O	1.528228	0.116229	0.278133
O5	O	1.517099	-0.116345	0.002097
O6	O	1.337695	-0.116306	0.146401
O7	O	1.707617	-0.116330	0.133838
Zn8	Zn	1.522654	-0.153236	0.140121
Zn9	Zn	1.522673	0.153120	0.140109
O10	O	1.528213	-0.116291	0.278142
C11	C	1.290075	-0.000044	0.145447
C12	C	1.148157	-0.000036	0.142609
C13	C	1.070702	-0.000067	0.050792
C14	C	0.982982	0.114583	0.094161
C15	C	0.983004	-0.114664	0.094192
C16	C	1.062307	0.114709	0.186015
C17	C	1.062338	-0.114641	0.186033
C18	C	0.974653	0.000038	0.229469
N19	N	1.522650	-0.362315	0.140128
C20	C	1.439652	-0.453500	0.206842
C21	C	1.557096	-0.546682	0.226036
C22	C	1.405256	-0.546688	0.120942
C23	C	1.640157	-0.453445	0.159366
C24	C	1.488237	-0.453443	0.054234
C25	C	1.605761	-0.546583	0.073392
C26	C	1.755252	-0.000069	0.134783
C27	C	1.897169	-0.000068	0.137621
C28	C	1.512244	-0.000089	-0.033255
C29	C	1.497741	-0.000100	-0.138580
N30	N	1.522686	0.362199	0.140094
C31	C	1.574086	-0.000050	-0.388346
C32	C	1.471246	-0.000053	-0.331419
C33	C	1.485991	-0.000079	-0.224114
C34	C	1.559343	-0.000024	-0.495661
C35	C	1.533083	-0.000024	0.313485
C36	C	1.547586	-0.000003	0.418810
H37	H	0.948077	-0.211592	0.055329
F38	F	1.703633	-0.000075	-0.346716
H39	H	1.676048	-0.587197	0.016957
F40	F	1.125588	0.000060	-0.047879
H41	H	1.369539	-0.412630	0.263312
H42	H	1.372128	-0.000039	-0.363271
F43	F	1.107752	0.241546	0.236750
H44	H	0.932895	0.000115	0.305027
H45	H	0.948033	0.211498	0.055308
F46	F	1.108061	-0.241322	0.236776
H47	H	1.586227	-0.587636	0.298660
H48	H	1.305964	-0.587650	0.104729
H49	H	1.739481	-0.412659	0.175666
H50	H	1.459073	-0.412456	-0.018368
