data_functionalizedCrystal
_audit_creation_method	'MofGen! by Chris Wilmer'
_symmetry_space_group_name_H-M	'P1'
_symmetry_Int_Tables_number	1
_symmetry_cell_setting	triclinic
loop_
_symmetry_equiv_pos_as_xyz
  x,y,z
_cell_length_a	15.297475
_cell_length_b	16.625545
_cell_length_c	15.296720
_cell_angle_alpha	99.644333
_cell_angle_beta	88.382886
_cell_angle_gamma	99.673382
loop_
_atom_site_label
_atom_site_type_symbol
_atom_site_fract_x
_atom_site_fract_y
_atom_site_fract_z
Zn1	Zn	1.253381	0.627523	0.726587
Zn2	Zn	1.753381	1.127523	1.226587
Zn3	Zn	1.278640	0.743625	0.580101
Zn4	Zn	1.778640	1.243625	1.080101
Zn5	Zn	1.132260	0.582227	0.554829
Zn6	Zn	1.632260	1.082227	1.054829
Zn7	Zn	1.106867	0.735700	0.701229
Zn8	Zn	1.606867	1.235700	1.201229
O9	O	1.192787	0.672269	0.640686
O10	O	1.692787	1.172269	1.140686
O11	O	1.379309	0.665198	0.728344
O12	O	1.879309	1.165198	1.228344
O13	O	1.280421	0.706576	0.454174
O14	O	1.780421	1.206576	0.954174
O15	O	1.148384	0.475417	0.577649
O16	O	1.648384	0.975417	1.077649
O17	O	1.397867	0.750498	0.620721
O18	O	1.897867	1.250498	1.120721
O19	O	1.237371	0.508696	0.703839
O20	O	1.737371	1.008696	1.203839
O21	O	1.172876	0.587997	0.435607
O22	O	1.672876	1.087997	0.935607
O23	O	1.006315	0.580312	0.553060
O24	O	1.506315	1.080312	1.053060
O25	O	1.105104	0.736989	0.827167
O26	O	1.605104	1.236989	1.327167
O27	O	0.987658	0.693067	0.660620
O28	O	1.487658	1.193067	1.160620
O29	O	1.212747	0.657513	0.845798
O30	O	1.712747	1.157513	1.345798
O31	O	1.255798	0.855392	0.596133
O32	O	1.755798	1.355392	1.096133
O33	O	1.129596	0.849569	0.685125
O34	O	1.629596	1.349569	1.185125
C35	C	0.965203	0.630915	0.601347
C36	C	1.465203	1.130915	1.101347
C37	C	0.867838	0.613246	0.584538
C38	C	1.367838	1.113246	1.084538
C39	C	0.554686	0.798559	0.760825
C40	C	1.054686	1.298559	1.260825
C41	C	0.646166	0.815166	0.776615
C42	C	1.146166	1.315166	1.276615
C43	C	0.701588	0.764687	0.728597
C44	C	1.201588	1.264687	1.228597
C45	C	0.665522	0.697599	0.664786
C46	C	1.165522	1.197599	1.164786
C47	C	0.574035	0.680995	0.648989
C48	C	1.074035	1.180995	1.148989
C49	C	0.720937	0.647123	0.616762
C50	C	1.220937	1.147123	1.116762
C51	C	0.684871	0.580034	0.552951
C52	C	1.184871	1.080034	1.052951
C53	C	0.593392	0.563433	0.537157
C54	C	1.093392	1.063433	1.037157
C55	C	0.537969	0.613911	0.585175
C56	C	1.037969	1.113911	1.085175
C57	C	0.812424	0.663727	0.632559
C58	C	1.312424	1.163727	1.132559
C59	C	0.831773	0.546162	0.520723
C60	C	1.331773	1.046162	1.020723
C61	C	0.740293	0.529556	0.504933
C62	C	1.240293	1.029556	1.004933
C63	C	1.192703	0.881740	0.640643
C64	C	1.692703	1.381740	1.140643
C65	C	1.192742	0.971371	0.640668
C66	C	1.692742	1.471371	1.140668
C67	C	1.192867	1.299586	0.640797
C68	C	1.692867	1.799586	1.140797
C69	C	1.192829	1.208266	0.640763
C70	C	1.692829	1.708266	1.140763
C71	C	1.192804	1.135481	0.640732
C72	C	1.692804	1.635481	1.140732
C73	C	1.192767	1.044156	0.640699
C74	C	1.692767	1.544156	1.140699
C75	C	1.421260	0.713784	0.680180
C76	C	1.921260	1.213784	1.180180
C77	C	1.518621	0.731476	0.697010
C78	C	2.018621	1.231476	1.197010
C79	C	1.153275	0.701420	0.869153
C80	C	1.653275	1.201420	1.369153
C81	C	1.136438	0.713842	0.966512
C82	C	1.636438	1.213842	1.466512
C83	C	1.192883	1.461986	0.640762
C84	C	1.692883	1.961986	1.140762
C85	C	1.192900	1.372376	0.640818
C86	C	1.692900	1.872376	1.140818
C87	C	1.232195	0.643182	0.413117
C88	C	1.732195	1.143182	0.913117
C89	C	1.249203	0.630563	0.315788
C90	C	1.749203	1.130563	0.815788
C91	C	1.313160	0.583349	1.279752
C92	C	1.813160	1.083349	1.779752
C93	C	1.328985	0.571679	1.188279
C94	C	1.828985	1.071679	1.688279
C95	C	1.280850	0.607219	1.132833
C96	C	1.780850	1.107219	1.632833
C97	C	1.216886	0.654430	1.168868
C98	C	1.716886	1.154430	1.668868
C99	C	1.201065	0.666105	1.260351
C100	C	1.701065	1.166105	1.760351
C101	C	1.168754	0.689976	1.113432
C102	C	1.668754	1.189976	1.613432
C103	C	1.104791	0.737187	1.149467
C104	C	1.604791	1.237187	1.649467
C105	C	1.088971	0.748860	1.240941
C106	C	1.588971	1.248860	1.740941
C107	C	1.137107	0.713320	1.296387
C108	C	1.637107	1.213320	1.796387
C109	C	1.184576	0.678300	1.021950
C110	C	1.684576	1.178300	1.521950
C111	C	1.072480	0.761057	1.002549
C112	C	1.572480	1.261057	1.502549
C113	C	1.056655	0.772726	1.094021
C114	C	1.556655	1.272726	1.594021
H115	H	0.463478	0.600392	0.572324
H116	H	0.963478	1.100392	1.072324
C117	C	1.254929	0.626363	0.982321
C118	C	1.754929	1.126363	1.482321
N119	N	1.307920	0.587237	0.952473
N120	N	1.807920	1.087237	1.452473
H121	H	1.293739	0.597715	1.058352
H122	H	1.793739	1.097715	1.558352
H123	H	0.564032	0.508812	0.485189
H124	H	1.064032	1.008812	0.985189
H125	H	0.710915	0.474932	0.452977
H126	H	1.210915	0.974932	0.952977
H127	H	1.004575	0.811165	1.123374
H128	H	1.504575	1.311165	1.623374
H129	H	1.033286	0.789998	0.957404
H130	H	1.533286	1.289998	1.457404
H131	H	1.036895	0.787310	1.270279
H132	H	1.536895	1.287310	1.770279
H133	H	1.352350	0.554423	1.324904
H134	H	1.852350	1.054423	1.824904
C135	C	0.852086	0.737520	0.702754
C136	C	1.352086	1.237520	1.202754
N137	N	0.881956	0.793103	0.755631
N138	N	1.381956	1.293103	1.255631
H139	H	0.776075	0.778212	0.741458
H140	H	1.276075	1.278212	1.241458
H141	H	0.675524	0.869791	0.828568
H142	H	1.175524	1.369791	1.328568
H143	H	1.124226	0.722819	1.370873
H144	H	1.624226	1.222819	1.870873
C145	C	1.399335	0.519741	1.148646
C146	C	1.899335	1.019741	1.648646
N147	N	1.452323	0.480614	1.118793
N148	N	1.952323	0.980614	1.618793
H149	H	0.876898	0.505059	0.481622
H150	H	1.376898	1.005059	0.981622
C151	C	0.493718	0.854080	0.813633
C152	C	0.993718	1.354080	1.313633
N153	N	0.447794	0.895902	0.853411
N154	N	0.947794	1.395902	1.353411
