data_functionalizedCrystal
_audit_creation_method	'MofGen! by Chris Wilmer'
_symmetry_space_group_name_H-M	'P1'
_symmetry_Int_Tables_number	1
_symmetry_cell_setting	triclinic
loop_
_symmetry_equiv_pos_as_xyz
  x,y,z
_cell_length_a	14.853567
_cell_length_b	17.699077
_cell_length_c	16.776229
_cell_angle_alpha	89.993415
_cell_angle_beta	90.008646
_cell_angle_gamma	96.542246
loop_
_atom_site_label
_atom_site_type_symbol
_atom_site_fract_x
_atom_site_fract_y
_atom_site_fract_z
O1	O	-0.113983	1.004377	-0.066281
O2	O	-0.128821	0.784037	-0.066286
O3	O	0.009850	0.900093	-0.066274
O4	O	-0.252653	0.888321	-0.066293
O5	O	0.009858	0.900077	0.066303
O6	O	-0.128812	0.784021	0.066291
O7	O	-0.113974	1.004362	0.066295
Zn8	Zn	-0.121392	0.894189	0.087343
Zn9	Zn	-0.121403	0.894209	-0.087333
O10	O	-0.252645	0.888306	0.066284
C11	C	-0.128286	0.755830	0.000002
C12	C	-0.126694	0.671808	0.000001
C13	C	-0.125939	0.632330	0.072269
C14	C	-0.124428	0.553384	0.072270
C15	C	-0.123679	0.513916	0.000002
C16	C	-0.124431	0.553399	-0.072272
C17	C	-0.125935	0.632345	-0.072272
C18	C	-0.118364	0.235020	-0.072273
C19	C	-0.116863	0.156069	-0.072267
C20	C	-0.116857	0.156059	0.072269
C21	C	-0.118361	0.235005	0.072269
C22	C	-0.119108	0.274482	-0.000004
C23	C	-0.120745	0.360085	-0.000004
C24	C	-0.122049	0.428314	0.000001
C25	C	-0.286236	0.888847	-0.000007
C26	C	-0.386313	0.890445	-0.000014
C27	C	-0.798567	0.966141	0.000016
C28	C	-0.820359	0.828264	0.000013
C29	C	-0.726331	0.826761	0.000005
C30	C	-0.668416	0.894950	0.000004
C31	C	-0.704529	0.964641	0.000011
C32	C	-0.690210	0.757072	0.000006
C33	C	-0.596177	0.755566	-0.000001
C34	C	-0.538260	0.823755	-0.000007
C35	C	-0.574379	0.893449	-0.000001
C36	C	-0.516464	0.961637	-0.000002
C37	C	-0.552581	1.031332	-0.000002
C38	C	-0.646613	1.032829	0.000004
C39	C	-0.444228	0.822257	-0.000013
C40	C	-0.422427	0.960136	-0.000007
C41	C	0.043441	0.899551	0.000015
C42	C	0.143519	0.897953	0.000017
C43	C	-0.114509	1.032568	0.000006
C44	C	-0.116101	1.116590	0.000002
N45	N	-0.121384	0.894181	0.206554
N46	N	-0.121404	0.894224	-0.206544
C47	C	-0.060005	0.945586	0.248276
C48	C	-0.060005	0.945590	0.331728
C49	C	-0.121387	0.894192	0.373457
C50	C	-0.182768	0.842781	0.331729
C51	C	-0.182764	0.842774	0.248278
C52	C	-0.182786	0.842809	0.668276
C53	C	-0.182787	0.842821	0.751732
C54	C	-0.060027	0.945625	0.751726
C55	C	-0.060022	0.945618	0.668275
C56	C	-0.121400	0.894204	0.626555
C57	C	-0.121399	0.894200	0.536066
C58	C	-0.121393	0.894200	0.463943
H59	H	-0.126552	0.664487	-0.131120
C60	C	-0.038921	0.140184	0.195486
C61	C	-0.116024	0.112667	0.151718
H62	H	-0.038413	0.113399	0.244534
H63	H	0.013868	0.132963	0.165799
H64	H	-0.039937	0.192849	0.205818
H65	H	-0.115005	0.060002	0.141381
H66	H	-0.168827	0.119881	0.181411
C67	C	-0.200183	0.456148	0.156112
C68	C	-0.123589	0.509982	0.151705
H69	H	-0.199655	0.429351	0.205151
H70	H	-0.253317	0.481222	0.153116
H71	H	-0.199511	0.421354	0.113064
H72	H	-0.124264	0.544780	0.194750
H73	H	-0.070441	0.484907	0.154709
C74	C	0.062724	0.961916	0.425580
C75	C	0.007464	1.002102	0.377583
H76	H	0.104382	0.996807	0.453883
H77	H	0.026174	0.931314	0.462376
H78	H	0.095104	0.930380	0.393028
H79	H	-0.024922	1.033633	0.410136
H80	H	0.044019	1.032716	0.340783
H81	H	-0.505415	1.086850	0.000002
C82	C	-0.197515	0.315348	0.156120
C83	C	-0.119182	0.278388	0.151708
H84	H	-0.198019	0.342126	0.205166
H85	H	-0.198175	0.350155	0.113083
H86	H	-0.249475	0.278824	0.153115
H87	H	-0.067221	0.314912	0.154707
H88	H	-0.118513	0.243577	0.194757
H89	H	-0.010042	0.987473	0.634303
H90	H	-0.414826	0.765513	-0.000001
H91	H	-0.123815	0.521259	-0.131114
C92	C	0.096143	0.989847	0.222646
C93	C	0.007492	1.002083	0.202432
H94	H	0.137820	1.024723	0.194347
H95	H	0.104896	0.997196	0.278315
H96	H	0.105838	0.939323	0.208971
H97	H	-0.002206	1.052605	0.216112
H98	H	-0.001265	0.994739	0.146751
C99	C	-0.120671	0.356036	-0.136461
C100	C	-0.119197	0.278407	-0.151714
H101	H	-0.121182	0.382822	-0.185509
H102	H	-0.173462	0.363249	-0.106775
H103	H	-0.068357	0.374685	-0.106766
H104	H	-0.171515	0.259756	-0.181404
H105	H	-0.066400	0.271188	-0.181413
C106	C	-0.338907	0.798484	0.357396
C107	C	-0.250241	0.786278	0.377590
H108	H	-0.380562	0.763596	0.385704
H109	H	-0.348622	0.848997	0.371065
H110	H	-0.347674	0.791124	0.301722
H111	H	-0.241472	0.793643	0.433263
H112	H	-0.240523	0.735753	0.363926
H113	H	-0.867518	0.772749	0.000018
H114	H	-0.010047	0.987486	0.785704
H115	H	-0.375278	1.015664	-0.000014
H116	H	-0.232743	0.800914	0.214308
C117	C	-0.193860	0.123342	-0.195486
C118	C	-0.116033	0.112685	-0.151711
H119	H	-0.193344	0.096562	-0.244530
H120	H	-0.246158	0.104682	-0.165800
H121	H	-0.194850	0.176012	-0.205828
H122	H	-0.115046	0.060016	-0.141365
H123	H	-0.063721	0.131342	-0.181404
H124	H	-0.232774	0.800964	0.785706
H125	H	-0.232763	0.800948	0.634313
C126	C	-0.808612	0.678787	-0.068145
C127	C	-0.753871	0.682124	0.000008
H128	H	-0.847913	0.632513	-0.068145
H129	H	-0.843570	0.720504	-0.068139
H130	H	-0.771474	0.681067	-0.114372
H131	H	-0.791009	0.679849	0.046235
H132	H	-0.718909	0.640396	0.000010
C133	C	-0.125769	0.624384	0.215142
C134	C	-0.126757	0.675710	0.151710
H135	H	-0.126266	0.651166	0.264186
H136	H	-0.177733	0.587876	0.212134
H137	H	-0.072628	0.599310	0.212130
H138	H	-0.179902	0.700780	0.154719
H139	H	-0.074788	0.712231	0.154719
H140	H	-0.676028	1.089571	0.000025
H141	H	-0.566779	0.698817	-0.000003
C142	C	-0.933026	1.029671	0.000024
C143	C	-0.838261	1.042747	0.000020
H144	H	-0.957530	1.076966	0.000032
H145	H	-0.952918	1.001604	-0.046206
H146	H	-0.952899	1.001585	0.046259
H147	H	-0.818389	1.070829	-0.046218
H148	H	-0.818362	1.070827	0.046255
