data_functionalizedCrystal
_audit_creation_method	'MofGen! by Chris Wilmer'
_symmetry_space_group_name_H-M	'P1'
_symmetry_Int_Tables_number	1
_symmetry_cell_setting	triclinic
loop_
_symmetry_equiv_pos_as_xyz
  x,y,z
_cell_length_a	12.759401
_cell_length_b	12.759399
_cell_length_c	12.759393
_cell_angle_alpha	90.026988
_cell_angle_beta	90.023198
_cell_angle_gamma	90.013545
loop_
_atom_site_label
_atom_site_type_symbol
_atom_site_fract_x
_atom_site_fract_y
_atom_site_fract_z
Zn1	Zn	-1.606269	0.418238	-0.594109
Zn2	Zn	-1.606161	0.593953	-0.418440
Zn3	Zn	-1.430568	0.418287	-0.418437
Zn4	Zn	-1.430561	0.593873	-0.594070
O5	O	-1.518390	0.506088	-0.506264
O6	O	-1.753276	0.441560	-0.570824
O7	O	-1.582826	0.570705	-0.271418
O8	O	-1.453923	0.271259	-0.441756
O9	O	-1.753197	0.570658	-0.441760
O10	O	-1.583010	0.271223	-0.570821
O11	O	-1.453818	0.441643	-0.271417
O12	O	-1.283546	0.441565	-0.441718
O13	O	-1.453911	0.570520	-0.741096
O14	O	-1.283541	0.570568	-0.570755
O15	O	-1.583003	0.441482	-0.741125
O16	O	-1.582819	0.740964	-0.441723
O17	O	-1.453806	0.740905	-0.570757
C18	C	-1.245422	0.506064	-0.506233
C19	C	-1.128646	0.506079	-0.506244
C20	C	-1.518329	0.779055	-0.506259
C21	C	-1.518399	0.895832	-0.506292
C22	C	-0.964013	0.573205	-0.438963
C23	C	-1.073737	0.573192	-0.438948
C24	C	-1.073824	0.438967	-0.573552
C25	C	-0.964102	0.438976	-0.573561
C26	C	-1.223621	0.610569	-0.314967
C27	C	-1.278439	0.677690	-0.247671
C28	C	-1.242804	0.780188	-0.231373
C29	C	-1.152353	0.815586	-0.282386
C30	C	-1.097541	0.748471	-0.349690
C31	C	-1.133175	0.645959	-0.365968
C32	C	-0.814216	0.401609	-0.697543
C33	C	-0.759402	0.334498	-0.764853
C34	C	-0.795035	0.231999	-0.781162
C35	C	-0.885489	0.196605	-0.730168
C36	C	-0.940303	0.263715	-0.662858
C37	C	-0.904663	0.366213	-0.646547
C38	C	-0.792423	0.506107	-0.506286
C39	C	-0.909200	0.506101	-0.506268
C40	C	-1.585715	1.060421	-0.439221
C41	C	-1.585652	0.950697	-0.439182
C42	C	-1.451198	0.950696	-0.573438
C43	C	-1.451257	1.060418	-0.573472
C44	C	-1.518468	0.505987	-0.780298
C45	C	-1.518502	0.505944	-0.897074
C46	C	-1.518480	1.232054	-0.506308
C47	C	-1.518521	1.115278	-0.506365
C48	C	-1.585725	0.438743	-0.951953
C49	C	-1.585743	0.438698	-1.061677
C50	C	-1.451311	0.573063	-1.061634
C51	C	-1.451289	0.573102	-0.951912
C52	C	-1.518372	0.506112	-0.233297
C53	C	-1.518542	0.505859	-0.116521
H54	H	-0.919315	0.627861	-0.384168
O55	O	-0.775787	0.512168	-0.679942
H56	H	-0.774625	0.554759	-0.755764
H57	H	-1.396591	0.627744	-1.106297
O58	O	-1.378750	0.645556	-0.892709
H59	H	-1.332016	0.692249	-0.949273
H60	H	-1.396535	1.105084	-0.628151
O61	O	-1.658250	1.119596	-0.366834
H62	H	-1.704954	1.063011	-0.320131
O63	O	-1.658140	0.891530	-0.366774
H64	H	-1.611127	0.841624	-0.313250
H65	H	-1.023900	0.777292	-0.391226
H66	H	-0.685753	0.363328	-0.806380
O67	O	-1.658207	0.366304	-0.892801
H68	H	-1.704946	0.319561	-0.949400
O69	O	-1.658253	0.366223	-1.120872
H70	H	-1.704989	0.319540	-1.064302
H71	H	-1.123353	0.899055	-0.269120
O72	O	-1.378653	0.891531	-0.645823
H73	H	-1.425620	0.841473	-0.699313
O74	O	-1.301909	0.852584	-0.158777
H75	H	-1.383156	0.862915	-0.188115
O76	O	-1.376000	0.639522	-0.192657
H77	H	-1.391566	0.556965	-0.215283
H78	H	-1.118539	0.384318	-0.628341
O79	O	-0.923925	0.086045	-0.747738
H80	H	-0.870606	0.045321	-0.803096
O81	O	-1.262044	0.500008	-0.332538
H82	H	-1.342364	0.502218	-0.365903
O83	O	-1.037866	0.225546	-0.607849
H84	H	-1.053436	0.142994	-0.630490
H85	H	-0.750400	0.177362	-0.835980
