data_functionalizedCrystal
_audit_creation_method	'MofGen! by Chris Wilmer'
_symmetry_space_group_name_H-M	'P1'
_symmetry_Int_Tables_number	1
_symmetry_cell_setting	triclinic
loop_
_symmetry_equiv_pos_as_xyz
  x,y,z
_cell_length_a	16.959455
_cell_length_b	17.637651
_cell_length_c	16.959447
_cell_angle_alpha	78.752498
_cell_angle_beta	89.985678
_cell_angle_gamma	101.215983
loop_
_atom_site_label
_atom_site_type_symbol
_atom_site_fract_x
_atom_site_fract_y
_atom_site_fract_z
Zn1	Zn	1.144780	-0.314810	-0.383201
Zn2	Zn	1.117987	-0.447037	-0.224264
Zn3	Zn	1.012603	-0.314835	-0.251033
Zn4	Zn	0.985870	-0.446977	-0.356414
O5	O	1.065310	-0.380915	-0.303728
O6	O	1.251833	-0.332365	-0.362125
O7	O	1.103983	-0.429535	-0.117197
O8	O	1.052537	-0.204193	-0.290979
O9	O	1.232149	-0.429511	-0.245354
O10	O	1.149647	-0.204175	-0.388082
O11	O	1.026558	-0.332407	-0.136864
O12	O	0.898449	-0.332350	-0.265005
O13	O	1.006974	-0.429410	-0.470586
O14	O	0.878808	-0.429434	-0.342428
O15	O	1.123725	-0.332308	-0.490266
O16	O	1.078061	-0.557668	-0.219381
O17	O	0.980995	-0.557624	-0.316471
C18	C	0.859949	-0.380889	-0.303715
C19	C	0.772091	-0.380897	-0.303725
C20	C	0.410822	-0.330322	-0.263528
C21	C	0.390387	-0.431573	-0.343960
C22	C	0.472935	-0.431562	-0.343958
C23	C	0.524431	-0.380931	-0.303739
C24	C	0.493378	-0.330311	-0.263522
C25	C	0.503993	-0.482187	-0.384167
C26	C	0.586546	-0.482178	-0.384165
C27	C	0.638044	-0.431542	-0.343950
C28	C	0.606987	-0.380919	-0.303733
C29	C	0.658482	-0.330288	-0.263514
C30	C	0.627427	-0.279661	-0.223301
C31	C	0.544876	-0.279675	-0.223307
C32	C	0.720595	-0.431528	-0.343944
C33	C	0.741038	-0.330277	-0.263508
C34	C	1.023741	-0.586334	-0.262131
C35	C	1.006030	-0.674212	-0.244363
C36	C	1.200372	-0.962893	-0.438965
C37	C	1.183705	-1.045469	-0.422254
C38	C	1.082652	-1.045595	-0.321043
C39	C	1.099314	-0.963018	-0.337742
C40	C	1.158174	-0.921674	-0.396704
C41	C	1.057116	-0.921798	-0.295482
C42	C	1.073773	-0.839228	-0.312183
C43	C	1.132629	-0.797878	-0.371144
C44	C	1.174832	-0.839103	-0.413405
C45	C	0.998251	-0.963144	-0.236525
C46	C	0.956053	-0.921924	-0.194264
C47	C	0.972715	-0.839353	-0.210961
C48	C	1.031570	-0.798002	-0.269922
C49	C	0.930512	-0.798127	-0.168700
C50	C	0.947169	-0.715557	-0.185401
C51	C	1.048228	-0.715432	-0.286623
C52	C	1.271473	-0.380942	-0.303741
C53	C	1.359327	-0.380953	-0.303747
C54	C	1.065356	-0.380850	-0.509910
C55	C	1.065376	-0.380822	-0.597772
C56	C	1.107063	-0.174694	-0.345504
C57	C	1.124855	-0.086815	-0.363307
C58	C	1.004700	-0.431295	-0.959021
C59	C	1.126273	-0.330181	-0.979509
C60	C	1.126249	-0.330198	-0.896959
C61	C	1.065450	-0.380765	-0.845437
C62	C	1.004675	-0.431315	-0.876463
C63	C	1.187027	-0.279655	-0.865925
C64	C	1.187006	-0.279670	-0.783371
C65	C	1.126203	-0.330234	-0.731848
C66	C	1.065425	-0.380785	-0.762879
C67	C	1.004626	-0.431352	-0.711356
C68	C	0.943844	-0.481900	-0.742387
C69	C	0.943872	-0.481878	-0.824939
C70	C	1.126175	-0.330255	-0.649295
C71	C	1.004601	-0.431372	-0.628798
C72	C	1.065321	-0.380923	-0.098360
C73	C	1.065499	-0.380728	-0.010543
H74	H	0.745876	-0.472750	-0.376682
N75	N	1.191843	-0.275643	-1.035077
H76	H	1.230339	-0.243623	-1.002894
H77	H	1.221917	-0.307824	-1.062803
N78	N	0.377330	-0.275726	-0.220150
H79	H	0.422481	-0.243653	-0.194671
H80	H	0.350483	-0.239179	-0.259787
H81	H	0.894389	-0.523034	-0.850212
H82	H	0.894345	-0.523075	-0.700425
N83	N	1.263853	-0.918294	-0.502565
H84	H	1.267997	-0.859732	-0.506732
H85	H	1.317410	-0.932695	-0.487404
N86	N	0.939028	-0.485911	-0.573222
H87	H	0.908900	-0.453780	-0.545482
H88	H	0.900582	-0.517919	-0.605454
H89	H	1.222768	-0.805439	-0.461412
H90	H	0.955212	-0.472448	-0.984290
N91	N	0.334850	-0.486173	-0.387344
H92	H	0.367050	-0.518237	-0.412822
H93	H	0.293197	-0.522729	-0.347712
N94	N	1.229228	-1.089930	-0.467832
H95	H	1.269043	-1.051206	-0.507715
H96	H	1.258917	-1.124183	-0.428756
H97	H	0.669365	-0.238440	-0.190550
H98	H	1.236530	-0.238491	-0.907880
H99	H	1.236497	-0.238510	-0.758114
N100	N	0.867031	-0.842724	-0.105106
H101	H	0.813441	-0.828379	-0.120229
H102	H	0.862952	-0.901272	-0.100970
H103	H	0.462059	-0.523414	-0.416904
H104	H	0.782962	-0.289041	-0.230762
N105	N	1.019173	-1.090190	-0.257448
H106	H	1.015024	-1.148753	-0.253278
H107	H	1.034430	-1.075783	-0.203924
H108	H	0.519583	-0.238458	-0.190567
N109	N	0.620039	-0.536780	-0.427534
H110	H	0.574889	-0.568856	-0.453012
H111	H	0.660799	-0.504637	-0.470674
H112	H	1.096164	-0.681768	-0.334630
N113	N	1.150607	-0.708820	-0.389168
H114	H	1.100386	-0.688947	-0.407667
H115	H	1.169206	-0.689016	-0.338954
H116	H	0.908127	-0.955598	-0.146259
N117	N	1.191727	-0.275749	-0.615822
H118	H	1.230249	-0.243716	-0.660988
H119	H	1.166955	-0.239160	-0.588988
N120	N	0.980290	-1.052202	-0.218504
H121	H	0.936597	-1.072139	-0.174744
H122	H	0.961759	-1.072007	-0.268736
H123	H	0.912806	-0.681995	-0.150989
