data_functionalizedCrystal
_audit_creation_method	'MofGen! by Chris Wilmer'
_symmetry_space_group_name_H-M	'P1'
_symmetry_Int_Tables_number	1
_symmetry_cell_setting	triclinic
loop_
_symmetry_equiv_pos_as_xyz
  x,y,z
_cell_length_a	12.837943
_cell_length_b	17.038272
_cell_length_c	11.295483
_cell_angle_alpha	94.391706
_cell_angle_beta	85.461227
_cell_angle_gamma	92.970248
loop_
_atom_site_label
_atom_site_type_symbol
_atom_site_fract_x
_atom_site_fract_y
_atom_site_fract_z
O1	O	1.400057	0.199823	-0.099006
O2	O	1.097361	0.189716	-0.099013
O3	O	1.246909	0.080820	-0.099000
O4	O	1.250509	0.308719	-0.099019
O5	O	1.233773	0.090368	0.099049
O6	O	1.084224	0.199264	0.099036
O7	O	1.386921	0.209371	0.099043
Cu8	Cu	1.234373	0.205189	0.117123
Cu9	Cu	1.249908	0.193897	-0.117093
O10	O	1.237372	0.318267	0.099030
C11	C	1.051871	0.191076	0.000011
C12	C	0.935896	0.180893	0.000008
C13	C	0.705733	0.303310	0.000015
C14	C	0.596764	0.293746	0.000014
C15	C	0.608986	0.152201	0.000013
C16	C	0.717955	0.161765	0.000014
C17	C	0.766324	0.237322	0.000014
C18	C	0.875296	0.246885	0.000007
C19	C	0.887516	0.105342	0.000014
C20	C	0.778546	0.095777	0.000013
C21	C	1.237069	0.056221	0.000024
C22	C	1.227305	-0.031301	0.000024
C23	C	1.316945	-0.074719	0.000027
C24	C	1.307766	-0.156956	0.000015
C25	C	1.208945	-0.195773	0.000009
C26	C	1.119299	-0.152349	0.000002
C27	C	1.128480	-0.070114	0.000005
C28	C	1.176511	-0.443954	-0.000008
C29	C	1.167337	-0.526195	-0.000007
C30	C	1.355805	-0.530796	0.000004
C31	C	1.364977	-0.448559	0.000014
C32	C	1.275331	-0.405143	0.000001
C33	C	1.199560	-0.279832	0.000001
C34	C	1.284718	-0.321086	0.000000
C35	C	1.432411	0.208011	0.000017
C36	C	1.548386	0.218194	0.000011
C37	C	1.247213	0.342865	0.000003
C38	C	1.256977	0.430387	-0.000004
N39	N	1.223454	0.213132	0.281859
N40	N	1.260835	0.185950	-0.281829
C41	C	1.339435	0.128734	0.531158
C42	C	1.331191	0.134742	0.655821
C43	C	1.198717	0.231151	0.655850
C44	C	1.206961	0.225143	0.531187
C45	C	1.277323	0.173934	0.468845
C46	C	1.285572	0.167930	0.344180
C47	C	1.153093	0.264335	0.344211
C48	C	1.144849	0.270343	0.468874
H49	H	1.397415	-0.043120	0.000039
C50	C	1.069584	-0.650213	0.000000
C51	C	1.058706	-0.568865	-0.000013
H52	H	1.002522	-0.676554	0.000007
H53	H	1.111374	-0.667959	-0.069057
H54	H	1.102218	-0.661295	0.069073
H55	H	1.026078	-0.557783	-0.069090
H56	H	1.016899	-0.551113	0.069051
C57	C	0.616931	0.018266	0.000005
C58	C	0.725373	0.012728	0.000007
H59	H	0.584108	-0.033007	-0.000008
H60	H	0.591989	0.049096	0.069069
H61	H	0.601152	0.042456	-0.069060
H62	H	0.741152	-0.011456	0.069077
H63	H	0.750323	-0.018113	-0.069064
C64	C	0.814443	0.401086	0.101816
C65	C	0.758911	0.386357	0.000008
H66	H	0.847275	0.452355	0.101805
H67	H	0.767605	0.397747	0.170867
H68	H	0.866122	0.363149	0.101808
H69	H	0.707226	0.424291	0.000020
H70	H	0.805752	0.389703	-0.069060
H71	H	1.119099	-0.311445	-0.000001
H72	H	1.381767	0.097934	0.706553
H73	H	1.103515	-0.408614	-0.000018
C74	C	1.337326	0.034415	0.305856
C75	C	1.362903	0.111622	0.275680
H76	H	1.385063	-0.000354	0.263572
H77	H	1.341292	0.031548	0.389015
H78	H	1.268281	0.019686	0.285426
H79	H	1.431946	0.126353	0.296119
H80	H	1.358947	0.114492	0.192503
H81	H	1.396734	0.087042	0.480399
H82	H	0.914677	0.308407	0.000008
C83	C	1.019605	0.265665	0.694292
C84	C	1.121368	0.287424	0.724399
H85	H	0.971851	0.300401	0.736621
H86	H	1.015628	0.268573	0.611142
H87	H	1.002315	0.213268	0.714714
H88	H	1.138660	0.339819	0.703969
H89	H	1.125348	0.284524	0.807567
H90	H	0.936862	0.051609	0.000005
H91	H	1.087559	0.312035	0.519647
H92	H	0.547433	0.347481	0.000019
H93	H	1.380760	-0.192303	0.000021
H94	H	1.102521	0.301142	0.293462
H95	H	1.055485	-0.034764	0.000002
C96	C	1.550348	-0.461371	0.000023
C97	C	1.473604	-0.405894	0.000022
H98	H	1.617409	-0.435029	0.000027
H99	H	1.538262	-0.490024	0.069078
H100	H	1.547428	-0.496675	-0.069051
H101	H	1.476518	-0.370593	0.069101
H102	H	1.485693	-0.377227	-0.069040
H103	H	1.428789	-0.566154	0.000012
C104	C	1.021540	-0.276364	0.000007
C105	C	1.010672	-0.195015	-0.000000
H106	H	0.954475	-0.302700	0.000016
H107	H	1.063326	-0.294111	-0.069053
H108	H	1.054176	-0.287450	0.069077
H109	H	0.978043	-0.183927	-0.069075
H110	H	0.968870	-0.177261	0.069066
H111	H	0.569577	0.090691	0.000112
H112	H	1.365179	-0.289479	-0.000021
