data_functionalizedCrystal
_audit_creation_method	'MofGen! by Chris Wilmer'
_symmetry_space_group_name_H-M	'P1'
_symmetry_Int_Tables_number	1
_symmetry_cell_setting	triclinic
loop_
_symmetry_equiv_pos_as_xyz
  x,y,z
_cell_length_a	17.699083
_cell_length_b	9.198806
_cell_length_c	17.699083
_cell_angle_alpha	90.004337
_cell_angle_beta	83.283015
_cell_angle_gamma	89.997927
loop_
_atom_site_label
_atom_site_type_symbol
_atom_site_fract_x
_atom_site_fract_y
_atom_site_fract_z
O1	O	1.004075	0.120692	0.095710
O2	O	1.504075	0.620692	0.595710
O3	O	0.783697	0.120740	0.108162
O4	O	1.283697	0.620740	0.608162
O5	O	0.900112	0.120701	-0.008253
O6	O	1.400112	0.620701	0.491747
O7	O	0.887660	0.120730	0.212125
O8	O	1.387660	0.620730	0.712125
O9	O	0.900103	-0.121084	-0.008254
O10	O	1.400103	0.378916	0.491746
O11	O	0.783688	-0.121046	0.108161
O12	O	1.283688	0.378954	0.608161
O13	O	1.004066	-0.121094	0.095709
O14	O	1.504066	0.378906	0.595709
Cu15	Cu	0.893876	-0.143146	0.101935
Cu16	Cu	1.393876	0.356854	0.601935
Cu17	Cu	0.893887	0.142792	0.101936
Cu18	Cu	1.393887	0.642792	0.601936
O19	O	0.887651	-0.121055	0.212124
O20	O	1.387651	0.378945	0.712124
C21	C	0.755495	-0.000147	0.107716
C22	C	1.255495	0.499853	0.607716
C23	C	0.671477	-0.000129	0.106377
C24	C	1.171477	0.499871	0.606377
C25	C	0.622856	-0.000121	0.174710
C26	C	1.122856	0.499879	0.674710
C27	C	0.543913	-0.000140	0.173448
C28	C	1.043913	0.499860	0.673448
C29	C	0.513592	-0.000157	0.103852
C30	C	1.013592	0.499843	0.603852
C31	C	0.562219	-0.000169	0.035513
C32	C	1.062219	0.499831	0.535513
C33	C	0.641161	-0.000161	0.036776
C34	C	1.141161	0.499839	0.536776
C35	C	0.243856	-0.000206	0.030418
C36	C	0.743856	0.499794	0.530418
C37	C	0.164908	-0.000210	0.029160
C38	C	0.664908	0.499790	0.529160
C39	C	0.146608	-0.000185	0.167090
C40	C	0.646608	0.499815	0.667090
C41	C	0.225550	-0.000176	0.168353
C42	C	0.725550	0.499824	0.668353
C43	C	0.274170	-0.000197	0.100015
C44	C	0.774170	0.499803	0.600015
C45	C	0.359769	-0.000179	0.101384
C46	C	0.859769	0.499821	0.601384
C47	C	0.427995	-0.000164	0.102481
C48	C	0.927995	0.499836	0.602481
N49	N	0.893874	-0.344260	0.101934
N50	N	1.393874	0.155740	0.601934
C51	C	0.937554	-0.416462	0.145366
C52	C	1.437554	0.083538	0.645366
C53	C	0.937565	-0.583875	0.145365
C54	C	1.437565	-0.083875	0.645365
C55	C	1.032268	-0.000204	0.096156
C56	C	1.532268	0.499796	0.596156
C57	C	1.116286	-0.000212	0.097494
C58	C	1.616286	0.499788	0.597494
C59	C	0.899662	-0.000191	-0.036451
C60	C	1.399662	0.499809	0.463549
C61	C	0.898323	-0.000192	-0.120469
C62	C	1.398323	0.499808	0.379531
N63	N	0.893895	0.343906	0.101931
N64	N	1.393895	0.843906	0.601931
C65	C	0.966656	-0.000209	-0.169090
C66	C	1.466656	0.499791	0.330910
C67	C	0.965394	-0.000195	-0.248033
C68	C	1.465394	0.499805	0.251967
C69	C	0.895798	-0.000176	-0.278354
C70	C	1.395798	0.499824	0.221646
C71	C	0.827459	-0.000154	-0.229727
C72	C	1.327459	0.499846	0.270273
C73	C	0.828722	-0.000157	-0.150785
C74	C	1.328722	0.499843	0.349215
C75	C	0.822364	-0.000141	-0.548090
C76	C	1.322364	0.499859	-0.048090
C77	C	0.821106	-0.000143	-0.627038
C78	C	1.321106	0.499857	-0.127038
C79	C	0.959036	-0.000180	-0.645338
C80	C	1.459036	0.499820	-0.145338
C81	C	0.960299	-0.000182	-0.566396
C82	C	1.460299	0.499818	-0.066396
C83	C	0.891961	-0.000154	-0.517776
C84	C	1.391961	0.499846	-0.017776
C85	C	0.893330	-0.000165	-0.432177
C86	C	1.393330	0.499835	0.067823
C87	C	0.894427	-0.000175	-0.363951
C88	C	1.394427	0.499825	0.136049
C89	C	0.888102	-0.000160	0.240322
C90	C	1.388102	0.499840	0.740322
C91	C	0.889440	-0.000150	0.324340
C92	C	1.389440	0.499850	0.824340
H93	H	0.680748	-0.000167	-0.018868
H94	H	1.180748	0.499833	0.481132
H95	H	0.856494	-0.594011	0.064749
H96	H	1.356494	-0.094011	0.564749
H97	H	0.647537	-0.000106	0.231384
H98	H	1.147537	0.499894	0.731384
H99	H	0.856489	-0.406386	0.064747
H100	H	1.356489	0.093614	0.564747
H101	H	1.014680	-0.000196	-0.684934
H102	H	1.514680	0.499804	-0.184934
H103	H	0.764429	-0.000130	-0.651721
H104	H	1.264429	0.499870	-0.151721
H105	H	0.766718	-0.000118	-0.508512
H106	H	1.266718	0.499882	-0.008512
H107	H	0.537526	-0.000204	-0.021154
H108	H	1.037526	0.499796	0.478846
C109	C	0.751973	-0.000207	-0.262790
C110	C	1.251973	0.499793	0.237210
C111	C	0.765490	-0.000252	-0.342331
C112	C	1.265490	0.499748	0.157669
C113	C	0.695969	-0.000326	-0.372813
C114	C	1.195969	0.499674	0.127187
H115	H	0.723787	0.084092	-0.246174
H116	H	1.223787	0.584092	0.253826
H117	H	0.723833	-0.084551	-0.246137
H118	H	1.223833	0.415449	0.253863
H119	H	0.793618	0.084083	-0.358978
H120	H	1.293618	0.584083	0.141022
H121	H	0.793664	-0.084545	-0.358968
H122	H	1.293664	0.415455	0.141032
H123	H	0.667829	-0.084669	-0.356159
H124	H	1.167829	0.415331	0.143841
H125	H	0.667789	0.083975	-0.356191
H126	H	1.167789	0.583975	0.143809
H127	H	0.705131	-0.000370	-0.426784
H128	H	1.205131	0.499630	0.073216
C129	C	1.042298	-0.000151	-0.136321
C130	C	1.542298	0.499849	0.363679
C131	C	1.101870	-0.000119	-0.195802
C132	C	1.601870	0.499881	0.304198
C133	C	1.171564	-0.000039	-0.165647
C134	C	1.671564	0.499961	0.334353
H135	H	1.045767	-0.084443	-0.105920
H136	H	1.545767	0.415557	0.394080
H137	H	1.045700	0.084199	-0.105925
H138	H	1.545700	0.584199	0.394075
H139	H	1.098470	-0.084461	-0.226184
H140	H	1.598470	0.415539	0.273816
H141	H	1.098427	0.084167	-0.226207
H142	H	1.598427	0.584167	0.273793
H143	H	1.174965	0.084311	-0.135251
H144	H	1.674965	0.584311	0.364749
H145	H	1.175024	-0.084333	-0.135247
H146	H	1.675024	0.415667	0.364753
H147	H	1.211992	-0.000004	-0.205999
H148	H	1.711992	0.499996	0.294001
C149	C	0.754449	-0.000212	-0.098119
C150	C	1.254449	0.499788	0.401881
C151	C	0.693228	-0.000232	-0.141566
C152	C	1.193228	0.499768	0.358434
C153	C	0.624794	-0.000292	-0.093078
C154	C	1.124794	0.499708	0.406922
H155	H	0.751972	0.084083	-0.066924
H156	H	1.251972	0.584083	0.433076
H157	H	0.752027	-0.084559	-0.066955
H158	H	1.252027	0.415441	0.433045
H159	H	0.695648	0.084107	-0.172717
H160	H	1.195648	0.584107	0.327283
H161	H	0.695679	-0.084521	-0.172759
H162	H	1.195679	0.415479	0.327241
H163	H	0.622373	-0.084640	-0.061914
H164	H	1.122373	0.415360	0.438086
H165	H	0.622326	0.084004	-0.061886
H166	H	1.122326	0.584004	0.438114
H167	H	0.583248	-0.000319	-0.122550
H168	H	1.083248	0.499681	0.377450
C169	C	0.093944	-0.000104	0.241371
C170	C	0.593944	0.499896	0.741371
C171	C	0.137396	-0.000041	0.302588
C172	C	0.637396	0.499959	0.802588
C173	C	0.088911	0.000059	0.371024
C174	C	0.588911	0.500059	0.871024
H175	H	0.062756	-0.084401	0.243858
H176	H	0.562756	0.415599	0.743858
H177	H	0.062775	0.084242	0.243785
H178	H	0.562775	0.584242	0.743785
H179	H	0.168552	-0.084379	0.300175
H180	H	0.668552	0.415621	0.800175
H181	H	0.168583	0.084249	0.300126
H182	H	0.668583	0.584249	0.800126
H183	H	0.057742	0.084405	0.373439
H184	H	0.557742	0.584405	0.873439
H185	H	0.057725	-0.084239	0.373504
H186	H	0.557725	0.415761	0.873504
H187	H	0.118386	0.000115	0.412569
H188	H	0.618386	0.500115	0.912569
H189	H	1.021038	-0.000212	-0.287618
H190	H	1.521038	0.499788	0.212382
C191	C	1.035784	-0.000271	-0.533330
C192	C	1.535784	0.499729	-0.033330
C193	C	1.022264	-0.000305	-0.453790
C194	C	1.522264	0.499695	0.046210
C195	C	1.091784	-0.000399	-0.423305
C196	C	1.591784	0.499601	0.076695
H197	H	1.063974	0.084018	-0.549941
H198	H	1.563974	0.584018	-0.049941
H199	H	1.063921	-0.084624	-0.549988
H200	H	1.563921	0.415376	-0.049988
H201	H	0.994139	0.084040	-0.437139
H202	H	1.494139	0.584040	0.062861
H203	H	0.994086	-0.084588	-0.437158
H204	H	1.494086	0.415412	0.062842
H205	H	1.119921	-0.084752	-0.439962
H206	H	1.619921	0.415248	0.060038
H207	H	1.119968	0.083892	-0.439922
H208	H	1.619968	0.583892	0.060078
H209	H	1.082620	-0.000435	-0.369334
H210	H	1.582620	0.499565	0.130666
H211	H	0.140225	-0.000226	-0.027517
H212	H	0.640225	0.499774	0.472483
C213	C	0.491164	0.000176	0.247666
C214	C	0.991164	0.500176	0.747666
C215	C	0.504827	0.124604	0.289566
C216	C	1.004827	0.624604	0.789566
C217	C	0.456244	0.124952	0.357938
C218	C	0.956244	0.624952	0.857938
H219	H	0.500304	-0.084030	0.276303
H220	H	1.000304	0.415970	0.776303
H221	H	0.439794	0.000241	0.236984
H222	H	0.939794	0.500241	0.736984
H223	H	0.556186	0.124526	0.300249
H224	H	1.056186	0.624526	0.800249
H225	H	0.495682	0.208830	0.260952
H226	H	0.995682	0.708830	0.760952
H227	H	0.404874	0.125017	0.347256
H228	H	0.904874	0.625017	0.847256
H229	H	0.465389	0.040741	0.386568
H230	H	0.965389	0.540741	0.886568
H231	H	0.465503	0.209380	0.386372
H232	H	0.965503	0.709380	0.886372
C233	C	0.258506	0.000157	0.243896
C234	C	0.758506	0.500157	0.743896
C235	C	0.303266	0.124580	0.248656
C236	C	0.803266	0.624580	0.748656
C237	C	0.333626	0.124948	0.318241
C238	C	0.833626	0.624948	0.818241
H239	H	0.288979	-0.084052	0.247337
H240	H	0.788979	0.415948	0.747337
H241	H	0.218260	0.000240	0.284432
H242	H	0.718260	0.500240	0.784432
H243	H	0.343507	0.124484	0.208130
H244	H	0.843507	0.624484	0.708130
H245	H	0.272811	0.208809	0.245228
H246	H	0.772811	0.708809	0.745228
H247	H	0.293379	0.125032	0.358778
H248	H	0.793379	0.625032	0.858778
H249	H	0.364095	0.040734	0.321676
H250	H	0.864095	0.540734	0.821676
H251	H	0.363993	0.209374	0.321483
H252	H	0.863993	0.709374	0.821483
H253	H	0.283434	-0.000224	-0.025228
H254	H	0.783434	0.499776	0.474772
C255	C	0.987357	-0.333825	0.195078
C256	C	1.487357	0.166175	0.695078
C257	C	0.966573	-0.370761	0.271421
C258	C	1.466573	0.129239	0.771421
C259	C	1.012443	-0.294682	0.317238
C260	C	1.512443	0.205318	0.817238
H261	H	0.980765	-0.232291	0.188588
H262	H	1.480765	0.267709	0.688588
H263	H	1.039167	-0.358722	0.180866
H264	H	1.539167	0.141278	0.680866
H265	H	0.914776	-0.345854	0.285629
H266	H	1.414776	0.154146	0.785629
H267	H	0.973168	-0.472282	0.277935
H268	H	1.473168	0.027718	0.777935
H269	H	1.064253	-0.319579	0.303026
H270	H	1.564253	0.180421	0.803026
H271	H	1.005848	-0.193152	0.310741
H272	H	1.505848	0.306848	0.810741
H273	H	0.998352	-0.319742	0.369041
H274	H	1.498352	0.180258	0.869041
H275	H	0.974957	-0.645967	0.182553
H276	H	1.474957	-0.145967	0.682553
