data_functionalizedCrystal
_audit_creation_method	'MofGen! by Chris Wilmer'
_symmetry_space_group_name_H-M	'P1'
_symmetry_Int_Tables_number	1
_symmetry_cell_setting	triclinic
loop_
_symmetry_equiv_pos_as_xyz
  x,y,z
_cell_length_a	12.837943
_cell_length_b	14.853559
_cell_length_c	11.892095
_cell_angle_alpha	93.896703
_cell_angle_beta	85.689438
_cell_angle_gamma	89.230197
loop_
_atom_site_label
_atom_site_type_symbol
_atom_site_fract_x
_atom_site_fract_y
_atom_site_fract_z
O1	O	1.382402	0.229204	-0.093972
O2	O	1.882402	0.729204	0.406028
O3	O	1.080580	0.217625	-0.093980
O4	O	1.580580	0.717625	0.406020
O5	O	1.239558	0.092869	-0.093975
O6	O	1.739558	0.592869	0.406025
O7	O	1.223424	0.353961	-0.093977
O8	O	1.723424	0.853961	0.406023
O9	O	1.226302	0.103253	0.094032
O10	O	1.726302	0.603253	0.594032
O11	O	1.067325	0.228009	0.094027
O12	O	1.567325	0.728009	0.594027
O13	O	1.369146	0.239588	0.094035
O14	O	1.869146	0.739588	0.594035
Zn15	Zn	1.216131	0.235448	0.123881
Zn16	Zn	1.716131	0.735448	0.623881
Zn17	Zn	1.233596	0.221766	-0.123826
Zn18	Zn	1.733596	0.721766	0.376174
O19	O	1.210169	0.364345	0.094030
O20	O	1.710169	0.864345	0.594030
C21	C	1.035327	0.218906	0.000023
C22	C	1.535327	0.718906	0.500023
C23	C	0.920233	0.207239	0.000020
C24	C	1.420233	0.707239	0.500020
C25	C	0.679471	0.347487	0.000035
C26	C	1.179471	0.847487	0.500035
C27	C	0.571330	0.336530	0.000033
C28	C	1.071330	0.836530	0.500033
C29	C	0.595807	0.174369	0.000022
C30	C	1.095807	0.674369	0.500022
C31	C	0.703949	0.185326	0.000024
C32	C	1.203949	0.685326	0.500024
C33	C	0.745776	0.271888	0.000029
C34	C	1.245776	0.771888	0.500029
C35	C	0.853920	0.282844	0.000023
C36	C	1.353920	0.782844	0.500023
C37	C	0.878395	0.120684	0.000020
C38	C	1.378395	0.620684	0.500020
C39	C	0.770254	0.109727	0.000018
C40	C	1.270254	0.609727	0.500018
C41	C	1.232201	0.064410	0.000027
C42	C	1.732201	0.564410	0.500027
C43	C	1.230015	-0.035860	0.000020
C44	C	1.730015	0.464140	0.500020
C45	C	1.227968	-0.465482	-0.102463
C46	C	1.727968	0.034518	0.397537
C47	C	1.213516	-0.454155	0.102510
C48	C	1.713516	0.045845	0.602510
C49	C	1.215578	-0.359947	0.102511
C50	C	1.715578	0.140053	0.602511
C51	C	1.223834	-0.318502	0.000024
C52	C	1.723834	0.181498	0.500024
C53	C	1.230027	-0.371265	-0.102465
C54	C	1.730027	0.128735	0.397535
C55	C	1.209375	-0.307177	0.204997
C56	C	1.709375	0.192823	0.704997
C57	C	1.211436	-0.212962	0.205003
C58	C	1.711436	0.287038	0.705003
C59	C	1.219699	-0.171516	0.102514
C60	C	1.719699	0.328484	0.602514
C61	C	1.225893	-0.224285	0.000021
C62	C	1.725893	0.275715	0.500021
C63	C	1.234149	-0.182840	-0.102466
C64	C	1.734149	0.317160	0.397534
C65	C	1.240351	-0.235608	-0.204960
C66	C	1.740351	0.264392	0.295040
C67	C	1.238290	-0.329818	-0.204953
C68	C	1.738290	0.170182	0.295047
C69	C	1.221760	-0.077305	0.102508
C70	C	1.721760	0.422695	0.602508
C71	C	1.236209	-0.088623	-0.102468
C72	C	1.736209	0.411377	0.397532
C73	C	1.414400	0.238308	0.000030
C74	C	1.914400	0.738308	0.500030
C75	C	1.529494	0.249974	0.000025
C76	C	2.029494	0.749974	0.500025
C77	C	1.217526	0.392803	0.000026
C78	C	1.717526	0.892803	0.500026
C79	C	1.219712	0.493073	0.000025
C80	C	1.719712	0.993073	0.500025
N81	N	1.204220	0.244785	0.292935
N82	N	1.704220	0.744785	0.792935
N83	N	1.245515	0.212422	-0.292880
N84	N	1.745515	0.712422	0.207120
C85	C	1.328400	0.147396	0.529587
C86	C	1.828400	0.647396	1.029587
C87	C	1.320082	0.153930	0.647928
C88	C	1.820082	0.653930	1.147928
C89	C	1.179260	0.264382	0.647962
C90	C	1.679260	0.764382	1.147962
C91	C	1.187579	0.257848	0.529620
C92	C	1.687579	0.757848	1.029620
C93	C	1.262152	0.199354	0.470437
C94	C	1.762152	0.699354	0.970437
C95	C	1.270475	0.192825	0.352093
C96	C	1.770475	0.692825	0.852093
C97	C	1.129649	0.303272	0.352129
C98	C	1.629649	0.803272	0.852129
C99	C	1.121331	0.309806	0.470470
C100	C	1.621331	0.809806	0.970470
H101	H	0.713528	0.417968	0.000037
H102	H	1.213528	0.917968	0.500037
H103	H	1.075708	0.345582	0.303956
H104	H	1.575708	0.845582	0.803956
H105	H	1.247065	-0.201850	-0.288405
H106	H	1.747065	0.298150	0.211595
N107	N	0.499810	0.418070	0.000083
N108	N	0.999810	0.918070	0.500083
H109	H	0.542720	0.474566	0.000100
H110	H	1.042720	0.974566	0.500100
H111	H	0.459302	0.413232	-0.069601
H112	H	0.959302	0.913232	0.430399
N113	N	0.550682	0.081015	0.000050
N114	N	1.050682	0.581015	0.500050
H115	H	0.472113	0.085550	0.000061
H116	H	0.972113	0.585550	0.500061
H117	H	0.579828	0.043664	-0.069643
H118	H	1.079828	0.543664	0.430357
H119	H	1.060612	0.357428	0.518671
H120	H	1.560612	0.857428	1.018671
N121	N	1.350883	0.129727	0.288242
N122	N	1.850883	0.629727	0.788242
H123	H	1.400290	0.165426	0.239126
H124	H	1.900290	0.665426	0.739126
H125	H	1.391512	0.097807	0.343737
H126	H	1.891512	0.597807	0.843737
H127	H	1.202648	-0.340929	0.288437
H128	H	1.702648	0.159071	0.788437
H129	H	1.374026	0.111620	0.696085
H130	H	1.874026	0.611620	1.196085
H131	H	1.242936	-0.054886	-0.185927
H132	H	1.742936	0.445114	0.314073
N133	N	1.215069	-0.020385	0.213034
N134	N	1.715069	0.479615	0.713034
H135	H	1.147332	-0.032509	0.257834
H136	H	1.647332	0.467491	0.757834
H137	H	1.275813	-0.036124	0.257758
H138	H	1.775813	0.463876	0.757758
N139	N	0.725125	0.016374	0.000023
N140	N	1.225125	0.516374	0.500023
H141	H	0.685711	0.004368	-0.069670
H142	H	1.185711	0.504368	0.430330
H143	H	0.783591	-0.029799	0.000062
H144	H	1.283591	0.470201	0.500062
N145	N	0.899040	0.376201	0.000018
N146	N	1.399040	0.876201	0.500018
H147	H	0.840622	0.422429	0.000023
H148	H	1.340622	0.922429	0.500023
H149	H	0.938465	0.388126	0.069713
H150	H	1.438465	0.888126	0.569713
N151	N	0.949910	0.039137	0.000002
N152	N	1.449910	0.539137	0.500002
H153	H	1.024766	0.059210	-0.000000
H154	H	1.524766	0.559210	0.500000
H155	H	0.931445	0.005659	0.069694
H156	H	1.431445	0.505659	0.569694
N157	N	1.244978	-0.386730	-0.315492
N158	N	1.744978	0.113270	0.184508
H159	H	1.242416	-0.452700	-0.299936
H160	H	1.742416	0.047300	0.200064
H161	H	1.184275	-0.370939	-0.360248
H162	H	1.684275	0.129061	0.139752
H163	H	1.118537	0.311999	0.696165
H164	H	1.618537	0.811999	1.196165
N165	N	1.234665	-0.522387	-0.213006
N166	N	1.734665	-0.022387	0.286994
H167	H	1.232112	-0.588360	-0.197460
H168	H	1.732112	-0.088360	0.302540
H169	H	1.173961	-0.506600	-0.257763
H170	H	1.673961	-0.006600	0.242237
H171	H	1.206788	-0.487906	0.185950
H172	H	1.706788	0.012094	0.685950
H173	H	1.206390	-0.170007	0.288459
H174	H	1.706390	0.329993	0.788459
N175	N	1.408808	0.084303	0.465728
N176	N	1.908808	0.584303	0.965728
H177	H	1.458207	0.120006	0.416609
H178	H	1.958207	0.620006	0.916609
H179	H	1.449446	0.052383	0.521216
H180	H	1.949446	0.552383	1.021216
