data_functionalizedCrystal
_audit_creation_method	'MofGen! by Chris Wilmer'
_symmetry_space_group_name_H-M	'P1'
_symmetry_Int_Tables_number	1
_symmetry_cell_setting	triclinic
loop_
_symmetry_equiv_pos_as_xyz
  x,y,z
_cell_length_a	21.295418
_cell_length_b	21.295417
_cell_length_c	21.295411
_cell_angle_alpha	89.978356
_cell_angle_beta	89.956262
_cell_angle_gamma	90.046319
loop_
_atom_site_label
_atom_site_type_symbol
_atom_site_fract_x
_atom_site_fract_y
_atom_site_fract_z
Zn1	Zn	0.962356	-0.250415	-0.356234
Zn2	Zn	1.212356	-0.000415	-0.106234
Zn3	Zn	1.462356	0.249585	0.143766
Zn4	Zn	1.712356	0.499585	0.393766
Zn5	Zn	0.962258	-0.355667	-0.250959
Zn6	Zn	1.212258	-0.105667	-0.000959
Zn7	Zn	1.462258	0.144333	0.249041
Zn8	Zn	1.712258	0.394333	0.499041
Zn9	Zn	0.857079	-0.250445	-0.250943
Zn10	Zn	1.107079	-0.000445	-0.000943
Zn11	Zn	1.357079	0.249555	0.249057
Zn12	Zn	1.607079	0.499555	0.499057
Zn13	Zn	0.857048	-0.355680	-0.356155
Zn14	Zn	1.107048	-0.105680	-0.106155
Zn15	Zn	1.357048	0.144320	0.143845
Zn16	Zn	1.607048	0.394320	0.393845
O17	O	0.909685	-0.303052	-0.303573
O18	O	1.159685	-0.053052	-0.053573
O19	O	1.409685	0.196948	0.196427
O20	O	1.659685	0.446948	0.446427
O21	O	1.050432	-0.264360	-0.342308
O22	O	1.300432	-0.014360	-0.092308
O23	O	1.550432	0.235640	0.157692
O24	O	1.800432	0.485640	0.407692
O25	O	0.948278	-0.341716	-0.162867
O26	O	1.198278	-0.091716	0.087133
O27	O	1.448278	0.158284	0.337133
O28	O	1.698278	0.408284	0.587133
O29	O	0.871098	-0.162351	-0.264937
O30	O	1.121098	0.087649	-0.014937
O31	O	1.371098	0.337649	0.235063
O32	O	1.621098	0.587649	0.485063
O33	O	1.050361	-0.341688	-0.264963
O34	O	1.300361	-0.091688	-0.014963
O35	O	1.550361	0.158312	0.235037
O36	O	1.800361	0.408312	0.485037
O37	O	0.948444	-0.162330	-0.342293
O38	O	1.198444	0.087670	-0.092293
O39	O	1.448444	0.337670	0.157707
O40	O	1.698444	0.587670	0.407707
O41	O	0.871003	-0.264410	-0.162856
O42	O	1.121003	-0.014410	0.087144
O43	O	1.371003	0.235590	0.337144
O44	O	1.621003	0.485590	0.587144
O45	O	0.768985	-0.264422	-0.264861
O46	O	1.018985	-0.014422	-0.014861
O47	O	1.268985	0.235578	0.235139
O48	O	1.518985	0.485578	0.485139
O49	O	0.871046	-0.341709	-0.444255
O50	O	1.121046	-0.091709	-0.194255
O51	O	1.371046	0.158291	0.055745
O52	O	1.621046	0.408291	0.305745
O53	O	0.768963	-0.341738	-0.342160
O54	O	1.018963	-0.091738	-0.092160
O55	O	1.268963	0.158262	0.157840
O56	O	1.518963	0.408262	0.407840
O57	O	0.948415	-0.264372	-0.444313
O58	O	1.198415	-0.014372	-0.194313
O59	O	1.448415	0.235628	0.055687
O60	O	1.698415	0.485628	0.305687
O61	O	0.948248	-0.443758	-0.264887
O62	O	1.198248	-0.193758	-0.014887
O63	O	1.448248	0.056242	0.235113
O64	O	1.698248	0.306242	0.485113
O65	O	0.870951	-0.443767	-0.342175
O66	O	1.120951	-0.193767	-0.092175
O67	O	1.370951	0.056233	0.157825
O68	O	1.620951	0.306233	0.407825
C69	C	0.746134	-0.303085	-0.303500
C70	C	0.996134	-0.053085	-0.053500
C71	C	1.246134	0.196915	0.196500
C72	C	1.496134	0.446915	0.446500
C73	C	0.676166	-0.303114	-0.303484
C74	C	0.926166	-0.053114	-0.053484
C75	C	1.176166	0.196886	0.196516
C76	C	1.426166	0.446886	0.446516
C77	C	0.909603	-0.466603	-0.303538
C78	C	1.159603	-0.216603	-0.053538
C79	C	1.409603	0.033397	0.196462
C80	C	1.659603	0.283397	0.446462
C81	C	0.909625	-0.536571	-0.303544
C82	C	1.159625	-0.286571	-0.053544
C83	C	1.409625	-0.036571	0.196456
C84	C	1.659625	0.213429	0.446456
C85	C	0.643304	-0.343426	-0.343674
C86	C	0.893304	-0.093426	-0.093674
C87	C	1.143304	0.156574	0.156326
C88	C	1.393304	0.406574	0.406326
C89	C	0.577561	-0.343410	-0.343702
C90	C	0.827561	-0.093410	-0.093702
C91	C	1.077561	0.156590	0.156298
C92	C	1.327561	0.406590	0.406298
C93	C	0.544683	-0.303090	-0.303530
C94	C	0.794683	-0.053090	-0.053530
C95	C	1.044683	0.196910	0.196470
C96	C	1.294683	0.446910	0.446470
C97	C	0.577553	-0.262770	-0.263337
C98	C	0.827553	-0.012770	-0.013337
C99	C	1.077553	0.237230	0.236663
C100	C	1.327553	0.487230	0.486663
C101	C	0.643294	-0.262783	-0.263315
C102	C	0.893294	-0.012783	-0.013315
C103	C	1.143294	0.237217	0.236685
C104	C	1.393294	0.487217	0.486685
N105	N	0.441407	-0.298163	-0.248472
N106	N	0.691407	-0.048163	0.001528
N107	N	0.941407	0.201837	0.251528
N108	N	1.191407	0.451837	0.501528
N109	N	0.378956	-0.298155	-0.248495
N110	N	0.628956	-0.048155	0.001505
N111	N	0.878956	0.201845	0.251505
N112	N	1.128956	0.451845	0.501505
C113	C	0.346608	-0.303050	-0.303596
C114	C	0.596608	-0.053050	-0.053596
C115	C	0.846608	0.196950	0.196404
C116	C	1.096608	0.446950	0.446404
N117	N	0.379072	-0.307965	-0.358675
N118	N	0.629072	-0.057965	-0.108675
N119	N	0.879072	0.192035	0.141325
N120	N	1.129072	0.442035	0.391325
N121	N	0.441529	-0.307976	-0.358650
N122	N	0.691529	-0.057976	-0.108650
N123	N	0.941529	0.192024	0.141350
N124	N	1.191529	0.442024	0.391350
C125	C	0.473398	-0.303072	-0.303550
C126	C	0.723398	-0.053072	-0.053550
C127	C	0.973398	0.196928	0.196450
C128	C	1.223398	0.446928	0.446450
C129	C	0.242461	-0.343346	-0.343820
C130	C	0.492461	-0.093346	-0.093820
C131	C	0.742461	0.156654	0.156180
C132	C	0.992461	0.406654	0.406180
C133	C	0.176717	-0.343326	-0.343849
C134	C	0.426717	-0.093326	-0.093849
C135	C	0.676717	0.156674	0.156151
C136	C	0.926717	0.406674	0.406151
C137	C	0.176710	-0.262690	-0.263479
C138	C	0.426710	-0.012690	-0.013479
C139	C	0.676710	0.237310	0.236521
C140	C	0.926710	0.487310	0.486521
C141	C	0.242453	-0.262707	-0.263455
C142	C	0.492453	-0.012707	-0.013455
C143	C	0.742453	0.237293	0.236545
C144	C	0.992453	0.487293	0.486545
C145	C	0.275324	-0.303038	-0.303625
C146	C	0.525324	-0.053038	-0.053625
C147	C	0.775324	0.196962	0.196375
C148	C	1.025324	0.446962	0.446375
C149	C	0.949910	-0.569412	-0.263342
C150	C	1.199910	-0.319412	-0.013342
C151	C	1.449910	-0.069412	0.236658
C152	C	1.699910	0.180588	0.486658
C153	C	0.949939	-0.635155	-0.263356
C154	C	1.199939	-0.385155	-0.013356
C155	C	1.449939	-0.135155	0.236644
C156	C	1.699939	0.114845	0.486644
C157	C	0.909673	-0.668054	-0.303566
C158	C	1.159673	-0.418054	-0.053566
C159	C	1.409673	-0.168054	0.196434
C160	C	1.659673	0.081946	0.446434
C161	C	0.869386	-0.635205	-0.343776
C162	C	1.119386	-0.385205	-0.093776
C163	C	1.369386	-0.135205	0.156224
C164	C	1.619386	0.114795	0.406224
C165	C	0.869362	-0.569464	-0.343765
C166	C	1.119362	-0.319464	-0.093765
C167	C	1.369362	-0.069464	0.156235
C168	C	1.619362	0.180536	0.406235
N169	N	0.854606	-0.771336	-0.308340
N170	N	1.104606	-0.521336	-0.058340
N171	N	1.354606	-0.271336	0.191660
N172	N	1.604606	-0.021336	0.441660
N173	N	0.854630	-0.833787	-0.308347
N174	N	1.104630	-0.583787	-0.058347
N175	N	1.354630	-0.333787	0.191653
N176	N	1.604630	-0.083787	0.441653
C177	C	0.909743	-0.866129	-0.303602
C178	C	1.159743	-0.616129	-0.053602
C179	C	1.409743	-0.366129	0.196398
C180	C	1.659743	-0.116129	0.446398
N181	N	0.964832	-0.833659	-0.298838
N182	N	1.214832	-0.583659	-0.048838
N183	N	1.464832	-0.333659	0.201162
N184	N	1.714832	-0.083659	0.451162
N185	N	0.964807	-0.771202	-0.298828
N186	N	1.214807	-0.521202	-0.048828
N187	N	1.464807	-0.271202	0.201172
N188	N	1.714807	-0.021202	0.451172
C189	C	0.909695	-0.739339	-0.303582
C190	C	1.159695	-0.489339	-0.053582
C191	C	1.409695	-0.239339	0.196418
C192	C	1.659695	0.010661	0.446418
C193	C	0.950063	-0.970255	-0.263413
C194	C	1.200063	-0.720255	-0.013413
C195	C	1.450063	-0.470255	0.236587
C196	C	1.700063	-0.220255	0.486587
C197	C	0.950094	-1.035999	-0.263431
C198	C	1.200094	-0.785999	-0.013431
C199	C	1.450094	-0.535999	0.236569
C200	C	1.700094	-0.285999	0.486569
C201	C	0.869535	-1.036048	-0.343848
C202	C	1.119535	-0.786048	-0.093848
C203	C	1.369535	-0.536048	0.156152
C204	C	1.619535	-0.286048	0.406152
C205	C	0.869510	-0.970305	-0.343833
C206	C	1.119510	-0.720305	-0.093833
C207	C	1.369510	-0.470305	0.156167
C208	C	1.619510	-0.220305	0.406167
C209	C	0.909773	-0.937413	-0.303612
C210	C	1.159773	-0.687413	-0.053612
C211	C	1.409773	-0.437413	0.196388
C212	C	1.659773	-0.187413	0.446388
C213	C	1.073876	-0.303019	-0.303646
C214	C	1.323876	-0.053019	-0.053646
C215	C	1.573876	0.196981	0.196354
C216	C	1.823876	0.446981	0.446354
C217	C	1.143844	-0.303005	-0.303677
C218	C	1.393844	-0.053005	-0.053677
C219	C	1.643844	0.196995	0.196323
C220	C	1.893844	0.446995	0.446323
C221	C	0.909738	-0.303038	-0.467763
C222	C	1.159738	-0.053038	-0.217763
C223	C	1.409738	0.196962	0.032237
C224	C	1.659738	0.446962	0.282237
C225	C	0.909760	-0.303033	-0.537731
C226	C	1.159760	-0.053033	-0.287731
C227	C	1.409760	0.196967	-0.037731
C228	C	1.659760	0.446967	0.212269
C229	C	0.909785	-0.138861	-0.303622
C230	C	1.159785	0.111139	-0.053622
C231	C	1.409785	0.361139	0.196378
C232	C	1.659785	0.611139	0.446378
C233	C	0.909828	-0.068893	-0.303642
C234	C	1.159828	0.181107	-0.053642
C235	C	1.409828	0.431107	0.196358
C236	C	1.659828	0.681107	0.446358
C237	C	0.950044	-0.262761	-0.570629
C238	C	1.200044	-0.012761	-0.320629
C239	C	1.450044	0.237239	-0.070629
C240	C	1.700044	0.487239	0.179371
C241	C	0.950043	-0.262734	-0.636371
C242	C	1.200043	-0.012734	-0.386371
C243	C	1.450043	0.237266	-0.136371
C244	C	1.700043	0.487266	0.113629
C245	C	0.909765	-0.302989	-0.669214
C246	C	1.159765	-0.052989	-0.419214
C247	C	1.409765	0.197011	-0.169214
C248	C	1.659765	0.447011	0.080786
C249	C	0.869473	-0.343263	-0.636308
C250	C	1.119473	-0.093263	-0.386308
C251	C	1.369473	0.156737	-0.136308
C252	C	1.619473	0.406737	0.113692
C253	C	0.869470	-0.343285	-0.570567
C254	C	1.119470	-0.093285	-0.320567
C255	C	1.369470	0.156715	-0.070567
C256	C	1.619470	0.406715	0.179433
N257	N	0.904908	-0.358058	-0.772428
N258	N	1.154908	-0.108058	-0.522428
N259	N	1.404908	0.141942	-0.272428
N260	N	1.654908	0.391942	-0.022428
N261	N	0.904914	-0.358036	-0.834879
N262	N	1.154914	-0.108036	-0.584879
N263	N	1.404914	0.141964	-0.334879
N264	N	1.654914	0.391964	-0.084879
C265	C	0.909769	-0.302926	-0.867289
C266	C	1.159769	-0.052926	-0.617289
C267	C	1.409769	0.197074	-0.367289
C268	C	1.659769	0.447074	-0.117289
N269	N	0.914629	-0.247837	-0.834888
N270	N	1.164629	0.002163	-0.584888
N271	N	1.414629	0.252163	-0.334888
N272	N	1.664629	0.502163	-0.084888
N273	N	0.914627	-0.247860	-0.772430
N274	N	1.164627	0.002140	-0.522430
N275	N	1.414627	0.252140	-0.272430
N276	N	1.664627	0.502140	-0.022430
C277	C	0.909763	-0.302970	-0.740499
C278	C	1.159763	-0.052970	-0.490499
C279	C	1.409763	0.197030	-0.240499
C280	C	1.659763	0.447030	0.009501
C281	C	0.950054	-0.262621	-0.971472
C282	C	1.200054	-0.012621	-0.721472
C283	C	1.450054	0.237379	-0.471472
C284	C	1.700054	0.487379	-0.221472
C285	C	0.950049	-0.262593	-1.037216
C286	C	1.200049	-0.012593	-0.787216
C287	C	1.450049	0.237407	-0.537216
C288	C	1.700049	0.487407	-0.287216
C289	C	0.869482	-0.343128	-1.037151
C290	C	1.119482	-0.093128	-0.787151
C291	C	1.369482	0.156872	-0.537151
C292	C	1.619482	0.406872	-0.287151
C293	C	0.869484	-0.343151	-0.971409
C294	C	1.119484	-0.093151	-0.721409
C295	C	1.369484	0.156849	-0.471409
C296	C	1.619484	0.406849	-0.221409
C297	C	0.909773	-0.302898	-0.938573
C298	C	1.159773	-0.052898	-0.688573
C299	C	1.409773	0.197102	-0.438573
C300	C	1.659773	0.447102	-0.188573
C301	C	0.909670	-0.303019	-0.140021
C302	C	1.159670	-0.053019	0.109979
C303	C	1.409670	0.196981	0.359979
C304	C	1.659670	0.446981	0.609979
C305	C	0.909769	-0.302848	-0.070054
C306	C	1.159769	-0.052848	0.179946
C307	C	1.409769	0.197152	0.429946
C308	C	1.659769	0.447152	0.679946
H309	H	0.550800	-0.376236	-0.376431
H310	H	0.800800	-0.126236	-0.126431
H311	H	1.050800	0.123764	0.123569
H312	H	1.300800	0.373764	0.373569
H313	H	0.982846	-0.229937	-0.663162
H314	H	1.232846	0.020063	-0.413162
H315	H	1.482846	0.270063	-0.163162
H316	H	1.732846	0.520063	0.086838
H317	H	0.982852	-0.229795	-1.064000
H318	H	1.232852	0.020205	-0.814000
H319	H	1.482852	0.270205	-0.564000
H320	H	1.732852	0.520205	-0.314000
H321	H	0.836602	-0.661996	-0.376516
H322	H	1.086602	-0.411996	-0.126516
H323	H	1.336602	-0.161996	0.123484
H324	H	1.586602	0.088004	0.373484
H325	H	0.550779	-0.229940	-0.230630
H326	H	0.800779	0.020060	0.019370
H327	H	1.050779	0.270060	0.269370
H328	H	1.300779	0.520060	0.519370
C329	C	0.994249	-0.671288	-0.219127
C330	C	1.244249	-0.421288	0.030873
C331	C	1.494249	-0.171288	0.280873
C332	C	1.744249	0.078712	0.530873
H333	H	1.018221	-0.642282	-0.195169
H334	H	1.268221	-0.392282	0.054831
H335	H	1.518221	-0.142282	0.304831
H336	H	1.768221	0.107718	0.554831
H337	H	1.021675	-0.696892	-0.243240
H338	H	1.271675	-0.446892	0.006760
H339	H	1.521675	-0.196892	0.256760
H340	H	1.771675	0.053108	0.506760
H341	H	0.970180	-0.696973	-0.191675
H342	H	1.220180	-0.446973	0.058325
H343	H	1.470180	-0.196973	0.308325
H344	H	1.720180	0.053027	0.558325
C345	C	0.825170	-0.387546	-0.672432
C346	C	1.075170	-0.137546	-0.422432
C347	C	1.325170	0.112454	-0.172432
C348	C	1.575170	0.362454	0.077568
H349	H	0.830946	-0.381771	-0.716298
H350	H	1.080946	-0.131771	-0.466298
H351	H	1.330946	0.118229	-0.216298
H352	H	1.580946	0.368229	0.033702
H353	H	0.782880	-0.378347	-0.661631
H354	H	1.032880	-0.128347	-0.411631
H355	H	1.282880	0.121653	-0.161631
H356	H	1.532880	0.371653	0.088369
H357	H	0.834362	-0.429844	-0.661660
H358	H	1.084362	-0.179844	-0.411660
H359	H	1.334362	0.070156	-0.161660
H360	H	1.584362	0.320156	0.088340
H361	H	0.982850	-0.943473	-0.230664
H362	H	1.232850	-0.693473	0.019336
H363	H	1.482850	-0.443473	0.269336
H364	H	1.732850	-0.193473	0.519336
H365	H	0.836557	-0.542724	-0.376503
H366	H	1.086557	-0.292724	-0.126503
H367	H	1.336557	-0.042724	0.123497
H368	H	1.586557	0.207276	0.373497
H369	H	0.982902	-1.062737	-0.230695
H370	H	1.232902	-0.812737	0.019305
H371	H	1.482902	-0.562737	0.269305
H372	H	1.732902	-0.312737	0.519305
C373	C	0.679447	-0.218441	-0.219104
C374	C	0.929447	0.031559	0.030896
C375	C	1.179447	0.281559	0.280896
C376	C	1.429447	0.531559	0.530896
H377	H	0.723308	-0.224222	-0.224846
H378	H	0.973308	0.025778	0.025154
H379	H	1.223308	0.275778	0.275154
H380	H	1.473308	0.525778	0.525154
H381	H	0.668616	-0.227586	-0.176795
H382	H	0.918616	0.022414	0.073205
H383	H	1.168616	0.272414	0.323205
H384	H	1.418616	0.522414	0.573205
H385	H	0.668727	-0.176155	-0.228405
H386	H	0.918727	0.073845	0.021595
H387	H	1.168727	0.323845	0.271595
H388	H	1.418727	0.573845	0.521595
H389	H	0.836752	-1.062833	-0.376591
H390	H	1.086752	-0.812833	-0.126591
H391	H	1.336752	-0.562833	0.123409
H392	H	1.586752	-0.312833	0.373409
H393	H	0.269226	-0.376183	-0.376531
H394	H	0.519226	-0.126183	-0.126531
H395	H	0.769226	0.123817	0.123469
H396	H	1.019226	0.373817	0.373469
C397	C	0.825180	-0.387412	-1.073270
C398	C	1.075180	-0.137412	-0.823270
C399	C	1.325180	0.112588	-0.573270
C400	C	1.575180	0.362588	-0.323270
H401	H	0.830954	-0.381636	-1.117136
H402	H	1.080954	-0.131636	-0.867136
H403	H	1.330954	0.118364	-0.617136
H404	H	1.580954	0.368364	-0.367136
H405	H	0.782889	-0.378217	-1.062467
H406	H	1.032889	-0.128217	-0.812467
H407	H	1.282889	0.121783	-0.562467
H408	H	1.532889	0.371783	-0.312467
H409	H	0.834376	-0.429710	-1.062499
H410	H	1.084376	-0.179710	-0.812499
H411	H	1.334376	0.070290	-0.562499
H412	H	1.584376	0.320290	-0.312499
H413	H	0.836683	-0.375948	-0.944623
H414	H	1.086683	-0.125948	-0.694623
H415	H	1.336683	0.124052	-0.444623
H416	H	1.586683	0.374052	-0.194623
H417	H	0.982850	-0.229984	-0.543898
H418	H	1.232850	0.020016	-0.293898
H419	H	1.482850	0.270016	-0.043898
H420	H	1.732850	0.520016	0.206102
C421	C	0.140569	-0.387680	-0.388051
C422	C	0.390569	-0.137680	-0.138051
C423	C	0.640569	0.112320	0.111949
C424	C	0.890569	0.362320	0.361949
H425	H	0.169564	-0.411707	-0.411962
H426	H	0.419564	-0.161707	-0.161962
H427	H	0.669564	0.088293	0.088038
H428	H	0.919564	0.338293	0.338038
H429	H	0.114974	-0.363647	-0.415538
H430	H	0.364974	-0.113647	-0.165538
H431	H	0.614974	0.136353	0.084462
H432	H	0.864974	0.386353	0.334462
H433	H	0.114873	-0.415064	-0.363914
H434	H	0.364873	-0.165064	-0.113914
H435	H	0.614873	0.084936	0.136086
H436	H	0.864873	0.334936	0.386086
C437	C	0.825193	-0.934175	-0.388050
C438	C	1.075193	-0.684175	-0.138050
C439	C	1.325193	-0.434175	0.111950
C440	C	1.575193	-0.184175	0.361950
H441	H	0.830949	-0.890311	-0.382289
H442	H	1.080949	-0.640311	-0.132289
H443	H	1.330949	-0.390311	0.117711
H444	H	1.580949	-0.140311	0.367711
H445	H	0.782906	-0.945003	-0.378788
H446	H	1.032906	-0.695003	-0.128788
H447	H	1.282906	-0.445003	0.121212
H448	H	1.532906	-0.195003	0.371212
H449	H	0.834394	-0.944916	-0.430361
H450	H	1.084394	-0.694916	-0.180361
H451	H	1.334394	-0.444916	0.069639
H452	H	1.584394	-0.194916	0.319639
C453	C	0.278606	-0.218369	-0.219243
C454	C	0.528606	0.031631	0.030757
C455	C	0.778606	0.281631	0.280757
C456	C	1.028606	0.531631	0.530757
H457	H	0.322467	-0.224147	-0.224986
H458	H	0.572467	0.025853	0.025014
H459	H	0.822467	0.275853	0.275014
H460	H	1.072467	0.525853	0.525014
H461	H	0.267776	-0.227515	-0.176934
H462	H	0.517776	0.022485	0.073066
H463	H	0.767776	0.272485	0.323066
H464	H	1.017776	0.522485	0.573066
H465	H	0.267884	-0.176083	-0.228543
H466	H	0.517884	0.073917	0.021457
H467	H	0.767884	0.323917	0.271457
H468	H	1.017884	0.573917	0.521457
H469	H	0.836663	-0.376078	-0.543782
H470	H	1.086663	-0.126078	-0.293782
H471	H	1.336663	0.123922	-0.043782
H472	H	1.586663	0.373922	0.206218
H473	H	0.982857	-0.229842	-0.944736
H474	H	1.232857	0.020158	-0.694736
H475	H	1.482857	0.270158	-0.444736
H476	H	1.732857	0.520158	-0.194736
H477	H	0.670063	-0.376266	-0.376384
H478	H	0.920063	-0.126266	-0.126384
H479	H	1.170063	0.123734	0.123616
H480	H	1.420063	0.373734	0.373616
C481	C	0.994183	-0.533231	-0.219089
C482	C	1.244183	-0.283231	0.030911
C483	C	1.494183	-0.033231	0.280911
C484	C	1.744183	0.216769	0.530911
H485	H	0.988392	-0.489374	-0.224830
H486	H	1.238392	-0.239374	0.025170
H487	H	1.488392	0.010626	0.275170
H488	H	1.738392	0.260626	0.525170
H489	H	1.036483	-0.543943	-0.228337
H490	H	1.286483	-0.293943	0.021663
H491	H	1.536483	-0.043943	0.271663
H492	H	1.786483	0.206057	0.521663
H493	H	0.984972	-0.544048	-0.176788
H494	H	1.234972	-0.294048	0.073212
H495	H	1.484972	-0.044048	0.323212
H496	H	1.734972	0.205952	0.573212
C497	C	0.140552	-0.218330	-0.219298
C498	C	0.390552	0.031670	0.030702
C499	C	0.640552	0.281670	0.280702
C500	C	0.890552	0.531670	0.530702
H501	H	0.096692	-0.224096	-0.225067
H502	H	0.346692	0.025904	0.024933
H503	H	0.596692	0.275904	0.274933
H504	H	0.846692	0.525904	0.524933
H505	H	0.151384	-0.176054	-0.228591
H506	H	0.401384	0.073946	0.021409
H507	H	0.651384	0.323946	0.271409
H508	H	0.901384	0.573946	0.521409
H509	H	0.151266	-0.227481	-0.176977
H510	H	0.401266	0.022519	0.073023
H511	H	0.651266	0.272519	0.323023
H512	H	0.901266	0.522519	0.573023
