data_functionalizedCrystal
_audit_creation_method	'MofGen! by Chris Wilmer'
_symmetry_space_group_name_H-M	'P1'
_symmetry_Int_Tables_number	1
_symmetry_cell_setting	triclinic
loop_
_symmetry_equiv_pos_as_xyz
  x,y,z
_cell_length_a	26.809956
_cell_length_b	19.288864
_cell_length_c	19.288865
_cell_angle_alpha	83.136245
_cell_angle_beta	89.999100
_cell_angle_gamma	89.977356
loop_
_atom_site_label
_atom_site_type_symbol
_atom_site_fract_x
_atom_site_fract_y
_atom_site_fract_z
O1	O	0.041645	-0.921354	-0.086638
O2	O	0.541645	-0.421354	0.413362
O3	O	0.041612	-0.719093	-0.098327
O4	O	0.541612	-0.219093	0.401673
O5	O	0.041620	-0.826068	0.008648
O6	O	0.541620	-0.326068	0.508648
O7	O	0.041637	-0.814379	-0.193613
O8	O	0.541637	-0.314379	0.306387
O9	O	-0.041340	-0.826048	0.008632
O10	O	0.458660	-0.326048	0.508632
O11	O	-0.041347	-0.719073	-0.098343
O12	O	0.458653	-0.219073	0.401657
O13	O	-0.041314	-0.921334	-0.086654
O14	O	0.458686	-0.421334	0.413346
Zn15	Zn	-0.054502	-0.820200	-0.092501
Zn16	Zn	0.445498	-0.320200	0.407499
Zn17	Zn	0.054800	-0.820227	-0.092480
Zn18	Zn	0.554800	-0.320227	0.407520
O19	O	-0.041322	-0.814359	-0.193629
O20	O	0.458678	-0.314359	0.306371
C21	C	0.000128	-0.693207	-0.097959
C22	C	0.500128	-0.193207	0.402041
C23	C	0.000115	-0.616103	-0.096830
C24	C	0.500115	-0.116103	0.403170
N25	N	-0.129098	-0.820187	-0.092515
N26	N	0.370902	-0.320187	0.407485
C27	C	0.000138	-0.825682	0.034516
C28	C	0.500138	-0.325682	0.534516
C29	C	0.000134	-0.824553	0.111620
C30	C	0.500134	-0.324553	0.611620
C31	C	-0.473721	-0.867589	-0.045123
C32	C	0.026279	-0.367589	0.454877
C33	C	-0.682599	-0.867605	-0.045112
C34	C	-0.182599	-0.367605	0.454888
O35	O	-0.709599	-0.907880	-0.004822
O36	O	-0.209599	-0.407880	0.495178
N37	N	-0.708725	-0.820230	-0.092464
N38	N	-0.208725	-0.320230	0.407536
C39	C	-0.682630	-0.772845	-0.139819
C40	C	-0.182630	-0.272845	0.360181
O41	O	-0.709645	-0.732545	-0.180090
O42	O	-0.209645	-0.232545	0.319910
C43	C	-0.473753	-0.772826	-0.139826
C44	C	0.026247	-0.272826	0.360174
C45	C	-0.447629	-0.820209	-0.092476
C46	C	0.052371	-0.320209	0.407524
C47	C	-0.447597	-0.914967	0.002224
C48	C	0.052403	-0.414967	0.502224
C49	C	-0.395380	-0.914965	0.002219
C50	C	0.104620	-0.414965	0.502219
C51	C	-0.369288	-0.867585	-0.045134
C52	C	0.130712	-0.367585	0.454866
C53	C	-0.395412	-0.820206	-0.092481
C54	C	0.104588	-0.320206	0.407519
C55	C	-0.447658	-0.725437	-0.187177
C56	C	0.052342	-0.225437	0.312823
C57	C	-0.395435	-0.725436	-0.187173
C58	C	0.104565	-0.225436	0.312827
C59	C	-0.369311	-0.772818	-0.139823
C60	C	0.130689	-0.272818	0.360177
C61	C	-0.317104	-0.772824	-0.139840
C62	C	0.182896	-0.272824	0.360160
N63	N	-0.290977	-0.820199	-0.092488
N64	N	0.209023	-0.320199	0.407512
C65	C	-0.317069	-0.867579	-0.045135
C66	C	0.182931	-0.367579	0.454865
C67	C	-0.792293	-0.772859	-0.139813
C68	C	-0.292293	-0.272859	0.360187
C69	C	-0.844512	-0.772865	-0.139813
C70	C	-0.344512	-0.272865	0.360187
C71	C	-0.844477	-0.867625	-0.045105
C72	C	-0.344477	-0.367625	0.454895
C73	C	-0.792257	-0.867622	-0.045109
C74	C	-0.292257	-0.367622	0.454891
C75	C	-0.766166	-0.820234	-0.092461
C76	C	-0.266166	-0.320234	0.407539
C77	C	-0.207411	-0.867572	-0.045151
C78	C	0.292589	-0.367572	0.454849
C79	C	-0.155190	-0.867567	-0.045163
C80	C	0.344810	-0.367567	0.454837
C81	C	-0.155230	-0.772806	-0.139868
C82	C	0.344770	-0.272806	0.360132
C83	C	-0.207446	-0.772812	-0.139859
C84	C	0.292554	-0.272812	0.360141
C85	C	-0.233535	-0.820198	-0.092495
C86	C	0.266465	-0.320198	0.407505
O87	O	-0.290071	-0.732565	-0.180104
O88	O	0.209929	-0.232565	0.319896
O89	O	-0.290045	-0.907863	-0.004860
O90	O	0.209955	-0.407863	0.495140
C91	C	-0.525937	-0.867591	-0.045117
C92	C	-0.025937	-0.367591	0.454883
C93	C	-0.552061	-0.820213	-0.092464
C94	C	-0.052061	-0.320213	0.407536
C95	C	-0.525969	-0.772832	-0.139817
C96	C	-0.025969	-0.272832	0.360183
C97	C	-0.604280	-0.820218	-0.092464
C98	C	-0.104280	-0.320218	0.407536
C99	C	-0.630372	-0.867599	-0.045111
C100	C	-0.130372	-0.367599	0.454889
C101	C	-0.604246	-0.914974	0.002241
C102	C	-0.104246	-0.414974	0.502241
C103	C	-0.552029	-0.914972	0.002235
C104	C	-0.052029	-0.414972	0.502235
C105	C	-0.552096	-0.725457	-0.187169
C106	C	-0.052096	-0.225457	0.312831
C107	C	-0.604312	-0.725464	-0.187160
C108	C	-0.104312	-0.225464	0.312840
C109	C	-0.630404	-0.772844	-0.139807
C110	C	-0.130404	-0.272844	0.360193
N111	N	0.129396	-0.820245	-0.092460
N112	N	0.629396	-0.320245	0.407540
C113	C	0.000171	-0.947220	-0.087022
C114	C	0.500171	-0.447220	0.412978
C115	C	0.000188	-1.024324	-0.088151
C116	C	0.500188	-0.524324	0.411849
C117	C	0.000128	-0.571407	-0.159598
C118	C	0.500128	-0.071407	0.340402
C119	C	0.000133	-0.498960	-0.158537
C120	C	0.500133	0.001040	0.341463
C121	C	0.000136	-0.471212	-0.094705
C122	C	0.500136	0.028788	0.405295
C123	C	0.000119	-0.515918	-0.031929
C124	C	0.500119	-0.015918	0.468071
C125	C	0.000109	-0.588364	-0.032991
C126	C	0.500109	-0.088364	0.467009
C127	C	0.029212	-0.362957	-0.044520
C128	C	0.529212	0.137043	0.455480
C129	C	0.029226	-0.290513	-0.043460
C130	C	0.529226	0.209487	0.456540
C131	C	0.000165	-0.247767	-0.091425
C132	C	0.500165	0.252233	0.408575
C133	C	-0.028902	-0.277472	-0.140462
C134	C	0.471098	0.222528	0.359538
C135	C	-0.028912	-0.349918	-0.141524
C136	C	0.471088	0.150082	0.358476
C137	C	0.000147	-0.392658	-0.093546
C138	C	0.500147	0.107342	0.406454
C139	C	0.000184	-0.124514	-0.153047
C140	C	0.500184	0.375486	0.346953
C141	C	0.000186	-0.052066	-0.151984
C142	C	0.500186	0.447934	0.348016
C143	C	0.000177	-0.069026	-0.025374
C144	C	0.500177	0.430974	0.474626
C145	C	0.000170	-0.141473	-0.026439
C146	C	0.500170	0.358527	0.473561
C147	C	0.000176	-0.169212	-0.090277
C148	C	0.500176	0.330788	0.409723
C149	C	0.000160	-0.814745	-0.219497
C150	C	0.500160	-0.314745	0.280503
C151	C	0.000168	-0.815874	-0.296601
C152	C	0.500168	-0.315874	0.203399
C153	C	0.000142	-0.887321	0.156316
C154	C	0.500142	-0.387321	0.656316
C155	C	0.000150	-0.886260	0.228763
C156	C	0.500150	-0.386260	0.728763
C157	C	0.000139	-0.822428	0.256511
C158	C	0.500139	-0.322428	0.756511
C159	C	0.000134	-0.759652	0.211805
C160	C	0.500134	-0.259652	0.711805
C161	C	0.000132	-0.760714	0.139359
C162	C	0.500132	-0.260714	0.639359
C163	C	-0.028928	-0.772241	0.364793
C164	C	0.471072	-0.272241	0.864793
C165	C	-0.028928	-0.771181	0.437237
C166	C	0.471072	-0.271181	0.937237
C167	C	0.000150	-0.819148	0.479956
C168	C	0.500150	-0.319148	0.979956
C169	C	0.029222	-0.868187	0.450224
C170	C	0.529222	-0.368187	0.950224
C171	C	0.029219	-0.869249	0.377779
C172	C	0.529219	-0.369249	0.877779
C173	C	0.000143	-0.821269	0.335065
C174	C	0.500143	-0.321269	0.835065
C175	C	0.000167	-0.880770	0.603209
C176	C	0.500167	-0.380770	1.103209
C177	C	0.000178	-0.879707	0.675657
C178	C	0.500178	-0.379707	1.175657
C179	C	0.000157	-0.753097	0.658697
C180	C	0.500157	-0.253097	1.158697
C181	C	0.000152	-0.754162	0.586250
C182	C	0.500152	-0.254162	1.086250
C183	C	0.000154	-0.818001	0.558511
C184	C	0.500154	-0.318001	1.058511
H185	H	-0.133922	-0.906155	-0.006604
H186	H	0.366078	-0.406155	0.493396
Br187	Br	0.000200	0.008596	-0.237177
Br188	Br	0.500200	0.508596	0.262823
Br189	Br	-0.242899	-0.708514	-0.204131
Br190	Br	0.257101	-0.208514	0.295869
Br191	Br	-0.242810	-0.931882	0.019130
Br192	Br	0.257190	-0.431882	0.519130
H193	H	-0.468921	-0.686854	-0.225734
H194	H	0.031079	-0.186854	0.274266
Br195	Br	0.000159	-0.973958	0.118673
Br196	Br	0.500159	-0.473958	0.618673
Br197	Br	0.068688	-0.933290	0.508191
Br198	Br	0.568688	-0.433290	1.008191
H199	H	-0.052581	-0.374101	-0.181450
H200	H	0.447419	0.125899	0.318550
Br201	Br	-0.756809	-0.931929	0.019154
Br202	Br	-0.256809	-0.431929	0.519154
H203	H	-0.052566	-0.242669	-0.179519
H204	H	0.447434	0.257331	0.320481
H205	H	-0.052597	-0.731248	0.461439
H206	H	0.447403	-0.231248	0.961439
H207	H	0.052896	-0.266332	-0.003534
H208	H	0.552896	0.233668	0.496466
Br209	Br	0.000188	-0.162165	-0.239683
Br210	Br	0.500188	0.337835	0.260317
H211	H	0.000210	-0.046435	0.026600
H212	H	0.500210	0.453565	0.526600
H213	H	0.000162	-0.177866	0.024674
H214	H	0.500162	0.322134	0.524674
H215	H	-0.133977	-0.734231	-0.178424
H216	H	0.366023	-0.234231	0.321576
Br217	Br	-0.359932	-0.979269	0.066485
Br218	Br	0.140068	-0.479269	0.566485
Br219	Br	0.000149	-0.666466	0.696346
Br220	Br	0.500149	-0.166466	1.196346
H221	H	0.052880	-0.397756	-0.005459
H222	H	0.552880	0.102244	0.494541
Br223	Br	0.000162	-0.971451	0.289435
Br224	Br	0.500162	-0.471451	0.789435
Br225	Br	-0.639667	-0.979279	0.066502
Br226	Br	-0.139667	-0.479279	0.566502
Br227	Br	-0.068395	-0.707137	0.306823
Br228	Br	0.431605	-0.207137	0.806823
H229	H	-0.374194	-0.686845	-0.225733
H230	H	0.125806	-0.186845	0.274267
H231	H	0.000128	-0.493322	0.020044
H232	H	0.500128	0.006678	0.520044
Br233	Br	0.000090	-0.649028	0.052201
Br234	Br	0.500090	-0.149028	0.552201
Br235	Br	-0.516692	-0.661149	-0.251439
Br236	Br	-0.016692	-0.161149	0.248561
H237	H	-0.530763	-0.953555	0.040793
H238	H	-0.030763	-0.453555	0.540793
Br239	Br	-0.482999	-0.979277	0.066498
Br240	Br	0.017001	-0.479277	0.566498
H241	H	-0.865730	-0.906205	-0.006549
H242	H	-0.365730	-0.406205	0.493451
H243	H	0.000125	-0.709599	0.102967
H244	H	0.500125	-0.209599	0.602967
H245	H	0.000134	-0.593987	-0.211580
H246	H	0.500134	-0.093987	0.288420
Br247	Br	-0.639761	-0.661157	-0.251431
Br248	Br	-0.139761	-0.161157	0.248569
H249	H	0.052892	-0.909176	0.353574
H250	H	0.552892	-0.409176	0.853574
Br251	Br	-0.879960	-0.708569	-0.204087
Br252	Br	-0.379960	-0.208569	0.295913
H253	H	0.000143	-0.462561	-0.209652
H254	H	0.500143	0.037439	0.290348
Br255	Br	0.000165	-0.967406	0.565558
Br256	Br	0.500165	-0.467406	1.065558
Br257	Br	0.000140	-0.668972	0.525587
Br258	Br	0.500140	-0.168972	1.025587
H259	H	-0.771053	-0.734270	-0.178375
H260	H	-0.271053	-0.234270	0.321625
Br261	Br	0.000127	-0.673021	0.249460
Br262	Br	0.500127	-0.173021	0.749460
H263	H	0.000187	-0.930822	0.712049
H264	H	0.500187	-0.430822	1.212049
