data_functionalizedCrystal
_audit_creation_method	'MofGen! by Chris Wilmer'
_symmetry_space_group_name_H-M	'P1'
_symmetry_Int_Tables_number	1
_symmetry_cell_setting	triclinic
loop_
_symmetry_equiv_pos_as_xyz
  x,y,z
_cell_length_a	10.654562
_cell_length_b	14.853567
_cell_length_c	9.130313
_cell_angle_alpha	89.996061
_cell_angle_beta	90.005872
_cell_angle_gamma	84.062517
loop_
_atom_site_label
_atom_site_type_symbol
_atom_site_fract_x
_atom_site_fract_y
_atom_site_fract_z
O1	O	1.666514	0.126674	0.121882
O2	O	1.300913	0.138726	0.121863
O3	O	1.493479	0.001523	0.121877
O4	O	1.473948	0.263877	0.121867
O5	O	1.493466	0.001531	-0.121722
O6	O	1.300899	0.138735	-0.121736
O7	O	1.666501	0.126682	-0.121717
Cu8	Cu	1.483699	0.132709	-0.143969
Cu9	Cu	1.483715	0.132700	0.144115
O10	O	1.473934	0.263886	-0.121731
C11	C	1.254117	0.137843	0.000061
C12	C	1.114703	0.135188	0.000054
C13	C	1.049177	0.133955	-0.132720
C14	C	0.918181	0.131467	-0.132696
C15	C	0.918246	0.131452	0.132889
C16	C	1.049241	0.133932	0.132863
C17	C	1.114639	0.135211	-0.265529
C18	C	1.049114	0.133978	-0.398314
C19	C	0.918117	0.131490	-0.398290
C20	C	0.852646	0.130236	-0.265480
C21	C	1.492588	-0.032066	0.000082
C22	C	1.489936	-0.132164	0.000095
C23	C	1.364336	-0.545375	0.000060
C24	C	1.593110	-0.565423	0.000072
C25	C	1.595603	-0.471376	0.000081
C26	C	1.482462	-0.414324	0.000077
C27	C	1.366826	-0.451318	0.000064
C28	C	1.711237	-0.434374	0.000079
C29	C	1.713735	-0.340322	0.000086
C30	C	1.600592	-0.283267	0.000093
C31	C	1.484952	-0.320268	0.000082
C32	C	1.371810	-0.263215	0.000078
C33	C	1.256169	-0.300213	0.000077
C34	C	1.253683	-0.394264	0.000071
C35	C	1.603077	-0.189217	0.000099
C36	C	1.374300	-0.169159	0.000082
C37	C	1.713296	0.127566	0.000088
C38	C	1.852711	0.130220	0.000105
C39	C	1.474826	0.297475	0.000067
C40	C	1.477478	0.397573	0.000064
N41	N	1.483697	0.132715	-0.346592
C42	C	1.559953	0.187902	-0.423256
C43	C	1.559971	0.187885	-0.576592
C44	C	1.407468	0.077494	-0.576588
C45	C	1.407457	0.077506	-0.423254
C46	C	1.636193	0.243111	-0.346593
C47	C	1.712454	0.298303	-0.423257
C48	C	1.712472	0.298286	-0.576594
C49	C	1.636230	0.243078	-0.653267
N50	N	1.483726	0.132686	0.346738
H51	H	1.221302	0.137239	-0.265564
Cl52	Cl	1.808307	0.367694	-0.326872
Cl53	Cl	0.835747	0.129934	-0.565216
Cl54	Cl	1.808351	0.367661	-0.672968
H55	H	1.803350	-0.480833	0.000069
Cl56	Cl	0.835939	0.129869	0.299837
H57	H	1.102430	0.134992	-0.506443
H58	H	1.636263	0.243060	-0.778124
H59	H	1.102592	0.134941	0.240980
H60	H	0.745981	0.128209	-0.265471
H61	H	1.282165	-0.122712	0.000085
Cl62	Cl	1.311621	0.008099	-0.672978
Cl63	Cl	1.311617	0.008109	-0.326869
Cl64	Cl	1.113940	-0.228480	0.000059
H65	H	1.159534	-0.424397	0.000069
H66	H	1.270184	-0.575503	0.000065
H67	H	1.807897	-0.310206	0.000089
Cl68	Cl	1.735337	-0.637146	0.000053
H69	H	1.636183	0.243133	-0.221739
Cl70	Cl	1.748442	-0.142708	0.000072
