data_functionalizedCrystal
_audit_creation_method	'MofGen! by Chris Wilmer'
_symmetry_space_group_name_H-M	'P1'
_symmetry_Int_Tables_number	1
_symmetry_cell_setting	triclinic
loop_
_symmetry_equiv_pos_as_xyz
  x,y,z
_cell_length_a	13.339070
_cell_length_b	11.804365
_cell_length_c	10.654550
_cell_angle_alpha	78.051847
_cell_angle_beta	100.057099
_cell_angle_gamma	105.124870
loop_
_atom_site_label
_atom_site_type_symbol
_atom_site_fract_x
_atom_site_fract_y
_atom_site_fract_z
O1	O	1.367026	0.099059	0.612836
O2	O	1.071917	0.099054	0.529998
O3	O	1.226256	0.099052	0.390970
O4	O	1.212687	0.099061	0.751864
O5	O	1.185624	-0.099003	0.427519
O6	O	1.031285	-0.099002	0.566548
O7	O	1.326394	-0.098996	0.649385
Cu8	Cu	1.175130	-0.117083	0.611304
Cu9	Cu	1.223182	0.117141	0.568080
O10	O	1.172055	-0.098995	0.788414
C11	C	1.013813	0.000025	0.534280
C12	C	0.901218	0.000023	0.492571
N13	N	1.141340	-0.281823	0.641707
C14	C	0.538706	0.000050	0.816880
C15	C	0.644495	0.000055	0.856072
C16	C	0.708681	0.000047	0.765200
C17	C	0.667068	0.000033	0.635130
C18	C	0.561271	0.000037	0.595933
C19	C	0.731245	0.000034	0.544252
C20	C	0.689632	0.000021	0.414182
C21	C	0.583845	0.000024	0.374992
C22	C	0.519659	0.000032	0.465864
C23	C	0.837043	0.000031	0.583449
C24	C	0.859607	0.000018	0.362502
C25	C	0.753818	0.000012	0.323310
C26	C	1.338121	-0.655774	0.464635
C27	C	1.363681	-0.531113	0.441629
C28	C	1.308098	-0.468784	0.491647
C29	C	1.226950	-0.531129	0.564674
C30	C	1.201392	-0.655803	0.587691
C31	C	1.171369	-0.468813	0.614702
C32	C	1.090221	-0.531158	0.687730
C33	C	1.064667	-0.655820	0.710742
C34	C	1.120251	-0.718148	0.660725
C35	C	1.196927	-0.344140	0.591686
C36	C	1.060199	-0.344169	0.714741
C37	C	1.034638	-0.468830	0.737747
C38	C	1.384498	0.000035	0.645103
C39	C	1.497095	0.000045	0.686811
C40	C	1.204944	0.000026	0.362110
C41	C	1.201964	0.000030	0.221659
N42	N	1.256979	0.281881	0.537669
C43	C	1.292836	0.000028	0.172857
C44	C	1.290030	0.000036	0.040887
C45	C	1.105471	0.000043	0.006532
C46	C	1.108280	0.000044	0.138498
C47	C	1.399388	0.000019	0.192692
C48	C	1.396583	0.000027	0.060722
C49	C	1.193368	0.000034	0.817273
C50	C	1.196350	0.000038	0.957723
H51	H	0.870912	0.000037	0.689354
H52	H	1.099437	-0.819658	0.679451
F53	F	1.001042	-0.277839	0.767982
H54	H	0.678371	0.000076	0.961973
H55	H	1.029197	0.000055	-0.061194
H56	H	1.415775	-0.085497	0.255557
F57	F	0.821271	0.000051	0.806915
H58	H	1.458069	0.082900	0.220828
H59	H	0.486440	0.000067	0.890852
H60	H	1.328913	-0.367279	0.472912
H61	H	1.429752	-0.480356	0.382173
F62	F	1.461602	0.111799	-0.005358
H63	H	0.433516	0.000027	0.433960
H64	H	0.998600	-0.706582	0.770217
H65	H	0.968565	-0.519607	0.797209
H66	H	1.419727	-0.082856	0.047814
H67	H	1.383375	-0.706530	0.423926
F68	F	0.539567	0.000043	0.236553
H69	H	1.034286	0.000062	0.178223
H70	H	0.719923	0.000011	0.217403
H71	H	0.911868	0.000016	0.288505
F72	F	1.283287	-0.277801	0.513967
