data_functionalizedCrystal
_audit_creation_method	'MofGen! by Chris Wilmer'
_symmetry_space_group_name_H-M	'P1'
_symmetry_Int_Tables_number	1
_symmetry_cell_setting	triclinic
loop_
_symmetry_equiv_pos_as_xyz
  x,y,z
_cell_length_a	10.654550
_cell_length_b	10.489741
_cell_length_c	9.130313
_cell_angle_alpha	89.999004
_cell_angle_beta	89.996220
_cell_angle_gamma	84.512038
loop_
_atom_site_label
_atom_site_type_symbol
_atom_site_fract_x
_atom_site_fract_y
_atom_site_fract_z
O1	O	1.667918	0.179156	-0.121919
O2	O	1.302447	0.196226	-0.121895
O3	O	1.493499	0.002089	-0.121899
O4	O	1.476867	0.373293	-0.121915
O5	O	1.493497	0.002094	0.121700
O6	O	1.302445	0.196231	0.121703
O7	O	1.667916	0.179161	0.121680
Cu8	Cu	1.485180	0.187697	0.143934
Cu9	Cu	1.485183	0.187690	-0.144150
O10	O	1.476864	0.373298	0.121683
C11	C	1.255648	0.194975	-0.000093
C12	C	1.116203	0.191225	-0.000084
C13	C	1.036771	0.305530	-0.000110
C14	C	0.905748	0.301999	-0.000135
C15	C	0.933603	0.069849	-0.000114
C16	C	1.064623	0.073381	-0.000078
C17	C	1.020688	0.439560	-0.000129
C18	C	0.889665	0.436029	-0.000154
C19	C	1.492241	-0.045439	-0.000100
C20	C	1.488483	-0.187067	-0.000103
C21	C	1.366923	-0.255148	-0.000106
C22	C	1.424346	-0.347296	0.119997
C23	C	1.424377	-0.347276	-0.120172
C24	C	1.545956	-0.277349	0.120099
C25	C	1.545970	-0.277320	-0.120178
C26	C	1.603481	-0.369440	-0.000045
C27	C	1.714715	0.180412	-0.000126
C28	C	1.854160	0.184162	-0.000145
C29	C	1.478122	0.420826	-0.000118
C30	C	1.481880	0.562454	-0.000126
N31	N	1.485187	0.187700	0.346557
N32	N	1.485186	0.187677	-0.346772
C33	C	1.569807	0.101766	0.423207
C34	C	1.569803	0.101751	0.576544
C35	C	1.400557	0.273615	0.576567
C36	C	1.400555	0.273623	0.423232
C37	C	1.667524	0.002545	0.423195
C38	C	1.667520	0.002530	0.576532
H39	H	0.847957	0.486527	-0.102110
C40	C	1.233589	-0.189046	-0.000171
C41	C	1.169585	-0.226056	-0.124753
C42	C	1.046755	-0.165204	-0.124846
H43	H	1.236727	-0.098856	-0.001116
H44	H	1.190535	-0.212875	0.085219
H45	H	1.212628	-0.202219	-0.210121
H46	H	1.166412	-0.316236	-0.123834
H47	H	1.003701	-0.189032	-0.039456
H48	H	1.049906	-0.075016	-0.125787
H49	H	1.003309	-0.190315	-0.209365
C50	C	0.877356	-0.057964	-0.000192
C51	C	0.745612	-0.036596	-0.000260
C52	C	0.693758	-0.154309	-0.000355
H53	H	0.904391	-0.105174	0.084741
H54	H	0.904498	-0.105093	-0.085167
H55	H	0.718480	0.010513	0.084706
H56	H	0.718541	0.010594	-0.085187
H57	H	0.720901	-0.201437	-0.085330
H58	H	0.720803	-0.201510	0.084580
H59	H	0.604366	-0.139827	-0.000415
C60	C	1.059599	0.509433	0.135930
C61	C	0.952414	0.548645	0.219122
C62	C	0.988212	0.612996	0.344475
H63	H	1.100384	0.582289	0.107813
H64	H	1.115793	0.453616	0.192666
H65	H	0.896241	0.604460	0.162397
H66	H	0.911615	0.475815	0.247276
H67	H	1.044406	0.557179	0.401210
H68	H	1.028998	0.685846	0.316344
H69	H	0.915495	0.639599	0.400942
C70	C	1.789107	0.043795	0.359524
C71	C	1.847251	-0.055223	0.273225
C72	C	1.959231	-0.017240	0.214517
H73	H	1.844122	0.062476	0.436836
H74	H	1.770604	0.118044	0.300899
H75	H	1.865758	-0.129449	0.331847
H76	H	1.792272	-0.073916	0.195890
H77	H	1.940728	0.057009	0.155892
H78	H	2.014235	0.001441	0.291839
H79	H	1.998690	-0.084412	0.155946
C80	C	1.355625	-0.388782	0.255216
C81	C	1.251136	-0.451135	0.212266
C82	C	1.187803	-0.489378	0.336781
H83	H	1.328139	-0.315667	0.312261
H84	H	1.411032	-0.445567	0.311761
H85	H	1.195739	-0.394354	0.155744
H86	H	1.278587	-0.524265	0.155238
H87	H	1.243209	-0.546163	0.393327
H88	H	1.160324	-0.416256	0.393818
H89	H	1.116906	-0.531699	0.307657
C90	C	1.796097	0.031853	0.632227
C91	C	1.782643	0.143314	0.717405
C92	C	1.901052	0.170356	0.768749
H93	H	1.849821	0.044102	0.551436
H94	H	1.831814	-0.037660	0.690096
H95	H	1.746944	0.212811	0.659539
H96	H	1.728941	0.131094	0.798218
H97	H	1.936770	0.100843	0.826617
H98	H	1.954767	0.182599	0.687949
H99	H	1.891939	0.245977	0.826558
H100	H	1.056364	0.482235	-0.105303
C101	C	1.614333	-0.236441	0.255825
C102	C	1.550885	-0.272745	0.381145
C103	C	1.613841	-0.235094	0.506200
H104	H	1.616301	-0.146101	0.255235
H105	H	1.698112	-0.276638	0.256247
H106	H	1.467128	-0.232544	0.380723
H107	H	1.548916	-0.363079	0.381784
H108	H	1.697620	-0.275291	0.506622
H109	H	1.615805	-0.144755	0.505595
H110	H	1.570808	-0.259731	0.591244
C111	C	1.736967	-0.435161	0.000120
C112	C	1.823176	-0.342456	0.001410
C113	C	1.946154	-0.402943	0.001598
H114	H	1.749771	-0.486590	-0.085192
H115	H	1.749110	-0.487637	0.084710
H116	H	1.811039	-0.290002	-0.083171
H117	H	1.810412	-0.291022	0.086716
H118	H	1.958297	-0.455420	0.086187
H119	H	1.958946	-0.454370	-0.083716
H120	H	2.004662	-0.340053	0.002486
H121	H	1.129293	-0.019697	-0.000036
C122	C	1.355991	-0.388506	-0.255743
C123	C	1.418704	-0.351363	-0.381215
C124	C	1.355746	-0.389332	-0.506120
H125	H	1.271954	-0.349026	-0.255792
H126	H	1.354802	-0.478952	-0.255320
H127	H	1.419880	-0.260934	-0.381638
H128	H	1.502737	-0.390840	-0.381214
H129	H	1.354556	-0.479778	-0.505698
H130	H	1.271711	-0.349848	-0.506155
H131	H	1.398293	-0.364146	-0.591268
H132	H	1.646035	-0.095500	0.381581
C133	C	1.308475	0.366752	0.659743
C134	C	1.184882	0.344872	0.622476
C135	C	1.100021	0.430634	0.699081
H136	H	1.322703	0.452074	0.634688
H137	H	1.320507	0.354430	0.762056
H138	H	1.172855	0.357205	0.520186
H139	H	1.170614	0.259567	0.647535
H140	H	1.112054	0.418312	0.801393
H141	H	1.114261	0.515951	0.674019
H142	H	1.016155	0.415793	0.673816
H143	H	0.844012	0.476537	0.105012
H144	H	1.597363	-0.246302	-0.221728
H145	H	1.331641	0.343586	0.360825
H146	H	1.636964	-0.090122	0.624085
