data_functionalizedCrystal
_audit_creation_method	'MofGen! by Chris Wilmer'
_symmetry_space_group_name_H-M	'P1'
_symmetry_Int_Tables_number	1
_symmetry_cell_setting	triclinic
loop_
_symmetry_equiv_pos_as_xyz
  x,y,z
_cell_length_a	19.121274
_cell_length_b	12.759399
_cell_length_c	12.759393
_cell_angle_alpha	90.027929
_cell_angle_beta	87.582884
_cell_angle_gamma	87.573446
loop_
_atom_site_label
_atom_site_type_symbol
_atom_site_fract_x
_atom_site_fract_y
_atom_site_fract_z
Zn1	Zn	-1.073757	0.486765	-0.525594
Zn2	Zn	-1.073687	0.662480	-0.349929
Zn3	Zn	-0.956306	0.479321	-0.357416
Zn4	Zn	-0.956299	0.654903	-0.533050
O5	O	-1.015012	0.570867	-0.441497
O6	O	-1.172029	0.516361	-0.496037
O7	O	-1.058090	0.638239	-0.203903
O8	O	-0.971918	0.333289	-0.379738
O9	O	-1.171978	0.645458	-0.366978
O10	O	-1.058209	0.338759	-0.503297
O11	O	-0.971851	0.503672	-0.209404
O12	O	-0.858024	0.496325	-0.386969
O13	O	-0.971907	0.632544	-0.679081
O14	O	-0.858019	0.625325	-0.516006
O15	O	-1.058202	0.509014	-0.673602
O16	O	-1.058084	0.808494	-0.374208
O17	O	-0.971839	0.802927	-0.508746
C18	C	-0.832538	0.559196	-0.453110
C19	C	-0.754475	0.554228	-0.458102
C20	C	-0.717771	0.618999	-0.393153
C21	C	-0.644422	0.614331	-0.397858
C22	C	-0.607779	0.544887	-0.467508
C23	C	-0.644488	0.480114	-0.532464
C24	C	-0.717835	0.484787	-0.527763
C25	C	-0.386319	0.527424	-0.485071
C26	C	-0.312966	0.522753	-0.489765
C27	C	-0.312906	0.656972	-0.355160
C28	C	-0.386255	0.661635	-0.350462
C29	C	-0.422957	0.596866	-0.415421
C30	C	-0.532805	0.540112	-0.472316
C31	C	-0.497930	0.601647	-0.410617
C32	C	-1.014972	0.843832	-0.441496
C33	C	-1.015019	0.960612	-0.441526
C34	C	-0.198199	0.582571	-0.429826
C35	C	-0.276262	0.587523	-0.424816
C36	C	-1.059979	1.018341	-0.371549
C37	C	-1.060025	1.128068	-0.371589
C38	C	-0.970146	1.122326	-0.511587
C39	C	-0.970104	1.012602	-0.511551
C40	C	-1.142924	1.283240	-0.328927
C41	C	-1.187878	1.340973	-0.258934
C42	C	-1.198683	1.306124	-0.155733
C43	C	-1.164525	1.213545	-0.122504
C44	C	-1.119567	1.155818	-0.192492
C45	C	-1.108775	1.190666	-0.295707
C46	C	-0.887203	0.857427	-0.554202
C47	C	-0.842241	0.799698	-0.624185
C48	C	-0.831428	0.834543	-0.727389
C49	C	-0.865574	0.927125	-0.760615
C50	C	-0.910536	0.984855	-0.690631
C51	C	-0.921350	0.950002	-0.587428
C52	C	-1.015061	0.570764	-0.715528
C53	C	-1.015082	0.570720	-0.832303
C54	C	-1.015075	1.296838	-0.441539
C55	C	-1.015108	1.180063	-0.441602
C56	C	-0.970193	0.500640	-0.890028
C57	C	-0.970210	0.500609	-0.999751
C58	C	-1.060010	0.640741	-0.994015
C59	C	-1.059990	0.640776	-0.884294
C60	C	-0.887418	0.457722	-1.154977
C61	C	-0.842535	0.387626	-1.212705
C62	C	-0.831769	0.284435	-1.177795
C63	C	-0.865896	0.251319	-1.085158
C64	C	-0.910784	0.321410	-1.027435
C65	C	-0.921537	0.424615	-1.062344
C66	C	-1.142783	0.683652	-0.729066
C67	C	-1.187675	0.753739	-0.671341
C68	C	-1.198448	0.856932	-0.706249
C69	C	-1.164333	0.890045	-0.798888
C70	C	-1.119441	0.819958	-0.856613
C71	C	-1.108667	0.716766	-0.821698
C72	C	-1.015004	0.570897	-0.168531
C73	C	-1.015119	0.570653	-0.051747
H74	H	-0.614541	0.667074	-0.344970
F75	F	-0.805880	0.701182	-0.588809
H76	H	-1.091665	0.846927	-0.932047
F77	F	-0.922346	1.177667	-0.586106
H78	H	-0.502961	0.483569	-0.529023
F79	F	-0.784002	0.209835	-1.239238
F80	F	-1.131437	1.320327	-0.438772
H81	H	-0.747601	0.675544	-0.336433
F82	F	-0.273969	0.448833	-0.563894
F83	F	-0.425371	0.458490	-0.554209
H84	H	-0.416085	0.718183	-0.293744
H85	H	-1.133995	0.599633	-0.700615
H86	H	-0.938342	1.060237	-0.717694
F87	F	-0.854067	0.964215	-0.870457
H88	H	-0.283015	0.709705	-0.302275
F89	F	-0.605487	0.406213	-0.606597
F90	F	-0.756898	0.415852	-0.596893
F91	F	-1.107782	0.963012	-0.297024
F92	F	-0.783540	0.773132	-0.801851
H93	H	-0.527768	0.658193	-0.353914
H94	H	-1.091757	1.080441	-0.165438
H95	H	-0.896009	0.829041	-0.470167
F96	F	-0.806216	0.422874	-1.311292
H97	H	-1.235010	0.913993	-0.659244
F98	F	-0.922397	0.426083	-0.834699
F99	F	-0.947104	0.286172	-0.928851
H100	H	-0.857133	0.167286	-1.056748
F101	F	-0.898861	0.567557	-1.192128
H102	H	-1.173321	1.185185	-0.038463
H103	H	-1.096572	0.697777	-1.036359
F104	F	-1.175802	0.999874	-0.836047
F105	F	-1.224230	1.439499	-0.294302
F106	F	-1.223986	0.718492	-0.572748
H107	H	-1.235286	1.353138	-0.098744
