data_functionalizedCrystal
_audit_creation_method	'MofGen! by Chris Wilmer'
_symmetry_space_group_name_H-M	'P1'
_symmetry_Int_Tables_number	1
_symmetry_cell_setting	triclinic
loop_
_symmetry_equiv_pos_as_xyz
  x,y,z
_cell_length_a	19.288864
_cell_length_b	17.019294
_cell_length_c	17.766277
_cell_angle_alpha	86.114664
_cell_angle_beta	89.976791
_cell_angle_gamma	83.264601
loop_
_atom_site_label
_atom_site_type_symbol
_atom_site_fract_x
_atom_site_fract_y
_atom_site_fract_z
O1	O	0.921527	0.098406	-0.069213
O2	O	1.254861	0.431740	0.264120
O3	O	1.588194	0.765073	0.597454
O4	O	0.719290	0.111681	-0.070022
O5	O	1.052623	0.445015	0.263312
O6	O	1.385957	0.778348	0.596645
O7	O	0.826050	-0.009809	-0.062171
O8	O	1.159383	0.323524	0.271163
O9	O	1.492716	0.656857	0.604496
O10	O	0.814768	0.219897	-0.077064
O11	O	1.148101	0.553230	0.256270
O12	O	1.481434	0.886563	0.589603
O13	O	0.826031	-0.009815	0.063018
O14	O	1.159364	0.323518	0.396352
O15	O	1.492698	0.656851	0.729685
O16	O	0.719271	0.111675	0.055167
O17	O	1.052605	0.445008	0.388501
O18	O	1.385938	0.778342	0.721834
O19	O	0.921508	0.098400	0.055976
O20	O	1.254842	0.431734	0.389309
O21	O	1.588175	0.765067	0.722643
Cu22	Cu	0.820388	0.105037	0.067002
Cu23	Cu	1.153722	0.438370	0.400336
Cu24	Cu	1.487055	0.771704	0.733669
Cu25	Cu	0.820410	0.105044	-0.081048
Cu26	Cu	1.153744	0.438378	0.252285
Cu27	Cu	1.487077	0.771711	0.585619
O28	O	0.814749	0.219891	0.048125
O29	O	1.148082	0.553224	0.381458
O30	O	1.481415	0.886557	0.714792
C31	C	0.693403	0.111251	-0.007393
C32	C	1.026737	0.444584	0.325940
C33	C	1.360070	0.777918	0.659274
C34	C	0.616298	0.109969	-0.007290
C35	C	0.949631	0.443302	0.326043
C36	C	1.282964	0.776635	0.659377
C37	C	0.825612	-0.039200	0.002328
C38	C	1.158946	0.294133	0.335661
C39	C	1.492279	0.627467	0.668995
C40	C	0.824328	-0.126766	0.008002
C41	C	1.157662	0.206567	0.341335
C42	C	1.490995	0.539901	0.674669
C43	C	0.571728	0.181254	-0.011924
C44	C	0.905061	0.514587	0.321410
C45	C	1.238394	0.847921	0.654743
C46	C	0.499278	0.180049	-0.011854
C47	C	0.832612	0.513383	0.321479
C48	C	1.165945	0.846716	0.654813
C49	C	0.471402	0.107555	-0.007165
C50	C	0.804736	0.440889	0.326168
C51	C	1.138069	0.774222	0.659501
C52	C	0.515982	0.036261	-0.002527
C53	C	0.849316	0.369594	0.330806
C54	C	1.182649	0.702928	0.664140
C55	C	0.588430	0.037468	-0.002589
C56	C	0.921763	0.370801	0.330744
C57	C	1.255097	0.704134	0.664077
C58	C	0.363046	0.050570	-0.047355
C59	C	0.696380	0.383903	0.285978
C60	C	1.029713	0.717236	0.619312
C61	C	0.290600	0.049366	-0.047297
C62	C	0.623933	0.382699	0.286036
C63	C	0.957266	0.716033	0.619369
C64	C	0.247950	0.103831	-0.006969
C65	C	0.581284	0.437164	0.326364
C66	C	0.914617	0.770497	0.659697
C67	C	0.277755	0.159513	0.033291
C68	C	0.611088	0.492846	0.366624
C69	C	0.944422	0.826180	0.699957
C70	C	0.350203	0.160720	0.033228
C71	C	0.683536	0.494053	0.366562
C72	C	1.016869	0.827386	0.699895
C73	C	0.392846	0.106239	-0.007097
C74	C	0.726179	0.439572	0.326237
C75	C	1.059513	0.772906	0.659570
C76	C	0.124822	0.173815	-0.011527
C77	C	0.458155	0.507148	0.321807
C78	C	0.791489	0.840481	0.655140
C79	C	0.052372	0.172607	-0.011452
C80	C	0.385705	0.505940	0.321881
C81	C	0.719038	0.839274	0.655215
C82	C	0.069077	0.028817	-0.002132
C83	C	0.402411	0.362150	0.331201
C84	C	0.735744	0.695483	0.664534
C85	C	0.141526	0.030026	-0.002200
C86	C	0.474859	0.363360	0.331134
C87	C	0.808193	0.696693	0.664467
C88	C	0.169394	0.102528	-0.006900
C89	C	0.502727	0.435861	0.326433
C90	C	0.836060	0.769194	0.659766
C91	C	0.823737	-0.167897	-0.057572
C92	C	1.157070	0.165436	0.275761
C93	C	1.490404	0.498770	0.609094
C94	C	0.822526	-0.250174	-0.052239
C95	C	1.155859	0.083160	0.281095
C96	C	1.489193	0.416493	0.614428
C97	C	0.821912	-0.291319	0.018670
C98	C	1.155245	0.042014	0.352003
C99	C	1.488578	0.375348	0.685337
C100	C	0.822501	-0.250182	0.084249
C101	C	1.155834	0.083151	0.417583
C102	C	1.489168	0.416485	0.750916
C103	C	0.823707	-0.167906	0.078915
C104	C	1.157040	0.165427	0.412248
C105	C	1.490373	0.498761	0.745582
C106	C	0.818265	-0.539739	0.038191
C107	C	1.151599	-0.206406	0.371524
C108	C	1.484932	0.126927	0.704857
C109	C	0.817062	-0.622022	0.043520
C110	C	1.150395	-0.288688	0.376853
C111	C	1.483728	0.044645	0.710187
C112	C	0.817085	-0.622008	-0.092968
C113	C	1.150419	-0.288674	0.240365
C114	C	1.483752	0.044659	0.573698
C115	C	0.818296	-0.539730	-0.098297
C116	C	1.151629	-0.206397	0.235037
C117	C	1.484962	0.126936	0.568370
C118	C	0.818881	-0.498600	-0.032717
C119	C	1.152215	-0.165267	0.300616
C120	C	1.485548	0.168067	0.633949
C121	C	0.820676	-0.375420	0.024124
C122	C	1.154009	-0.042086	0.357457
C123	C	1.487343	0.291247	0.690790
C124	C	0.820112	-0.414500	-0.038172
C125	C	1.153445	-0.081167	0.295162
C126	C	1.486778	0.252166	0.628495
C127	C	0.947395	0.098830	-0.006654
C128	C	1.280728	0.432164	0.326679
C129	C	1.614062	0.765497	0.660012
C130	C	1.024501	0.100113	-0.006762
C131	C	1.357834	0.433446	0.326571
C132	C	1.691168	0.766779	0.659905
C133	C	0.815186	0.249281	-0.016375
C134	C	1.148520	0.582615	0.316958
C135	C	1.481853	0.915948	0.650291
C136	C	0.816470	0.336847	-0.022054
C137	C	1.149804	0.670181	0.311279
C138	C	1.483137	1.003514	0.644612
N139	N	0.820378	0.105031	0.171133
N140	N	1.153711	0.438365	0.504466
N141	N	1.487044	0.771698	0.837800
N142	N	0.820426	0.105044	-0.185178
N143	N	1.153760	0.438377	0.148155
N144	N	1.487093	0.771710	0.481488
C145	C	0.867666	0.051262	0.213995
C146	C	1.200999	0.384595	0.547328
C147	C	1.534333	0.717928	0.880661
C148	C	0.867670	0.051258	0.292797
C149	C	1.201003	0.384591	0.626130
C150	C	1.534337	0.717925	0.959463
C151	C	0.820392	0.105038	0.328733
C152	C	1.153726	0.438371	0.662067
C153	C	1.487059	0.771704	0.995400
C154	C	0.773095	0.158812	0.285862
C155	C	1.106428	0.492145	0.619195
C156	C	1.439762	0.825478	0.952529
C157	C	0.773088	0.158808	0.207062
C158	C	1.106421	0.492142	0.540395
C159	C	1.439754	0.825475	0.873728
C160	C	0.811221	0.176913	0.448913
C161	C	1.144554	0.510246	0.782246
C162	C	1.477887	0.843580	1.115579
C163	C	0.811233	0.176917	0.527711
C164	C	1.144566	0.510251	0.861045
C165	C	1.477900	0.843584	1.194378
C166	C	0.820411	0.105047	0.571779
C167	C	1.153744	0.438381	0.905112
C168	C	1.487078	0.771714	1.238446
C169	C	0.829591	0.033170	0.537039
C170	C	1.162925	0.366503	0.870372
C171	C	1.496258	0.699837	1.203705
C172	C	0.829584	0.033167	0.458239
C173	C	1.162917	0.366500	0.791572
C174	C	1.496251	0.699833	1.124905
C175	C	0.820395	0.105047	0.414178
C176	C	1.153728	0.438380	0.747512
C177	C	1.487061	0.771713	1.080845
C178	C	0.867706	0.051269	0.700087
C179	C	1.201040	0.384602	1.033420
C180	C	1.534373	0.717936	1.366754
C181	C	0.867705	0.051264	0.778891
C182	C	1.201039	0.384598	1.112224
C183	C	1.534372	0.717931	1.445557
C184	C	0.773134	0.158825	0.771954
C185	C	1.106467	0.492158	1.105287
C186	C	1.439800	0.825491	1.438620
C187	C	0.773131	0.158823	0.693152
C188	C	1.106464	0.492156	1.026486
C189	C	1.439798	0.825489	1.359819
C190	C	0.820421	0.105046	0.657224
C191	C	1.153754	0.438379	0.990557
C192	C	1.487088	0.771712	1.323890
H193	H	0.594412	0.240290	-0.015753
H194	H	0.927746	0.573623	0.317580
H195	H	1.261079	0.906956	0.650914
H196	H	0.734636	0.202610	0.801213
H197	H	1.067970	0.535943	1.134546
H198	H	1.401303	0.869277	1.467880
H199	H	0.243031	0.203863	0.066130
H200	H	0.576364	0.537196	0.399464
H201	H	0.909698	0.870530	0.732797
H202	H	0.906171	0.007472	0.184744
H203	H	1.239504	0.340805	0.518078
H204	H	1.572837	0.674138	0.851411
F205	F	0.722803	0.216055	0.647532
F206	F	1.056137	0.549388	0.980865
F207	F	1.389470	0.882722	1.314199
F208	F	0.918004	-0.005974	0.338421
F209	F	1.251337	0.327359	0.671754
F210	F	1.584670	0.660693	1.005087
H211	H	0.837057	-0.025358	0.429957
H212	H	1.170391	0.307975	0.763290
H213	H	1.503724	0.641309	1.096623
H214	H	0.822047	-0.283659	-0.105636
H215	H	1.155381	0.049674	0.227697
H216	H	1.488714	0.383007	0.561030
H217	H	0.837065	-0.025354	0.572917
H218	H	1.170398	0.307980	0.906251
H219	H	1.503731	0.641313	1.239584
F220	F	0.451835	0.255924	-0.016784
F221	F	0.785168	0.589257	0.316550
F222	F	1.118501	0.922590	0.649883
F223	F	0.821839	-0.293973	0.159716
F224	F	1.155172	0.039360	0.493049
F225	F	1.488506	0.372694	0.826383
H226	H	0.266338	0.004029	-0.080083
H227	H	0.599672	0.337363	0.253251
H228	H	0.933005	0.670696	0.586584
H229	H	0.374467	0.206055	0.066012
H230	H	0.707800	0.539389	0.399345
H231	H	1.041133	0.872722	0.732679
H232	H	0.803762	0.235444	0.555990
H233	H	1.137095	0.568777	0.889324
H234	H	1.470429	0.902111	1.222657
H235	H	0.397766	0.006216	-0.080199
H236	H	0.731100	0.339549	0.253134
H237	H	1.064433	0.672883	0.586467
H238	H	0.818797	-0.506236	-0.156038
H239	H	1.152130	-0.172902	0.177295
H240	H	1.485464	0.160431	0.510629
F241	F	0.918034	-0.005968	0.661849
F242	F	1.251367	0.327365	0.995182
F243	F	1.584700	0.660699	1.328515
H244	H	0.906211	0.007474	0.813790
H245	H	1.239545	0.340808	1.147123
H246	H	1.572878	0.674141	1.480456
F247	F	0.801502	0.253414	0.402019
F248	F	1.134836	0.586747	0.735353
F249	F	1.468169	0.920081	1.068686
F250	F	0.004936	0.248483	-0.016380
F251	F	0.338269	0.581816	0.316953
F252	F	0.671603	0.915149	0.650287
H253	H	0.493281	-0.022764	0.001280
H254	H	0.826615	0.310569	0.334614
H255	H	1.159948	0.643903	0.667947
F256	F	0.722776	0.216045	0.324109
F257	F	1.056109	0.549379	0.657442
F258	F	1.389443	0.882712	0.990775
F259	F	0.722755	0.216040	0.161443
F260	F	1.056088	0.549373	0.494776
F261	F	1.389422	0.882707	0.828110
H262	H	0.046382	-0.030209	0.001638
H263	H	0.379715	0.303124	0.334972
H264	H	0.713049	0.636458	0.668305
F265	F	0.820019	-0.419216	0.099588
F266	F	1.153353	-0.085883	0.432921
F267	F	1.486686	0.247451	0.766255
H268	H	0.147513	0.232849	-0.015343
H269	H	0.480846	0.566183	0.317990
H270	H	0.814179	0.899516	0.651323
F271	F	0.824396	-0.124115	-0.133044
F272	F	1.157729	0.209218	0.200290
F273	F	1.491062	0.542552	0.533623
F274	F	0.188963	-0.045846	0.002728
F275	F	0.522296	0.287487	0.336062
F276	F	0.855630	0.620821	0.669395
H277	H	0.816607	-0.655504	-0.146359
H278	H	1.149941	-0.322171	0.186974
H279	H	1.483274	0.011162	0.520308
F280	F	0.635867	-0.038407	0.002343
F281	F	0.969200	0.294926	0.335676
F282	F	1.302534	0.628260	0.669009
F283	F	0.816411	-0.665811	0.118994
F284	F	1.149745	-0.332477	0.452328
F285	F	1.483078	0.000856	0.785661
H286	H	0.818756	-0.506263	0.091590
H287	H	1.152090	-0.172930	0.424923
H288	H	1.485423	0.160403	0.758257
F289	F	0.824335	-0.124132	0.148708
F290	F	1.157669	0.209202	0.482042
F291	F	1.491002	0.542535	0.815375
F292	F	0.820767	-0.370709	-0.113636
F293	F	1.154101	-0.037376	0.219698
F294	F	1.487434	0.295957	0.553031
