data_functionalizedCrystal
_audit_creation_method	'MofGen! by Chris Wilmer'
_symmetry_space_group_name_H-M	'P1'
_symmetry_Int_Tables_number	1
_symmetry_cell_setting	triclinic
loop_
_symmetry_equiv_pos_as_xyz
  x,y,z
_cell_length_a	6.817900
_cell_length_b	16.254434
_cell_length_c	11.102288
_cell_angle_alpha	85.190653
_cell_angle_beta	108.605689
_cell_angle_gamma	79.300613
loop_
_atom_site_label
_atom_site_type_symbol
_atom_site_fract_x
_atom_site_fract_y
_atom_site_fract_z
V1	V	-4.021766	0.261149	-0.176843
O2	O	-3.982507	0.256178	0.007465
O3	O	-3.999157	0.259364	-0.349656
O4	O	-3.959397	0.375046	-0.174575
O5	O	-4.022542	0.139695	-0.168827
V6	V	-4.503862	0.246623	-0.154744
O7	O	-4.286154	0.293015	-0.225318
O8	O	-4.689670	0.214757	-0.106268
O9	O	-4.303264	0.248409	0.018070
O10	O	-4.660517	0.251594	-0.339052
O11	O	-4.620482	0.368077	-0.162759
O12	O	-4.343023	0.132726	-0.157011
C13	C	-3.850884	0.255244	-0.391770
C14	C	-3.913592	0.254543	-0.533050
C15	C	-4.125623	0.258392	-0.605913
C16	C	-4.184535	0.257740	-0.738662
C17	C	-3.819361	0.249385	-0.725672
C18	C	-3.760455	0.250044	-0.592927
C19	C	-4.165599	0.104961	-0.163155
C20	C	-4.114375	0.011849	-0.163858
C21	C	-3.824386	-0.198114	-0.171815
C22	C	-3.776266	-0.285603	-0.172468
C23	C	-4.120629	-0.294114	-0.159764
C24	C	-4.168741	-0.206627	-0.159103
C25	C	-4.020617	-0.158628	-0.165135
C26	C	-3.924385	-0.333605	-0.166449
C27	C	-3.872212	-0.428465	-0.167156
C28	C	-4.072791	-0.063763	-0.164425
C29	C	-3.800165	0.402807	-0.168436
C30	C	-3.830626	0.495918	-0.167725
C31	C	-4.114880	0.252526	0.060177
C32	C	-4.031410	0.253232	0.201456
H33	H	-3.587788	0.246912	-0.533600
C34	C	-3.661454	-0.145317	-0.178439
H35	H	-3.718209	-0.087555	-0.177100
H36	H	-3.534523	-0.165559	-0.106670
H37	H	-3.631133	-0.150257	-0.255652
H38	H	-3.616477	-0.317748	-0.177903
H39	H	-4.241221	-0.333205	-0.154854
C40	C	-4.417766	0.261969	-0.818805
H41	H	-4.500518	0.264736	-0.764127
H42	H	-4.469976	0.310956	-0.882657
H43	H	-4.426695	0.212809	-0.859058
C44	C	-4.294067	0.263345	-0.540053
H45	H	-4.428787	0.265550	-0.602467
H46	H	-4.257052	0.214705	-0.476743
H47	H	-4.300312	0.312851	-0.500339
H48	H	-3.694690	0.245720	-0.774439
H49	H	-4.328540	-0.174478	-0.153659
