data_functionalizedCrystal
_audit_creation_method	'MofGen! by Chris Wilmer'
_symmetry_space_group_name_H-M	'P1'
_symmetry_Int_Tables_number	1
_symmetry_cell_setting	triclinic
loop_
_symmetry_equiv_pos_as_xyz
  x,y,z
_cell_length_a	11.026607
_cell_length_b	9.198806
_cell_length_c	10.723023
_cell_angle_alpha	89.998149
_cell_angle_beta	83.473218
_cell_angle_gamma	90.003539
loop_
_atom_site_label
_atom_site_type_symbol
_atom_site_fract_x
_atom_site_fract_y
_atom_site_fract_z
O1	O	1.614519	0.120888	-0.523503
O2	O	1.260717	0.120891	-0.463891
O3	O	1.445780	0.120884	-0.313882
O4	O	1.429457	0.120894	-0.673512
O5	O	1.445765	-0.120901	-0.313879
O6	O	1.260702	-0.120895	-0.463888
O7	O	1.614504	-0.120897	-0.523499
Cu8	Cu	1.437602	-0.142973	-0.493693
Cu9	Cu	1.437619	0.142966	-0.493697
O10	O	1.429442	-0.120891	-0.673508
C11	C	1.215407	-0.000002	-0.452892
C12	C	1.080420	-0.000001	-0.420109
N13	N	1.437599	-0.344087	-0.493691
C14	C	1.444585	-0.000006	-0.267125
C15	C	1.441031	-0.000001	-0.127803
C16	C	1.007368	0.000003	-0.510629
C17	C	0.867852	0.000004	-0.476748
C18	C	1.659814	-0.000002	-0.534498
C19	C	1.794801	0.000007	-0.567281
C20	C	1.515301	-0.416286	-0.430355
C21	C	1.515320	-0.583698	-0.430355
N22	N	1.437632	0.344080	-0.493692
C23	C	1.430637	0.000003	-0.720266
C24	C	1.434190	0.000007	-0.859587
C25	C	1.439439	-0.125250	-0.065681
C26	C	1.435767	-0.125247	0.078314
H27	H	0.827112	0.000038	-0.374161
N28	N	1.603448	-0.665929	-0.358530
H29	H	1.689931	-0.639493	-0.392114
H30	H	1.590865	-0.773839	-0.368740
H31	H	1.435549	0.107243	0.086999
N32	N	1.349501	-0.573710	-0.565529
H33	H	1.396621	-0.510546	-0.631192
H34	H	1.295194	-0.510656	-0.505645
H35	H	1.581808	-0.354162	-0.376124
H36	H	1.371084	-0.406213	-0.547910
N37	N	1.441251	-0.267302	-0.136426
H38	H	1.443623	-0.247168	-0.229265
H39	H	1.365430	-0.324896	-0.106825
H40	H	1.039675	0.000034	-0.317529
H41	H	1.048113	-0.000003	-0.613209
H42	H	1.439681	0.107232	-0.074384
N43	N	1.433954	-0.267296	0.149065
H44	H	1.431590	-0.247159	0.241901
H45	H	1.509773	-0.324879	0.119462
H46	H	0.835539	0.000000	-0.669869
