data_functionalizedCrystal
_audit_creation_method	'MofGen! by Chris Wilmer'
_symmetry_space_group_name_H-M	'P1'
_symmetry_Int_Tables_number	1
_symmetry_cell_setting	triclinic
loop_
_symmetry_equiv_pos_as_xyz
  x,y,z
_cell_length_a	16.109301
_cell_length_b	14.519709
_cell_length_c	14.586319
_cell_angle_alpha	89.995260
_cell_angle_beta	89.999213
_cell_angle_gamma	83.570813
loop_
_atom_site_label
_atom_site_type_symbol
_atom_site_fract_x
_atom_site_fract_y
_atom_site_fract_z
O1	O	1.103336	0.118540	-0.076184
O2	O	1.436669	0.451873	0.257149
O3	O	1.770003	0.785207	0.590482
O4	O	0.861300	0.133292	-0.076199
O5	O	1.194633	0.466625	0.257134
O6	O	1.527966	0.799959	0.590468
O7	O	0.988735	-0.008336	-0.076183
O8	O	1.322068	0.324997	0.257150
O9	O	1.655402	0.658330	0.590484
O10	O	0.975901	0.260168	-0.076200
O11	O	1.309234	0.593501	0.257133
O12	O	1.642567	0.926835	0.590466
O13	O	0.988726	-0.008338	0.076298
O14	O	1.322060	0.324995	0.409631
O15	O	1.655393	0.658328	0.742964
O16	O	0.861291	0.133290	0.076282
O17	O	1.194624	0.466623	0.409615
O18	O	1.527957	0.799957	0.742948
O19	O	1.103327	0.118538	0.076296
O20	O	1.436660	0.451871	0.409630
O21	O	1.769994	0.785204	0.742963
Cu22	Cu	0.982308	0.125914	0.090212
Cu23	Cu	1.315641	0.459247	0.423545
Cu24	Cu	1.648975	0.792580	0.756878
Cu25	Cu	0.982319	0.125916	-0.090114
Cu26	Cu	1.315652	0.459249	0.243219
Cu27	Cu	1.648985	0.792583	0.576552
O28	O	0.975892	0.260166	0.076280
O29	O	1.309225	0.593499	0.409614
O30	O	1.642558	0.926833	0.742947
C31	C	0.830319	0.132693	0.000039
C32	C	1.163653	0.466027	0.333373
C33	C	1.496986	0.799360	0.666706
C34	C	0.738021	0.130902	0.000034
C35	C	1.071354	0.464235	0.333367
C36	C	1.404687	0.797569	0.666701
C37	C	0.515887	0.210775	0.000040
C38	C	0.849220	0.544109	0.333373
C39	C	1.182553	0.877442	0.666706
C40	C	0.429163	0.209085	0.000046
C41	C	0.762497	0.542418	0.333379
C42	C	1.095830	0.875752	0.666712
C43	C	0.448747	0.041048	0.000053
C44	C	0.782080	0.374381	0.333386
C45	C	1.115414	0.707715	0.666719
C46	C	0.535468	0.042739	0.000053
C47	C	0.868802	0.376073	0.333386
C48	C	1.202135	0.709406	0.666720
C49	C	0.569036	0.127606	0.000042
C50	C	0.902369	0.460939	0.333375
C51	C	1.235703	0.794273	0.666709
C52	C	0.395591	0.124224	0.000047
C53	C	0.728924	0.457557	0.333381
C54	C	1.062258	0.790891	0.666714
C55	C	0.301562	0.122390	0.000054
C56	C	0.634895	0.455724	0.333387
C57	C	0.968228	0.789057	0.666721
C58	C	0.663071	0.129440	0.000037
C59	C	0.996404	0.462773	0.333370
C60	C	1.329738	0.796107	0.666704
C61	C	0.988132	-0.042696	0.000057
C62	C	1.321466	0.290638	0.333391
C63	C	1.654799	0.623971	0.666724
C64	C	0.986340	-0.145073	0.000058
C65	C	1.319673	0.188260	0.333391
C66	C	1.653007	0.521594	0.666724
C67	C	0.979741	-0.519955	0.000034
C68	C	1.313075	-0.186622	0.333367
C69	C	1.646408	0.146712	0.666700
C70	C	0.981574	-0.415651	0.000041
C71	C	1.314907	-0.082318	0.333374
C72	C	1.648241	0.251016	0.666707
C73	C	0.983041	-0.332517	0.000047
C74	C	1.316374	0.000816	0.333380
C75	C	1.649707	0.334149	0.666713
C76	C	0.984873	-0.228207	0.000052
C77	C	1.318207	0.105127	0.333385
C78	C	1.651540	0.438460	0.666719
C79	C	1.134307	0.119136	0.000056
C80	C	1.467641	0.452470	0.333389
C81	C	1.800974	0.785803	0.666723
C82	C	1.226606	0.120928	0.000055
C83	C	1.559939	0.454261	0.333389
C84	C	1.893273	0.787595	0.666722
C85	C	0.976494	0.294526	0.000038
C86	C	1.309828	0.627859	0.333371
C87	C	1.643161	0.961192	0.666705
C88	C	0.978287	0.396903	0.000031
C89	C	1.311620	0.730236	0.333365
C90	C	1.644953	1.063570	0.666698
N91	N	0.982307	0.125911	0.217044
N92	N	1.315640	0.459245	0.550377
N93	N	1.648973	0.792578	0.883710
N94	N	0.982326	0.125911	-0.216946
N95	N	1.315660	0.459244	0.116387
N96	N	1.648993	0.792578	0.449720
C97	C	1.038754	0.063219	0.452057
C98	C	1.372087	0.396553	0.785390
C99	C	1.705421	0.729886	1.118724
C100	C	1.038756	0.063217	0.548038
C101	C	1.372090	0.396550	0.881372
C102	C	1.705423	0.729884	1.214705
C103	C	0.925873	0.188606	0.548034
C104	C	1.259207	0.521939	0.881367
C105	C	1.592540	0.855273	1.214700
C106	C	0.925868	0.188603	0.452054
C107	C	1.259201	0.521937	0.785387
C108	C	1.592534	0.855270	1.118721
C109	C	0.982313	0.125911	0.404068
C110	C	1.315646	0.459244	0.737402
C111	C	1.648979	0.792578	1.070735
C112	C	0.982321	0.125912	0.596029
C113	C	1.315654	0.459245	0.929362
C114	C	1.648987	0.792578	1.262696
C115	C	0.982323	0.125910	0.700096
C116	C	1.315656	0.459243	1.033430
C117	C	1.648990	0.792576	1.366763
C118	C	0.982310	0.125911	0.299995
C119	C	1.315643	0.459245	0.633328
C120	C	1.648976	0.792578	0.966661
H121	H	1.084714	0.012170	0.412989
H122	H	1.418047	0.345504	0.746323
H123	H	1.751380	0.678837	1.079656
O124	O	0.377416	0.289791	0.000077
O125	O	0.710749	0.623124	0.333410
O126	O	1.044083	0.956457	0.666743
C127	C	0.293674	0.270105	0.000057
C128	C	0.627007	0.603439	0.333390
C129	C	0.960340	0.936772	0.666724
H130	H	0.290242	0.197670	0.028934
H131	H	0.623575	0.531004	0.362267
H132	H	0.956909	0.864337	0.695600
H133	H	0.254462	0.323123	0.044320
H134	H	0.587796	0.656456	0.377653
H135	H	0.921129	0.989790	0.710987
H136	H	0.268601	0.273605	-0.073096
H137	H	0.601934	0.606939	0.260237
H138	H	0.935267	0.940272	0.593571
H139	H	0.578745	-0.024991	0.000058
H140	H	0.912078	0.308342	0.333391
H141	H	1.245412	0.641675	0.666724
O142	O	1.093665	0.002286	0.594512
O143	O	1.426999	0.335619	0.927845
O144	O	1.760332	0.668952	1.261179
C145	C	1.143465	-0.053061	0.531573
C146	C	1.476798	0.280272	0.864906
C147	C	1.810131	0.613605	1.198240
H148	H	1.144455	-0.015248	0.463153
H149	H	1.477789	0.318085	0.796486
H150	H	1.811122	0.651418	1.129820
H151	H	1.209839	-0.067109	0.559301
H152	H	1.543172	0.266225	0.892634
H153	H	1.876506	0.599558	1.225968
H154	H	1.116371	-0.121581	0.521372
H155	H	1.449705	0.211753	0.854705
H156	H	1.783038	0.545086	1.188039
O157	O	0.415999	-0.041307	0.000015
O158	O	0.749333	0.292027	0.333349
O159	O	1.082666	0.625360	0.666682
C160	C	0.328059	-0.024968	0.000035
C161	C	0.661393	0.308366	0.333368
C162	C	0.994726	0.641699	0.666701
H163	H	0.307800	0.047008	-0.028835
H164	H	0.641134	0.380342	0.304498
H165	H	0.974467	0.713675	0.637831
H166	H	0.301355	-0.079266	-0.044234
H167	H	0.634689	0.254068	0.289099
H168	H	0.968022	0.587401	0.622432
H169	H	0.303911	-0.029435	0.073187
H170	H	0.637244	0.303899	0.406520
H171	H	0.970578	0.637232	0.739853
H172	H	0.879902	0.239655	0.412979
H173	H	1.213236	0.572988	0.746312
H174	H	1.546569	0.906321	1.079646
H175	H	0.543214	0.279879	0.000037
H176	H	0.876547	0.613213	0.333371
H177	H	1.209881	0.946546	0.666704
O178	O	0.871131	0.249473	0.594791
O179	O	1.204464	0.582807	0.928124
O180	O	1.537798	0.916140	1.261458
C181	C	0.883225	0.236021	0.689796
C182	C	1.216559	0.569354	1.023129
C183	C	1.549892	0.902688	1.356463
H184	H	0.949272	0.201572	0.702902
H185	H	1.282605	0.534905	1.036236
H186	H	1.615939	0.868239	1.369569
H187	H	0.874083	0.305862	0.726264
H188	H	1.207416	0.639195	1.059597
H189	H	1.540750	0.972528	1.392931
H190	H	0.836102	0.189754	0.717045
H191	H	1.169435	0.523088	1.050379
H192	H	1.502769	0.856421	1.383712
