data_functionalizedCrystal
_audit_creation_method	'MofGen! by Chris Wilmer'
_symmetry_space_group_name_H-M	'P1'
_symmetry_Int_Tables_number	1
_symmetry_cell_setting	triclinic
loop_
_symmetry_equiv_pos_as_xyz
  x,y,z
_cell_length_a	18.215407
_cell_length_b	13.031981
_cell_length_c	18.215407
_cell_angle_alpha	97.196642
_cell_angle_beta	90.008215
_cell_angle_gamma	97.186371
loop_
_atom_site_label
_atom_site_type_symbol
_atom_site_fract_x
_atom_site_fract_y
_atom_site_fract_z
Zn1	Zn	1.087827	-0.416417	0.378811
Zn2	Zn	1.587827	0.083583	0.878811
Zn3	Zn	1.072157	-0.591153	0.240108
Zn4	Zn	1.572157	-0.091153	0.740108
Zn5	Zn	0.964783	-0.416386	0.255766
Zn6	Zn	1.464783	0.083614	0.755766
Zn7	Zn	0.949129	-0.591125	0.363140
Zn8	Zn	1.449129	-0.091125	0.863140
O9	O	1.018474	-0.503770	0.309456
O10	O	1.518474	-0.003770	0.809456
O11	O	1.188730	-0.439622	0.360418
O12	O	1.688730	0.060378	0.860418
O13	O	1.057907	-0.567968	0.139201
O14	O	1.557907	-0.067968	0.639201
O15	O	0.994215	-0.270133	0.285199
O16	O	1.494215	0.229867	0.785199
O17	O	1.177217	-0.567999	0.258513
O18	O	1.677217	-0.067999	0.758513
O19	O	1.084614	-0.270157	0.375600
O20	O	1.584614	0.229843	0.875600
O21	O	0.979020	-0.439567	0.150705
O22	O	1.479020	0.060433	0.650705
O23	O	0.859725	-0.439540	0.270003
O24	O	1.359725	0.060460	0.770003
O25	O	0.967534	-0.567951	0.468203
O26	O	1.467534	-0.067951	0.968203
O27	O	0.848223	-0.567920	0.348891
O28	O	1.348223	-0.067920	0.848891
O29	O	1.069435	-0.439594	0.479716
O30	O	1.569435	0.060406	0.979716
O31	O	1.042727	-0.737406	0.243317
O32	O	1.542727	-0.237406	0.743317
O33	O	0.952339	-0.737385	0.333708
O34	O	1.452339	-0.237385	0.833708
C35	C	0.827272	-0.503724	0.309446
C36	C	1.327272	-0.003724	0.809446
C37	C	0.745472	-0.503730	0.309457
C38	C	1.245472	-0.003730	0.809457
C39	C	0.994154	-0.775318	0.285129
C40	C	1.494154	-0.275318	0.785129
C41	C	0.983817	-0.891488	0.274746
C42	C	1.483817	-0.391488	0.774746
C43	C	0.486389	-0.437053	0.362581
C44	C	0.986389	0.062947	0.862581
C45	C	0.563249	-0.437036	0.362580
C46	C	1.063249	0.062964	0.862580
C47	C	0.551297	-0.570521	0.256344
C48	C	1.051297	-0.070521	0.756344
C49	C	0.474438	-0.570543	0.256349
C50	C	0.974438	-0.070543	0.756349
C51	C	0.441986	-0.503803	0.309467
C52	C	0.941986	-0.003803	0.809467
C53	C	0.595706	-0.503764	0.309461
C54	C	1.095706	-0.003764	0.809461
C55	C	0.679041	-0.503746	0.309460
C56	C	1.179041	-0.003746	0.809460
C57	C	0.358646	-0.503822	0.309469
C58	C	0.858646	-0.003822	0.809469
C59	C	1.023908	-0.943208	0.314890
C60	C	1.523908	-0.443208	0.814890
C61	C	1.013225	-1.063275	0.304160
C62	C	1.513225	-0.563275	0.804160
C63	C	1.210423	-0.503817	0.309467
C64	C	1.710423	-0.003817	0.809467
C65	C	1.292220	-0.503837	0.309471
C66	C	1.792220	-0.003837	0.809471
C67	C	1.018486	-0.503773	0.501409
C68	C	1.518486	-0.003773	1.001409
C69	C	1.018492	-0.503774	0.583207
C70	C	1.518492	-0.003774	1.083207
C71	C	1.042909	-0.231162	0.333894
C72	C	1.542909	0.268838	0.833894
C73	C	1.053321	-0.114992	0.344309
C74	C	1.553321	0.385008	0.844309
C75	C	1.071536	-0.436950	0.777397
C76	C	1.571536	0.063050	1.277397
C77	C	1.071532	-0.436949	0.854256
C78	C	1.571532	0.063051	1.354256
C79	C	0.965422	-0.570614	0.842254
C80	C	1.465422	-0.070614	1.342254
C81	C	0.965423	-0.570608	0.765398
C82	C	1.465423	-0.070608	1.265398
C83	C	1.018484	-0.503778	0.732971
C84	C	1.518484	-0.003778	1.232971
C85	C	1.018479	-0.503783	0.886686
C86	C	1.518479	-0.003783	1.386686
C87	C	1.018474	-0.503783	0.970020
C88	C	1.518474	-0.003783	1.470020
C89	C	1.018489	-0.503776	0.649632
C90	C	1.518489	-0.003776	1.149632
C91	C	1.018460	-0.503790	1.118248
C92	C	1.518460	-0.003790	1.618248
C93	C	1.018472	-0.503786	1.036449
C94	C	1.518472	-0.003786	1.536449
H95	H	0.459969	-0.382708	0.405833
H96	H	0.959969	0.117292	0.905833
H97	H	0.577729	-0.624857	0.213096
H98	H	1.077729	-0.124857	0.713096
H99	H	0.599399	-0.382683	0.405832
H100	H	1.099399	0.117317	0.905832
O101	O	1.079851	-0.884127	0.370939
O102	O	1.579851	-0.384127	0.870939
H103	H	1.135777	-0.904970	0.356520
H104	H	1.635777	-0.404970	0.856520
O105	O	0.908194	-0.642696	0.877228
O106	O	1.408194	-0.142696	1.377228
H107	H	0.917108	-0.631480	0.938135
H108	H	1.417108	-0.131480	1.438135
H109	H	0.438283	-0.624904	0.213095
H110	H	0.938283	-0.124904	0.713095
H111	H	0.970987	-1.107881	0.261848
H112	H	1.470987	-0.607881	0.761848
O113	O	0.908183	-0.642660	0.717474
O114	O	1.408183	-0.142660	1.217474
H115	H	0.871286	-0.689132	0.752934
H116	H	1.371286	-0.189132	1.252934
H117	H	1.114740	-0.382529	0.750998
H118	H	1.614740	0.117471	1.250998
H119	H	1.095553	-1.070388	0.386627
H120	H	1.595553	-0.570388	0.886627
H121	H	1.114731	-0.382529	0.890425
H122	H	1.614731	0.117471	1.390425
H123	H	0.941582	-0.936097	0.232437
H124	H	1.441582	-0.436097	0.732437
