data_functionalizedCrystal
_audit_creation_method	'MofGen! by Chris Wilmer'
_symmetry_space_group_name_H-M	'P1'
_symmetry_Int_Tables_number	1
_symmetry_cell_setting	triclinic
loop_
_symmetry_equiv_pos_as_xyz
  x,y,z
_cell_length_a	19.077105
_cell_length_b	16.120484
_cell_length_c	19.078593
_cell_angle_alpha	94.995996
_cell_angle_beta	90.012172
_cell_angle_gamma	90.738523
loop_
_atom_site_label
_atom_site_type_symbol
_atom_site_fract_x
_atom_site_fract_y
_atom_site_fract_z
Zn1	Zn	1.040853	-0.402774	-0.456865
Zn2	Zn	1.374186	-0.069441	-0.123532
Zn3	Zn	1.707520	0.263893	0.209801
Zn4	Zn	1.039406	-0.536919	-0.344869
Zn5	Zn	1.372739	-0.203585	-0.011536
Zn6	Zn	1.706073	0.129748	0.321797
Zn7	Zn	0.928429	-0.391739	-0.334222
Zn8	Zn	1.261762	-0.058405	-0.000888
Zn9	Zn	1.595095	0.274928	0.332445
Zn10	Zn	0.917378	-0.536296	-0.457582
Zn11	Zn	1.250711	-0.202963	-0.124249
Zn12	Zn	1.584044	0.130371	0.209084
O13	O	0.981516	-0.466932	-0.398385
O14	O	1.314850	-0.133599	-0.065051
O15	O	1.648183	0.199735	0.268282
O16	O	1.138780	-0.425448	-0.446165
O17	O	1.472114	-0.092115	-0.112832
O18	O	1.805447	0.241219	0.220502
O19	O	1.028704	-0.513303	-0.244959
O20	O	1.362038	-0.179969	0.088374
O21	O	1.695371	0.153364	0.421707
O22	O	0.948573	-0.276565	-0.345735
O23	O	1.281906	0.056769	-0.012401
O24	O	1.615239	0.390102	0.320932
O25	O	1.137717	-0.524003	-0.363882
O26	O	1.471051	-0.190670	-0.030548
O27	O	1.804384	0.142663	0.302785
O28	O	1.031170	-0.284672	-0.435840
O29	O	1.364504	0.048661	-0.102507
O30	O	1.697837	0.381994	0.230826
O31	O	0.947170	-0.406639	-0.237137
O32	O	1.280503	-0.073306	0.096197
O33	O	1.613836	0.260027	0.429530
O34	O	0.828844	-0.406035	-0.346430
O35	O	1.162177	-0.072702	-0.013097
O36	O	1.495510	0.260631	0.320237
O37	O	0.929737	-0.522942	-0.555985
O38	O	1.263071	-0.189608	-0.222652
O39	O	1.596404	0.143725	0.110682
O40	O	0.820724	-0.512241	-0.437062
O41	O	1.154058	-0.178908	-0.103729
O42	O	1.487391	0.154426	0.229604
O43	O	1.020454	-0.424844	-0.555458
O44	O	1.353788	-0.091510	-0.222125
O45	O	1.687121	0.241823	0.111208
O46	O	1.017988	-0.653474	-0.364577
O47	O	1.351322	-0.320141	-0.031244
O48	O	1.684655	0.013193	0.302090
O49	O	0.928334	-0.653016	-0.447387
O50	O	1.261668	-0.319683	-0.114053
O51	O	1.595001	0.013650	0.219280
C52	C	0.799343	-0.457874	-0.390669
C53	C	1.132676	-0.124540	-0.057336
C54	C	1.466009	0.208793	0.275998
C55	C	0.721406	-0.454019	-0.387386
C56	C	1.054740	-0.120686	-0.054052
C57	C	1.388073	0.212647	0.279281
C58	C	0.680582	-0.507581	-0.432963
C59	C	1.013915	-0.174248	-0.099630
C60	C	1.347249	0.159085	0.233704
C61	C	0.607353	-0.503949	-0.429881
C62	C	0.940686	-0.170616	-0.096548
C63	C	1.274020	0.162718	0.236786
C64	C	0.574949	-0.446758	-0.381218
C65	C	0.908283	-0.113425	-0.047884
C66	C	1.241616	0.219909	0.285449
C67	C	0.615779	-0.393190	-0.335638
C68	C	0.949112	-0.059857	-0.002305
C69	C	1.282446	0.273477	0.331029
C70	C	0.689007	-0.396819	-0.338724
C71	C	1.022340	-0.063486	-0.005391
C72	C	1.355674	0.269848	0.327943
C73	C	0.356394	-0.429963	-0.366939
C74	C	0.689727	-0.096629	-0.033605
C75	C	1.023060	0.236704	0.299728
C76	C	0.283160	-0.426340	-0.363855
C77	C	0.616494	-0.093006	-0.030521
C78	C	0.949827	0.240327	0.302812
C79	C	0.274739	-0.537098	-0.458099
C80	C	0.608073	-0.203764	-0.124765
C81	C	0.941406	0.129569	0.208568
C82	C	0.347969	-0.540725	-0.461178
C83	C	0.681302	-0.207392	-0.127844
C84	C	1.014635	0.125942	0.205489
C85	C	0.388792	-0.487154	-0.415601
C86	C	0.722125	-0.153821	-0.082267
C87	C	1.055459	0.179512	0.251066
N88	N	0.500098	-0.443045	-0.378065
N89	N	0.833431	-0.109712	-0.044731
N90	N	1.166764	0.223621	0.288602
N91	N	0.463643	-0.490863	-0.418758
N92	N	0.796976	-0.157530	-0.085424
N93	N	1.130309	0.175803	0.247909
C94	C	0.971823	-0.683490	-0.407231
C95	C	1.305157	-0.350156	-0.073898
C96	C	1.638490	-0.016823	0.259435
C97	C	0.967740	-0.776138	-0.411042
C98	C	1.301073	-0.442805	-0.077709
C99	C	1.634407	-0.109471	0.255625
C100	C	0.960288	-0.945769	-0.418014
C101	C	1.293621	-0.612436	-0.084681
C102	C	1.626955	-0.279102	0.248652
C103	C	1.002870	-0.987261	-0.378772
C104	C	1.336203	-0.653928	-0.045439
C105	C	1.669536	-0.320594	0.287895
C106	C	0.998723	-1.081649	-0.382651
C107	C	1.332057	-0.748316	-0.049318
C108	C	1.665390	-0.414983	0.284015
C109	C	0.964433	-0.851372	-0.414136
C110	C	1.297767	-0.518039	-0.080802
C111	C	1.631100	-0.184705	0.252531
C112	C	1.164401	-0.476026	-0.406131
C113	C	1.497735	-0.142693	-0.072798
C114	C	1.831068	0.190641	0.260536
C115	C	1.242336	-0.479902	-0.409432
C116	C	1.575669	-0.146568	-0.076099
C117	C	1.909003	0.186765	0.257235
C118	C	0.974024	-0.475054	-0.581975
C119	C	1.307358	-0.141721	-0.248642
C120	C	1.640691	0.191612	0.084692
C121	C	0.970832	-0.478516	-0.660210
C122	C	1.304165	-0.145182	-0.326877
C123	C	1.637498	0.188151	0.006456
C124	C	0.991266	-0.249530	-0.389520
C125	C	1.324599	0.083803	-0.056187
C126	C	1.657932	0.417137	0.277147
C127	C	0.995420	-0.156886	-0.385742
C128	C	1.328753	0.176447	-0.052409
C129	C	1.662087	0.509780	0.280924
C130	C	0.989022	-0.458783	-0.215508
C131	C	1.322356	-0.125450	0.117825
C132	C	1.655689	0.207884	0.451159
C133	C	0.992361	-0.455094	-0.137269
C134	C	1.325694	-0.121760	0.196064
C135	C	1.659028	0.211573	0.529397
C136	C	0.947017	-0.504826	-0.100625
C137	C	1.280350	-0.171493	0.232708
C138	C	1.613684	0.161840	0.566042
C139	C	0.950150	-0.501352	-0.027111
C140	C	1.283483	-0.168019	0.306222
C141	C	1.616817	0.165314	0.639556
C142	C	0.998631	-0.448149	0.009757
C143	C	1.331965	-0.114816	0.343091
C144	C	1.665298	0.218517	0.676424
C145	C	1.043977	-0.398411	-0.026892
C146	C	1.377311	-0.065077	0.306441
C147	C	1.710644	0.268256	0.639775
C148	C	1.040840	-0.401881	-0.100405
C149	C	1.374174	-0.068548	0.232929
C150	C	1.707507	0.264786	0.566262
C151	C	1.013041	-0.432247	0.229628
C152	C	1.346374	-0.098914	0.562961
C153	C	1.679708	0.234419	0.896295
C154	C	1.016176	-0.428783	0.303145
C155	C	1.349509	-0.095449	0.636479
C156	C	1.682843	0.237884	0.969812
C157	C	0.922347	-0.531724	0.302922
C158	C	1.255681	-0.198390	0.636255
C159	C	1.589014	0.134943	0.969588
C160	C	0.919217	-0.535193	0.229408
C161	C	1.252551	-0.201859	0.562741
C162	C	1.585884	0.131474	0.896074
C163	C	0.964561	-0.485451	0.192765
C164	C	1.297894	-0.152118	0.526098
C165	C	1.631228	0.181215	0.859432
N166	N	1.001837	-0.444599	0.084900
N167	N	1.335170	-0.111265	0.418234
N168	N	1.668503	0.222068	0.751567
N169	N	0.961352	-0.488998	0.117624
N170	N	1.294685	-0.155665	0.450957
N171	N	1.628019	0.177669	0.784290
H172	H	0.374346	-0.587298	-0.500803
H173	H	0.707680	-0.253964	-0.167470
H174	H	1.041013	0.079369	0.165864
H175	H	0.920722	-0.981132	-0.454520
H176	H	1.254055	-0.647799	-0.121187
H177	H	1.587388	-0.314466	0.212146
F178	F	1.054588	-0.941038	-0.331049
F179	F	1.387922	-0.607705	0.002284
F180	F	1.721255	-0.274371	0.335618
H181	H	0.907541	-0.548154	-0.130638
H182	H	1.240874	-0.214820	0.202695
H183	H	1.574208	0.118513	0.536029
H184	H	0.241493	-0.580711	-0.495206
H185	H	0.574827	-0.247377	-0.161873
H186	H	0.908160	0.085956	0.171461
H187	H	0.913233	-0.541860	0.002721
H188	H	1.246567	-0.208526	0.336054
H189	H	1.579900	0.124807	0.669388
H190	H	0.879739	-0.578517	0.199395
H191	H	1.213073	-0.245184	0.532728
H192	H	1.546406	0.088150	0.866061
H193	H	0.706959	-0.554155	-0.472588
H194	H	1.040293	-0.220822	-0.139255
H195	H	1.373626	0.112512	0.194079
F196	F	0.874090	-0.584655	0.341925
F197	F	1.207424	-0.251322	0.675258
F198	F	1.540757	0.082012	1.008592
H199	H	0.589390	-0.346621	-0.296018
H200	H	0.922724	-0.013287	0.037315
H201	H	1.256057	0.320046	0.370649
H202	H	1.055655	-0.385453	0.333162
H203	H	1.388989	-0.052120	0.666495
H204	H	1.722322	0.281213	0.999828
H205	H	1.049966	-0.391749	0.199802
H206	H	1.383300	-0.058415	0.533135
H207	H	1.716633	0.274918	0.866469
H208	H	1.077762	-0.361380	-0.130239
H209	H	1.411095	-0.028047	0.203094
H210	H	1.744429	0.305287	0.536428
F211	F	0.563908	-0.560957	-0.478391
F212	F	0.897241	-0.227624	-0.145058
F213	F	1.230574	0.105710	0.188275
F214	F	0.248676	-0.365471	-0.312054
F215	F	0.582009	-0.032138	0.021280
F216	F	0.915343	0.301196	0.354613
F217	F	1.095562	-0.341770	0.012349
F218	F	1.428895	-0.008437	0.345682
F219	F	1.762228	0.324896	0.679015
H220	H	0.389623	-0.386348	-0.329821
H221	H	0.722957	-0.053014	0.003512
H222	H	1.056290	0.280319	0.336845
F223	F	0.732455	-0.339809	-0.290215
F224	F	1.065788	-0.006476	0.043118
F225	F	1.399122	0.326857	0.376451
