data_functionalizedCrystal
_audit_creation_method	'MofGen! by Chris Wilmer'
_symmetry_space_group_name_H-M	'P1'
_symmetry_Int_Tables_number	1
_symmetry_cell_setting	triclinic
loop_
_symmetry_equiv_pos_as_xyz
  x,y,z
_cell_length_a	16.625548
_cell_length_b	13.032721
_cell_length_c	13.033327
_cell_angle_alpha	105.164023
_cell_angle_beta	97.187858
_cell_angle_gamma	82.794397
loop_
_atom_site_label
_atom_site_type_symbol
_atom_site_fract_x
_atom_site_fract_y
_atom_site_fract_z
Zn1	Zn	1.247728	0.499335	0.654268
Zn2	Zn	1.581061	0.832668	0.987601
Zn3	Zn	1.914394	1.166001	1.320935
Zn4	Zn	1.217283	0.654353	0.499203
Zn5	Zn	1.550616	0.987687	0.832537
Zn6	Zn	1.883949	1.321020	1.165870
Zn7	Zn	1.097738	0.476757	0.476672
Zn8	Zn	1.431071	0.810090	0.810005
Zn9	Zn	1.764405	1.143423	1.143339
Zn10	Zn	1.097662	0.676906	0.676758
Zn11	Zn	1.430995	1.010239	1.010091
Zn12	Zn	1.764328	1.343572	1.343425
O13	O	1.165103	0.576837	0.576725
O14	O	1.498436	0.910171	0.910059
O15	O	1.831769	1.243504	1.243392
O16	O	1.356522	0.519909	0.633716
O17	O	1.689856	0.853242	0.967049
O18	O	2.023189	1.186575	1.300383
O19	O	1.188715	0.611908	0.347583
O20	O	1.522049	0.945241	0.680916
O21	O	1.855382	1.278574	1.014250
O22	O	1.130408	0.331113	0.481389
O23	O	1.463741	0.664446	0.814722
O24	O	1.797074	0.997780	1.148056
O25	O	1.334154	0.633800	0.519791
O26	O	1.667488	0.967134	0.853124
O27	O	2.000821	1.300467	1.186457
O28	O	1.240605	0.347701	0.611868
O29	O	1.573938	0.681034	0.945202
O30	O	1.907271	1.014367	1.278535
O31	O	1.100886	0.481428	0.331029
O32	O	1.434220	0.814761	0.664363
O33	O	1.767553	1.148095	0.997696
O34	O	0.984895	0.503296	0.503197
O35	O	1.318228	0.836630	0.836530
O36	O	1.651561	1.169963	1.169863
O37	O	1.130278	0.672237	0.822406
O38	O	1.463611	1.005571	1.155740
O39	O	1.796945	1.338904	1.489073
O40	O	0.984839	0.650345	0.650199
O41	O	1.318172	0.983678	0.983532
O42	O	1.651506	1.317011	1.316865
O43	O	1.240531	0.541777	0.805883
O44	O	1.573864	0.875110	1.139217
O45	O	1.907197	1.208444	1.472550
O46	O	1.188641	0.805984	0.541598
O47	O	1.521975	1.139317	0.874931
O48	O	1.855308	1.472650	1.208265
O49	O	1.100757	0.822553	0.672046
O50	O	1.434090	1.155886	1.005380
O51	O	1.767423	1.489219	1.338713
C52	C	0.955610	0.576819	0.576694
C53	C	1.288944	0.910152	0.910027
C54	C	1.622277	1.243485	1.243360
C55	C	0.865989	0.576839	0.576709
C56	C	1.199322	0.910173	0.910042
C57	C	1.532655	1.243506	1.243375
C58	C	1.141411	0.852812	0.611731
C59	C	1.474744	1.186145	0.945064
C60	C	1.808078	1.519478	1.278397
C61	C	1.131352	0.970879	0.626742
C62	C	1.464686	1.304212	0.960075
C63	C	1.798019	1.637546	1.293408
C64	C	1.188792	0.612041	0.853761
C65	C	1.522125	0.945375	1.187094
C66	C	1.855459	1.278708	1.520428
C67	C	1.198887	0.627043	0.971817
C68	C	1.532220	0.960376	1.305150
C69	C	1.865554	1.293710	1.638484
C70	C	0.537816	0.576852	0.576755
C71	C	0.871150	0.910185	0.910088
C72	C	1.204483	1.243519	1.243422
C73	C	0.629124	0.576845	0.576738
C74	C	0.962457	0.910178	0.910072
C75	C	1.295791	1.243512	1.243405
C76	C	0.701900	0.576846	0.576731
C77	C	1.035233	0.910179	0.910064
C78	C	1.368566	1.243513	1.243398
C79	C	0.793213	0.576838	0.576716
C80	C	1.126546	0.910172	0.910049
C81	C	1.459880	1.243505	1.243383
C82	C	1.375413	0.576857	0.576758
C83	C	1.708746	0.910191	0.910091
C84	C	2.042079	1.243524	1.243425
C85	C	1.465034	0.576866	0.576772
C86	C	1.798368	0.910199	0.910105
C87	C	2.131701	1.243533	1.243438
C88	C	1.188911	0.299789	0.541607
C89	C	1.522244	0.633122	0.874940
C90	C	1.855577	0.966455	1.208273
C91	C	1.199056	0.181727	0.526641
C92	C	1.532390	0.515060	0.859975
C93	C	1.865723	0.848394	1.193308
C94	C	1.170399	1.015291	0.568939
C95	C	1.503732	1.348624	0.902272
C96	C	1.837066	1.681957	1.235606
C97	C	1.160004	1.137319	0.584452
C98	C	1.493337	1.470653	0.917785
C99	C	1.826671	1.803986	1.251119
C100	C	1.159932	0.569173	1.016259
C101	C	1.493265	0.902506	1.349593
C102	C	1.826598	1.235839	1.682926
C103	C	1.170364	0.584676	1.138276
C104	C	1.503698	0.918010	1.471610
C105	C	1.837031	1.251343	1.804943
C106	C	1.141498	0.541796	1.300771
C107	C	1.474831	0.875129	1.634104
C108	C	1.808164	1.208462	1.967437
C109	C	1.131403	0.526798	1.182715
C110	C	1.464737	0.860131	1.516049
C111	C	1.798070	1.193465	1.849382
H112	H	1.211528	0.962975	0.507970
H113	H	1.544861	1.296308	0.841304
H114	H	1.878195	1.629641	1.174637
O115	O	1.219479	0.657415	1.200512
O116	O	1.552812	0.990749	1.533845
O117	O	1.886145	1.324082	1.867178
C118	C	1.299545	0.630781	1.170572
C119	C	1.632878	0.964114	1.503905
C120	C	1.966212	1.297447	1.837238
H121	H	1.297884	0.579782	1.084833
H122	H	1.631217	0.913115	1.418166
H123	H	1.964550	1.246448	1.751499
H124	H	1.328802	0.706976	1.176611
H125	H	1.662135	1.040310	1.509944
H126	H	1.995468	1.373643	1.843277
H127	H	1.336693	0.584048	1.226060
H128	H	1.670027	0.917382	1.559393
H129	H	2.003360	1.250715	1.892726
H130	H	1.118880	1.189635	0.645432
H131	H	1.452213	1.522968	0.978766
H132	H	1.785546	1.856302	1.312099
H133	H	1.239961	0.688067	1.024101
H134	H	1.573294	1.021400	1.357434
H135	H	1.906627	1.354734	1.690767
O136	O	1.248002	1.119266	0.453774
O137	O	1.581335	1.452599	0.787108
O138	O	1.914668	1.785932	1.120441
C139	C	1.201694	1.046433	0.377042
C140	C	1.535027	1.379766	0.710375
C141	C	1.868360	1.713099	1.043708
H142	H	1.134785	1.079159	0.374644
H143	H	1.468118	1.412492	0.707978
H144	H	1.801452	1.745826	1.041311
H145	H	1.224034	1.034683	0.295164
H146	H	1.557368	1.368016	0.628498
H147	H	1.890701	1.701350	0.961831
H148	H	1.208816	0.966562	0.399267
H149	H	1.542149	1.299896	0.732600
H150	H	1.875483	1.633229	1.065933
O151	O	1.082396	1.033408	0.699551
O152	O	1.415729	1.366742	1.032884
O153	O	1.749063	1.700075	1.366218
C154	C	1.128715	1.106203	0.776314
C155	C	1.462048	1.439536	1.109648
C156	C	1.795381	1.772869	1.442981
H157	H	1.185254	1.117904	0.741005
H158	H	1.518588	1.451238	1.074339
H159	H	1.851921	1.784571	1.407672
H160	H	1.090473	1.186093	0.800367
H161	H	1.423807	1.519426	1.133700
H162	H	1.757140	1.852759	1.467034
H163	H	1.147870	1.073477	0.849641
H164	H	1.481203	1.406810	1.182975
H165	H	1.814537	1.740143	1.516308
H166	H	1.118853	0.508154	0.963976
H167	H	1.452187	0.841488	1.297310
H168	H	1.785520	1.174821	1.630643
O169	O	1.082333	0.454124	1.120260
O170	O	1.415667	0.787458	1.453593
O171	O	1.749000	1.120791	1.786926
C172	C	1.019597	0.506501	1.063777
C173	C	1.352930	0.839834	1.397111
C174	C	1.686264	1.173167	1.730444
H175	H	1.039715	0.584916	1.057475
H176	H	1.373048	0.918249	1.390808
H177	H	1.706382	1.251582	1.724141
H178	H	1.005880	0.453386	0.980247
H179	H	1.339213	0.786720	1.313580
H180	H	1.672546	1.120053	1.646914
H181	H	0.962467	0.523552	1.107935
H182	H	1.295800	0.856885	1.441268
H183	H	1.629133	1.190219	1.774602
