data_functionalizedCrystal
_audit_creation_method	'MofGen! by Chris Wilmer'
_symmetry_space_group_name_H-M	'P1'
_symmetry_Int_Tables_number	1
_symmetry_cell_setting	triclinic
loop_
_symmetry_equiv_pos_as_xyz
  x,y,z
_cell_length_a	18.050591
_cell_length_b	19.077068
_cell_length_c	19.077174
_cell_angle_alpha	85.342852
_cell_angle_beta	87.678658
_cell_angle_gamma	87.676702
loop_
_atom_site_label
_atom_site_type_symbol
_atom_site_fract_x
_atom_site_fract_y
_atom_site_fract_z
Zn1	Zn	1.140100	0.296758	-0.409971
Zn2	Zn	1.473433	0.630091	-0.076638
Zn3	Zn	1.806767	0.963425	0.256696
Zn4	Zn	1.130417	0.409912	-0.296814
Zn5	Zn	1.463750	0.743245	0.036520
Zn6	Zn	1.797083	1.076579	0.369853
Zn7	Zn	1.011121	0.292035	-0.292087
Zn8	Zn	1.344454	0.625368	0.041247
Zn9	Zn	1.677787	0.958701	0.374580
Zn10	Zn	1.011071	0.414599	-0.414646
Zn11	Zn	1.344404	0.747932	-0.081313
Zn12	Zn	1.677738	1.081266	0.252021
O13	O	1.073177	0.353326	-0.353379
O14	O	1.406510	0.686659	-0.020046
O15	O	1.739844	1.019993	0.313287
O16	O	1.242740	0.311783	-0.394982
O17	O	1.576074	0.645117	-0.061649
O18	O	1.909407	0.978450	0.271684
O19	O	1.110560	0.390337	-0.197538
O20	O	1.443893	0.723670	0.135795
O21	O	1.777227	1.057004	0.469129
O22	O	1.032303	0.194012	-0.303789
O23	O	1.365636	0.527346	0.029544
O24	O	1.698970	0.860679	0.362877
O25	O	1.235626	0.394917	-0.311846
O26	O	1.568959	0.728251	0.021487
O27	O	1.902293	1.061584	0.354821
O28	O	1.127064	0.197483	-0.390399
O29	O	1.460397	0.530816	-0.057065
O30	O	1.793730	0.864149	0.276268
O31	O	1.022914	0.303733	-0.194065
O32	O	1.356247	0.637066	0.139268
O33	O	1.689580	0.970400	0.472601
O34	O	0.907189	0.308278	-0.308323
O35	O	1.240522	0.641611	0.025011
O36	O	1.573856	0.974944	0.358344
O37	O	1.032219	0.402905	-0.512674
O38	O	1.365552	0.736239	-0.179341
O39	O	1.698886	1.069572	0.153992
O40	O	0.907153	0.398325	-0.398366
O41	O	1.240486	0.731659	-0.065033
O42	O	1.573819	1.064992	0.268300
O43	O	1.127016	0.316328	-0.509240
O44	O	1.460349	0.649662	-0.175906
O45	O	1.793682	0.982995	0.157427
O46	O	1.110512	0.509183	-0.316379
O47	O	1.443845	0.842516	0.016954
O48	O	1.777179	1.175849	0.350288
O49	O	1.022829	0.512626	-0.402950
O50	O	1.356163	0.845960	-0.069617
O51	O	1.689496	1.179293	0.263717
C52	C	0.880224	0.353298	-0.353339
C53	C	1.213558	0.686631	-0.020006
C54	C	1.546891	1.019965	0.313327
C55	C	0.797678	0.353304	-0.353340
C56	C	1.131012	0.686637	-0.020006
C57	C	1.464345	1.019971	0.313327
C58	C	1.065635	0.536484	-0.360700
C59	C	1.398969	0.869817	-0.027367
C60	C	1.732302	1.203150	0.305966
C61	C	1.062478	0.614840	-0.363856
C62	C	1.395811	0.948174	-0.030522
C63	C	1.729144	1.281507	0.302811
C64	C	1.080692	0.360666	-0.537251
C65	C	1.414025	0.694000	-0.203917
C66	C	1.747359	1.027333	0.129416
C67	C	1.083894	0.363795	-0.615606
C68	C	1.417228	0.697128	-0.282272
C69	C	1.750561	1.030461	0.051061
C70	C	0.598233	0.304286	-0.304480
C71	C	0.931566	0.637619	0.028853
C72	C	1.264899	0.970952	0.362187
C73	C	0.545491	0.367888	-0.289711
C74	C	0.878824	0.701221	0.043623
C75	C	1.212158	1.034555	0.376956
C76	C	0.646548	0.353327	-0.353372
C77	C	0.979882	0.686660	-0.020039
C78	C	1.313215	1.019993	0.313294
C79	C	0.552207	0.289746	-0.368141
C80	C	0.885541	0.623080	-0.034807
C81	C	1.218874	0.956413	0.298526
C82	C	0.500564	0.353343	-0.353402
C83	C	0.833897	0.686676	-0.020069
C84	C	1.167231	1.020009	0.313264
C85	C	0.594891	0.416961	-0.338571
C86	C	0.928225	0.750295	-0.005237
C87	C	1.261558	1.083628	0.328096
C88	C	0.601615	0.338777	-0.417029
C89	C	0.934948	0.672111	-0.083696
C90	C	1.268282	1.005444	0.249638
C91	C	0.548895	0.402425	-0.402286
C92	C	0.882228	0.735759	-0.068953
C93	C	1.215562	1.069092	0.264381
C94	C	0.730646	0.353316	-0.353353
C95	C	1.063980	0.686650	-0.020020
C96	C	1.397313	1.019983	0.313314
C97	C	0.416467	0.353360	-0.353422
C98	C	0.749801	0.686694	-0.020089
C99	C	1.083134	1.020027	0.313245
C100	C	1.266883	0.353354	-0.353420
C101	C	1.600216	0.686688	-0.020087
C102	C	1.933550	1.020021	0.313247
C103	C	1.349429	0.353367	-0.353437
C104	C	1.682762	0.686700	-0.020104
C105	C	2.016096	1.020033	0.313229
C106	C	1.080769	0.169454	-0.346045
C107	C	1.414102	0.502787	-0.012712
C108	C	1.747436	0.836120	0.320621
C109	C	1.084004	0.091098	-0.342920
C110	C	1.417338	0.424432	-0.009587
C111	C	1.750671	0.757765	0.323747
C112	C	1.106684	0.649838	-0.320303
C113	C	1.440018	0.983171	0.013031
C114	C	1.773351	1.316504	0.346364
C115	C	1.103719	0.723462	-0.323275
C116	C	1.437053	1.056796	0.010059
C117	C	1.770386	1.390129	0.343392
C118	C	1.056543	0.762088	-0.369797
C119	C	1.389876	1.095421	-0.036463
C120	C	1.723210	1.428755	0.296870
C121	C	1.012335	0.727086	-0.413354
C122	C	1.345668	1.060419	-0.080021
C123	C	1.679001	1.393752	0.253312
C124	C	1.015304	0.653463	-0.410386
C125	C	1.348638	0.986796	-0.077052
C126	C	1.681971	1.320129	0.256281
C127	C	1.042766	0.982473	-0.383509
C128	C	1.376099	1.315806	-0.050175
C129	C	1.709432	1.649139	0.283158
C130	C	1.039798	1.056101	-0.386473
C131	C	1.373131	1.389434	-0.053140
C132	C	1.706464	1.722767	0.280194
C133	C	1.131184	1.052472	-0.296394
C134	C	1.464517	1.385806	0.036940
C135	C	1.797850	1.719139	0.370273
C136	C	1.134146	0.978848	-0.293426
C137	C	1.467479	1.312181	0.039907
C138	C	1.800813	1.645514	0.373241
C139	C	1.089940	0.943852	-0.336986
C140	C	1.423274	1.277185	-0.003653
C141	C	1.756607	1.610519	0.329680
N142	N	1.053509	0.837344	-0.372834
N143	N	1.386843	1.170678	-0.039501
N144	N	1.720176	1.504011	0.293833
N145	N	1.092979	0.868597	-0.333952
N146	N	1.426312	1.201931	-0.000619
N147	N	1.759645	1.535264	0.332715
C148	C	1.039768	0.320175	-0.650608
C149	C	1.373102	0.653508	-0.317275
C150	C	1.706435	0.986842	0.016058
C151	C	1.042774	0.323120	-0.724231
C152	C	1.376107	0.656453	-0.390898
C153	C	1.709441	0.989787	-0.057565
C154	C	1.089911	0.369682	-0.762850
C155	C	1.423244	0.703015	-0.429517
C156	C	1.756577	1.036348	-0.096184
C157	C	1.134039	0.413306	-0.727843
C158	C	1.467372	0.746639	-0.394509
C159	C	1.800705	1.079973	-0.061176
C160	C	1.131028	0.410364	-0.654221
C161	C	1.464362	0.743697	-0.320888
C162	C	1.797695	1.077031	0.012446
C163	C	1.103803	0.383319	-0.983230
C164	C	1.437137	0.716652	-0.649896
C165	C	1.770470	1.049985	-0.316563
C166	C	1.106812	0.386256	-1.056856
C167	C	1.440145	0.719589	-0.723523
C168	C	1.773479	1.052923	-0.390189
C169	C	1.015546	0.296071	-1.053240
C170	C	1.348879	0.629404	-0.719906
C171	C	1.682213	0.962737	-0.386573
C172	C	1.012543	0.293130	-0.979617
C173	C	1.345877	0.626463	-0.646283
C174	C	1.679210	0.959796	-0.312950
C175	C	1.056668	0.336757	-0.944616
C176	C	1.390002	0.670090	-0.611282
C177	C	1.723335	1.003423	-0.277949
N178	N	1.092986	0.372692	-0.838105
N179	N	1.426319	0.706025	-0.504772
N180	N	1.759653	1.039358	-0.171438
N181	N	1.053588	0.333750	-0.869363
N182	N	1.386922	0.667083	-0.536029
N183	N	1.720255	1.000417	-0.202696
C184	C	1.065736	0.345963	-0.170221
C185	C	1.399070	0.679296	0.163112
C186	C	1.732403	1.012630	0.496445
C187	C	1.062686	0.342636	-0.091859
C188	C	1.396019	0.675970	0.241475
C189	C	1.729352	1.009303	0.574808
H190	H	0.619891	0.262855	-0.263092
H191	H	0.953225	0.596188	0.070241
H192	H	1.286558	0.929521	0.403575
H193	H	0.520949	0.380206	-0.235890
H194	H	0.854282	0.713539	0.097443
H195	H	1.187616	1.046873	0.430776
H196	H	1.139725	0.418851	-0.954741
H197	H	1.473058	0.752184	-0.621408
H198	H	1.806391	1.085517	-0.288074
F199	F	1.178230	1.089723	-0.250040
F200	F	1.511564	1.423056	0.083293
F201	F	1.844897	1.756389	0.416626
H202	H	0.979621	0.260553	-1.081746
H203	H	1.312955	0.593886	-0.748412
H204	H	1.646288	0.927219	-0.415079
F205	F	0.989576	1.097208	-0.435983
F206	F	1.322909	1.430541	-0.102650
F207	F	1.656243	1.763874	0.230684
H208	H	0.979308	0.624968	-0.445852
H209	H	1.312641	0.958302	-0.112519
H210	H	1.645974	1.291635	0.220815
F211	F	0.962130	0.768196	-0.462871
F212	F	1.295464	1.101530	-0.129538
F213	F	1.628797	1.434863	0.203796
H214	H	1.006770	0.953985	-0.418976
H215	H	1.340104	1.287318	-0.085643
H216	H	1.673437	1.620651	0.247691
F217	F	0.995780	0.276720	-0.761481
F218	F	1.329114	0.610053	-0.428148
F219	F	1.662447	0.943387	-0.094815
H220	H	1.139716	0.751954	-0.287809
H221	H	1.473050	1.085287	0.045525
H222	H	1.806383	1.418620	0.378858
H223	H	1.145199	0.424173	-1.088298
H224	H	1.478533	0.757506	-0.754965
H225	H	1.811866	1.090840	-0.421631
H226	H	0.533307	0.235977	-0.380596
H227	H	0.866640	0.569310	-0.047262
H228	H	1.199973	0.902644	0.286071
F229	F	1.184200	0.462865	-0.768946
F230	F	1.517534	0.796198	-0.435613
F231	F	1.850867	1.129532	-0.102279
F232	F	0.520755	0.456699	-0.456349
F233	F	0.854088	0.790033	-0.123016
F234	F	1.187422	1.123366	0.210318
H235	H	1.166966	0.445879	-0.625723
H236	H	1.500300	0.779212	-0.292389
H237	H	1.833633	1.112545	0.040944
F238	F	0.989602	0.270614	-0.609513
F239	F	1.322936	0.603947	-0.276180
F240	F	1.656269	0.937280	0.057153
H241	H	0.613658	0.470751	-0.326032
H242	H	0.946992	0.804084	0.007301
H243	H	1.280325	1.137417	0.340634
F244	F	0.962375	0.243571	-0.938521
F245	F	1.295709	0.576905	-0.605187
F246	F	1.629042	0.910238	-0.271854
H247	H	0.626175	0.326439	-0.470832
H248	H	0.959508	0.659773	-0.137499
H249	H	1.292842	0.993106	0.195835
F250	F	1.156892	0.608735	-0.270783
F251	F	1.490225	0.942069	0.062551
F252	F	1.823558	1.275402	0.395884
H253	H	1.172560	0.947400	-0.255544
H254	H	1.505894	1.280733	0.077789
H255	H	1.839227	1.614067	0.411123
