data_functionalizedCrystal
_audit_creation_method	'MofGen! by Chris Wilmer'
_symmetry_space_group_name_H-M	'P1'
_symmetry_Int_Tables_number	1
_symmetry_cell_setting	triclinic
loop_
_symmetry_equiv_pos_as_xyz
  x,y,z
_cell_length_a	18.215407
_cell_length_b	15.297510
_cell_length_c	18.215399
_cell_angle_alpha	99.649898
_cell_angle_beta	90.016885
_cell_angle_gamma	80.294185
loop_
_atom_site_label
_atom_site_type_symbol
_atom_site_fract_x
_atom_site_fract_y
_atom_site_fract_z
Zn1	Zn	1.074336	0.359231	0.466768
Zn2	Zn	1.574336	0.859231	0.966768
Zn3	Zn	1.052939	0.510103	0.364996
Zn4	Zn	1.552939	1.010103	0.864996
Zn5	Zn	0.951267	0.359253	0.343724
Zn6	Zn	1.451267	0.859253	0.843724
Zn7	Zn	0.929937	0.510043	0.488018
Zn8	Zn	1.429937	1.010043	0.988018
O9	O	1.002120	0.434658	0.415877
O10	O	1.502120	0.934658	0.915877
O11	O	1.174480	0.379260	0.453277
O12	O	1.674480	0.879260	0.953277
O13	O	1.039424	0.490126	0.259195
O14	O	1.539424	0.990126	0.759195
O15	O	0.985474	0.233004	0.342251
O16	O	1.485474	0.733004	0.842251
O17	O	1.158760	0.490104	0.378506
O18	O	1.658760	0.990104	0.878506
O19	O	1.075893	0.232987	0.432651
O20	O	1.575893	0.732987	0.932651
O21	O	0.964726	0.379298	0.243567
O22	O	1.464726	0.879298	0.743567
O23	O	0.845455	0.379241	0.362856
O24	O	1.345455	0.879241	0.862856
O25	O	0.949120	0.490003	0.588178
O26	O	1.449120	0.990003	1.088178
O27	O	0.829784	0.490025	0.468868
O28	O	1.329784	0.990025	0.968868
O29	O	1.055210	0.379202	0.572567
O30	O	1.555210	0.879202	1.072567
O31	O	1.018741	0.636341	0.399110
O32	O	1.518741	1.136341	0.899110
O33	O	0.928372	0.636298	0.489494
O34	O	1.428372	1.136298	0.989494
C35	C	0.810917	0.434630	0.415860
C36	C	1.310917	0.934630	0.915860
C37	C	0.729117	0.434640	0.415873
C38	C	1.229117	0.934640	0.915873
C39	C	0.549091	0.377042	0.454898
C40	C	1.049091	0.877042	0.954898
C41	C	0.472231	0.377049	0.454902
C42	C	0.972231	0.877049	0.954902
C43	C	0.455897	0.492299	0.376872
C44	C	0.955897	0.992299	0.876872
C45	C	0.532756	0.492286	0.376864
C46	C	1.032756	0.992286	0.876864
C47	C	0.579351	0.434659	0.415882
C48	C	1.079351	0.934659	0.915882
C49	C	0.425632	0.434679	0.415893
C50	C	0.925632	0.934679	0.915893
C51	C	0.342297	0.434688	0.415896
C52	C	0.842297	0.934688	0.915896
C53	C	0.662691	0.434648	0.415877
C54	C	1.162691	0.934648	0.915877
C55	C	0.968940	0.669054	0.448932
C56	C	1.468940	1.169054	0.948932
C57	C	0.954813	0.769329	0.463098
C58	C	1.454813	1.269329	0.963098
C59	C	1.103356	1.051955	0.314925
C60	C	1.603356	1.551955	0.814925
C61	C	1.116629	0.957741	0.301611
C62	C	1.616629	1.457741	0.801611
C63	C	1.076176	0.910633	0.341982
C64	C	1.576176	1.410633	0.841982
C65	C	1.022448	0.957749	0.395668
C66	C	1.522448	1.457749	0.895668
C67	C	1.009169	1.051972	0.408978
C68	C	1.509169	1.551972	0.908978
C69	C	0.981990	0.910651	0.436036
C70	C	1.481990	1.410651	0.936036
C71	C	0.928261	0.957766	0.489722
C72	C	1.428261	1.457766	0.989722
C73	C	0.914986	1.051980	0.503030
C74	C	1.414986	1.551980	1.003030
C75	C	0.955439	1.099088	0.462659
C76	C	1.455439	1.599088	0.962659
C77	C	0.995268	0.816428	0.422725
C78	C	1.495268	1.316428	0.922725
C79	C	0.901082	0.816445	0.516779
C80	C	1.401082	1.316445	1.016779
C81	C	0.887809	0.910659	0.530092
C82	C	1.387809	1.410659	1.030092
C83	C	1.194069	0.434686	0.415894
C84	C	1.694069	0.934686	0.915894
C85	C	1.275866	0.434698	0.415901
C86	C	1.775866	0.934698	0.915901
C87	C	1.002172	0.434594	0.607821
C88	C	1.502172	0.934594	1.107821
C89	C	1.002194	0.434566	0.689616
C90	C	1.502194	0.934566	1.189616
C91	C	1.035442	1.199346	0.382716
C92	C	1.535442	1.699346	0.882716
C93	C	1.049625	1.099070	0.368606
C94	C	1.549625	1.599070	0.868606
C95	C	1.002119	0.434656	0.224670
C96	C	1.502119	0.934656	0.724670
C97	C	1.002276	0.434429	0.142840
C98	C	1.502276	0.934429	0.642840
C99	C	1.057473	0.376794	0.946535
C100	C	1.557473	0.876794	1.446535
C101	C	1.057461	0.376819	0.869679
C102	C	1.557461	0.876819	1.369679
C103	C	0.946993	0.492208	0.885927
C104	C	1.446993	0.992208	1.385927
C105	C	0.947009	0.492187	0.962782
C106	C	1.447009	0.992187	1.462782
C107	C	1.002249	0.434475	0.993083
C108	C	1.502249	0.934475	1.493083
C109	C	1.002221	0.434520	0.839373
C110	C	1.502221	0.934520	1.339373
C111	C	1.002207	0.434547	0.756043
C112	C	1.502207	0.934547	1.256043
C113	C	1.002264	0.434449	1.076418
C114	C	1.502264	0.934449	1.576418
H115	H	1.039014	0.778074	0.379013
H116	H	1.539014	1.278074	0.879013
H117	H	0.902037	0.539163	1.000683
H118	H	1.402037	1.039163	1.500683
H119	H	1.086985	0.833920	0.331138
H120	H	1.586985	1.333920	0.831138
H121	H	0.587027	0.330115	0.486666
H122	H	1.087027	0.830115	0.986666
H123	H	0.844062	0.949034	0.573804
H124	H	1.344062	1.449034	1.073804
H125	H	1.160373	0.919383	0.257900
H126	H	1.660373	1.419383	0.757900
H127	H	0.447598	0.330130	0.486671
H128	H	0.947598	0.830130	0.986671
O129	O	1.142580	1.097854	0.275780
O130	O	1.642580	1.597854	0.775780
C131	C	1.163773	1.243001	0.254520
C132	C	1.663773	1.743001	0.754520
C133	C	1.119323	1.191133	0.298936
C134	C	1.619323	1.691133	0.798936
H135	H	1.144976	1.318427	0.273215
H136	H	1.644976	1.818427	0.773215
H137	H	1.225743	1.224504	0.264850
H138	H	1.725743	1.724504	0.764850
H139	H	1.153473	1.224461	0.192568
H140	H	1.653473	1.724461	0.692568
H141	H	1.129560	1.209645	0.360902
H142	H	1.629560	1.709645	0.860902
H143	H	1.057368	1.209634	0.288544
H144	H	1.557368	1.709634	0.788544
H145	H	0.871228	1.090339	0.546736
H146	H	1.371228	1.590339	1.046736
O147	O	0.410523	0.548251	0.339043
O148	O	0.910523	1.048251	0.839043
C149	C	0.284883	0.599315	0.304438
C150	C	0.784883	1.099315	0.804438
C151	C	0.336180	0.535914	0.347323
C152	C	0.836180	1.035914	0.847323
H153	H	0.224768	0.589349	0.311105
H154	H	0.724768	1.089349	0.811105
H155	H	0.289653	0.672097	0.327531
H156	H	0.789653	1.172097	0.827531
H157	H	0.302269	0.583389	0.242878
H158	H	0.802269	1.083389	0.742878
H159	H	0.318829	0.551758	0.408889
H160	H	0.818829	1.051758	0.908889
H161	H	0.331404	0.463151	0.324170
H162	H	0.831404	0.963151	0.824170
O163	O	0.562029	0.548345	0.338951
O164	O	1.062029	1.048345	0.838951
C165	C	0.537729	0.662619	0.261519
C166	C	1.037729	1.162619	0.761519
C167	C	0.504476	0.599201	0.304439
C168	C	1.004476	1.099201	0.804439
H169	H	0.491215	0.703740	0.233592
H170	H	0.991215	1.203740	0.733592
H171	H	0.567019	0.709896	0.301874
H172	H	1.067019	1.209896	0.801874
H173	H	0.579586	0.621116	0.217270
H174	H	1.079586	1.121116	0.717270
H175	H	0.462589	0.640631	0.348688
H176	H	0.962589	1.140631	0.848688
H177	H	0.475233	0.551922	0.264038
H178	H	0.975233	1.051922	0.764038
O179	O	0.893306	0.548359	0.856618
O180	O	1.393306	1.048359	1.356618
C181	C	0.783732	0.662797	0.880844
C182	C	1.283732	1.162797	1.380844
C183	C	0.844496	0.599259	0.914134
C184	C	1.344496	1.099259	1.414134
H185	H	0.744244	0.703953	0.927328
H186	H	1.244244	1.203953	1.427328
H187	H	0.810804	0.710036	0.851550
H188	H	1.310804	1.210036	1.351550
H189	H	0.751135	0.621387	0.838995
H190	H	1.251135	1.121387	1.338995
H191	H	0.877114	0.640597	0.956013
H192	H	1.377114	1.140597	1.456013
H193	H	0.817379	0.552018	0.943382
H194	H	1.317379	1.052018	1.443382
H195	H	1.102431	0.329850	0.831783
H196	H	1.602431	0.829850	1.331783
O197	O	0.942616	1.190610	0.475712
O198	O	1.442616	1.690610	0.975712
C199	C	0.942415	1.325734	0.565389
C200	C	1.442415	1.825734	1.065389
C201	C	0.956974	1.222086	0.550705
C202	C	1.456974	1.722086	1.050705
H203	H	0.954002	1.351214	0.626023
H204	H	1.454002	1.851214	1.126023
H205	H	0.980581	1.351350	0.527366
H206	H	1.480581	1.851350	1.027366
H207	H	0.881824	1.351372	0.553652
H208	H	1.381824	1.851372	1.053652
H209	H	1.017544	1.196372	0.562449
H210	H	1.517544	1.696372	1.062449
H211	H	0.918760	1.196532	0.588722
H212	H	1.418760	1.696532	1.088722
O213	O	0.861872	0.770556	0.555957
O214	O	1.361872	1.270556	1.055957
C215	C	0.840557	0.625412	0.577104
C216	C	1.340557	1.125412	1.077104
C217	C	0.885024	0.677275	0.532700
C218	C	1.385024	1.177275	1.032700
H219	H	0.859247	0.549986	0.558306
H220	H	1.359247	1.049986	1.058306
H221	H	0.850854	0.643810	0.639072
H222	H	1.350854	1.143810	1.139072
H223	H	0.778603	0.644054	0.566770
H224	H	1.278603	1.144054	1.066770
H225	H	0.946991	0.658661	0.542971
H226	H	1.446991	1.158661	1.042971
H227	H	0.874664	0.658873	0.470747
H228	H	1.374664	1.158873	0.970747
H229	H	1.102453	0.329801	0.971203
H230	H	1.602453	0.829801	1.471203
