data_functionalizedCrystal
_audit_creation_method	'MofGen! by Chris Wilmer'
_symmetry_space_group_name_H-M	'P1'
_symmetry_Int_Tables_number	1
_symmetry_cell_setting	triclinic
loop_
_symmetry_equiv_pos_as_xyz
  x,y,z
_cell_length_a	19.288864
_cell_length_b	15.944545
_cell_length_c	17.766277
_cell_angle_alpha	89.991536
_cell_angle_beta	89.976791
_cell_angle_gamma	83.316209
loop_
_atom_site_label
_atom_site_type_symbol
_atom_site_fract_x
_atom_site_fract_y
_atom_site_fract_z
O1	O	0.921627	0.104784	-0.062839
O2	O	0.719403	0.118919	-0.062788
O3	O	0.826040	-0.010445	-0.062806
O4	O	0.814991	0.234148	-0.062821
O5	O	0.826021	-0.010451	0.062382
O6	O	0.719385	0.118913	0.062400
O7	O	0.921608	0.104777	0.062349
Cu8	Cu	0.820495	0.111844	0.073806
Cu9	Cu	0.820517	0.111852	-0.074244
O10	O	0.814972	0.234141	0.062367
C11	C	0.693516	0.118461	-0.000187
C12	C	0.616409	0.117096	-0.000167
C13	C	0.825573	-0.041740	-0.000211
C14	C	0.824200	-0.134982	-0.000209
C15	C	0.571911	0.193001	-0.000184
C16	C	0.499461	0.191718	-0.000192
C17	C	0.471512	0.114526	-0.000199
C18	C	0.516019	0.038611	-0.000178
C19	C	0.588468	0.039896	-0.000162
C20	C	0.363098	0.053847	-0.044080
C21	C	0.290650	0.052565	-0.044100
C22	C	0.248056	0.110560	-0.000244
C23	C	0.277917	0.169851	0.043622
C24	C	0.350366	0.171136	0.043638
C25	C	0.392954	0.113124	-0.000216
C26	C	0.124998	0.185079	-0.000269
C27	C	0.052547	0.183793	-0.000272
C28	C	0.069107	0.030684	-0.000266
C29	C	0.141556	0.031972	-0.000255
C30	C	0.169498	0.109172	-0.000260
C31	C	0.753999	-0.405344	-0.000206
C32	C	0.787854	-0.354885	-0.061939
C33	C	0.819304	-0.470606	-0.000229
C34	C	0.787852	-0.354919	0.061487
C35	C	0.821706	-0.305702	-0.000218
C36	C	0.853141	-0.421376	-0.062013
C37	C	0.853130	-0.421413	0.061469
C38	C	0.887032	-0.370988	-0.000280
C39	C	0.817918	-0.565603	-0.000236
C40	C	0.823096	-0.210708	-0.000216
C41	C	0.947495	0.105236	-0.000253
C42	C	1.024603	0.106601	-0.000278
C43	C	0.815439	0.265437	-0.000229
C44	C	0.816812	0.358678	-0.000237
N45	N	0.820484	0.111838	0.177936
N46	N	0.820533	0.111851	-0.178375
C47	C	0.867718	0.054584	0.217315
C48	C	0.867722	0.054580	0.296117
C49	C	0.820499	0.111845	0.335537
C50	C	0.773256	0.169104	0.296148
C51	C	0.773249	0.169101	0.217348
C52	C	0.811400	0.188379	0.460371
C53	C	0.811412	0.188383	0.539170
C54	C	0.820517	0.111855	0.578583
C55	C	0.829625	0.035320	0.539187
C56	C	0.829618	0.035316	0.460387
C57	C	0.820501	0.111855	0.420982
C58	C	0.867758	0.054592	0.703408
C59	C	0.867758	0.054587	0.782211
C60	C	0.773295	0.169118	0.782241
C61	C	0.773292	0.169116	0.703439
C62	C	0.820528	0.111853	0.664027
H63	H	0.594656	0.255863	-0.000189
H64	H	0.880678	-0.450472	0.113648
H65	H	0.463224	0.253531	-0.000204
H66	H	0.804001	0.250703	0.571240
Br67	Br	0.709198	0.246826	0.835732
Br68	Br	0.390891	0.251595	0.103170
Br69	Br	0.741903	-0.306482	-0.148908
H70	H	0.243238	0.217075	0.079334
H71	H	0.943317	-0.355714	-0.000329
H72	H	0.624699	-0.021917	-0.000149
Br73	Br	0.931860	-0.023129	0.835658
Br74	Br	0.660263	-0.431076	-0.000278
H75	H	0.734833	0.215741	0.671375
Br76	Br	0.899089	-0.469554	-0.149097
Br77	Br	0.741854	-0.306550	0.148470
Br78	Br	0.931819	-0.023129	0.163827
Br79	Br	0.931830	-0.023130	0.349569
H80	H	0.147749	0.247940	-0.000262
Br81	Br	0.799112	0.292250	0.406890
Br82	Br	0.841971	-0.068547	0.406923
Br83	Br	0.931860	-0.023123	0.649918
Br84	Br	0.841991	-0.068547	0.592665
H85	H	0.734805	0.215729	0.328248
Br86	Br	0.709140	0.246808	0.163900
H87	H	0.046351	-0.032167	-0.000318
Br88	Br	-0.007846	0.286817	-0.000288
H89	H	0.266342	0.004291	-0.079822
Br90	Br	0.201951	-0.071047	-0.000234
Br91	Br	0.420897	-0.024870	-0.103601
Br92	Br	0.478090	-0.066150	-0.000180
