data_functionalizedCrystal
_audit_creation_method	'MofGen! by Chris Wilmer'
_symmetry_space_group_name_H-M	'P1'
_symmetry_Int_Tables_number	1
_symmetry_cell_setting	triclinic
loop_
_symmetry_equiv_pos_as_xyz
  x,y,z
_cell_length_a	16.625547
_cell_length_b	16.120484
_cell_length_c	16.625539
_cell_angle_alpha	92.868615
_cell_angle_beta	89.975178
_cell_angle_gamma	92.925712
loop_
_atom_site_label
_atom_site_type_symbol
_atom_site_fract_x
_atom_site_fract_y
_atom_site_fract_z
Zn1	Zn	1.216387	-0.331907	-0.472258
Zn2	Zn	1.549720	0.001426	-0.138925
Zn3	Zn	1.883053	0.334759	0.194408
Zn4	Zn	1.209446	-0.471332	-0.344255
Zn5	Zn	1.542779	-0.137998	-0.010922
Zn6	Zn	1.876112	0.195335	0.322412
Zn7	Zn	1.081547	-0.331936	-0.337430
Zn8	Zn	1.414881	0.001397	-0.004097
Zn9	Zn	1.748214	0.334730	0.329236
Zn10	Zn	1.074677	-0.471281	-0.479032
Zn11	Zn	1.408010	-0.137948	-0.145699
Zn12	Zn	1.741344	0.195386	0.187634
O13	O	1.145514	-0.401614	-0.408244
O14	O	1.478847	-0.068281	-0.074911
O15	O	1.812181	0.265053	0.258423
O16	O	1.328298	-0.350411	-0.455300
O17	O	1.661631	-0.017078	-0.121966
O18	O	1.994965	0.316255	0.211367
O19	O	1.192450	-0.452874	-0.230519
O20	O	1.525783	-0.119540	0.102815
O21	O	1.859116	0.213793	0.436148
O22	O	1.105214	-0.215267	-0.349625
O23	O	1.438547	0.118067	-0.016291
O24	O	1.771881	0.451400	0.317042
O25	O	1.323198	-0.452846	-0.361256
O26	O	1.656532	-0.119512	-0.027923
O27	O	1.989865	0.213821	0.305411
O28	O	1.204280	-0.215245	-0.448682
O29	O	1.537614	0.118088	-0.115349
O30	O	1.870947	0.451421	0.217985
O31	O	1.098483	-0.350461	-0.225505
O32	O	1.431817	-0.017127	0.107829
O33	O	1.765150	0.316206	0.441162
O34	O	0.967804	-0.350412	-0.356193
O35	O	1.301137	-0.017078	-0.022860
O36	O	1.634471	0.316255	0.310474
O37	O	1.093505	-0.452759	-0.590964
O38	O	1.426838	-0.119426	-0.257631
O39	O	1.760172	0.213907	0.075702
O40	O	0.962756	-0.452787	-0.460227
O41	O	1.296090	-0.119454	-0.126894
O42	O	1.629423	0.213879	0.206439
O43	O	1.197618	-0.350362	-0.585988
O44	O	1.530952	-0.017029	-0.252654
O45	O	1.864285	0.316305	0.080679
O46	O	1.185788	-0.587991	-0.367824
O47	O	1.519121	-0.254657	-0.034491
O48	O	1.852455	0.078676	0.298842
O49	O	1.086774	-0.587953	-0.466845
O50	O	1.420108	-0.254620	-0.133511
O51	O	1.753441	0.078713	0.199822
C52	C	0.936024	-0.401598	-0.408205
C53	C	1.269357	-0.068264	-0.074872
C54	C	1.602691	0.265069	0.258462
C55	C	0.846402	-0.401611	-0.408209
C56	C	1.179736	-0.068278	-0.074875
C57	C	1.513069	0.265056	0.258458
C58	C	0.773620	-0.401613	-0.408219
C59	C	1.106953	-0.068279	-0.074885
C60	C	1.440286	0.265054	0.258448
C61	C	0.682311	-0.401617	-0.408239
C62	C	1.015644	-0.068284	-0.074906
C63	C	1.348978	0.265050	0.258428
C64	C	0.609534	-0.401625	-0.408260
C65	C	0.942868	-0.068291	-0.074927
C66	C	1.276201	0.265042	0.258407
C67	C	0.518220	-0.401630	-0.408279
C68	C	0.851553	-0.068297	-0.074946
C69	C	1.184886	0.265036	0.258387
C70	C	1.134804	-0.618222	-0.418828
C71	C	1.468138	-0.284889	-0.085494
C72	C	1.801471	0.048445	0.247839
C73	C	1.130296	-0.710888	-0.423383
C74	C	1.463630	-0.377555	-0.090049
C75	C	1.796963	-0.044221	0.243284
C76	C	1.122071	-0.880550	-0.431715
C77	C	1.455404	-0.547216	-0.098382
C78	C	1.788737	-0.213883	0.234952
C79	C	1.169102	-0.921838	-0.384786
C80	C	1.502435	-0.588504	-0.051453
C81	C	1.835769	-0.255171	0.281880
C82	C	1.164525	-1.016243	-0.389422
C83	C	1.497859	-0.682910	-0.056089
C84	C	1.831192	-0.349577	0.277244
C85	C	1.126646	-0.786136	-0.427080
C86	C	1.459980	-0.452802	-0.093746
C87	C	1.793313	-0.119469	0.239587
C88	C	1.355822	-0.401631	-0.408283
C89	C	1.689156	-0.068297	-0.074950
C90	C	2.022489	0.265036	0.258383
C91	C	1.445443	-0.401638	-0.408300
C92	C	1.778776	-0.068305	-0.074967
C93	C	2.112110	0.265029	0.258366
C94	C	1.145570	-0.401552	-0.618550
C95	C	1.478903	-0.068219	-0.285217
C96	C	1.812236	0.265115	0.048117
C97	C	1.145593	-0.401525	-0.708170
C98	C	1.478927	-0.068192	-0.374836
C99	C	1.812260	0.265141	-0.041503
C100	C	1.156288	-0.184160	-0.397636
C101	C	1.489621	0.149173	-0.064303
C102	C	1.822954	0.482507	0.269030
C103	C	1.160879	-0.091494	-0.393116
C104	C	1.494212	0.241839	-0.059783
C105	C	1.827546	0.575173	0.273550
C106	C	1.145635	-0.401432	-1.036341
C107	C	1.478968	-0.068099	-0.703008
C108	C	1.812302	0.265235	-0.369674
C109	C	1.145621	-0.401461	-0.945034
C110	C	1.478954	-0.068127	-0.611701
C111	C	1.812288	0.265206	-0.278367
C112	C	1.145615	-0.401479	-0.872258
C113	C	1.478948	-0.068146	-0.538925
C114	C	1.812281	0.265187	-0.205592
C115	C	1.145600	-0.401507	-0.780945
C116	C	1.478933	-0.068173	-0.447612
C117	C	1.812266	0.265160	-0.114279
C118	C	1.145508	-0.401616	-0.198753
C119	C	1.478842	-0.068282	0.134580
C120	C	1.812175	0.265051	0.467913
C121	C	1.145652	-0.401407	-0.109122
C122	C	1.478986	-0.068074	0.224211
C123	C	1.812319	0.265259	0.557544
H124	H	1.212804	-0.886285	-0.341127
H125	H	1.546137	-0.552951	-0.007794
H126	H	1.879470	-0.219618	0.325540
H127	H	1.078372	-0.916100	-0.475370
H128	H	1.411705	-0.582767	-0.142036
H129	H	1.745038	-0.249434	0.191297
