data_functionalizedCrystal
_audit_creation_method	'MofGen! by Chris Wilmer'
_symmetry_space_group_name_H-M	'P1'
_symmetry_Int_Tables_number	1
_symmetry_cell_setting	triclinic
loop_
_symmetry_equiv_pos_as_xyz
  x,y,z
_cell_length_a	15.538191
_cell_length_b	15.995350
_cell_length_c	14.185292
_cell_angle_alpha	103.153975
_cell_angle_beta	82.120536
_cell_angle_gamma	65.382234
loop_
_atom_site_label
_atom_site_type_symbol
_atom_site_fract_x
_atom_site_fract_y
_atom_site_fract_z
O1	O	1.228531	-0.246456	0.083444
O2	O	0.954273	-0.149777	0.083439
O3	O	1.098899	-0.322283	0.083441
O4	O	1.083905	-0.073950	0.083443
O5	O	1.141637	-0.373248	-0.083401
O6	O	0.997011	-0.200742	-0.083402
O7	O	1.271269	-0.297420	-0.083398
Cu8	Cu	1.138042	-0.253735	-0.098634
Cu9	Cu	1.087500	-0.193463	0.098676
O10	O	1.126643	-0.124915	-0.083399
C11	C	0.940547	-0.165144	0.000018
C12	C	0.835973	-0.135015	0.000016
C13	C	1.119648	-0.378771	0.000022
C14	C	1.117788	-0.471155	0.000028
C15	C	0.548179	-0.434345	0.000030
C16	C	0.449913	-0.406012	0.000031
C17	C	0.427470	-0.246646	0.000032
C18	C	0.525737	-0.274967	0.000026
C19	C	0.586084	-0.368817	0.000026
C20	C	0.563643	-0.209439	0.000022
C21	C	0.661900	-0.237757	0.000021
C22	C	0.722252	-0.331602	0.000025
C23	C	0.684342	-0.397135	0.000026
C24	C	0.503292	-0.115587	0.000029
C25	C	0.541197	-0.050060	0.000025
C26	C	0.639458	-0.078379	0.000017
C27	C	0.699811	-0.172225	0.000021
C28	C	0.677369	-0.012847	0.000016
C29	C	0.775626	-0.041165	0.000016
C30	C	0.798068	-0.200542	0.000020
C31	C	1.111115	-0.806875	0.000024
C32	C	1.008019	-0.728023	0.000397
C33	C	1.009974	-0.632013	0.000021
C34	C	1.114425	-0.640320	0.000026
C35	C	1.189633	-0.725940	-0.095246
C36	C	1.187066	-0.821814	-0.095326
C37	C	1.140593	-0.764862	0.094405
C38	C	1.140246	-0.667525	0.095664
C39	C	1.116302	-0.546193	0.000024
C40	C	1.109243	-0.901005	0.000019
C41	C	1.284995	-0.282052	0.000026
C42	C	1.389566	-0.312180	0.000034
C43	C	1.105893	-0.068426	0.000022
C44	C	1.107752	0.023960	0.000023
N45	N	1.173598	-0.296129	-0.237411
C46	C	1.278026	-0.420622	-0.394936
C47	C	1.251096	-0.388524	-0.289910
C48	C	1.122995	-0.235799	-0.289927
C49	C	1.149911	-0.267886	-0.394955
C50	C	1.227428	-0.360298	-0.447451
C51	C	1.099313	-0.207563	-0.447470
C52	C	1.126231	-0.239646	-0.552490
C53	C	1.203746	-0.332053	-0.604993
C54	C	1.254346	-0.392382	-0.552470
C55	C	1.021802	-0.115148	-0.394972
C56	C	0.971204	-0.054825	-0.447488
C57	C	0.998116	-0.086910	-0.552509
C58	C	1.075632	-0.179318	-0.605012
C59	C	0.947517	-0.026582	-0.605032
C60	C	0.974435	-0.058665	-0.710051
C61	C	1.102549	-0.211401	-0.710032
N62	N	1.051951	-0.151077	0.237453
H63	H	0.847208	-0.276967	0.000014
O64	O	0.613285	-0.535575	0.000013
H65	H	0.641180	-0.531520	0.068008
H66	H	1.263793	-0.878364	-0.099644
O67	O	0.612268	0.088372	0.000017
H68	H	0.608323	0.141922	0.068022
O69	O	0.919862	0.006399	-0.766696
H70	H	0.951612	-0.031433	-0.848542
O71	O	0.828236	-0.362160	0.000011
H72	H	0.831896	-0.314457	0.068005
O73	O	0.863898	0.073080	-0.548408
H74	H	0.853674	0.085250	-0.466559
O75	O	1.162159	-0.859963	-0.189665
H76	H	1.160088	-0.928683	-0.190662
O77	O	0.749444	-0.498361	0.000024
H78	H	0.706581	-0.539173	0.000029
O79	O	1.292482	-0.739549	-0.099944
H80	H	1.339887	-0.813675	-0.098899
O81	O	0.816524	0.029502	0.000001
H82	H	0.758058	0.099515	-0.000012
H83	H	1.059883	-0.160554	-0.247172
H84	H	1.172510	-0.708493	-0.166148
O85	O	0.476108	0.051162	0.000025
H86	H	0.507012	0.063160	-0.067978
O87	O	0.933890	-0.550641	0.090468
H88	H	0.895362	-0.579668	0.134871
H89	H	0.419056	-0.459379	0.000036
O90	O	0.362385	-0.145428	0.000017
H91	H	0.287694	-0.136747	0.000008
O92	O	1.071484	-0.749281	0.190063
H93	H	1.015349	-0.771311	0.171400
H94	H	0.987295	-0.612828	-0.068392
H95	H	0.949350	-0.713173	0.068718
O96	O	0.976778	-0.764950	-0.089606
H97	H	1.034361	-0.839219	-0.134604
O98	O	0.397315	-0.085047	0.000024
H99	H	0.361717	-0.008776	0.000035
H100	H	1.085048	-0.607458	0.166144
O101	O	1.239192	-0.675522	0.103298
H102	H	1.271658	-0.660169	0.038753
O103	O	1.240969	-0.837232	0.095266
H104	H	1.235504	-0.857621	0.164766
O105	O	1.186159	-0.311075	-0.766663
H106	H	1.169003	-0.366556	-0.746511
O107	O	1.232790	-0.366661	-0.718265
H108	H	1.224841	-0.433111	-0.745963
H109	H	1.317461	-0.467637	-0.595215
H110	H	1.341141	-0.495877	-0.437680
H111	H	1.292307	-0.437654	-0.247157
H112	H	0.999891	-0.089028	-0.309459
H113	H	0.908091	0.020420	-0.404733
