data_functionalizedCrystal
_audit_creation_method	'MofGen! by Chris Wilmer'
_symmetry_space_group_name_H-M	'P1'
_symmetry_Int_Tables_number	1
_symmetry_cell_setting	triclinic
loop_
_symmetry_equiv_pos_as_xyz
  x,y,z
_cell_length_a	8.634740
_cell_length_b	10.967829
_cell_length_c	9.483290
_cell_angle_alpha	88.375869
_cell_angle_beta	98.956098
_cell_angle_gamma	92.462803
loop_
_atom_site_label
_atom_site_type_symbol
_atom_site_fract_x
_atom_site_fract_y
_atom_site_fract_z
O1	O	2.011831	0.372006	-0.214068
O2	O	2.345165	0.705339	0.119265
O3	O	2.678498	1.038672	0.452598
O4	O	1.563996	0.339203	-0.205855
O5	O	1.897330	0.672537	0.127478
O6	O	2.230663	1.005870	0.460812
O7	O	1.806090	0.182368	-0.166559
O8	O	2.139423	0.515701	0.166775
O9	O	2.472757	0.849035	0.500108
O10	O	1.769738	0.528841	-0.253365
O11	O	2.103071	0.862174	0.079968
O12	O	2.436404	1.195508	0.413302
O13	O	1.847875	0.220706	0.065613
O14	O	2.181209	0.554039	0.398946
O15	O	2.514542	0.887372	0.732279
O16	O	1.605782	0.377541	0.026316
O17	O	1.939115	0.710874	0.359649
O18	O	2.272448	1.044207	0.692983
O19	O	2.053617	0.410343	0.018103
O20	O	2.386950	0.743676	0.351436
O21	O	2.720283	1.077010	0.684769
Cu22	Cu	1.833514	0.397442	0.043409
Cu23	Cu	2.166848	0.730776	0.376742
Cu24	Cu	2.500181	1.064109	0.710075
Cu25	Cu	1.784099	0.352104	-0.231161
Cu26	Cu	2.117432	0.685437	0.102173
Cu27	Cu	2.450765	1.018771	0.435506
O28	O	1.811523	0.567178	-0.021194
O29	O	2.144856	0.900512	0.312140
O30	O	2.478190	1.233845	0.645473
C31	C	1.527692	0.350941	-0.087908
C32	C	1.861025	0.684274	0.245425
C33	C	2.194359	1.017608	0.578758
C34	C	1.357263	0.328785	-0.082360
C35	C	1.690597	0.662118	0.250974
C36	C	2.023930	0.995452	0.584307
C37	C	1.827495	0.156720	-0.039248
C38	C	2.160828	0.490053	0.294086
C39	C	2.494161	0.823386	0.627419
C40	C	1.829002	0.023176	-0.005799
C41	C	2.162335	0.356509	0.327535
C42	C	2.495669	0.689843	0.660868
C43	C	1.808028	-0.056216	-0.111159
C44	C	2.141361	0.277117	0.222174
C45	C	2.474695	0.610451	0.555508
C46	C	1.809585	-0.194240	-0.076590
C47	C	2.142919	0.139093	0.256743
C48	C	2.476252	0.472426	0.590076
C49	C	2.089920	0.398605	-0.099847
C50	C	2.423254	0.731938	0.233486
C51	C	2.756587	1.065271	0.566820
C52	C	2.260347	0.420759	-0.105405
C53	C	2.593681	0.754093	0.227928
C54	C	2.927014	1.087426	0.561262
C55	C	1.790118	0.592826	-0.148508
C56	C	2.123451	0.926160	0.184826
C57	C	2.456784	1.259493	0.518159
C58	C	1.788609	0.726368	-0.181966
C59	C	2.121942	1.059702	0.151367
C60	C	2.455275	1.393035	0.484701
N61	N	1.868282	0.429332	0.236526
N62	N	2.201615	0.762665	0.569859
N63	N	2.534949	1.095998	0.903192
N64	N	1.749343	0.320207	-0.424276
N65	N	2.082677	0.653540	-0.090943
N66	N	2.416010	0.986873	0.242391
C67	C	1.794336	0.361502	0.325748
C68	C	2.127669	0.694835	0.659081
C69	C	2.461002	1.028168	0.992414
C70	C	1.823301	0.388047	0.486503
C71	C	2.156634	0.721380	0.819837
C72	C	2.489967	1.054713	1.153170
H73	H	1.309848	0.233086	-0.058421
H74	H	1.643181	0.566419	0.274913
H75	H	1.976514	0.899752	0.608246
H76	H	1.709578	0.283782	0.283121
H77	H	2.042912	0.617116	0.616454
H78	H	2.376245	0.950449	0.949788
H79	H	1.788911	-0.022003	-0.226954
H80	H	2.122245	0.311331	0.106380
H81	H	2.455578	0.644664	0.439713
H82	H	1.908049	0.465780	0.529121
H83	H	2.241382	0.799114	0.862454
H84	H	2.574716	1.132447	1.195788
H85	H	1.769479	-0.239426	-0.297769
H86	H	2.102812	0.093907	0.035564
H87	H	2.436146	0.427240	0.368897
H88	H	1.307765	0.516461	-0.129372
H89	H	1.641098	0.849794	0.203961
H90	H	1.974432	1.183127	0.537294
H91	H	1.828687	-0.228448	0.039212
H92	H	2.162020	0.104885	0.372546
H93	H	2.495353	0.438219	0.705879
H94	H	1.848102	-0.011037	0.109996
H95	H	2.181435	0.322296	0.443330
H96	H	2.514769	0.655629	0.776663
H97	H	1.664577	0.242484	0.533106
H98	H	1.997910	0.575817	0.866439
H99	H	2.331243	0.909151	1.199772
H100	H	1.953025	0.507060	0.279150
H101	H	2.286358	0.840394	0.612483
H102	H	2.619692	1.173727	0.945817
