data_functionalizedCrystal
_audit_creation_method	'MofGen! by Chris Wilmer'
_symmetry_space_group_name_H-M	'P1'
_symmetry_Int_Tables_number	1
_symmetry_cell_setting	triclinic
loop_
_symmetry_equiv_pos_as_xyz
  x,y,z
_cell_length_a	19.288859
_cell_length_b	19.288859
_cell_length_c	18.366186
_cell_angle_alpha	89.994011
_cell_angle_beta	89.990083
_cell_angle_gamma	83.133726
loop_
_atom_site_label
_atom_site_type_symbol
_atom_site_fract_x
_atom_site_fract_y
_atom_site_fract_z
O1	O	0.921354	0.086628	-0.060564
O2	O	0.719092	0.098322	-0.060562
O3	O	0.826069	-0.008656	-0.060558
O4	O	0.814376	0.193606	-0.060567
O5	O	0.826051	-0.008661	0.060541
O6	O	0.719074	0.098317	0.060538
O7	O	0.921335	0.086623	0.060536
Zn8	Zn	0.820202	0.092469	0.079764
Zn9	Zn	0.820226	0.092476	-0.079790
O10	O	0.814358	0.193601	0.060532
C11	C	0.693206	0.097944	-0.000012
C12	C	0.616103	0.096816	-0.000011
C13	C	0.052061	0.151960	-0.000015
C14	C	0.124507	0.153025	-0.000018
C15	C	0.169215	0.090256	-0.000014
C16	C	0.141472	0.026416	-0.000025
C17	C	0.069026	0.025353	-0.000029
C18	C	0.290480	0.043441	0.042417
C19	C	0.362924	0.044507	0.042425
C20	C	0.392661	0.093533	-0.000007
C21	C	0.349944	0.141505	-0.042437
C22	C	0.277499	0.140442	-0.042441
C23	C	0.247771	0.091402	-0.000011
C24	C	0.498951	0.158524	-0.000006
C25	C	0.571399	0.159586	-0.000014
C26	C	0.588363	0.032976	-0.000013
C27	C	0.515916	0.031915	-0.000012
C28	C	0.471214	0.094691	-0.000005
C29	C	0.825685	-0.034535	-0.000009
C30	C	0.824558	-0.111639	-0.000011
C31	C	0.879701	-0.675680	-0.000030
C32	C	0.880766	-0.603234	-0.000024
C33	C	0.817997	-0.558526	-0.000023
C34	C	0.754157	-0.586269	-0.000011
C35	C	0.753094	-0.658715	-0.000010
C36	C	0.771190	-0.437249	-0.042448
C37	C	0.772256	-0.364806	-0.042453
C38	C	0.821274	-0.335080	-0.000023
C39	C	0.869238	-0.377809	0.042404
C40	C	0.868175	-0.450254	0.042405
C41	C	0.819143	-0.479970	-0.000024
C42	C	0.886265	-0.228790	-0.000023
C43	C	0.887328	-0.156342	-0.000012
C44	C	0.760717	-0.139378	-0.000007
C45	C	0.759656	-0.211825	-0.000010
C46	C	0.822432	-0.256527	-0.000022
C47	C	0.947221	0.087001	-0.000016
C48	C	1.024325	0.088129	-0.000021
C49	C	0.814743	0.219480	-0.000018
C50	C	0.815870	0.296584	-0.000022
N51	N	0.820191	0.092464	0.188655
N52	N	0.820242	0.092476	-0.188681
C53	C	0.867576	0.045118	0.226757
C54	C	0.867580	0.045114	0.302985
C55	C	0.820206	0.092470	0.341108
C56	C	0.772812	0.139820	0.302997
C57	C	0.772804	0.139817	0.226770
C58	C	0.810906	0.155758	0.461865
C59	C	0.810919	0.155762	0.538090
C60	C	0.820226	0.092478	0.576215
C61	C	0.829535	0.029188	0.538106
C62	C	0.829527	0.029186	0.461879
C63	C	0.820209	0.092478	0.423762
C64	C	0.867618	0.045125	0.696972
C65	C	0.867618	0.045121	0.773201
C66	C	0.772853	0.139832	0.773212
C67	C	0.772850	0.139830	0.696984
C68	C	0.820236	0.092477	0.658869
H69	H	0.374154	0.181429	-0.076987
H70	H	0.803343	0.207296	0.569113
H71	H	0.906158	0.006558	0.195726
Cl72	Cl	0.416617	-0.015795	0.095771
H73	H	0.906168	0.006558	0.334013
Cl74	Cl	0.927185	-0.014408	0.649055
H75	H	0.734238	0.178376	0.334040
Cl76	Cl	0.711965	-0.311098	-0.095796
H77	H	0.906202	0.006562	0.804224
Cl78	Cl	0.713281	0.199358	0.649080
H79	H	0.703050	-0.549863	-0.000009
H80	H	0.266276	0.003514	0.076971
Cl81	Cl	0.841221	-0.050375	0.413973
Cl82	Cl	0.197675	-0.052494	-0.000023
H83	H	0.731265	-0.461444	-0.076995
Cl84	Cl	0.672842	-0.693584	-0.000001
Cl85	Cl	0.713292	0.199359	0.821132
H86	H	0.837113	-0.022343	0.569145
H87	H	0.803316	0.207294	0.430830
Cl88	Cl	0.159384	0.233276	-0.000008
H89	H	0.734217	0.178373	0.195747
H90	H	0.493334	-0.020063	-0.000014
H91	H	0.593980	0.211567	-0.000014
Cl92	Cl	0.223801	0.200742	-0.095784
Cl93	Cl	-0.004132	0.230878	-0.000015
H94	H	0.707678	-0.234407	-0.000009
Cl95	Cl	0.442752	0.237440	0.000001
H96	H	0.046445	-0.026628	-0.000034
Cl97	Cl	0.961017	-0.568357	-0.000026
H98	H	0.624764	-0.018133	-0.000016
H99	H	0.930818	-0.712073	-0.000036
Cl100	Cl	0.930867	-0.340449	0.095747
Cl101	Cl	0.965182	-0.284989	-0.000033
Cl102	Cl	0.928465	-0.503966	0.095743
H103	H	0.939309	-0.133762	-0.000014
Cl104	Cl	0.681805	-0.083181	0.000004
