data_functionalizedCrystal
_audit_creation_method	'MofGen! by Chris Wilmer'
_symmetry_space_group_name_H-M	'P1'
_symmetry_Int_Tables_number	1
_symmetry_cell_setting	triclinic
loop_
_symmetry_equiv_pos_as_xyz
  x,y,z
_cell_length_a	6.817900
_cell_length_b	17.982959
_cell_length_c	17.110486
_cell_angle_alpha	96.531630
_cell_angle_beta	99.060439
_cell_angle_gamma	102.451857
loop_
_atom_site_label
_atom_site_type_symbol
_atom_site_fract_x
_atom_site_fract_y
_atom_site_fract_z
V1	V	-3.971755	-0.105185	-0.247050
V2	V	-3.471755	0.394815	0.252950
O3	O	-3.965632	0.005288	-0.242007
O4	O	-3.465632	0.505288	0.257993
O5	O	-3.918535	-0.208789	-0.245687
O6	O	-3.418535	0.291211	0.254313
O7	O	-3.901697	-0.103465	-0.354648
O8	O	-3.401697	0.396535	0.145352
O9	O	-3.982586	-0.100766	-0.132292
O10	O	-3.482586	0.399234	0.367708
V11	V	-4.458814	-0.091984	-0.233284
V12	V	-3.958814	0.408016	0.266716
O13	O	-4.225257	-0.134145	-0.277246
O14	O	-3.725257	0.365855	0.222754
O15	O	-4.655509	-0.063024	-0.203088
O16	O	-4.155509	0.436976	0.296912
O17	O	-4.288827	0.011620	-0.234647
O18	O	-3.788827	0.511620	0.265353
O19	O	-4.582334	-0.202457	-0.238327
O20	O	-4.082334	0.297543	0.261673
O21	O	-4.565379	-0.096403	-0.348042
O22	O	-4.065379	0.403597	0.151958
O23	O	-4.305665	-0.093704	-0.125686
O24	O	-3.805665	0.406296	0.374314
C25	C	-3.763064	-0.234049	-0.241874
C26	C	-3.263064	0.265951	0.258126
C27	C	-3.800692	-0.318746	-0.241477
C28	C	-3.300692	0.181254	0.258523
C29	C	-3.999490	-0.362414	-0.245250
C30	C	-3.499490	0.137586	0.254750
C31	C	-4.034836	-0.441996	-0.244882
C32	C	-3.534836	0.058004	0.255118
C33	C	-3.871380	-0.477908	-0.240735
C34	C	-3.371380	0.022092	0.259265
C35	C	-3.672566	-0.434235	-0.236965
C36	C	-3.172566	0.065765	0.263035
C37	C	-3.637225	-0.354655	-0.237339
C38	C	-3.137225	0.145345	0.262661
C39	C	-3.815090	-0.755172	-0.235457
C40	C	-3.315090	-0.255172	0.264543
C41	C	-3.850447	-0.834758	-0.235081
C42	C	-3.350447	-0.334758	0.264919
C43	C	-4.212701	-0.842513	-0.243001
C44	C	-3.712701	-0.342513	0.256999
C45	C	-4.177360	-0.762933	-0.243375
C46	C	-3.677360	-0.262933	0.256625
C47	C	-3.978552	-0.719267	-0.239608
C48	C	-3.478552	-0.219267	0.260392
C49	C	-3.940229	-0.632976	-0.240009
C50	C	-3.440229	-0.132976	0.259991
C51	C	-3.909698	-0.564198	-0.240329
C52	C	-3.409698	-0.064198	0.259671
C53	C	-3.741585	-0.099696	-0.380863
C54	C	-3.241585	0.400304	0.119137
C55	C	-3.765556	-0.098975	-0.468827
C56	C	-3.265556	0.401025	0.031173
C57	C	-3.957928	-0.102439	-0.514196
C58	C	-3.457928	0.397561	-0.014196
C59	C	-3.980439	-0.101761	-0.596847
C60	C	-3.480439	0.398239	-0.096847
C61	C	-3.810580	-0.097625	-0.634129
C62	C	-3.310580	0.402375	-0.134129
C63	C	-3.618191	-0.094158	-0.588753
C64	C	-3.118191	0.405842	-0.088753
C65	C	-3.595679	-0.094831	-0.506103
C66	C	-3.095679	0.405169	-0.006103
C67	C	-3.869488	-0.095399	-0.883477
C68	C	-3.369488	0.404601	-0.383477
C69	C	-3.892016	-0.094729	-0.966133
C70	C	-3.392016	0.405271	-0.466133
C71	C	-4.254263	-0.102330	-0.974221
C72	C	-3.754263	0.397670	-0.474221
C73	C	-4.231736	-0.103007	-0.891569
C74	C	-3.731736	0.396993	-0.391569
C75	C	-4.039349	-0.099536	-0.846201
C76	C	-3.539349	0.400464	-0.346201
C77	C	-3.833587	-0.096934	-0.718612
C78	C	-3.333587	0.403066	-0.218612
C79	C	-4.016341	-0.100222	-0.761718
C80	C	-3.516341	0.399778	-0.261718
C81	C	-4.107641	0.036876	-0.238458
C82	C	-3.607641	0.536876	0.261542
C83	C	-4.049249	0.121572	-0.238860
C84	C	-3.549249	0.621572	0.261140
C85	C	-4.129120	-0.097475	-0.099467
C86	C	-3.629120	0.402525	0.400533
C87	C	-4.084388	-0.098192	-0.011502
C88	C	-3.584388	0.401808	0.488498
H89	H	-3.717330	-0.863995	-0.231710
H90	H	-3.217330	-0.363995	0.268290
Cl91	Cl	-3.627642	-0.091057	-0.826456
Cl92	Cl	-3.127642	0.408943	-0.326456
H93	H	-4.154638	-0.103587	-0.731360
H94	H	-3.654638	0.396413	-0.231360
H95	H	-3.479888	-0.090786	-0.619114
H96	H	-2.979888	0.409214	-0.119114
Cl97	Cl	-4.171485	-0.107644	-0.467337
Cl98	Cl	-3.671485	0.392356	0.032663
H99	H	-3.439022	-0.091992	-0.469161
H100	H	-2.939022	0.408008	0.030839
H101	H	-3.539481	-0.463482	-0.233593
H102	H	-3.039481	0.036518	0.266407
Cl103	Cl	-3.565161	-0.700288	-0.230716
Cl104	Cl	-3.065161	-0.200288	0.269284
Cl105	Cl	-4.204995	-0.317275	-0.250461
Cl106	Cl	-3.704995	0.182725	0.249539
Cl107	Cl	-4.284763	-0.496889	-0.249623
Cl108	Cl	-3.784763	0.003111	0.250377
Cl109	Cl	-4.382855	-0.717789	-0.248577
Cl110	Cl	-3.882855	-0.217789	0.251423
Cl111	Cl	-4.462638	-0.897412	-0.247738
Cl112	Cl	-3.962638	-0.397412	0.252262
Cl113	Cl	-3.387299	-0.299759	-0.232600
Cl114	Cl	-2.887299	0.200241	0.267400
Cl115	Cl	-4.222293	-0.106126	-0.653880
Cl116	Cl	-3.722293	0.393874	-0.153880
Cl117	Cl	-4.445288	-0.108210	-0.844708
Cl118	Cl	-3.945288	0.391790	-0.344708
H119	H	-3.695292	-0.093569	-0.748976
H120	H	-3.195292	0.406431	-0.248976
Cl121	Cl	-4.496107	-0.106689	-1.031259
Cl122	Cl	-3.996107	0.393311	-0.531259
H123	H	-3.753684	-0.091358	-0.996485
H124	H	-3.253684	0.408642	-0.496485
