data_functionalizedCrystal
_audit_creation_method	'MofGen! by Chris Wilmer'
_symmetry_space_group_name_H-M	'P1'
_symmetry_Int_Tables_number	1
_symmetry_cell_setting	triclinic
loop_
_symmetry_equiv_pos_as_xyz
  x,y,z
_cell_length_a	10.489716
_cell_length_b	19.188930
_cell_length_c	18.266242
_cell_angle_alpha	89.988608
_cell_angle_beta	89.991031
_cell_angle_gamma	83.836959
loop_
_atom_site_label
_atom_site_type_symbol
_atom_site_fract_x
_atom_site_fract_y
_atom_site_fract_z
O1	O	1.691880	0.098422	-0.060884
O2	O	1.320473	0.107686	-0.060888
O3	O	1.516894	0.001470	-0.060872
O4	O	1.495458	0.204638	-0.060901
O5	O	1.516860	0.001464	0.060890
O6	O	1.320439	0.107680	0.060874
O7	O	1.691845	0.098416	0.060878
Zn8	Zn	1.506137	0.103048	0.080208
Zn9	Zn	1.506182	0.103055	-0.080218
O10	O	1.495424	0.204633	0.060861
C11	C	1.272939	0.106987	-0.000007
C12	C	1.131355	0.104905	-0.000008
C13	C	1.516183	-0.024549	0.000011
C14	C	1.514099	-0.102067	0.000018
C15	C	1.032224	0.170040	-0.000019
C16	C	0.955631	0.135618	0.060024
C17	C	0.955672	0.135608	-0.060023
C18	C	1.056626	0.070510	0.060085
C19	C	1.056672	0.070510	-0.060017
C20	C	0.980129	0.036041	0.000041
C21	C	1.629353	-0.146225	0.000022
C22	C	1.627395	-0.219061	0.000011
C23	C	1.510177	-0.247738	0.000009
C24	C	1.394908	-0.203571	0.000000
C25	C	1.396869	-0.130735	0.000005
N26	N	1.420566	-0.356340	0.041446
N27	N	1.418711	-0.425531	0.041443
C28	C	1.504262	-0.467186	-0.000006
N29	N	1.591757	-0.437036	-0.041443
N30	N	1.593616	-0.367839	-0.041438
C31	C	1.508038	-0.326714	0.000004
C32	C	1.617401	-0.590321	-0.000015
C33	C	1.615438	-0.663159	-0.000031
C34	C	1.382948	-0.647667	-0.000035
C35	C	1.384914	-0.574831	-0.000026
C36	C	1.502144	-0.546163	-0.000012
C37	C	1.739379	0.099115	-0.000005
C38	C	1.880964	0.101198	-0.000009
C39	C	1.496135	0.230651	-0.000023
C40	C	1.498219	0.308170	-0.000034
N41	N	1.506115	0.103042	0.189695
C42	C	1.593118	0.056033	0.228011
C43	C	1.593126	0.056030	0.304656
C44	C	1.506142	0.103048	0.342982
C45	C	1.419122	0.150061	0.304657
C46	C	1.419109	0.150058	0.228013
N47	N	1.489561	0.164746	0.463306
N48	N	1.489582	0.164746	0.536114
C49	C	1.506175	0.103059	0.573904
N50	N	1.522773	0.041369	0.536137
N51	N	1.522759	0.041369	0.463322
C52	C	1.506146	0.103056	0.426089
C53	C	1.593191	0.056043	0.695328
C54	C	1.593190	0.056039	0.771974
C55	C	1.419192	0.150076	0.771973
C56	C	1.419188	0.150073	0.695328
C57	C	1.506194	0.103058	0.657010
N58	N	1.506204	0.103057	0.810295
H59	H	1.055627	0.226697	0.000029
H60	H	1.100543	0.043028	0.110897
C61	C	1.754188	-0.267643	0.000020
N62	N	1.849689	-0.304233	0.000030
H63	H	1.724810	-0.122888	0.000030
H64	H	0.911588	0.163120	-0.110778
H65	H	0.911519	0.163112	0.110777
H66	H	1.664035	0.017755	0.803171
H67	H	1.348346	0.188356	0.664129
H68	H	1.712856	-0.566979	-0.000008
H69	H	1.303013	-0.094782	0.000001
H70	H	1.663961	0.017749	0.196815
C71	C	1.265968	-0.235116	0.000004
N72	N	1.168847	-0.258875	0.000006
H73	H	1.663976	0.017748	0.335859
C74	C	1.116285	0.033394	-0.128586
N75	N	1.161180	0.005441	-0.180239
C76	C	0.948823	-0.040555	0.000101
N77	N	0.925237	-0.098245	0.000150
H78	H	1.348296	0.188343	0.335866
C79	C	1.742234	-0.711733	-0.000022
N80	N	1.837738	-0.748320	-0.000012
C81	C	1.254006	-0.679206	-0.000039
N82	N	1.156884	-0.702965	-0.000044
H83	H	1.291062	-0.538877	-0.000025
H84	H	1.348363	0.188356	0.803178
H85	H	1.348258	0.188339	0.196816
H86	H	1.664033	0.017758	0.664128
