data_functionalizedCrystal
_audit_creation_method	'MofGen! by Chris Wilmer'
_symmetry_space_group_name_H-M	'P1'
_symmetry_Int_Tables_number	1
_symmetry_cell_setting	triclinic
loop_
_symmetry_equiv_pos_as_xyz
  x,y,z
_cell_length_a	17.038272
_cell_length_b	17.038272
_cell_length_c	16.098538
_cell_angle_alpha	87.079695
_cell_angle_beta	87.069734
_cell_angle_gamma	88.888444
loop_
_atom_site_label
_atom_site_type_symbol
_atom_site_fract_x
_atom_site_fract_y
_atom_site_fract_z
O1	O	1.052033	-0.167266	-0.069152
O2	O	0.824222	-0.164557	-0.069177
O3	O	0.936773	-0.052006	-0.069158
O4	O	0.939482	-0.279817	-0.069171
O5	O	0.930197	-0.058553	0.069354
O6	O	0.817646	-0.171104	0.069335
O7	O	1.045456	-0.173813	0.069359
Zn8	Zn	0.930507	-0.173498	0.091339
Zn9	Zn	0.939172	-0.164872	-0.091156
O10	O	0.932905	-0.286364	0.069341
C11	C	0.791641	-0.165367	0.000076
C12	C	0.704358	-0.158019	0.000067
C13	C	0.658749	-0.225482	0.000064
C14	C	0.576737	-0.218574	0.000075
C15	C	0.540335	-0.144201	0.000085
C16	C	0.585950	-0.076733	0.000090
C17	C	0.667961	-0.083642	0.000084
C18	C	0.292946	-0.119792	0.000108
C19	C	0.210929	-0.112887	0.000112
C20	C	0.201722	-0.254729	0.000098
C21	C	0.283734	-0.261632	0.000088
C22	C	0.329342	-0.194164	0.000098
C23	C	0.456505	-0.137138	0.000094
C24	C	0.413170	-0.201228	0.000094
C25	C	0.931022	-0.025987	0.000097
C26	C	0.923674	0.061297	0.000096
C27	C	1.078037	-0.173002	0.000105
C28	C	1.165320	-0.180351	0.000108
C29	C	0.938656	-0.312383	0.000083
C30	C	0.946005	-0.399666	0.000079
N31	N	0.924599	-0.179385	0.215887
C32	C	0.991137	0.106906	0.000104
C33	C	0.984229	0.188918	0.000096
C34	C	0.909856	0.225320	0.000085
C35	C	0.842388	0.179705	0.000074
C36	C	0.849297	0.097694	0.000077
C37	C	0.885446	0.472708	0.000071
C38	C	0.878541	0.554725	0.000071
C39	C	1.020383	0.563932	0.000091
C40	C	1.027286	0.481920	0.000098
C41	C	0.959818	0.436312	0.000083
C42	C	0.902792	0.309149	0.000079
C43	C	0.966882	0.352485	0.000084
N44	N	0.945085	-0.158979	-0.215705
C45	C	0.972390	-0.131633	0.259480
C46	C	0.968265	-0.135759	0.346668
C47	C	0.916352	-0.187642	0.390262
C48	C	0.868556	-0.235395	0.346663
C49	C	0.872678	-0.231265	0.259476
C50	C	0.901410	-0.202602	0.653510
C51	C	0.897294	-0.206731	0.740702
C52	C	0.997003	-0.107093	0.740702
C53	C	1.001123	-0.102971	0.653513
C54	C	0.953324	-0.150721	0.609922
C55	C	0.912136	-0.191862	0.479383
C56	C	0.957536	-0.146496	0.520803
H57	H	0.539605	-0.273510	0.000072
H58	H	0.817975	0.584359	0.000075
O59	O	0.830597	0.344608	-0.000035
C60	C	0.825758	0.395141	-0.071785
H61	H	0.887435	0.412544	-0.095700
H62	H	0.795799	0.363636	-0.122017
C63	C	0.701875	0.448013	-0.020626
C64	C	0.777628	0.469394	-0.049995
H65	H	0.672183	0.493814	-0.007188
H66	H	0.705133	0.413966	0.027712
H67	H	0.676920	0.421758	-0.062491
H68	H	0.802585	0.495639	-0.008127
H69	H	0.774373	0.503447	-0.098326
H70	H	0.181294	-0.052321	0.000118
H71	H	0.826283	-0.277636	0.382162
O72	O	1.043501	-0.060671	0.782918
C73	C	1.090185	-0.013974	0.725745
H74	H	1.096157	-0.043292	0.663592
H75	H	1.061237	0.046510	0.716480
C76	C	1.164881	0.030941	0.836102
C77	C	1.172221	-0.005071	0.759767
H78	H	1.215484	0.036436	0.857089
H79	H	1.133428	-0.000517	0.874622
H80	H	1.140755	0.081341	0.828371
H81	H	1.196338	-0.055474	0.767500
H82	H	1.203681	0.026378	0.721249
H83	H	1.027437	0.322844	0.000074
O84	O	0.861671	-0.242158	0.521826
C85	C	0.808033	-0.199232	0.572255
H86	H	0.834607	-0.140493	0.585311
H87	H	0.751222	-0.188419	0.538668
C88	C	0.757648	-0.318442	0.639042
C89	C	0.790290	-0.246299	0.655083
H90	H	0.746700	-0.347475	0.690132
H91	H	0.793783	-0.347362	0.605064
H92	H	0.710309	-0.309420	0.611050
H93	H	0.837632	-0.255322	0.683064
H94	H	0.754163	-0.217381	0.689067
O95	O	0.819964	0.428321	0.000172
C96	C	0.816298	0.377232	0.071918
H97	H	0.877772	0.367815	0.095842
H98	H	0.776252	0.404192	0.122146
C99	C	0.707846	0.309293	0.020735
C100	C	0.783351	0.297721	0.050116
H101	H	0.687520	0.260248	0.007289
H102	H	0.710314	0.343714	-0.027600
H103	H	0.674484	0.331762	0.062598
H104	H	0.816714	0.275262	0.008250
H105	H	0.780888	0.263294	0.098443
O106	O	0.855068	-0.249109	0.611214
C107	C	0.871987	-0.328713	0.632526
H108	H	0.933758	-0.334444	0.656477
H109	H	0.827606	-0.351253	0.683145
C110	C	0.791108	-0.370437	0.525659
C111	C	0.866979	-0.377478	0.555069
H112	H	0.788016	-0.400519	0.477882
H113	H	0.779707	-0.316807	0.511302
H114	H	0.754133	-0.389220	0.567849
H115	H	0.903952	-0.358686	0.512884
H116	H	0.878387	-0.431106	0.569417
O117	O	0.550686	-0.004439	-0.000013
C118	C	0.576911	0.040401	-0.071759
H119	H	0.636279	0.016350	-0.095677
H120	H	0.532495	0.036831	-0.121991
C121	C	0.512442	0.156231	-0.020586
C122	C	0.585362	0.126696	-0.049960
H123	H	0.517652	0.209463	-0.007142
H124	H	0.494771	0.126022	0.027749
H125	H	0.475436	0.153250	-0.062451
H126	H	0.622364	0.129669	-0.008091
H127	H	0.603040	0.156908	-0.098287
H128	H	0.833760	-0.270148	0.223984
O129	O	1.022837	-0.081166	0.217266
C130	C	1.064147	-0.039918	0.274443
H131	H	1.028951	-0.039817	0.336597
H132	H	1.123742	-0.069771	0.283704
C133	C	1.119538	0.045203	0.164093
C134	C	1.076307	0.045334	0.240429
H135	H	1.127043	0.097790	0.143111
H136	H	1.091710	0.017412	0.125571
H137	H	1.169196	0.020322	0.171821
H138	H	1.026646	0.070206	0.232699
H139	H	1.104127	0.073131	0.278950
O140	O	1.007874	-0.095975	0.478514
C141	C	0.988938	-0.018396	0.499869
H142	H	0.924902	-0.014939	0.523841
H143	H	1.028534	-0.000656	0.550485
C144	C	1.079914	0.033469	0.392999
C145	C	1.001262	0.037716	0.422435
H146	H	1.087520	0.068082	0.345236
H147	H	1.092675	-0.018798	0.378613
H148	H	1.112902	0.048250	0.435186
H149	H	0.968277	0.022925	0.380252
H150	H	0.988496	0.089982	0.436811
H151	H	0.164579	-0.309658	0.000092
H152	H	0.688381	-0.286045	0.000056
H153	H	0.330070	-0.064854	0.000117
H154	H	0.781832	0.209350	0.000060
H155	H	1.007180	-0.096876	0.382161
H156	H	0.313367	-0.322194	0.000070
H157	H	0.705095	-0.028706	0.000086
H158	H	0.442811	-0.261782	0.000091
H159	H	1.043394	-0.060724	0.618021
O160	O	1.099506	0.446515	0.000250
C161	C	1.104330	0.395950	0.071978
H162	H	1.059626	0.415689	0.122114
H163	H	1.091276	0.333326	0.055759
C164	C	1.242529	0.374406	0.042936
C165	C	1.187626	0.398653	0.104516
H166	H	1.293910	0.376070	0.063005
H167	H	1.239279	0.408470	-0.005390
H168	H	1.231640	0.322221	0.029425
H169	H	1.198509	0.450841	0.118017
H170	H	1.190880	0.364598	0.152845
O171	O	0.421237	-0.064846	-0.000017
C172	C	0.447452	-0.020008	-0.071768
H173	H	0.506822	-0.044052	-0.095688
H174	H	0.403034	-0.023587	-0.121996
C175	C	0.382969	0.095818	-0.020601
C176	C	0.455892	0.066291	-0.049976
H177	H	0.388173	0.149052	-0.007161
H178	H	0.365305	0.065610	0.027738
H179	H	0.345962	0.092828	-0.062463
H180	H	0.492895	0.069273	-0.008111
H181	H	0.473563	0.096502	-0.098307
H182	H	0.794361	0.060560	0.000070
H183	H	1.039165	0.226050	0.000104
O184	O	0.846817	-0.257022	0.783147
C185	C	0.793188	-0.214093	0.833582
H186	H	0.819771	-0.155358	0.846640
H187	H	0.736376	-0.203269	0.799998
C188	C	0.742789	-0.333299	0.900362
C189	C	0.775442	-0.261163	0.916407
H190	H	0.731839	-0.362334	0.951451
H191	H	0.778918	-0.362222	0.866381
H192	H	0.695449	-0.324268	0.872374
H193	H	0.822785	-0.270194	0.944385
H194	H	0.739321	-0.232242	0.950395
H195	H	1.051699	0.077274	0.000118
H196	H	1.075312	0.601075	0.000101
