data_functionalizedCrystal
_audit_creation_method	'MofGen! by Chris Wilmer'
_symmetry_space_group_name_H-M	'P1'
_symmetry_Int_Tables_number	1
_symmetry_cell_setting	triclinic
loop_
_symmetry_equiv_pos_as_xyz
  x,y,z
_cell_length_a	6.817900
_cell_length_b	11.102289
_cell_length_c	10.773894
_cell_angle_alpha	95.422719
_cell_angle_beta	96.645922
_cell_angle_gamma	108.605707
loop_
_atom_site_label
_atom_site_type_symbol
_atom_site_fract_x
_atom_site_fract_y
_atom_site_fract_z
V1	V	-3.974360	-0.171169	-0.388944
O2	O	-3.936004	0.013031	-0.381540
O3	O	-3.952076	-0.344021	-0.386284
O4	O	-3.891317	-0.166427	-0.558576
O5	O	-3.997183	-0.165792	-0.208055
V6	V	-4.459093	-0.149386	-0.367308
O7	O	-4.232965	-0.218952	-0.436404
O8	O	-4.650687	-0.101602	-0.319849
O9	O	-4.258172	0.023467	-0.369969
O10	O	-4.614847	-0.333586	-0.374712
O11	O	-4.553667	-0.154762	-0.548197
O12	O	-4.318930	-0.154127	-0.197676
C13	C	-3.804550	-0.386225	-0.380148
C14	C	-3.867386	-0.527520	-0.379103
C15	C	-4.078719	-0.600299	-0.384836
C16	C	-4.137749	-0.733062	-0.383865
C17	C	-3.774092	-0.720254	-0.371425
C18	C	-3.715066	-0.587494	-0.372404
C19	C	-4.288673	-0.607695	-0.392013
C20	C	-4.347704	-0.740458	-0.391042
C21	C	-3.727046	-0.159684	-0.599922
C22	C	-3.740605	-0.156951	-0.738597
C23	C	-3.919395	-0.161688	-0.806459
C24	C	-3.933414	-0.158863	-0.949787
C25	C	-4.069041	0.065663	-0.376101
C26	C	-3.985442	0.206958	-0.377153
C27	C	-4.146546	-0.160874	-0.156323
C28	C	-4.112224	-0.163601	-0.017647
H29	H	-3.650087	-0.769102	-0.365972
H30	H	-3.597910	-0.150796	-0.786606
C31	C	-4.276062	-0.282721	-0.793720
C32	C	-4.112040	-0.169987	-0.741663
H33	H	-4.394999	-0.287838	-0.753723
H34	H	-4.233711	-0.354869	-0.781203
H35	H	-4.310737	-0.281898	-0.881538
H36	H	-4.077355	-0.170814	-0.653846
H37	H	-4.154398	-0.097821	-0.754169
C38	C	-4.520865	-0.696415	-0.587800
C39	C	-4.396460	-0.580263	-0.514489
H40	H	-4.587392	-0.679476	-0.663412
H41	H	-4.624156	-0.742448	-0.541769
H42	H	-4.435405	-0.746083	-0.607953
H43	H	-4.481924	-0.530599	-0.494328
H44	H	-4.293157	-0.534210	-0.560529
H45	H	-4.319761	-0.555524	-0.304058
H46	H	-3.790705	-0.152708	-0.997791
C47	C	-4.367263	-0.065518	-0.971300
C48	C	-4.304877	-0.171897	-0.952852
H49	H	-4.486187	-0.070639	-0.931289
H50	H	-4.401960	-0.064720	-1.059109
H51	H	-4.255956	0.010951	-0.935992
H52	H	-4.416180	-0.248366	-0.988168
H53	H	-4.270190	-0.172707	-0.865025
C54	C	-4.465076	-0.664058	-0.207205
C55	C	-4.457523	-0.775559	-0.276008
H56	H	-4.532858	-0.685730	-0.136187
H57	H	-4.540841	-0.624327	-0.259356
H58	H	-4.326642	-0.606506	-0.179392
H59	H	-4.595959	-0.833107	-0.303829
H60	H	-4.381761	-0.815309	-0.223847
H61	H	-4.446919	-0.797215	-0.483459
H62	H	-3.542986	-0.528244	-0.367751
