data_functionalizedCrystal
_audit_creation_method	'MofGen! by Chris Wilmer'
_symmetry_space_group_name_H-M	'P1'
_symmetry_Int_Tables_number	1
_symmetry_cell_setting	triclinic
loop_
_symmetry_equiv_pos_as_xyz
  x,y,z
_cell_length_a	13.339070
_cell_length_b	14.519709
_cell_length_c	12.376457
_cell_angle_alpha	101.296542
_cell_angle_beta	75.589755
_cell_angle_gamma	99.654719
loop_
_atom_site_label
_atom_site_type_symbol
_atom_site_fract_x
_atom_site_fract_y
_atom_site_fract_z
O1	O	1.362507	0.449827	-0.094056
O2	O	1.067869	0.389115	-0.094048
O3	O	1.222998	0.287221	-0.094042
O4	O	1.207378	0.551721	-0.094062
O5	O	1.184229	0.312650	0.093969
O6	O	1.029100	0.414544	0.093963
O7	O	1.323739	0.475256	0.093955
Zn8	Zn	1.170264	0.448937	0.123810
Zn9	Zn	1.221343	0.415434	-0.123903
O10	O	1.168610	0.577150	0.093949
C11	C	1.010777	0.391574	-0.000041
C12	C	0.898419	0.361005	-0.000038
C13	C	0.534063	0.598692	-0.000074
C14	C	0.639629	0.627415	-0.000081
C15	C	0.704332	0.560815	-0.000070
C16	C	0.663458	0.465487	-0.000053
C17	C	0.557883	0.436759	-0.000055
C18	C	0.728152	0.398883	-0.000050
C19	C	0.687278	0.303554	-0.000033
C20	C	0.581713	0.274832	-0.000035
C21	C	0.517011	0.341432	-0.000046
C22	C	0.833726	0.427610	-0.000048
C23	C	0.857547	0.265678	-0.000029
C24	C	0.751980	0.236954	-0.000022
C25	C	1.202885	0.265390	-0.000036
C26	C	1.200703	0.162454	-0.000036
C27	C	1.192677	-0.214489	-0.000065
C28	C	1.194906	-0.109612	-0.000056
C29	C	1.196690	-0.026021	-0.000049
C30	C	1.198919	0.078862	-0.000043
C31	C	1.380832	0.472796	-0.000054
C32	C	1.493191	0.503364	-0.000065
C33	C	1.188723	0.598980	-0.000059
C34	C	1.190906	0.701915	-0.000067
N35	N	1.135411	0.471804	0.292866
N36	N	1.256204	0.392562	-0.292960
C37	C	1.337109	0.339463	0.647859
C38	C	1.361497	0.323457	0.529520
C39	C	1.304977	0.360542	0.470351
C40	C	1.224066	0.413636	0.529532
C41	C	1.199681	0.429650	0.647883
C42	C	1.167550	0.450729	0.470375
C43	C	1.086639	0.503824	0.529556
C44	C	1.062257	0.519834	0.647895
C45	C	1.118777	0.482749	0.707064
C46	C	1.191935	0.434715	0.352024
C47	C	1.054507	0.524903	0.352048
C48	C	1.030119	0.540909	0.470387
H49	H	0.718688	0.159335	-0.000018
C50	C	0.684580	0.732275	-0.000084
N51	N	0.718435	0.811262	-0.000080
C52	C	0.462886	0.671940	-0.000088
N53	N	0.409273	0.727115	-0.000098
H54	H	0.790288	0.584207	-0.000078
C55	C	0.992329	0.565697	0.286967
N56	N	0.945502	0.596422	0.237940
C57	C	0.400880	0.309840	-0.000038
N58	N	0.313408	0.286048	-0.000032
H59	H	0.996383	0.563075	0.696080
C60	C	1.091934	0.500330	0.837245
N61	N	1.071711	0.513563	0.935299
C62	C	1.331800	0.342925	0.340175
N63	N	1.352003	0.329648	0.242121
H64	H	1.427374	0.280229	0.481339
H65	H	0.548441	0.197207	-0.000034
H66	H	1.257813	0.391486	0.303849
C67	C	0.878673	0.532470	-0.000056
N68	N	0.912524	0.611458	-0.000057
H69	H	0.910229	0.211445	-0.000025
H70	H	1.383125	0.309279	0.696043
C71	C	0.941116	0.599310	0.535501
N72	N	0.874078	0.643296	0.584547
