data_functionalizedCrystal
_audit_creation_method	'MofGen! by Chris Wilmer'
_symmetry_space_group_name_H-M	'P1'
_symmetry_Int_Tables_number	1
_symmetry_cell_setting	triclinic
loop_
_symmetry_equiv_pos_as_xyz
  x,y,z
_cell_length_a	16.120490
_cell_length_b	16.120484
_cell_length_c	16.120297
_cell_angle_alpha	84.385569
_cell_angle_beta	89.870317
_cell_angle_gamma	90.164100
loop_
_atom_site_label
_atom_site_type_symbol
_atom_site_fract_x
_atom_site_fract_y
_atom_site_fract_z
Zn1	Zn	1.224990	-0.422331	0.554787
Zn2	Zn	1.558323	-0.088997	0.888120
Zn3	Zn	1.891657	0.244336	1.221453
Zn4	Zn	1.224886	-0.555015	0.422092
Zn5	Zn	1.558219	-0.221681	0.755425
Zn6	Zn	1.891552	0.111652	1.088758
Zn7	Zn	1.093729	-0.408239	0.408032
Zn8	Zn	1.427062	-0.074906	0.741366
Zn9	Zn	1.760396	0.258427	1.074699
Zn10	Zn	1.078882	-0.554239	0.554027
Zn11	Zn	1.412216	-0.220906	0.887361
Zn12	Zn	1.745549	0.112427	1.220694
O13	O	1.155622	-0.484956	0.484735
O14	O	1.488955	-0.151623	0.818068
O15	O	1.822288	0.181711	1.151401
O16	O	1.341012	-0.446153	0.543386
O17	O	1.674346	-0.112820	0.876720
O18	O	2.007679	0.220513	1.210053
O19	O	1.213657	-0.529972	0.303594
O20	O	1.546990	-0.196639	0.636927
O21	O	1.880324	0.136695	0.970261
O22	O	1.117398	-0.293478	0.421933
O23	O	1.450731	0.039855	0.755267
O24	O	1.784065	0.373188	1.088600
O25	O	1.340936	-0.543636	0.445896
O26	O	1.674269	-0.210303	0.779229
O27	O	2.007602	0.123031	1.112562
O28	O	1.213835	-0.303831	0.529753
O29	O	1.547168	0.029502	0.863087
O30	O	1.880502	0.362835	1.196420
O31	O	1.117297	-0.422137	0.293264
O32	O	1.450630	-0.088803	0.626598
O33	O	1.783963	0.244530	0.959931
O34	O	0.975724	-0.421385	0.421197
O35	O	1.309057	-0.088051	0.754530
O36	O	1.642390	0.245282	1.087864
O37	O	1.092094	-0.542314	0.670761
O38	O	1.425428	-0.208981	1.004094
O39	O	1.758761	0.124353	1.337428
O40	O	0.964816	-0.528650	0.528459
O41	O	1.298149	-0.195317	0.861792
O42	O	1.631483	0.138016	1.195126
O43	O	1.199439	-0.445401	0.671319
O44	O	1.532772	-0.112068	1.004652
O45	O	1.866106	0.221265	1.337986
O46	O	1.199261	-0.671542	0.445159
O47	O	1.532594	-0.338209	0.778493
O48	O	1.865928	-0.004876	1.111826
O49	O	1.091993	-0.670972	0.542092
O50	O	1.425326	-0.337639	0.875425
O51	O	1.758660	-0.004306	1.208759
C52	C	0.940183	-0.473405	0.473221
C53	C	1.273516	-0.140072	0.806554
C54	C	1.606849	0.193262	1.139887
C55	C	0.848015	-0.468484	0.468316
C56	C	1.181348	-0.135151	0.801649
C57	C	1.514682	0.198182	1.134982
C58	C	0.632820	-0.510474	0.510179
C59	C	0.966154	-0.177140	0.843512
C60	C	1.299487	0.156193	1.176845
C61	C	0.679267	-0.459508	0.459359
C62	C	1.012601	-0.126175	0.792693
C63	C	1.345934	0.207159	1.126026
C64	C	0.773167	-0.464504	0.464344
C65	C	1.106501	-0.131171	0.797677
C66	C	1.439834	0.202163	1.131011
C67	C	0.538912	-0.505479	0.505195
C68	C	0.872245	-0.172146	0.838529
C69	C	1.205579	0.161188	1.171862
C70	C	1.144026	-0.701500	0.495088
C71	C	1.477359	-0.368167	0.828422
C72	C	1.810693	-0.034834	1.161755
C73	C	1.139140	-0.794144	0.499550
C74	C	1.472473	-0.460811	0.832883
C75	C	1.805806	-0.127478	1.166216
C76	C	1.130223	-0.963767	0.507712
C77	C	1.463556	-0.630434	0.841045
C78	C	1.796889	-0.297100	1.174379
C79	C	1.181169	-1.005313	0.461779
C80	C	1.514502	-0.671980	0.795112
C81	C	1.847835	-0.338647	1.128445
C82	C	1.176207	-1.099697	0.466320
C83	C	1.509541	-0.766364	0.799654
C84	C	1.842874	-0.433030	1.132987
C85	C	1.135183	-0.869375	0.503171
C86	C	1.468516	-0.536041	0.836505
C87	C	1.801850	-0.202708	1.169838
C88	C	1.371902	-0.496553	0.496294
C89	C	1.705235	-0.163220	0.829627
C90	C	2.038569	0.170114	1.162961
C91	C	1.464068	-0.501495	0.501220
C92	C	1.797401	-0.168162	0.834553
C93	C	2.130734	0.165172	1.167887
C94	C	1.144122	-0.495343	0.702127
C95	C	1.477456	-0.162010	1.035460
C96	C	1.810789	0.171324	1.368794
C97	C	1.139222	-0.499770	0.794767
C98	C	1.472555	-0.166436	1.128100
C99	C	1.805889	0.166897	1.461433
C100	C	1.167284	-0.267568	0.474360
C101	C	1.500618	0.065765	0.807693
C102	C	1.833951	0.399098	1.141027
C103	C	1.172254	-0.174931	0.469939
C104	C	1.505588	0.158403	0.803272
C105	C	1.838921	0.491736	1.136605
C106	C	1.167128	-0.474552	0.268187
C107	C	1.500461	-0.141218	0.601521
C108	C	1.833794	0.192115	0.934854
C109	C	1.172201	-0.469899	0.175545
C110	C	1.505534	-0.136566	0.508879
C111	C	1.838868	0.196767	0.842212
C112	C	1.130245	-0.507831	0.964378
C113	C	1.463579	-0.174497	1.297712
C114	C	1.796912	0.158836	1.631045
C115	C	1.181175	-0.461840	1.005939
C116	C	1.514508	-0.128507	1.339273
C117	C	1.847841	0.204826	1.672606
C118	C	1.176180	-0.466326	1.100317
C119	C	1.509514	-0.132992	1.433650
C120	C	1.842847	0.200341	1.766984
C121	C	1.135239	-0.503346	0.869992
C122	C	1.468572	-0.170013	1.203325
C123	C	1.801905	0.163320	1.536659
H124	H	0.663575	-0.557856	0.557426
H125	H	0.996908	-0.224522	0.890759
H126	H	1.330241	0.108811	1.224092
C127	C	1.066266	-1.011465	0.565438
C128	C	1.399600	-0.678132	0.898772
C129	C	1.732933	-0.344798	1.232105
H130	H	1.034954	-0.972988	0.593666
H131	H	1.368287	-0.639655	0.927000
H132	H	1.701620	-0.306322	1.260333
H133	H	1.030104	-1.042018	0.533197
H134	H	1.363437	-0.708684	0.866530
H135	H	1.696770	-0.375351	1.199864
H136	H	1.094291	-1.048815	0.605076
H137	H	1.427625	-0.715481	0.938410
H138	H	1.760958	-0.382148	1.271743
H139	H	1.082897	-0.550570	0.999674
H140	H	1.416230	-0.217237	1.333008
H141	H	1.749564	0.116096	1.666341
C142	C	1.245122	-0.957614	0.404040
C143	C	1.578455	-0.624281	0.737373
C144	C	1.911789	-0.290948	1.070707
H145	H	1.276437	-0.996095	0.375820
H146	H	1.609770	-0.662762	0.709153
H147	H	1.943104	-0.329429	1.042487
H148	H	1.217098	-0.920265	0.364408
H149	H	1.550432	-0.586931	0.697741
H150	H	1.883765	-0.253598	1.031075
H151	H	1.281296	-0.927063	0.436279
H152	H	1.614629	-0.593730	0.769612
H153	H	1.947962	-0.260396	1.102945
C154	C	1.245151	-0.404103	0.958265
C155	C	1.578485	-0.070770	1.291598
C156	C	1.911818	0.262563	1.624932
H157	H	1.276447	-0.375835	0.996754
H158	H	1.609780	-0.042502	1.330087
H159	H	1.943114	0.290831	1.663421
H160	H	1.281328	-0.436345	0.927768
H161	H	1.614661	-0.103012	1.261101
H162	H	1.947995	0.230322	1.594435
H163	H	1.217142	-0.364500	0.920866
H164	H	1.550475	-0.031166	1.254199
H165	H	1.883809	0.302167	1.587533
C166	C	0.637724	-0.395491	0.395530
C167	C	0.971058	-0.062158	0.728863
C168	C	1.304391	0.271175	1.062196
H169	H	0.579148	-0.400491	0.400508
H170	H	0.912481	-0.067157	0.733841
H171	H	1.245814	0.266176	1.067174
H172	H	0.654213	-0.340837	0.405879
H173	H	0.987546	-0.007503	0.739212
H174	H	1.320880	0.325830	1.072545
H175	H	0.654172	-0.405666	0.340820
H176	H	0.987505	-0.072332	0.674153
H177	H	1.320839	0.261001	1.007487
