data_functionalizedCrystal
_audit_creation_method	'MofGen! by Chris Wilmer'
_symmetry_space_group_name_H-M	'P1'
_symmetry_Int_Tables_number	1
_symmetry_cell_setting	triclinic
loop_
_symmetry_equiv_pos_as_xyz
  x,y,z
_cell_length_a	19.288864
_cell_length_b	17.766277
_cell_length_c	19.288862
_cell_angle_alpha	89.986134
_cell_angle_beta	96.864237
_cell_angle_gamma	90.023209
loop_
_atom_site_label
_atom_site_type_symbol
_atom_site_fract_x
_atom_site_fract_y
_atom_site_fract_z
O1	O	0.921352	0.062848	-0.086649
O2	O	1.421352	0.562848	0.413351
O3	O	0.719092	0.062798	-0.098338
O4	O	1.219092	0.562798	0.401662
O5	O	0.826067	0.062805	0.008637
O6	O	1.326067	0.562805	0.508637
O7	O	0.814377	0.062841	-0.193624
O8	O	1.314377	0.562841	0.306376
O9	O	0.826048	-0.062383	0.008643
O10	O	1.326048	0.437617	0.508643
O11	O	0.719073	-0.062390	-0.098332
O12	O	1.219073	0.437610	0.401668
O13	O	0.921334	-0.062341	-0.086643
O14	O	1.421334	0.437659	0.413357
Cu15	Cu	0.820202	-0.073796	-0.092487
Cu16	Cu	1.320202	0.426204	0.407513
Cu17	Cu	0.820224	0.074254	-0.092494
Cu18	Cu	1.320224	0.574254	0.407506
O19	O	0.814358	-0.062348	-0.193618
O20	O	1.314358	0.437652	0.306382
C21	C	0.693206	0.000197	-0.097959
C22	C	1.193206	0.500197	0.402041
C23	C	0.616102	0.000177	-0.096830
C24	C	1.116102	0.500177	0.403170
N25	N	0.820191	-0.177927	-0.092482
N26	N	1.320191	0.322073	0.407518
C27	C	0.571405	0.000200	-0.159598
C28	C	1.071405	0.500200	0.340402
C29	C	0.498958	0.000208	-0.158537
C30	C	0.998958	0.500208	0.341463
C31	C	0.471211	0.000209	-0.094705
C32	C	0.971211	0.500209	0.405295
C33	C	0.515918	0.000181	-0.031929
C34	C	1.015918	0.500181	0.468071
C35	C	0.588363	0.000166	-0.032991
C36	C	1.088363	0.500166	0.467009
C37	C	0.362956	0.044084	-0.044528
C38	C	0.862956	0.544084	0.455472
C39	C	0.290512	0.044104	-0.043468
C40	C	0.790512	0.544104	0.456532
C41	C	0.247766	0.000254	-0.091425
C42	C	0.747766	0.500254	0.408575
C43	C	0.277472	-0.043608	-0.140454
C44	C	0.777472	0.456392	0.359546
C45	C	0.349917	-0.043624	-0.141517
C46	C	0.849917	0.456376	0.358483
C47	C	0.392657	0.000225	-0.093546
C48	C	0.892657	0.500225	0.406454
C49	C	0.124513	0.000284	-0.153047
C50	C	0.624513	0.500284	0.346953
C51	C	0.052065	0.000288	-0.151984
C52	C	0.552065	0.500288	0.348016
C53	C	0.069026	0.000268	-0.025374
C54	C	0.569026	0.500268	0.474626
C55	C	0.141473	0.000257	-0.026439
C56	C	0.641473	0.500257	0.473561
C57	C	0.169211	0.000269	-0.090278
C58	C	0.669211	0.500269	0.409722
C59	C	0.867575	-0.217310	-0.045137
C60	C	1.367575	0.282690	0.454863
C61	C	0.867579	-0.296112	-0.045134
C62	C	1.367579	0.203888	0.454866
C63	C	0.820206	-0.335527	-0.092488
C64	C	1.320206	0.164473	0.407512
C65	C	0.772813	-0.296134	-0.139837
C66	C	1.272813	0.203866	0.360163
C67	C	0.772805	-0.217334	-0.139834
C68	C	1.272805	0.282666	0.360166
C69	C	0.810906	-0.460355	-0.155776
C70	C	1.310906	0.039645	0.344224
C71	C	0.810918	-0.539154	-0.155779
C72	C	1.310918	-0.039154	0.344221
C73	C	0.820224	-0.578574	-0.092496
C74	C	1.320224	-0.078574	0.407504
C75	C	0.829533	-0.539184	-0.029207
C76	C	1.329533	-0.039184	0.470793
C77	C	0.829525	-0.460384	-0.029204
C78	C	1.329525	0.039616	0.470796
C79	C	0.820208	-0.420973	-0.092496
C80	C	1.320208	0.079027	0.407504
C81	C	0.867615	-0.703403	-0.045144
C82	C	1.367615	-0.203403	0.454856
C83	C	0.867614	-0.782206	-0.045139
C84	C	1.367614	-0.282206	0.454861
C85	C	0.772851	-0.782227	-0.139848
C86	C	1.272851	-0.282227	0.360152
C87	C	0.772849	-0.703425	-0.139846
C88	C	1.272849	-0.203425	0.360154
C89	C	0.820234	-0.664018	-0.092495
C90	C	1.320234	-0.164018	0.407505
C91	C	0.947219	0.000262	-0.087022
C92	C	1.447219	0.500262	0.412978
C93	C	1.024323	0.000287	-0.088151
C94	C	1.524323	0.500287	0.411849
C95	C	0.825682	0.000207	0.034516
C96	C	1.325682	0.500207	0.534516
C97	C	0.824554	0.000197	0.111620
C98	C	1.324554	0.500197	0.611620
N99	N	0.820240	0.178384	-0.092493
N100	N	1.320240	0.678384	0.407507
C101	C	0.887322	0.000207	0.156316
C102	C	1.387322	0.500207	0.656316
C103	C	0.886262	0.000216	0.228764
C104	C	1.386262	0.500216	0.728764
C105	C	0.822430	0.000199	0.256511
C106	C	1.322430	0.500199	0.756511
C107	C	0.759653	0.000193	0.211805
C108	C	1.259653	0.500193	0.711805
C109	C	0.760715	0.000192	0.139359
C110	C	1.260715	0.500192	0.639359
C111	C	0.772245	-0.043669	0.364801
C112	C	1.272245	0.456331	0.864801
C113	C	0.771185	-0.043672	0.437245
C114	C	1.271185	0.456328	0.937245
C115	C	0.819152	0.000206	0.479957
C116	C	1.319152	0.500206	0.979957
C117	C	0.868190	0.044078	0.450217
C118	C	1.368190	0.544078	0.950217
C119	C	0.869252	0.044077	0.377771
C120	C	1.369252	0.544077	0.877771
C121	C	0.821271	0.000201	0.335065
C122	C	1.321271	0.500201	0.835065
C123	C	0.880775	0.000226	0.603209
C124	C	1.380775	0.500226	1.103209
C125	C	0.879713	0.000239	0.675658
C126	C	1.379713	0.500239	1.175658
C127	C	0.753102	0.000209	0.658697
C128	C	1.253102	0.500209	1.158697
C129	C	0.754167	0.000204	0.586251
C130	C	1.254167	0.500204	1.086251
C131	C	0.818005	0.000208	0.558511
C132	C	1.318005	0.500208	1.058511
C133	C	0.814745	0.000241	0.780503
C134	C	1.314745	0.500241	1.280503
C135	C	0.815880	0.000224	0.703400
C136	C	1.315880	0.500224	1.203400
H137	H	0.593985	0.000211	-0.211580
H138	H	1.093985	0.500211	0.288420
Cl139	Cl	0.442758	0.000235	-0.237451
Cl140	Cl	0.942758	0.500235	0.262549
Cl141	Cl	0.416687	0.099216	0.015768
Cl142	Cl	0.916687	0.599216	0.515768
Cl143	Cl	0.034151	0.000260	0.054873
Cl144	Cl	0.534151	0.500260	0.554873
Cl145	Cl	0.927154	-0.345631	0.014391
Cl146	Cl	1.427154	0.154369	0.514391
Cl147	Cl	0.711939	-0.098837	0.311113
Cl148	Cl	1.211939	0.401163	0.811113
H149	H	0.734239	-0.328230	-0.178392
H150	H	1.234239	0.171770	0.321608
Cl151	Cl	0.713233	-0.167819	-0.199359
Cl152	Cl	1.213233	0.332181	0.300641
H153	H	0.493322	0.000192	0.020044
H154	H	0.993322	0.500192	0.520044
Cl155	Cl	0.681800	0.000179	0.083166
Cl156	Cl	1.181800	0.500179	0.583166
Cl157	Cl	0.841218	-0.410868	0.050356
Cl158	Cl	1.341218	0.089132	0.550356
H159	H	0.932756	0.000233	0.580623
H160	H	1.432756	0.500233	1.080623
Cl161	Cl	0.159388	0.000291	-0.233300
Cl162	Cl	0.659388	0.500291	0.266700
H163	H	0.734267	-0.671357	-0.178402
H164	H	1.234267	-0.171357	0.321598
H165	H	0.837110	-0.571278	0.022324
H166	H	1.337110	-0.071278	0.522324
H167	H	0.930828	0.000252	0.712049
H168	H	1.430828	0.500252	1.212049
H169	H	0.939304	0.000214	0.133736
H170	H	1.439304	0.500214	0.633736
Cl171	Cl	0.965176	0.000229	0.284964
Cl172	Cl	1.465176	0.500229	0.784964
Cl173	Cl	0.927181	-0.653862	0.014388
Cl174	Cl	1.427181	-0.153862	0.514388
H175	H	0.707681	0.000182	0.234402
H176	H	1.207681	0.500182	0.734402
H177	H	0.242669	-0.079316	-0.179506
H178	H	0.742669	0.420684	0.320494
Cl179	Cl	0.387260	-0.098765	-0.203147
Cl180	Cl	0.887260	0.401235	0.296853
Cl181	Cl	0.927140	-0.167771	0.014393
Cl182	Cl	1.427140	0.332229	0.514393
H183	H	0.015673	0.000302	-0.203099
H184	H	0.515673	0.500302	0.296901
H185	H	0.907249	0.079808	0.484992
H186	H	1.407249	0.579808	0.984992
Cl187	Cl	0.713291	-0.831771	-0.199374
Cl188	Cl	1.213291	-0.331771	0.300626
H189	H	0.177866	0.000243	0.024674
H190	H	0.677866	0.500243	0.524674
Cl191	Cl	0.253174	0.099252	0.018162
Cl192	Cl	0.753174	0.599252	0.518162
H193	H	0.731253	-0.079391	0.461453
H194	H	1.231253	0.420609	0.961453
Cl195	Cl	0.799222	-0.588664	-0.235342
Cl196	Cl	1.299222	-0.088664	0.264658
Cl197	Cl	0.672855	0.000193	0.693573
Cl198	Cl	1.172855	0.500193	1.193573
H199	H	0.624756	0.000148	0.018124
H200	H	1.124756	0.500148	0.518124
H201	H	0.906198	-0.814273	-0.006581
H202	H	1.406198	-0.314273	0.493419
Cl203	Cl	0.799272	-0.410808	-0.235341
Cl204	Cl	1.299272	0.089192	0.264659
H205	H	0.909179	0.079800	0.353560
H206	H	1.409179	0.579800	0.853560
Cl207	Cl	0.675253	0.000188	0.530058
Cl208	Cl	1.175253	0.500188	1.030058
