data_functionalizedCrystal
_audit_creation_method	'MofGen! by Chris Wilmer'
_symmetry_space_group_name_H-M	'P1'
_symmetry_Int_Tables_number	1
_symmetry_cell_setting	triclinic
loop_
_symmetry_equiv_pos_as_xyz
  x,y,z
_cell_length_a	8.497365
_cell_length_b	13.033291
_cell_length_c	13.032721
_cell_angle_alpha	74.815798
_cell_angle_beta	82.869671
_cell_angle_gamma	82.779697
loop_
_atom_site_label
_atom_site_type_symbol
_atom_site_fract_x
_atom_site_fract_y
_atom_site_fract_z
Zn1	Zn	-1.235101	1.570465	0.216427
Zn2	Zn	-1.000992	1.547734	0.394146
Zn3	Zn	-0.941538	1.392768	0.239094
Zn4	Zn	-1.234920	1.370244	0.416533
O5	O	-1.103138	1.470303	0.316550
O6	O	-1.229004	1.716097	0.221146
O7	O	-0.772349	1.527091	0.373695
O8	O	-0.955674	1.435279	0.087453
O9	O	-1.057005	1.699397	0.351715
O10	O	-1.171353	1.565833	0.070799
O11	O	-0.728668	1.413238	0.259780
O12	O	-0.955498	1.241133	0.281488
O13	O	-1.455701	1.396890	0.389871
O14	O	-1.171044	1.224584	0.411851
O15	O	-1.455834	1.543992	0.242854
O16	O	-1.056829	1.505250	0.545750
O17	O	-1.228695	1.374849	0.562198
C18	C	-1.056801	1.194316	0.351559
C19	C	-1.037019	1.076244	0.366562
C20	C	-1.149233	1.435168	0.592510
C21	C	-1.169022	1.420234	0.710554
C22	C	-1.093033	0.909825	0.324243
C23	C	-1.113477	1.031858	0.308739
C24	C	-0.693264	1.470211	0.316676
C25	C	-0.514610	1.470390	0.316438
C26	C	-1.149657	1.747367	0.281405
C27	C	-1.169480	1.865435	0.266428
C28	C	-1.056902	1.505604	0.039509
C29	C	-1.037199	1.520647	-0.078549
C30	C	-1.092890	1.478153	0.755002
C31	C	-1.113341	1.462720	0.877007
H32	H	-1.012441	0.857485	0.385213
H33	H	-1.249349	1.359226	0.762824
H34	H	-1.193673	1.401707	0.929273
O35	O	-0.941164	1.593295	0.859082
C36	C	-0.818414	1.540888	0.802705
H37	H	-0.800114	1.453009	0.846890
H38	H	-0.703288	1.579496	0.796519
H39	H	-0.852578	1.547780	0.719120
O40	O	-1.209617	1.094438	0.236069
C41	C	-1.208607	1.202351	0.236754
H42	H	-1.172924	1.206947	0.316797
H43	H	-1.332634	1.245554	0.224280
H44	H	-1.119448	1.241815	0.169739
O45	O	-0.941112	1.013757	0.439434
C46	C	-1.031556	0.940878	0.516159
H47	H	-1.162481	0.973589	0.518550
H48	H	-0.987724	0.929093	0.598044
H49	H	-1.017597	0.861020	0.493928
O50	O	-1.265823	0.927896	0.193830
C51	C	-1.388337	0.984437	0.246252
H52	H	-1.406281	0.940300	0.334136
H53	H	-1.503670	0.990743	0.207727
H54	H	-1.354130	1.067987	0.239285
O55	O	-0.996864	1.550796	0.692624
C56	C	-0.874119	1.498384	0.636247
H57	H	-0.855816	1.410507	0.680436
H58	H	-0.758992	1.536994	0.630052
H59	H	-0.908291	1.505271	0.552665
