data_functionalizedCrystal
_audit_creation_method	'MofGen! by Chris Wilmer'
_symmetry_space_group_name_H-M	'P1'
_symmetry_Int_Tables_number	1
_symmetry_cell_setting	triclinic
loop_
_symmetry_equiv_pos_as_xyz
  x,y,z
_cell_length_a	12.827892
_cell_length_b	12.827893
_cell_length_c	12.827885
_cell_angle_alpha	90.020999
_cell_angle_beta	89.969834
_cell_angle_gamma	89.986779
loop_
_atom_site_label
_atom_site_type_symbol
_atom_site_fract_x
_atom_site_fract_y
_atom_site_fract_z
Zn1	Zn	-0.416036	-1.597671	-0.590895
Zn2	Zn	-0.590814	-1.597566	-0.416155
Zn3	Zn	-0.416081	-1.422912	-0.416164
Zn4	Zn	-0.590729	-1.422898	-0.590850
O5	O	-0.503415	-1.510262	-0.503516
O6	O	-0.439237	-1.743893	-0.567731
O7	O	-0.567689	-1.574359	-0.269920
O8	O	-0.269839	-1.446144	-0.439365
O9	O	-0.567645	-1.743816	-0.439350
O10	O	-0.269806	-1.574539	-0.567740
O11	O	-0.439314	-1.446042	-0.269927
O12	O	-0.439232	-1.276674	-0.439321
O13	O	-0.567502	-1.446120	-0.737092
O14	O	-0.567546	-1.276664	-0.567662
O15	O	-0.439155	-1.574525	-0.737126
O16	O	-0.737038	-1.574346	-0.439306
O17	O	-0.736977	-1.446018	-0.567654
C18	C	-0.774925	-1.510197	-0.503497
C19	C	-0.891078	-1.510265	-0.503523
C20	C	-0.503386	-1.238752	-0.503488
C21	C	-0.503398	-1.122599	-0.503501
C22	C	-0.942867	-1.446750	-0.566987
C23	C	-1.062917	-1.446819	-0.567016
C24	C	-0.439983	-0.950808	-0.567137
C25	C	-0.439968	-1.070858	-0.567125
C26	C	-0.230845	-1.510355	-0.503558
C27	C	-0.114692	-1.510395	-0.503576
C28	C	-0.503314	-1.510333	-0.776086
C29	C	-0.503271	-1.510363	-0.892240
C30	C	-0.503437	-0.782832	-0.503536
C31	C	-0.503424	-0.898985	-0.503524
C32	C	-0.439691	-1.446921	-1.064072
C33	C	-0.439734	-1.446888	-0.944021
C34	C	-0.503440	-1.510251	-0.232006
C35	C	-0.503189	-1.510423	-0.115854
H36	H	-0.898330	-1.392316	-0.621296
H37	H	-1.107454	-1.392445	-0.621354
F38	F	-0.368585	-1.375894	-1.122290
H39	H	-0.385650	-1.115424	-0.621582
F40	F	-0.574391	-1.064358	-0.432305
F41	F	-0.949288	-1.581405	-0.432525
F42	F	-0.574411	-0.957156	-0.432330
F43	F	-0.368680	-1.375819	-0.885820
H44	H	-0.385684	-0.906298	-0.621611
F45	F	-0.574338	-1.581425	-0.950434
F46	F	-1.056489	-1.581481	-0.432558
F47	F	-0.574285	-1.581461	-1.057636
