data_functionalizedCrystal
_audit_creation_method	'MofGen! by Chris Wilmer'
_symmetry_space_group_name_H-M	'P1'
_symmetry_Int_Tables_number	1
_symmetry_cell_setting	triclinic
loop_
_symmetry_equiv_pos_as_xyz
  x,y,z
_cell_length_a	19.288864
_cell_length_b	27.732048
_cell_length_c	17.766277
_cell_angle_alpha	89.988664
_cell_angle_beta	89.976791
_cell_angle_gamma	82.889449
loop_
_atom_site_label
_atom_site_type_symbol
_atom_site_fract_x
_atom_site_fract_y
_atom_site_fract_z
O1	O	0.920977	0.060300	-0.062844
O2	O	0.718666	0.068434	-0.062793
O3	O	0.826105	-0.006011	-0.062806
O4	O	0.813538	0.134745	-0.062831
O5	O	0.826086	-0.006014	0.062383
O6	O	0.718647	0.068430	0.062395
O7	O	0.920958	0.060296	0.062345
Cu8	Cu	0.819801	0.064363	0.073801
Cu9	Cu	0.819823	0.064367	-0.074249
O10	O	0.813519	0.134741	0.062357
C11	C	0.692781	0.068171	-0.000192
C12	C	0.615683	0.067385	-0.000172
C13	C	0.570714	0.111066	-0.000192
C14	C	0.498271	0.110328	-0.000200
C15	C	0.470801	0.065906	-0.000204
C16	C	0.515780	0.022219	-0.000180
C17	C	0.588220	0.022959	-0.000164
C18	C	0.362763	0.030987	-0.044082
C19	C	0.290324	0.030250	-0.044102
C20	C	0.247370	0.063624	-0.000249
C21	C	0.276863	0.097744	0.043615
C22	C	0.349304	0.098483	0.043631
C23	C	0.392252	0.065099	-0.000220
C24	C	0.123850	0.106507	-0.000277
C25	C	0.051406	0.105767	-0.000280
C26	C	0.068916	0.017658	-0.000267
C27	C	0.141358	0.018399	-0.000256
C28	C	0.168820	0.062825	-0.000264
C29	C	0.825831	-0.024020	-0.000209
C30	C	0.825037	-0.077678	-0.000203
C31	C	0.883526	-0.416316	-0.000256
C32	C	0.880579	-0.617985	-0.000266
O33	O	0.934063	-0.649079	-0.000312
N34	N	0.816872	-0.637301	-0.000249
C35	C	0.753897	-0.606196	-0.000235
O36	O	0.699643	-0.627253	-0.000229
C37	C	0.756845	-0.404529	-0.000231
C38	C	0.820556	-0.385216	-0.000240
C39	C	0.947232	-0.397002	-0.000266
C40	C	0.947968	-0.346588	-0.000259
C41	C	0.884998	-0.315488	-0.000243
C42	C	0.821292	-0.334801	-0.000233
C43	C	0.693871	-0.373425	-0.000222
C44	C	0.694614	-0.323006	-0.000223
C45	C	0.758325	-0.303693	-0.000232
C46	C	0.759059	-0.253287	-0.000210
N47	N	0.822766	-0.233971	-0.000227
C48	C	0.885735	-0.265071	-0.000243
C49	C	0.752354	-0.712075	-0.000236
C50	C	0.751617	-0.762492	-0.000236
C51	C	0.878299	-0.774276	-0.000268
C52	C	0.879035	-0.723859	-0.000263
C53	C	0.816061	-0.692759	-0.000253
C54	C	0.887276	-0.159197	-0.000229
C55	C	0.888007	-0.108778	-0.000219
C56	C	0.761325	-0.096998	-0.000191
C57	C	0.760595	-0.147412	-0.000197
C58	C	0.823576	-0.178511	-0.000218
O59	O	0.705603	-0.222164	-0.000172
O60	O	0.939982	-0.244005	-0.000266
C61	C	0.882790	-0.466730	-0.000263
C62	C	0.819084	-0.486044	-0.000253
C63	C	0.756114	-0.454943	-0.000236
C64	C	0.818347	-0.536461	-0.000253
C65	C	0.881317	-0.567561	-0.000269
C66	C	0.945023	-0.548245	-0.000285
C67	C	0.945760	-0.497831	-0.000279
C68	C	0.692407	-0.474260	-0.000220
C69	C	0.691676	-0.524674	-0.000226
C70	C	0.754646	-0.555775	-0.000242
C71	C	0.946842	0.060560	-0.000258
C72	C	1.023941	0.061345	-0.000282
C73	C	0.813792	0.152751	-0.000241
C74	C	0.814587	0.206408	-0.000252
N75	N	0.819790	0.064359	0.177931
N76	N	0.819839	0.064367	-0.178379
C77	C	0.867380	0.031411	0.217313
C78	C	0.867384	0.031409	0.296114
C79	C	0.819805	0.064363	0.335532
C80	C	0.772207	0.097314	0.296141
C81	C	0.772200	0.097312	0.217341
C82	C	0.810231	0.108406	0.460363
C83	C	0.810244	0.108408	0.539162
C84	C	0.819823	0.064369	0.578578
C85	C	0.829406	0.020325	0.539186
C86	C	0.829399	0.020323	0.460385
C87	C	0.819807	0.064369	0.420977
C88	C	0.867420	0.031416	0.703405
C89	C	0.867419	0.031413	0.782209
C90	C	0.772245	0.097322	0.782234
C91	C	0.772243	0.097321	0.703432
C92	C	0.819834	0.064368	0.664023
H93	H	0.938562	-0.184513	-0.000249
H94	H	0.733494	0.124152	0.671365
H95	H	0.939890	-0.093056	-0.000224
H96	H	0.266316	0.002469	-0.079822
C97	C	0.381748	0.136009	0.091884
C98	C	0.334511	0.172722	0.140124
C99	C	0.366956	0.210246	0.188380
C100	C	0.446638	0.211058	0.188396
C101	C	0.493881	0.174343	0.140153
C102	C	0.461436	0.136819	0.091897
H103	H	0.275521	0.172122	0.140114
H104	H	0.331983	0.237425	0.224092
H105	H	0.470656	0.238835	0.224118
H106	H	0.552871	0.174942	0.140163
H107	H	0.496408	0.109640	0.056185
C108	C	0.919739	-0.004834	0.339445
C109	C	0.972105	-0.041064	0.296094
C110	C	1.024461	-0.077307	0.339420
C111	C	1.024451	-0.077318	0.426098
C112	C	0.972083	-0.041086	0.469453
C113	C	0.919727	-0.004844	0.426127
H114	H	0.972114	-0.041057	0.231926
H115	H	1.063227	-0.104128	0.307325
H116	H	1.063208	-0.104147	0.458171
H117	H	0.972074	-0.041093	0.533621
H118	H	0.880961	0.021977	0.458222
C119	C	0.690516	-0.168664	-0.000190
C120	C	0.672572	-0.201720	0.064805
C121	C	0.602494	-0.222969	0.064799
C122	C	0.550360	-0.211161	-0.000202
C123	C	0.568303	-0.178103	-0.065202
C124	C	0.638381	-0.156854	-0.065196
H125	H	0.711166	-0.210463	0.112928
H126	H	0.589212	-0.247441	0.112917
H127	H	0.498484	-0.226891	-0.000207
H128	H	0.529709	-0.169360	-0.113325
H129	H	0.651663	-0.132382	-0.113314
C130	C	0.485565	-0.026645	-0.000185
C131	C	0.438131	-0.039270	0.064810
C132	C	0.407918	-0.088136	0.064809
C133	C	0.425139	-0.124377	-0.000188
C134	C	0.472575	-0.111753	-0.065188
C135	C	0.502788	-0.062887	-0.065187
H136	H	0.425381	-0.012441	0.112929
H137	H	0.372802	-0.097481	0.112926
H138	H	0.402773	-0.160551	-0.000189
H139	H	0.485325	-0.138582	-0.113307
H140	H	0.537904	-0.053542	-0.113305
C141	C	1.018053	-0.325350	-0.000284
C142	C	1.070205	-0.337159	0.064701
C143	C	1.140295	-0.315926	0.064671
C144	C	1.158233	-0.282884	-0.000345
C145	C	1.106081	-0.271073	-0.065336
C146	C	1.035991	-0.292306	-0.065305
H147	H	1.056927	-0.361621	0.112834
H148	H	1.178902	-0.324670	0.112781
H149	H	1.210118	-0.267166	-0.000368
H150	H	1.119359	-0.246611	-0.113469
H151	H	0.997384	-0.283562	-0.113415
H152	H	0.733467	0.124145	0.328238
H153	H	0.046551	-0.018511	-0.000317
H154	H	0.624835	-0.012613	-0.000148
H155	H	0.593069	0.147241	-0.000200
C156	C	1.016507	-0.431207	-0.000280
C157	C	1.068844	-0.429134	0.064721
C158	C	1.138124	-0.463335	0.064714
C159	C	1.155067	-0.499609	-0.000293
C160	C	1.102729	-0.501684	-0.065299
C161	C	1.033448	-0.467483	-0.065292
H162	H	1.056303	-0.402281	0.112847
H163	H	1.176869	-0.461799	0.112835
H164	H	1.206353	-0.524927	-0.000298
H165	H	1.115270	-0.528537	-0.113425
H166	H	0.994704	-0.469019	-0.113413
C167	C	0.621589	-0.545916	-0.000213
C168	C	0.603672	-0.578943	-0.065223
C169	C	0.533588	-0.600183	-0.065216
C170	C	0.481420	-0.588397	-0.000200
C171	C	0.499336	-0.555369	0.064814
C172	C	0.569420	-0.534128	0.064808
H173	H	0.642290	-0.587669	-0.113356
H174	H	0.520325	-0.624633	-0.113345
H175	H	0.429540	-0.604121	-0.000196
H176	H	0.460717	-0.546642	0.112947
H177	H	0.582682	-0.509679	0.112936
H178	H	0.837207	-0.015536	0.571276
H179	H	0.930914	-0.708138	-0.000271
H180	H	0.929571	-0.799607	-0.000281
C181	C	0.799709	0.156856	0.582486
C182	C	0.856728	0.170138	0.636615
C183	C	0.846195	0.218587	0.679935
C184	C	0.778642	0.253755	0.669127
C185	C	0.721618	0.240474	0.614996
C186	C	0.732151	0.192025	0.571676
H187	H	0.906738	0.144104	0.644618
H188	H	0.888408	0.228418	0.720006
H189	H	0.770845	0.289620	0.701195
H190	H	0.671608	0.266508	0.606993
H191	H	0.689938	0.182193	0.531604
C192	C	0.799696	0.156853	0.417010
C193	C	0.789169	0.205298	0.460335
C194	C	0.778634	0.253744	0.416982
C195	C	0.778627	0.253744	0.330305
C196	C	0.789154	0.205297	0.286975
C197	C	0.799689	0.156852	0.330328
H198	H	0.789174	0.205300	0.524503
H199	H	0.770841	0.289607	0.449058
H200	H	0.770828	0.289606	0.298213
H201	H	0.789149	0.205295	0.222807
H202	H	0.807482	0.120988	0.298252
H203	H	0.461651	0.145899	-0.000214
H204	H	0.241891	0.124920	0.079325
H205	H	0.733446	0.124143	0.185276
C206	C	0.154065	0.155374	-0.000275
C207	C	0.104595	0.203424	-0.000283
C208	C	0.134808	0.252291	-0.000281
C209	C	0.214489	0.253107	-0.000269
C210	C	0.263963	0.205054	-0.000261
C211	C	0.233751	0.156188	-0.000264
H212	H	0.045606	0.202822	-0.000292
H213	H	0.098183	0.287862	-0.000287
H214	H	0.236854	0.289280	-0.000267
H215	H	0.322953	0.205656	-0.000253
H216	H	0.270375	0.120616	-0.000257
H217	H	0.837199	-0.015539	0.428315
H218	H	0.397731	0.003809	-0.079797
H219	H	0.699737	-0.778212	-0.000215
H220	H	0.641128	-0.448942	-0.000208
H221	H	0.014793	0.141339	-0.000292
C222	C	0.623784	-0.394657	-0.000217
C223	C	0.571615	-0.382861	0.064795
C224	C	0.501522	-0.404090	0.064799
C225	C	0.483597	-0.437115	-0.000209
C226	C	0.535767	-0.448913	-0.065226
C227	C	0.605861	-0.427684	-0.065230
H228	H	0.584883	-0.358412	0.112923
H229	H	0.462903	-0.395356	0.112929
H230	H	0.431710	-0.452830	-0.000207
H231	H	0.522499	-0.473361	-0.113354
H232	H	0.644480	-0.436418	-0.113360
H233	H	0.701070	-0.686757	-0.000228
C234	C	0.190829	-0.029651	-0.000247
C235	C	0.160618	-0.078515	-0.000252
C236	C	0.210089	-0.126568	-0.000241
C237	C	0.289771	-0.125757	-0.000225
C238	C	0.319987	-0.076891	-0.000220
C239	C	0.270516	-0.028838	-0.000231
H240	H	0.101628	-0.079118	-0.000264
H241	H	0.187721	-0.162742	-0.000245
H242	H	0.326393	-0.161329	-0.000217
H243	H	0.378976	-0.076289	-0.000208
H244	H	0.292883	0.007336	-0.000227
C245	C	1.014291	-0.582462	-0.000306
C246	C	1.031190	-0.618756	0.064691
C247	C	1.100454	-0.652976	0.064665
C248	C	1.152818	-0.650900	-0.000356
C249	C	1.135920	-0.614604	-0.065357
C250	C	1.066657	-0.580385	-0.065332
H251	H	0.992426	-0.620294	0.112828
H252	H	1.112962	-0.679845	0.112784
H253	H	1.204091	-0.676232	-0.000375
H254	H	1.174685	-0.613067	-0.113494
H255	H	1.054149	-0.553516	-0.113450
C256	C	0.919761	-0.004835	0.660051
C257	C	0.919189	-0.059878	0.670904
C258	C	0.971530	-0.096129	0.627553
C259	C	1.024445	-0.077338	0.573348
C260	C	1.025020	-0.022293	0.562493
C261	C	0.972678	0.013959	0.605844
H262	H	0.880016	-0.073790	0.711032
H263	H	0.971104	-0.136878	0.635589
H264	H	1.063192	-0.104174	0.541257
H265	H	1.064192	-0.008380	0.522365
H266	H	0.973104	0.054707	0.597807
C267	C	0.919769	-0.004832	0.825534
C268	C	0.972130	-0.041067	0.782183
C269	C	1.024481	-0.077312	0.825510
C270	C	1.024472	-0.077323	0.912187
C271	C	0.972109	-0.041087	0.955543
C272	C	0.919758	-0.004842	0.912216
H273	H	0.972139	-0.041060	0.718015
H274	H	1.063244	-0.104137	0.793415
H275	H	1.063226	-0.104154	0.944260
H276	H	0.972101	-0.041094	1.019711
H277	H	0.880996	0.021982	0.944311
C278	C	0.719907	0.133572	0.825584
C279	C	0.719958	0.133606	0.912261
C280	C	0.667616	0.169855	0.955617
C281	C	0.615223	0.206069	0.912295
C282	C	0.615170	0.206036	0.825613
C283	C	0.667512	0.169787	0.782258
H284	H	0.758745	0.106797	0.944335
H285	H	0.667656	0.169879	1.019785
H286	H	0.576476	0.232903	0.944390
H287	H	0.576383	0.232846	0.793540
H288	H	0.667472	0.169763	0.718090
H289	H	0.643331	-0.297686	-0.000216
H290	H	0.710057	-0.071667	-0.000175
H291	H	0.997640	-0.482111	-0.000286
H292	H	0.906129	0.004578	0.185228
