data_functionalizedCrystal
_audit_creation_method	'MofGen! by Chris Wilmer'
_symmetry_space_group_name_H-M	'P1'
_symmetry_Int_Tables_number	1
_symmetry_cell_setting	triclinic
loop_
_symmetry_equiv_pos_as_xyz
  x,y,z
_cell_length_a	16.974800
_cell_length_b	17.019294
_cell_length_c	15.455313
_cell_angle_alpha	88.788101
_cell_angle_beta	90.973911
_cell_angle_gamma	83.640951
loop_
_atom_site_label
_atom_site_type_symbol
_atom_site_fract_x
_atom_site_fract_y
_atom_site_fract_z
O1	O	1.049320	0.100201	-0.005927
O2	O	1.382654	0.433534	0.327407
O3	O	1.715987	0.766867	0.660740
O4	O	0.819917	0.112205	-0.022934
O5	O	1.153250	0.445538	0.310399
O6	O	1.486584	0.778871	0.643732
O7	O	0.940610	-0.008208	-0.005460
O8	O	1.273943	0.325125	0.327873
O9	O	1.607276	0.658459	0.661206
O10	O	0.928628	0.220613	-0.023401
O11	O	1.261961	0.553946	0.309932
O12	O	1.595294	0.887280	0.643266
O13	O	0.933708	-0.001351	0.137805
O14	O	1.267041	0.331983	0.471138
O15	O	1.600374	0.665316	0.804471
O16	O	0.813015	0.119062	0.120331
O17	O	1.146349	0.452395	0.453664
O18	O	1.479682	0.785729	0.786997
O19	O	1.042418	0.107058	0.137338
O20	O	1.375752	0.440391	0.470671
O21	O	1.709085	0.773725	0.804005
Cu22	Cu	0.927087	0.113686	0.141916
Cu23	Cu	1.260420	0.447019	0.475249
Cu24	Cu	1.593753	0.780353	0.808582
Cu25	Cu	0.935249	0.105576	-0.027512
Cu26	Cu	1.268582	0.438910	0.305821
Cu27	Cu	1.601916	0.772243	0.639155
O28	O	0.921726	0.227470	0.119864
O29	O	1.255059	0.560804	0.453197
O30	O	1.588393	0.894137	0.786531
C31	C	0.787105	0.115051	0.046680
C32	C	1.120439	0.448384	0.380013
C33	C	1.453772	0.781718	0.713346
C34	C	0.699619	0.113307	0.040666
C35	C	1.032953	0.446640	0.373999
C36	C	1.366286	0.779974	0.707332
C37	C	0.654761	0.116223	0.115936
C38	C	0.988094	0.449557	0.449270
C39	C	1.321428	0.782890	0.782603
C40	C	0.572560	0.114572	0.110289
C41	C	0.905893	0.447905	0.443622
C42	C	1.239227	0.781239	0.776956
C43	C	0.535219	0.110010	0.029370
C44	C	0.868552	0.443343	0.362703
C45	C	1.201885	0.776677	0.696037
C46	C	0.580084	0.107091	-0.045906
C47	C	0.913417	0.440424	0.287427
C48	C	1.246750	0.773757	0.620761
C49	C	0.662284	0.108736	-0.040258
C50	C	0.995617	0.442070	0.293076
C51	C	1.328950	0.775403	0.626409
C52	C	0.289781	0.104682	0.004103
C53	C	0.623115	0.438015	0.337436
C54	C	0.956448	0.771348	0.670770
C55	C	0.207575	0.103039	-0.001540
C56	C	0.540908	0.436372	0.331793
C57	C	0.874242	0.769705	0.665127
C58	C	0.200057	0.110519	0.154656
C59	C	0.533391	0.443852	0.487989
C60	C	0.866724	0.777185	0.821322
C61	C	0.282259	0.112169	0.160297
C62	C	0.615592	0.445502	0.493630
C63	C	0.948925	0.778836	0.826963
C64	C	0.327117	0.109245	0.085021
C65	C	0.660450	0.442579	0.418354
C66	C	0.993784	0.775912	0.751688
N67	N	0.451196	0.108324	0.023596
N68	N	0.784529	0.441658	0.356929
N69	N	1.117863	0.774991	0.690262
N70	N	0.411139	0.110925	0.090797
N71	N	0.744472	0.444259	0.424130
N72	N	1.077805	0.777592	0.757464
C73	C	0.936568	-0.034065	0.068317
C74	C	1.269902	0.299268	0.401651
C75	C	1.603235	0.632601	0.734984
C76	C	0.934800	-0.121328	0.074709
C77	C	1.268133	0.212005	0.408042
C78	C	1.601466	0.545339	0.741375
C79	C	0.937733	-0.166057	-0.000382
C80	C	1.271066	0.167276	0.332952
C81	C	1.604399	0.500609	0.666285
C82	C	0.936066	-0.248049	0.005626
C83	C	1.269399	0.085284	0.338959
C84	C	1.602732	0.418617	0.672293
C85	C	0.931471	-0.285311	0.086725
C86	C	1.264805	0.048023	0.420058
C87	C	1.598138	0.381356	0.753392
C88	C	0.928536	-0.240575	0.161821
C89	C	1.261869	0.092759	0.495154
C90	C	1.595202	0.426092	0.828488
C91	C	0.930197	-0.158584	0.155812
C92	C	1.263530	0.174750	0.489145
C93	C	1.596864	0.508083	0.822479
C94	C	0.926262	-0.532683	0.108774
C95	C	1.259595	-0.199350	0.442108
C96	C	1.592929	0.133984	0.775441
C97	C	0.924603	-0.614680	0.114778
C98	C	1.257936	-0.281347	0.448111
C99	C	1.591270	0.051986	0.781445
C100	C	0.932132	-0.622149	-0.041418
C101	C	1.265465	-0.288816	0.291915
C102	C	1.598798	0.044518	0.625249
C103	C	0.933798	-0.540157	-0.047419
C104	C	1.267131	-0.206823	0.285914
C105	C	1.600464	0.126510	0.619247
C106	C	0.930858	-0.495427	0.027676
C107	C	1.264191	-0.162094	0.361009
C108	C	1.597524	0.171239	0.694343
C109	C	0.929770	-0.369120	0.092868
C110	C	1.263103	-0.035786	0.426201
C111	C	1.596437	0.297547	0.759535
C112	C	0.932553	-0.411619	0.021532
C113	C	1.265887	-0.078286	0.354865
C114	C	1.599220	0.255047	0.688199
C115	C	1.075230	0.104211	0.067722
C116	C	1.408564	0.437545	0.401056
C117	C	1.741897	0.770878	0.734389
C118	C	1.162716	0.105955	0.073730
C119	C	1.496050	0.439289	0.407064
C120	C	1.829383	0.772622	0.740397
C121	C	0.925767	0.253328	0.046084
C122	C	1.259101	0.586661	0.379418
C123	C	1.592434	0.919994	0.712751
C124	C	0.927536	0.340590	0.039687
C125	C	1.260870	0.673923	0.373021
C126	C	1.594203	1.007257	0.706354
N127	N	0.921352	0.119389	0.261082
N128	N	1.254685	0.452723	0.594415
N129	N	1.588018	0.786056	0.927749
N130	N	0.940990	0.099867	-0.146678
N131	N	1.274324	0.433200	0.186656
N132	N	1.607657	0.766534	0.519989
C133	C	0.972644	0.068253	0.313900
C134	C	1.305977	0.401586	0.647233
C135	C	1.639311	0.734919	0.980566
C136	C	0.968314	0.072573	0.404081
C137	C	1.301647	0.405907	0.737414
C138	C	1.634981	0.739240	1.070747
C139	C	0.912695	0.128035	0.441442
C140	C	1.246028	0.461368	0.774776
C141	C	1.579362	0.794701	1.108109
C142	C	0.861397	0.179173	0.388618
C143	C	1.194731	0.512507	0.721951
C144	C	1.528064	0.845840	1.055284
C145	C	0.865724	0.174849	0.298439
C146	C	1.199057	0.508182	0.631772
C147	C	1.532391	0.841515	0.965105
C148	C	0.894019	0.146681	0.710319
C149	C	1.227352	0.480014	1.043652
C150	C	1.560686	0.813348	1.376985
C151	C	0.889698	0.151003	0.800505
C152	C	1.223031	0.484337	1.133838
C153	C	1.556365	0.817670	1.467172
C154	C	0.996614	0.044402	0.815962
C155	C	1.329947	0.377735	1.149295
C156	C	1.663281	0.711068	1.482628
C157	C	1.000939	0.040085	0.725780
C158	C	1.334272	0.373418	1.059113
C159	C	1.667606	0.706752	1.392447
C160	C	0.949639	0.091221	0.672963
C161	C	1.282972	0.424554	1.006297
C162	C	1.616305	0.757888	1.339630
N163	N	0.908269	0.132454	0.533621
N164	N	1.241603	0.465787	0.866955
N165	N	1.574936	0.799121	1.200288
N166	N	0.954061	0.086798	0.580786
N167	N	1.287394	0.420131	0.914119
N168	N	1.620728	0.753464	1.247453
H169	H	0.163525	0.112898	0.215941
H170	H	0.496859	0.446231	0.549274
H171	H	0.830192	0.779564	0.882608
C172	C	0.809304	0.231109	0.240339
C173	C	1.142638	0.564443	0.573672
C174	C	1.475971	0.897776	0.907006
N175	N	0.766808	0.273487	0.196579
N176	N	1.100141	0.606821	0.529913
N177	N	1.433474	0.940154	0.863246
C178	C	0.523217	0.117799	0.193092
C179	C	0.856550	0.451132	0.526425
C180	C	1.189884	0.784466	0.859758
N181	N	0.486051	0.120235	0.255462
N182	N	0.819384	0.453569	0.588795
N183	N	1.152718	0.786902	0.922129
C184	C	0.939365	-0.297258	-0.076974
C185	C	1.272698	0.036076	0.256359
C186	C	1.606032	0.369409	0.589692
N187	N	0.941876	-0.334324	-0.139191
N188	N	1.275209	-0.000991	0.194143
N189	N	1.608542	0.332342	0.527476
H190	H	0.816107	0.224329	0.419042
H191	H	1.149440	0.557662	0.752376
H192	H	1.482774	0.890995	1.085709
H193	H	0.844404	0.196170	0.830919
H194	H	1.177737	0.529503	1.164252
H195	H	1.511070	0.862837	1.497586
H196	H	0.685157	0.119945	0.181829
H197	H	1.018490	0.453278	0.515162
H198	H	1.351824	0.786612	0.848495
H199	H	0.936289	-0.381277	-0.044499
H200	H	1.269622	-0.047944	0.288834
H201	H	1.602956	0.285390	0.622168
C202	C	0.938852	-0.499176	-0.136635
C203	C	1.272185	-0.165842	0.196699
C204	C	1.605518	0.167491	0.530032
N205	N	0.942661	-0.468309	-0.203833
N206	N	1.275995	-0.134976	0.129500
N207	N	1.609328	0.198358	0.462834
H208	H	0.177174	0.099326	-0.067438
H209	H	0.510507	0.432659	0.265896
H210	H	0.843841	0.765992	0.599229
C211	C	0.323328	0.117184	0.249314
C212	C	0.656662	0.450517	0.582648
C213	C	0.989995	0.783850	0.915981
N214	N	0.354262	0.120962	0.316364
N215	N	0.687595	0.454295	0.649697
N216	N	1.020928	0.787628	0.983030
H217	H	0.934524	-0.658576	-0.102557
H218	H	1.267857	-0.325243	0.230777
H219	H	1.601190	0.008091	0.564110
C220	C	1.024721	0.016300	0.462177
C221	C	1.358054	0.349633	0.795510
C222	C	1.691388	0.682966	1.128843
N223	N	1.067202	-0.026096	0.505935
N224	N	1.400536	0.307238	0.839268
N225	N	1.733869	0.640571	1.172601
C226	C	0.837689	0.203035	0.652232
C227	C	1.171022	0.536368	0.985565
C228	C	1.504356	0.869702	1.318898
N229	N	0.795295	0.245520	0.608477
N230	N	1.128628	0.578853	0.941810
N231	N	1.461962	0.912187	1.275143
C232	C	0.919546	-0.655665	0.203997
C233	C	1.252879	-0.322332	0.537330
C234	C	1.586213	0.011001	0.870664
N235	N	0.915738	-0.686536	0.271193
N236	N	1.249071	-0.353202	0.604527
N237	N	1.582405	-0.019869	0.937860
H238	H	0.326295	0.102299	-0.057192
H239	H	0.659629	0.435632	0.276142
H240	H	0.992962	0.768965	0.609475
H241	H	0.923884	-0.496276	0.169924
H242	H	1.257217	-0.162943	0.503257
H243	H	1.590550	0.170391	0.836591
H244	H	0.924790	-0.270919	0.227853
H245	H	1.258123	0.062415	0.561187
H246	H	1.591457	0.395748	0.894520
C247	C	0.924716	-0.410115	0.182075
C248	C	1.258049	-0.076782	0.515409
C249	C	1.591383	0.256551	0.848742
N250	N	0.920906	-0.440996	0.249266
N251	N	1.254240	-0.107663	0.582599
N252	N	1.587573	0.225671	0.915933
C253	C	1.062120	-0.020931	0.684690
C254	C	1.395454	0.312403	1.018023
C255	C	1.728787	0.645736	1.351356
N256	N	1.108203	-0.066888	0.653741
N257	N	1.441537	0.266445	0.987074
N258	N	1.774870	0.599778	1.320407
C259	C	1.033829	0.007240	0.272811
C260	C	1.367163	0.340573	0.606144
C261	C	1.700496	0.673907	0.939478
N262	N	1.079913	-0.038719	0.241866
N263	N	1.413247	0.294614	0.575199
N264	N	1.746580	0.627948	0.908533
C265	C	0.942787	-0.125078	-0.089598
C266	C	1.276120	0.208255	0.243735
C267	C	1.609453	0.541589	0.577069
N268	N	0.946590	-0.094214	-0.156799
N269	N	1.279923	0.239119	0.176535
N270	N	1.613257	0.572453	0.509868
H271	H	0.927798	-0.122164	0.216958
H272	H	1.261131	0.211169	0.550291
H273	H	1.594464	0.544503	0.883625
H274	H	1.038380	0.002768	0.858973
H275	H	1.371713	0.336102	1.192306
H276	H	1.705046	0.669435	1.525640
H277	H	0.698807	0.106363	-0.101551
H278	H	1.032140	0.439696	0.231782
H279	H	1.365473	0.773029	0.565116
C280	C	0.539005	0.102070	-0.134918
C281	C	0.872339	0.435403	0.198415
C282	C	1.205672	0.768736	0.531749
N283	N	0.508066	0.098291	-0.201964
N284	N	0.841399	0.431624	0.131369
N285	N	1.174732	0.764957	0.464703
