data_functionalizedCrystal
_audit_creation_method	'MofGen! by Chris Wilmer'
_symmetry_space_group_name_H-M	'P1'
_symmetry_Int_Tables_number	1
_symmetry_cell_setting	triclinic
loop_
_symmetry_equiv_pos_as_xyz
  x,y,z
_cell_length_a	11.792241
_cell_length_b	27.732048
_cell_length_c	10.268362
_cell_angle_alpha	89.989776
_cell_angle_beta	89.999626
_cell_angle_gamma	83.418036
loop_
_atom_site_label
_atom_site_type_symbol
_atom_site_fract_x
_atom_site_fract_y
_atom_site_fract_z
O1	O	1.504790	0.066248	-0.108189
O2	O	1.174230	0.073076	-0.108221
O3	O	1.349776	-0.000675	-0.108179
O4	O	1.329243	0.139999	-0.108231
O5	O	1.349761	-0.000678	0.108421
O6	O	1.174215	0.073073	0.108379
O7	O	1.504775	0.066245	0.108411
Cu8	Cu	1.339493	0.069659	0.128173
Cu9	Cu	1.339511	0.069662	-0.127983
O10	O	1.329228	0.139996	0.108370
C11	C	1.131945	0.072645	0.000075
C12	C	1.005973	0.071362	0.000064
C13	C	0.775336	0.069001	0.000103
C14	C	0.903679	0.070313	0.000082
C15	C	1.349338	-0.018686	0.000124
C16	C	1.348040	-0.072348	0.000135
C17	C	1.443606	-0.410609	0.000077
C18	C	1.438790	-0.612297	0.000059
O19	O	1.526178	-0.643045	0.000010
N20	N	1.334698	-0.632024	0.000050
C21	C	1.231803	-0.601327	0.000037
O22	O	1.143157	-0.622734	0.000016
C23	C	1.236620	-0.399640	0.000046
C24	C	1.340718	-0.379915	0.000069
C25	C	1.547695	-0.390884	0.000098
C26	C	1.548898	-0.340465	0.000110
C27	C	1.446011	-0.309771	0.000101
C28	C	1.341921	-0.329496	0.000080
C29	C	1.133726	-0.368943	0.000024
C30	C	1.134940	-0.318519	0.000023
C31	C	1.239038	-0.298794	0.000045
C32	C	1.240237	-0.248384	0.000083
N33	N	1.344328	-0.228656	0.000092
C34	C	1.447215	-0.259350	0.000101
C35	C	1.229282	-0.707215	0.000035
C36	C	1.228077	-0.757637	0.000035
C37	C	1.435065	-0.768603	0.000054
C38	C	1.436268	-0.718181	0.000063
C39	C	1.333374	-0.687488	0.000044
C40	C	1.449733	-0.153466	0.000127
C41	C	1.450927	-0.103042	0.000144
C42	C	1.243941	-0.092080	0.000118
C43	C	1.242746	-0.142500	0.000108
C44	C	1.345652	-0.173192	0.000108
O45	O	1.152896	-0.217607	0.000117
O46	O	1.535849	-0.237933	0.000093
C47	C	1.442403	-0.461028	0.000066
C48	C	1.338313	-0.480753	0.000045
C49	C	1.235426	-0.450060	0.000036
C50	C	1.337108	-0.531175	0.000045
C51	C	1.439996	-0.561868	0.000054
C52	C	1.544087	-0.542141	0.000063
C53	C	1.545290	-0.491722	0.000074
C54	C	1.131334	-0.469787	0.000027
C55	C	1.130140	-0.520207	0.000017
C56	C	1.233027	-0.550900	0.000026
C57	C	1.547059	0.066676	0.000112
C58	C	1.673032	0.067959	0.000114
C59	C	1.329667	0.158007	0.000063
C60	C	1.330965	0.211669	0.000044
N61	N	1.339489	0.069656	0.308339
N62	N	1.339525	0.069661	-0.308148
C63	C	1.339506	0.069661	0.574009
C64	C	1.339493	0.069660	0.426171
H65	H	1.535700	-0.086985	0.000165
H66	H	1.143310	-0.773692	0.000040
H67	H	1.145488	-0.682229	0.000019
H68	H	1.047549	-0.444801	0.000017
H69	H	1.051148	-0.293530	0.000006
O70	O	1.549798	-0.183207	0.000189
C71	C	1.641917	-0.154975	0.000178
H72	H	1.612415	-0.117430	0.041185
H73	H	1.673877	-0.151289	-0.103730
C74	C	1.775457	-0.225949	0.034770
C75	C	1.739224	-0.179836	0.085146
H76	H	1.835484	-0.241285	0.087177
H77	H	1.713397	-0.244969	0.034773
H78	H	1.802083	-0.222870	-0.051819
H79	H	1.712587	-0.182916	0.171727
H80	H	1.801284	-0.160817	0.085160
H81	H	1.048958	-0.384994	-0.000001
H82	H	1.157981	-0.158560	0.000126
H83	H	1.630058	-0.475667	0.000092
O84	O	1.650120	-0.321388	0.000063
C85	C	1.740660	-0.359299	0.000099
H86	H	1.709448	-0.393628	-0.040911
H87	H	1.772348	-0.366357	0.104015
C88	C	1.877253	-0.302642	-0.034469
C89	C	1.838920	-0.344804	-0.084848
H90	H	1.937867	-0.293700	-0.086863
H91	H	1.816255	-0.277100	-0.034488
H92	H	1.903651	-0.308529	0.052127
H93	H	1.812509	-0.338914	-0.171436
H94	H	1.899915	-0.370344	-0.084845
O95	O	1.647574	-0.420745	0.000282
C96	C	1.653084	-0.450237	0.112481
H97	H	1.563047	-0.453038	0.149865
H98	H	1.704600	-0.433510	0.191041
C99	C	1.821720	-0.497822	0.032503
C100	C	1.711135	-0.501265	0.078413
H101	H	1.857534	-0.529298	0.011492
H102	H	1.818012	-0.477952	-0.043085
H103	H	1.864636	-0.483881	0.097978
H104	H	1.668217	-0.515200	0.012933
H105	H	1.714838	-0.521139	0.153990
O106	O	1.644003	-0.571981	-0.000163
C107	C	1.649477	-0.601472	-0.112333
H108	H	1.591118	-0.583154	-0.190738
H109	H	1.620745	-0.638212	-0.086981
C110	C	1.844779	-0.631303	-0.066898
C111	C	1.773109	-0.608801	-0.163200
H112	H	1.921041	-0.635826	-0.098274
H113	H	1.841091	-0.611436	0.008676
H114	H	1.820822	-0.661917	-0.045780
H115	H	1.797057	-0.578185	-0.184305
H116	H	1.776804	-0.628663	-0.238780
H117	H	1.160173	-0.067080	0.000115
H118	H	1.521034	-0.702125	0.000080
H119	H	1.518839	-0.793603	0.000062
H120	H	1.045364	-0.536261	0.000010
