data_functionalizedCrystal
_audit_creation_method	'MofGen! by Chris Wilmer'
_symmetry_space_group_name_H-M	'P1'
_symmetry_Int_Tables_number	1
_symmetry_cell_setting	triclinic
loop_
_symmetry_equiv_pos_as_xyz
  x,y,z
_cell_length_a	27.732048
_cell_length_b	27.732048
_cell_length_c	26.809956
_cell_angle_alpha	90.000636
_cell_angle_beta	89.996742
_cell_angle_gamma	97.357345
loop_
_atom_site_label
_atom_site_type_symbol
_atom_site_fract_x
_atom_site_fract_y
_atom_site_fract_z
O1	O	0.640931	-0.057510	-0.041421
O2	O	0.500138	-0.066256	-0.041436
O3	O	0.574907	0.008514	-0.041419
O4	O	0.566162	-0.132280	-0.041439
O5	O	0.574893	0.008502	0.041541
O6	O	0.500123	-0.066267	0.041523
O7	O	0.640917	-0.057522	0.041539
Zn8	Zn	0.570518	-0.061896	0.054702
Zn9	Zn	0.570536	-0.061881	-0.054600
O10	O	0.566147	-0.132291	0.041521
C11	C	0.482124	-0.066078	0.000041
C12	C	0.428469	-0.065525	0.000036
C13	C	0.574716	0.026515	0.000062
C14	C	0.574164	0.080170	0.000066
C15	C	0.089654	-0.106229	0.000051
C16	C	-0.112006	-0.104178	0.000056
O17	O	-0.143262	-0.141398	0.000073
N18	N	-0.131130	-0.059843	0.000062
C19	C	-0.099835	-0.016017	0.000069
O20	O	-0.120728	0.021740	0.000079
C21	C	0.101824	-0.018068	0.000068
C22	C	0.120944	-0.062407	0.000057
C23	C	0.108775	-0.150563	0.000042
C24	C	0.159187	-0.151076	0.000038
C25	C	0.190477	-0.107253	0.000044
C26	C	0.171356	-0.062919	0.000054
C27	C	0.133117	0.025757	0.000079
C28	C	0.183535	0.025240	0.000080
C29	C	0.202655	-0.019098	0.000069
C30	C	0.253059	-0.019609	0.000056
N31	N	0.272183	-0.063944	0.000050
C32	C	0.240892	-0.107766	0.000044
C33	C	-0.205709	-0.014943	0.000069
C34	C	-0.256124	-0.014430	0.000068
C35	C	-0.268291	-0.102591	0.000056
C36	C	-0.217876	-0.103104	0.000053
C37	C	-0.186585	-0.059278	0.000063
C38	C	0.346761	-0.108839	0.000036
C39	C	0.397178	-0.109347	0.000030
C40	C	0.409341	-0.021186	0.000044
C41	C	0.358929	-0.020678	0.000048
C42	C	0.327639	-0.064508	0.000045
O43	O	0.284343	0.017592	0.000045
O44	O	0.261794	-0.145518	0.000045
C45	C	0.039242	-0.105716	0.000055
C46	C	0.020120	-0.061382	0.000065
C47	C	0.051411	-0.017560	0.000071
C48	C	-0.030294	-0.060869	0.000065
C49	C	-0.061585	-0.104691	0.000059
C50	C	-0.042461	-0.149026	0.000053
C51	C	0.007951	-0.149539	0.000049
C52	C	0.032287	0.026775	0.000077
C53	C	-0.018125	0.027284	0.000080
C54	C	-0.049416	-0.016538	0.000074
C55	C	0.658931	-0.057699	0.000060
C56	C	0.712586	-0.058252	0.000062
C57	C	0.566338	-0.150292	0.000039
C58	C	0.566891	-0.203947	0.000031
N59	N	0.570509	-0.061906	0.129298
C60	C	0.614867	0.418985	0.000045
C61	C	0.612816	0.620645	0.000038
O62	O	0.650037	0.651900	0.000021
N63	N	0.568481	0.639768	0.000034
C64	C	0.524656	0.608474	0.000028
O65	O	0.486899	0.629367	0.000019
C66	C	0.526707	0.406815	0.000031
C67	C	0.571045	0.387694	0.000041
C68	C	0.659202	0.399864	0.000054
C69	C	0.659714	0.349452	0.000059
C70	C	0.615892	0.318161	0.000054
C71	C	0.571557	0.337282	0.000045
C72	C	0.482882	0.375521	0.000022
C73	C	0.483399	0.325104	0.000021
C74	C	0.527737	0.305983	0.000031
C75	C	0.528247	0.255580	0.000045
N76	N	0.572583	0.236456	0.000050
C77	C	0.616405	0.267747	0.000054
C78	C	0.523582	0.714348	0.000027
C79	C	0.523069	0.764762	0.000027
C80	C	0.611230	0.776930	0.000036
C81	C	0.611742	0.726514	0.000040
C82	C	0.567917	0.695224	0.000031
C83	C	0.617477	0.161878	0.000064
C84	C	0.617986	0.111461	0.000071
C85	C	0.529825	0.099298	0.000059
C86	C	0.529316	0.149710	0.000055
C87	C	0.573147	0.180999	0.000056
O88	O	0.491047	0.224296	0.000057
O89	O	0.654156	0.246844	0.000053
C90	C	0.614355	0.469397	0.000041
C91	C	0.570021	0.488518	0.000032
C92	C	0.526198	0.457228	0.000027
C93	C	0.569508	0.538933	0.000032
C94	C	0.613330	0.570223	0.000036
C95	C	0.657665	0.551100	0.000041
C96	C	0.658177	0.500688	0.000045
C97	C	0.481863	0.476351	0.000023
C98	C	0.481355	0.526764	0.000019
C99	C	0.525177	0.558054	0.000023
N100	N	0.570549	-0.061867	-0.129196
C101	C	0.603640	-0.028781	0.473932
C102	C	0.603652	-0.028774	0.682810
O103	O	0.631801	-0.000613	0.709820
N104	N	0.570539	-0.061870	0.708925
C105	C	0.537419	-0.094969	0.682818
O106	O	0.509252	-0.123116	0.709824
C107	C	0.537406	-0.094974	0.473941
C108	C	0.570524	-0.061878	0.447829
C109	C	0.636755	0.004312	0.447819
C110	C	0.636754	0.004308	0.395603
C111	C	0.603637	-0.028789	0.369500
C112	C	0.570522	-0.061882	0.395612
C113	C	0.504284	-0.128070	0.447835
C114	C	0.504283	-0.128067	0.395613
C115	C	0.537401	-0.094972	0.369500
C116	C	0.537405	-0.094983	0.317293
N117	N	0.570517	-0.061887	0.291177
C118	C	0.603633	-0.028790	0.317281
C119	C	0.537429	-0.094965	0.792481
C120	C	0.537433	-0.094964	0.844700
C121	C	0.603665	-0.028768	0.844689
C122	C	0.603663	-0.028772	0.792469
C123	C	0.570542	-0.061868	0.766366
C124	C	0.603628	-0.028801	0.207623
C125	C	0.603625	-0.028809	0.155402
C126	C	0.537392	-0.095003	0.155418
C127	C	0.537396	-0.094997	0.207635
C128	C	0.570516	-0.061892	0.233735
O129	O	0.509266	-0.123126	0.290250
O130	O	0.631789	-0.000640	0.290266
C131	C	0.603642	-0.028777	0.526149
C132	C	0.570527	-0.061870	0.552261
C133	C	0.537410	-0.094968	0.526158
C134	C	0.570531	-0.061870	0.604480
C135	C	0.603647	-0.028773	0.630584
C136	C	0.636759	0.004324	0.604468
C137	C	0.636758	0.004320	0.552252
C138	C	0.504298	-0.128064	0.552273
C139	C	0.504303	-0.128058	0.604489
C140	C	0.537419	-0.094961	0.630593
H141	H	0.412743	-0.145454	0.000021
O142	O	0.701235	0.482094	0.000139
C143	C	0.704164	0.453288	0.043098
H144	H	0.678990	0.465023	0.073127
H145	H	0.743155	0.458104	0.057523
H146	H	0.692718	0.413444	0.033384
H147	H	0.630597	-0.001843	0.228868
O148	O	0.440781	0.294778	0.000035
C149	C	0.401542	0.322470	0.000013
H150	H	0.414098	0.360191	0.015719
H151	H	0.370854	0.303651	0.024093
H152	H	0.387945	0.325961	-0.039790
O153	O	0.078404	-0.193149	-0.000055
C154	C	0.087043	-0.220082	-0.043020
H155	H	0.104461	-0.194421	-0.073043
H156	H	0.051134	-0.239744	-0.057450
H157	H	0.112518	-0.247860	-0.033311
O158	O	0.700279	0.581432	0.000066
C159	C	0.739526	0.553750	0.000058
H160	H	0.726974	0.516029	0.015767
H161	H	0.770202	0.572580	0.024143
H162	H	0.753138	0.550258	-0.039741
O163	O	0.668911	0.036437	0.526831
C164	C	0.698539	0.010817	0.496560
H165	H	0.699171	-0.027287	0.512292
H166	H	0.737075	0.030877	0.495901
H167	H	0.683329	0.008144	0.457011
O168	O	0.472195	-0.160257	0.629875
C169	C	0.497849	-0.189896	0.660093
H170	H	0.535964	-0.190456	0.644359
H171	H	0.477834	-0.228452	0.660685
H172	H	0.500494	-0.174749	0.699668
H173	H	0.647846	0.710950	0.000047
H174	H	0.493213	0.165279	0.000061
H175	H	0.494146	0.073812	0.000057
H176	H	-0.293777	-0.138273	0.000051
O177	O	0.472196	-0.160240	0.526867
C178	C	0.497859	-0.189896	0.496675
H179	H	0.535824	-0.170380	0.488840
H180	H	0.477622	-0.197695	0.459959
H181	H	0.500882	-0.225593	0.516809
H182	H	0.477317	-0.155019	0.469089
O183	O	0.316440	-0.151459	0.000007
C184	C	0.344137	-0.190694	0.000009
H185	H	0.381857	-0.178127	-0.015694
H186	H	0.325321	-0.221372	-0.024084
H187	H	0.347627	-0.204311	0.039805
H188	H	0.510433	-0.121951	0.228896
H189	H	0.174750	-0.187180	0.000029
H190	H	0.446177	0.450879	0.000018
H191	H	0.630595	-0.001859	0.134142
O192	O	0.668939	0.036508	0.370318
C193	C	0.698172	0.065710	0.404564
H194	H	0.678356	0.066113	0.441789
H195	H	0.705833	0.104367	0.389482
H196	H	0.733962	0.050263	0.410115
H197	H	0.510430	-0.121952	0.134157
O198	O	0.114632	0.068870	0.000116
C199	C	0.153070	0.107432	0.000113
H200	H	0.187219	0.094131	0.015811
H201	H	0.142766	0.138404	0.024210
H202	H	0.160305	0.120942	-0.039682
H203	H	0.630630	-0.001822	0.771211
H204	H	0.663726	0.031271	0.625730
O205	O	0.635786	0.003366	0.870128
C206	C	0.628691	-0.003743	0.921816
H207	H	0.590128	-0.022081	0.928946
H208	H	0.634337	0.032901	0.941664
H209	H	0.655871	-0.027795	0.936633
O210	O	-0.199384	-0.146216	0.000069
C211	C	-0.237819	-0.184781	0.000048
H212	H	-0.271972	-0.171491	0.015754
H213	H	-0.227515	-0.215763	0.024129
H214	H	-0.245048	-0.198273	-0.039754
H215	H	0.209009	0.060929	0.000089
H216	H	0.057760	0.062462	0.000083
O217	O	0.660022	0.192316	0.000134
C218	C	0.662364	0.221835	0.043105
H219	H	0.624014	0.224112	0.057421
H220	H	0.680668	0.259859	0.033443
H221	H	0.684303	0.205405	0.073196
O222	O	-0.274614	0.028683	0.000094
C223	C	-0.236179	0.067248	0.000088
H224	H	-0.202029	0.053953	0.015792
H225	H	-0.246487	0.098223	0.024179
H226	H	-0.228943	0.080752	-0.039709
O227	O	0.505312	-0.127098	0.870140
C228	C	0.512403	-0.119997	0.921829
H229	H	0.550968	-0.101667	0.928962
H230	H	0.506747	-0.156642	0.941673
H231	H	0.485227	-0.095939	0.936650
O232	O	0.668862	0.036511	0.473194
C233	C	0.643212	0.066155	0.503414
H234	H	0.605095	0.066711	0.487690
H235	H	0.663226	0.104712	0.503996
H236	H	0.640575	0.051015	0.542992
O237	O	0.653755	0.807399	0.000014
C238	C	0.643789	0.855994	0.000024
H239	H	0.605835	0.857643	-0.015679
H240	H	0.671742	0.879042	-0.024065
H241	H	0.645731	0.870592	0.039823
O242	O	-0.175269	0.027601	0.000007
C243	C	-0.145749	0.029956	-0.042965
H244	H	-0.143471	-0.008390	-0.057292
H245	H	-0.107726	0.048258	-0.033302
H246	H	-0.162180	0.051903	-0.073050
H247	H	0.434827	0.014492	0.000047
O248	O	0.340432	0.022434	0.000073
C249	C	0.378864	0.061002	0.000060
H250	H	0.413017	0.047711	0.015760
H251	H	0.368556	0.091977	0.024151
H252	H	0.386094	0.074504	-0.039739
O253	O	0.438238	0.545254	-0.000012
C254	C	0.399673	0.506819	-0.000003
H255	H	0.412970	0.472666	-0.015701
H256	H	0.368701	0.517123	-0.024098
H257	H	0.386164	0.499589	0.039794
O258	O	0.661046	0.092864	0.000166
C259	C	0.663971	0.064060	0.043127
H260	H	0.638798	0.075799	0.073155
H261	H	0.702961	0.068873	0.057552
H262	H	0.652521	0.024216	0.033415
O263	O	0.026441	-0.192652	0.000065
C264	C	-0.011996	-0.231215	0.000048
H265	H	-0.046147	-0.217922	0.015756
H266	H	-0.001693	-0.262197	0.024129
H267	H	-0.019229	-0.244708	-0.039754
O268	O	-0.036615	0.070400	0.000111
C269	C	0.001820	0.108965	0.000105
H270	H	0.035971	0.095669	0.015802
H271	H	-0.008486	0.139938	0.024200
H272	H	0.009052	0.122473	-0.039692
O273	O	-0.072911	-0.191564	-0.000019
C274	C	-0.102428	-0.193902	-0.042989
H275	H	-0.104690	-0.155552	-0.057309
H276	H	-0.140457	-0.212193	-0.033325
H277	H	-0.086005	-0.215853	-0.073078
H278	H	0.477310	-0.155018	0.374362
O279	O	0.702797	0.330906	-0.000025
C280	C	0.729495	0.346943	-0.042983
H281	H	0.703563	0.357235	-0.073015
H282	H	0.749836	0.316554	-0.057404
H283	H	0.756675	0.380005	-0.033267
O284	O	0.701762	0.430274	-0.000029
C285	C	0.704116	0.459812	-0.042986
H286	H	0.679260	0.441173	-0.073022
H287	H	0.743100	0.465757	-0.057400
H288	H	0.691892	0.496389	-0.033273
O289	O	0.479956	0.783252	0.000001
C290	C	0.441391	0.744818	0.000008
H291	H	0.454686	0.710667	-0.015695
H292	H	0.410417	0.755124	-0.024082
H293	H	0.427885	0.737584	0.039806
O294	O	0.481039	0.683906	0.000088
C295	C	0.478682	0.654388	0.043059
H296	H	0.517027	0.652113	0.057387
H297	H	0.460382	0.616363	0.033395
H298	H	0.456730	0.670818	0.073143
H299	H	0.510457	-0.121917	0.771232
H300	H	0.446777	0.391080	0.000011
