data_functionalizedCrystal
_audit_creation_method	'MofGen! by Chris Wilmer'
_symmetry_space_group_name_H-M	'P1'
_symmetry_Int_Tables_number	1
_symmetry_cell_setting	triclinic
loop_
_symmetry_equiv_pos_as_xyz
  x,y,z
_cell_length_a	10.540510
_cell_length_b	14.519709
_cell_length_c	12.996460
_cell_angle_alpha	90.007090
_cell_angle_beta	89.994188
_cell_angle_gamma	95.903272
loop_
_atom_site_label
_atom_site_type_symbol
_atom_site_fract_x
_atom_site_fract_y
_atom_site_fract_z
O1	O	1.684586	-0.129839	-0.085576
O2	O	2.184586	0.370161	0.414424
O3	O	1.315042	-0.142113	-0.085577
O4	O	1.815042	0.357887	0.414423
O5	O	1.509612	-0.001789	-0.085567
O6	O	2.009612	0.498211	0.414433
O7	O	1.490016	-0.270162	-0.085585
O8	O	1.990016	0.229838	0.414415
O9	O	1.509592	-0.001781	0.085567
O10	O	2.009592	0.498219	0.585567
O11	O	1.315022	-0.142105	0.085557
O12	O	1.815022	0.357895	0.585557
O13	O	1.684565	-0.129831	0.085558
O14	O	2.184565	0.370169	0.585558
Cu15	Cu	1.499792	-0.135967	0.101183
Cu16	Cu	1.999792	0.364033	0.601183
Cu17	Cu	1.499816	-0.135977	-0.101202
Cu18	Cu	1.999816	0.364023	0.398798
O19	O	1.489996	-0.270154	0.085548
O20	O	1.989996	0.229846	0.585548
C21	C	1.267738	-0.141194	-0.000010
C22	C	1.767738	0.358806	0.499990
C23	C	1.126816	-0.138458	-0.000010
C24	C	1.626816	0.361542	0.499990
N25	N	1.499784	-0.135960	0.243531
N26	N	1.999784	0.364040	0.743531
C27	C	1.508688	0.032579	0.000000
C28	C	2.008688	0.532579	0.500000
C29	C	1.505952	0.134975	0.000001
C30	C	2.005952	0.634975	0.500001
C31	C	0.908365	-0.235940	-0.000410
C32	C	1.408365	0.264060	0.499590
C33	C	1.054931	-0.238859	-0.000018
C34	C	1.554931	0.261141	0.499982
C35	C	1.082569	-0.087057	0.097717
C36	C	1.582569	0.412943	0.597717
C37	C	0.935831	-0.084850	0.097793
C38	C	1.435831	0.415150	0.597793
C39	C	0.936069	-0.082768	-0.096818
C40	C	1.436069	0.417232	0.403182
C41	C	1.082362	-0.087530	-0.098104
C42	C	1.582362	0.412470	0.401896
C43	C	1.731870	-0.130749	-0.000011
C44	C	2.231870	0.369251	0.499989
C45	C	1.872792	-0.133486	-0.000018
C46	C	2.372792	0.366514	0.499982
C47	C	1.490919	-0.304523	-0.000021
C48	C	1.990919	0.195477	0.499979
C49	C	1.493656	-0.406919	-0.000028
C50	C	1.993656	0.093081	0.499972
C51	C	1.495877	0.509924	-0.000026
C52	C	1.995877	1.009924	0.499974
C53	C	1.498675	0.405602	-0.000018
C54	C	1.998675	0.905602	0.499982
C55	C	1.500914	0.322453	-0.000012
C56	C	2.000914	0.822453	0.499988
C57	C	1.503712	0.218124	-0.000006
C58	C	2.003712	0.718124	0.499994
N59	N	1.499833	-0.135976	-0.243549
N60	N	1.999833	0.364024	0.256451
C61	C	1.499814	-0.135977	0.663345
C62	C	1.999814	0.364023	1.163345
C63	C	1.499802	-0.135976	0.546540
C64	C	1.999802	0.364024	1.046540
C65	C	1.499800	-0.135969	0.453441
C66	C	1.999800	0.364031	0.953441
C67	C	1.499786	-0.135966	0.336629
C68	C	1.999786	0.364034	0.836629
H69	H	0.866021	-0.275058	-0.070496
H70	H	1.366021	0.224942	0.429504
C71	C	1.015633	-0.165873	0.253960
C72	C	1.515633	0.334127	0.753960
C73	C	1.123707	-0.135229	0.195900
C74	C	1.623707	0.364771	0.695900
H75	H	1.041032	-0.195608	0.314575
H76	H	1.541032	0.304392	0.814575
H77	H	0.961085	-0.208359	0.214425
H78	H	1.461085	0.291641	0.714425
H79	H	0.971499	-0.114428	0.272268
H80	H	1.471499	0.385572	0.772268
H81	H	1.167836	-0.186675	0.177585
H82	H	1.667836	0.313325	0.677585
H83	H	1.178276	-0.092740	0.235443
H84	H	1.678276	0.407260	0.735443
H85	H	0.864453	-0.274827	0.069273
H86	H	1.364453	0.225173	0.569273
C87	C	1.225092	-0.296352	0.095537
C88	C	1.725092	0.203648	0.595537
C89	C	1.092724	-0.293447	0.094714
C90	C	1.592724	0.206553	0.594714
H91	H	1.248420	-0.330056	0.154023
H92	H	1.748420	0.169944	0.654023
H93	H	1.266307	-0.235078	0.098404
H94	H	1.766307	0.264922	0.598404
H95	H	1.250315	-0.325910	0.034747
H96	H	1.750315	0.174090	0.534747
H97	H	1.067502	-0.263883	0.155501
H98	H	1.567502	0.236117	0.655501
H99	H	1.051495	-0.354733	0.091856
H100	H	1.551495	0.145267	0.591856
C101	C	1.219055	0.020679	-0.198006
C102	C	1.719055	0.520679	0.301994
C103	C	1.149649	0.011413	-0.106067
C104	C	1.649649	0.511413	0.393933
H105	H	1.260614	0.081759	-0.202911
H106	H	1.760614	0.581759	0.297089
H107	H	1.162719	0.009066	-0.254635
H108	H	1.662719	0.509066	0.245365
H109	H	1.280919	-0.022497	-0.198814
H110	H	1.780919	0.477503	0.301186
H111	H	1.087779	0.054584	-0.105262
H112	H	1.587779	0.554584	0.394738
H113	H	1.205990	0.023036	-0.049424
H114	H	1.705990	0.523036	0.450576
C115	C	1.019966	0.074997	0.107320
C116	C	1.519966	0.574997	0.607320
C117	C	0.905811	0.016520	0.103801
C118	C	1.405811	0.516520	0.603801
H119	H	1.001434	0.137575	0.111039
H120	H	1.501434	0.637575	0.611039
H121	H	1.068381	0.066408	0.047067
H122	H	1.568381	0.566408	0.547067
H123	H	1.067493	0.060672	0.166253
H124	H	1.567493	0.560672	0.666253
H125	H	0.858288	0.030841	0.044863
H126	H	1.358288	0.530841	0.544863
H127	H	0.857376	0.025113	0.164060
H128	H	1.357376	0.525113	0.664060
H129	H	1.130713	-0.013144	0.101357
H130	H	1.630713	0.486856	0.601357
C131	C	0.898852	-0.219296	-0.201230
C132	C	1.398852	0.280704	0.298770
C133	C	0.878368	-0.125611	-0.196821
C134	C	1.378368	0.374389	0.303179
H135	H	0.863235	-0.245749	-0.262968
H136	H	1.363235	0.254251	0.237032
H137	H	0.859350	-0.250880	-0.143767
H138	H	1.359350	0.249120	0.356233
H139	H	0.987868	-0.224792	-0.199962
H140	H	1.487868	0.275208	0.300038
H141	H	0.789351	-0.120115	-0.198081
H142	H	1.289351	0.379885	0.301919
H143	H	0.917866	-0.094017	-0.254300
H144	H	1.417866	0.405983	0.245700
H145	H	1.110607	-0.124928	-0.170402
H146	H	1.610607	0.375072	0.329598
C147	C	0.775067	0.022733	-0.101425
C148	C	1.275067	0.522733	0.398575
C149	C	0.907202	0.018993	-0.097716
C150	C	1.407202	0.518993	0.402284
H151	H	0.757244	0.085554	-0.101981
H152	H	1.257244	0.585554	0.398019
H153	H	0.736603	-0.007547	-0.042769
H154	H	1.236603	0.492453	0.457231
H155	H	0.741745	-0.007260	-0.162054
H156	H	1.241745	0.492740	0.337946
H157	H	0.940523	0.048980	-0.037083
H158	H	1.440523	0.548980	0.462917
H159	H	0.945680	0.049286	-0.156378
H160	H	1.445680	0.549286	0.343622
H161	H	1.083875	-0.279070	-0.070075
H162	H	1.583875	0.220930	0.429925
H163	H	0.895247	-0.119970	0.170840
H164	H	1.395247	0.380030	0.670840
