data_functionalizedCrystal
_audit_creation_method	'MofGen! by Chris Wilmer'
_symmetry_space_group_name_H-M	'P1'
_symmetry_Int_Tables_number	1
_symmetry_cell_setting	triclinic
loop_
_symmetry_equiv_pos_as_xyz
  x,y,z
_cell_length_a	10.540539
_cell_length_b	23.532407
_cell_length_c	9.616153
_cell_angle_alpha	89.993077
_cell_angle_beta	89.995174
_cell_angle_gamma	83.687085
loop_
_atom_site_label
_atom_site_type_symbol
_atom_site_fract_x
_atom_site_fract_y
_atom_site_fract_z
O1	O	1.683259	0.080251	-0.115596
O2	O	1.313597	0.087813	-0.115615
O3	O	1.509575	0.001174	-0.115579
O4	O	1.487281	0.166890	-0.115631
O5	O	1.509548	0.001176	0.115712
O6	O	1.313571	0.087814	0.115677
O7	O	1.683232	0.080253	0.115695
Zn8	Zn	1.498397	0.084034	0.152408
Zn9	Zn	1.498432	0.084032	-0.152328
O10	O	1.487254	0.166892	0.115660
C11	C	1.266300	0.087246	0.000029
C12	C	1.125407	0.085550	0.000023
C13	C	1.508994	-0.020045	0.000070
C14	C	1.507287	-0.083273	0.000080
C15	C	0.944114	0.020541	0.000583
C16	C	1.090676	0.022261	0.000047
C17	C	1.062750	0.116006	-0.132060
C18	C	0.916277	0.113846	-0.132156
C19	C	0.915716	0.115136	0.130865
C20	C	1.062678	0.115719	0.132597
C21	C	1.612557	-0.481681	0.000010
C22	C	1.610971	-0.541092	-0.000001
O23	O	1.708557	-0.577192	-0.000048
N24	N	1.494462	-0.564488	-0.000006
C25	C	1.379532	-0.528469	-0.000014
O26	O	1.280287	-0.553824	-0.000021
C27	C	1.381119	-0.469060	-0.000014
C28	C	1.497635	-0.445667	0.000005
C29	C	1.729064	-0.458288	0.000027
C30	C	1.730649	-0.398882	0.000040
C31	C	1.615727	-0.362868	0.000036
C32	C	1.499220	-0.386261	0.000019
C33	C	1.266190	-0.433042	-0.000032
C34	C	1.267787	-0.373629	-0.000032
C35	C	1.384303	-0.350237	-0.000013
C36	C	1.385883	-0.290840	0.000028
N37	N	1.502392	-0.267444	0.000032
C38	C	1.617314	-0.303458	0.000037
C39	C	1.376208	-0.653234	-0.000018
C40	C	1.374620	-0.712642	-0.000009
C41	C	1.606059	-0.725261	0.000002
C42	C	1.607646	-0.665851	0.000002
C43	C	1.492717	-0.629838	-0.000013
C44	C	1.620634	-0.178700	0.000066
C45	C	1.622209	-0.119287	0.000085
C46	C	1.390770	-0.106674	0.000067
C47	C	1.389194	-0.166081	0.000055
C48	C	1.504137	-0.202093	0.000050
O49	O	1.288349	-0.254705	0.000068
O50	O	1.716543	-0.278095	0.000025
C51	C	1.730530	0.080819	0.000049
C52	C	1.871422	0.082516	0.000045
C53	C	1.487835	0.188111	0.000008
C54	C	1.489542	0.251339	-0.000012
N55	N	1.498382	0.084035	0.360383
N56	N	1.498457	0.084026	-0.360302
C57	C	1.393237	0.130226	0.580734
C58	C	1.393459	0.130399	0.419567
C59	C	1.630662	0.097553	0.418834
C60	C	1.630087	0.097880	0.580052
C61	C	1.472575	0.024176	0.580312
C62	C	1.469515	0.024564	0.419085
H63	H	0.916338	-0.004461	0.095309
H64	H	1.294574	0.122217	0.619543
H65	H	1.710789	0.065586	0.619054
H66	H	0.866815	0.159363	-0.138165
H67	H	1.279741	-0.731682	-0.000000
H68	H	1.825528	-0.379842	0.000050
C69	C	1.738916	0.053343	0.367037
H70	H	1.704318	0.026184	0.309160
H71	H	1.780436	0.034338	0.444432
H72	H	1.798771	0.072233	0.315534
C73	C	1.415144	0.189873	0.635412
H74	H	1.488138	0.186743	0.694014
H75	H	1.342491	0.205432	0.686731
H76	H	1.428345	0.214239	0.559212
C77	C	1.855489	-0.497895	0.000043
H78	H	1.925092	-0.475446	0.000064
H79	H	1.859713	-0.521333	-0.080608
H80	H	1.859672	-0.521333	0.080715
C81	C	1.576225	-0.022282	0.631831
H82	H	1.560078	-0.058349	0.595599
H83	H	1.575007	-0.023585	0.730551
H84	H	1.657541	-0.013573	0.601107
C85	C	1.661042	0.156866	0.630828
H86	H	1.660969	0.157585	0.729608
H87	H	1.598476	0.185625	0.596718
H88	H	1.742796	0.163774	0.597495
H89	H	1.714231	-0.208014	0.000056
C90	C	1.566395	-0.024113	0.364690
H91	H	1.625986	-0.008734	0.305209
H92	H	1.522682	-0.050730	0.314366
H93	H	1.610313	-0.042899	0.440952
H94	H	1.295109	0.122265	0.380050
C95	C	1.662385	0.155875	0.364269
H96	H	1.595196	0.172061	0.305884
H97	H	1.739699	0.150824	0.312745
H98	H	1.671804	0.180726	0.440529
H99	H	1.294317	-0.185128	0.000078
H100	H	1.702524	-0.646810	0.000017
H101	H	1.378260	0.011310	0.621049
C102	C	1.415677	0.190382	0.367421
H103	H	1.424614	0.214737	0.444768
H104	H	1.344987	0.205567	0.312588
H105	H	1.491163	0.187848	0.312751
H106	H	1.297204	-0.077341	0.000068
C107	C	1.338069	0.010720	0.367488
H108	H	1.300930	0.041051	0.310401
H109	H	1.284138	0.006303	0.444996
H110	H	1.348051	-0.023733	0.315204
H111	H	1.282612	-0.623914	-0.000019
H112	H	0.914735	-0.004357	-0.093599
H113	H	1.171310	-0.452077	-0.000056
H114	H	1.133224	-0.001874	-0.094785
C115	C	1.149298	-0.010112	0.127952
H116	H	1.083549	-0.024438	0.180706
H117	H	1.191861	0.015162	0.183815
H118	H	1.208634	-0.041043	0.098241
H119	H	0.888817	0.091335	-0.230875
C120	C	1.141360	-0.334018	-0.000044
H121	H	1.071749	-0.356462	-0.000046
H122	H	1.137176	-0.310573	-0.080695
H123	H	1.137153	-0.310587	0.080628
H124	H	1.083578	0.162484	-0.136989
H125	H	1.106044	0.094848	-0.230346
H126	H	0.884830	0.094655	0.230983
H127	H	1.085389	0.161861	0.140557
C128	C	1.118954	0.085658	0.264608
H129	H	1.080623	0.104101	0.344451
H130	H	1.208487	0.087548	0.267045
H131	H	1.102451	0.046777	0.263778
C132	C	0.849893	0.176889	0.132066
H133	H	0.877044	0.196385	0.211345
H134	H	0.759977	0.176308	0.135467
H135	H	0.872072	0.196074	0.050121
C136	C	1.750381	-0.093559	0.000097
H137	H	1.818594	-0.123520	0.000083
H138	H	1.755809	-0.070652	0.080757
H139	H	1.755820	-0.070641	-0.080566
C140	C	1.732472	-0.764883	-0.000020
H141	H	1.714831	-0.803614	-0.000042
H142	H	1.780287	-0.757752	0.080633
H143	H	1.780275	-0.757734	-0.080690
