data_functionalizedCrystal
_audit_creation_method	'MofGen! by Chris Wilmer'
_symmetry_space_group_name_H-M	'P1'
_symmetry_Int_Tables_number	1
_symmetry_cell_setting	triclinic
loop_
_symmetry_equiv_pos_as_xyz
  x,y,z
_cell_length_a	14.971486
_cell_length_b	16.109301
_cell_length_c	15.186229
_cell_angle_alpha	90.013398
_cell_angle_beta	90.002949
_cell_angle_gamma	83.537805
loop_
_atom_site_label
_atom_site_type_symbol
_atom_site_fract_x
_atom_site_fract_y
_atom_site_fract_z
O1	O	1.186792	0.108354	0.073130
O2	O	0.926373	0.121329	0.073155
O3	O	1.063736	-0.006180	0.073133
O4	O	1.049428	0.235864	0.073152
O5	O	1.063718	-0.006201	-0.073325
O6	O	0.926354	0.121308	-0.073303
O7	O	1.186773	0.108334	-0.073327
Zn8	Zn	1.056561	0.114818	-0.096568
Zn9	Zn	1.056585	0.114845	0.096396
O10	O	1.049410	0.235843	-0.073305
C11	C	0.893040	0.120739	-0.000071
C12	C	0.793745	0.119000	-0.000062
C13	C	1.063147	-0.037166	-0.000096
C14	C	1.061410	-0.129464	-0.000097
C15	C	0.736412	0.193908	-0.000057
C16	C	0.643115	0.192269	-0.000071
C17	C	0.607153	0.115721	-0.000082
C18	C	0.664494	0.040807	-0.000090
C19	C	0.757789	0.042447	-0.000083
C20	C	0.470036	0.037395	-0.000102
C21	C	0.376734	0.035755	-0.000107
C22	C	0.355362	0.187217	-0.000090
C23	C	0.448657	0.188857	-0.000083
C24	C	0.505991	0.113942	-0.000089
C25	C	1.138878	-0.351640	-0.000091
C26	C	1.137239	-0.438362	-0.000083
C27	C	0.974262	-0.418691	-0.000072
C28	C	0.975902	-0.331970	-0.000073
C29	C	1.058213	-0.298447	-0.000087
C30	C	1.054933	-0.471890	-0.000078
C31	C	1.053155	-0.565918	-0.000070
C32	C	1.059992	-0.204413	-0.000093
C33	C	1.220106	0.108924	-0.000100
C34	C	1.319401	0.110663	-0.000103
C35	C	1.049999	0.266829	-0.000074
C36	C	1.051736	0.359127	-0.000067
N37	N	1.056550	0.114799	-0.228261
C38	C	1.002349	0.064328	-0.546212
C39	C	1.002341	0.064316	-0.454022
C40	C	1.110811	0.165330	-0.453967
C41	C	1.110822	0.165337	-0.546155
C42	C	1.056586	0.114838	-0.592275
C43	C	1.056567	0.114819	-0.407897
C44	C	1.056559	0.114806	-0.307941
C45	C	1.056595	0.114849	-0.692238
N46	N	1.056603	0.114858	0.228088
H47	H	0.765684	0.256242	-0.000047
H48	H	0.910211	-0.288658	-0.000067
H49	H	0.477934	0.251189	-0.000065
C50	C	0.580052	0.274672	-0.000066
C51	C	0.584058	0.337382	0.075995
C52	C	0.520996	0.419790	0.075996
C53	C	0.453929	0.439489	-0.000063
C54	C	0.449921	0.376778	-0.076130
C55	C	0.512982	0.294370	-0.076131
H56	H	0.633707	0.322801	0.132304
H57	H	0.523964	0.466213	0.132306
H58	H	0.407248	0.500493	-0.000062
H59	H	0.400272	0.391359	-0.132439
H60	H	0.510014	0.247947	-0.132441
C61	C	0.624941	-0.043399	-0.000105
C62	C	0.646589	-0.105642	0.075938
C63	C	0.607040	-0.189851	0.075925
C64	C	0.545843	-0.211816	-0.000132
C65	C	0.524191	-0.149571	-0.076180
C66	C	0.563740	-0.065363	-0.076167
H67	H	0.691894	-0.089384	0.132245
H68	H	0.623068	-0.235929	0.132222
H69	H	0.516566	-0.274152	-0.000141
H70	H	0.478886	-0.165830	-0.132487
H71	H	0.547712	-0.019285	-0.132464
C72	C	1.170492	0.220897	-0.596832
C73	C	1.170511	0.220897	-0.698235
C74	C	1.230183	0.276448	-0.748912
C75	C	1.289837	0.332000	-0.698186
C76	C	1.289820	0.332002	-0.596778
C77	C	1.230147	0.276450	-0.546100
H78	H	1.126350	0.179772	-0.735791
H79	H	1.230195	0.276446	-0.823982
H80	H	1.334009	0.373122	-0.735701
H81	H	1.333981	0.373126	-0.559222
H82	H	1.230135	0.276452	-0.471031
C83	C	0.292301	0.269627	-0.000092
C84	C	0.296305	0.332337	0.075968
C85	C	0.233242	0.414744	0.075970
C86	C	0.166175	0.434441	-0.000090
C87	C	0.162168	0.371730	-0.076156
C88	C	0.225231	0.289323	-0.076158
H89	H	0.345955	0.317757	0.132277
H90	H	0.236209	0.461167	0.132280
H91	H	0.119492	0.495444	-0.000089
H92	H	0.112519	0.386310	-0.132465
H93	H	0.222265	0.242900	-0.132467
H94	H	0.347458	-0.026577	-0.000118
H95	H	1.205901	-0.324348	-0.000100
C96	C	0.883725	-0.455572	-0.000064
C97	C	0.816716	-0.435551	-0.076111
C98	C	0.726178	-0.472431	-0.076106
C99	C	0.702649	-0.529333	-0.000055
C100	C	0.769659	-0.549356	0.075996
C101	C	0.860197	-0.512476	0.075992
H102	H	0.834132	-0.393427	-0.132413
H103	H	0.676573	-0.457608	-0.132405
H104	H	0.635627	-0.556634	-0.000052
H105	H	0.752243	-0.591481	0.132299
H106	H	0.909803	-0.527299	0.132291
C107	C	0.820860	-0.039953	-0.000086
C108	C	0.816852	-0.102664	-0.076145
C109	C	0.879922	-0.185067	-0.076153
C110	C	0.947002	-0.204758	-0.000102
C111	C	0.951013	-0.142045	0.075962
C112	C	0.887942	-0.059643	0.075970
H113	H	0.767193	-0.088089	-0.132447
H114	H	0.876953	-0.231491	-0.132461
H115	H	0.993691	-0.265757	-0.000108
H116	H	1.000672	-0.156621	0.132264
H117	H	0.890912	-0.013219	0.132279
C118	C	1.225973	-0.496873	-0.000092
C119	C	1.247247	-0.559217	-0.076142
C120	C	1.335986	-0.617728	-0.076150
C121	C	1.403449	-0.613895	-0.000108
C122	C	1.382176	-0.551550	0.075947
C123	C	1.293438	-0.493039	0.075955
H124	H	1.197305	-0.562056	-0.132438
H125	H	1.351733	-0.663880	-0.132451
H126	H	1.469139	-0.657209	-0.000114
H127	H	1.432118	-0.548711	0.132243
H128	H	1.277690	-0.446886	0.132257
H129	H	0.516716	-0.023609	-0.000108
H130	H	0.958187	0.023208	-0.583760
H131	H	0.958177	0.023186	-0.416522
C132	C	1.170459	0.220884	-0.403231
C133	C	1.243315	0.181003	-0.339850
C134	C	1.302962	0.236560	-0.289115
C135	C	1.289754	0.331998	-0.301762
C136	C	1.216895	0.371883	-0.365146
C137	C	1.157248	0.316326	-0.415881
H138	H	1.253095	0.110350	-0.330485
H139	H	1.356898	0.207034	-0.242194
H140	H	1.333909	0.373125	-0.264205
H141	H	1.207115	0.442536	-0.374511
H142	H	1.103313	0.345853	-0.462802
