data_functionalizedCrystal
_audit_creation_method	'MofGen! by Chris Wilmer'
_symmetry_space_group_name_H-M	'P1'
_symmetry_Int_Tables_number	1
_symmetry_cell_setting	triclinic
loop_
_symmetry_equiv_pos_as_xyz
  x,y,z
_cell_length_a	18.050589
_cell_length_b	13.897449
_cell_length_c	13.897441
_cell_angle_alpha	90.023932
_cell_angle_beta	89.973098
_cell_angle_gamma	89.971851
loop_
_atom_site_label
_atom_site_type_symbol
_atom_site_fract_x
_atom_site_fract_y
_atom_site_fract_z
Zn1	Zn	-0.295644	-1.474612	-0.545537
Zn2	Zn	-0.419846	-1.474482	-0.384246
Zn3	Zn	-0.295675	-1.313307	-0.384240
Zn4	Zn	-0.419797	-1.313253	-0.545483
O5	O	-0.357741	-1.393913	-0.464876
O6	O	-0.312128	-1.609576	-0.524166
O7	O	-0.403408	-1.453070	-0.249263
O8	O	-0.191746	-1.334781	-0.405656
O9	O	-0.403379	-1.609481	-0.405666
O10	O	-0.191724	-1.453291	-0.524160
O11	O	-0.312180	-1.334655	-0.249259
O12	O	-0.312132	-1.178318	-0.405605
O13	O	-0.403294	-1.334689	-0.680472
O14	O	-0.403324	-1.178279	-0.524069
O15	O	-0.312080	-1.453239	-0.680511
O16	O	-0.523764	-1.453018	-0.405614
O17	O	-0.523728	-1.334564	-0.524075
C18	C	-0.357726	-1.143299	-0.464831
C19	C	-0.357738	-1.036085	-0.464835
C20	C	-0.550693	-1.393797	-0.464860
C21	C	-0.633238	-1.393835	-0.464886
C22	C	-0.357739	-0.949015	-0.464847
C23	C	-0.357743	-0.839783	-0.464871
C24	C	-0.832696	-1.329483	-0.529282
C25	C	-0.882140	-1.305970	-0.441261
C26	C	-0.784369	-1.393930	-0.464898
C27	C	-0.882006	-1.417491	-0.552929
C28	C	-0.930354	-1.394020	-0.464918
C29	C	-0.832726	-1.370370	-0.376831
C30	C	-0.832587	-1.481933	-0.488558
C31	C	-0.882009	-1.458453	-0.400477
C32	C	-0.700271	-1.393876	-0.464888
C33	C	-1.014450	-1.394074	-0.464919
C34	C	-0.164035	-1.394057	-0.464914
C35	C	-0.081489	-1.394118	-0.464930
C36	C	-0.357678	-1.393973	-0.716470
C37	C	-0.357652	-1.393998	-0.823684
C38	C	-0.357753	-0.645506	-0.464911
C39	C	-0.357750	-0.752720	-0.464896
C40	C	-0.357631	-1.394017	-0.910753
C41	C	-0.357597	-1.394045	-1.019986
C42	C	-0.357749	-1.393910	-0.214262
C43	C	-0.357566	-1.394072	-0.107049
H44	H	-0.903923	-1.231591	-0.421268
C45	C	-0.803609	-1.343371	-0.276246
H46	H	-0.750980	-1.343469	-0.276862
H47	H	-0.820887	-1.388892	-0.230479
H48	H	-0.820990	-1.281078	-0.259353
H49	H	-0.903525	-1.512992	-0.345975
C50	C	-0.803156	-1.582387	-0.515618
H51	H	-0.774211	-1.607082	-0.464160
H52	H	-0.773430	-1.577736	-0.571845
H53	H	-0.843675	-1.624325	-0.527535
C54	C	-0.803437	-1.255755	-0.602728
H55	H	-0.820407	-1.193289	-0.585763
H56	H	-0.821034	-1.271847	-0.665098
H57	H	-0.750811	-1.256634	-0.602617
C58	C	-0.911249	-1.444370	-0.653486
H59	H	-0.894355	-1.398484	-0.699141
H60	H	-0.963870	-1.444787	-0.652634
H61	H	-0.893545	-1.506414	-0.670727
