data_functionalizedCrystal
_audit_creation_method	'MofGen! by Chris Wilmer'
_symmetry_space_group_name_H-M	'P1'
_symmetry_Int_Tables_number	1
_symmetry_cell_setting	triclinic
loop_
_symmetry_equiv_pos_as_xyz
  x,y,z
_cell_length_a	10.723024
_cell_length_b	17.699083
_cell_length_c	16.176319
_cell_angle_alpha	90.002310
_cell_angle_beta	89.992398
_cell_angle_gamma	96.124558
loop_
_atom_site_label
_atom_site_type_symbol
_atom_site_fract_x
_atom_site_fract_y
_atom_site_fract_z
O1	O	0.157774	-1.005072	0.068628
O2	O	0.657774	-0.505072	0.568628
O3	O	0.178304	-0.784823	0.068655
O4	O	0.678304	-0.284823	0.568655
O5	O	-0.013625	-0.900027	0.068638
O6	O	0.486375	-0.400027	0.568638
O7	O	0.349702	-0.889867	0.068646
O8	O	0.849702	-0.389867	0.568646
O9	O	-0.013590	-0.900017	-0.068855
O10	O	0.486410	-0.400017	0.431145
O11	O	0.178338	-0.784812	-0.068838
O12	O	0.678338	-0.284812	0.431162
O13	O	0.157809	-1.005061	-0.068865
O14	O	0.657809	-0.505061	0.431135
Cu15	Cu	0.168077	-0.894935	-0.081406
Cu16	Cu	0.668077	-0.394935	0.418594
Cu17	Cu	0.168036	-0.894948	0.081196
Cu18	Cu	0.668036	-0.394948	0.581196
O19	O	0.349737	-0.889856	-0.068848
O20	O	0.849737	-0.389856	0.431152
C21	C	-0.060094	-0.899283	-0.000107
C22	C	0.439906	-0.399283	0.499893
C23	C	-0.198610	-0.897070	-0.000104
C24	C	0.301390	-0.397070	0.499896
C25	C	0.177585	-0.756616	-0.000088
C26	C	0.677585	-0.256616	0.499912
C27	C	0.175378	-0.672584	-0.000078
C28	C	0.675378	-0.172584	0.499922
C29	C	0.158527	-1.033268	-0.000120
C30	C	0.658527	-0.533268	0.499880
C31	C	0.160734	-1.117300	-0.000125
C32	C	0.660734	-0.617300	0.499875
C33	C	-0.389189	-0.828350	-0.000091
C34	C	0.110811	-0.328350	0.499909
C35	C	-0.246025	-0.830635	-0.000095
C36	C	0.253975	-0.330635	0.499905
C37	C	0.396206	-0.890601	-0.000100
C38	C	0.896206	-0.390601	0.499900
C39	C	0.534723	-0.892813	-0.000098
C40	C	1.034723	-0.392813	0.499902
N41	N	0.168105	-0.894932	-0.195771
N42	N	0.668105	-0.394932	0.304229
C43	C	0.288036	-0.624673	-0.000076
C44	C	0.788036	-0.124673	0.499924
C45	C	0.285955	-0.545717	-0.000086
C46	C	0.785955	-0.045717	0.499914
C47	C	0.171215	-0.514672	-0.000093
C48	C	0.671215	-0.014672	0.499907
C49	C	0.058549	-0.562589	-0.000098
C50	C	0.558549	-0.062589	0.499902
C51	C	0.060631	-0.641544	-0.000093
C52	C	0.560631	-0.141544	0.499907
C53	C	0.050148	-0.244173	-0.000118
C54	C	0.550148	0.255827	0.499882
C55	C	0.048075	-0.165212	-0.000121
C56	C	0.548075	0.334788	0.499879
C57	C	0.275473	-0.148346	-0.000112
C58	C	0.775473	0.351654	0.499888
C59	C	0.277555	-0.227301	-0.000107
C60	C	0.777555	0.272699	0.499893
C61	C	0.164889	-0.275210	-0.000116
C62	C	0.664889	0.224790	0.499884
C63	C	0.167147	-0.360824	-0.000106
C64	C	0.667147	0.139176	0.499894
C65	C	0.168956	-0.429060	-0.000097
C66	C	0.668956	0.070940	0.499903
C67	C	0.092422	-0.848663	-0.761156
C68	C	0.592422	-0.348663	-0.261156
C69	C	0.092432	-0.848662	-0.674609
C70	C	0.592432	-0.348662	-0.174609
C71	C	0.168025	-0.894951	-0.631346
C72	C	0.668025	-0.394951	-0.131346
C73	C	0.243603	-0.941251	-0.674634
C74	C	0.743603	-0.441251	-0.174634
C75	C	0.243586	-0.941256	-0.761180
C76	C	0.743586	-0.441256	-0.261180
C77	C	0.243674	-0.941233	-0.325606
C78	C	0.743674	-0.441233	0.174394
C79	C	0.243688	-0.941222	-0.239055
C80	C	0.743688	-0.441222	0.260945
C81	C	0.092519	-0.848639	-0.239036
C82	C	0.592519	-0.348639	0.260964
C83	C	0.092502	-0.848644	-0.325581
C84	C	0.592502	-0.348644	0.174419
C85	C	0.168075	-0.894946	-0.368862
C86	C	0.668075	-0.394946	0.131138
C87	C	0.168062	-0.894948	-0.462706
C88	C	0.668062	-0.394948	0.037294
C89	C	0.168046	-0.894946	-0.537504
C90	C	0.668046	-0.394946	-0.037504
N91	N	0.167998	-0.894958	0.195561
N92	N	0.667998	-0.394958	0.695561
H93	H	-0.430036	-0.771470	-0.000079
H94	H	0.069964	-0.271470	0.499921
Br95	Br	0.438855	-0.480698	-0.000081
Br96	Br	0.938855	0.019302	0.499919
H97	H	-0.263982	-0.952258	-0.000114
H98	H	0.236018	-0.452258	0.499886
H99	H	-0.180646	-0.775450	-0.000094
H100	H	0.319354	-0.275450	0.499906
H101	H	0.305211	-0.978934	-0.360835
H102	H	0.805211	-0.478934	0.139165
Br103	Br	0.428380	-0.083321	-0.000101
Br104	Br	0.928380	0.416679	0.499899
H105	H	-0.424430	-0.949693	-0.000076
H106	H	0.075570	-0.449693	0.499924
H107	H	0.381471	-0.649943	-0.000069
H108	H	0.881471	-0.149943	0.499931
H109	H	0.370988	-0.252572	-0.000098
H110	H	0.870988	0.247428	0.499902
Br111	Br	0.346147	-1.004092	-0.819922
Br112	Br	0.846147	-0.504092	-0.319922
Br113	Br	-0.107655	-0.123080	-0.000128
Br114	Br	0.392345	0.376920	0.499872
H115	H	-0.041591	-0.283172	-0.000126
H116	H	0.458409	0.216828	0.499874
H117	H	-0.034875	-0.537306	-0.000115
H118	H	0.465125	-0.037306	0.499885
H119	H	-0.031107	-0.680552	-0.000094
H120	H	0.468893	-0.180552	0.499906
H121	H	0.030872	-0.810965	-0.796375
H122	H	0.530872	-0.310965	-0.296375
Br123	Br	-0.010099	-0.785806	-0.615872
Br124	Br	0.489901	-0.285806	-0.115872
Br125	Br	-0.010083	-0.785815	-0.384291
Br126	Br	0.489917	-0.285815	0.115709
Br127	Br	-0.010049	-0.785799	-0.180293
Br128	Br	0.489951	-0.285799	0.319707
Br129	Br	0.346289	-1.004046	-0.180340
Br130	Br	0.846289	-0.504046	0.319660
Br131	Br	0.346186	-1.004079	-0.615921
Br132	Br	0.846186	-0.504079	-0.115921
