data_functionalizedCrystal
_audit_creation_method	'MofGen! by Chris Wilmer'
_symmetry_space_group_name_H-M	'P1'
_symmetry_Int_Tables_number	1
_symmetry_cell_setting	triclinic
loop_
_symmetry_equiv_pos_as_xyz
  x,y,z
_cell_length_a	15.186229
_cell_length_b	16.109301
_cell_length_c	16.109301
_cell_angle_alpha	83.461481
_cell_angle_beta	90.005167
_cell_angle_gamma	90.000638
loop_
_atom_site_label
_atom_site_type_symbol
_atom_site_fract_x
_atom_site_fract_y
_atom_site_fract_z
O1	O	-0.073176	-1.103131	-0.106866
O2	O	0.176824	-0.853131	0.143134
O3	O	0.426824	-0.603131	0.393134
O4	O	0.676824	-0.353131	0.643134
O5	O	-0.073190	-0.861069	-0.120165
O6	O	0.176810	-0.611069	0.129835
O7	O	0.426810	-0.361069	0.379835
O8	O	0.676810	-0.111069	0.629835
O9	O	-0.073174	-0.988749	0.007515
O10	O	0.176826	-0.738749	0.257515
O11	O	0.426826	-0.488749	0.507515
O12	O	0.676826	-0.238749	0.757515
O13	O	-0.073192	-0.975450	-0.234547
O14	O	0.176808	-0.725450	0.015453
O15	O	0.426808	-0.475450	0.265453
O16	O	0.676808	-0.225450	0.515453
O17	O	0.073284	-0.988741	0.007517
O18	O	0.323284	-0.738741	0.257517
O19	O	0.573284	-0.488741	0.507517
O20	O	0.823284	-0.238741	0.757517
O21	O	0.073267	-0.861060	-0.120164
O22	O	0.323267	-0.611060	0.129836
O23	O	0.573267	-0.361060	0.379836
O24	O	0.823267	-0.111060	0.629836
O25	O	0.073282	-1.103122	-0.106864
O26	O	0.323282	-0.853122	0.143136
O27	O	0.573282	-0.603122	0.393136
O28	O	0.823282	-0.353122	0.643136
Zn29	Zn	0.096528	-0.982090	-0.113514
Zn30	Zn	0.346528	-0.732090	0.136486
Zn31	Zn	0.596528	-0.482090	0.386486
Zn32	Zn	0.846528	-0.232090	0.636486
Zn33	Zn	-0.096436	-0.982101	-0.113516
Zn34	Zn	0.153564	-0.732101	0.136484
Zn35	Zn	0.403564	-0.482101	0.386484
Zn36	Zn	0.653564	-0.232101	0.636484
O37	O	0.073265	-0.975441	-0.234545
O38	O	0.323265	-0.725441	0.015455
O39	O	0.573265	-0.475441	0.265455
O40	O	0.823265	-0.225441	0.515455
C41	C	0.000037	-0.830090	-0.119626
C42	C	0.250037	-0.580090	0.130374
C43	C	0.500037	-0.330090	0.380374
C44	C	0.750037	-0.080090	0.630374
C45	C	0.000032	-0.737794	-0.118011
C46	C	0.250032	-0.487794	0.131989
C47	C	0.500032	-0.237794	0.381989
C48	C	0.750032	0.012206	0.631989
C49	C	0.000056	-0.988206	0.038491
C50	C	0.250056	-0.738206	0.288491
C51	C	0.500056	-0.488206	0.538491
C52	C	0.750056	-0.238206	0.788491
C53	C	0.000057	-0.986591	0.130786
C54	C	0.250057	-0.736591	0.380786
C55	C	0.500057	-0.486591	0.630786
C56	C	0.750057	-0.236591	0.880786
N57	N	0.228220	-0.982088	-0.113511
N58	N	0.478220	-0.732088	0.136489
N59	N	0.728220	-0.482088	0.386489
N60	N	0.978220	-0.232088	0.636489
N61	N	-0.228129	-0.982109	-0.113512
N62	N	0.021871	-0.732109	0.136488
N63	N	0.271871	-0.482109	0.386488
N64	N	0.521871	-0.232109	0.636488
C65	C	0.453950	-1.038644	-0.056994
C66	C	0.703950	-0.788644	0.193006
C67	C	0.953950	-0.538644	0.443006
C68	C	1.203950	-0.288644	0.693006
C69	C	0.546140	-1.038647	-0.056992
C70	C	0.796140	-0.788647	0.193008
C71	C	1.046140	-0.538647	0.443008
C72	C	1.296140	-0.288647	0.693008
C73	C	0.546135	-0.925547	-0.170032
C74	C	0.796135	-0.675547	0.079968
C75	C	1.046135	-0.425547	0.329968
C76	C	1.296135	-0.175547	0.579968
C77	C	0.453947	-0.925541	-0.170030
C78	C	0.703947	-0.675541	0.079970
C79	C	0.953947	-0.425541	0.329970
C80	C	1.203947	-0.175541	0.579970
C81	C	0.407857	-0.982094	-0.113511
C82	C	0.657857	-0.732094	0.136489
C83	C	0.907857	-0.482094	0.386489
C84	C	1.157857	-0.232094	0.636489
C85	C	0.592235	-0.982103	-0.113512
C86	C	0.842235	-0.732103	0.136488
C87	C	1.092235	-0.482103	0.386488
C88	C	1.342235	-0.232103	0.636488
C89	C	0.692191	-0.982105	-0.113510
C90	C	0.942191	-0.732105	0.136490
C91	C	1.192191	-0.482105	0.386490
C92	C	1.442191	-0.232105	0.636490
C93	C	0.307894	-0.982091	-0.113512
C94	C	0.557894	-0.732091	0.136488
C95	C	0.807894	-0.482091	0.386488
C96	C	1.057894	-0.232091	0.636488
C97	C	0.000053	-1.134101	-0.107404
C98	C	0.250053	-0.884101	0.142596
C99	C	0.500053	-0.634101	0.392596
C100	C	0.750053	-0.384101	0.642596
C101	C	0.000052	-1.226397	-0.109019
C102	C	0.250052	-0.976397	0.140981
C103	C	0.500052	-0.726397	0.390981
C104	C	0.750052	-0.476397	0.640981
C105	C	0.000036	-0.515522	-0.190018
C106	C	0.250036	-0.265522	0.059982
C107	C	0.500036	-0.015522	0.309982
C108	C	0.750036	0.234478	0.559982
C109	C	0.000042	-0.428801	-0.188494
C110	C	0.250042	-0.178801	0.061506
C111	C	0.500042	0.071199	0.311506
C112	C	0.750042	0.321199	0.561506
C113	C	0.000050	-0.448676	-0.037006
C114	C	0.250050	-0.198676	0.212994
C115	C	0.500050	0.051324	0.462994
C116	C	0.750050	0.301324	0.712994
C117	C	0.000051	-0.535394	-0.038530
C118	C	0.250051	-0.285394	0.211470
C119	C	0.500051	-0.035394	0.461470
C120	C	0.750051	0.214606	0.711470
C121	C	0.000039	-0.568815	-0.115039
C122	C	0.250039	-0.318815	0.134961
C123	C	0.500039	-0.068815	0.384961
C124	C	0.750039	0.181185	0.634961
C125	C	0.000045	-0.395376	-0.111990
C126	C	0.250045	-0.145376	0.138010
C127	C	0.500045	0.104624	0.388010
C128	C	0.750045	0.354624	0.638010
C129	C	0.000051	-0.301350	-0.110337
C130	C	0.250051	-0.051350	0.139663
C131	C	0.500051	0.198650	0.389663
C132	C	0.750051	0.448650	0.639663
C133	C	0.000035	-0.662847	-0.116693
C134	C	0.250035	-0.412847	0.133307
C135	C	0.500035	-0.162847	0.383307
C136	C	0.750035	0.087153	0.633307
C137	C	0.000034	-0.975984	-0.265521
C138	C	0.250034	-0.725984	-0.015521
C139	C	0.500034	-0.475984	0.234479
C140	C	0.750034	-0.225984	0.484479
C141	C	0.000027	-0.977600	-0.357816
C142	C	0.250027	-0.727600	-0.107816
C143	C	0.500027	-0.477600	0.142184
C144	C	0.750027	-0.227600	0.392184
C145	C	0.000047	-1.058599	0.353059
C146	C	0.250047	-0.808599	0.603059
C147	C	0.500047	-0.558599	0.853059
C148	C	0.750047	-0.308599	1.103059
C149	C	0.000040	-1.057075	0.439779
C150	C	0.250040	-0.807075	0.689779
C151	C	0.500040	-0.557075	0.939779
C152	C	0.750040	-0.307075	1.189779
C153	C	0.000034	-0.905586	0.419905
C154	C	0.250034	-0.655586	0.669905
C155	C	0.500034	-0.405586	0.919905
C156	C	0.750034	-0.155586	1.169905
C157	C	0.000035	-0.907111	0.333186
C158	C	0.250035	-0.657111	0.583186
C159	C	0.500035	-0.407111	0.833186
C160	C	0.750035	-0.157111	1.083186
C161	C	0.000046	-0.983620	0.299766
C162	C	0.250046	-0.733620	0.549766
C163	C	0.500046	-0.483620	0.799766
C164	C	0.750046	-0.233620	1.049766
C165	C	0.000038	-0.980571	0.473205
C166	C	0.250038	-0.730571	0.723205
C167	C	0.500038	-0.480571	0.973205
C168	C	0.750038	-0.230571	1.223205
C169	C	0.000030	-0.978918	0.567231
C170	C	0.250030	-0.728918	0.817231
C171	C	0.500030	-0.478918	1.067231
C172	C	0.750030	-0.228918	1.317231
C173	C	0.000052	-0.985273	0.205734
C174	C	0.250052	-0.735273	0.455734
C175	C	0.500052	-0.485273	0.705734
C176	C	0.750052	-0.235273	0.955734
H177	H	0.416426	-1.084692	-0.010972
H178	H	0.666426	-0.834692	0.239028
H179	H	0.916426	-0.584692	0.489028
H180	H	1.166426	-0.334692	0.739028
H181	H	0.583670	-0.879503	-0.216049
H182	H	0.833670	-0.629503	0.033951
H183	H	1.083670	-0.379503	0.283951
H184	H	1.333670	-0.129503	0.533951
H185	H	0.000032	-0.846050	0.289792
H186	H	0.250032	-0.596050	0.539792
H187	H	0.500032	-0.346050	0.789792
H188	H	0.750032	-0.096050	1.039792
H189	H	0.000041	-0.385413	-0.249550
H190	H	0.250041	-0.135413	0.000450
H191	H	0.500041	0.114587	0.250450
H192	H	0.750041	0.364587	0.500450
O193	O	0.000050	-1.141118	0.317015
O194	O	0.250050	-0.891118	0.567015
O195	O	0.500050	-0.641118	0.817015
O196	O	0.750050	-0.391118	1.067015
H197	H	0.000058	-1.129585	0.247760
H198	H	0.250058	-0.879585	0.497760
H199	H	0.500058	-0.629585	0.747760
H200	H	0.750058	-0.379585	0.997760
H201	H	0.583667	-1.084694	-0.010969
H202	H	0.833667	-0.834694	0.239031
H203	H	1.083667	-0.584694	0.489031
H204	H	1.333667	-0.334694	0.739031
H205	H	0.416415	-0.879487	-0.216053
H206	H	0.666415	-0.629487	0.033947
H207	H	0.916415	-0.379487	0.283947
H208	H	1.166415	-0.129487	0.533947
O209	O	0.000042	-0.551573	-0.272534
O210	O	0.250042	-0.301573	-0.022534
O211	O	0.500042	-0.051573	0.227466
O212	O	0.750042	0.198427	0.477466
H213	H	0.000053	-0.499942	-0.324415
H214	H	0.250053	-0.249942	-0.074415
H215	H	0.500053	0.000058	0.175585
H216	H	0.750053	0.250058	0.425585
H217	H	0.000065	-0.421454	0.025285
H218	H	0.250065	-0.171454	0.275285
H219	H	0.500065	0.078546	0.525285
H220	H	0.750065	0.328546	0.775285
H221	H	0.000056	-0.578788	0.022530
H222	H	0.250056	-0.328788	0.272530
H223	H	0.500056	-0.078788	0.522530
H224	H	0.750056	0.171212	0.772530
H225	H	0.000039	-1.118130	0.483168
H226	H	0.250039	-0.868130	0.733168
H227	H	0.500039	-0.618130	0.983168
H228	H	0.750039	-0.368130	1.233168
H229	H	0.000027	-0.843295	0.447127
H230	H	0.250027	-0.593295	0.697127
H231	H	0.500027	-0.343295	0.947127
H232	H	0.750027	-0.093295	1.197127
