data_functionalizedCrystal
_audit_creation_method	'MofGen! by Chris Wilmer'
_symmetry_space_group_name_H-M	'P1'
_symmetry_Int_Tables_number	1
_symmetry_cell_setting	triclinic
loop_
_symmetry_equiv_pos_as_xyz
  x,y,z
_cell_length_a	16.959455
_cell_length_b	18.050589
_cell_length_c	16.959447
_cell_angle_alpha	90.026643
_cell_angle_beta	90.014322
_cell_angle_gamma	90.025168
loop_
_atom_site_label
_atom_site_type_symbol
_atom_site_fract_x
_atom_site_fract_y
_atom_site_fract_z
Zn1	Zn	1.208339	-0.295705	0.446929
Zn2	Zn	1.208243	-0.419907	0.314759
Zn3	Zn	1.076167	-0.295729	0.314766
Zn4	Zn	1.076113	-0.419851	0.446897
O5	O	1.142216	-0.357798	0.380838
O6	O	1.318937	-0.312194	0.429406
O7	O	1.190705	-0.403467	0.204149
O8	O	1.093763	-0.191801	0.332314
O9	O	1.318866	-0.403445	0.332301
O10	O	1.190869	-0.191784	0.429414
O11	O	1.093670	-0.312234	0.204154
O12	O	0.965549	-0.312180	0.332284
O13	O	1.093671	-0.403350	0.557512
O14	O	0.965510	-0.403373	0.429360
O15	O	1.190817	-0.312141	0.557536
O16	O	1.190653	-0.523824	0.332271
O17	O	1.093578	-0.523783	0.429353
C18	C	0.936849	-0.357774	0.380820
C19	C	0.848993	-0.357781	0.380831
C20	C	0.477513	-0.310275	0.330396
C21	C	0.477521	-0.405382	0.431325
C22	C	0.560067	-0.405371	0.431320
C23	C	0.601340	-0.357813	0.380852
C24	C	0.560067	-0.310265	0.330388
C25	C	0.601346	-0.452924	0.481777
C26	C	0.683897	-0.452916	0.481774
C27	C	0.725171	-0.405353	0.431309
C28	C	0.683893	-0.357802	0.380844
C29	C	0.725166	-0.310243	0.330375
C30	C	0.683890	-0.262689	0.279913
C31	C	0.601342	-0.262702	0.279923
C32	C	0.807720	-0.405340	0.431299
C33	C	0.807720	-0.310233	0.330367
C34	C	1.142120	-0.550750	0.380825
C35	C	1.142152	-0.633296	0.380846
C36	C	1.089414	-0.832751	0.433620
C37	C	1.070151	-0.882194	0.361493
C38	C	1.142229	-0.784426	0.380856
C39	C	1.161531	-0.882065	0.452991
C40	C	1.142303	-0.930411	0.380872
C41	C	1.122929	-0.832782	0.308691
C42	C	1.214342	-0.832648	0.400237
C43	C	1.195106	-0.882069	0.328061
C44	C	1.142185	-0.700328	0.380848
C45	C	1.142347	-1.014508	0.380872
C46	C	1.348384	-0.357823	0.380857
C47	C	1.436240	-0.357834	0.380864
C48	C	1.142249	-0.357737	0.587006
C49	C	1.142263	-0.357710	0.674863
C50	C	1.142333	-0.164092	0.380868
C51	C	1.142383	-0.081547	0.380881
C52	C	1.142228	-0.357806	0.175472
C53	C	1.142368	-0.357623	0.087615
C54	C	1.091778	-0.405121	1.046329
C55	C	1.192936	-0.310143	1.046348
C56	C	1.192915	-0.310159	0.963802
C57	C	1.142326	-0.357657	0.922516
C58	C	1.091757	-0.405139	0.963775
C59	C	1.243489	-0.262683	0.922537
C60	C	1.243470	-0.262698	0.839986
C61	C	1.192876	-0.310192	0.798698
C62	C	1.142305	-0.357676	0.839962
C63	C	1.091715	-0.405174	0.798676
C64	C	1.041139	-0.452654	0.839939
C65	C	1.041162	-0.452634	0.922488
C66	C	1.192852	-0.310212	0.716149
C67	C	1.091694	-0.405193	0.716122
H68	H	0.443911	-0.444106	0.472410
H69	H	1.239802	-0.903587	0.283395
O70	O	0.724074	-0.498999	0.530836
C71	C	0.817260	-0.509088	0.637570
C72	C	0.771822	-0.456819	0.582041
H73	H	0.855863	-0.475006	0.678994
H74	H	0.855941	-0.547863	0.601258
H75	H	0.773563	-0.543096	0.673604
H76	H	0.815462	-0.422764	0.545995
H77	H	0.733129	-0.418093	0.618399
O78	O	1.181072	-0.907980	0.525697
C79	C	1.272403	-0.980114	0.602796
C80	C	1.250362	-0.950832	0.520409
H81	H	1.328434	-1.014753	0.598551
H82	H	1.222300	-1.015828	0.626539
H83	H	1.282817	-0.931386	0.644305
H84	H	1.239960	-0.999515	0.478841
H85	H	1.300477	-0.915096	0.496731
O86	O	1.042529	-0.451408	0.676142
C87	C	0.942167	-0.545586	0.684835
C88	C	0.997815	-0.493296	0.730210
H89	H	0.905990	-0.579456	0.728529
H90	H	0.978392	-0.584483	0.646207
H91	H	0.900882	-0.511488	0.646167
H92	H	1.039112	-0.527334	0.768920
H93	H	0.961542	-0.454398	0.768789
O94	O	1.103268	-0.807034	0.235950
C95	C	1.012257	-0.734441	0.158962
C96	C	1.034426	-0.763565	0.241378
H97	H	0.956606	-0.699278	0.163325
H98	H	1.001179	-0.783196	0.117659
H99	H	1.062618	-0.699244	0.134894
H100	H	0.984094	-0.798750	0.265517
H101	H	1.045532	-0.714777	0.282628
H102	H	1.275277	-0.810871	0.416650
H103	H	0.999952	-0.491330	0.806313
H104	H	1.050598	-0.443776	1.079929
H105	H	0.841319	-0.271500	0.289274
O106	O	0.561133	-0.499051	0.530772
C107	C	0.433959	-0.541242	0.575478
C108	C	0.479406	-0.488953	0.519962
H109	H	0.367876	-0.533108	0.566746
H110	H	0.450158	-0.528276	0.639255
H111	H	0.450208	-0.601100	0.561493
H112	H	0.463182	-0.429078	0.533876
H113	H	0.463204	-0.501983	0.456202
H114	H	1.044685	-0.811096	0.478178
H115	H	1.009203	-0.903974	0.345115
H116	H	0.999989	-0.491293	0.956091
O117	O	0.847937	-0.451505	0.480236
C118	C	0.975110	-0.493608	0.524989
C119	C	0.929664	-0.441298	0.469511
H120	H	1.041194	-0.485363	0.516350
H121	H	0.958917	-0.553493	0.510995
H122	H	0.958856	-0.480656	0.588742
H123	H	0.945893	-0.454184	0.405740
H124	H	0.945861	-0.381429	0.483573
H125	H	1.234129	-0.271477	1.079969
H126	H	1.284681	-0.224017	0.956158
O127	O	0.437459	-0.263977	0.281463
C128	C	0.412278	-0.137609	0.243293
C129	C	0.457674	-0.189957	0.298771
H130	H	0.428617	-0.077754	0.257255
H131	H	0.346178	-0.145715	0.251968
H132	H	0.428473	-0.150615	0.179537
H133	H	0.441545	-0.176984	0.362548
H134	H	0.523763	-0.181841	0.290027
H135	H	1.284652	-0.224036	0.806396
H136	H	1.234033	-0.271557	0.682556
H137	H	0.567727	-0.223986	0.238838
O138	O	0.724108	-0.216516	0.230962
C139	C	0.851286	-0.174398	0.186189
C140	C	0.805834	-0.226711	0.241676
H141	H	0.917369	-0.182634	0.194820
H142	H	0.835148	-0.114515	0.200181
H143	H	0.834981	-0.187356	0.122439
H144	H	0.822114	-0.213820	0.305445
H145	H	0.821975	-0.286579	0.227616
