data_functionalizedCrystal
_audit_creation_method	'MofGen! by Chris Wilmer'
_symmetry_space_group_name_H-M	'P1'
_symmetry_Int_Tables_number	1
_symmetry_cell_setting	triclinic
loop_
_symmetry_equiv_pos_as_xyz
  x,y,z
_cell_length_a	12.594517
_cell_length_b	12.594516
_cell_length_c	13.032268
_cell_angle_alpha	97.151307
_cell_angle_beta	97.162024
_cell_angle_gamma	90.011616
loop_
_atom_site_label
_atom_site_type_symbol
_atom_site_fract_x
_atom_site_fract_y
_atom_site_fract_z
Zn1	Zn	1.550828	-0.500141	-0.590891
Zn2	Zn	1.884162	-0.166807	-0.257558
Zn3	Zn	2.217495	0.166526	0.075776
Zn4	Zn	1.573345	-0.655551	-0.416158
Zn5	Zn	1.906679	-0.322218	-0.082825
Zn6	Zn	2.240012	0.011115	0.250509
Zn7	Zn	1.395445	-0.477587	-0.416164
Zn8	Zn	1.728778	-0.144254	-0.082831
Zn9	Zn	2.062111	0.189079	0.250502
Zn10	Zn	1.372834	-0.678071	-0.590845
Zn11	Zn	1.706167	-0.344738	-0.257511
Zn12	Zn	2.039500	-0.011404	0.075822
O13	O	1.473113	-0.577838	-0.503515
O14	O	1.806446	-0.244504	-0.170181
O15	O	2.139780	0.088829	0.163152
O16	O	1.702759	-0.520770	-0.567729
O17	O	2.036092	-0.187437	-0.234396
O18	O	2.369426	0.145896	0.098937
O19	O	1.568633	-0.613081	-0.269928
O20	O	1.901966	-0.279747	0.063405
O21	O	2.235299	0.053586	0.396738
O22	O	1.416096	-0.331636	-0.439364
O23	O	1.749429	0.001697	-0.106031
O24	O	2.082762	0.335030	0.227302
O25	O	1.719302	-0.634950	-0.439354
O26	O	2.052635	-0.301617	-0.106020
O27	O	2.385969	0.031717	0.227313
O28	O	1.530256	-0.348206	-0.567735
O29	O	1.863589	-0.014873	-0.234402
O30	O	2.196922	0.318461	0.098931
O31	O	1.437930	-0.482331	-0.269933
O32	O	1.771263	-0.148998	0.063401
O33	O	2.104596	0.184335	0.396734
O34	O	1.243502	-0.504168	-0.439319
O35	O	1.576835	-0.170835	-0.105986
O36	O	1.910168	0.162499	0.227348
O37	O	1.377559	-0.673332	-0.737081
O38	O	1.710892	-0.339998	-0.403748
O39	O	2.044226	-0.006665	-0.070415
O40	O	1.226890	-0.651462	-0.567656
O41	O	1.560223	-0.318129	-0.234323
O42	O	1.893556	0.015204	0.099011
O43	O	1.508331	-0.542607	-0.737116
O44	O	1.841664	-0.209274	-0.403782
O45	O	2.174998	0.124060	-0.070449
O46	O	1.546708	-0.807482	-0.439309
O47	O	1.880041	-0.474148	-0.105975
O48	O	2.213375	-0.140815	0.227358
O49	O	1.399393	-0.824027	-0.567650
O50	O	1.732726	-0.490693	-0.234317
O51	O	2.066059	-0.157360	0.099017
C52	C	1.196576	-0.577812	-0.503484
C53	C	1.529909	-0.244479	-0.170150
C54	C	1.863243	0.088854	0.163183
C55	C	1.078269	-0.577830	-0.503495
C56	C	1.411602	-0.244497	-0.170162
C57	C	1.744936	0.088836	0.163171
C58	C	1.473066	-0.854376	-0.503496
C59	C	1.806399	-0.521043	-0.170163
C60	C	2.139733	-0.187710	0.163170
C61	C	1.473139	-0.972685	-0.503524
C62	C	1.806472	-0.639352	-0.170190
C63	C	2.139806	-0.306019	0.163143
C64	C	1.018003	-0.497637	-0.433826
C65	C	1.351337	-0.164304	-0.100493
C66	C	1.684670	0.169030	0.232841
C67	C	0.950526	-0.591401	-0.408124
C68	C	1.283859	-0.258068	-0.074791
C69	C	1.617192	0.075265	0.258543
C70	C	0.934945	-0.484116	-0.529215
C71	C	1.268279	-0.150782	-0.195882
C72	C	1.601612	0.182551	0.137451
C73	C	1.012356	-0.671639	-0.477743
C74	C	1.345690	-0.338306	-0.144410
C75	C	1.679023	-0.004973	0.188923
C76	C	0.996777	-0.564294	-0.598879
C77	C	1.330110	-0.230961	-0.265546
C78	C	1.663443	0.102373	0.067787
C79	C	0.929326	-0.658130	-0.573213
C80	C	1.262660	-0.324797	-0.239880
C81	C	1.595993	0.008537	0.093453
C82	C	1.553336	-1.032910	-0.433793
C83	C	1.886670	-0.699577	-0.100460
C84	C	2.220003	-0.366244	0.232874
C85	C	1.567004	-1.115943	-0.529172
C86	C	1.900337	-0.782610	-0.195838
C87	C	2.233670	-0.449276	0.137495
C88	C	1.459597	-1.100459	-0.408206
C89	C	1.792930	-0.767126	-0.074872
C90	C	2.126264	-0.433793	0.258461
C91	C	1.486849	-1.054166	-0.598952
C92	C	1.820183	-0.720833	-0.265619
C93	C	2.153516	-0.387499	0.067715
C94	C	1.379406	-1.038668	-0.477922
C95	C	1.712739	-0.705334	-0.144589
C96	C	2.046072	-0.372001	0.188745
C97	C	1.393027	-1.121677	-0.573366
C98	C	1.726361	-0.788344	-0.240033
C99	C	2.059694	-0.455010	0.093300
C100	C	1.750730	-0.577864	-0.503546
C101	C	2.084063	-0.244531	-0.170213
C102	C	2.417396	0.088803	0.163121
C103	C	1.869034	-0.577875	-0.503559
C104	C	2.202367	-0.244542	-0.170226
C105	C	2.535700	0.088792	0.163107
C106	C	1.437911	-0.612997	-0.776075
C107	C	1.771244	-0.279664	-0.442741
C108	C	2.104578	0.053670	-0.109408
C109	C	1.422910	-0.627980	-0.892224
C110	C	1.756243	-0.294647	-0.558890
C111	C	2.089577	0.038687	-0.225557
C112	C	1.473186	-0.300222	-0.503556
C113	C	1.806520	0.033111	-0.170222
C114	C	2.139853	0.366445	0.163111
C115	C	1.473217	-0.181919	-0.503573
C116	C	1.806551	0.151414	-0.170240
C117	C	2.139884	0.484748	0.163093
C118	C	1.480926	-0.569980	-0.944023
C119	C	1.814259	-0.236646	-0.610690
C120	C	2.147592	0.096687	-0.277357
C121	C	1.465423	-0.585464	-1.064069
C122	C	1.798756	-0.252130	-0.730736
C123	C	2.132089	0.081203	-0.397403
C124	C	1.508239	-0.542738	-0.232015
C125	C	1.841573	-0.209405	0.101319
C126	C	2.174906	0.123928	0.434652
C127	C	1.523446	-0.527456	-0.115866
C128	C	1.856780	-0.194122	0.217467
C129	C	2.190113	0.139211	0.550800
H130	H	1.056654	-0.429870	-0.374836
H131	H	1.389987	-0.096536	-0.041503
H132	H	1.723320	0.236797	0.291830
H133	H	1.448109	-1.121201	-0.327576
H134	H	1.781443	-0.787867	0.005757
H135	H	2.114776	-0.454534	0.339090
Cl136	Cl	1.328496	-0.722341	-0.960959
Cl137	Cl	1.661829	-0.389008	-0.627626
Cl138	Cl	1.995162	-0.055674	-0.294293
Cl139	Cl	1.504745	-1.022357	-0.723471
Cl140	Cl	1.838079	-0.689024	-0.390138
Cl141	Cl	2.171412	-0.355691	-0.056805
Cl142	Cl	1.257008	-0.986385	-0.444407
Cl143	Cl	1.590341	-0.653052	-0.111073
Cl144	Cl	1.923674	-0.319719	0.222260
Cl145	Cl	0.882615	-0.361730	-0.562759
Cl146	Cl	1.215948	-0.028396	-0.229426
Cl147	Cl	1.549282	0.304937	0.103908
Cl148	Cl	1.064490	-0.794047	-0.444052
Cl149	Cl	1.397823	-0.460714	-0.110719
Cl150	Cl	1.731157	-0.127380	0.222614
Cl151	Cl	1.617875	-0.433098	-1.047138
Cl152	Cl	1.951208	-0.099765	-0.713804
Cl153	Cl	2.284542	0.233568	-0.380471
Cl154	Cl	1.371004	-0.679829	-1.132801
Cl155	Cl	1.704337	-0.346496	-0.799468
Cl156	Cl	2.037671	-0.013163	-0.466134
Cl157	Cl	1.575308	-0.475586	-0.875288
Cl158	Cl	1.908641	-0.142253	-0.541955
Cl159	Cl	2.241974	0.191080	-0.208621
H160	H	1.621160	-0.994240	-0.374878
H161	H	1.954493	-0.660906	-0.041544
H162	H	2.287826	-0.327573	0.291789
H163	H	1.646304	-1.149782	-0.550854
H164	H	1.979638	-0.816449	-0.217520
H165	H	2.312971	-0.483116	0.115813
Cl166	Cl	1.288357	-1.181113	-0.664543
Cl167	Cl	1.621690	-0.847780	-0.331210
Cl168	Cl	1.955023	-0.514446	0.002124
H169	H	0.890877	-0.726035	-0.632158
H170	H	1.224210	-0.392702	-0.298824
H171	H	1.557543	-0.059369	0.034509
Cl172	Cl	1.028813	-0.546526	-0.723342
Cl173	Cl	1.362146	-0.213193	-0.390009
Cl174	Cl	1.695480	0.120140	-0.056676
H175	H	0.929804	-0.602879	-0.327487
H176	H	1.263137	-0.269545	0.005846
H177	H	1.596471	0.063788	0.339179
