data_functionalizedCrystal
_audit_creation_method	'MofGen! by Chris Wilmer'
_symmetry_space_group_name_H-M	'P1'
_symmetry_Int_Tables_number	1
_symmetry_cell_setting	triclinic
loop_
_symmetry_equiv_pos_as_xyz
  x,y,z
_cell_length_a	14.044220
_cell_length_b	22.610064
_cell_length_c	14.044220
_cell_angle_alpha	89.995561
_cell_angle_beta	86.811122
_cell_angle_gamma	90.010402
loop_
_atom_site_label
_atom_site_type_symbol
_atom_site_fract_x
_atom_site_fract_y
_atom_site_fract_z
O1	O	1.277183	0.049124	-0.230167
O2	O	1.000511	0.049139	-0.221861
O3	O	1.134694	0.049126	-0.087678
O4	O	1.143000	0.049137	-0.364350
O5	O	1.134651	-0.049243	-0.087674
O6	O	1.000468	-0.049230	-0.221857
O7	O	1.277140	-0.049245	-0.230163
Zn8	Zn	1.138797	-0.064856	-0.226009
Zn9	Zn	1.138854	0.064750	-0.226014
O10	O	1.142957	-0.049232	-0.364346
C11	C	0.964868	-0.000044	-0.218223
C12	C	0.858725	-0.000038	-0.207379
N13	N	1.138766	-0.153308	-0.226006
C14	C	0.664388	-0.000051	-0.187553
C15	C	0.613258	-0.000050	-0.264467
C16	C	0.505122	-0.000057	-0.253435
C17	C	0.772534	-0.000044	-0.198583
C18	C	1.201653	-0.561951	-0.288837
C19	C	1.201664	-0.623871	-0.288836
O20	O	1.255095	-0.655890	-0.342248
N21	N	1.138871	-0.654846	-0.226005
C22	C	1.076069	-0.623897	-0.163165
O23	O	1.022660	-0.655930	-0.109722
C24	C	1.076063	-0.561979	-0.163162
C25	C	1.138853	-0.531007	-0.226004
C26	C	1.264439	-0.530979	-0.351673
C27	C	1.264426	-0.469063	-0.351675
C28	C	1.201626	-0.438119	-0.288842
C29	C	1.138840	-0.469091	-0.226006
C30	C	1.013266	-0.531032	-0.100318
C31	C	1.013265	-0.469109	-0.100320
C32	C	1.076056	-0.438137	-0.163162
C33	C	1.076027	-0.376232	-0.163175
N34	N	1.138820	-0.345257	-0.226006
C35	C	1.201620	-0.376201	-0.288839
C36	C	1.076088	-0.753931	-0.163174
C37	C	1.076089	-0.815849	-0.163181
C38	C	1.201686	-0.815818	-0.288851
C39	C	1.201680	-0.753899	-0.288848
C40	C	1.138881	-0.722956	-0.226005
C41	C	1.201587	-0.246173	-0.288840
C42	C	1.201565	-0.184252	-0.288839
C43	C	1.075972	-0.184289	-0.163166
C44	C	1.075990	-0.246204	-0.163170
C45	C	1.138805	-0.277145	-0.226010
O46	O	1.022627	-0.344173	-0.109788
O47	O	1.255028	-0.344161	-0.342265
C48	C	1.312783	-0.000061	-0.233800
C49	C	1.418926	-0.000063	-0.244645
C50	C	1.131037	-0.000059	-0.052054
C51	C	1.120193	-0.000059	0.054088
N52	N	1.138893	0.153202	-0.226011
C53	C	1.146614	-0.000046	-0.399969
C54	C	1.157459	-0.000042	-0.506112
C55	C	1.100366	-0.000049	0.248426
C56	C	1.177281	-0.000052	0.299556
C57	C	1.166249	-0.000046	0.407692
C58	C	1.111397	-0.000055	0.140280
H59	H	0.650697	-0.000044	-0.338600
C60	C	1.277433	-0.000065	0.248979
N61	N	1.352864	-0.000079	0.210881
H62	H	0.626951	-0.000057	-0.113425
C63	C	1.270646	-0.150187	-0.357969
N64	N	1.322679	-0.124531	-0.410034
C65	C	0.944177	-0.435075	-0.031189
N66	N	0.892137	-0.409443	0.020878
C67	C	1.000222	-0.000052	0.299003
N68	N	0.924793	-0.000058	0.337108
C69	C	1.333512	-0.435002	-0.420796
N70	N	1.385556	-0.409352	-0.472856
H71	H	1.252737	-0.271358	-0.340010
H72	H	1.252820	-0.841023	-0.340014
H73	H	1.315583	-0.556167	-0.402840
H74	H	1.252809	-0.728686	-0.340020
H75	H	1.024941	-0.728741	-0.112002
C76	C	0.944190	-0.565087	-0.031186
N77	N	0.892158	-0.590736	0.020889
C78	C	1.007005	-0.849911	-0.094060
N79	N	0.954971	-0.875564	-0.041993
H80	H	1.024849	-0.271423	-0.112010
H81	H	1.024840	-0.159083	-0.112011
