data_functionalizedCrystal
_audit_creation_method	'MofGen! by Chris Wilmer'
_symmetry_space_group_name_H-M	'P1'
_symmetry_Int_Tables_number	1
_symmetry_cell_setting	triclinic
loop_
_symmetry_equiv_pos_as_xyz
  x,y,z
_cell_length_a	17.077404
_cell_length_b	25.639239
_cell_length_c	25.639233
_cell_angle_alpha	89.981253
_cell_angle_beta	89.986697
_cell_angle_gamma	90.038911
loop_
_atom_site_label
_atom_site_type_symbol
_atom_site_fract_x
_atom_site_fract_y
_atom_site_fract_z
Zn1	Zn	1.199920	-0.208211	-0.295619
Zn2	Zn	1.699920	0.291789	0.204381
Zn3	Zn	1.199805	-0.295630	-0.208183
Zn4	Zn	1.699805	0.204370	0.291817
Zn5	Zn	1.068666	-0.208211	-0.208196
Zn6	Zn	1.568666	0.291789	0.291804
Zn7	Zn	1.068584	-0.295618	-0.295586
Zn8	Zn	1.568584	0.204382	0.204414
O9	O	1.134244	-0.251918	-0.251896
O10	O	1.634244	0.248082	0.248104
O11	O	1.309752	-0.219813	-0.284028
O12	O	1.809752	0.280187	0.215972
O13	O	1.182396	-0.284039	-0.135020
O14	O	1.682396	0.215961	0.364980
O15	O	1.086160	-0.135046	-0.219812
O16	O	1.586160	0.364954	0.280188
O17	O	1.309668	-0.284039	-0.219789
O18	O	1.809668	0.215961	0.280211
O19	O	1.182592	-0.135046	-0.284041
O20	O	1.682592	0.364954	0.215959
O21	O	1.086049	-0.219812	-0.135029
O22	O	1.586049	0.280188	0.364971
O23	O	0.958809	-0.219800	-0.219781
O24	O	1.458809	0.280200	0.280219
O25	O	1.086020	-0.284018	-0.368756
O26	O	1.586020	0.215982	0.131244
O27	O	0.958748	-0.284018	-0.283986
O28	O	1.458748	0.215982	0.216014
O29	O	1.182512	-0.219801	-0.368780
O30	O	1.682512	0.280199	0.131220
O31	O	1.182316	-0.368794	-0.219758
O32	O	1.682316	0.131206	0.280242
O33	O	1.085908	-0.368785	-0.283973
O34	O	1.585908	0.131215	0.216027
C35	C	0.930296	-0.251908	-0.251882
C36	C	1.430296	0.248092	0.248118
C37	C	0.843046	-0.251917	-0.251888
C38	C	1.343046	0.248083	0.248112
C39	C	0.802045	-0.285405	-0.285266
C40	C	1.302045	0.214595	0.214734
C41	C	0.720065	-0.285406	-0.285274
C42	C	1.220065	0.214594	0.214726
C43	C	0.679087	-0.251921	-0.251902
C44	C	1.179087	0.248079	0.248098
C45	C	0.720094	-0.218429	-0.218522
C46	C	1.220094	0.281571	0.281478
C47	C	0.802073	-0.218425	-0.218517
C48	C	1.302073	0.281575	0.281483
C49	C	0.549224	-0.218439	-0.218535
C50	C	1.049224	0.281561	0.281465
C51	C	0.467239	-0.218443	-0.218539
C52	C	0.967239	0.281557	0.281461
C53	C	0.467216	-0.285420	-0.285292
C54	C	0.967216	0.214580	0.214708
C55	C	0.549195	-0.285417	-0.285287
C56	C	1.049195	0.214583	0.214713
C57	C	0.590196	-0.251925	-0.251906
C58	C	1.090196	0.248075	0.248094
C59	C	1.134112	-0.387760	-0.251872
C60	C	1.634112	0.112240	0.248128
C61	C	1.134127	-0.445874	-0.251879
C62	C	1.634127	0.054126	0.248121
C63	C	1.184575	-0.806229	-0.218516
C64	C	1.684575	-0.306229	0.281484
C65	C	1.184605	-0.860834	-0.218523
C66	C	1.684605	-0.360834	0.281477
O67	O	1.227360	-0.889064	-0.190131
O68	O	1.727360	-0.389064	0.309869
N69	N	1.134382	-0.888157	-0.251931
N70	N	1.634382	-0.388157	0.248069
C71	C	1.084131	-0.860872	-0.285337
C72	C	1.584131	-0.360872	0.214663
O73	O	1.041416	-0.889127	-0.313754
O74	O	1.541416	-0.389127	0.186246
C75	C	1.084105	-0.806269	-0.285332
C76	C	1.584105	-0.306269	0.214668
C77	C	1.134326	-0.778949	-0.251919
C78	C	1.634326	-0.278949	0.248081
C79	C	1.234792	-0.778909	-0.185106
C80	C	1.734792	-0.278909	0.314894
C81	C	1.234760	-0.724309	-0.185099
C82	C	1.734760	-0.224309	0.314901
C83	C	1.184511	-0.697028	-0.218501
C84	C	1.684511	-0.197028	0.281499
C85	C	1.134294	-0.724348	-0.251911
C86	C	1.634294	-0.224348	0.248089
C87	C	1.033859	-0.778986	-0.318741
C88	C	1.533859	-0.278986	0.181259
C89	C	1.033837	-0.724379	-0.318734
C90	C	1.533837	-0.224379	0.181266
C91	C	1.084058	-0.697059	-0.285320
C92	C	1.584058	-0.197059	0.214680
C93	C	1.084014	-0.642468	-0.285306
C94	C	1.584014	-0.142468	0.214694
N95	N	1.134237	-0.615145	-0.251899
N96	N	1.634237	-0.115145	0.248101
C97	C	1.184485	-0.642425	-0.218496
C98	C	1.684485	-0.142425	0.281504
C99	C	1.084190	-0.975543	-0.285345
C100	C	1.584190	-0.475543	0.214655
C101	C	1.084211	-1.030145	-0.285348
C102	C	1.584211	-0.530145	0.214652
C103	C	1.184687	-1.030103	-0.218534
C104	C	1.684687	-0.530103	0.281466
C105	C	1.184661	-0.975499	-0.218530
C106	C	1.684661	-0.475499	0.281470
C107	C	1.134413	-0.948220	-0.251938
C108	C	1.634413	-0.448220	0.248062
C109	C	1.184415	-0.527760	-0.218483
C110	C	1.684415	-0.027760	0.281517
C111	C	1.184376	-0.473154	-0.218477
C112	C	1.684376	0.026846	0.281523
C113	C	1.083904	-0.473202	-0.285292
C114	C	1.583904	0.026798	0.214708
C115	C	1.083939	-0.527802	-0.285296
C116	C	1.583939	-0.027802	0.214704
C117	C	1.134201	-0.555080	-0.251890
C118	C	1.634201	-0.055080	0.248110
O119	O	1.041283	-0.614203	-0.313686
O120	O	1.541283	-0.114203	0.186314
O121	O	1.227201	-0.614164	-0.190090
O122	O	1.727201	-0.114164	0.309910
C123	C	1.338988	-0.251927	-0.251911
C124	C	1.838988	0.248073	0.248089
C125	C	1.426238	-0.251932	-0.251917
C126	C	1.926238	0.248068	0.248083
C127	C	1.134269	-0.251908	-0.388269
C128	C	1.634269	0.248092	0.111731
C129	C	1.134280	-0.251904	-0.446383
C130	C	1.634280	0.248096	0.053617
C131	C	1.134398	-0.115544	-0.251932
C132	C	1.634398	0.384456	0.248068
C133	C	1.134464	-0.057430	-0.251947
C134	C	1.634464	0.442570	0.248053
C135	C	1.184587	-0.218367	-0.806764
C136	C	1.684587	0.281633	-0.306764
C137	C	1.184597	-0.218353	-0.861369
C138	C	1.684597	0.281647	-0.361369
O139	O	1.227307	-0.189900	-0.889621
O140	O	1.727307	0.310100	-0.389621
N141	N	1.134367	-0.251782	-0.888666
N142	N	1.634367	0.248218	-0.388666
C143	C	1.084118	-0.285224	-0.861356
C144	C	1.584118	0.214776	-0.361356
O145	O	1.041393	-0.313656	-0.889588
O146	O	1.541393	0.186344	-0.389588
C147	C	1.084105	-0.285235	-0.806753
C148	C	1.584105	0.214765	-0.306753
C149	C	1.134344	-0.251808	-0.779458
C150	C	1.634344	0.248192	-0.279458
C151	C	1.234822	-0.184942	-0.779470
C152	C	1.734822	0.315058	-0.279470
C153	C	1.234813	-0.184957	-0.724869
C154	C	1.734813	0.315043	-0.224869
C155	C	1.184570	-0.218398	-0.697563
C156	C	1.684570	0.281602	-0.197563
C157	C	1.134335	-0.251823	-0.724858
C158	C	1.634335	0.248177	-0.224858
C159	C	1.033852	-0.318674	-0.779443
C160	C	1.533852	0.181326	-0.279443
C161	C	1.033843	-0.318683	-0.724836
C162	C	1.533843	0.181317	-0.224836
C163	C	1.084082	-0.285255	-0.697542
C164	C	1.584082	0.214745	-0.197542
C165	C	1.084083	-0.285279	-0.642951
C166	C	1.584083	0.214721	-0.142951
N167	N	1.134313	-0.251850	-0.615654
N168	N	1.634313	0.248150	-0.115654
C169	C	1.184557	-0.218409	-0.642960
C170	C	1.684557	0.281591	-0.142960
C171	C	1.084148	-0.285197	-0.976027
C172	C	1.584148	0.214803	-0.476027
C173	C	1.084164	-0.285188	-1.030629
C174	C	1.584164	0.214812	-0.530629
C175	C	1.184643	-0.218316	-1.030638
C176	C	1.684643	0.281684	-0.530638
C177	C	1.184630	-0.218328	-0.976035
C178	C	1.684630	0.281672	-0.476035
C179	C	1.134378	-0.251768	-0.948729
C180	C	1.634378	0.248232	-0.448729
C181	C	1.184535	-0.218444	-0.528295
C182	C	1.684535	0.281556	-0.028295
C183	C	1.184524	-0.218464	-0.473689
C184	C	1.684524	0.281536	0.026311
C185	C	1.084043	-0.285334	-0.473685
C186	C	1.584043	0.214666	0.026315
C187	C	1.084056	-0.285316	-0.528286
C188	C	1.584056	0.214684	-0.028286
C189	C	1.134305	-0.251867	-0.555589
C190	C	1.634305	0.248133	-0.055589
O191	O	1.041393	-0.313716	-0.614664
O192	O	1.541393	0.186284	-0.114664
O193	O	1.227267	-0.189977	-0.614721
O194	O	1.727267	0.310023	-0.114721
C195	C	1.134264	-0.251889	-0.116054
C196	C	1.634264	0.248111	0.383946
C197	C	1.134405	-0.251746	-0.057940
C198	C	1.634405	0.248254	0.442060
H199	H	0.433829	-0.312689	-0.312473
H200	H	0.933829	0.187311	0.187527
H201	H	0.992913	-0.345908	-0.702607
H202	H	1.492913	0.154092	-0.202607
H203	H	1.043048	-0.550048	-0.312505
H204	H	1.543048	-0.050048	0.187495
H205	H	1.043155	-0.312540	-0.550510
H206	H	1.543155	0.187460	-0.050510
H207	H	1.275736	-0.157708	-0.801697
H208	H	1.775736	0.342292	-0.301697
Cl209	Cl	1.020742	-0.438896	-0.327284
Cl210	Cl	1.520742	0.061104	0.172716
H211	H	0.686685	-0.312676	-0.312453
H212	H	1.186685	0.187324	0.187547
H213	H	0.686723	-0.191162	-0.191352
H214	H	1.186723	0.308838	0.308648
H215	H	0.433877	-0.191170	-0.191370
H216	H	0.933877	0.308830	0.308630
H217	H	1.225272	-0.450912	-0.191266
H218	H	1.725272	0.049088	0.308734
Cl219	Cl	1.020974	-0.327244	-0.941705
Cl220	Cl	1.520974	0.172756	-0.441705
Cl221	Cl	1.247688	-0.176438	-0.439380
Cl222	Cl	1.747688	0.323562	0.060620
H223	H	1.225344	-0.549963	-0.191282
H224	H	1.725344	-0.049963	0.308718
H225	H	0.582605	-0.191162	-0.191357
H226	H	1.082605	0.308838	0.308643
H227	H	1.043309	-1.052385	-0.312551
H228	H	1.543309	-0.552385	0.187449
H229	H	0.835455	-0.191153	-0.191340
H230	H	1.335455	0.308847	0.308660
Cl231	Cl	1.297910	-0.689971	-0.143099
Cl232	Cl	1.797910	-0.189971	0.356901
H233	H	1.043266	-0.953335	-0.312548
H234	H	1.543266	-0.453335	0.187452
H235	H	0.992942	-0.345895	-0.801657
H236	H	1.492942	0.154105	-0.301657
H237	H	1.043138	-0.312562	-0.451442
H238	H	1.543138	0.187438	0.048558
Cl239	Cl	1.247799	-0.941160	-0.176524
Cl240	Cl	1.747799	-0.441160	0.323476
Cl241	Cl	0.853552	-0.327506	-0.327220
Cl242	Cl	1.353552	0.172494	0.172780
H243	H	1.225552	-0.191086	-1.052881
H244	H	1.725552	0.308914	-0.552881
H245	H	0.582557	-0.312686	-0.312459
H246	H	1.082557	0.187314	0.187541
H247	H	1.275715	-0.801115	-0.157906
H248	H	1.775715	-0.301115	0.342094
H249	H	1.225605	-1.052324	-0.191338
H250	H	1.725605	-0.552324	0.308662
Cl251	Cl	0.970729	-0.813318	-0.360755
Cl252	Cl	1.470729	-0.313318	0.139245
H253	H	0.992920	-0.702171	-0.345940
H254	H	1.492920	-0.202171	0.154060
Cl255	Cl	1.247702	-0.176391	-0.562611
Cl256	Cl	1.747702	0.323609	-0.062611
H257	H	1.043263	-0.312414	-1.052847
H258	H	1.543263	0.187586	-0.552847
Cl259	Cl	1.297969	-0.142928	-0.690565
Cl260	Cl	1.797969	0.357072	-0.190565
H261	H	1.225538	-0.191107	-0.953815
H262	H	1.725538	0.308893	-0.453815
