data_functionalizedCrystal
_audit_creation_method	'MofGen! by Chris Wilmer'
_symmetry_space_group_name_H-M	'P1'
_symmetry_Int_Tables_number	1
_symmetry_cell_setting	triclinic
loop_
_symmetry_equiv_pos_as_xyz
  x,y,z
_cell_length_a	17.699077
_cell_length_b	14.044220
_cell_length_c	16.776229
_cell_angle_alpha	89.992645
_cell_angle_beta	89.993415
_cell_angle_gamma	88.234727
loop_
_atom_site_label
_atom_site_type_symbol
_atom_site_fract_x
_atom_site_fract_y
_atom_site_fract_z
O1	O	1.012347	0.119823	-0.066280
O2	O	1.345680	0.453156	0.267054
O3	O	1.679014	0.786490	0.600387
O4	O	0.793044	0.135422	-0.066284
O5	O	1.126377	0.468755	0.267049
O6	O	1.459711	0.802088	0.600383
O7	O	0.899404	-0.010355	-0.066274
O8	O	1.232737	0.322979	0.267059
O9	O	1.566070	0.656312	0.600393
O10	O	0.905987	0.265599	-0.066290
O11	O	1.239321	0.598933	0.267044
O12	O	1.572654	0.932266	0.600377
O13	O	0.899388	-0.010364	0.066302
O14	O	1.232721	0.322970	0.399636
O15	O	1.566054	0.656303	0.732969
O16	O	0.793028	0.135413	0.066293
O17	O	1.126361	0.468746	0.399626
O18	O	1.459695	0.802079	0.732959
O19	O	1.012331	0.119814	0.066297
O20	O	1.345664	0.453147	0.399630
O21	O	1.678998	0.786481	0.732963
Zn22	Zn	0.902677	0.127612	0.087344
Zn23	Zn	1.236010	0.460945	0.420677
Zn24	Zn	1.569344	0.794279	0.754011
Zn25	Zn	0.902698	0.127624	-0.087331
Zn26	Zn	1.236031	0.460957	0.246002
Zn27	Zn	1.569365	0.794290	0.579335
O28	O	0.905971	0.265590	0.066287
O29	O	1.239305	0.598924	0.399620
O30	O	1.572638	0.932257	0.732953
C31	C	0.764800	0.134859	0.000004
C32	C	1.098134	0.468193	0.333337
C33	C	1.431467	0.801526	0.666670
C34	C	0.680667	0.133185	0.000002
C35	C	1.014000	0.466519	0.333336
C36	C	1.347333	0.799852	0.666669
C37	C	0.641136	0.132392	0.072271
C38	C	0.974469	0.465725	0.405604
C39	C	1.307803	0.799058	0.738937
C40	C	0.562084	0.130804	0.072272
C41	C	0.895417	0.464137	0.405605
C42	C	1.228751	0.797470	0.738938
C43	C	0.522564	0.130016	0.000004
C44	C	0.855897	0.463350	0.333337
C45	C	1.189230	0.796683	0.666670
C46	C	0.562100	0.130807	-0.072270
C47	C	0.895433	0.464140	0.261063
C48	C	1.228767	0.797474	0.594396
C49	C	0.641151	0.132388	-0.072271
C50	C	0.974484	0.465722	0.261063
C51	C	1.307817	0.799055	0.594396
C52	C	0.243297	0.124429	-0.072272
C53	C	0.576630	0.457763	0.261062
C54	C	0.909963	0.791096	0.594395
C55	C	0.164240	0.122851	-0.072266
C56	C	0.497573	0.456184	0.261067
C57	C	0.830907	0.789518	0.594401
C58	C	0.164230	0.122845	0.072271
C59	C	0.497563	0.456178	0.405604
C60	C	0.830897	0.789511	0.738937
C61	C	0.243281	0.124426	0.072271
C62	C	0.576614	0.457759	0.405604
C63	C	0.909947	0.791093	0.738937
C64	C	0.282810	0.125212	-0.000003
C65	C	0.616144	0.458545	0.333331
C66	C	0.949477	0.791878	0.666664
C67	C	0.368528	0.126932	-0.000003
C68	C	0.701861	0.460265	0.333330
C69	C	1.035194	0.793598	0.666664
C70	C	0.436848	0.128303	0.000003
C71	C	0.770181	0.461636	0.333336
C72	C	1.103514	0.794970	0.666669
C73	C	0.896514	-0.045667	0.000014
C74	C	1.229847	0.287667	0.333348
C75	C	1.563181	0.621000	0.666681
C76	C	0.887918	-0.150873	0.000015
C77	C	1.221251	0.182461	0.333349
C78	C	1.554585	0.515794	0.666682
C79	C	0.872203	-0.343497	0.000004
C80	C	1.205536	-0.010164	0.333337
C81	C	1.538870	0.323169	0.666670
C82	C	0.933169	-0.401273	0.000002
C83	C	1.266502	-0.067939	0.333336
C84	C	1.599835	0.265394	0.666669
C85	C	0.924425	-0.508456	-0.000004
C86	C	1.257758	-0.175122	0.333329
C87	C	1.591091	0.158211	0.666662
C88	C	0.880946	-0.236304	0.000010
C89	C	1.214279	0.097029	0.333343
C90	C	1.547613	0.430362	0.666677
C91	C	1.040575	0.120376	0.000007
C92	C	1.373908	0.453710	0.333341
C93	C	1.707241	0.787043	0.666674
C94	C	1.124708	0.122050	0.000003
C95	C	1.458042	0.455384	0.333337
C96	C	1.791375	0.788717	0.666670
C97	C	0.908861	0.300903	-0.000003
C98	C	1.242194	0.634236	0.333330
C99	C	1.575528	0.967569	0.666663
C100	C	0.917457	0.406108	-0.000010
C101	C	1.250790	0.739442	0.333324
C102	C	1.584124	1.072775	0.666657
N103	N	0.902668	0.127603	0.206555
N104	N	1.236001	0.460937	0.539889
N105	N	1.569335	0.794270	0.873222
N106	N	0.902712	0.127625	-0.206542
N107	N	1.236046	0.460958	0.126791
N108	N	1.569379	0.794291	0.460124
C109	C	0.949782	0.063080	0.248277
C110	C	1.283115	0.396413	0.581610
C111	C	1.616448	0.729747	0.914943
C112	C	0.949786	0.063079	0.331729
C113	C	1.283119	0.396413	0.665062
C114	C	1.616452	0.729746	0.998396
C115	C	0.902680	0.127607	0.373458
C116	C	1.236013	0.460940	0.706791
C117	C	1.569346	0.794274	1.040125
C118	C	0.855561	0.192133	0.331731
C119	C	1.188894	0.525467	0.665064
C120	C	1.522228	0.858800	0.998397
C121	C	0.855553	0.192129	0.248280
C122	C	1.188887	0.525462	0.581613
C123	C	1.522220	0.858796	0.914947
C124	C	0.855589	0.192152	0.668278
C125	C	1.188923	0.525485	1.001611
C126	C	1.522256	0.858819	1.334945
C127	C	0.855602	0.192153	0.751735
C128	C	1.188936	0.525487	1.085068
C129	C	1.522269	0.858820	1.418401
C130	C	0.949822	0.063102	0.751727
C131	C	1.283155	0.396436	1.085060
C132	C	1.616489	0.729769	1.418393
C133	C	0.949814	0.063098	0.668276
C134	C	1.283148	0.396431	1.001609
C135	C	1.616481	0.729765	1.334943
C136	C	0.902693	0.127620	0.626556
C137	C	1.236026	0.460954	0.959889
C138	C	1.569360	0.794287	1.293223
C139	C	0.902688	0.127619	0.536068
C140	C	1.236021	0.460953	0.869401
C141	C	1.569355	0.794286	1.202734
C142	C	0.902688	0.127613	0.463945
C143	C	1.236021	0.460947	0.797278
C144	C	1.569355	0.794280	1.130612
H145	H	0.132065	0.122209	-0.131119
H146	H	0.465398	0.455542	0.202214
H147	H	0.798731	0.788875	0.535548
C148	C	1.001649	-0.007883	0.797617
C149	C	1.334982	0.325450	1.130950
C150	C	1.668316	0.658783	1.464284
H151	H	1.029707	-0.046306	0.760812
H152	H	1.363041	0.287027	1.094145
H153	H	1.696374	0.620361	1.427478
H154	H	0.971770	-0.047294	0.830182
H155	H	1.305104	0.286039	1.163516
H156	H	1.638437	0.619373	1.496849
H157	H	1.035456	0.026166	0.830159
H158	H	1.368789	0.359499	1.163492
H159	H	1.702123	0.692833	1.496826
C160	C	1.012551	-0.359355	0.000021
C161	C	1.345884	-0.026022	0.333355
C162	C	1.679218	0.307312	0.666688
H163	H	1.008093	-0.291769	0.000035
H164	H	1.341426	0.041564	0.333368
H165	H	1.674759	0.374897	0.666701
H166	H	1.039281	-0.380197	-0.046205
H167	H	1.372615	-0.046863	0.287128
H168	H	1.705948	0.286470	0.620461
H169	H	1.039247	-0.380225	0.046265
H170	H	1.372580	-0.046892	0.379598
H171	H	1.705914	0.286442	0.712932
H172	H	0.813446	-0.374530	0.000000
H173	H	1.146779	-0.041196	0.333334
H174	H	1.480112	0.292137	0.666667
C175	C	0.803719	0.263086	0.377627
C176	C	1.137053	0.596420	0.710960
C177	C	1.470386	0.929753	1.044294
H178	H	0.775647	0.301499	0.340825
H179	H	1.108980	0.634833	0.674158
H180	H	1.442313	0.968166	1.007491
H181	H	0.833583	0.302509	0.410181
H182	H	1.166917	0.635843	0.743515
H183	H	1.500250	0.969176	1.076848
H184	H	0.769926	0.229011	0.410180
H185	H	1.103259	0.562344	0.743514
H186	H	1.436593	0.895677	1.076847
C187	C	1.001598	-0.007903	0.202382
C188	C	1.334931	0.325430	0.535715
C189	C	1.668265	0.658764	0.869048
H190	H	1.029652	-0.046336	0.239185
H191	H	1.362985	0.286997	0.572518
H192	H	1.696318	0.620330	0.905852
H193	H	1.035397	0.026134	0.169814
H194	H	1.368731	0.359467	0.503147
H195	H	1.702064	0.692801	0.836480
H196	H	0.971705	-0.047317	0.169842
H197	H	1.305038	0.286017	0.503176
H198	H	1.638372	0.619350	0.836509
C199	C	0.120743	0.122051	0.151771
C200	C	0.454076	0.455385	0.485105
C201	C	0.787410	0.788718	0.818438
H202	H	0.068002	0.121011	0.141425
H203	H	0.401336	0.454345	0.474759
H204	H	0.734669	0.787678	0.808092
H205	H	0.131673	0.177580	0.181416
H206	H	0.465006	0.510914	0.514750
H207	H	0.798340	0.844247	0.848083
H208	H	0.135718	0.067082	0.181513
H209	H	0.469052	0.400416	0.514846
H210	H	0.802385	0.733749	0.848180
H211	H	0.988149	0.010539	0.365698
H212	H	1.321482	0.343872	0.699032
H213	H	1.654815	0.677206	1.032365
H214	H	0.817188	0.244669	0.214311
H215	H	1.150521	0.578002	0.547645
H216	H	1.483854	0.911336	0.880978
C217	C	0.684605	0.133260	0.151765
C218	C	1.017938	0.466593	0.485098
C219	C	1.351272	0.799926	0.818432
H220	H	0.737347	0.134324	0.141417
H221	H	1.070680	0.467657	0.474750
H222	H	1.404014	0.800991	0.808084
H223	H	0.673692	0.077754	0.181464
H224	H	1.007025	0.411087	0.514797
H225	H	1.340359	0.744421	0.848130
H226	H	0.669600	0.188251	0.181454
H227	H	1.002933	0.521585	0.514787
H228	H	1.336266	0.854918	0.848120
C229	C	0.518603	0.129938	0.151767
C230	C	0.851937	0.463272	0.485100
C231	C	1.185270	0.796605	0.818434
H232	H	0.553462	0.130647	0.194807
H233	H	0.886795	0.463980	0.528140
H234	H	1.220128	0.797314	0.861473
H235	H	0.489810	0.074077	0.154781
H236	H	0.823144	0.407410	0.488115
H237	H	1.156477	0.740743	0.821448
H238	H	0.485721	0.184574	0.154763
H239	H	0.819054	0.517907	0.488096
H240	H	1.152387	0.851241	0.821430
H241	H	0.817240	0.244702	0.785709
H242	H	1.150573	0.578035	1.119042
H243	H	1.483907	0.911368	1.452376
H244	H	0.673335	0.133036	-0.131119
H245	H	1.006669	0.466370	0.202214
H246	H	1.340002	0.799703	0.535548
C247	C	1.001644	-0.007863	0.622374
C248	C	1.334978	0.325470	0.955708
C249	C	1.668311	0.658803	1.289041
H250	H	0.994901	0.001386	0.566699
H251	H	1.328234	0.334720	0.900032
H252	H	1.661567	0.668053	1.233365
H253	H	0.989174	-0.071109	0.636054
H254	H	1.322508	0.262224	0.969387
H255	H	1.655841	0.595557	1.302721
H256	H	1.052843	0.002373	0.636045
H257	H	1.386177	0.335707	0.969378
H258	H	1.719510	0.669040	1.302711
C259	C	0.286749	0.125287	0.151765
C260	C	0.620083	0.458620	0.485099
C261	C	0.953416	0.791953	0.818432
H262	H	0.251884	0.124577	0.194807
H263	H	0.585218	0.457910	0.528140
H264	H	0.918551	0.791243	0.861474
H265	H	0.315545	0.181146	0.154770
H266	H	0.648878	0.514479	0.488103
H267	H	0.982211	0.847812	0.821437
H268	H	0.319629	0.070648	0.154767
H269	H	0.652962	0.403981	0.488100
H270	H	0.986296	0.737315	0.821434
C271	C	0.286769	0.125304	-0.151769
C272	C	0.620102	0.458638	0.181565
C273	C	0.953436	0.791971	0.514898
H274	H	0.251908	0.124620	-0.194806
H275	H	0.585241	0.457954	0.138527
H276	H	0.918574	0.791287	0.471860
H277	H	0.319652	0.070676	-0.154775
H278	H	0.652985	0.404010	0.178558
H279	H	0.986319	0.737343	0.511892
H280	H	0.315561	0.181174	-0.154776
H281	H	0.648894	0.514507	0.178557
H282	H	0.982227	0.847840	0.511890
H283	H	0.817223	0.244690	0.634316
H284	H	1.150556	0.578024	0.967649
H285	H	1.483890	0.911357	1.300983
H286	H	0.529916	0.130159	-0.131112
H287	H	0.863250	0.463492	0.202221
H288	H	1.196583	0.796826	0.535554
