data_functionalizedCrystal
_audit_creation_method	'MofGen! by Chris Wilmer'
_symmetry_space_group_name_H-M	'P1'
_symmetry_Int_Tables_number	1
_symmetry_cell_setting	triclinic
loop_
_symmetry_equiv_pos_as_xyz
  x,y,z
_cell_length_a	15.995343
_cell_length_b	15.995350
_cell_length_c	9.730223
_cell_angle_alpha	90.000899
_cell_angle_beta	90.004116
_cell_angle_gamma	83.490779
loop_
_atom_site_label
_atom_site_type_symbol
_atom_site_fract_x
_atom_site_fract_y
_atom_site_fract_z
O1	O	1.110985	0.107892	-0.114145
O2	O	0.867209	0.121226	-0.114177
O3	O	0.995761	-0.007329	-0.114159
O4	O	0.982433	0.236447	-0.114163
O5	O	0.995759	-0.007326	0.114421
O6	O	0.867207	0.121229	0.114403
O7	O	1.110983	0.107895	0.114435
Zn8	Zn	0.989095	0.114563	0.150711
Zn9	Zn	0.989097	0.114559	-0.150453
O10	O	0.982431	0.236450	0.114417
C11	C	0.836013	0.120678	0.000109
C12	C	0.743062	0.119028	0.000096
C13	C	0.572876	0.116035	0.000114
C14	C	0.549530	0.023238	0.000116
C15	C	0.452852	0.021492	0.000643
C16	C	0.405316	0.113086	0.000131
C17	C	0.434407	0.159748	0.130401
C18	C	0.531199	0.160849	0.130502
C19	C	0.531111	0.162204	-0.129445
C20	C	0.434616	0.158778	-0.131149
C21	C	0.310618	0.111425	0.000145
C22	C	0.667574	0.117699	0.000110
C23	C	0.995209	-0.038522	0.000128
C24	C	0.993557	-0.131472	0.000120
C25	C	0.987625	-0.469220	0.000124
C26	C	0.896072	-0.421783	-0.000401
C27	C	0.897725	-0.325093	0.000115
C28	C	0.990567	-0.301659	0.000121
C29	C	1.035723	-0.342736	0.130655
C30	C	1.033423	-0.439372	0.130764
C31	C	1.035316	-0.439734	-0.129174
C32	C	1.035295	-0.342788	-0.130899
C33	C	0.992235	-0.206962	0.000125
C34	C	0.985960	-0.563917	0.000130
C35	C	1.142179	0.108444	0.000146
C36	C	1.235130	0.110093	0.000150
C37	C	0.982983	0.267643	0.000126
C38	C	0.984635	0.360594	0.000125
N39	N	0.989100	0.114565	0.356247
N40	N	0.989099	0.114549	-0.355990
C41	C	1.046037	0.057660	0.428181
C42	C	1.046035	0.057650	0.572064
C43	C	0.932156	0.171457	0.572066
C44	C	0.932154	0.171463	0.428186
C45	C	1.102982	0.000763	0.356242
C46	C	1.159925	-0.056146	0.428177
C47	C	1.159923	-0.056157	0.572060
C48	C	1.102978	0.000742	0.644008
H49	H	0.559382	0.132925	-0.228216
H50	H	1.005384	-0.460274	-0.228110
H51	H	0.402561	0.227159	0.134879
H52	H	0.416060	0.124797	-0.227525
H53	H	1.103932	-0.328612	0.135514
H54	H	0.557984	0.128914	0.228253
O55	O	0.410463	0.121403	0.246368
C56	C	0.367371	0.052445	0.210193
H57	H	0.386472	0.030527	0.102034
H58	H	0.296651	0.072258	0.213353
C59	C	0.366571	0.006884	0.445354
C60	C	0.390036	-0.020041	0.312516
H61	H	0.380548	-0.037828	0.508475
H62	H	0.395600	0.053344	0.469728
H63	H	0.307639	0.023395	0.447969
H64	H	0.448969	-0.036541	0.309900
H65	H	0.361018	-0.066505	0.288144
H66	H	1.002280	-0.315540	-0.227464
O67	O	0.430008	-0.022028	-0.110698
C68	C	0.342061	-0.023658	-0.110245
H69	H	0.311166	0.031506	-0.047258
H70	H	0.326487	-0.085224	-0.062902
C71	C	0.346712	-0.084542	-0.336150
C72	C	0.308765	-0.016785	-0.258798
H73	H	0.326173	-0.080307	-0.427784
H74	H	0.405964	-0.083448	-0.336454
H75	H	0.333730	-0.135841	-0.296682
H76	H	0.321756	0.034511	-0.298257
H77	H	0.249514	-0.017871	-0.258505
H78	H	0.861989	-0.297226	0.093837
H79	H	0.885790	0.217799	0.369617
O80	O	1.102974	0.000576	0.783777
C81	C	1.085938	-0.078912	0.831823
H82	H	1.103105	-0.128229	0.748901
H83	H	1.016163	-0.076747	0.857331
C84	C	1.117311	-0.041474	1.063707
C85	C	1.138402	-0.102047	0.961865
H86	H	1.149669	-0.055744	1.143927
H87	H	1.128785	0.012080	1.031339
H88	H	1.059164	-0.039675	1.084947
H89	H	1.196544	-0.103837	0.940615
H90	H	1.126938	-0.155601	0.994232
O91	O	0.395275	0.238511	-0.140764
C92	C	0.340096	0.254790	-0.028505
H93	H	0.361407	0.210670	0.059898
H94	H	0.273637	0.244060	-0.060819
C95	C	0.314640	0.400852	-0.090225
C96	C	0.340817	0.346668	0.018358
H97	H	0.315080	0.457528	-0.061321
H98	H	0.351811	0.389885	-0.165859
H99	H	0.259259	0.391901	-0.117143
H100	H	0.396201	0.355613	0.045262
H101	H	0.303654	0.357639	0.093998
O102	O	0.547952	0.243652	-0.130796
C103	C	0.597193	0.258911	-0.015225
H104	H	0.631747	0.196964	0.022742
H105	H	0.554727	0.288556	0.069922
C106	C	0.619226	0.395294	-0.101920
C107	C	0.661672	0.319211	-0.055296
H108	H	0.658998	0.432493	-0.126634
H109	H	0.586049	0.385016	-0.179780
H110	H	0.583840	0.419988	-0.030956
H111	H	0.697049	0.294514	-0.126265
H112	H	0.694857	0.329487	0.022552
H113	H	1.102999	-0.327428	-0.138775
H114	H	1.004359	-0.314352	0.227789
H115	H	0.545773	0.228899	0.136072
H116	H	1.102817	-0.471496	-0.130046
H117	H	1.206283	-0.102476	0.369589
H118	H	1.206282	-0.102499	0.630627
H119	H	0.862229	-0.296671	-0.093457
O120	O	0.876765	0.226759	0.641740
C121	C	0.826523	0.277002	0.547394
H122	H	0.825578	0.242677	0.444826
H123	H	0.853702	0.339220	0.532104
C124	C	0.737362	0.336361	0.729520
C125	C	0.736195	0.294200	0.603547
H126	H	0.681644	0.346974	0.764159
H127	H	0.771213	0.302515	0.793084
H128	H	0.760015	0.388205	0.716762
H129	H	0.713552	0.242352	0.616310
H130	H	0.702338	0.328038	0.539986
O131	O	0.852517	-0.444013	-0.112107
C132	C	0.904200	-0.502772	-0.191531
H133	H	0.955959	-0.535880	-0.123891
H134	H	0.933753	-0.468725	-0.278809
C135	C	0.787243	-0.527565	-0.334836
C136	C	0.850811	-0.568234	-0.251757
H137	H	0.754311	-0.567943	-0.371993
H138	H	0.752424	-0.487976	-0.281331
H139	H	0.811881	-0.499194	-0.407557
H140	H	0.826173	-0.596595	-0.179029
H141	H	0.885625	-0.607830	-0.305252
H142	H	0.577538	-0.012732	-0.093288
O143	O	0.584130	-0.018843	0.111501
C144	C	0.629394	0.035204	0.189401
H145	H	0.604288	0.103384	0.166823
H146	H	0.698900	0.024129	0.160901
C147	C	0.649698	-0.066637	0.371226
C148	C	0.618857	0.017103	0.343504
H149	H	0.643202	-0.077804	0.466284
H150	H	0.619206	-0.103051	0.318742
H151	H	0.707617	-0.075856	0.347466
H152	H	0.560937	0.026318	0.367247
H153	H	0.649340	0.053519	0.395996
O154	O	0.852659	-0.445296	0.110597
C155	C	0.848150	-0.532769	0.105810
H156	H	0.901912	-0.564061	0.040240
H157	H	0.785464	-0.545358	0.058932
C158	C	0.789249	-0.530613	0.333015
C159	C	0.855285	-0.569047	0.252490
H160	H	0.793645	-0.552991	0.423493
H161	H	0.792283	-0.471680	0.336239
H162	H	0.737016	-0.541106	0.293933
H163	H	0.907515	-0.558544	0.291562
H164	H	0.852259	-0.627979	0.249276
O165	O	0.430826	-0.021993	0.112552
C166	C	0.390992	-0.091758	0.069492
H167	H	0.410878	-0.109183	-0.040276
H168	H	0.319824	-0.075092	0.073565
C169	C	0.392331	-0.145538	0.300052
C170	C	0.416760	-0.166944	0.165236
H171	H	0.408221	-0.191916	0.359114
H172	H	0.419165	-0.098535	0.329064
H173	H	0.333025	-0.131649	0.303426
H174	H	0.476066	-0.180822	0.161860
H175	H	0.389936	-0.213951	0.136226
H176	H	1.000494	-0.457671	0.228335
O177	O	1.113649	-0.477760	0.137677
C178	C	1.159537	-0.454218	0.023024
H179	H	1.128643	-0.391797	-0.019394
H180	H	1.160238	-0.504727	-0.059766
C181	C	1.288395	-0.521259	0.119014
C182	C	1.250454	-0.444589	0.066923
H183	H	1.344478	-0.515323	0.146090
H184	H	1.257479	-0.537123	0.196256
H185	H	1.288971	-0.563342	0.050014
H186	H	1.249869	-0.402510	0.135928
H187	H	1.281372	-0.428717	-0.010307
H188	H	1.102991	0.000767	0.239086
