data_functionalizedCrystal
_audit_creation_method	'MofGen! by Chris Wilmer'
_symmetry_space_group_name_H-M	'P1'
_symmetry_Int_Tables_number	1
_symmetry_cell_setting	triclinic
loop_
_symmetry_equiv_pos_as_xyz
  x,y,z
_cell_length_a	14.044202
_cell_length_b	13.101039
_cell_length_c	10.654550
_cell_angle_alpha	86.604023
_cell_angle_beta	91.161198
_cell_angle_gamma	86.337612
loop_
_atom_site_label
_atom_site_type_symbol
_atom_site_fract_x
_atom_site_fract_y
_atom_site_fract_z
O1	O	-1.264868	0.085158	0.296694
O2	O	-0.988828	0.085171	0.285748
O3	O	-1.133195	0.085160	0.109120
O4	O	-1.120502	0.085169	0.473322
O5	O	-1.122837	-0.085269	0.121816
O6	O	-0.978470	-0.085258	0.298444
O7	O	-1.254510	-0.085271	0.309390
Zn8	Zn	-1.114846	-0.112324	0.305933
Zn9	Zn	-1.128493	0.112224	0.289205
O10	O	-1.110144	-0.085261	0.486018
C11	C	-0.948303	-0.000042	0.287308
C12	C	-0.842984	-0.000036	0.273028
C13	C	-0.593191	-0.000044	0.348191
C14	C	-0.650155	-0.000045	0.246941
C15	C	-0.757455	-0.000040	0.261459
C16	C	-0.485881	-0.000049	0.333675
N17	N	-1.105539	-0.265572	0.317348
C18	C	-1.092877	-0.474613	0.332892
C19	C	-1.150466	-0.525493	0.262241
C20	C	-1.143421	-0.641811	0.270889
C21	C	-1.099921	-0.358285	0.324245
C22	C	-0.295036	-0.000056	0.307827
C23	C	-0.400356	-0.000053	0.322099
C24	C	-1.127084	-0.000053	0.068576
C25	C	-1.124296	-0.000049	-0.071147
N26	N	-1.137807	0.265472	0.277781
C27	C	-1.209296	-0.000056	-0.142087
C28	C	-1.206671	-0.000049	-0.273372
C29	C	-1.034036	-0.000032	-0.262766
C30	C	-1.036663	-0.000032	-0.131484
C31	C	-1.296929	-0.000074	-0.081751
C32	C	-1.381936	-0.000083	-0.152691
C33	C	-1.379311	-0.000075	-0.283976
C34	C	-1.291678	-0.000060	-0.344321
C35	C	-1.116255	-0.000045	0.526562
C36	C	-1.119043	-0.000042	0.666285
H37	H	-0.618342	0.000025	0.149350
C38	C	-0.636174	-0.000031	0.480016
N39	N	-0.668559	-0.000017	0.579306
C40	C	-0.943157	-0.000031	-0.053445
N41	N	-0.872727	-0.000030	0.005334
C42	C	-1.224234	-0.466327	0.171767
N43	N	-1.279798	-0.421758	0.103632
C44	C	-1.478327	-0.000099	-0.086309
N45	N	-1.550931	-0.000113	-0.036311
C46	C	-1.019124	-0.533780	0.423373
N47	N	-0.963574	-0.578356	0.491523
H48	H	-1.299076	-0.000083	0.025148
H49	H	-1.448529	-0.000072	-0.341733
C50	C	-1.288796	-0.000046	-0.488741
N51	N	-1.286625	-0.000040	-0.597516
H52	H	-0.962690	-0.000020	-0.311910
