data_functionalizedCrystal
_audit_creation_method	'MofGen! by Chris Wilmer'
_symmetry_space_group_name_H-M	'P1'
_symmetry_Int_Tables_number	1
_symmetry_cell_setting	triclinic
loop_
_symmetry_equiv_pos_as_xyz
  x,y,z
_cell_length_a	6.817900
_cell_length_b	17.982783
_cell_length_c	12.908943
_cell_angle_alpha	95.935216
_cell_angle_beta	100.860631
_cell_angle_gamma	102.448572
loop_
_atom_site_label
_atom_site_type_symbol
_atom_site_fract_x
_atom_site_fract_y
_atom_site_fract_z
V1	V	-3.991103	-0.104460	-0.329116
O2	O	-3.984603	0.005998	-0.322400
O3	O	-3.937759	-0.208067	-0.327298
O4	O	-3.929480	-0.102423	-0.472457
O5	O	-3.992940	-0.100377	-0.176236
V6	V	-4.477085	-0.091298	-0.310777
O7	O	-4.246967	-0.133330	-0.369342
O8	O	-4.671418	-0.062428	-0.270551
O9	O	-4.307223	0.012309	-0.312595
O10	O	-4.600982	-0.201756	-0.317493
O11	O	-4.592645	-0.095381	-0.463657
O12	O	-4.315502	-0.093335	-0.167436
C13	C	-3.781985	-0.233338	-0.322218
C14	C	-3.819568	-0.318036	-0.321687
C15	C	-3.806468	-0.347226	-0.224856
C16	C	-3.841802	-0.426809	-0.224361
C17	C	-3.890220	-0.477200	-0.320697
C18	C	-3.903326	-0.448006	-0.417536
C19	C	-3.868008	-0.368424	-0.418030
C20	C	-4.045766	-0.768949	-0.415544
C21	C	-4.081078	-0.848536	-0.415042
C22	C	-4.019559	-0.827334	-0.221875
C23	C	-3.984241	-0.747753	-0.222369
C24	C	-3.997360	-0.718565	-0.319207
C25	C	-3.959051	-0.632272	-0.319743
C26	C	-3.928515	-0.563492	-0.320162
C27	C	-3.771423	-0.098578	-0.507381
C28	C	-3.802290	-0.097599	-0.624566
C29	C	-4.223182	-0.103319	-0.855536
C30	C	-4.252193	-0.102399	-0.965642
C31	C	-3.889324	-0.094834	-0.954885
C32	C	-3.860313	-0.095754	-0.844779
C33	C	-4.027250	-0.099998	-0.795109
C34	C	-3.998239	-0.100923	-0.685002
C35	C	-3.635370	-0.093352	-0.674245
C36	C	-3.664381	-0.092432	-0.784351
C37	C	-4.126339	0.037576	-0.317673
C38	C	-4.067993	0.122273	-0.318210
C39	C	-4.136901	-0.097183	-0.132507
C40	C	-4.085273	-0.098158	-0.015321
H41	H	-3.767027	-0.306201	-0.146407
O42	O	-3.727292	-0.090607	-1.003245
C43	C	-3.515773	-0.018874	-1.106684
C44	C	-3.699340	-0.023576	-1.051981
H45	H	-3.493088	0.035324	-1.146081
H46	H	-3.547444	-0.071746	-1.169815
H47	H	-3.370781	-0.016696	-1.044578
H48	H	-3.844412	-0.025730	-1.114008
H49	H	-3.667492	0.029294	-0.988830
H50	H	-4.120507	-0.889564	-0.493495
H51	H	-3.475825	-0.090650	-0.625034
O52	O	-4.442631	-0.105770	-1.024330
C53	C	-4.795315	-0.178210	-1.081749
C54	C	-4.579732	-0.174498	-1.015261
H55	H	-4.906230	-0.233765	-1.074421
H56	H	-4.787523	-0.176878	-1.169004
H57	H	-4.851820	-0.126700	-1.050980
H58	H	-4.523099	-0.225999	-1.045937
H59	H	-4.587648	-0.175794	-0.928016
H60	H	-3.944807	-0.706727	-0.143922
O61	O	-3.828894	-0.455033	-0.130202
C62	C	-3.764242	-0.425608	0.061346
C63	C	-3.778746	-0.393541	-0.045216
H64	H	-3.723740	-0.375908	0.130083
H65	H	-3.639884	-0.459343	0.070527
H66	H	-3.918530	-0.465326	0.062305
H67	H	-3.624558	-0.353791	-0.046250
H68	H	-3.903204	-0.359851	-0.054355
H69	H	-3.942766	-0.489041	-0.495975
H70	H	-4.008888	-0.851108	-0.143024
O71	O	-4.160180	-0.104940	-0.636607
C72	C	-4.304427	-0.044075	-0.503999
C73	C	-4.120866	-0.039440	-0.558696
H74	H	-4.272724	0.008882	-0.441012
H75	H	-4.327097	-0.098192	-0.464424
H76	H	-4.449437	-0.046325	-0.566133
H77	H	-3.975748	-0.037160	-0.496628
H78	H	-4.098377	0.014669	-0.598293
H79	H	-3.528472	-0.088974	-0.824807
H80	H	-4.056425	-0.745194	-0.494394
O81	O	-3.880723	-0.340192	-0.512184
C82	C	-3.945601	-0.369618	-0.703738
C83	C	-3.931204	-0.401691	-0.597182
H84	H	-3.986457	-0.419325	-0.772488
H85	H	-3.791312	-0.329951	-0.704824
H86	H	-4.069842	-0.335830	-0.712786
H87	H	-3.807053	-0.435515	-0.588064
H88	H	-4.085577	-0.441317	-0.596144
H89	H	-4.359113	-0.106783	-0.815096
