data_functionalizedCrystal
_audit_creation_method	'MofGen! by Chris Wilmer'
_symmetry_space_group_name_H-M	'P1'
_symmetry_Int_Tables_number	1
_symmetry_cell_setting	triclinic
loop_
_symmetry_equiv_pos_as_xyz
  x,y,z
_cell_length_a	17.019330
_cell_length_b	14.853569
_cell_length_c	13.330367
_cell_angle_alpha	89.994190
_cell_angle_beta	93.887920
_cell_angle_gamma	96.482661
loop_
_atom_site_label
_atom_site_type_symbol
_atom_site_fract_x
_atom_site_fract_y
_atom_site_fract_z
O1	O	-1.046809	0.114918	-0.173871
O2	O	-0.546809	0.614918	0.326129
O3	O	-0.817160	0.129551	-0.154032
O4	O	-0.317160	0.629551	0.345968
O5	O	-0.938118	-0.009011	-0.164472
O6	O	-0.438118	0.490989	0.335528
O7	O	-0.925851	0.253481	-0.163431
O8	O	-0.425851	0.753481	0.336569
O9	O	-0.938101	-0.009015	0.002377
O10	O	-0.438101	0.490985	0.502377
O11	O	-0.817143	0.129548	0.012817
O12	O	-0.317143	0.629548	0.512817
O13	O	-1.046792	0.114915	-0.007023
O14	O	-0.546792	0.614915	0.492977
Cu15	Cu	-0.931965	0.122231	0.018132
Cu16	Cu	-0.431965	0.622231	0.518132
Cu17	Cu	-0.931986	0.122235	-0.179186
Cu18	Cu	-0.431986	0.622235	0.320814
O19	O	-0.925833	0.253477	0.003417
O20	O	-0.425833	0.753477	0.503417
C21	C	-0.787762	0.128992	-0.068068
C22	C	-0.287762	0.628992	0.431932
C23	C	-0.700190	0.127321	-0.060503
C24	C	-0.200190	0.627321	0.439497
C25	C	-0.204896	0.117901	-0.013152
C26	C	0.295104	0.617901	0.486848
C27	C	-0.287179	0.119471	-0.020263
C28	C	0.212821	0.619471	0.479737
C29	C	-0.328331	0.120251	-0.114769
C30	C	0.171669	0.620251	0.385231
C31	C	-0.287194	0.119470	-0.202170
C32	C	0.212806	0.619470	0.297830
C33	C	-0.204912	0.117906	-0.195058
C34	C	0.295088	0.617906	0.304942
C35	C	-0.576771	0.124977	-0.140792
C36	C	-0.076771	0.624977	0.359208
C37	C	-0.659059	0.126538	-0.147897
C38	C	-0.159059	0.626538	0.352103
C39	C	-0.659038	0.126540	0.034011
C40	C	-0.159038	0.626540	0.534011
C41	C	-0.576754	0.124972	0.041114
C42	C	-0.076754	0.624972	0.541114
C43	C	-0.535624	0.124196	-0.046286
C44	C	-0.035624	0.624196	0.453714
C45	C	-0.412438	0.121853	-0.122039
C46	C	0.087562	0.621853	0.377961
C47	C	-0.451518	0.122600	-0.039015
C48	C	0.048482	0.622600	0.460985
C49	C	-0.937553	-0.042600	-0.080999
C50	C	-0.437553	0.457400	0.419001
C51	C	-0.935887	-0.142679	-0.080854
C52	C	-0.435887	0.357321	0.419146
C53	C	-0.863254	-0.178863	-0.074578
C54	C	-0.363254	0.321137	0.425422
C55	C	-1.006955	-0.200534	-0.087003
C56	C	-0.506955	0.299466	0.412997
C57	C	-1.005392	-0.294564	-0.086872
C58	C	-0.505392	0.205436	0.413128
C59	C	-0.932759	-0.330748	-0.080595
C60	C	-0.432759	0.169252	0.419405
C61	C	-0.861688	-0.272901	-0.074450
C62	C	-0.361688	0.227099	0.425550
C63	C	-1.076461	-0.352418	-0.093028
C64	C	-0.576461	0.147582	0.406972
C65	C	-1.074901	-0.446454	-0.092899
C66	C	-0.574901	0.053546	0.407101
C67	C	-1.002266	-0.482639	-0.086615
C68	C	-0.502266	0.017361	0.413385
C69	C	-0.931193	-0.424786	-0.080468
C70	C	-0.431193	0.075214	0.419532
C71	C	-0.858560	-0.460970	-0.074191
C72	C	-0.358560	0.039030	0.425809
C73	C	-0.787485	-0.403118	-0.068036
C74	C	-0.287485	0.096882	0.431964
C75	C	-0.789054	-0.309086	-0.068166
C76	C	-0.289054	0.190914	0.431834
C77	C	-1.000698	-0.576671	-0.086486
C78	C	-0.500698	-0.076671	0.413514
C79	C	-0.856994	-0.555008	-0.074063
C80	C	-0.356994	-0.055008	0.425937
C81	C	-0.076191	0.115467	-0.092985
C82	C	0.423809	0.615467	0.407015
C83	C	-0.163765	0.117118	-0.100546
C84	C	0.336235	0.617118	0.399454
C85	C	-0.926398	0.287066	-0.080057
C86	C	-0.426398	0.787066	0.419943
C87	C	-0.928065	0.387145	-0.080209
C88	C	-0.428065	0.887145	0.419791
N89	N	-0.931957	0.122228	0.156914
N90	N	-0.431957	0.622228	0.656914
N91	N	-0.932001	0.122231	-0.317969
N92	N	-0.432001	0.622231	0.182031
C93	C	-0.878424	0.183566	0.634157
C94	C	-0.378424	0.683566	1.134157
C95	C	-0.985570	0.060896	0.624878
C96	C	-0.485570	0.560896	1.124878
C97	C	-0.985561	0.060894	0.519860
C98	C	-0.485561	0.560894	1.019860
C99	C	-0.931983	0.122229	0.471986
C100	C	-0.431983	0.622229	0.971986
C101	C	-0.878415	0.183567	0.529130
C102	C	-0.378415	0.683567	1.029130
C103	C	-1.039134	-0.000437	0.462708
C104	C	-0.539134	0.499563	0.962708
C105	C	-1.039128	-0.000442	0.357684
C106	C	-0.539128	0.499558	0.857684
C107	C	-0.985546	0.060890	0.309808
C108	C	-0.485546	0.560890	0.809808
C109	C	-0.931974	0.122230	0.366959
C110	C	-0.431974	0.622230	0.866959
C111	C	-0.878397	0.183565	0.319085
C112	C	-0.378397	0.683565	0.819085
C113	C	-0.824821	0.244901	0.376234
C114	C	-0.324821	0.744901	0.876234
C115	C	-0.824833	0.244899	0.481255
C116	C	-0.324833	0.744899	0.981255
C117	C	-0.985534	0.060893	0.204788
C118	C	-0.485534	0.560893	0.704788
C119	C	-0.878388	0.183566	0.214058
C120	C	-0.378388	0.683566	0.714058
H121	H	-0.543293	0.124342	-0.211960
H122	H	-0.043293	0.624342	0.288040
H123	H	-1.135595	-0.322950	-0.098076
H124	H	-0.635595	0.177050	0.401924
H125	H	-0.781214	0.294837	0.527792
H126	H	-0.281214	0.794837	1.027792
F127	F	-1.076335	-0.638236	-0.093045
F128	F	-0.576335	-0.138236	0.406955
H129	H	-0.781201	0.294845	0.337243
H130	H	-0.281201	0.794845	0.837243
F131	F	-0.456243	0.122673	-0.222618
F132	F	0.043757	0.622673	0.277382
F133	F	-1.042554	-0.004376	0.143972
F134	F	-0.542554	0.495624	0.643972
H135	H	-1.029195	0.010963	0.663859
H136	H	-0.529195	0.510963	1.163859
F137	F	-1.150543	-0.508015	-0.099444
F138	F	-0.650543	-0.008015	0.400556
F139	F	-0.821358	0.248845	0.163116
F140	F	-0.321358	0.748845	0.663116
F141	F	-0.821404	0.248839	0.694977
F142	F	-0.321404	0.748839	1.194977
H143	H	-1.082760	-0.050370	0.501690
H144	H	-0.582760	0.449630	1.001690
H145	H	-0.692562	0.127180	-0.224859
H146	H	-0.192562	0.627180	0.275141
F147	F	-0.787615	-0.117295	-0.068024
F148	F	-0.287615	0.382705	0.431976
F149	F	-0.779686	-0.593509	-0.067375
F150	F	-0.279686	-0.093509	0.432625
H151	H	-0.320706	0.120110	-0.279119
H152	H	0.179294	0.620110	0.220881
H153	H	-1.082751	-0.050385	0.311159
H154	H	-0.582751	0.449615	0.811159
H155	H	-0.728347	-0.432591	-0.062932
H156	H	-0.228347	0.067409	0.437068
H157	H	-0.731189	-0.261976	-0.063158
H158	H	-0.231189	0.238024	0.436842
F159	F	-0.407719	0.121776	0.061562
F160	F	0.092281	0.621776	0.561562
H161	H	-0.171395	0.117270	0.063806
H162	H	0.328605	0.617270	0.563806
H163	H	-1.066090	-0.171068	-0.092093
H164	H	-0.566090	0.328932	0.407907
H165	H	-0.543256	0.124317	0.118071
H166	H	-0.043256	0.624317	0.618071
F167	F	-0.330949	0.120309	0.072755
F168	F	0.169051	0.620309	0.572755
H169	H	-0.171424	0.117271	-0.266224
H170	H	0.328576	0.617271	0.233776
F171	F	-0.702816	0.127371	0.127023
F172	F	-0.202816	0.627371	0.627023
