data_functionalizedCrystal
_audit_creation_method	'MofGen! by Chris Wilmer'
_symmetry_space_group_name_H-M	'P1'
_symmetry_Int_Tables_number	1
_symmetry_cell_setting	triclinic
loop_
_symmetry_equiv_pos_as_xyz
  x,y,z
_cell_length_a	8.559649
_cell_length_b	14.044190
_cell_length_c	7.681481
_cell_angle_alpha	83.728840
_cell_angle_beta	94.913240
_cell_angle_gamma	81.485221
loop_
_atom_site_label
_atom_site_type_symbol
_atom_site_fract_x
_atom_site_fract_y
_atom_site_fract_z
O1	O	2.101907	-0.021858	-0.146396
O2	O	1.643609	0.026593	-0.146414
O3	O	1.865876	-0.135118	-0.146371
O4	O	1.879640	0.139853	-0.146440
O5	O	1.893228	-0.155063	0.146492
O6	O	1.670961	0.006649	0.146449
O7	O	2.129259	-0.041802	0.146467
Zn8	Zn	1.904452	-0.020743	0.192956
Zn9	Zn	1.868415	0.005534	-0.192904
O10	O	1.906991	0.119909	0.146423
C11	C	1.598278	0.020293	0.000015
C12	C	1.422456	0.031222	0.000010
C13	C	1.873529	-0.179967	0.000065
C14	C	1.855562	-0.283886	0.000080
C15	C	1.950141	-0.541053	0.000015
C16	C	1.822733	-0.474150	0.000022
C17	C	1.841003	-0.368277	0.000054
C18	C	1.931873	-0.646936	-0.000018
C19	C	2.174589	-0.035501	0.000033
C20	C	2.350410	-0.046430	0.000027
C21	C	1.899339	0.164758	-0.000017
C22	C	1.917304	0.268678	-0.000043
N23	N	1.929058	-0.038678	0.456295
N24	N	1.843821	0.023461	-0.456243
H25	H	1.349619	0.106071	-0.000018
O26	O	1.437185	-0.135720	-0.000262
C27	C	1.386792	-0.175758	-0.151904
H28	H	1.327471	-0.114934	-0.257931
H29	H	1.298379	-0.226360	-0.117600
C30	C	1.604167	-0.308006	-0.090440
C31	C	1.531320	-0.233300	-0.220669
H32	H	1.693316	-0.343505	-0.132855
H33	H	1.638115	-0.281035	0.011728
H34	H	1.530474	-0.350164	-0.061865
H35	H	1.605006	-0.191138	-0.249226
H36	H	1.497387	-0.260266	-0.322844
O37	O	2.096526	-0.514376	0.000129
C38	C	2.082404	-0.413069	0.000116
H39	H	1.967375	-0.385012	0.055543
H40	H	2.080769	-0.376779	-0.140373
C41	C	2.365855	-0.423790	0.046933
C42	C	2.224580	-0.389331	0.115023
H43	H	2.453559	-0.409145	0.117805
H44	H	2.375371	-0.492042	0.046934
H45	H	2.364470	-0.393544	-0.070141
H46	H	2.225959	-0.419585	0.232085
H47	H	2.215068	-0.321083	0.115044
O48	O	1.676290	-0.500769	-0.000223
C49	C	1.643955	-0.545607	-0.151934
H50	H	1.760458	-0.575486	-0.202514
H51	H	1.570115	-0.490086	-0.258130
C52	C	1.407912	-0.592527	-0.043754
C53	C	1.551004	-0.629232	-0.105868
H54	H	1.350570	-0.644108	-0.015344
H55	H	1.429692	-0.562316	0.058454
H56	H	1.346398	-0.546260	-0.132261
H57	H	1.612524	-0.675489	-0.017354
H58	H	1.529232	-0.659453	-0.208061
H59	H	1.756810	0.086886	0.468543
O60	O	2.032771	-0.114459	0.545830
C61	C	1.989417	-0.202382	0.500972
H62	H	1.916052	-0.188753	0.367078
H63	H	1.916115	-0.232619	0.604716
C64	C	2.230290	-0.292727	0.657147
C65	C	2.140194	-0.275989	0.492690
H66	H	2.323295	-0.338134	0.652046
H67	H	2.259497	-0.233493	0.687376
H68	H	2.169187	-0.317920	0.743583
H69	H	2.201289	-0.250786	0.406262
H70	H	2.111000	-0.335221	0.462447
