data_functionalizedCrystal
_audit_creation_method	'MofGen! by Chris Wilmer'
_symmetry_space_group_name_H-M	'P1'
_symmetry_Int_Tables_number	1
_symmetry_cell_setting	triclinic
loop_
_symmetry_equiv_pos_as_xyz
  x,y,z
_cell_length_a	12.759401
_cell_length_b	21.295417
_cell_length_c	12.759393
_cell_angle_alpha	89.961877
_cell_angle_beta	89.981433
_cell_angle_gamma	90.028746
loop_
_atom_site_label
_atom_site_type_symbol
_atom_site_fract_x
_atom_site_fract_y
_atom_site_fract_z
Zn1	Zn	1.606146	-0.250588	-0.593935
Zn2	Zn	1.605994	-0.355872	-0.418235
Zn3	Zn	1.430448	-0.250619	-0.418275
Zn4	Zn	1.430390	-0.355822	-0.593877
O5	O	1.518245	-0.303225	-0.506081
O6	O	1.753147	-0.264563	-0.570637
O7	O	1.582668	-0.341944	-0.271219
O8	O	1.453842	-0.162526	-0.441617
O9	O	1.753035	-0.341914	-0.441551
O10	O	1.582927	-0.162503	-0.570675
O11	O	1.453695	-0.264615	-0.271248
O12	O	1.283419	-0.264566	-0.441560
O13	O	1.453744	-0.341828	-0.740906
O14	O	1.283377	-0.341858	-0.570574
O15	O	1.582871	-0.264514	-0.740949
O16	O	1.582612	-0.443955	-0.441494
O17	O	1.453597	-0.443918	-0.570536
C18	C	1.245277	-0.303210	-0.506066
C19	C	1.128501	-0.303219	-0.506085
C20	C	1.073690	-0.263018	-0.573404
C21	C	0.963966	-0.263030	-0.573410
C22	C	0.963873	-0.343450	-0.438776
C23	C	1.073595	-0.343434	-0.438765
C24	C	1.073742	-0.216591	-0.651137
C25	C	0.964018	-0.216603	-0.651144
C26	C	1.518111	-0.466777	-0.506027
C27	C	1.518150	-0.536745	-0.506040
C28	C	1.585325	-0.569543	-0.573288
C29	C	1.585362	-0.635285	-0.573314
C30	C	1.518235	-0.668227	-0.506073
C31	C	1.451046	-0.635422	-0.438820
C32	C	1.451003	-0.569681	-0.438803
N33	N	1.510296	-0.771497	-0.414126
N34	N	1.510342	-0.833948	-0.414145
C35	C	1.518357	-0.866302	-0.506120
N36	N	1.526345	-0.833846	-0.598078
N37	N	1.526303	-0.771388	-0.598058
C38	C	1.518273	-0.739513	-0.506084
C39	C	1.585577	-0.970385	-0.573402
C40	C	1.585607	-1.036129	-0.573430
C41	C	1.451296	-1.036265	-0.438927
C42	C	1.451260	-0.970522	-0.438908
C43	C	1.518407	-0.937586	-0.506145
C44	C	1.792278	-0.303241	-0.506096
C45	C	1.909054	-0.303247	-0.506102
C46	C	1.518318	-0.303162	-0.780114
C47	C	1.518350	-0.303135	-0.896891
C48	C	1.518408	-0.139035	-0.506157
C49	C	1.518477	-0.069067	-0.506189
C50	C	1.585595	-0.262873	-0.951777
C51	C	1.585620	-0.262850	-1.061501
C52	C	1.451151	-0.343356	-1.061443
C53	C	1.451122	-0.343375	-0.951721
C54	C	1.663233	-0.216396	-0.951811
C55	C	1.663258	-0.216373	-1.061535
C56	C	1.518232	-0.303243	-0.233113
C57	C	1.518404	-0.303093	-0.116337
H58	H	0.919156	-0.376192	-0.383966
H59	H	1.118218	-0.376164	-0.383937
H60	H	1.396414	-0.376117	-1.106099
Br61	Br	1.359825	-0.525166	-0.347534
H62	H	0.934267	-0.229721	-0.732477
Br63	Br	1.676541	-0.679806	-0.664580
Br64	Br	1.123402	-0.135300	-0.615070
Br65	Br	0.907302	-0.139385	-0.602818
Br66	Br	1.614597	-0.139211	-1.118311
Br67	Br	1.792009	-0.245524	-0.895066
Br68	Br	1.359933	-0.680127	-0.347574
H69	H	1.639997	-0.542728	-0.628038
H70	H	1.641486	-0.167645	-0.922065
H71	H	1.107800	-0.234105	-0.728372
Br72	Br	1.676699	-0.925683	-0.664651
Br73	Br	1.798870	-0.238125	-1.111174
H74	H	1.640309	-1.062832	-0.628196
H75	H	1.396632	-1.063086	-0.384184
Br76	Br	1.360085	-0.926008	-0.347640
H77	H	1.396360	-0.376158	-0.907037
