data_functionalizedCrystal
_audit_creation_method	'MofGen! by Chris Wilmer'
_symmetry_space_group_name_H-M	'P1'
_symmetry_Int_Tables_number	1
_symmetry_cell_setting	triclinic
loop_
_symmetry_equiv_pos_as_xyz
  x,y,z
_cell_length_a	31.640172
_cell_length_b	20.919151
_cell_length_c	20.919309
_cell_angle_alpha	60.700880
_cell_angle_beta	90.005700
_cell_angle_gamma	58.213802
loop_
_atom_site_label
_atom_site_type_symbol
_atom_site_fract_x
_atom_site_fract_y
_atom_site_fract_z
Zr1	Zr	0.383621	0.731783	-0.119742
O2	O	0.314012	0.864468	-0.225209
O3	O	0.408379	0.593502	-0.082214
O4	O	0.407123	0.723697	-0.217698
O5	O	0.312369	0.742604	0.011236
O6	O	0.476680	0.723684	-0.217684
O7	O	0.315268	0.734274	-0.089725
O8	O	0.478927	0.490790	0.024672
O9	O	0.310122	0.975498	-0.231120
O10	O	0.466716	0.652442	-0.072476
O11	O	0.412643	0.658669	0.002859
O12	O	0.411164	0.811956	-0.156655
O13	O	0.357090	0.818182	-0.081320
Zr14	Zr	0.489932	0.745048	0.041302
Zr15	Zr	0.494556	0.731763	-0.119719
Zr16	Zr	0.378996	0.745069	0.041280
Zr17	Zr	0.377416	0.908863	-0.129169
Zr18	Zr	0.496136	0.567968	0.050729
O19	O	0.465174	0.883329	0.003775
O20	O	0.471749	0.864439	-0.225177
O21	O	0.307438	0.883359	0.003743
O22	O	0.559540	0.612363	0.146770
O23	O	0.566115	0.593473	-0.082182
O24	O	0.401804	0.612393	0.146737
O25	O	0.561184	0.734228	-0.089675
O26	O	0.466430	0.753135	0.139258
O27	O	0.396872	0.753148	0.139244
O28	O	0.558284	0.742558	0.011286
O29	O	0.398301	0.975482	-0.231102
O30	O	0.475251	0.501350	0.152662
O31	O	0.563430	0.501333	0.152680
O32	O	0.567106	0.490773	0.024690
O33	O	0.306447	0.986058	-0.103129
O34	O	0.394626	0.986042	-0.103111
O35	O	0.462389	0.664876	0.078216
O36	O	0.516462	0.658649	0.002880
O37	O	0.460910	0.818163	-0.081299
O38	O	0.406836	0.824389	-0.005963
C39	C	0.444537	0.516916	-0.027428
C40	C	0.447171	0.441741	-0.023426
C41	C	0.409541	0.463029	-0.080443
C42	C	0.412017	0.392405	-0.076710
C43	C	0.452122	0.300494	-0.015956
C44	C	0.489756	0.279206	0.041064
C45	C	0.487281	0.349829	0.037327
C46	C	0.461541	0.084426	-0.001730
C47	C	0.464012	0.013802	0.002004
C48	C	0.386274	0.127007	-0.115772
C49	C	0.383801	0.197626	-0.119501
C50	C	0.421436	0.176332	-0.062483
C51	C	0.454654	0.228303	-0.012137
C52	C	0.418906	0.248522	-0.066305
C53	C	0.298013	0.738442	-0.039248
C54	C	0.250918	0.738450	-0.039258
C55	C	-0.012091	0.655144	0.004736
C56	C	-0.189075	0.655128	0.004752
O57	O	-0.187301	0.584317	0.042149
N58	N	-0.240203	0.738392	-0.039189
C59	C	-0.247083	0.821666	-0.083134
O60	O	-0.294631	0.892487	-0.120502
C61	C	-0.070099	0.821681	-0.083145
C62	C	-0.018972	0.738411	-0.039206
C63	C	0.039034	0.571881	0.048672
C64	C	0.083278	0.571885	0.048664
C65	C	0.076396	0.655152	0.004721
C66	C	0.025271	0.738415	-0.039214
C67	C	-0.076980	0.904954	-0.127084
C68	C	-0.032729	0.904950	-0.127081
C69	C	0.018398	0.821681	-0.083143
C70	C	0.062633	0.821687	-0.083165
N71	N	0.113761	0.738423	-0.039223
C72	C	0.120642	0.655156	0.004720
C73	C	-0.340001	0.821652	-0.083126
C74	C	-0.384247	0.821649	-0.083125
C75	C	-0.326235	0.655111	0.004763
C76	C	-0.281989	0.655115	0.004756
C77	C	-0.288873	0.738388	-0.039185
C78	C	0.213554	0.655171	0.004700
C79	C	0.257799	0.655183	0.004685
C80	C	0.199784	0.821721	-0.083198
C81	C	0.155543	0.821709	-0.083188
C82	C	0.162432	0.738427	-0.039233
O83	O	0.060899	0.892462	-0.120536
O84	O	0.168194	0.584346	0.042096
C85	C	-0.056334	0.655139	0.004744
C86	C	-0.107459	0.738402	-0.039191
C87	C	-0.114340	0.821669	-0.083134
C88	C	-0.151705	0.738399	-0.039190
C89	C	-0.144823	0.655131	0.004753
C90	C	-0.093696	0.571867	0.048695
C91	C	-0.049453	0.571872	0.048687
C92	C	-0.165467	0.904933	-0.127075
C93	C	-0.209708	0.904922	-0.127065
C94	C	-0.202827	0.821655	-0.083122
C95	C	0.575540	0.738390	-0.039191
C96	C	0.622635	0.738381	-0.039182
C97	C	0.442560	0.721798	-0.240633
C98	C	0.444523	0.716158	-0.308991
C99	C	0.429016	0.959916	-0.051011
C100	C	0.426382	1.035091	-0.055013
C101	C	0.416449	0.796770	-0.385046
C102	C	0.418300	0.791465	-0.449272
C103	C	0.448223	0.705547	-0.437442
C104	C	0.476301	0.624928	-0.361379
C105	C	0.474453	0.630234	-0.297154
C106	C	0.455258	0.685361	-0.629161
C107	C	0.457104	0.680061	-0.693394
C108	C	0.399103	0.846599	-0.781283
C109	C	0.397255	0.851897	-0.717052
C110	C	0.425335	0.771279	-0.640995
C111	C	0.450115	0.700122	-0.503091
C112	C	0.423446	0.776704	-0.575348
C113	C	0.430992	0.755034	0.162193
C114	C	0.429029	0.760674	0.230551
C115	C	0.583300	0.516890	-0.027400
C116	C	0.633029	0.441706	-0.023388
C117	C	0.438753	0.533534	0.173985
C118	C	0.439423	0.463999	0.246345
C119	C	0.577516	0.533508	0.174013
C120	C	0.625282	0.463965	0.246383
C121	C	0.296036	0.943323	-0.252453
C122	C	0.248270	1.012867	-0.324822
C123	C	0.290252	0.959942	-0.051040
C124	C	0.240523	1.035125	-0.055051
C125	C	0.434800	0.943298	-0.252424
C126	C	0.434129	1.012833	-0.324784
C127	C	0.630416	0.403159	-0.060847
C128	C	0.677137	0.332524	-0.057093
C129	C	0.726472	0.300434	-0.015876
C130	C	0.729084	0.338989	0.021583
C131	C	0.682363	0.409626	0.017825
C132	C	0.465705	0.434585	0.319668
C133	C	0.466333	0.369260	0.387663
C134	C	0.440682	0.333345	0.382334
C135	C	0.414397	0.362765	0.309003
C136	C	0.413766	0.428094	0.241009
C137	C	0.675944	0.428056	0.241044
C138	C	0.720829	0.362722	0.309036
C139	C	0.715051	0.333292	0.382366
C140	C	0.664384	0.369208	0.387703
C141	C	0.619500	0.434546	0.319712
C142	C	0.197608	1.048784	-0.319484
C143	C	0.152722	1.114141	-0.387477
C144	C	0.158500	1.143574	-0.460807
C145	C	0.209167	1.107654	-0.466144
C146	C	0.254052	1.042304	-0.398152
C147	C	0.243137	1.073680	-0.017600
C148	C	0.196415	1.144333	-0.021372
C149	C	0.147081	1.176425	-0.062592
C150	C	0.144469	1.137867	-0.100048
C151	C	0.191190	1.067220	-0.096280
C152	C	0.459785	1.048727	-0.319430
C153	C	0.459165	1.114054	-0.387413
C154	C	0.432886	1.143490	-0.460750
C155	C	0.407229	1.107588	-0.466102
C156	C	0.407852	1.042258	-0.398120
H157	H	0.487307	0.153461	0.037329
C158	C	0.764428	0.261413	0.457154
C159	C	0.758080	0.229030	0.537820
C160	C	0.807459	0.157149	0.612605
C161	C	0.863185	0.117650	0.606724
C162	C	0.869534	0.150032	0.526054
C163	C	0.820156	0.221914	0.451269
H164	H	0.716827	0.258270	0.542177
H165	H	0.802758	0.133178	0.672322
H166	H	0.899737	0.064439	0.662084
H167	H	0.910788	0.120792	0.521697
H168	H	0.824857	0.245885	0.391553
H169	H	0.392079	0.866734	-0.394688
H170	H	0.478123	0.619716	-0.567240
H171	H	0.395440	0.857109	-0.511198
H172	H	-0.038341	0.972764	-0.162855
C173	C	0.368218	0.935275	-0.864944
C174	C	0.370247	0.929448	-0.935593
C175	C	0.339361	1.018129	-1.019257
C176	C	0.306445	1.112637	-1.032270
C177	C	0.304415	1.118468	-0.961618
C178	C	0.335301	1.029787	-0.877955
H179	H	0.394615	0.859485	-0.925962
H180	H	0.340864	1.013812	-1.071558
H181	H	0.283581	1.178284	-1.094202
H182	H	0.280047	1.188431	-0.971250
H183	H	0.333798	1.034104	-0.825654
H184	H	-0.251337	0.972735	-0.162852
H185	H	0.386957	1.013039	-0.402491
C186	C	0.378317	1.139981	-0.546777
C187	C	0.377630	1.211851	-0.621549
C188	C	0.348714	1.244251	-0.702226
C189	C	0.320486	1.204782	-0.708131
C190	C	0.321173	1.132908	-0.633357
C191	C	0.350088	1.100507	-0.552680
H192	H	0.398527	1.241072	-0.617180
H193	H	0.348206	1.297458	-0.757579
H194	H	0.299081	1.228767	-0.767853
H195	H	0.300276	1.103686	-0.637726
H196	H	0.350596	1.047301	-0.497327
H197	H	0.111471	1.143376	-0.383116
C198	C	0.658031	0.336824	0.468369
C199	C	0.630625	0.290203	0.494569
C200	C	0.624272	0.257813	0.575236
C201	C	0.645327	0.272043	0.629703
C202	C	0.672735	0.318666	0.603504
C203	C	0.679088	0.351057	0.522837
H204	H	0.615037	0.279667	0.454249
H205	H	0.603983	0.223299	0.594631
H206	H	0.640624	0.248066	0.689418
H207	H	0.688323	0.329203	0.643825
H208	H	0.699377	0.385570	0.503443
H209	H	0.492186	0.067076	0.044698
H210	H	0.578251	0.463774	0.324070
C211	C	0.109123	1.215455	-0.535595
C212	C	0.053399	1.254909	-0.529712
C213	C	0.004021	1.326787	-0.604496
C214	C	0.010367	1.359210	-0.685164
C215	C	0.066094	1.319756	-0.691051
C216	C	0.115472	1.247878	-0.616267
H217	H	0.048699	1.230907	-0.469993
H218	H	-0.037232	1.355993	-0.600138
H219	H	-0.026186	1.412419	-0.740524
H220	H	0.070793	1.343758	-0.750770
H221	H	0.156724	1.218672	-0.620625
H222	H	0.372890	0.921861	-0.726694
C223	C	0.199297	1.186728	0.019841
C224	C	0.226641	1.233558	-0.003260
C225	C	0.229525	1.275948	0.037955
C226	C	0.205066	1.271508	0.102271
C227	C	0.177720	1.224676	0.125375
C228	C	0.174836	1.182286	0.084160
H229	H	0.244749	1.236846	-0.050873
H230	H	0.249769	1.310617	0.020852
H231	H	0.207201	1.302888	0.132780
H232	H	0.159612	1.221388	0.172988
H233	H	0.154593	1.147617	0.101263
H234	H	0.192894	1.024823	-0.259780
H235	H	0.393513	0.333514	0.304675
C236	C	0.215516	1.140033	-0.546813
C237	C	0.194452	1.125796	-0.601265
C238	C	0.200799	1.158173	-0.681935
C239	C	0.228209	1.204786	-0.708153
C240	C	0.249275	1.219025	-0.653700
C241	C	0.242928	1.186648	-0.573030
H242	H	0.174160	1.091288	-0.581857
H243	H	0.185204	1.147633	-0.722244
H244	H	0.232907	1.228754	-0.767870
H245	H	0.269567	1.253533	-0.673107
H246	H	0.258523	1.197189	-0.532720
C247	C	0.095690	1.254132	-0.066726
C248	C	0.098571	1.296529	-0.025520
C249	C	0.047183	1.374232	-0.029648
C250	C	-0.007087	1.409538	-0.074982
C251	C	-0.009971	1.367141	-0.116190
C252	C	0.041418	1.289437	-0.112063
H253	H	0.138747	1.270394	0.008041
H254	H	0.049317	1.405618	0.000857
H255	H	-0.045128	1.467059	-0.078037
H256	H	-0.050146	1.393276	-0.149752
H257	H	0.039283	1.258052	-0.142568
H258	H	-0.171079	0.972741	-0.162861
H259	H	0.295302	1.013060	-0.402508
H260	H	0.764511	0.242915	-0.012821
C261	C	0.493919	0.474090	0.325543
C262	C	0.493230	0.545954	0.250764
C263	C	0.521442	0.585461	0.256646
C264	C	0.550342	0.553103	0.337309
C265	C	0.551032	0.481236	0.412095
C266	C	0.522820	0.441729	0.406212
H267	H	0.471835	0.569910	0.191047
H268	H	0.520931	0.638662	0.201285
H269	H	0.571226	0.582348	0.341664
H270	H	0.572426	0.457280	0.471811
H271	H	0.523331	0.388528	0.461573
C272	C	0.365424	0.564131	-0.147275
C273	C	0.360589	0.598031	-0.232804
C274	C	0.316473	0.699132	-0.299640
C275	C	0.277192	0.766333	-0.280946
C276	C	0.282025	0.732435	-0.195412
C277	C	0.326142	0.631334	-0.128577
H278	H	0.389669	0.548283	-0.246646
H279	H	0.312895	0.724226	-0.362957
H280	H	0.244534	0.841175	-0.330421
H281	H	0.252946	0.782183	-0.181570
H282	H	0.329720	0.606240	-0.065260
H283	H	0.283303	1.047556	0.015970
C284	C	0.776558	0.323217	0.303152
C285	C	0.817220	0.219133	0.342183
C286	C	0.872947	0.179631	0.336296
C287	C	0.888012	0.244213	0.291378
C288	C	0.847349	0.348304	0.252344
C289	C	0.791622	0.387806	0.258231
H290	H	0.806069	0.171320	0.375437
H291	H	0.903049	0.102576	0.365192
H292	H	0.929265	0.214971	0.287020
H293	H	0.858500	0.396117	0.219090
H294	H	0.761521	0.464861	0.229334
H295	H	0.675000	0.301141	-0.087597
C296	C	0.090197	1.173168	-0.145377
C297	C	0.050409	1.274743	-0.214866
C298	C	-0.003864	1.310041	-0.260187
C299	C	-0.018349	1.243762	-0.236021
C300	C	0.021441	1.142180	-0.166529
C301	C	0.075714	1.106883	-0.121207
H302	H	0.061130	1.323812	-0.232758
H303	H	-0.033319	1.385239	-0.311630
H304	H	-0.058525	1.269892	-0.269571
H305	H	0.010719	1.093112	-0.148636
H306	H	0.105168	1.031685	-0.069764
C307	C	0.339686	0.298726	-0.186338
C308	C	0.354183	0.359762	-0.242565
C309	C	0.310067	0.460862	-0.309402
C310	C	0.251454	0.500927	-0.320013
C311	C	0.236954	0.439890	-0.263783
C312	C	0.281070	0.338790	-0.196946
H313	H	0.397575	0.330104	-0.234712
H314	H	0.320801	0.506045	-0.351027
H315	H	0.218796	0.575767	-0.369490
H316	H	0.193562	0.469548	-0.271636
H317	H	0.270336	0.293608	-0.155322
H318	H	0.487739	0.345314	0.447365
H319	H	0.189054	1.035831	-0.126775
H320	H	0.500668	0.554971	-0.351751
H321	H	0.381375	0.409747	-0.123140
C322	C	0.488701	1.016350	-0.238764
C323	C	0.516927	1.055835	-0.232890
C324	C	0.545848	1.023457	-0.152227
C325	C	0.546543	0.951594	-0.077438
C326	C	0.518316	0.912104	-0.083309
C327	C	0.489395	0.944482	-0.163972
H328	H	0.516413	1.109037	-0.288256
H329	H	0.566743	1.052690	-0.147881
H330	H	0.567952	0.927626	-0.017726
H331	H	0.518830	0.858903	-0.027943
H332	H	0.468500	0.915249	-0.168318
C333	C	0.505335	0.541559	-0.213490
C334	C	0.538249	0.447049	-0.200473
C335	C	0.569135	0.358371	-0.116808
C336	C	0.567106	0.364203	-0.046161
C337	C	0.534190	0.458716	-0.059176
C338	C	0.503304	0.547394	-0.142841
H339	H	0.539752	0.442728	-0.252772
H340	H	0.593501	0.288406	-0.107174
H341	H	0.589969	0.298558	0.015773
H342	H	0.532687	0.463037	-0.006877
H343	H	0.478938	0.617360	-0.152475
C344	C	0.006785	0.480274	0.097024
C345	C	0.043664	0.461738	0.162097
C346	C	0.099899	0.370134	0.210438
C347	C	0.119256	0.297067	0.193706
C348	C	0.082376	0.315601	0.128631
C349	C	0.026140	0.407204	0.080290
H350	H	0.029335	0.515828	0.174486
H351	H	0.127200	0.356415	0.258612
H352	H	0.160885	0.229257	0.229491
H353	H	0.096704	0.261510	0.116242
H354	H	-0.001160	0.420924	0.032116
H355	H	0.480058	1.143279	-0.383039
C356	C	-0.225751	0.563518	0.053094
C357	C	-0.206390	0.490451	0.036361
C358	C	-0.150154	0.398851	0.084702
C359	C	-0.113278	0.380317	0.149777
C360	C	-0.132638	0.453386	0.166514
C361	C	-0.188875	0.544987	0.118172
H362	H	-0.233689	0.504169	-0.011814
H363	H	-0.135822	0.344760	0.072313
H364	H	-0.071648	0.312509	0.185563
H365	H	-0.105340	0.439668	0.214689
H366	H	-0.203206	0.599077	0.130562
H367	H	0.590250	0.429284	-0.094419
H368	H	0.474478	0.630167	-0.493466
H369	H	0.355634	0.144334	-0.162193
H370	H	0.769258	0.312850	0.055141
H371	H	0.496671	-0.061039	0.051481
H372	H	0.522412	0.204365	0.090528
C373	C	0.099304	0.913309	-0.131531
C374	C	0.059390	0.940596	-0.090634
C375	C	0.003155	1.032201	-0.138974
C376	C	-0.013166	1.096519	-0.228212
C377	C	0.026748	1.069233	-0.269114
C378	C	0.082984	0.977629	-0.220773
H379	H	0.071472	0.892983	-0.024570
H380	H	-0.026392	1.052399	-0.108695
H381	H	-0.054795	1.164330	-0.263996
H382	H	0.014667	1.116847	-0.335177
H383	H	0.112531	0.957431	-0.251052
H384	H	0.517923	0.332489	0.083757
H385	H	-0.320639	0.587311	0.040538
H386	H	0.386255	0.323358	-0.115773
H387	H	0.299429	0.587372	0.040468
H388	H	0.441199	0.280151	0.437705
H389	H	0.219171	0.587355	0.040493
H390	H	0.432382	1.196687	-0.516099
H391	H	0.481470	0.610093	-0.683752
C392	C	0.685243	0.452013	0.059044
C393	C	0.739512	0.416701	0.104387
C394	C	0.742397	0.459082	0.145610
C395	C	0.691012	0.536777	0.141491
C396	C	0.636739	0.572094	0.096147
C397	C	0.633854	0.529712	0.054923
H398	H	0.777554	0.359183	0.107437
H399	H	0.782574	0.432938	0.179177
H400	H	0.693148	0.568150	0.172008
H401	H	0.598698	0.629611	0.093096
H402	H	0.593678	0.555856	0.021357
C403	C	0.384859	0.460437	0.160355
C404	C	0.356648	0.420921	0.154503
C405	C	0.327739	0.453261	0.073850
C406	C	0.327040	0.525117	-0.000950
C407	C	0.355252	0.564638	0.004899
C408	C	0.384161	0.532297	0.085552
H409	H	0.357165	0.367725	0.209877
H410	H	0.306855	0.424006	0.069520
H411	H	0.305639	0.549058	-0.060654
H412	H	0.354735	0.617833	-0.050475
H413	H	0.405045	0.561553	0.089882
H414	H	0.044646	0.504071	0.084459
C415	C	-0.347581	0.913262	-0.131472
C416	C	-0.376076	0.977574	-0.220708
C417	C	-0.383660	1.069184	-0.269059
C418	C	-0.362748	1.096482	-0.228173
C419	C	-0.334250	1.032168	-0.138932
C420	C	-0.326667	0.940558	-0.090582
H421	H	-0.391558	0.957368	-0.250979
H422	H	-0.404755	1.116793	-0.335121
H423	H	-0.368361	1.164297	-0.263964
H424	H	-0.318768	1.052374	-0.108661
H425	H	-0.305571	0.892948	-0.024519
H426	H	0.124904	0.504078	0.084440
H427	H	0.680658	0.452007	0.181341
H428	H	-0.425873	0.889455	-0.118913
H429	H	0.399085	0.846659	-0.584977
H430	H	0.194190	0.889514	-0.118978
C431	C	-0.133211	0.996560	-0.175411
C432	C	-0.170103	1.015132	-0.240496
C433	C	-0.226334	1.106748	-0.288823
C434	C	-0.245674	1.179792	-0.272067
C435	C	-0.208781	1.161222	-0.206979
C436	C	-0.152550	1.069606	-0.158651
H437	H	-0.155787	0.961059	-0.252902
H438	H	-0.253644	1.120494	-0.337005
H439	H	-0.287299	1.247611	-0.307842
H440	H	-0.223097	1.215295	-0.194572
H441	H	-0.125240	1.055860	-0.110469
H442	H	-0.088100	0.504068	0.084470
