data_functionalizedCrystal
_audit_creation_method	'MofGen! by Chris Wilmer'
_symmetry_space_group_name_H-M	'P1'
_symmetry_Int_Tables_number	1
_symmetry_cell_setting	triclinic
loop_
_symmetry_equiv_pos_as_xyz
  x,y,z
_cell_length_a	19.805407
_cell_length_b	19.805405
_cell_length_c	19.805398
_cell_angle_alpha	90.030326
_cell_angle_beta	90.013121
_cell_angle_gamma	90.026410
loop_
_atom_site_label
_atom_site_type_symbol
_atom_site_fract_x
_atom_site_fract_y
_atom_site_fract_z
Zn1	Zn	1.034693	-0.269472	0.382712
Zn2	Zn	1.368026	0.063861	0.716045
Zn3	Zn	1.701359	0.397195	1.049378
Zn4	Zn	1.034620	-0.382662	0.269520
Zn5	Zn	1.367953	-0.049329	0.602853
Zn6	Zn	1.701287	0.284004	0.936187
Zn7	Zn	0.921520	-0.269493	0.269536
Zn8	Zn	1.254853	0.063841	0.602869
Zn9	Zn	1.588187	0.397174	0.936203
Zn10	Zn	0.921471	-0.382624	0.382667
Zn11	Zn	1.254804	-0.049291	0.716000
Zn12	Zn	1.588137	0.284042	1.049333
O13	O	0.978076	-0.326063	0.326109
O14	O	1.311409	0.007270	0.659442
O15	O	1.644743	0.340604	0.992775
O16	O	1.129400	-0.284494	0.367708
O17	O	1.462733	0.048839	0.701042
O18	O	1.796066	0.382172	1.034375
O19	O	1.019607	-0.367675	0.174805
O20	O	1.352941	-0.034341	0.508139
O21	O	1.686274	0.298992	0.841472
O22	O	0.936583	-0.174773	0.284575
O23	O	1.269917	0.158560	0.617908
O24	O	1.603250	0.491893	0.951241
O25	O	1.129346	-0.367655	0.284547
O26	O	1.462680	-0.034321	0.617880
O27	O	1.796013	0.299012	0.951214
O28	O	1.019731	-0.174758	0.367724
O29	O	1.353064	0.158575	0.701058
O30	O	1.686398	0.491908	1.034391
O31	O	0.936513	-0.284529	0.174817
O32	O	1.269847	0.048804	0.508151
O33	O	1.603180	0.382137	0.841484
O34	O	0.826797	-0.284493	0.284531
O35	O	1.160130	0.048841	0.617864
O36	O	1.493464	0.382174	0.951198
O37	O	0.936500	-0.367590	0.477389
O38	O	1.269833	-0.034257	0.810723
O39	O	1.603166	0.299077	1.144056
O40	O	0.826761	-0.367610	0.367648
O41	O	1.160094	-0.034277	0.700981
O42	O	1.493427	0.299057	1.034314
O43	O	1.019683	-0.284457	0.477422
O44	O	1.353016	0.048876	0.810756
O45	O	1.686350	0.382209	1.144089
O46	O	1.019560	-0.477374	0.284503
O47	O	1.352893	-0.144041	0.617837
O48	O	1.686226	0.189293	0.951170
O49	O	0.936429	-0.477346	0.367632
O50	O	1.269763	-0.144013	0.700965
O51	O	1.603096	0.189321	1.034299
C52	C	0.802220	-0.326050	0.326087
C53	C	1.135553	0.007283	0.659420
C54	C	1.468887	0.340617	0.992753
C55	C	0.726988	-0.326061	0.326093
C56	C	1.060321	0.007273	0.659427
C57	C	1.393655	0.340606	0.992760
C58	C	0.978000	-0.501919	0.326076
C59	C	1.311333	-0.168586	0.659409
C60	C	1.644666	0.164748	0.992742
C61	C	0.978029	-0.577151	0.326084
C62	C	1.311362	-0.243818	0.659418
C63	C	1.644696	0.089516	0.992751
C64	C	0.691643	-0.369405	0.369302
C65	C	1.024976	-0.036072	0.702635
C66	C	1.358309	0.297262	1.035969
C67	C	0.620954	-0.369406	0.369312
C68	C	0.954287	-0.036073	0.702645
C69	C	1.287621	0.297260	1.035978
C70	C	0.585612	-0.326066	0.326109
C71	C	0.918946	0.007267	0.659442
C72	C	1.252279	0.340601	0.992775
C73	C	0.620962	-0.282717	0.282898
C74	C	0.954296	0.050616	0.616231
C75	C	1.287629	0.383950	0.949565
C76	C	0.691650	-0.282713	0.282892
C77	C	1.024983	0.050621	0.616226
C78	C	1.358316	0.383954	0.949559
C79	C	0.335889	-0.282732	0.282920
C80	C	0.669223	0.050602	0.616254
C81	C	1.002556	0.383935	0.949587
C82	C	0.265197	-0.282741	0.282928
C83	C	0.598530	0.050593	0.616261
C84	C	0.931864	0.383926	0.949594
C85	C	0.265194	-0.369425	0.369340
C86	C	0.598527	-0.036092	0.702673
C87	C	0.931860	0.297241	1.036006
C88	C	0.335881	-0.369421	0.369334
C89	C	0.669214	-0.036088	0.702667
C90	C	1.002548	0.297245	1.036001
C91	C	0.371225	-0.326070	0.326126
C92	C	0.704558	0.007263	0.659460
C93	C	1.037892	0.340597	0.992793
C94	C	0.447873	-0.326068	0.326117
C95	C	0.781207	0.007265	0.659451
C96	C	1.114540	0.340598	0.992784
C97	C	0.508965	-0.326071	0.326114
C98	C	0.842298	0.007263	0.659447
C99	C	1.175632	0.340596	0.992780
C100	C	1.021357	-0.612487	0.282845
C101	C	1.354690	-0.279154	0.616178
C102	C	1.688024	0.054180	0.949511
C103	C	1.021386	-0.683176	0.282860
C104	C	1.354719	-0.349842	0.616193
C105	C	1.688052	-0.016509	0.949526
C106	C	0.978083	-0.718526	0.326111
C107	C	1.311416	-0.385193	0.659445
C108	C	1.644749	-0.051860	0.992778
C109	C	0.934753	-0.683185	0.369356
C110	C	1.268086	-0.349852	0.702689
C111	C	1.601419	-0.016519	1.036023
C112	C	0.934728	-0.612498	0.369344
C113	C	1.268061	-0.279165	0.702677
C114	C	1.601395	0.054168	1.036010
C115	C	0.934853	-0.968259	0.369406
C116	C	1.268186	-0.634925	0.702739
C117	C	1.601519	-0.301592	1.036073
C118	C	0.934879	-1.038951	0.369413
C119	C	1.268213	-0.705617	0.702747
C120	C	1.601546	-0.372284	1.036080
C121	C	1.021510	-1.038936	0.282922
C122	C	1.354844	-0.705603	0.616255
C123	C	1.688177	-0.372269	0.949589
C124	C	1.021486	-0.968249	0.282910
C125	C	1.354819	-0.634915	0.616243
C126	C	1.688152	-0.301582	0.949577
C127	C	0.978159	-0.932914	0.326157
C128	C	1.311492	-0.599580	0.659490
C129	C	1.644825	-0.266247	0.992823
C130	C	0.978129	-0.856265	0.326141
C131	C	1.311462	-0.522932	0.659474
C132	C	1.644795	-0.189599	0.992807
C133	C	0.978108	-0.795174	0.326124
C134	C	1.311442	-0.461840	0.659458
C135	C	1.644775	-0.128507	0.992791
C136	C	1.154619	-0.326076	0.326131
C137	C	1.487952	0.007257	0.659464
C138	C	1.821285	0.340590	0.992798
C139	C	1.229851	-0.326082	0.326140
C140	C	1.563184	0.007251	0.659474
C141	C	1.896517	0.340585	0.992807
C142	C	0.978094	-0.326017	0.502651
C143	C	1.311427	0.007316	0.835985
C144	C	1.644761	0.340650	1.169318
C145	C	0.978102	-0.325998	0.577883
C146	C	1.311435	0.007336	0.911217
C147	C	1.644768	0.340669	1.244550
C148	C	0.978171	-0.149520	0.326156
C149	C	1.311504	0.183813	0.659490
C150	C	1.644837	0.517147	0.992823
C151	C	0.978211	-0.074288	0.326177
C152	C	1.311545	0.259045	0.659510
C153	C	1.644878	0.592379	0.992843
C154	C	0.978097	-0.326060	0.150253
C155	C	1.311430	0.007274	0.483586
C156	C	1.644763	0.340607	0.816919
C157	C	0.978220	-0.325889	0.075021
C158	C	1.311554	0.007445	0.408354
C159	C	1.644887	0.340778	0.741688
C160	C	1.021476	-0.369184	1.039666
C161	C	1.354809	-0.035850	1.372999
C162	C	1.688142	0.297483	1.706333
C163	C	1.021457	-0.369202	0.968978
C164	C	1.354790	-0.035869	1.302311
C165	C	1.688123	0.297465	1.635644
C166	C	0.978186	-0.325921	0.933645
C167	C	1.311519	0.007412	1.266979
C168	C	1.644852	0.340745	1.600312
C169	C	0.934926	-0.282624	0.969005
C170	C	1.268259	0.050709	1.302339
C171	C	1.601592	0.384043	1.635672
C172	C	0.934941	-0.282610	1.039692
C173	C	1.268275	0.050724	1.373026
C174	C	1.601608	0.384057	1.706359
C175	C	0.934860	-0.282682	0.683932
C176	C	1.268194	0.050651	1.017265
C177	C	1.601527	0.383985	1.350598
C178	C	0.934849	-0.282698	0.613240
C179	C	1.268183	0.050635	0.946573
C180	C	1.601516	0.383968	1.279906
C181	C	1.021376	-0.369275	0.613217
C182	C	1.354709	-0.035941	0.946550
C183	C	1.688042	0.297392	1.279884
C184	C	1.021391	-0.369260	0.683904
C185	C	1.354725	-0.035927	1.017237
C186	C	1.688058	0.297407	1.350571
C187	C	0.978129	-0.325966	0.719258
C188	C	1.311463	0.007368	1.052591
C189	C	1.644796	0.340701	1.385924
C190	C	0.978149	-0.325947	0.795906
C191	C	1.311482	0.007386	1.129240
C192	C	1.644816	0.340719	1.462573
C193	C	0.978169	-0.325936	0.856998
C194	C	1.311502	0.007397	1.190331
C195	C	1.644835	0.340731	1.523665
H196	H	0.720413	-0.404700	0.404481
H197	H	1.053746	-0.071367	0.737814
H198	H	1.387080	0.261967	1.071148
H199	H	0.899632	-0.247430	0.712708
H200	H	1.232966	0.085903	1.046042
H201	H	1.566299	0.419236	1.379375
H202	H	0.899690	-0.247387	0.940232
H203	H	1.233024	0.085946	1.273565
H204	H	1.566357	0.419279	1.606899
Br205	Br	0.739619	-0.223882	0.224253
Br206	Br	1.072953	0.109451	0.557587
Br207	Br	1.406286	0.442784	0.890920
Br208	Br	1.080123	-0.564518	0.224136
Br209	Br	1.413456	-0.231184	0.557470
Br210	Br	1.746789	0.102149	0.890803
Br211	Br	0.876238	-0.223847	1.087675
Br212	Br	1.209571	0.109486	1.421009
Br213	Br	1.542904	0.442819	1.754342
H214	H	1.056667	-0.711943	0.247649
H215	H	1.390001	-0.378610	0.580983
H216	H	1.723334	-0.045277	0.914316
Br217	Br	0.876052	-0.920313	0.428098
Br218	Br	1.209385	-0.586979	0.761432
Br219	Br	1.542718	-0.253646	1.094765
Br220	Br	0.572999	-0.223891	0.224271
Br221	Br	0.906333	0.109443	0.557604
Br222	Br	1.239666	0.442776	0.890937
Br223	Br	0.572988	-0.428232	0.427956
Br224	Br	0.906321	-0.094898	0.761290
Br225	Br	1.239655	0.238435	1.094623
Br226	Br	1.080210	-0.427920	1.087610
Br227	Br	1.413543	-0.094586	1.420943
Br228	Br	1.746877	0.238747	1.754277
Br229	Br	0.383841	-0.428246	0.427965
Br230	Br	0.717175	-0.094913	0.761298
Br231	Br	1.050508	0.238420	1.094631
H232	H	0.236408	-0.404722	0.404524
H233	H	0.569741	-0.071388	0.737857
H234	H	0.903075	0.261945	1.071191
H235	H	1.056600	-0.404529	0.584423
H236	H	1.389933	-0.071196	0.917757
H237	H	1.723266	0.262138	1.251090
Br238	Br	0.217233	-0.223918	0.224291
Br239	Br	0.550566	0.109415	0.557624
Br240	Br	0.883900	0.442749	0.890957
H241	H	0.899610	-0.247452	0.584474
H242	H	1.232944	0.085881	0.917807
H243	H	1.566277	0.419215	1.251141
Br244	Br	1.080255	-0.920276	0.224208
Br245	Br	1.413588	-0.586943	0.557541
Br246	Br	1.746922	-0.253609	0.890875
Br247	Br	1.080315	-1.086894	0.224231
Br248	Br	1.413648	-0.753561	0.557564
Br249	Br	1.746982	-0.420228	0.890898
H250	H	0.899617	-1.067731	0.404639
H251	H	1.232951	-0.734398	0.737972
H252	H	1.566284	-0.401065	1.071306
H253	H	0.899497	-0.711974	0.404575
H254	H	1.232831	-0.378640	0.737908
H255	H	1.566164	-0.045307	1.071242
Br256	Br	0.383847	-0.223894	0.224285
Br257	Br	0.717181	0.109439	0.557618
Br258	Br	1.050514	0.442773	0.890952
Br259	Br	0.875928	-0.564541	0.428033
Br260	Br	1.209261	-0.231208	0.761366
Br261	Br	1.542594	0.102126	1.094700
H262	H	1.056671	-0.404466	0.940195
H263	H	1.390005	-0.071132	1.273528
H264	H	1.723338	0.262201	1.606861
Br265	Br	1.080121	-0.427998	0.731852
Br266	Br	1.413454	-0.094665	1.065185
Br267	Br	1.746787	0.238668	1.398518
