data_functionalizedCrystal
_audit_creation_method	'MofGen! by Chris Wilmer'
_symmetry_space_group_name_H-M	'P1'
_symmetry_Int_Tables_number	1
_symmetry_cell_setting	triclinic
loop_
_symmetry_equiv_pos_as_xyz
  x,y,z
_cell_length_a	16.120530
_cell_length_b	18.050589
_cell_length_c	16.120297
_cell_angle_alpha	87.124343
_cell_angle_beta	89.871860
_cell_angle_gamma	87.123928
loop_
_atom_site_label
_atom_site_type_symbol
_atom_site_fract_x
_atom_site_fract_y
_atom_site_fract_z
Zn1	Zn	1.247404	-0.376248	0.534587
Zn2	Zn	1.254344	-0.494473	0.395537
Zn3	Zn	1.115396	-0.363698	0.388504
Zn4	Zn	1.108300	-0.493789	0.527506
O5	O	1.181361	-0.432052	0.461533
O6	O	1.364691	-0.397469	0.522048
O7	O	1.241786	-0.472159	0.278238
O8	O	1.132972	-0.261442	0.407903
O9	O	1.369789	-0.484328	0.419888
O10	O	1.229959	-0.270662	0.515230
O11	O	1.139701	-0.376080	0.273071
O12	O	0.998089	-0.375417	0.401037
O13	O	1.120879	-0.483162	0.644811
O14	O	0.992876	-0.470994	0.503160
O15	O	1.223078	-0.396806	0.650014
O16	O	1.234906	-0.598303	0.413022
O17	O	1.127608	-0.597800	0.509979
C18	C	0.965310	-0.421770	0.450568
C19	C	0.872881	-0.417390	0.445896
C20	C	0.703653	-0.409376	0.437374
C21	C	0.659907	-0.454785	0.485754
C22	C	0.565742	-0.450326	0.481012
C23	C	0.797826	-0.413834	0.442115
C24	C	1.181261	-0.624999	0.461515
C25	C	1.181293	-0.707547	0.461538
C26	C	1.123001	-0.906753	0.514247
C27	C	1.106578	-0.951975	0.437341
C28	C	1.181375	-0.858682	0.461553
C29	C	1.197838	-0.960544	0.538470
C30	C	1.181451	-1.004671	0.461574
C31	C	1.164914	-0.902813	0.384605
C32	C	1.256207	-0.911381	0.485787
C33	C	1.239815	-0.956580	0.408830
C34	C	1.181328	-0.774581	0.461542
C35	C	1.181498	-1.088770	0.461577
C36	C	1.398256	-0.442375	0.472543
C37	C	1.490683	-0.446774	0.477234
C38	C	1.170413	-0.441308	0.678428
C39	C	1.165748	-0.445252	0.770856
C40	C	1.181483	-0.238354	0.461572
C41	C	1.181535	-0.155811	0.461588
C42	C	1.192314	-0.422781	0.245485
C43	C	1.197141	-0.418635	0.153066
C44	C	1.157199	-0.452435	0.940081
C45	C	1.205687	-0.411454	0.983846
C46	C	1.200930	-0.415451	1.078009
C47	C	1.161955	-0.448439	0.845910
H48	H	0.670386	-0.367156	0.392397
O49	O	1.259359	-0.365962	0.944097
C50	C	1.214529	-0.313639	0.891468
H51	H	1.152138	-0.336298	0.875342
H52	H	1.203764	-0.259566	0.924428
C53	C	1.341009	-0.271087	0.831044
C54	C	1.264382	-0.298920	0.811233
H55	H	1.371762	-0.262005	0.781552
H56	H	1.371213	-0.306336	0.866503
H57	H	1.332027	-0.226030	0.858512
H58	H	1.273365	-0.343981	0.783775
H59	H	1.234181	-0.263678	0.775767
H60	H	1.112120	-0.490519	0.973329
O61	O	1.064145	-0.880624	0.567426
C62	C	1.102341	-0.842129	0.629775
H63	H	1.170326	-0.862247	0.635854
H64	H	1.098290	-0.780044	0.612425
C65	C	0.974199	-0.832063	0.705640
C66	C	1.057698	-0.856776	0.713111
H67	H	0.946660	-0.841094	0.757045
H68	H	0.948464	-0.857995	0.663633
H69	H	0.970835	-0.780326	0.691178
H70	H	1.061062	-0.908513	0.727562
H71	H	1.083432	-0.830853	0.755122
O72	O	1.031065	-0.973395	0.413026
C73	C	0.969656	-0.948002	0.468720
H74	H	0.999611	-0.938255	0.530971
H75	H	0.938620	-0.893772	0.442319
C76	C	0.867247	-1.018661	0.404674
C77	C	0.904037	-1.006695	0.481134
H78	H	0.826767	-1.054863	0.412329
H79	H	0.908618	-1.035766	0.367149
H80	H	0.841390	-0.973464	0.382680
H81	H	0.929901	-1.051889	0.503121
H82	H	0.862668	-0.989598	0.518663
H83	H	0.693175	-0.497008	0.530735
O84	O	1.148221	-0.872713	0.307045
C85	C	1.148367	-0.794655	0.307973
H86	H	1.135710	-0.776589	0.373756
H87	H	1.211512	-0.775351	0.286464
C88	C	1.095872	-0.782061	0.168384
C89	C	1.080319	-0.759870	0.249179
H90	H	1.053899	-0.760602	0.132115
H91	H	1.095776	-0.834649	0.167757
H92	H	1.148494	-0.765973	0.150472
H93	H	1.027703	-0.775967	0.267094
H94	H	1.080405	-0.707283	0.249808
O95	O	1.298661	-0.982470	0.355502
C96	C	1.281041	-0.952749	0.274541
H97	H	1.212126	-0.935671	0.269400
H98	H	1.319288	-0.902093	0.261023
C99	C	1.387861	-1.032757	0.217623
C100	C	1.303217	-1.011787	0.211307
H101	H	1.401544	-1.069173	0.178616
H102	H	1.399735	-1.052779	0.272168
H103	H	1.419724	-0.990538	0.206360
H104	H	1.271356	-1.054004	0.222580
H105	H	1.291338	-0.991774	0.156762
H106	H	1.319438	-0.893389	0.506301
H107	H	1.211733	-0.985762	0.603509
