data_functionalizedCrystal
_audit_creation_method	'MofGen! by Chris Wilmer'
_symmetry_space_group_name_H-M	'P1'
_symmetry_Int_Tables_number	1
_symmetry_cell_setting	triclinic
loop_
_symmetry_equiv_pos_as_xyz
  x,y,z
_cell_length_a	14.044220
_cell_length_b	12.503552
_cell_length_c	14.044220
_cell_angle_alpha	93.839943
_cell_angle_beta	86.811122
_cell_angle_gamma	93.839891
loop_
_atom_site_label
_atom_site_type_symbol
_atom_site_fract_x
_atom_site_fract_y
_atom_site_fract_z
O1	O	1.282207	0.089210	-0.225121
O2	O	1.532207	0.339210	0.024879
O3	O	1.782207	0.589210	0.274879
O4	O	2.032207	0.839210	0.524879
O5	O	1.005537	0.089237	-0.216814
O6	O	1.255537	0.339237	0.033186
O7	O	1.505537	0.589237	0.283186
O8	O	1.755537	0.839237	0.533186
O9	O	1.139718	0.089214	-0.082632
O10	O	1.389718	0.339214	0.167368
O11	O	1.639718	0.589214	0.417368
O12	O	1.889718	0.839214	0.667368
O13	O	1.148025	0.089234	-0.359303
O14	O	1.398025	0.339234	-0.109303
O15	O	1.648025	0.589234	0.140697
O16	O	1.898025	0.839234	0.390697
O17	O	1.129615	-0.089427	-0.092732
O18	O	1.379615	0.160573	0.157268
O19	O	1.629615	0.410573	0.407268
O20	O	1.879615	0.660573	0.657268
O21	O	0.995434	-0.089403	-0.226914
O22	O	1.245434	0.160597	0.023086
O23	O	1.495434	0.410597	0.273086
O24	O	1.745434	0.660597	0.523086
O25	O	1.272104	-0.089430	-0.235221
O26	O	1.522104	0.160570	0.014779
O27	O	1.772104	0.410570	0.264779
O28	O	2.022104	0.660570	0.514779
Cu29	Cu	1.132846	-0.105728	-0.231989
Cu30	Cu	1.382846	0.144272	0.018011
Cu31	Cu	1.632846	0.394272	0.268011
Cu32	Cu	1.882846	0.644272	0.518011
Cu33	Cu	1.144794	0.105535	-0.220045
Cu34	Cu	1.394794	0.355535	0.029955
Cu35	Cu	1.644794	0.605535	0.279955
Cu36	Cu	1.894794	0.855535	0.529955
O37	O	1.137922	-0.089407	-0.369402
O38	O	1.387922	0.160593	-0.119402
O39	O	1.637922	0.410593	0.130598
O40	O	1.887922	0.660593	0.380598
C41	C	0.964864	-0.000080	-0.218228
C42	C	1.214864	0.249920	0.031772
C43	C	1.464864	0.499920	0.281772
C44	C	1.714864	0.749920	0.531772
C45	C	0.858721	-0.000070	-0.207383
C46	C	1.108721	0.249930	0.042617
C47	C	1.358721	0.499930	0.292617
C48	C	1.608721	0.749930	0.542617
N49	N	1.124449	-0.254319	-0.240390
N50	N	1.374449	-0.004319	0.009610
N51	N	1.624449	0.245681	0.259610
N52	N	1.874449	0.495681	0.509610
C53	C	0.664382	-0.000092	-0.187558
C54	C	0.914382	0.249908	0.062442
C55	C	1.164382	0.499908	0.312442
C56	C	1.414382	0.749908	0.562442
C57	C	0.613253	-0.000091	-0.264472
C58	C	0.863253	0.249909	-0.014472
C59	C	1.113253	0.499909	0.235528
C60	C	1.363253	0.749909	0.485528
C61	C	0.505116	-0.000104	-0.253441
C62	C	0.755116	0.249896	-0.003441
C63	C	1.005116	0.499896	0.246559
C64	C	1.255116	0.749896	0.496559
C65	C	0.772529	-0.000080	-0.198587
C66	C	1.022529	0.249920	0.051413
C67	C	1.272529	0.499920	0.301413
C68	C	1.522529	0.749920	0.551413
C69	C	1.165545	-0.526760	-0.199276
C70	C	1.415545	-0.276760	0.050724
C71	C	1.665545	-0.026760	0.300724
C72	C	1.915545	0.223240	0.550724
C73	C	1.112106	-0.473426	-0.252749
C74	C	1.362106	-0.223426	-0.002749
C75	C	1.612106	0.026574	0.247251
C76	C	1.862106	0.276574	0.497251
C77	C	1.118975	-0.351504	-0.245871
C78	C	1.368975	-0.101504	0.004129
C79	C	1.618975	0.148496	0.254129
C80	C	1.868975	0.398496	0.504129
C81	C	1.158676	-0.648693	-0.206153
C82	C	1.408676	-0.398693	0.043847
C83	C	1.658676	-0.148693	0.293847
C84	C	1.908676	0.101307	0.543847
C85	C	1.312777	-0.000111	-0.233807
C86	C	1.562777	0.249889	0.016193
C87	C	1.812777	0.499889	0.266193
C88	C	2.062777	0.749889	0.516193
C89	C	1.418920	-0.000114	-0.244651
C90	C	1.668920	0.249886	0.005349
C91	C	1.918920	0.499886	0.255349
C92	C	2.168920	0.749886	0.505349
C93	C	1.131031	-0.000107	-0.052060
C94	C	1.381031	0.249893	0.197940
C95	C	1.631031	0.499893	0.447940
C96	C	1.881031	0.749893	0.697940
C97	C	1.120187	-0.000107	0.054082
C98	C	1.370187	0.249893	0.304082
C99	C	1.620187	0.499893	0.554082
C100	C	1.870187	0.749893	0.804082
N101	N	1.153198	0.254126	-0.211637
N102	N	1.403198	0.504126	0.038363
N103	N	1.653198	0.754126	0.288363
N104	N	1.903198	1.004126	0.538363
C105	C	1.146609	-0.000084	-0.399974
C106	C	1.396609	0.249916	-0.149974
C107	C	1.646609	0.499916	0.100026
C108	C	1.896609	0.749916	0.350026
C109	C	1.157454	-0.000077	-0.506117
C110	C	1.407454	0.249923	-0.256117
C111	C	1.657454	0.499923	-0.006117
C112	C	1.907454	0.749923	0.243883
C113	C	1.100361	-0.000090	0.248421
C114	C	1.350361	0.249910	0.498421
C115	C	1.600361	0.499910	0.748421
C116	C	1.850361	0.749910	0.998421
C117	C	1.177275	-0.000094	0.299551
C118	C	1.427275	0.249906	0.549551
C119	C	1.677275	0.499906	0.799551
C120	C	1.927275	0.749906	1.049551
C121	C	1.166244	-0.000084	0.407687
C122	C	1.416244	0.249916	0.657687
C123	C	1.666244	0.499916	0.907687
C124	C	1.916244	0.749916	1.157687
C125	C	1.111391	-0.000099	0.140274
C126	C	1.361391	0.249901	0.390274
C127	C	1.611391	0.499901	0.640274
C128	C	1.861391	0.749901	0.890274
H129	H	0.650692	-0.000081	-0.338605
H130	H	0.900692	0.249919	-0.088605
H131	H	1.150692	0.499919	0.161395
H132	H	1.400692	0.749919	0.411395
H133	H	1.061196	-0.519333	-0.303695
H134	H	1.311196	-0.269333	-0.053695
H135	H	1.561196	-0.019333	0.196305
H136	H	1.811196	0.230667	0.446305
H137	H	0.626945	-0.000104	-0.113431
H138	H	0.876945	0.249896	0.136569
H139	H	1.126945	0.499896	0.386569
H140	H	1.376945	0.749896	0.636569
H141	H	1.216452	-0.480859	-0.148334
H142	H	1.466452	-0.230859	0.101666
H143	H	1.716452	0.019141	0.351666
H144	H	1.966452	0.269141	0.601666
H145	H	1.251413	-0.000029	0.262115
H146	H	1.501413	0.249971	0.512115
H147	H	1.751413	0.499971	0.762115
H148	H	2.001413	0.749971	1.012115
H149	H	1.026234	-0.000080	0.285859
H150	H	1.276234	0.249920	0.535859
H151	H	1.526234	0.499920	0.785859
H152	H	1.776234	0.749920	1.035859
