data_functionalizedCrystal
_audit_creation_method	'MofGen! by Chris Wilmer'
_symmetry_space_group_name_H-M	'P1'
_symmetry_Int_Tables_number	1
_symmetry_cell_setting	triclinic
loop_
_symmetry_equiv_pos_as_xyz
  x,y,z
_cell_length_a	6.817900
_cell_length_b	17.296766
_cell_length_c	17.329378
_cell_angle_alpha	95.724032
_cell_angle_beta	103.025558
_cell_angle_gamma	102.621013
loop_
_atom_site_label
_atom_site_type_symbol
_atom_site_fract_x
_atom_site_fract_y
_atom_site_fract_z
V1	V	-4.010749	-0.094238	-0.251734
O2	O	-3.997997	0.021338	-0.238846
O3	O	-3.962923	-0.203025	-0.257799
O4	O	-3.955114	-0.085413	-0.357972
O5	O	-4.005860	-0.097088	-0.137980
V6	V	-4.495240	-0.081285	-0.237183
O7	O	-4.269884	-0.122651	-0.283655
O8	O	-4.686302	-0.052873	-0.205262
O9	O	-4.319858	0.027501	-0.231118
O10	O	-4.625388	-0.196861	-0.250071
O11	O	-4.617525	-0.078435	-0.350937
O12	O	-4.327668	-0.090111	-0.130945
C13	C	-3.808298	-0.229775	-0.255837
C14	C	-3.850434	-0.318662	-0.261504
C15	C	-3.834790	-0.353806	-0.191728
C16	C	-3.874401	-0.437325	-0.197055
C17	C	-3.929641	-0.485699	-0.272159
C18	C	-3.945290	-0.450550	-0.341941
C19	C	-3.905694	-0.367032	-0.336613
C20	C	-4.050981	-0.738200	-0.291870
C21	C	-4.090571	-0.821722	-0.297192
C22	C	-4.019683	-0.808492	-0.152307
C23	C	-3.980078	-0.724973	-0.146985
C24	C	-3.995741	-0.689832	-0.216767
C25	C	-3.970124	-0.571069	-0.277606
C26	C	-3.955272	-0.604463	-0.211319
C27	C	-3.798336	-0.079749	-0.383617
C28	C	-3.834136	-0.073253	-0.470518
C29	C	-3.890757	-0.142640	-0.527721
C30	C	-3.924403	-0.136535	-0.609374
C31	C	-3.901412	-0.061043	-0.633821
C32	C	-3.844791	0.008349	-0.576611
C33	C	-3.811161	0.002244	-0.494960
C34	C	-4.000976	-0.038983	-0.879534
C35	C	-4.034606	-0.032883	-0.961191
C36	C	-4.114219	-0.177768	-0.993949
C37	C	-4.080572	-0.183867	-0.912295
C38	C	-4.023965	-0.114475	-0.855092
C39	C	-3.935796	-0.054801	-0.717282
C40	C	-3.989596	-0.120718	-0.771633
C41	C	-4.137826	0.054247	-0.233078
C42	C	-4.074928	0.143134	-0.227416
C43	C	-4.147788	-0.095778	-0.105297
C44	C	-4.091227	-0.102270	-0.018395
H45	H	-3.918455	-0.338420	-0.393433
F46	F	-3.896511	-0.552980	-0.131392
H47	H	-4.135545	-0.861107	-0.358354
F48	F	-4.014075	-0.201060	-0.745612
F49	F	-4.067641	-0.700810	-0.366138
H50	H	-3.935112	-0.685592	-0.085828
H51	H	-4.160313	-0.234263	-1.040531
F52	F	-3.984669	-0.210387	-0.670251
H53	H	-4.015103	-0.610465	-0.338756
H54	H	-4.015923	0.028595	-0.981092
H55	H	-3.909468	-0.204114	-0.507823
F56	F	-4.105065	-0.264217	-0.886284
H57	H	-3.954885	0.017521	-0.832968
H58	H	-3.917075	0.006666	-0.737196
H59	H	-3.826086	0.069817	-0.596522
F60	F	-3.775987	-0.302330	-0.111791
F61	F	-3.750929	0.076094	-0.434080
F62	F	-4.003027	-0.845899	-0.078046
F63	F	-3.857766	-0.474724	-0.122790
H64	H	-3.990283	-0.489943	-0.403092
