data_functionalizedCrystal
_audit_creation_method	'MofGen! by Chris Wilmer'
_symmetry_space_group_name_H-M	'P1'
_symmetry_Int_Tables_number	1
_symmetry_cell_setting	triclinic
loop_
_symmetry_equiv_pos_as_xyz
  x,y,z
_cell_length_a	14.044220
_cell_length_b	11.792254
_cell_length_c	10.268362
_cell_angle_alpha	89.994545
_cell_angle_beta	90.000433
_cell_angle_gamma	88.693738
loop_
_atom_site_label
_atom_site_type_symbol
_atom_site_fract_x
_atom_site_fract_y
_atom_site_fract_z
O1	O	1.259124	0.273770	-0.108163
O2	O	1.759124	0.773770	0.391837
O3	O	0.983104	0.263891	-0.108196
O4	O	1.483104	0.763891	0.391804
O5	O	1.127806	0.104289	-0.108169
O6	O	1.627806	0.604289	0.391831
O7	O	1.114422	0.433372	-0.108189
O8	O	1.614422	0.933372	0.391811
O9	O	1.127793	0.104281	0.108431
O10	O	1.627793	0.604281	0.608431
O11	O	0.983091	0.263883	0.108405
O12	O	1.483091	0.763883	0.608405
O13	O	1.259111	0.273762	0.108438
O14	O	1.759111	0.773762	0.608438
Cu15	Cu	1.121100	0.268821	0.128199
Cu16	Cu	1.621100	0.768821	0.628199
Cu17	Cu	1.121115	0.268831	-0.127957
Cu18	Cu	1.621115	0.768831	0.372043
O19	O	1.114409	0.433364	0.108411
O20	O	1.614409	0.933364	0.608411
C21	C	0.947761	0.259563	0.000100
C22	C	1.447761	0.759563	0.500100
C23	C	0.842468	0.246664	0.000088
C24	C	1.342468	0.746664	0.500088
C25	C	1.126956	0.061915	0.000130
C26	C	1.626956	0.561915	0.500130
C27	C	1.124433	-0.064335	0.000129
C28	C	1.624433	0.435665	0.500129
C29	C	1.122383	-0.166864	0.000124
C30	C	1.622383	0.333136	0.500124
C31	C	1.119819	-0.295491	0.000112
C32	C	1.619819	0.204509	0.500112
C33	C	0.649685	0.223082	0.000115
C34	C	1.149685	0.723082	0.500115
C35	C	0.592525	0.314566	0.000115
C36	C	1.092525	0.814566	0.500115
C37	C	0.485254	0.301445	0.000130
C38	C	0.985254	0.801445	0.500130
C39	C	0.756966	0.236201	0.000100
C40	C	1.256966	0.736201	0.500100
C41	C	1.294455	0.278090	0.000139
C42	C	1.794455	0.778090	0.500139
C43	C	1.399747	0.290989	0.000142
C44	C	1.899747	0.790989	0.500142
C45	C	1.115259	0.475738	0.000108
C46	C	1.615259	0.975738	0.500108
C47	C	1.117782	0.601988	0.000101
C48	C	1.617782	1.101988	0.500101
N49	N	1.121096	0.268814	0.308364
N50	N	1.621096	0.768814	0.808364
N51	N	1.121126	0.268830	-0.308123
N52	N	1.621126	0.768830	0.191877
C53	C	1.121110	0.268829	0.574035
C54	C	1.621110	0.768829	1.074035
C55	C	1.121099	0.268824	0.426197
C56	C	1.621099	0.768824	0.926197
H57	H	0.624152	0.402743	0.000103
H58	H	1.124152	0.902743	0.500103
C59	C	0.606965	0.103970	0.000114
C60	C	1.106965	0.603970	0.500114
H61	H	0.539425	0.110668	0.000109
H62	H	1.039425	0.610668	0.500109
H63	H	0.627551	0.063868	0.075641
H64	H	1.127551	0.563868	0.575641
H65	H	0.627544	0.063897	-0.075435
H66	H	1.127544	0.563897	0.424565
