data_functionalizedCrystal
_audit_creation_method	'MofGen! by Chris Wilmer'
_symmetry_space_group_name_H-M	'P1'
_symmetry_Int_Tables_number	1
_symmetry_cell_setting	triclinic
loop_
_symmetry_equiv_pos_as_xyz
  x,y,z
_cell_length_a	21.295420
_cell_length_b	21.295417
_cell_length_c	12.759393
_cell_angle_alpha	89.961564
_cell_angle_beta	89.979718
_cell_angle_gamma	90.025484
loop_
_atom_site_label
_atom_site_type_symbol
_atom_site_fract_x
_atom_site_fract_y
_atom_site_fract_z
Zn1	Zn	0.962332	-0.250641	-0.594024
Zn2	Zn	1.462332	0.249359	-0.094024
Zn3	Zn	0.962244	-0.355926	-0.418324
Zn4	Zn	1.462244	0.144074	0.081676
Zn5	Zn	0.857063	-0.250666	-0.418354
Zn6	Zn	1.357063	0.249334	0.081646
Zn7	Zn	0.857026	-0.355869	-0.593956
Zn8	Zn	1.357026	0.144131	-0.093956
O9	O	0.909666	-0.303275	-0.506165
O10	O	1.409666	0.196725	-0.006165
O11	O	1.050410	-0.264620	-0.570734
O12	O	1.550410	0.235380	-0.070734
O13	O	0.948270	-0.341997	-0.271307
O14	O	1.448270	0.158003	0.228693
O15	O	0.871080	-0.162574	-0.441698
O16	O	1.371080	0.337426	0.058302
O17	O	1.050345	-0.341973	-0.441648
O18	O	1.550345	0.158027	0.058352
O19	O	0.948420	-0.162555	-0.570762
O20	O	1.448420	0.337445	-0.070762
O21	O	0.870994	-0.264664	-0.271329
O22	O	1.370994	0.235336	0.228671
O23	O	0.768969	-0.264609	-0.441631
O24	O	1.268969	0.235391	0.058369
O25	O	0.871017	-0.341875	-0.740986
O26	O	1.371017	0.158125	-0.240986
O27	O	0.768942	-0.341900	-0.570645
O28	O	1.268942	0.158100	-0.070645
O29	O	0.948384	-0.264565	-0.741036
O30	O	1.448384	0.235435	-0.241036
O31	O	0.948234	-0.444007	-0.441581
O32	O	1.448234	0.055993	0.058419
O33	O	0.870931	-0.443965	-0.570617
O34	O	1.370931	0.056035	-0.070617
C35	C	0.746115	-0.303251	-0.506135
C36	C	1.246115	0.196749	-0.006135
C37	C	0.676147	-0.303256	-0.506147
C38	C	1.176147	0.196744	-0.006147
C39	C	0.176722	-0.263093	-0.573505
C40	C	0.676722	0.236907	-0.073505
C41	C	0.242464	-0.263088	-0.573504
C42	C	0.742464	0.236912	-0.073504
C43	C	0.275307	-0.303295	-0.506189
C44	C	0.775307	0.196705	-0.006189
C45	C	0.242402	-0.343520	-0.438888
C46	C	0.742402	0.156480	0.061112
C47	C	0.176661	-0.343528	-0.438897
C48	C	0.676661	0.156472	0.061103
N49	N	0.378501	-0.308047	-0.414194
N50	N	0.878501	0.191953	0.085806
N51	N	0.440953	-0.308036	-0.414188
N52	N	0.940953	0.191964	0.085812
C53	C	0.473382	-0.303274	-0.506158
C54	C	0.973382	0.196726	-0.006158
N55	N	0.441000	-0.298511	-0.598136
N56	N	0.941000	0.201489	-0.098136
N57	N	0.378543	-0.298519	-0.598141
N58	N	0.878543	0.201481	-0.098141
C59	C	0.346593	-0.303291	-0.506172
C60	C	0.846593	0.196709	-0.006172
C61	C	0.577565	-0.263049	-0.573460
C62	C	1.077565	0.236951	-0.073460
C63	C	0.643308	-0.263049	-0.573462
C64	C	1.143308	0.236951	-0.073462
C65	C	0.643245	-0.343477	-0.438836
C66	C	1.143245	0.156523	0.061164
C67	C	0.577502	-0.343481	-0.438843
C68	C	1.077502	0.156519	0.061157
C69	C	0.544666	-0.303263	-0.506154
C70	C	1.044666	0.196737	-0.006154
C71	C	0.909586	-0.466827	-0.506111
C72	C	1.409586	0.033173	-0.006111
C73	C	0.909609	-0.536795	-0.506124
C74	C	1.409609	-0.036795	-0.006124
C75	C	0.949858	-0.569595	-0.573376
C76	C	1.449858	-0.069595	-0.073376
C77	C	0.949880	-0.635337	-0.573401
C78	C	1.449880	-0.135337	-0.073401
C79	C	0.909660	-0.668278	-0.506157
C80	C	1.409660	-0.168278	-0.006157
C81	C	0.869404	-0.635470	-0.438900
C82	C	1.369404	-0.135470	0.061100
C83	C	0.869379	-0.569729	-0.438884
C84	C	1.369379	-0.069729	0.061116
N85	N	0.904905	-0.771547	-0.414210
N86	N	1.404905	-0.271547	0.085790
N87	N	0.904933	-0.833998	-0.414229
N88	N	1.404933	-0.333998	0.085771
C89	C	0.909734	-0.866352	-0.506204
C90	C	1.409734	-0.366352	-0.006204
N91	N	0.914518	-0.833896	-0.598162
N92	N	1.414518	-0.333896	-0.098162
N93	N	0.914494	-0.771439	-0.598143
N94	N	1.414494	-0.271439	-0.098143
C95	C	0.909683	-0.739563	-0.506168
C96	C	1.409683	-0.239563	-0.006168
C97	C	0.950008	-0.970438	-0.573490
C98	C	1.450008	-0.470438	-0.073490
C99	C	0.950026	-1.036181	-0.573518
C100	C	1.450026	-0.536181	-0.073518
C101	C	0.869554	-1.036313	-0.439007
C102	C	1.369554	-0.536313	0.060993
C103	C	0.869533	-0.970570	-0.438989
C104	C	1.369533	-0.470570	0.061011
C105	C	0.909763	-0.937637	-0.506229
C106	C	1.409763	-0.437637	-0.006229
C107	C	1.073857	-0.303300	-0.506195
C108	C	1.573857	0.196700	-0.006195
C109	C	1.143825	-0.303311	-0.506208
C110	C	1.643825	0.196689	-0.006208
C111	C	0.909706	-0.303211	-0.780198
C112	C	1.409706	0.196789	-0.280198
C113	C	0.909723	-0.303184	-0.896975
C114	C	1.409723	0.196816	-0.396975
C115	C	0.909764	-0.139085	-0.506241
C116	C	1.409764	0.360915	-0.006241
C117	C	0.909806	-0.069117	-0.506273
C118	C	1.409806	0.430883	-0.006273
C119	C	0.869477	-0.343406	-1.061537
C120	C	1.369477	0.156594	-0.561537
C121	C	0.869453	-0.343425	-0.951813
C122	C	1.369453	0.156575	-0.451813
C123	C	0.950016	-0.262917	-0.951866
C124	C	1.450016	0.237083	-0.451866
C125	C	0.950036	-0.262896	-1.061588
C126	C	1.450036	0.237104	-0.561588
C127	C	0.822967	-0.389889	-1.061506
C128	C	1.322967	0.110111	-0.561506
C129	C	0.822943	-0.389907	-0.951782
C130	C	1.322943	0.110093	-0.451782
C131	C	0.909663	-0.303294	-0.233197
C132	C	1.409663	0.196706	0.266803
C133	C	0.909768	-0.303144	-0.116421
C134	C	1.409768	0.196856	0.383579
H135	H	0.669985	-0.376219	-0.384034
H136	H	1.169985	0.123781	0.115966
C137	C	0.994352	-0.218604	-1.121957
C138	C	1.494352	0.281396	-0.621957
H139	H	1.018333	-0.194643	-1.073584
H140	H	1.518333	0.305357	-0.573584
H141	H	0.970294	-0.191168	-1.164776
H142	H	1.470294	0.308832	-0.664776
H143	H	1.021778	-0.242681	-1.164746
H144	H	1.521778	0.257319	-0.664746
C145	C	0.994103	-0.533368	-0.647343
C146	C	1.494103	-0.033368	-0.147343
H147	H	0.988327	-0.489517	-0.637699
H148	H	1.488327	0.010483	-0.137699
H149	H	0.984872	-0.544117	-0.717922
H150	H	1.484872	-0.044117	-0.217922
H151	H	1.036409	-0.544114	-0.632026
H152	H	1.536409	-0.044114	-0.132026
C153	C	0.825310	-1.072536	-0.365040
C154	C	1.325310	-0.572536	0.134960
H155	H	0.801334	-1.043583	-0.324986
H156	H	1.301334	-0.543583	0.175014
H157	H	0.849413	-1.098187	-0.319307
H158	H	1.349413	-0.598187	0.180693
H159	H	0.797876	-1.098181	-0.405204
H160	H	1.297876	-0.598181	0.094796
H161	H	0.836656	-0.662294	-0.384152
H162	H	1.336656	-0.162294	0.115848
C163	C	0.994311	-0.218652	-0.891547
C164	C	1.494311	0.281348	-0.391547
H165	H	0.988531	-0.224432	-0.818340
H166	H	1.488531	0.275568	-0.318340
H167	H	0.985128	-0.176352	-0.909556
H168	H	1.485128	0.323648	-0.409556
H169	H	1.036606	-0.227872	-0.909524
H170	H	1.536606	0.272128	-0.409524
C171	C	0.994302	-1.072261	-0.647498
C172	C	1.494302	-0.572261	-0.147498
H173	H	1.018260	-1.043229	-0.687531
H174	H	1.518260	-0.543229	-0.187531
H175	H	0.970219	-1.097903	-0.693250
H176	H	1.470219	-0.597903	-0.193250
H177	H	1.021752	-1.097904	-0.607347
H178	H	1.521752	-0.597904	-0.107347
C179	C	0.825267	-0.934489	-0.364998
C180	C	1.325267	-0.434489	0.135002
H181	H	0.801320	-0.963521	-0.324945
H182	H	1.301320	-0.463521	0.175055
H183	H	0.797815	-0.908844	-0.405134
H184	H	1.297815	-0.408844	0.094866
H185	H	0.849359	-0.908848	-0.319249
H186	H	1.349359	-0.408848	0.180751
C187	C	0.140602	-0.218864	-0.647553
C188	C	0.640602	0.281136	-0.147553
H189	H	0.096737	-0.224625	-0.637919
H190	H	0.596737	0.275375	-0.137919
H191	H	0.151395	-0.228123	-0.718113
H192	H	0.651395	0.271877	-0.218113
H193	H	0.151385	-0.176555	-0.632296
H194	H	0.651385	0.323445	-0.132296
C195	C	0.278659	-0.218845	-0.647529
C196	C	0.778659	0.281155	-0.147529
H197	H	0.249687	-0.194892	-0.687613
H198	H	0.749687	0.305108	-0.187613
H199	H	0.304311	-0.242949	-0.693232
H200	H	0.804311	0.257051	-0.193232
H201	H	0.304300	-0.191388	-0.607402
H202	H	0.804300	0.308612	-0.107402
C203	C	0.278526	-0.387744	-0.364840
C204	C	0.778526	0.112256	0.135160
H205	H	0.322392	-0.381974	-0.374464
H206	H	0.822392	0.118026	0.125536
H207	H	0.267745	-0.430051	-0.380089
H208	H	0.767745	0.069949	0.119911
H209	H	0.267735	-0.378481	-0.294275
H210	H	0.767735	0.121519	0.205725
H211	H	0.774226	-0.376820	-1.091286
H212	H	1.274226	0.123180	-0.591286
C213	C	0.541314	-0.387713	-0.364804
C214	C	1.041314	0.112287	0.135196
H215	H	0.570288	-0.411654	-0.324705
H216	H	1.070288	0.088346	0.175295
H217	H	0.515668	-0.415171	-0.404910
H218	H	1.015668	0.084829	0.095090
H219	H	0.515667	-0.363599	-0.319099
H220	H	1.015667	0.136401	0.180901
C221	C	0.140473	-0.387765	-0.364860
C222	C	0.640473	0.112235	0.135140
H223	H	0.169446	-0.411708	-0.324764
H224	H	0.669446	0.088292	0.175236
H225	H	0.114825	-0.415220	-0.404968
H226	H	0.614825	0.084780	0.095032
H227	H	0.114827	-0.363651	-0.319154
H228	H	0.614827	0.136349	0.180846
C229	C	0.994155	-0.671428	-0.647376
C230	C	1.494155	-0.171428	-0.147376
H231	H	0.988405	-0.715297	-0.637758
H232	H	1.488405	-0.215297	-0.137758
H233	H	1.036451	-0.660627	-0.632058
H234	H	1.536451	-0.160627	-0.132058
H235	H	0.984914	-0.660629	-0.717956
H236	H	1.484914	-0.160629	-0.217956
H237	H	0.550828	-0.230302	-0.628269
H238	H	1.050828	0.269698	-0.128269
C239	C	0.846524	-0.452444	-1.107454
C240	C	1.346524	0.047556	-0.607454
H241	H	0.856998	-0.480317	-1.051989
H242	H	1.356998	0.019683	-0.551989
H243	H	0.882639	-0.444963	-1.149368
H244	H	1.382639	0.055037	-0.649368
H245	H	0.814461	-0.470651	-1.149341
H246	H	1.314461	0.029349	-0.649341
C247	C	0.760386	-0.366316	-0.905811
C248	C	1.260386	0.133684	-0.405811
H249	H	0.732542	-0.355803	-0.961266
H250	H	1.232542	0.144197	-0.461266
H251	H	0.767881	-0.330221	-0.863932
H252	H	1.267881	0.169779	-0.363932
H253	H	0.742137	-0.398379	-0.863886
H254	H	1.242137	0.101621	-0.363886
H255	H	0.670092	-0.230301	-0.628271
H256	H	1.170092	0.269699	-0.128271
C257	C	0.825108	-0.533648	-0.364897
C258	C	1.325108	-0.033648	0.135103
H259	H	0.801159	-0.562679	-0.324847
H260	H	1.301159	-0.062679	0.175153
H261	H	0.797659	-0.508001	-0.405034
H262	H	1.297659	-0.008001	0.094966
H263	H	0.849200	-0.508008	-0.319145
H264	H	1.349200	-0.008008	0.180855
C265	C	0.840676	-0.455738	-0.911506
C266	C	1.340676	0.044262	-0.411506
H267	H	0.847978	-0.482801	-0.969401
H268	H	1.347978	0.017199	-0.469401
H269	H	0.807359	-0.472024	-0.870078
H270	H	1.307359	0.027976	-0.370078
H271	H	0.877683	-0.452988	-0.870205
H272	H	1.377683	0.047012	-0.370205
C273	C	0.994240	-0.934208	-0.647481
C274	C	1.494240	-0.434208	-0.147481
H275	H	1.018203	-0.963161	-0.687557
H276	H	1.518203	-0.463161	-0.187557
H277	H	1.021677	-0.908553	-0.607350
H278	H	1.521677	-0.408553	-0.107350
H279	H	0.970117	-0.908566	-0.693208
H280	H	1.470117	-0.408566	-0.193208
