data_functionalizedCrystal
_audit_creation_method	'MofGen! by Chris Wilmer'
_symmetry_space_group_name_H-M	'P1'
_symmetry_Int_Tables_number	1
_symmetry_cell_setting	triclinic
loop_
_symmetry_equiv_pos_as_xyz
  x,y,z
_cell_length_a	11.169417
_cell_length_b	21.295417
_cell_length_c	11.169409
_cell_angle_alpha	90.040352
_cell_angle_beta	90.019824
_cell_angle_gamma	90.030581
loop_
_atom_site_label
_atom_site_type_symbol
_atom_site_fract_x
_atom_site_fract_y
_atom_site_fract_z
Zn1	Zn	1.834801	-0.250543	0.678476
Zn2	Zn	2.334801	0.249457	1.178476
Zn3	Zn	1.834622	-0.355832	0.477765
Zn4	Zn	2.334622	0.144168	0.977765
Zn5	Zn	1.634087	-0.250582	0.477810
Zn6	Zn	2.134087	0.249418	0.977810
Zn7	Zn	1.634026	-0.355780	0.678410
Zn8	Zn	2.134026	0.144220	1.178410
O9	O	1.734384	-0.303184	0.578115
O10	O	2.234384	0.196816	1.078115
O11	O	2.002727	-0.264516	0.651860
O12	O	2.502727	0.235484	1.151860
O13	O	1.807971	-0.341908	0.309821
O14	O	2.307971	0.158092	0.809821
O15	O	1.660812	-0.162487	0.504476
O16	O	2.160812	0.337513	1.004476
O17	O	2.002596	-0.341870	0.504398
O18	O	2.502596	0.158130	1.004398
O19	O	1.808276	-0.162459	0.651904
O20	O	2.308276	0.337541	1.151904
O21	O	1.660639	-0.264581	0.309854
O22	O	2.160639	0.235419	0.809854
O23	O	1.466129	-0.264531	0.504411
O24	O	1.966129	0.235469	1.004411
O25	O	1.660709	-0.341783	0.846368
O26	O	2.160709	0.158217	1.346368
O27	O	1.466085	-0.341820	0.651791
O28	O	1.966085	0.158180	1.151791
O29	O	1.808217	-0.264466	0.846417
O30	O	2.308217	0.235534	1.346417
O31	O	1.807913	-0.443914	0.504334
O32	O	2.307913	0.056086	1.004334
O33	O	1.660536	-0.443877	0.651747
O34	O	2.160536	0.056123	1.151747
C35	C	1.422559	-0.303175	0.578100
C36	C	1.922559	0.196825	1.078100
C37	C	1.289159	-0.303186	0.578122
C38	C	1.789159	0.196814	1.078122
C39	C	1.734231	-0.466736	0.578054
C40	C	2.234231	0.033264	1.078054
C41	C	1.734276	-0.536704	0.578068
C42	C	2.234276	-0.036704	1.078068
C43	C	1.811016	-0.569499	0.654889
C44	C	2.311016	-0.069499	1.154889
C45	C	1.811058	-0.635241	0.654919
C46	C	2.311058	-0.135241	1.154919
C47	C	1.734373	-0.668187	0.578106
C48	C	2.234373	-0.168187	1.078106
C49	C	1.657617	-0.635384	0.501280
C50	C	2.157617	-0.135384	1.001280
C51	C	1.657569	-0.569643	0.501261
C52	C	2.157569	-0.069643	1.001261
N53	N	1.725301	-0.771458	0.473071
N54	N	2.225301	-0.271458	0.973071
N55	N	1.725354	-0.833909	0.473093
N56	N	2.225354	-0.333909	0.973093
C57	C	1.734513	-0.866261	0.578160
C58	C	2.234513	-0.366261	1.078160
N59	N	1.743640	-0.833802	0.683209
N60	N	2.243640	-0.333802	1.183209
N61	N	1.743593	-0.771345	0.683186
N62	N	2.243593	-0.271345	1.183186
C63	C	1.734417	-0.739472	0.578119
C64	C	2.234417	-0.239472	1.078119
C65	C	1.811303	-0.970342	0.655020
C66	C	2.311303	-0.470342	1.155020
C67	C	1.811337	-1.036085	0.655051
C68	C	2.311337	-0.536085	1.155051
C69	C	1.657903	-1.036226	0.501402
C70	C	2.157903	-0.536226	1.001402
C71	C	1.657863	-0.970484	0.501381
C72	C	2.157863	-0.470484	1.001381
C73	C	1.734569	-0.937545	0.578188
C74	C	2.234569	-0.437545	1.078188
C75	C	2.047426	-0.303194	0.578131
C76	C	2.547426	0.196806	1.078131
C77	C	2.180826	-0.303199	0.578138
C78	C	2.680826	0.196801	1.078138
C79	C	1.734476	-0.303114	0.891158
C80	C	2.234476	0.196886	1.391158
C81	C	1.734516	-0.303085	1.024558
C82	C	2.234516	0.196915	1.524558
C83	C	1.734570	-0.138994	0.578202
C84	C	2.234570	0.361006	1.078202
C85	C	1.734650	-0.069026	0.578240
C86	C	2.234650	0.430974	1.078240
C87	C	1.734361	-0.303209	0.266290
C88	C	2.234361	0.196791	0.766290
C89	C	1.734555	-0.303061	0.132891
C90	C	2.234555	0.196939	0.632891
H91	H	1.873472	-0.542682	0.717433
H92	H	2.373472	-0.042682	1.217433
Br93	Br	1.915399	-0.925635	0.759258
Br94	Br	2.415399	-0.425635	1.259258
Br95	Br	1.553409	-0.525132	0.397000
Br96	Br	2.053409	-0.025132	0.897000
H97	H	1.873828	-1.062786	0.717614
H98	H	2.373828	-0.562786	1.217614
Br99	Br	1.553706	-0.925973	0.397121
Br100	Br	2.053706	-0.425973	0.897121
H101	H	1.595177	-0.662212	0.438742
H102	H	2.095177	-0.162212	0.938742
Br103	Br	1.553820	-1.080931	0.397161
Br104	Br	2.053820	-0.580931	0.897161
Br105	Br	1.915219	-0.679759	0.759177
Br106	Br	2.415219	-0.179759	1.259177
