data_functionalizedCrystal
_audit_creation_method	'MofGen! by Chris Wilmer'
_symmetry_space_group_name_H-M	'P1'
_symmetry_Int_Tables_number	1
_symmetry_cell_setting	triclinic
loop_
_symmetry_equiv_pos_as_xyz
  x,y,z
_cell_length_a	11.169417
_cell_length_b	19.120786
_cell_length_c	11.169417
_cell_angle_alpha	92.455390
_cell_angle_beta	90.000863
_cell_angle_gamma	92.466141
loop_
_atom_site_label
_atom_site_type_symbol
_atom_site_fract_x
_atom_site_fract_y
_atom_site_fract_z
Zn1	Zn	1.814226	-0.279725	0.658090
Zn2	Zn	2.314226	0.220275	1.158090
Zn3	Zn	1.805571	-0.397154	0.448822
Zn4	Zn	2.305571	0.102846	0.948822
Zn5	Zn	1.613579	-0.279717	0.457425
Zn6	Zn	2.113579	0.220283	0.957425
Zn7	Zn	1.604909	-0.397148	0.649467
Zn8	Zn	2.104909	0.102852	1.149467
O9	O	1.709571	-0.338436	0.553451
O10	O	2.209571	0.161564	1.053451
O11	O	1.981027	-0.295308	0.630339
O12	O	2.481027	0.204692	1.130339
O13	O	1.780109	-0.381575	0.282013
O14	O	2.280109	0.118425	0.782013
O15	O	1.647446	-0.181429	0.491254
O16	O	2.147446	0.318571	0.991254
O17	O	1.974669	-0.381583	0.476590
O18	O	2.474669	0.118417	0.976590
O19	O	1.794860	-0.181435	0.638681
O20	O	2.294860	0.318565	1.138681
O21	O	1.639053	-0.295295	0.288334
O22	O	2.139053	0.204705	0.788334
O23	O	1.444480	-0.295289	0.482892
O24	O	1.944480	0.204711	0.982892
O25	O	1.632669	-0.381572	0.818560
O26	O	2.132669	0.118428	1.318560
O27	O	1.438110	-0.381564	0.623984
O28	O	1.938110	0.118436	1.123984
O29	O	1.786454	-0.295302	0.824896
O30	O	2.286454	0.204698	1.324896
O31	O	1.771703	-0.495442	0.468228
O32	O	2.271703	0.004558	0.968228
O33	O	1.624277	-0.495438	0.615641
O34	O	2.124277	0.004562	1.115641
C35	C	1.397748	-0.338425	0.553436
C36	C	1.897748	0.161575	1.053436
C37	C	1.264347	-0.338438	0.553457
C38	C	1.764347	0.161562	1.053457
C39	C	1.696142	-0.520925	0.540091
C40	C	2.196142	-0.020925	1.040091
C41	C	1.690507	-0.598995	0.534416
C42	C	2.190507	-0.098995	1.034416
C43	C	1.764553	-0.635615	0.608570
C44	C	2.264553	-0.135615	1.108570
C45	C	1.759254	-0.708970	0.603240
C46	C	2.259254	-0.208970	1.103240
C47	C	1.679913	-0.745703	0.523749
C48	C	2.179913	-0.245703	1.023749
C49	C	1.605859	-0.709078	0.449592
C50	C	2.105859	-0.209078	0.949592
C51	C	1.611153	-0.635725	0.454929
C52	C	2.111153	-0.135725	0.954929
C53	C	1.660085	-0.967186	0.503796
C54	C	2.160085	-0.467186	1.003796
C55	C	1.654798	-1.040545	0.498462
C56	C	2.154798	-0.540545	0.998462
C57	C	1.808192	-1.040431	0.652112
C58	C	2.308192	-0.540431	1.152112
C59	C	1.813485	-0.967076	0.657437
C60	C	2.313485	-0.467076	1.157437
C61	C	1.739426	-0.930458	0.583285
C62	C	2.239426	-0.430458	1.083285
C63	C	1.674497	-0.820684	0.518296
C64	C	2.174497	-0.320684	1.018296
C65	C	1.744837	-0.855479	0.588745
C66	C	2.244837	-0.355479	1.088745
C67	C	2.022613	-0.338447	0.553466
C68	C	2.522613	0.161553	1.053466
C69	C	2.156013	-0.338452	0.553473
C70	C	2.656013	0.161548	1.053473
C71	C	1.709560	-0.338437	0.866493
C72	C	2.209560	0.161563	1.366493
C73	C	1.709555	-0.338438	0.999893
C74	C	2.209555	0.161562	1.499893
C75	C	1.723086	-0.155234	0.566889
C76	C	2.223086	0.344766	1.066889
C77	C	1.728845	-0.077164	0.572616
C78	C	2.228845	0.422836	1.072616
C79	C	1.709568	-0.338448	1.241625
C80	C	2.209568	0.161552	1.741625
C81	C	1.709558	-0.338439	1.108226
C82	C	2.209558	0.161561	1.608226
H83	H	1.829166	-0.605711	0.673295
H84	H	2.329166	-0.105711	1.173295
H85	H	1.809432	-0.825568	0.653471
H86	H	2.309432	-0.325568	1.153471
Cl87	Cl	1.852329	-0.755003	0.696482
Cl88	Cl	2.352329	-0.255003	1.196482
Cl89	Cl	1.913230	-0.920902	0.757374
Cl90	Cl	2.413230	-0.420902	1.257374
H91	H	1.541253	-0.738992	0.384873
H92	H	2.041253	-0.238992	0.884873
Cl93	Cl	1.901283	-1.086470	0.745331
Cl94	Cl	2.401283	-0.586470	1.245331
H95	H	1.609901	-0.850600	0.453570
H96	H	2.109901	-0.350600	0.953570
Cl97	Cl	1.555052	-1.086723	0.398518
Cl98	Cl	2.055052	-0.586723	0.898518
Cl99	Cl	1.518061	-0.589688	0.361705
Cl100	Cl	2.018061	-0.089688	0.861705
Cl101	Cl	1.566971	-0.921161	0.410586
Cl102	Cl	2.066971	-0.421161	0.910586
