data_functionalizedCrystal
_audit_creation_method	'MofGen! by Chris Wilmer'
_symmetry_space_group_name_H-M	'P1'
_symmetry_Int_Tables_number	1
_symmetry_cell_setting	triclinic
loop_
_symmetry_equiv_pos_as_xyz
  x,y,z
_cell_length_a	17.640112
_cell_length_b	18.101395
_cell_length_c	17.640968
_cell_angle_alpha	101.229078
_cell_angle_beta	87.860920
_cell_angle_gamma	101.255692
loop_
_atom_site_label
_atom_site_type_symbol
_atom_site_fract_x
_atom_site_fract_y
_atom_site_fract_z
Zn1	Zn	1.247775	-0.021279	0.195081
Zn2	Zn	1.221983	-0.174071	0.068105
Zn3	Zn	1.095100	-0.069453	0.093729
Zn4	Zn	1.120725	-0.164323	0.220687
O5	O	1.171396	-0.107282	0.144400
O6	O	1.350625	-0.025466	0.156797
O7	O	1.183633	-0.184434	-0.034768
O8	O	1.115423	0.040585	0.107181
O9	O	1.331676	-0.137722	0.063509
O10	O	1.227592	0.075978	0.181644
O11	O	1.090413	-0.107572	-0.015942
O12	O	0.992228	-0.098119	0.132010
O13	O	1.159097	-0.121107	0.323562
O14	O	1.011054	-0.167820	0.225285
O15	O	1.252440	-0.016013	0.304750
O16	O	1.208481	-0.276426	0.088338
O17	O	1.134087	-0.269264	0.200439
C18	C	0.974086	-0.137139	0.184207
C19	C	0.889679	-0.149927	0.201255
C20	C	0.563038	-0.010125	0.014899
C21	C	0.483727	-0.022153	0.030928
C22	C	0.503352	-0.094901	0.127887
C23	C	0.582666	-0.082876	0.111869
C24	C	0.612502	-0.040488	0.055373
C25	C	0.632131	-0.113239	0.152344
C26	C	0.711437	-0.101218	0.136324
C27	C	0.741280	-0.058834	0.079829
C28	C	0.691809	-0.028467	0.039353
C29	C	0.602292	-0.155631	0.208836
C30	C	0.651757	-0.185994	0.249311
C31	C	0.731066	-0.173968	0.233295
C32	C	0.760908	-0.131585	0.176800
C33	C	0.780536	-0.204335	0.273771
C34	C	0.859843	-0.192314	0.257751
C35	C	0.840215	-0.119564	0.160780
C36	C	1.171290	-0.299713	0.144399
C37	C	1.171319	-0.382019	0.144409
C38	C	1.171494	-0.681075	0.144416
C39	C	1.124853	-0.645221	0.215066
C40	C	1.124537	-0.559687	0.214938
C41	C	1.171407	-0.532710	0.144413
C42	C	1.133552	-0.585373	0.068746
C43	C	1.133246	-0.670995	0.069175
C44	C	1.255975	-0.632588	0.148704
C45	C	1.255858	-0.546609	0.150555
C46	C	1.171358	-0.448861	0.144407
C47	C	1.171539	-0.764926	0.144418
C48	C	1.369476	-0.077307	0.104439
C49	C	1.453886	-0.064534	0.087409
C50	C	1.211504	-0.062099	0.342481
C51	C	1.228596	-0.042845	0.426892
C52	C	1.171526	0.085908	0.144415
C53	C	1.171582	0.168234	0.144421
C54	C	1.131487	-0.152228	-0.052919
C55	C	1.114543	-0.171252	-0.137358
C56	C	1.041843	-0.253106	0.753474
C57	C	1.057920	-0.235002	0.832787
C58	C	1.155109	-0.125577	0.813189
C59	C	1.139039	-0.143670	0.733873
C60	C	1.082405	-0.207436	0.704022
C61	C	1.179601	-0.097999	0.684421
C62	C	1.163534	-0.116093	0.605112
C63	C	1.106905	-0.179858	0.575254
C64	C	1.066339	-0.225530	0.624712
C65	C	1.236238	-0.034237	0.714273
C66	C	1.276800	0.011433	0.664821
C67	C	1.260729	-0.006657	0.585511
C68	C	1.204100	-0.070421	0.555653
C69	C	1.301296	0.039015	0.536052
C70	C	1.285229	0.020921	0.456743
C71	C	1.188033	-0.088515	0.476344
H72	H	0.805856	-0.049049	0.066785
H73	H	1.024885	-0.272198	0.873049
H74	H	0.627452	-0.220508	0.295307
H75	H	0.587334	0.024405	-0.031095
N76	N	0.433190	0.008868	-0.010406
N77	N	0.362382	-0.001868	0.003904
H78	H	0.326688	0.020038	-0.025288
H79	H	1.249319	-0.019509	0.778852
N80	N	0.910376	-0.223311	0.299109
N81	N	0.964456	-0.179563	0.338604
H82	H	1.000145	-0.201456	0.367814
N83	N	1.172893	-0.702193	0.001968
N84	N	1.200696	-0.660717	-0.045105
H85	H	1.228687	-0.682750	-0.092576
H86	H	0.479047	-0.129416	0.173884
N87	N	1.156603	-0.513734	0.285960
N88	N	1.179371	-0.544759	0.335969
H89	H	1.202016	-0.512308	0.386133
N90	N	1.008476	-0.290660	0.594228
N91	N	0.972255	-0.331428	0.638389
H92	H	0.931390	-0.377424	0.616860
H93	H	0.864511	-0.085034	0.114787
N94	N	1.295323	-0.639479	0.215664
N95	N	1.305068	-0.703857	0.224476
H96	H	1.332852	-0.708726	0.271770
N97	N	0.722312	0.014840	-0.018344
N98	N	0.772021	0.074810	-0.000473
H99	H	0.793567	0.105395	-0.041218
N100	N	1.056170	-0.574659	0.061271
N101	N	1.015967	-0.611666	0.004453
H102	H	0.961315	-0.604101	-0.000824
N103	N	1.156843	-0.651378	0.286361
N104	N	1.214385	-0.682269	0.285938
H105	H	1.236995	-0.686599	0.336293
N106	N	0.521284	-0.167891	0.225210
N107	N	0.489154	-0.111858	0.248342
H108	H	0.431943	-0.120513	0.259910
N109	N	1.359150	0.104137	0.566560
N110	N	1.373494	0.120278	0.637372
H111	H	1.414355	0.166270	0.658919
H112	H	0.995709	-0.305016	0.729171
H113	H	1.062956	-0.678821	0.213602
N114	N	1.291295	-0.501126	0.220315
N115	N	1.254541	-0.458615	0.265376
H116	H	1.279565	-0.426490	0.314646
N117	N	1.303381	-0.522380	0.089083
N118	N	1.275658	-0.494354	0.039523
H119	H	1.309217	-0.477247	-0.003899
N120	N	0.750040	-0.247640	0.331466
N121	N	0.679228	-0.258375	0.345755
H122	H	0.657689	-0.288960	0.386503
H123	H	1.062244	-0.551372	0.213376
H124	H	1.071008	-0.703884	0.063660
N125	N	1.173930	-0.564831	0.001804
N126	N	1.178853	-0.498715	-0.011513
H127	H	1.207372	-0.484203	-0.058790
N128	N	1.130169	-0.153638	0.445844
N129	N	1.061891	-0.157303	0.468839
H130	H	1.021026	-0.203293	0.447297
H131	H	1.290923	-0.655996	0.097050
N132	N	1.090473	-0.198349	0.494245
N133	N	1.039905	-0.255281	0.467603
H134	H	1.028299	-0.268342	0.410391
H135	H	1.201222	-0.073661	0.837504
H136	H	1.322913	0.063350	0.689136
N137	N	1.326646	0.067581	0.406225
N138	N	1.290986	0.100635	0.367367
H139	H	1.320238	0.133588	0.331688
