data_functionalizedCrystal
_audit_creation_method	'MofGen! by Chris Wilmer'
_symmetry_space_group_name_H-M	'P1'
_symmetry_Int_Tables_number	1
_symmetry_cell_setting	triclinic
loop_
_symmetry_equiv_pos_as_xyz
  x,y,z
_cell_length_a	12.645330
_cell_length_b	21.395362
_cell_length_c	21.395355
_cell_angle_alpha	89.956060
_cell_angle_beta	89.987670
_cell_angle_gamma	90.033572
loop_
_atom_site_label
_atom_site_type_symbol
_atom_site_fract_x
_atom_site_fract_y
_atom_site_fract_z
Zn1	Zn	-0.421713	0.957916	-0.354613
Zn2	Zn	0.078287	1.457916	0.145387
Zn3	Zn	-0.598962	0.957842	-0.249846
Zn4	Zn	-0.098962	1.457842	0.250154
Zn5	Zn	-0.421762	0.853131	-0.249814
Zn6	Zn	0.078238	1.353131	0.250186
Zn7	Zn	-0.598984	0.853124	-0.354551
Zn8	Zn	-0.098984	1.353124	0.145449
O9	O	-0.510355	0.905503	-0.302206
O10	O	-0.010355	1.405503	0.197794
O11	O	-0.445196	1.045584	-0.340754
O12	O	0.054804	1.545584	0.159246
O13	O	-0.575468	0.943924	-0.162164
O14	O	-0.075468	1.443924	0.337836
O15	O	-0.273408	0.867065	-0.263728
O16	O	0.226592	1.367065	0.236272
O17	O	-0.575420	1.045530	-0.263783
O18	O	-0.075420	1.545530	0.236217
O19	O	-0.273372	0.944050	-0.340723
O20	O	0.226628	1.444050	0.159277
O21	O	-0.445280	0.866993	-0.162140
O22	O	0.054720	1.366993	0.337860
O23	O	-0.445301	0.765452	-0.263668
O24	O	0.054699	1.265452	0.236332
O25	O	-0.575457	0.867053	-0.442237
O26	O	-0.075457	1.367053	0.057763
O27	O	-0.575505	0.765447	-0.340618
O28	O	-0.075505	1.265447	0.159382
O29	O	-0.445217	0.944043	-0.442282
O30	O	0.054783	1.444043	0.057718
O31	O	-0.747312	0.943918	-0.263724
O32	O	-0.247312	1.443918	0.236276
O33	O	-0.747328	0.866981	-0.340650
O34	O	-0.247328	1.366981	0.159350
C35	C	-0.510411	0.742716	-0.302133
C36	C	-0.010411	1.242716	0.197867
C37	C	-0.510461	0.673074	-0.302117
C38	C	-0.010461	1.173074	0.197883
C39	C	-0.578348	0.640375	-0.342125
C40	C	-0.078348	1.140375	0.157875
C41	C	-0.578322	0.574940	-0.342153
C42	C	-0.078322	1.074940	0.157847
C43	C	-0.510420	0.542206	-0.302162
C44	C	-0.010420	1.042206	0.197838
C45	C	-0.442520	0.574913	-0.262151
C46	C	0.057480	1.074913	0.237849
C47	C	-0.442540	0.640348	-0.262129
C48	C	0.057460	1.140348	0.237871
C49	C	-0.501880	0.438480	-0.245756
C50	C	-0.001880	0.938480	0.254244
C51	C	-0.501867	0.373047	-0.245777
C52	C	-0.001867	0.873047	0.254223
C53	C	-0.510351	0.340386	-0.302231
C54	C	-0.010351	0.840386	0.197769
C55	C	-0.518870	0.373165	-0.358665
C56	C	-0.018870	0.873165	0.141335
C57	C	-0.518890	0.438599	-0.358643
C58	C	-0.018890	0.938599	0.141357
C59	C	-0.510390	0.471254	-0.302182
C60	C	-0.010390	0.971254	0.197818
C61	C	-0.578213	0.236734	-0.342272
C62	C	-0.078213	0.736734	0.157728
C63	C	-0.578180	0.171297	-0.342301
C64	C	-0.078180	0.671297	0.157699
C65	C	-0.442383	0.171272	-0.262294
C66	C	0.057617	0.671272	0.237706
C67	C	-0.442411	0.236707	-0.262271
C68	C	0.057589	0.736707	0.237729
C69	C	-0.510332	0.269434	-0.302259
C70	C	-0.010332	0.769434	0.197741
C71	C	-0.785785	0.905458	-0.302197
C72	C	-0.285785	1.405458	0.197803
C73	C	-0.903615	0.905495	-0.302214
C74	C	-0.403615	1.405495	0.197786
C75	C	-1.071233	0.857295	-0.350758
C76	C	-0.571233	1.357295	0.149242
C77	C	-0.948674	0.857048	-0.350602
C78	C	-0.448674	1.357048	0.149398
C79	C	-0.948193	0.887617	-0.236177
C80	C	-0.448193	1.387617	0.263823
C81	C	-1.070792	0.887323	-0.236472
C82	C	-0.570792	1.387323	0.263528
C83	C	-1.070679	0.971870	-0.319173
C84	C	-0.570679	1.471870	0.180827
C85	C	-0.948073	0.971463	-0.320616
C86	C	-0.448073	1.471463	0.179384
C87	C	-0.233850	0.905566	-0.302228
C88	C	0.266150	1.405566	0.197772
C89	C	-0.116020	0.905593	-0.302238
C90	C	0.383980	1.405593	0.197762
C91	C	-0.510334	0.905555	-0.465629
C92	C	-0.010334	1.405555	0.034371
C93	C	-0.510325	0.905578	-0.535271
C94	C	-0.010325	1.405578	-0.035271
C95	C	-0.510300	1.068927	-0.302279
C96	C	-0.010300	1.568927	0.197721
C97	C	-0.510276	1.138568	-0.302311
C98	C	-0.010276	1.638568	0.197689
C99	C	-0.442506	0.945665	-0.568008
C100	C	0.057494	1.445665	-0.068008
C101	C	-0.442460	0.945664	-0.633444
C102	C	0.057540	1.445664	-0.133444
C103	C	-0.510252	0.905582	-0.666139
C104	C	-0.010252	1.405582	-0.166139
C105	C	-0.578076	0.865488	-0.633393
C106	C	-0.078076	1.365488	-0.133393
C107	C	-0.578112	0.865485	-0.567959
C108	C	-0.078112	1.365485	-0.067959
C109	C	-0.605707	0.900619	-0.769809
C110	C	-0.105707	1.400619	-0.269809
C111	C	-0.605673	0.900626	-0.835242
C112	C	-0.105673	1.400626	-0.335242
C113	C	-0.510140	0.905586	-0.867960
C114	C	-0.010140	1.405586	-0.367960
C115	C	-0.414639	0.910553	-0.835237
C116	C	0.085361	1.410553	-0.335237
C117	C	-0.414676	0.910550	-0.769803
C118	C	0.085324	1.410550	-0.269803
C119	C	-0.510220	0.905580	-0.737091
C120	C	-0.010220	1.405580	-0.237091
C121	C	-0.442266	0.945675	-0.971650
C122	C	0.057734	1.445675	-0.471650
C123	C	-0.442219	0.945669	-1.037087
C124	C	0.057781	1.445669	-0.537087
C125	C	-0.577844	0.865496	-1.037035
C126	C	-0.077844	1.365496	-0.537035
C127	C	-0.577882	0.865498	-0.971600
C128	C	-0.077882	1.365498	-0.471600
C129	C	-0.510095	0.905591	-0.938911
C130	C	-0.010095	1.405591	-0.438911
C131	C	-0.510300	0.905488	-0.139418
C132	C	-0.010300	1.405488	0.360582
C133	C	-0.510011	0.905587	-0.069778
C134	C	-0.010011	1.405587	0.430222
H135	H	-0.387255	0.666971	-0.229549
H136	H	0.112745	1.166971	0.270451
C137	C	-0.367865	0.989766	-0.669463
C138	C	0.132135	1.489766	-0.169463
H139	H	-0.327505	1.013646	-0.640623
H140	H	0.172495	1.513646	-0.140623
H141	H	-0.321667	0.965816	-0.694972
H142	H	0.178333	1.465816	-0.194972
H143	H	-0.408413	1.017056	-0.695007
H144	H	0.091587	1.517056	-0.195007
C145	C	-0.652731	0.821396	-0.531946
C146	C	-0.152731	1.321396	-0.031946
H147	H	-0.693107	0.797527	-0.560788
H148	H	-0.193107	1.297527	-0.060788
H149	H	-0.612213	0.794105	-0.506392
H150	H	-0.112213	1.294105	-0.006392
H151	H	-0.698930	0.845363	-0.506447
H152	H	-0.198930	1.345363	-0.006447
H153	H	-0.918533	0.868234	-0.399567
H154	H	-0.418533	1.368234	0.100433
H155	H	-0.917599	0.839674	-0.221575
H156	H	-0.417599	1.339674	0.278425
H157	H	-0.919458	0.807914	-0.339381
H158	H	-0.419458	1.307914	0.160619
C159	C	-0.652650	0.821402	-0.669355
C160	C	-0.152650	1.321402	-0.169355
H161	H	-0.642925	0.827150	-0.713015
H162	H	-0.142925	1.327150	-0.213015
H163	H	-0.637160	0.779307	-0.658603
H164	H	-0.137160	1.279307	-0.158603
H165	H	-0.723883	0.830560	-0.658641
H166	H	-0.223883	1.330560	-0.158641
H167	H	-0.683481	0.896413	-0.743176
H168	H	-0.183481	1.396413	-0.243176
C169	C	-0.492547	0.474405	-0.183655
C170	C	0.007453	0.974405	0.316345
H171	H	-0.493769	0.518069	-0.191723
H172	H	0.006231	1.018069	0.308277
H173	H	-0.550146	0.463626	-0.157246
H174	H	-0.050146	0.963626	0.342754
H175	H	-0.427951	0.463689	-0.163689
H176	H	0.072049	0.963689	0.336311
H177	H	-0.336915	0.914593	-0.743162
H178	H	0.163085	1.414593	-0.243162
H179	H	-1.099500	0.838874	-0.222129
H180	H	-0.599500	1.338874	0.277871
H181	H	-0.633653	0.667017	-0.374688
H182	H	-0.133653	1.167017	0.125312
H183	H	-0.336848	0.914593	-0.861874
H184	H	0.163152	1.414593	-0.361874
C185	C	-0.908760	0.933627	-0.186001
C186	C	-0.408760	1.433627	0.313999
H187	H	-0.864649	0.964219	-0.204925
H188	H	-0.364649	1.464219	0.295075
H189	H	-0.967592	0.953553	-0.166921
H190	H	-0.467592	1.453553	0.333079
H191	H	-0.869687	0.911491	-0.155205
H192	H	-0.369687	1.411491	0.344795
H193	H	-1.100419	0.920975	-0.199087
H194	H	-0.600419	1.420975	0.300913
C195	C	-0.528192	0.337249	-0.420770
C196	C	-0.028192	0.837249	0.079230
H197	H	-0.533273	0.366142	-0.454374
H198	H	-0.033273	0.866142	0.045626
H199	H	-0.467439	0.311760	-0.426345
H200	H	0.032561	0.811760	0.073655
H201	H	-0.589635	0.311691	-0.419906
H202	H	-0.089635	0.811691	0.080094
C203	C	-0.652939	0.538963	-0.386200
C204	C	-0.152939	1.038963	0.113800
H205	H	-0.693376	0.567826	-0.410021
H206	H	-0.193376	1.067826	0.089979
H207	H	-0.612390	0.513504	-0.413536
H208	H	-0.112390	1.013504	0.086464
H209	H	-0.699082	0.513371	-0.362222
H210	H	-0.199082	1.013371	0.137778
H211	H	-0.525824	0.465285	-0.404593
H212	H	-0.025824	0.965285	0.095407
H213	H	-0.387232	0.548258	-0.229591
H214	H	0.112768	1.048258	0.270409
C215	C	-0.652492	0.821407	-0.935587
C216	C	-0.152492	1.321407	-0.435587
H217	H	-0.692866	0.797538	-0.964429
H218	H	-0.192866	1.297538	-0.464429
H219	H	-0.611964	0.794116	-0.910037
H220	H	-0.111964	1.294116	-0.410037
H221	H	-0.698692	0.845367	-0.910082
H222	H	-0.198692	1.345367	-0.410082
C223	C	-0.652906	0.272739	-0.386263
C224	C	-0.152906	0.772739	0.113737
H225	H	-0.643205	0.316393	-0.380515
H226	H	-0.143205	0.816393	0.119485
H227	H	-0.637488	0.262070	-0.428380
H228	H	-0.137488	0.762070	0.071620
H229	H	-0.724112	0.261971	-0.377026
H230	H	-0.224112	0.761971	0.122974
C231	C	-0.710715	0.895171	-0.871234
C232	C	-0.210715	1.395171	-0.371234
H233	H	-0.697015	0.895893	-0.914890
H234	H	-0.197015	1.395893	-0.414890
H235	H	-0.744634	0.857020	-0.860489
H236	H	-0.244634	1.357020	-0.360489
H237	H	-0.755299	0.929248	-0.860534
H238	H	-0.255299	1.429248	-0.360534
H239	H	-0.387064	0.978317	-0.945034
H240	H	0.112936	1.478317	-0.445034
H241	H	-0.633031	0.832855	-1.063655
H242	H	-0.133031	1.332855	-0.563655
H243	H	-0.386986	0.978312	-1.063741
H244	H	0.113014	1.478312	-0.563741
C245	C	-0.652874	0.135327	-0.386304
C246	C	-0.152874	0.635327	0.113696
H247	H	-0.693336	0.164192	-0.410107
H248	H	-0.193336	0.664192	0.089893
H249	H	-0.612402	0.109847	-0.413659
H250	H	-0.112402	0.609847	0.086341
H251	H	-0.698990	0.109758	-0.362284
H252	H	-0.198990	0.609758	0.137716
C253	C	-0.492571	0.336993	-0.183701
C254	C	0.007429	0.836993	0.316299
H255	H	-0.493810	0.293346	-0.191797
H256	H	0.006190	0.793346	0.308203
H257	H	-0.428003	0.347707	-0.163702
H258	H	0.071997	0.847707	0.336298
H259	H	-0.550206	0.347679	-0.157309
H260	H	-0.050206	0.847679	0.342691
H261	H	-0.387091	0.144621	-0.229735
H262	H	0.112909	0.644621	0.270265
C263	C	-0.367744	0.272681	-0.218258
C264	C	0.132256	0.772681	0.281742
H265	H	-0.377475	0.316339	-0.223976
H266	H	0.122525	0.816339	0.276024
H267	H	-0.383146	0.261905	-0.176148
H268	H	0.116854	0.761905	0.323852
H269	H	-0.296533	0.262000	-0.227508
H270	H	0.203467	0.762000	0.272492
H271	H	-1.100658	0.868378	-0.399884
H272	H	-0.600658	1.368378	0.100116
C273	C	-1.112988	0.791332	-0.335792
C274	C	-0.612988	1.291332	0.164208
H275	H	-1.157594	0.793098	-0.300102
H276	H	-0.657594	1.293098	0.199898
H277	H	-1.152006	0.775947	-0.370463
H278	H	-0.652006	1.275947	0.129537
H279	H	-1.055116	0.764256	-0.327565
H280	H	-0.555116	1.264256	0.172435
H281	H	-1.101533	0.988178	-0.366510
H282	H	-0.601533	1.488178	0.133490
C283	C	-0.908697	0.989685	-0.386265
C284	C	-0.408697	1.489685	0.113735
H285	H	-0.865338	0.957232	-0.402395
H286	H	-0.365338	1.457232	0.097605
H287	H	-0.967582	0.995808	-0.413137
H288	H	-0.467582	1.495808	0.086863
H289	H	-0.868851	1.027256	-0.383758
H290	H	-0.368851	1.527256	0.116242
C291	C	-0.906650	1.022636	-0.276349
C292	C	-0.406650	1.522636	0.223651
H293	H	-0.861502	1.004358	-0.245927
H294	H	-0.361502	1.504358	0.254073
H295	H	-0.868278	1.052850	-0.299720
H296	H	-0.368278	1.552850	0.200280
H297	H	-0.964626	1.042264	-0.256074
H298	H	-0.464626	1.542264	0.243926
C299	C	-1.109693	1.020468	-0.271393
C300	C	-0.609693	1.520468	0.228607
H301	H	-1.153414	1.000501	-0.241274
H302	H	-0.653414	1.500501	0.258726
H303	H	-1.050655	1.038926	-0.251073
H304	H	-0.550655	1.538926	0.248927
H305	H	-1.149071	1.051947	-0.292342
H306	H	-0.649071	1.551947	0.207658
H307	H	-0.387306	0.978310	-0.541397
H308	H	0.112694	1.478310	-0.041397
