data_functionalizedCrystal
_audit_creation_method	'MofGen! by Chris Wilmer'
_symmetry_space_group_name_H-M	'P1'
_symmetry_Int_Tables_number	1
_symmetry_cell_setting	triclinic
loop_
_symmetry_equiv_pos_as_xyz
  x,y,z
_cell_length_a	10.723024
_cell_length_b	14.853567
_cell_length_c	9.798715
_cell_angle_alpha	90.000647
_cell_angle_beta	89.996609
_cell_angle_gamma	84.051400
loop_
_atom_site_label
_atom_site_type_symbol
_atom_site_fract_x
_atom_site_fract_y
_atom_site_fract_z
O1	O	1.655908	0.126445	-0.113470
O2	O	1.292633	0.138549	-0.113473
O3	O	1.483974	0.001318	-0.113475
O4	O	1.464567	0.263675	-0.113467
O5	O	1.483960	0.001318	0.113507
O6	O	1.292619	0.138548	0.113509
O7	O	1.655894	0.126445	0.113513
Zn8	Zn	1.474254	0.132497	0.149549
Zn9	Zn	1.474273	0.132497	-0.149510
O10	O	1.464553	0.263675	0.113515
C11	C	1.246136	0.137668	0.000017
C12	C	1.107608	0.135032	0.000016
C13	C	1.031849	0.211819	0.000017
C14	C	0.888673	0.209097	0.000015
C15	C	1.483088	-0.032275	0.000012
C16	C	1.480453	-0.132373	-0.000000
C17	C	1.355653	-0.545565	0.000025
C18	C	1.582971	-0.565646	0.000027
C19	C	1.585448	-0.471599	0.000019
C20	C	1.473027	-0.414531	0.000016
C21	C	1.358127	-0.451510	0.000021
C22	C	1.700345	-0.434614	0.000028
C23	C	1.702828	-0.340562	0.000021
C24	C	1.590405	-0.283491	0.000008
C25	C	1.475501	-0.320475	0.000012
C26	C	1.363079	-0.263407	0.000009
C27	C	1.248174	-0.300389	0.000003
C28	C	1.245704	-0.394440	0.000008
C29	C	1.592874	-0.189441	0.000003
C30	C	1.365554	-0.169351	0.000005
C31	C	1.702392	0.127326	0.000019
C32	C	1.840919	0.129961	0.000012
C33	C	1.465439	0.297269	0.000025
C34	C	1.468075	0.397366	0.000028
N35	N	1.474251	0.132496	0.353649
N36	N	1.474287	0.132491	-0.353609
C37	C	1.554592	0.074623	0.421425
C38	C	1.554612	0.074619	0.578588
H39	H	1.274005	-0.122892	-0.000003
C40	C	1.055169	-0.254298	0.116681
C41	C	1.124602	-0.237653	0.000001
H42	H	0.978888	-0.215560	0.116681
H43	H	1.037243	-0.315594	0.116665
H44	H	1.102283	-0.243013	0.195828
H45	H	1.077491	-0.248945	-0.079147
H46	H	1.142524	-0.176343	0.000005
C47	C	1.218457	0.288282	0.000025
C48	C	1.087368	0.303292	0.000023
H49	H	1.252727	0.344757	0.000022
H50	H	1.245768	0.254964	0.079173
H51	H	1.245779	0.254959	-0.079135
H52	H	1.060045	0.336610	0.079189
H53	H	1.060046	0.336624	-0.079133
C54	C	0.675977	0.277970	0.000017
C55	C	0.800803	0.297844	0.000018
H56	H	0.621730	0.332762	0.000027
H57	H	0.660774	0.243845	-0.079134
H58	H	0.660768	0.243836	0.079174
H59	H	0.816015	0.331972	-0.079145
H60	H	0.816012	0.331984	0.079177
C61	C	0.978142	0.037196	-0.116679
C62	C	1.052092	0.043558	0.000007
H63	H	0.943880	-0.019281	-0.116687
H64	H	0.912065	0.085012	-0.116665
H65	H	1.028339	0.041528	-0.195822
H66	H	1.001893	0.039233	0.079150
H67	H	1.118178	-0.004270	0.000005
C68	C	1.140983	-0.529695	0.000041
C69	C	1.119409	-0.435093	0.000022
H70	H	1.063013	-0.554792	0.000063
H71	H	1.187268	-0.549233	-0.079109
H72	H	1.187282	-0.549216	0.079200
H73	H	1.073118	-0.415571	-0.079142
H74	H	1.073104	-0.415546	0.079180
C75	C	1.807913	-0.576051	0.000025
C76	C	1.706541	-0.628372	0.000031
H77	H	1.884202	-0.614780	0.000033
H78	H	1.804153	-0.538956	-0.079128
H79	H	1.804141	-0.538943	0.079181
H80	H	1.710307	-0.665475	-0.079130
H81	H	1.710302	-0.665482	0.079191
H82	H	0.906010	0.064222	0.000002
H83	H	1.791873	-0.481085	0.000043
H84	H	1.623400	0.025075	0.636872
C85	C	1.448000	0.254930	0.485556
C86	C	1.381424	0.199386	0.567727
H87	H	1.390669	0.296224	0.436980
H88	H	1.500080	0.287620	0.541293
H89	H	1.498388	0.218614	0.422650
H90	H	1.331043	0.235702	0.630639
H91	H	1.329322	0.166694	0.511984
C92	C	1.927278	-0.369868	0.000014
C93	C	1.829128	-0.299915	0.000012
H94	H	2.005249	-0.344772	-0.000004
H95	H	1.921583	-0.406125	0.079169
H96	H	1.921576	-0.406141	-0.079139
H97	H	1.834824	-0.263646	0.079171
H98	H	1.834825	-0.263643	-0.079151
C99	C	1.727534	-0.095325	-0.116675
C100	C	1.719161	-0.148784	0.000010
H101	H	1.805499	-0.070222	-0.116665
H102	H	1.721863	-0.131604	-0.195810
H103	H	1.660926	-0.047883	-0.116670
H104	H	1.785764	-0.196230	0.000001
H105	H	1.724845	-0.112502	0.079166
C106	C	1.627007	-0.081033	0.377057
C107	C	1.647431	0.007754	0.342663
H108	H	1.684320	-0.122308	0.328417
H109	H	1.639228	-0.089825	0.472327
H110	H	1.543623	-0.091182	0.353731
H111	H	1.730813	0.017906	0.365999
H112	H	1.635220	0.016550	0.247372
H113	H	1.262100	-0.575681	0.000014
H114	H	1.405477	0.182038	0.411974
