data_functionalizedCrystal
_audit_creation_method	'MofGen! by Chris Wilmer'
_symmetry_space_group_name_H-M	'P1'
_symmetry_Int_Tables_number	1
_symmetry_cell_setting	triclinic
loop_
_symmetry_equiv_pos_as_xyz
  x,y,z
_cell_length_a	10.686220
_cell_length_b	18.050590
_cell_length_c	10.686551
_cell_angle_alpha	94.409718
_cell_angle_beta	89.691918
_cell_angle_gamma	94.400502
loop_
_atom_site_label
_atom_site_type_symbol
_atom_site_fract_x
_atom_site_fract_y
_atom_site_fract_z
Zn1	Zn	1.972267	-0.181058	0.562364
Zn2	Zn	1.956022	-0.315478	0.352590
Zn3	Zn	1.746383	-0.200056	0.368680
Zn4	Zn	1.762452	-0.313973	0.578368
O5	O	1.859281	-0.252641	0.465500
O6	O	2.145654	-0.191568	0.521106
O7	O	1.914689	-0.308747	0.179178
O8	O	1.776420	-0.093606	0.394409
O9	O	2.133719	-0.290326	0.366986
O10	O	1.942376	-0.079649	0.536708
O11	O	1.760668	-0.223948	0.190999
O12	O	1.572972	-0.222488	0.409926
O13	O	1.803808	-0.287761	0.751791
O14	O	1.584778	-0.306182	0.563983
O15	O	1.957958	-0.190109	0.740034
O16	O	1.930271	-0.419208	0.382503
O17	O	1.788056	-0.418102	0.548381
C18	C	1.533359	-0.266234	0.490438
C19	C	1.393930	-0.272065	0.501136
C20	C	1.859181	-0.445600	0.465458
C21	C	1.859256	-0.528141	0.465473
C22	C	1.936775	-0.728153	0.375372
C23	C	1.976211	-0.770629	0.487518
C24	C	1.859331	-0.679266	0.465517
C25	C	1.820026	-0.783864	0.353412
C26	C	1.859405	-0.825247	0.465550
C27	C	1.898830	-0.720649	0.577719
C28	C	1.742586	-0.733886	0.443540
C29	C	1.781985	-0.776338	0.555769
C30	C	1.859291	-0.595171	0.465496
C31	C	1.859445	-0.909340	0.465584
C32	C	2.186476	-0.238996	0.440466
C33	C	2.325907	-0.233181	0.429798
C34	C	1.884487	-0.236648	0.792702
C35	C	1.895229	-0.229832	0.932137
C36	C	1.859418	-0.058926	0.465568
C37	C	1.859476	0.023624	0.465597
C38	C	1.834245	-0.268516	0.139566
C39	C	1.823746	-0.275112	0.000114
H40	H	1.374337	-0.195429	0.360537
H41	H	1.964656	-0.185853	0.980615
C42	C	1.198452	-0.319145	0.587500
C43	C	1.328555	-0.323035	0.594642
H44	H	1.158096	-0.350608	0.645233
H45	H	1.170534	-0.334947	0.504816
H46	H	1.178493	-0.269241	0.607631
H47	H	1.348515	-0.372939	0.574503
H48	H	1.356484	-0.307237	0.677345
H49	H	2.002297	-0.706968	0.299210
H50	H	1.932014	-0.693203	0.672629
C51	C	1.666078	-0.375013	1.025103
C52	C	1.730041	-0.334492	0.934687
H53	H	1.608237	-0.411677	0.984702
H54	H	1.621999	-0.342190	1.079884
H55	H	1.724621	-0.398665	1.072027
H56	H	1.671498	-0.310836	0.887768
H57	H	1.774121	-0.367320	0.879883
C58	C	2.190440	-0.768422	0.418120
C59	C	2.109529	-0.792707	0.512644
H60	H	2.272742	-0.782055	0.433624
H61	H	2.191511	-0.715785	0.417535
H62	H	2.161947	-0.790967	0.339096
H63	H	2.138017	-0.770157	0.591668
H64	H	2.108463	-0.845354	0.513242
C65	C	1.735110	-0.772437	0.776056
C66	C	1.693624	-0.804746	0.658803
H67	H	1.680567	-0.789981	0.839664
H68	H	1.735124	-0.719775	0.777036
H69	H	1.817771	-0.785656	0.790993
H70	H	1.610967	-0.791523	0.643862
H71	H	1.693598	-0.857420	0.657820
H72	H	1.643850	-0.717523	0.424893
C73	C	1.856304	-0.796715	0.131154
C74	C	1.775096	-0.821037	0.225414
H75	H	1.828567	-0.819659	0.052132
H76	H	1.938721	-0.809861	0.147397
H77	H	1.856682	-0.744128	0.129996
H78	H	1.774725	-0.873623	0.226578
H79	H	1.692658	-0.807896	0.209167
