data_functionalizedCrystal
_audit_creation_method	'MofGen! by Chris Wilmer'
_symmetry_space_group_name_H-M	'P1'
_symmetry_Int_Tables_number	1
_symmetry_cell_setting	triclinic
loop_
_symmetry_equiv_pos_as_xyz
  x,y,z
_cell_length_a	15.944493
_cell_length_b	18.266242
_cell_length_c	15.944493
_cell_angle_alpha	90.000472
_cell_angle_beta	83.475044
_cell_angle_gamma	90.008470
loop_
_atom_site_label
_atom_site_type_symbol
_atom_site_fract_x
_atom_site_fract_y
_atom_site_fract_z
O1	O	1.114537	0.060862	0.108104
O2	O	1.614537	0.560862	0.608104
O3	O	0.869978	0.060864	0.121512
O4	O	1.369978	0.560864	0.621512
O5	O	0.998962	0.060869	-0.007471
O6	O	1.498962	0.560869	0.492529
O7	O	0.985554	0.060857	0.237088
O8	O	1.485554	0.560857	0.737088
O9	O	0.998940	-0.060893	-0.007478
O10	O	1.498940	0.439107	0.492522
O11	O	0.869956	-0.060898	0.121505
O12	O	1.369956	0.439102	0.621505
O13	O	1.114515	-0.060900	0.108098
O14	O	1.614515	0.439100	0.608098
Zn15	Zn	0.992232	-0.080232	0.114800
Zn16	Zn	1.492232	0.419768	0.614800
Zn17	Zn	0.992261	0.080195	0.114809
Zn18	Zn	1.492261	0.580195	0.614809
O19	O	0.985532	-0.060905	0.237081
O20	O	1.485532	0.439095	0.737081
C21	C	0.838673	-0.000017	0.120961
C22	C	1.338673	0.499983	0.620961
C23	C	0.745424	-0.000015	0.119318
C24	C	1.245424	0.499985	0.619318
N25	N	0.992219	-0.189718	0.114794
N26	N	1.492219	0.310282	0.614794
C27	C	0.509649	-0.000018	0.195240
C28	C	1.009649	0.499982	0.695240
C29	C	0.459088	-0.060055	0.154295
C30	C	0.959088	0.439945	0.654295
C31	C	0.574704	-0.000016	0.116273
C32	C	1.074704	0.499984	0.616273
C33	C	0.459114	0.059993	0.154283
C34	C	0.959114	0.559993	0.654283
C35	C	0.409795	-0.000014	0.113339
C36	C	0.909795	0.499986	0.613339
C37	C	0.525372	-0.060102	0.075350
C38	C	1.025372	0.439898	0.575350
C39	C	0.525401	0.060000	0.075349
C40	C	1.025401	0.560000	0.575349
C41	C	0.474873	-0.000051	0.034346
C42	C	0.974873	0.499949	0.534346
C43	C	0.669704	-0.000018	0.117966
C44	C	1.169704	0.499982	0.617966
C45	C	0.314798	-0.000018	0.111640
C46	C	0.814798	0.499982	0.611640
C47	C	1.049351	-0.228025	0.057708
C48	C	1.549351	0.271975	0.557708
C49	C	1.049357	-0.304670	0.057704
C50	C	1.549357	0.195330	0.557704
C51	C	0.992238	-0.343005	0.114801
C52	C	1.492238	0.156995	0.614801
C53	C	0.935094	-0.304689	0.171891
C54	C	1.435094	0.195311	0.671891
C55	C	0.935085	-0.228046	0.171887
C56	C	1.435085	0.271954	0.671887
N57	N	0.981535	-0.463341	0.189128
N58	N	1.481535	0.036659	0.689128
N59	N	0.981549	-0.536149	0.189129
N60	N	1.481549	-0.036149	0.689129
C61	C	0.992261	-0.573928	0.114813
C62	C	1.492261	-0.073928	0.614813
N63	N	1.002976	-0.536148	0.040494
N64	N	1.502976	-0.036148	0.540494
N65	N	1.002966	-0.463333	0.040494
N66	N	1.502966	0.036667	0.540494
C67	C	0.992241	-0.426112	0.114810
C68	C	1.492241	0.073888	0.614810
C69	C	1.049403	-0.695342	0.057718
C70	C	1.549403	-0.195342	0.557718
C71	C	1.049402	-0.771988	0.057713
C72	C	1.549402	-0.271988	0.557713
C73	C	0.935144	-0.772006	0.171907
C74	C	1.435144	-0.272006	0.671907
C75	C	0.935140	-0.695361	0.171905
C76	C	1.435140	-0.195361	0.671905
C77	C	0.992274	-0.657033	0.114811
C78	C	1.492274	-0.157033	0.614811
C79	C	1.145821	-0.000018	0.108649
C80	C	1.645821	0.499982	0.608649
C81	C	1.239069	-0.000015	0.110292
C82	C	1.739069	0.499985	0.610292
C83	C	0.998403	-0.000009	-0.038769
C84	C	1.498403	0.499991	0.461231
C85	C	0.996760	0.000000	-0.132018
C86	C	1.496760	0.500000	0.367982
N87	N	0.992281	0.189682	0.114809
N88	N	1.492281	0.689682	0.614809
C89	C	1.072682	-0.000014	-0.367793
C90	C	1.572682	0.499986	0.132207
C91	C	1.031751	0.060021	-0.418350
C92	C	1.531751	0.560021	0.081650
C93	C	0.993716	-0.000009	-0.302738
C94	C	1.493716	0.499991	0.197262
C95	C	1.031711	-0.060027	-0.418332
C96	C	1.531711	0.439973	0.081668
C97	C	0.990781	-0.000021	-0.467647
C98	C	1.490781	0.499979	0.032353
C99	C	0.952806	0.060076	-0.352066
C100	C	1.452806	0.560076	0.147934
C101	C	0.952777	-0.060026	-0.352045
C102	C	1.452777	0.439974	0.147955
C103	C	0.911788	0.000024	-0.402569
C104	C	1.411788	0.500024	0.097431
C105	C	0.995408	-0.000001	-0.207739
C106	C	1.495408	0.499999	0.292261
C107	C	0.989082	-0.000023	-0.562644
C108	C	1.489082	0.499977	-0.062644
C109	C	0.986091	-0.000026	0.268379
C110	C	1.486091	0.499974	0.768379
C111	C	0.987734	-0.000030	0.361627
C112	C	1.487734	0.499970	0.861627
H113	H	0.525258	-0.000078	0.263261
H114	H	1.025258	0.499922	0.763261
F115	F	0.563269	0.126348	0.031803
F116	F	1.063269	0.626348	0.531803
H117	H	0.554197	-0.110908	0.042018
H118	H	1.054197	0.389092	0.542018
F119	F	1.075307	-0.126364	-0.456158
F120	F	1.575307	0.373636	0.043842
H121	H	0.919485	0.110885	-0.323237
H122	H	1.419485	0.610885	0.176763
F123	F	0.874336	-0.654589	0.232667
F124	F	1.374336	-0.154589	0.732667
F125	F	0.421242	-0.126399	0.197879
F126	F	0.921242	0.373601	0.697879
F127	F	1.110168	-0.345446	-0.003057
F128	F	1.610168	0.154554	0.496943
H129	H	0.459422	-0.000082	-0.033727
H130	H	0.959422	0.499918	0.466273
H131	H	1.065109	0.110776	-0.447300
H132	H	1.565109	0.610776	0.052700
H133	H	0.919448	-0.110783	-0.323080
H134	H	1.419448	0.389217	0.176920
F135	F	1.110209	-0.812758	-0.003053
F136	F	1.610209	-0.312758	0.496947
F137	F	0.874348	-0.812801	0.232668
F138	F	1.374348	-0.312801	0.732668
F139	F	0.874274	-0.187275	0.232649
F140	F	1.374274	0.312725	0.732649
H141	H	1.140702	0.000045	-0.352179
H142	H	1.640702	0.500045	0.147821
H143	H	0.430178	0.110742	0.187650
H144	H	0.930178	0.610742	0.687650
F145	F	1.110206	-0.654550	-0.003049
F146	F	1.610206	-0.154550	0.496951
H147	H	1.095871	-0.196821	0.011217
H148	H	1.595871	0.303179	0.511217
H149	H	0.888586	-0.335906	0.218378
H150	H	1.388586	0.164094	0.718378
F151	F	0.822813	0.000066	-0.422768
F152	F	1.322813	0.500066	0.077232
