data_functionalizedCrystal
_audit_creation_method	'MofGen! by Chris Wilmer'
_symmetry_space_group_name_H-M	'P1'
_symmetry_Int_Tables_number	1
_symmetry_cell_setting	triclinic
loop_
_symmetry_equiv_pos_as_xyz
  x,y,z
_cell_length_a	19.805407
_cell_length_b	12.759400
_cell_length_c	12.759393
_cell_angle_alpha	89.968095
_cell_angle_beta	89.979299
_cell_angle_gamma	90.012001
loop_
_atom_site_label
_atom_site_type_symbol
_atom_site_fract_x
_atom_site_fract_y
_atom_site_fract_z
Zn1	Zn	1.034810	-0.418276	-0.594048
Zn2	Zn	1.034742	-0.593996	-0.418368
Zn3	Zn	0.921619	-0.418323	-0.418380
Zn4	Zn	0.921611	-0.593905	-0.594002
O5	O	0.978196	-0.506125	-0.506199
O6	O	1.129518	-0.441604	-0.570757
O7	O	1.019711	-0.570750	-0.271348
O8	O	0.936666	-0.271296	-0.441707
O9	O	1.129468	-0.570704	-0.441686
O10	O	1.019827	-0.271261	-0.570769
O11	O	0.936600	-0.441684	-0.271357
O12	O	0.826902	-0.441597	-0.441662
O13	O	0.936653	-0.570550	-0.741029
O14	O	0.826896	-0.570596	-0.570691
O15	O	1.019819	-0.441516	-0.741063
O16	O	1.019704	-0.741005	-0.441642
O17	O	0.936587	-0.740938	-0.570680
C18	C	0.802340	-0.506092	-0.506174
C19	C	0.727108	-0.506103	-0.506188
C20	C	0.978156	-0.779093	-0.506177
C21	C	0.978200	-0.895869	-0.506203
C22	C	1.021527	-0.950731	-0.439087
C23	C	1.021569	-1.060455	-0.439120
C24	C	0.934951	-1.060446	-0.573387
C25	C	0.934913	-0.950724	-0.573359
C26	C	1.071534	-0.950737	-0.361566
C27	C	1.071575	-1.060461	-0.361599
C28	C	0.691790	-0.439000	-0.573497
C29	C	0.621102	-0.439005	-0.573501
C30	C	0.585732	-0.506121	-0.506200
C31	C	0.621055	-0.573227	-0.438883
C32	C	0.691742	-0.573216	-0.438875
C33	C	0.335981	-0.573275	-0.438916
C34	C	0.265289	-0.573283	-0.438932
C35	C	0.265341	-0.439064	-0.573542
C36	C	0.336028	-0.439052	-0.573534
C37	C	0.371345	-0.506155	-0.506213
C38	C	0.447993	-0.506147	-0.506208
C39	C	0.509085	-0.506135	-0.506210
C40	C	1.154739	-0.506159	-0.506226
C41	C	1.229970	-0.506173	-0.506237
C42	C	0.978243	-0.506018	-0.780233
C43	C	0.978263	-0.505972	-0.897009
C44	C	0.978255	-0.232092	-0.506244
C45	C	0.978280	-0.115315	-0.506263
C46	C	0.935018	-0.438728	-1.061609
C47	C	0.935001	-0.438758	-0.951884
C48	C	1.021549	-0.573153	-0.951864
C49	C	1.021569	-0.573117	-1.061587
C50	C	0.885047	-0.361139	-1.061619
C51	C	0.885031	-0.361169	-0.951895
C52	C	0.978188	-0.506157	-0.233232
C53	C	0.978299	-0.505906	-0.116456
H54	H	0.899639	-0.906056	-0.628019
O55	O	1.130985	-1.100845	-0.396600
C56	C	1.142816	-1.066540	-0.500051
H57	H	1.113445	-0.991173	-0.514988
H58	H	1.125508	-1.129466	-0.557474
C59	C	1.254869	-1.138441	-0.496963
C60	C	1.218800	-1.045869	-0.515306
H61	H	1.301739	-1.125694	-0.506376
H62	H	1.246898	-1.161557	-0.427267
H63	H	1.240439	-1.190871	-0.544818
H64	H	1.233224	-0.993446	-0.467443
H65	H	1.226775	-1.022744	-0.584995
H66	H	0.832597	-0.382954	-0.922104
H67	H	1.123938	-0.920883	-0.383421
H68	H	1.052770	-0.916789	-0.284239
O69	O	0.825644	-0.396034	-1.102084
C70	C	0.813749	-0.499489	-1.067850
H71	H	0.843075	-0.514509	-0.992463
H72	H	0.831062	-0.556900	-1.130793
C73	C	0.701734	-0.496211	-1.139859
C74	C	0.737748	-0.514655	-1.047262
H75	H	0.654853	-0.505569	-1.127163
H76	H	0.709748	-0.426512	-1.162926
H77	H	0.716169	-0.544055	-1.192301
H78	H	0.723319	-0.466803	-0.994825
H79	H	0.729730	-0.584346	-1.024185
O80	O	0.892880	-1.113571	-0.638714
C81	C	0.854617	-1.041616	-0.697926
H82	H	0.882311	-0.963365	-0.701577
H83	H	0.803220	-1.030042	-0.659380
C84	C	0.810828	-1.180463	-0.805259
C85	C	0.844844	-1.084356	-0.809751
H86	H	0.804797	-1.206828	-0.874237
H87	H	0.836604	-1.228941	-0.765365
H88	H	0.768001	-1.170805	-0.773133
H89	H	0.887674	-1.094017	-0.841864
H90	H	0.819075	-1.035880	-0.849653
O91	O	0.907539	-0.269056	-0.911258
C92	C	0.965125	-0.287800	-0.849079
H93	H	0.990016	-0.364155	-0.874708
H94	H	0.949551	-0.294015	-0.763274
C95	C	0.984868	-0.102954	-0.830968
C96	C	1.015444	-0.196731	-0.862453
H97	H	1.015907	-0.046778	-0.839213
H98	H	0.946071	-0.090326	-0.872856
H99	H	0.971892	-0.108149	-0.759466
H100	H	1.028412	-0.191540	-0.933956
H101	H	1.054245	-0.209357	-0.820577
H102	H	0.592251	-0.627869	-0.384081
H103	H	1.056778	-0.627873	-0.907177
O104	O	0.370460	-0.373805	-0.638764
C105	C	0.411323	-0.305857	-0.579055
H106	H	0.421886	-0.342819	-0.499371
H107	H	0.384084	-0.227989	-0.567649
C108	C	0.465515	-0.241494	-0.734751
C109	C	0.478493	-0.286895	-0.636884
H110	H	0.506948	-0.229792	-0.770423
H111	H	0.437984	-0.287268	-0.774978
H112	H	0.442814	-0.176609	-0.725231
H113	H	0.501186	-0.351784	-0.646405
H114	H	0.506030	-0.241131	-0.596659
H115	H	1.057571	-1.090323	-0.280217
H116	H	0.899105	-0.279760	-1.091416
H117	H	0.720583	-0.384349	-0.628305
H118	H	0.592349	-0.384364	-0.628314
H119	H	0.236493	-0.627939	-0.384123
O120	O	0.230959	-0.374017	-0.638983
C121	C	0.190097	-0.433919	-0.706758
H122	H	0.179488	-0.513494	-0.669564
H123	H	0.217361	-0.445555	-0.784592
C124	C	0.135993	-0.278406	-0.771575
C125	C	0.122958	-0.376139	-0.725889
H126	H	0.094579	-0.242763	-0.783380
H127	H	0.163524	-0.238048	-0.725917
H128	H	0.158714	-0.288116	-0.836431
H129	H	0.100245	-0.366427	-0.661028
H130	H	0.095422	-0.416494	-0.771536
H131	H	0.364728	-0.627915	-0.384100
H132	H	1.056819	-0.627811	-1.106239
O133	O	0.725947	-0.638504	-0.373461
C134	C	0.679573	-0.697729	-0.314044
H135	H	0.629197	-0.701425	-0.357076
H136	H	0.672035	-0.659164	-0.234318
C137	C	0.769023	-0.804984	-0.245853
C138	C	0.707151	-0.809531	-0.298711
H139	H	0.786034	-0.873948	-0.236390
H140	H	0.800266	-0.765081	-0.285880
H141	H	0.762733	-0.772843	-0.179420
H142	H	0.713443	-0.841660	-0.365147
H143	H	0.675909	-0.849442	-0.258695
