data_functionalizedCrystal
_audit_creation_method	'MofGen! by Chris Wilmer'
_symmetry_space_group_name_H-M	'P1'
_symmetry_Int_Tables_number	1
_symmetry_cell_setting	triclinic
loop_
_symmetry_equiv_pos_as_xyz
  x,y,z
_cell_length_a	16.992694
_cell_length_b	15.995350
_cell_length_c	15.455313
_cell_angle_alpha	92.667328
_cell_angle_beta	87.142206
_cell_angle_gamma	87.080299
loop_
_atom_site_label
_atom_site_type_symbol
_atom_site_fract_x
_atom_site_fract_y
_atom_site_fract_z
O1	O	1.043823	0.174116	-0.072015
O2	O	0.815539	0.172167	-0.072041
O3	O	0.935921	0.051671	-0.072026
O4	O	0.923440	0.294611	-0.072029
O5	O	0.929037	0.058531	0.072235
O6	O	0.808655	0.179027	0.072221
O7	O	1.036939	0.180976	0.072246
Cu8	Cu	0.922168	0.180628	0.085406
Cu9	Cu	0.930309	0.172515	-0.085200
O10	O	0.916556	0.301471	0.072232
C11	C	0.782884	0.173091	0.000087
C12	C	0.695840	0.165614	0.000077
C13	C	0.645600	0.237750	0.000077
C14	C	0.563813	0.230720	0.000089
C15	C	0.532268	0.151555	0.000095
C16	C	0.582515	0.079414	0.000098
C17	C	0.664300	0.086445	0.000092
C18	C	0.288669	0.122418	0.000118
C19	C	0.206878	0.115393	0.000122
C20	C	0.188181	0.266700	0.000114
C21	C	0.269969	0.273723	0.000103
C22	C	0.320208	0.201582	0.000111
N23	N	0.448669	0.144368	0.000104
N24	N	0.403806	0.208770	0.000107
C25	C	0.931963	0.023872	0.000103
C26	C	0.930416	-0.069182	0.000098
C27	C	0.924861	-0.407301	0.000100
C28	C	0.839142	-0.365620	-0.000233
C29	C	0.840674	-0.268811	0.000092
C30	C	0.927617	-0.239556	0.000098
C31	C	0.965973	-0.273887	0.082482
C32	C	0.963816	-0.370663	0.082550
C33	C	0.973415	-0.378704	-0.081501
C34	C	0.973447	-0.281812	-0.082590
C35	C	0.929178	-0.144754	0.000100
C36	C	0.923301	-0.502103	0.000104
C37	C	1.069593	0.180052	0.000117
C38	C	1.156637	0.187528	0.000121
C39	C	0.920514	0.329271	0.000101
C40	C	0.922061	0.422324	0.000101
N41	N	0.916448	0.186334	0.205401
N42	N	0.936036	0.166802	-0.205195
C43	C	0.967608	0.135164	0.250801
C44	C	0.963289	0.139488	0.341608
C45	C	0.907813	0.194986	0.387014
C46	C	0.856647	0.246157	0.341607
C47	C	0.860963	0.241829	0.250801
C48	C	0.889185	0.213646	0.658593
C49	C	0.884875	0.217972	0.749405
C50	C	0.991517	0.111301	0.749400
C51	C	0.995831	0.106981	0.658592
C52	C	0.944662	0.158150	0.613194
N53	N	0.903399	0.199408	0.479833
N54	N	0.949073	0.153722	0.520376
H55	H	0.810251	-0.245421	-0.058964
H56	H	0.147268	0.325432	0.000110
H57	H	1.041003	0.061791	0.621625
C58	C	0.172181	0.028301	0.000127
N59	N	0.146047	-0.037294	0.000130
H60	H	1.012786	0.089976	0.213838
C61	C	0.795616	0.307197	0.391556
N62	N	0.749645	0.353173	0.429177
C63	C	0.804689	0.298127	0.200862
N64	N	0.762301	0.340532	0.163248
C65	C	0.922339	-0.234269	0.165300
N66	N	0.889468	-0.204431	0.227678
C67	C	0.796650	-0.397557	-0.080041
N68	N	0.764643	-0.421621	-0.140152
H69	H	1.029701	-0.255341	0.085550
C70	C	0.791655	-0.230388	0.080003
N71	N	0.754733	-0.201449	0.140196
C72	C	0.939569	-0.412994	-0.165858
N73	N	0.914068	-0.438819	-0.229390
H74	H	0.556824	0.014957	0.000115
H75	H	0.930041	-0.388100	0.144129
H76	H	0.802224	-0.384703	0.058509
H77	H	1.026582	-0.398522	0.086293
H78	H	0.295647	0.338187	0.000088
H79	H	0.329565	0.063675	0.000125
H80	H	0.839698	0.263168	0.786370
C81	C	0.680291	0.324838	0.000071
N82	N	0.706417	0.390436	0.000072
C83	C	0.935647	-0.251660	-0.164928
N84	N	0.907169	-0.228952	-0.226943
C85	C	1.058845	-0.415938	-0.082247
N86	N	1.123187	-0.443988	-0.082804
C87	C	0.508551	0.310076	0.000104
N88	N	0.466927	0.369852	0.000122
H89	H	1.037086	-0.262444	-0.087560
H90	H	1.004948	0.097821	0.378573
C91	C	0.719565	0.007090	0.000089
N92	N	0.761190	-0.052683	0.000090
H93	H	1.033175	0.069641	0.786372
H94	H	0.847523	0.255311	0.621636
