data_functionalizedCrystal
_audit_creation_method	'MofGen! by Chris Wilmer'
_symmetry_space_group_name_H-M	'P1'
_symmetry_Int_Tables_number	1
_symmetry_cell_setting	triclinic
loop_
_symmetry_equiv_pos_as_xyz
  x,y,z
_cell_length_a	17.699077
_cell_length_b	8.559649
_cell_length_c	16.176319
_cell_angle_alpha	89.994635
_cell_angle_beta	89.992710
_cell_angle_gamma	76.529620
loop_
_atom_site_label
_atom_site_type_symbol
_atom_site_fract_x
_atom_site_fract_y
_atom_site_fract_z
O1	O	0.992513	0.202065	-0.068732
O2	O	1.492513	0.702065	0.431268
O3	O	0.770628	0.228369	-0.068735
O4	O	1.270628	0.728369	0.431265
O5	O	0.901119	-0.017462	-0.068732
O6	O	1.401119	0.482538	0.431268
O7	O	0.862022	0.447896	-0.068735
O8	O	1.362022	0.947896	0.431265
O9	O	0.901103	-0.017477	0.068761
O10	O	1.401103	0.482523	0.568761
O11	O	0.770612	0.228355	0.068758
O12	O	1.270612	0.728355	0.568758
O13	O	0.992497	0.202050	0.068761
O14	O	1.492497	0.702050	0.568761
Cu15	Cu	0.881553	0.215201	0.081314
Cu16	Cu	1.381553	0.715201	0.581314
Cu17	Cu	0.881572	0.215218	-0.081288
Cu18	Cu	1.381572	0.715218	0.418712
O19	O	0.862006	0.447881	0.068758
O20	O	1.362006	0.947881	0.568758
C21	C	0.742477	0.227421	0.000011
C22	C	1.242477	0.727421	0.500011
C23	C	0.658620	0.224598	0.000009
C24	C	1.158620	0.724598	0.500009
C25	C	0.619220	0.223260	0.074958
C26	C	1.119220	0.723260	0.574958
C27	C	0.540431	0.220582	0.074959
C28	C	1.040431	0.720582	0.574959
C29	C	0.501042	0.219254	0.000010
C30	C	1.001042	0.719254	0.500010
C31	C	0.540448	0.220588	-0.074944
C32	C	1.040448	0.720588	0.425056
C33	C	0.619237	0.223254	-0.074944
C34	C	1.119237	0.723254	0.425056
C35	C	0.222700	0.209832	-0.074946
C36	C	0.722700	0.709832	0.425054
C37	C	0.143905	0.207171	-0.074940
C38	C	0.643905	0.707171	0.425060
C39	C	0.143894	0.207161	0.074957
C40	C	0.643894	0.707161	0.574957
C41	C	0.222683	0.209827	0.074957
C42	C	0.722683	0.709827	0.574957
C43	C	0.262083	0.211152	0.000003
C44	C	0.762083	0.711152	0.500003
C45	C	0.347516	0.214052	0.000003
C46	C	0.847516	0.714052	0.500003
C47	C	0.415609	0.216365	0.000009
C48	C	0.915609	0.716365	0.500009
C49	C	0.904073	-0.077011	0.000013
C50	C	1.404073	0.422989	0.500013
C51	C	0.912893	-0.254425	0.000008
C52	C	1.412893	0.245575	0.500008
C53	C	1.020648	0.202998	0.000014
C54	C	1.520648	0.702998	0.500014
C55	C	1.104505	0.205821	0.000010
C56	C	1.604505	0.705821	0.500010
C57	C	0.859051	0.507430	0.000012
C58	C	1.359051	1.007430	0.500012
C59	C	0.850232	0.684845	0.000011
C60	C	1.350232	1.184845	0.500011
N61	N	0.881545	0.215188	0.195679
N62	N	1.381545	0.715188	0.695679
C63	C	0.939339	0.106378	0.238945
C64	C	1.439339	0.606378	0.738945
C65	C	0.939342	0.106377	0.325492
C66	C	1.439342	0.606377	0.825492
C67	C	0.881554	0.215194	0.368772
C68	C	1.381554	0.715194	0.868772
C69	C	0.823754	0.324009	0.325500
C70	C	1.323754	0.824009	0.825500
C71	C	0.823749	0.324001	0.238955
C72	C	1.323749	0.824001	0.738955
C73	C	0.823776	0.324041	0.674528
C74	C	1.323776	0.824041	1.174528
C75	C	0.823787	0.324043	0.761080
C76	C	1.323787	0.824043	1.261080
C77	C	0.939370	0.106417	0.761065
C78	C	1.439370	0.606417	1.261065
C79	C	0.939364	0.106409	0.674520
C80	C	1.439364	0.606409	1.174520
C81	C	0.881562	0.215217	0.631256
C82	C	1.381562	0.715217	1.131256
C83	C	0.881558	0.215215	0.537412
C84	C	1.381558	0.715215	1.037412
C85	C	0.881560	0.215205	0.462614
C86	C	1.381560	0.715205	0.962614
N87	N	0.881579	0.215225	0.804347
N88	N	1.381579	0.715225	1.304347
H89	H	0.508358	0.219466	0.135989
H90	H	1.008358	0.719466	0.635989
Cl91	Cl	0.751133	0.460851	0.815488
Cl92	Cl	1.251133	0.960851	1.315488
H93	H	0.973290	-0.338168	0.000016
H94	H	1.473290	0.161832	0.500016
Cl95	Cl	0.751102	0.460803	0.379907
Cl96	Cl	1.251102	0.960803	0.879907
H97	H	0.986433	0.017814	0.796300
H98	H	1.486433	0.517814	1.296300
H99	H	0.986402	0.017775	0.360718
H100	H	1.486402	0.517775	0.860718
H101	H	0.789838	-0.231421	0.000012
H102	H	1.289838	0.268579	0.500012
Cl103	Cl	0.094388	0.205497	-0.169168
Cl104	Cl	0.594388	0.705497	0.330832
Cl105	Cl	0.751116	0.460830	0.620145
Cl106	Cl	1.251116	0.960830	1.120145
H107	H	0.508372	0.219495	-0.135968
H108	H	1.008372	0.719495	0.364032
H109	H	0.254771	0.210906	-0.135977
H110	H	0.754771	0.710906	0.364023
Cl111	Cl	1.011995	-0.030422	0.184545
Cl112	Cl	1.511995	0.469578	0.684545
Cl113	Cl	0.751087	0.460791	0.184564
Cl114	Cl	1.251087	0.960791	0.684564
H115	H	0.651283	0.224355	0.135990
H116	H	1.151283	0.724355	0.635990
Cl117	Cl	0.272196	0.211506	0.169182
Cl118	Cl	0.772196	0.711506	0.669182
Cl119	Cl	1.012016	-0.030389	0.620114
Cl120	Cl	1.512016	0.469611	1.120114
H121	H	0.111806	0.206074	0.135988
H122	H	0.611806	0.706074	0.635988
H123	H	0.651315	0.224347	-0.135975
H124	H	1.151315	0.724347	0.364025
