data_functionalizedCrystal
_audit_creation_method	'MofGen! by Chris Wilmer'
_symmetry_space_group_name_H-M	'P1'
_symmetry_Int_Tables_number	1
_symmetry_cell_setting	triclinic
loop_
_symmetry_equiv_pos_as_xyz
  x,y,z
_cell_length_a	19.188930
_cell_length_b	15.944551
_cell_length_c	14.421503
_cell_angle_alpha	90.003141
_cell_angle_beta	89.999163
_cell_angle_gamma	96.678240
loop_
_atom_site_label
_atom_site_type_symbol
_atom_site_fract_x
_atom_site_fract_y
_atom_site_fract_z
O1	O	0.090038	-1.114192	-0.077026
O2	O	0.101140	-0.869601	-0.077050
O3	O	-0.006048	-0.998955	-0.077019
O4	O	0.197227	-0.984838	-0.077057
O5	O	-0.006032	-0.998934	0.077204
O6	O	0.101156	-0.869580	0.077173
O7	O	0.090054	-1.114171	0.077198
Cu8	Cu	0.095607	-0.991873	0.091267
Cu9	Cu	0.095588	-0.991899	-0.091120
O10	O	0.197243	-0.984817	0.077167
C11	C	0.100687	-0.838298	0.000059
C12	C	0.099306	-0.745057	0.000050
C13	C	-0.032052	-0.998487	0.000095
C14	C	-0.109560	-0.997115	0.000103
C15	C	0.090507	-1.145474	0.000087
C16	C	0.091889	-1.238715	0.000089
C17	C	-0.154288	-1.073016	0.000115
C18	C	-0.227115	-1.071726	0.000100
C19	C	-0.255211	-0.994532	0.000092
C20	C	-0.210474	-0.918622	0.000075
C21	C	-0.137648	-0.919913	0.000080
N22	N	-0.363364	-0.935519	0.052571
N23	N	-0.432545	-0.934298	0.052568
C24	C	-0.474630	-0.990637	0.000073
N25	N	-0.444921	-1.048256	-0.052407
N26	N	-0.375733	-1.049480	-0.052400
C27	C	-0.334178	-0.993123	0.000085
C28	C	-0.598326	-1.065145	0.000067
C29	C	-0.671154	-1.063852	0.000046
C30	C	-0.654511	-0.910745	0.000030
C31	C	-0.581685	-0.912040	0.000041
C32	C	-0.553597	-0.989242	0.000064
C33	C	0.223247	-0.985285	0.000050
C34	C	0.300755	-0.986657	0.000036
N35	N	0.095619	-0.991862	0.219549
C36	C	0.029563	-0.530462	0.000081
C37	C	0.061941	-0.469331	-0.075965
C38	C	0.096806	-0.574341	0.000062
C39	C	0.061973	-0.469332	0.076087
C40	C	0.094386	-0.409437	0.000077
C41	C	0.129203	-0.514438	-0.076047
C42	C	0.129225	-0.514446	0.076073
C43	C	0.161652	-0.453332	0.000008
C44	C	0.098198	-0.669338	0.000052
C45	C	0.093000	-0.314441	0.000080
N46	N	0.095569	-0.991917	-0.219401
C47	C	0.145161	-0.932038	0.469188
C48	C	0.158716	-1.007887	0.530995
C49	C	0.095603	-0.991882	0.408710
C50	C	0.082064	-0.916052	0.530997
C51	C	0.095588	-0.991895	0.591431
C52	C	0.109189	-1.067770	0.469157
C53	C	0.032510	-0.975885	0.469153
C54	C	0.046038	-1.051789	0.530932
C55	C	0.095613	-0.991874	0.303449
C56	C	0.095578	-0.991913	0.696690
H57	H	-0.131424	-1.135880	0.000131
C58	C	-0.039539	-0.957555	0.432419
N59	N	-0.093807	-0.943739	0.404749
H60	H	0.120698	-1.131917	0.442107
H61	H	-0.707571	-1.125662	0.000051
H62	H	0.070620	-0.851919	0.558163
H63	H	0.157616	-0.534329	-0.140409
H64	H	-0.263540	-1.133536	0.000106
H65	H	0.004119	-1.102458	0.557872
H66	H	-0.677386	-0.847892	0.000019
H67	H	-0.026244	-0.564003	-0.000003
H68	H	0.033526	-0.449343	0.140376
C69	C	0.237120	-0.408246	-0.000064
N70	N	0.293960	-0.374285	-0.000124
H71	H	-0.545266	-0.850233	0.000037
C72	C	-0.241381	-0.833708	0.000072
N73	N	-0.264660	-0.769748	0.000070
H74	H	0.157649	-0.534462	0.140358
H75	H	-0.101230	-0.858103	0.000071
H76	H	-0.575456	-1.128007	0.000081
C77	C	0.201824	-0.863743	0.432552
N78	N	0.244504	-0.812308	0.404955
C79	C	0.230788	-1.026178	0.567704
N80	N	0.285073	-1.039948	0.595352
C81	C	0.023508	-0.442312	-0.162802
N82	N	-0.005444	-0.421963	-0.228204
