data_functionalizedCrystal
_audit_creation_method	'MofGen! by Chris Wilmer'
_symmetry_space_group_name_H-M	'P1'
_symmetry_Int_Tables_number	1
_symmetry_cell_setting	triclinic
loop_
_symmetry_equiv_pos_as_xyz
  x,y,z
_cell_length_a	12.594517
_cell_length_b	12.594516
_cell_length_c	16.625539
_cell_angle_alpha	90.025003
_cell_angle_beta	90.011051
_cell_angle_gamma	90.007702
loop_
_atom_site_label
_atom_site_type_symbol
_atom_site_fract_x
_atom_site_fract_y
_atom_site_fract_z
Zn1	Zn	1.627294	-0.423857	0.455723
Zn2	Zn	1.627199	-0.601858	0.320898
Zn3	Zn	1.449299	-0.423882	0.320926
Zn4	Zn	1.449293	-0.601781	0.455710
O5	O	1.538271	-0.512845	0.388314
O6	O	1.776227	-0.447491	0.437832
O7	O	1.603563	-0.578292	0.208069
O8	O	1.472952	-0.274933	0.338824
O9	O	1.776157	-0.578268	0.338777
O10	O	1.603724	-0.274915	0.437859
O11	O	1.472861	-0.447533	0.208090
O12	O	1.300352	-0.447458	0.338812
O13	O	1.472942	-0.578137	0.568544
O14	O	1.300348	-0.578160	0.437837
O15	O	1.603719	-0.447417	0.568554
O16	O	1.603557	-0.750794	0.338764
O17	O	1.472850	-0.750737	0.437810
C18	C	1.261730	-0.512804	0.388327
C19	C	1.143425	-0.512813	0.388351
C20	C	1.074200	-0.584041	0.442107
C21	C	1.003384	-0.486996	0.461937
C22	C	1.003442	-0.609938	0.368503
C23	C	1.074167	-0.415716	0.408220
C24	C	1.074231	-0.538723	0.314751
C25	C	1.003447	-0.441612	0.334554
C26	C	1.538222	-0.789386	0.388300
C27	C	1.538298	-0.907691	0.388321
C28	C	1.609472	-0.976936	0.334508
C29	C	1.635482	-1.047640	0.408099
C30	C	1.512421	-1.047787	0.314777
C31	C	1.564358	-0.976836	0.461951
C32	C	1.441252	-0.976977	0.368580
C33	C	1.467225	-1.047648	0.442222
C34	C	1.815892	-0.512886	0.388302
C35	C	1.934197	-0.512903	0.388297
C36	C	1.538340	-0.512765	0.598623
C37	C	1.538370	-0.512732	0.688244
C38	C	1.538350	-0.235224	0.388346
C39	C	1.538383	-0.116918	0.388360
C40	C	1.538264	-0.512847	0.178824
C41	C	1.538440	-0.512581	0.089203
C42	C	1.538419	-0.512612	1.016420
C43	C	1.538402	-0.512649	0.925112
C44	C	1.538395	-0.512673	0.852335
C45	C	1.538377	-0.512708	0.761021
H46	H	0.972265	-0.465113	0.524157
H47	H	1.586198	-0.945803	0.524216
Cl48	Cl	1.121925	-0.288923	0.434215
H49	H	1.105373	-0.560636	0.252550
Cl50	Cl	0.955779	-0.348570	0.264332
Cl51	Cl	0.955474	-0.736691	0.342616
Cl52	Cl	1.762251	-1.095542	0.433927
Cl53	Cl	1.702409	-0.928993	0.264309
Cl54	Cl	1.374353	-1.095290	0.512586
Cl55	Cl	1.478575	-1.095904	0.218729
Cl56	Cl	1.122169	-0.676864	0.512378
Cl57	Cl	1.314517	-0.929019	0.342736
