data_functionalizedCrystal
_audit_creation_method	'MofGen! by Chris Wilmer'
_symmetry_space_group_name_H-M	'P1'
_symmetry_Int_Tables_number	1
_symmetry_cell_setting	triclinic
loop_
_symmetry_equiv_pos_as_xyz
  x,y,z
_cell_length_a	10.489746
_cell_length_b	10.489741
_cell_length_c	10.868271
_cell_angle_alpha	89.995151
_cell_angle_beta	89.998617
_cell_angle_gamma	84.540238
loop_
_atom_site_label
_atom_site_type_symbol
_atom_site_fract_x
_atom_site_fract_y
_atom_site_fract_z
O1	O	1.694049	0.180000	-0.102239
O2	O	1.322855	0.196886	-0.102259
O3	O	1.516898	0.002846	-0.102241
O4	O	1.500006	0.374041	-0.102257
O5	O	1.516882	0.002838	0.102403
O6	O	1.322838	0.196878	0.102385
O7	O	1.694033	0.179993	0.102406
Zn8	Zn	1.508433	0.188434	0.134887
Zn9	Zn	1.508455	0.188444	-0.134741
O10	O	1.499990	0.374033	0.102388
C11	C	1.275315	0.195606	0.000060
C12	C	1.133686	0.191786	0.000053
C13	C	0.980828	0.066062	0.000075
C14	C	1.058214	0.128915	0.100970
C15	C	1.058185	0.128952	-0.100794
C16	C	0.958722	0.247897	0.101061
C17	C	0.958688	0.247916	-0.100793
C18	C	1.036025	0.310856	0.000126
C19	C	1.515614	-0.044690	0.000080
C20	C	1.511797	-0.186320	0.000078
C21	C	1.388333	-0.254462	0.000062
C22	C	1.446648	-0.346587	0.100966
C23	C	1.446693	-0.346554	-0.100798
C24	C	1.570164	-0.276579	0.101065
C25	C	1.570192	-0.276537	-0.100789
C26	C	1.628597	-0.368635	0.000139
C27	C	1.741573	0.181273	0.000083
C28	C	1.883202	0.185093	0.000083
C29	C	1.501273	0.421569	0.000064
C30	C	1.505091	0.563198	0.000058
N31	N	1.508428	0.188427	0.318901
N32	N	1.508470	0.188442	-0.318755
C33	C	1.508448	0.188442	0.569907
C34	C	1.508433	0.188437	0.430230
H35	H	0.956107	-0.037439	0.000181
H36	H	1.101684	0.078663	0.186275
H37	H	1.101635	0.078684	-0.186095
H38	H	1.622352	-0.245750	0.186467
H39	H	1.730200	-0.418057	0.000200
H40	H	1.286821	-0.204813	0.000158
Br41	Br	0.886586	0.331588	0.243397
H42	H	1.060501	0.414436	0.000177
Br43	Br	0.886190	0.331601	-0.242982
H44	H	1.394401	-0.377603	0.186267
H45	H	1.622395	-0.245488	-0.186095
H46	H	1.394444	-0.377516	-0.186112
