data_functionalizedCrystal
_audit_creation_method	'MofGen! by Chris Wilmer'
_symmetry_space_group_name_H-M	'P1'
_symmetry_Int_Tables_number	1
_symmetry_cell_setting	triclinic
loop_
_symmetry_equiv_pos_as_xyz
  x,y,z
_cell_length_a	23.532357
_cell_length_b	23.532407
_cell_length_c	22.610064
_cell_angle_alpha	89.990066
_cell_angle_beta	90.010031
_cell_angle_gamma	97.161515
loop_
_atom_site_label
_atom_site_type_symbol
_atom_site_fract_x
_atom_site_fract_y
_atom_site_fract_z
O1	O	0.069135	-0.755256	0.049118
O2	O	0.079139	-0.589391	0.049136
O3	O	-0.008797	-0.677340	0.049114
O4	O	0.157071	-0.667307	0.049140
O5	O	-0.008797	-0.677314	-0.049255
O6	O	0.079139	-0.589365	-0.049233
O7	O	0.069135	-0.755231	-0.049251
Zn8	Zn	0.074137	-0.672294	-0.064860
Zn9	Zn	0.074137	-0.672328	0.064745
O10	O	0.157071	-0.667281	-0.049229
C11	C	0.078884	-0.568162	-0.000046
C12	C	0.078118	-0.504945	-0.000040
C13	C	-0.030013	-0.677076	-0.000072
C14	C	-0.093232	-0.676322	-0.000078
N15	N	0.074137	-0.672275	-0.153313
C16	C	-0.485243	-0.671599	0.053576
C17	C	-0.544643	-0.670882	0.053579
O18	O	-0.575359	-0.670503	0.099182
N19	N	-0.574354	-0.670512	-0.000041
C20	C	-0.544662	-0.670854	-0.053668
O21	O	-0.575388	-0.670473	-0.099276
C22	C	-0.485263	-0.671567	-0.053671
C23	C	-0.455556	-0.671943	-0.000047
C24	C	-0.455536	-0.671974	0.107195
C25	C	-0.396141	-0.672692	0.107192
C26	C	-0.366453	-0.673036	0.053569
C27	C	-0.396160	-0.672661	-0.000051
C28	C	-0.455571	-0.671905	-0.107298
C29	C	-0.396168	-0.672618	-0.107296
C30	C	-0.366461	-0.672993	-0.053672
C31	C	-0.307077	-0.673723	-0.053678
N32	N	-0.277366	-0.674092	-0.000057
C33	C	-0.307054	-0.673749	0.053566
C34	C	-0.669403	-0.669355	-0.053658
C35	C	-0.728802	-0.668646	-0.053656
C36	C	-0.728778	-0.668673	0.053592
C37	C	-0.669380	-0.669386	0.053589
C38	C	-0.639692	-0.669725	-0.000038
C39	C	-0.182320	-0.675258	0.053554
C40	C	-0.122920	-0.675978	0.053545
C41	C	-0.122948	-0.675948	-0.053702
C42	C	-0.182343	-0.675231	-0.053694
C43	C	-0.212027	-0.674883	-0.000061
O44	O	-0.276323	-0.674099	-0.099257
O45	O	-0.276320	-0.674122	0.099166
C46	C	0.178287	-0.667545	-0.000042
C47	C	0.241506	-0.668300	-0.000032
C48	C	0.069390	-0.776459	-0.000068
C49	C	0.070156	-0.839676	-0.000070
C50	C	0.125353	-0.105834	-0.000059
C51	C	0.124641	-0.046434	-0.000063
O52	O	0.168428	-0.009681	-0.000078
N53	N	0.072364	-0.023817	-0.000070
C54	C	0.020794	-0.060604	-0.000079
O55	O	-0.023737	-0.035912	-0.000086
C56	C	0.021506	-0.120003	-0.000080
C57	C	0.073787	-0.142616	-0.000067
C58	C	0.177629	-0.128448	-0.000047
C59	C	0.178341	-0.187844	-0.000042
C60	C	0.126775	-0.224626	-0.000050
C61	C	0.074498	-0.202012	-0.000062
C62	C	-0.030063	-0.156788	-0.000093
C63	C	-0.029346	-0.216191	-0.000094
C64	C	0.022935	-0.238804	-0.000081
C65	C	0.023644	-0.298190	-0.000065
N66	N	0.075922	-0.320807	-0.000058
C67	C	0.127487	-0.284025	-0.000050
C68	C	0.019303	0.064139	-0.000079
C69	C	0.018590	0.123536	-0.000075
C70	C	0.122437	0.137702	-0.000059
C71	C	0.123149	0.078303	-0.000060
C72	C	0.071580	0.041522	-0.000072
C73	C	0.128977	-0.408761	-0.000040
C74	C	0.129684	-0.468163	-0.000032
C75	C	0.025836	-0.482324	-0.000051
C76	C	0.025130	-0.422927	-0.000055
C77	C	0.076704	-0.386147	-0.000051
O78	O	-0.020120	-0.334977	-0.000052
O79	O	0.172011	-0.308725	-0.000051
C80	C	0.108498	-0.706666	-0.561953
C81	C	0.108497	-0.706673	-0.623873
O82	O	0.137709	-0.735891	-0.655890
N83	N	0.074130	-0.672339	-0.654850
C84	C	0.039759	-0.637999	-0.623904
O85	O	0.010527	-0.608796	-0.655939
C86	C	0.039757	-0.637995	-0.561985
C87	C	0.074131	-0.672328	-0.531011
C88	C	0.142868	-0.740996	-0.530979
C89	C	0.142870	-0.740988	-0.469063
C90	C	0.108502	-0.706650	-0.438122
C91	C	0.074133	-0.672320	-0.469096
C92	C	0.005383	-0.603659	-0.531041
C93	C	0.005385	-0.603659	-0.469118
C94	C	0.039758	-0.637991	-0.438144
C95	C	0.039767	-0.637973	-0.376239
N96	N	0.074133	-0.672308	-0.345261
C97	C	0.108501	-0.706646	-0.376203
C98	C	0.039763	-0.638010	-0.753938
C99	C	0.039767	-0.638010	-0.815855
C100	C	0.108504	-0.706686	-0.815820
C101	C	0.108503	-0.706682	-0.753901
C102	C	0.074130	-0.672345	-0.722961
C103	C	0.108503	-0.706626	-0.246175
C104	C	0.108504	-0.706613	-0.184254
C105	C	0.039765	-0.637940	-0.184295
C106	C	0.039766	-0.637951	-0.246211
C107	C	0.074137	-0.672298	-0.277150
O108	O	0.010568	-0.608772	-0.344182
O109	O	0.137722	-0.735850	-0.344161
N110	N	0.074133	-0.672351	0.153198
H111	H	-0.098735	-0.676285	0.097214
H112	H	-0.016147	-0.512282	-0.000055
O113	O	-0.032160	0.145567	-0.000158
C114	C	-0.035690	0.179496	-0.051114
H115	H	0.009282	0.194552	-0.068094
H116	H	-0.061038	0.153109	-0.086791
C117	C	-0.121294	0.213370	-0.014790
C118	C	-0.066057	0.231866	-0.035643
H119	H	-0.140028	0.245674	-0.005248
H120	H	-0.118917	0.190511	0.019539
H121	H	-0.142410	0.191381	-0.044524
H122	H	-0.044941	0.253849	-0.005906
H123	H	-0.068431	0.254731	-0.069966
H124	H	0.011784	-0.609987	-0.271432
H125	H	0.172259	-0.486571	-0.000021
H126	H	0.136489	-0.734645	-0.841024
H127	H	-0.645196	-0.669691	0.097254
H128	H	-0.072635	-0.138388	-0.000105
O129	O	-0.367239	-0.673095	0.159250
C130	C	-0.339555	-0.722801	0.162493
H131	H	-0.362168	-0.757114	0.132124
H132	H	-0.293035	-0.712168	0.148036
C133	C	-0.313837	-0.702964	0.263885
C134	C	-0.341613	-0.745109	0.226590
H135	H	-0.315104	-0.716724	0.303424
H136	H	-0.332486	-0.669475	0.261701
H137	H	-0.275072	-0.694107	0.251831
H138	H	-0.380379	-0.753960	0.238641
H139	H	-0.322971	-0.778601	0.228778
O140	O	-0.079428	-0.251942	-0.000208
C141	C	-0.082119	-0.286730	-0.051145
H142	H	-0.052866	-0.264809	-0.086750
H143	H	-0.067635	-0.329847	-0.039620
C144	C	-0.180069	-0.323023	-0.030527
C145	C	-0.144144	-0.296097	-0.074259
H146	H	-0.218329	-0.328803	-0.044784
H147	H	-0.178256	-0.299588	0.003791
H148	H	-0.167992	-0.358951	-0.020927
H149	H	-0.156217	-0.260166	-0.083853
H150	H	-0.145961	-0.319526	-0.108579
H151	H	0.219623	-0.098505	-0.000043
H152	H	0.170974	-0.378821	-0.000039
O153	O	0.229177	-0.209711	-0.000063
C154	C	0.274531	-0.164500	-0.000044
H155	H	0.258792	-0.124235	-0.018668
H156	H	0.290423	-0.156010	0.047149
C157	C	0.343195	-0.230425	-0.015746
C158	C	0.323866	-0.180973	-0.038624
H159	H	0.373628	-0.240587	-0.039541
H160	H	0.312640	-0.260886	-0.015756
H161	H	0.356435	-0.223344	0.023582
H162	H	0.310620	-0.188057	-0.077948
H163	H	0.354420	-0.150514	-0.038621
H164	H	-0.206481	-0.674972	0.097227
H165	H	-0.017442	-0.404515	-0.000057
H166	H	0.011784	-0.610046	-0.841069
O167	O	-0.484285	-0.671669	0.159342
C168	C	-0.445313	-0.672137	0.206659
H169	H	-0.405437	-0.690670	0.190923
H170	H	-0.432756	-0.626522	0.223156
C171	C	-0.522548	-0.686469	0.276647
C172	C	-0.473574	-0.709236	0.257321
H173	H	-0.539980	-0.709351	0.307899
H174	H	-0.548804	-0.686151	0.244769
H175	H	-0.512076	-0.648457	0.290390
H176	H	-0.484046	-0.747244	0.243572
H177	H	-0.447320	-0.709561	0.289198
O178	O	0.006362	-0.604593	-0.723976
C179	C	-0.023977	-0.574303	-0.764601
H180	H	-0.000379	-0.570850	-0.808733
H181	H	-0.068802	-0.598026	-0.771191
C182	C	-0.057427	-0.518075	-0.686257
C183	C	-0.028441	-0.513830	-0.740459
H184	H	-0.060183	-0.480773	-0.671365
H185	H	-0.036989	-0.538483	-0.658887
H186	H	-0.094779	-0.537846	-0.691756
H187	H	0.008912	-0.494065	-0.734959
H188	H	-0.048872	-0.493417	-0.767828
H189	H	-0.752961	-0.668391	0.097255
H190	H	-0.479749	-0.671600	-0.150964
O191	O	0.141962	-0.739880	-0.154141
C192	C	0.180995	-0.704924	-0.118320
H193	H	0.187337	-0.659574	-0.136990
H194	H	0.163405	-0.704064	-0.071394
C195	C	0.231036	-0.784865	-0.094427
C196	C	0.238829	-0.729166	-0.117362
H197	H	0.266710	-0.799819	-0.093833
H198	H	0.204738	-0.808416	-0.118559
H199	H	0.216376	-0.784140	-0.055325
H200	H	0.253481	-0.729892	-0.156466
H201	H	0.265131	-0.705615	-0.093236
O202	O	0.006446	-0.604502	-0.154258
C203	C	0.022501	-0.546604	-0.169404
H204	H	0.068457	-0.540820	-0.186423
H205	H	-0.007296	-0.533564	-0.205349
C206	C	-0.038235	-0.515891	-0.093502
C207	C	0.018211	-0.508786	-0.114400
H208	H	-0.040883	-0.492563	-0.059574
H209	H	-0.049053	-0.554898	-0.083298
H210	H	-0.063059	-0.505025	-0.123461
H211	H	0.043033	-0.519659	-0.084444
H212	H	0.029033	-0.469780	-0.124597
O213	O	0.141945	-0.740004	-0.276132
C214	C	0.172267	-0.770310	-0.235505
H215	H	0.175704	-0.746705	-0.191376
H216	H	0.148579	-0.815149	-0.228908
C217	C	0.228522	-0.803720	-0.313849
C218	C	0.232748	-0.774726	-0.259651
H219	H	0.265828	-0.806447	-0.328744
H220	H	0.208092	-0.783304	-0.341221
H221	H	0.208780	-0.841083	-0.308344
H222	H	0.252483	-0.737361	-0.265158
H223	H	0.253182	-0.795135	-0.232281
H224	H	-0.371999	-0.672885	-0.150966
O225	O	-0.757704	-0.668204	-0.105711
C226	C	-0.785310	-0.618446	-0.108918
H227	H	-0.791964	-0.601910	-0.062358
H228	H	-0.757696	-0.584171	-0.135366
C229	C	-0.835604	-0.653040	-0.196777
C230	C	-0.843781	-0.632733	-0.139591
H231	H	-0.871671	-0.661852	-0.215700
H232	H	-0.817005	-0.686562	-0.194618
H233	H	-0.812591	-0.624474	-0.218809
H234	H	-0.866787	-0.661302	-0.117557
H235	H	-0.862386	-0.599217	-0.141747
O236	O	0.172545	0.173415	0.000048
C237	C	0.204318	0.163199	0.050990
H238	H	0.174138	0.142718	0.086597
H239	H	0.237110	0.133143	0.039477
C240	C	0.272566	0.245461	0.030357
C241	C	0.235497	0.220311	0.074092
H242	H	0.291801	0.280689	0.044607
H243	H	0.251162	0.252343	-0.003965
H244	H	0.299887	0.220409	0.020767
H245	H	0.208172	0.245359	0.083677
H246	H	0.256897	0.213434	0.108417
H247	H	-0.022608	-0.575702	-0.556249
H248	H	-0.645236	-0.669633	-0.097330
O249	O	0.176270	-0.774398	-0.439071
C250	C	0.206608	-0.804694	-0.479669
H251	H	0.183010	-0.808151	-0.523808
H252	H	0.251434	-0.780973	-0.486252
C253	C	0.240054	-0.860914	-0.401284
C254	C	0.211068	-0.865165	-0.455496
H255	H	0.242808	-0.898215	-0.386372
H256	H	0.219617	-0.840502	-0.373932
H257	H	0.277406	-0.841145	-0.406777
H258	H	0.173715	-0.884927	-0.450000
H259	H	0.231500	-0.885582	-0.482846
H260	H	0.170854	-0.768962	-0.556165
O261	O	-0.027939	-0.570214	-0.439090
C262	C	-0.011877	-0.512321	-0.454250
H263	H	0.034081	-0.506546	-0.471263
H264	H	-0.041668	-0.499286	-0.490203
C265	C	-0.072617	-0.481583	-0.378366
C266	C	-0.016169	-0.474489	-0.399257
H267	H	-0.075267	-0.458245	-0.344445
H268	H	-0.083441	-0.520587	-0.368153
H269	H	-0.097437	-0.470721	-0.408332
H270	H	0.008648	-0.485357	-0.369294
H271	H	-0.005341	-0.435486	-0.409463
O272	O	0.173898	0.056271	-0.000128
C273	C	0.177429	0.022358	-0.051082
H274	H	0.132457	0.007308	-0.068077
H275	H	0.202778	0.048755	-0.086750
C276	C	0.263031	-0.011529	-0.014727
C277	C	0.207795	-0.030018	-0.035598
H278	H	0.281764	-0.043836	-0.005178
H279	H	0.260654	0.011320	0.019600
H280	H	0.284148	0.010469	-0.044455
H281	H	0.186677	-0.052009	-0.005869
H282	H	0.210169	-0.052872	-0.069921
O283	O	0.141971	-0.740002	-0.723881
C284	C	0.199862	-0.723872	-0.738994
H285	H	0.202418	-0.701768	-0.783953
H286	H	0.220995	-0.693198	-0.704146
C287	C	0.227961	-0.804693	-0.686624
C288	C	0.231100	-0.777549	-0.741846
H289	H	0.247232	-0.837803	-0.688381
H290	H	0.188960	-0.815560	-0.676440
H291	H	0.245571	-0.779127	-0.657590
H292	H	0.213484	-0.803113	-0.770878
H293	H	0.270100	-0.766688	-0.752035
O294	O	-0.211114	-0.674847	-0.105835
C295	C	-0.172172	-0.675322	-0.153164
H296	H	-0.127365	-0.657810	-0.137443
H297	H	-0.172102	-0.721091	-0.169659
C298	C	-0.245290	-0.659181	-0.223130
C299	C	-0.190258	-0.637667	-0.203822
H300	H	-0.256447	-0.635956	-0.254380
H301	H	-0.271527	-0.658863	-0.191244
H302	H	-0.245225	-0.697321	-0.236872
H303	H	-0.190326	-0.599531	-0.190074
H304	H	-0.164022	-0.637978	-0.235707
O305	O	-0.030848	0.028492	-0.000056
C306	C	-0.077136	0.061197	-0.000076
H307	H	-0.062414	0.105612	0.018547
H308	H	-0.093180	0.065344	-0.047270
C309	C	-0.143997	-0.023227	0.015625
C310	C	-0.125916	0.031322	0.038503
H311	H	-0.174088	-0.041656	0.039420
H312	H	-0.112812	-0.045263	0.015636
H313	H	-0.157362	-0.019764	-0.023703
H314	H	-0.112544	0.027858	0.077827
H315	H	-0.157100	0.053356	0.038499
H316	H	-0.098766	-0.676231	-0.097360
