data_functionalizedCrystal
_audit_creation_method	'MofGen! by Chris Wilmer'
_symmetry_space_group_name_H-M	'P1'
_symmetry_Int_Tables_number	1
_symmetry_cell_setting	triclinic
loop_
_symmetry_equiv_pos_as_xyz
  x,y,z
_cell_length_a	17.699077
_cell_length_b	17.699083
_cell_length_c	16.776229
_cell_angle_alpha	89.995692
_cell_angle_beta	89.994802
_cell_angle_gamma	83.281795
loop_
_atom_site_label
_atom_site_type_symbol
_atom_site_fract_x
_atom_site_fract_y
_atom_site_fract_z
O1	O	1.004080	0.095688	-0.066279
O2	O	0.783701	0.108145	-0.066283
O3	O	0.900117	-0.008273	-0.066274
O4	O	0.887664	0.212106	-0.066288
O5	O	0.900104	-0.008273	0.066302
O6	O	0.783688	0.108145	0.066293
O7	O	1.004067	0.095688	0.066297
Zn8	Zn	0.893875	0.101916	0.087345
Zn9	Zn	0.893893	0.101917	-0.087331
O10	O	0.887651	0.212106	0.066288
C11	C	0.755498	0.107700	0.000004
C12	C	0.671479	0.106363	0.000003
C13	C	0.899664	-0.036470	0.000014
C14	C	0.898326	-0.120488	0.000015
C15	C	0.632005	0.105733	0.072271
C16	C	0.553062	0.104464	0.072272
C17	C	0.513595	0.103832	0.000004
C18	C	0.553075	0.104460	-0.072270
C19	C	0.632017	0.105722	-0.072270
C20	C	0.234712	0.099366	-0.072271
C21	C	0.155764	0.098106	-0.072265
C22	C	0.155757	0.098108	0.072271
C23	C	0.234699	0.099371	0.072271
C24	C	0.274173	0.099995	-0.000002
C25	C	0.359772	0.101369	-0.000002
C26	C	0.427997	0.102464	0.000003
C27	C	0.966659	-0.169110	0.000017
C28	C	0.965397	-0.248054	0.000010
C29	C	0.895800	-0.278373	0.000006
C30	C	0.827461	-0.229744	0.000001
C31	C	0.828724	-0.150803	0.000003
C32	C	0.822366	-0.548107	-0.000005
C33	C	0.821108	-0.627055	-0.000004
C34	C	0.959039	-0.645358	0.000002
C35	C	0.960302	-0.566417	0.000003
C36	C	0.891963	-0.517795	-0.000006
C37	C	0.893333	-0.432196	0.000000
C38	C	0.894430	-0.363971	0.000006
C39	C	1.032271	0.096133	0.000008
C40	C	1.116289	0.097470	0.000004
C41	C	0.888104	0.240303	-0.000002
C42	C	0.889443	0.324321	-0.000008
N43	N	0.893869	0.101916	0.206556
N44	N	0.893905	0.101911	-0.206542
C45	C	0.939684	0.147763	0.248267
C46	C	0.939693	0.147760	0.331719
C47	C	0.893881	0.101913	0.373459
C48	C	0.848064	0.056060	0.331742
C49	C	0.848061	0.056060	0.248291
C50	C	0.848080	0.056061	0.668289
C51	C	0.848085	0.056067	0.751745
C52	C	0.939712	0.147762	0.751717
C53	C	0.939708	0.147761	0.668267
C54	C	0.893894	0.101906	0.626557
C55	C	0.893887	0.101908	0.536068
C56	C	0.893884	0.101914	0.463946
H57	H	0.664132	0.106254	0.131121
O58	O	0.514707	0.103712	0.142457
C59	C	0.477735	0.037461	0.146779
H60	H	0.507606	-0.007950	0.105764
H61	H	0.479765	0.015448	0.210698
H62	H	0.415938	0.051312	0.127373
O63	O	0.803450	0.011613	0.627826
C64	C	0.726600	0.032685	0.648260
H65	H	0.719183	0.093735	0.671184
H66	H	0.689357	0.028318	0.593398
H67	H	0.709116	-0.006959	0.696721
H68	H	0.766721	-0.508528	-0.000012
H69	H	0.810768	0.018727	0.365732
H70	H	0.773080	-0.111214	0.000001
H71	H	0.123608	0.097597	0.131120
O72	O	0.984256	0.192321	0.207849
C73	C	1.024681	0.232800	0.262564
H74	H	1.029159	0.201461	0.322052
H75	H	1.084184	0.237419	0.238444
H76	H	0.993390	0.292250	0.271439
H77	H	0.977001	0.185093	0.365677
O78	O	0.117494	0.097589	-0.142522
C79	C	0.128075	0.163426	-0.186492
H80	H	0.182494	0.186188	-0.165952
H81	H	0.132732	0.148726	-0.252604
H82	H	0.077557	0.208601	-0.176476
O83	O	0.272924	0.099950	0.142544
C84	C	0.221152	0.099139	0.206332
H85	H	0.168059	0.074288	0.185148
H86	H	0.248833	0.062771	0.256878
H87	H	0.204699	0.159701	0.228552
O88	O	0.670415	0.106204	-0.142452
C89	C	0.724788	0.041419	-0.146764
H90	H	0.707074	-0.004758	-0.105749
H91	H	0.728607	0.019439	-0.210681
H92	H	0.782649	0.057190	-0.127351
O93	O	0.803440	0.011613	0.207806
C94	C	0.726582	0.032668	0.228221
H95	H	0.719149	0.093715	0.251155
H96	H	0.689356	0.028303	0.173346
H97	H	0.709093	-0.006988	0.276667
H98	H	0.977009	0.185098	0.634287
O99	O	0.759902	-0.259285	-0.000109
C100	C	0.755044	-0.304382	-0.068781
H101	H	0.814737	-0.324154	-0.091671
H102	H	0.724967	-0.356021	-0.053338
H103	H	0.721501	-0.269439	-0.116862
H104	H	1.014683	-0.684956	0.000005
O105	O	0.984203	0.192231	0.792359
C106	C	0.974376	0.182416	0.874965
H107	H	0.952913	0.125116	0.886374
H108	H	1.031100	0.184253	0.906669
H109	H	0.931170	0.229941	0.898651
O110	O	0.803673	0.011412	0.792257
C111	C	0.824781	-0.065440	0.771862
H112	H	0.885826	-0.072831	0.748911
H113	H	0.820451	-0.102665	0.826751
H114	H	0.785137	-0.082966	0.723434
H115	H	1.023333	-0.144431	0.000025
H116	H	0.266843	0.099872	-0.131120
H117	H	0.520935	0.103939	-0.131112
H118	H	1.016974	-0.541735	0.000010
O119	O	1.031846	-0.295177	0.000053
C120	C	1.093544	-0.251489	0.000044
H121	H	1.074219	-0.192535	0.025142
H122	H	1.141407	-0.280702	0.038540
H123	H	1.114897	-0.245903	-0.063557
H124	H	0.764431	-0.651737	-0.000006
