data_functionalizedCrystal
_audit_creation_method	'MofGen! by Chris Wilmer'
_symmetry_space_group_name_H-M	'P1'
_symmetry_Int_Tables_number	1
_symmetry_cell_setting	triclinic
loop_
_symmetry_equiv_pos_as_xyz
  x,y,z
_cell_length_a	19.805407
_cell_length_b	19.077068
_cell_length_c	19.805399
_cell_angle_alpha	92.267915
_cell_angle_beta	89.983114
_cell_angle_gamma	92.327086
loop_
_atom_site_label
_atom_site_type_symbol
_atom_site_fract_x
_atom_site_fract_y
_atom_site_fract_z
Zn1	Zn	1.023886	-0.280208	-0.393533
Zn2	Zn	1.523886	0.219792	0.106467
Zn3	Zn	1.019256	-0.397910	-0.284888
Zn4	Zn	1.519256	0.102090	0.215112
Zn5	Zn	0.910705	-0.280230	-0.280359
Zn6	Zn	1.410705	0.219770	0.219641
Zn7	Zn	0.906116	-0.397870	-0.398033
Zn8	Zn	1.406116	0.102130	0.101967
O9	O	0.964991	-0.339054	-0.339203
O10	O	1.464991	0.160946	0.160797
O11	O	1.117988	-0.295829	-0.379134
O12	O	1.617988	0.204171	0.120866
O13	O	1.004840	-0.382326	-0.189571
O14	O	1.504840	0.117674	0.310429
O15	O	0.929577	-0.181736	-0.291594
O16	O	1.429577	0.318264	0.208406
O17	O	1.114587	-0.382304	-0.299312
O18	O	1.614587	0.117696	0.200688
O19	O	1.012730	-0.181720	-0.374742
O20	O	1.512730	0.318280	0.125258
O21	O	0.925088	-0.295867	-0.186244
O22	O	1.425088	0.204133	0.313756
O23	O	0.815380	-0.295828	-0.295956
O24	O	1.315380	0.204172	0.204044
O25	O	0.921755	-0.382235	-0.492152
O26	O	1.421755	0.117765	0.007848
O27	O	0.812008	-0.382257	-0.382411
O28	O	1.312008	0.117743	0.117589
O29	O	1.008280	-0.295790	-0.488846
O30	O	1.508280	0.204210	0.011154
O31	O	1.000390	-0.496396	-0.303675
O32	O	1.500390	0.003604	0.196325
O33	O	0.917266	-0.496366	-0.386802
O34	O	1.417266	0.003634	0.113198
C35	C	0.789135	-0.339041	-0.339181
C36	C	1.289135	0.160959	0.160819
C37	C	0.713903	-0.339052	-0.339188
C38	C	1.213903	0.160948	0.160812
C39	C	0.676818	-0.384124	-0.384137
C40	C	1.176818	0.115876	0.115863
C41	C	0.606130	-0.384125	-0.384147
C42	C	1.106130	0.115875	0.115853
C43	C	0.572527	-0.339058	-0.339203
C44	C	1.072527	0.160942	0.160797
C45	C	0.609617	-0.293981	-0.294252
C46	C	1.109617	0.206019	0.205748
C47	C	0.680304	-0.293977	-0.294246
C48	C	1.180304	0.206023	0.205754
C49	C	0.324543	-0.293997	-0.294275
C50	C	0.824543	0.206003	0.205725
C51	C	0.253851	-0.294006	-0.294283
C52	C	0.753851	0.205994	0.205717
C53	C	0.250368	-0.384145	-0.384176
C54	C	0.750368	0.115855	0.115824
C55	C	0.321056	-0.384140	-0.384170
C56	C	0.821056	0.115860	0.115830
C57	C	0.358139	-0.339062	-0.339221
C58	C	0.858139	0.160938	0.160779
C59	C	0.434788	-0.339060	-0.339212
C60	C	0.934788	0.160940	0.160788
C61	C	0.495880	-0.339062	-0.339208
C62	C	0.995880	0.160938	0.160792
C63	C	0.957846	-0.521918	-0.346233
C64	C	1.457846	-0.021918	0.153767
C65	C	0.954851	-0.600148	-0.349263
C66	C	1.454851	-0.100148	0.150737
C67	C	0.996756	-0.636893	-0.307442
C68	C	1.496756	-0.136893	0.192558
C69	C	0.993943	-0.710399	-0.310296
C70	C	1.493943	-0.210399	0.189704
C71	C	0.949222	-0.747158	-0.354967
C72	C	1.449222	-0.247158	0.145033
C73	C	0.907315	-0.710408	-0.396793
C74	C	1.407315	-0.210408	0.103207
C75	C	0.910132	-0.636904	-0.393942
C76	C	1.410132	-0.136904	0.106058
C77	C	0.936157	-0.966992	-0.368134
C78	C	1.436157	-0.466992	0.131866
C79	C	0.933342	-1.040502	-0.370980
C80	C	1.433342	-0.540502	0.129020
C81	C	1.019971	-1.040487	-0.284484
C82	C	1.519971	-0.540487	0.215516
C83	C	1.022781	-0.966982	-0.281635
C84	C	1.522781	-0.466982	0.218365
C85	C	0.980877	-0.930238	-0.323462
C86	C	1.480877	-0.430238	0.176538
N87	N	0.946344	-0.822292	-0.357884
N88	N	1.446344	-0.322292	0.142116
N89	N	0.983758	-0.855105	-0.320549
N90	N	1.483758	-0.355105	0.179451
C91	C	1.141533	-0.339068	-0.339226
C92	C	1.641533	0.160932	0.160774
C93	C	1.216765	-0.339074	-0.339236
C94	C	1.716765	0.160926	0.160764
C95	C	0.965022	-0.339006	-0.515744
C96	C	1.465022	0.160994	-0.015744
C97	C	0.965036	-0.338985	-0.590975
C98	C	1.465036	0.161015	-0.090975
C99	C	0.972182	-0.155476	-0.332161
C100	C	1.472182	0.344524	0.167839
C101	C	0.975247	-0.077246	-0.329160
C102	C	1.475247	0.422754	0.170840
C103	C	0.923521	-0.293962	-0.624586
C104	C	1.423521	0.206038	-0.124586
C105	C	0.923531	-0.293948	-0.695274
C106	C	1.423531	0.206052	-0.195274
C107	C	0.965059	-0.338954	-0.732350
C108	C	1.465059	0.161046	-0.232350
C109	C	1.006576	-0.383983	-0.698734
C110	C	1.506576	0.116017	-0.198734
C111	C	1.006562	-0.383999	-0.628048
C112	C	1.506562	0.116001	-0.128048
C113	C	1.006632	-0.383917	-0.983805
C114	C	1.506632	0.116083	-0.483805
C115	C	1.006644	-0.383895	-1.054496
C116	C	1.506644	0.116105	-0.554496
C117	C	0.923601	-0.293865	-1.051032
C118	C	1.423601	0.206135	-0.551032
C119	C	0.923587	-0.293882	-0.980345
C120	C	1.423587	0.206118	-0.480345
C121	C	0.965101	-0.338913	-0.946736
C122	C	1.465101	0.161087	-0.446736
C123	C	0.965088	-0.338928	-0.870088
C124	C	1.465088	0.161072	-0.370088
C125	C	0.965076	-0.338936	-0.808996
C126	C	1.465076	0.161064	-0.308996
C127	C	0.965000	-0.339052	-0.163347
C128	C	1.465000	0.160948	0.336653
C129	C	0.965126	-0.338875	-0.088109
C130	C	1.465126	0.161125	0.411891
H131	H	0.220166	-0.420847	-0.420778
H132	H	0.720166	0.079153	0.079222
H133	H	0.226494	-0.257303	-0.257684
H134	H	0.726494	0.242697	0.242316
H135	H	0.710498	-0.257272	-0.257647
H136	H	1.210498	0.242728	0.242353
H137	H	1.040385	-0.420631	-0.728927
H138	H	1.540385	0.079369	-0.228927
H139	H	1.054088	-1.070411	-0.250432
H140	H	1.554088	-0.570411	0.249568
H141	H	0.896932	-1.070429	-0.407369
H142	H	1.396932	-0.570429	0.092631
H143	H	0.902036	-0.937082	-0.402191
H144	H	1.402036	-0.437082	0.097809
H145	H	0.870905	-0.740343	-0.433168
H146	H	1.370905	-0.240343	0.066832
H147	H	0.354728	-0.257296	-0.257670
H148	H	0.854728	0.242704	0.242330
H149	H	1.028066	-0.740313	-0.276241
H150	H	1.528066	-0.240313	0.223759
H151	H	1.040427	-0.420591	-0.956449
H152	H	1.540427	0.079409	-0.456449
H153	H	1.033170	-0.606968	-0.271063
H154	H	1.533170	-0.106968	0.228937
H155	H	0.876009	-0.606987	-0.427997
H156	H	1.376009	-0.106987	0.072003
H157	H	0.582252	-0.257284	-0.257661
H158	H	1.082252	0.242716	0.242339
H159	H	0.889708	-0.257308	-0.594404
H160	H	1.389708	0.242692	-0.094404
H161	H	1.040463	-0.420548	-1.084682
H162	H	1.540463	0.079452	-0.584682
H163	H	1.059196	-0.937054	-0.245260
H164	H	1.559196	-0.437054	0.254740
H165	H	0.889723	-0.257288	-0.722637
H166	H	1.389723	0.242712	-0.222637
H167	H	0.889773	-0.257230	-0.950162
H168	H	1.389773	0.242770	-0.450162
H169	H	0.889797	-0.257201	-1.078405
H170	H	1.389797	0.242799	-0.578405
H171	H	1.040372	-0.420657	-0.600682
H172	H	1.540372	0.079343	-0.100682
H173	H	0.575938	-0.420827	-0.420749
H174	H	1.075938	0.079173	0.079251
H175	H	0.704172	-0.420825	-0.420734
H176	H	1.204172	0.079175	0.079266
H177	H	0.348411	-0.420841	-0.420765
H178	H	0.848411	0.079159	0.079235
