data_functionalizedCrystal
_audit_creation_method	'MofGen! by Chris Wilmer'
_symmetry_space_group_name_H-M	'P1'
_symmetry_Int_Tables_number	1
_symmetry_cell_setting	triclinic
loop_
_symmetry_equiv_pos_as_xyz
  x,y,z
_cell_length_a	15.944545
_cell_length_b	12.837942
_cell_length_c	11.892095
_cell_angle_alpha	85.697431
_cell_angle_beta	86.103551
_cell_angle_gamma	90.837444
loop_
_atom_site_label
_atom_site_type_symbol
_atom_site_fract_x
_atom_site_fract_y
_atom_site_fract_z
O1	O	1.130056	-0.127043	-0.093929
O2	O	0.886826	-0.143532	-0.093947
O3	O	1.003047	0.015615	-0.093931
O4	O	1.013835	-0.286190	-0.093944
O5	O	0.993356	0.002366	0.094075
O6	O	0.877134	-0.156781	0.094059
O7	O	1.120364	-0.140292	0.094078
Zn8	Zn	0.997210	-0.150640	0.123918
Zn9	Zn	1.009980	-0.133184	-0.123788
O10	O	1.004143	-0.299439	0.094062
C11	C	0.850631	-0.149473	0.000054
C12	C	0.757222	-0.147423	0.000047
C13	C	0.478207	-0.042655	0.000064
C14	C	0.528051	-0.099699	0.092761
C15	C	0.420992	-0.140118	0.000067
C16	C	0.537589	-0.086662	-0.092598
C17	C	0.586193	-0.143702	0.000055
C18	C	0.469602	-0.197141	0.092841
C19	C	0.479140	-0.184085	-0.092602
C20	C	0.528955	-0.241202	0.000118
C21	C	0.325824	-0.138050	0.000074
C22	C	0.681358	-0.145777	0.000056
C23	C	0.994558	0.047612	0.000071
C24	C	0.983690	0.162689	0.000068
C25	C	1.156559	-0.134351	0.000074
C26	C	1.249969	-0.136400	0.000074
C27	C	1.012633	-0.331435	0.000057
C28	C	1.023501	-0.446512	0.000052
N29	N	0.988502	-0.162553	0.292971
C30	C	1.114343	0.403643	0.000055
C31	C	1.104136	0.511770	0.000052
C32	C	0.953069	0.487071	0.000052
C33	C	0.963276	0.378945	0.000055
C34	C	1.043916	0.337235	0.000058
C35	C	1.054122	0.229106	0.000069
C36	C	0.903056	0.204410	0.000061
C37	C	0.892849	0.312537	0.000058
N38	N	1.018695	-0.121263	-0.292841
C39	C	1.079290	-0.038310	0.529631
C40	C	1.073209	-0.046644	0.647973
C41	C	0.970256	-0.187550	0.647997
C42	C	0.976336	-0.179216	0.529656
C43	C	1.030856	-0.104594	0.470477
C44	C	1.036941	-0.096265	0.352134
C45	C	0.933983	-0.237166	0.352160
C46	C	0.927903	-0.245500	0.470501
H47	H	0.567252	-0.039962	-0.170962
H48	H	1.081336	-0.035508	0.303952
H49	H	0.845709	0.150327	0.000072
H50	H	0.894548	-0.291142	0.303983
H51	H	0.827194	0.346512	0.000052
O52	O	1.132265	0.034256	0.472314
C53	C	1.233788	0.173083	0.484775
C54	C	1.173811	0.090964	0.549825
H55	H	1.267407	0.218939	0.547413
H56	H	1.196263	0.228869	0.429410
H57	H	1.282140	0.132175	0.429329
H58	H	1.125447	0.131783	0.605332
H59	H	1.211392	0.035184	0.605118
O60	O	1.172477	0.576374	0.000202
C61	C	1.243635	0.705881	0.097630
C62	C	1.166183	0.632784	0.097591
H63	H	1.238582	0.751492	0.176373
H64	H	1.246688	0.762728	0.019002
H65	H	1.303011	0.657474	0.097576
H66	H	1.106765	0.681106	0.097686
H67	H	1.163205	0.575934	0.176213
H68	H	0.887416	0.521052	0.000038
O69	O	0.874996	-0.318116	0.527864
C70	C	0.838372	-0.500887	0.564131
C71	C	0.898337	-0.418756	0.499083
H72	H	0.857233	-0.582275	0.540904
H73	H	0.771200	-0.485780	0.540850
H74	H	0.842324	-0.495407	0.658869
H75	H	0.894459	-0.424189	0.404330
H76	H	0.965484	-0.433889	0.522459
O77	O	0.917171	-0.259913	0.705449
C78	C	0.774114	-0.323112	0.741656
C79	C	0.834139	-0.241089	0.676538
H80	H	0.706973	-0.307935	0.718288
H81	H	0.778016	-0.317667	0.836410
H82	H	0.792932	-0.404511	0.718419
H83	H	0.815362	-0.159653	0.699680
H84	H	0.830229	-0.246626	0.581800
H85	H	0.549649	-0.064061	0.171133
H86	H	0.455834	0.041274	0.000157
H87	H	0.551164	-0.325206	0.000169
H88	H	1.112648	0.007332	0.696133
H89	H	0.440038	-0.243800	0.171293
H90	H	1.180002	0.369682	0.000068
O91	O	0.453392	-0.226401	-0.186214
C92	C	0.459009	-0.215997	-0.389756
C93	C	0.488216	-0.167966	-0.283824
H94	H	0.487165	-0.168787	-0.468700
H95	H	0.387475	-0.214686	-0.388483
H96	H	0.480811	-0.300135	-0.390500
H97	H	0.466473	-0.083812	-0.283010
H98	H	0.559749	-0.169359	-0.285137
H99	H	1.119783	0.195148	0.000075
