data_functionalizedCrystal
_audit_creation_method	'MofGen! by Chris Wilmer'
_symmetry_space_group_name_H-M	'P1'
_symmetry_Int_Tables_number	1
_symmetry_cell_setting	triclinic
loop_
_symmetry_equiv_pos_as_xyz
  x,y,z
_cell_length_a	10.654545
_cell_length_b	10.654550
_cell_length_c	9.730223
_cell_angle_alpha	89.996328
_cell_angle_beta	90.002141
_cell_angle_gamma	95.515995
loop_
_atom_site_label
_atom_site_type_symbol
_atom_site_fract_x
_atom_site_fract_y
_atom_site_fract_z
O1	O	1.667841	-0.176371	0.114276
O2	O	1.302362	-0.193183	0.114282
O3	O	1.493505	-0.002037	0.114270
O4	O	1.476699	-0.367516	0.114287
O5	O	1.493495	-0.002034	-0.114310
O6	O	1.302352	-0.193179	-0.114298
O7	O	1.667831	-0.176367	-0.114304
Zn8	Zn	1.485090	-0.184773	-0.150593
Zn9	Zn	1.485103	-0.184777	0.150571
O10	O	1.476688	-0.367513	-0.114292
C11	C	1.255559	-0.191948	-0.000008
C12	C	1.116115	-0.188258	-0.000006
C13	C	1.050605	-0.186519	-0.124606
C14	C	0.919586	-0.183032	-0.124606
C15	C	0.919597	-0.183027	0.124605
C16	C	1.050616	-0.186506	0.124603
C17	C	1.492266	0.044762	-0.000019
C18	C	1.488574	0.184206	-0.000017
C19	C	1.714634	-0.177602	-0.000012
C20	C	1.854078	-0.181292	-0.000005
C21	C	1.477927	-0.414312	-0.000000
C22	C	1.481619	-0.553755	0.000007
N23	N	1.485090	-0.184769	-0.356130
C24	C	1.601115	0.263693	-0.000018
C25	C	1.597639	0.394714	-0.000002
C26	C	1.369069	0.366747	0.000012
C27	C	1.372547	0.235729	0.000005
C28	C	1.569763	-0.100162	-0.571953
C29	C	1.569755	-0.100163	-0.428070
C30	C	1.400436	-0.269387	-0.428080
C31	C	1.400451	-0.269391	-0.571960
N32	N	1.485113	-0.184771	0.356107
H33	H	1.103931	-0.187946	-0.226070
C34	C	0.847529	-0.181134	-0.261676
N35	N	0.793256	-0.179708	-0.364923
H36	H	1.331504	-0.338281	-0.369498
C37	C	1.662900	-0.007084	-0.651074
N38	N	1.733056	0.063023	-0.710664
H39	H	1.331518	-0.338296	-0.630537
H40	H	1.274604	0.408713	0.000027
C41	C	1.721444	0.482145	-0.000015
N42	N	1.814700	0.547998	-0.000028
H43	H	1.638687	-0.031268	-0.369500
C44	C	1.122682	-0.188411	0.261680
N45	N	1.176963	-0.189841	0.364922
H46	H	1.280896	0.171006	0.000010
H47	H	1.695592	0.221748	-0.000033
C48	C	0.847534	-0.181109	0.261667
N49	N	0.793257	-0.179669	0.364906
