data_functionalizedCrystal
_audit_creation_method	'MofGen! by Chris Wilmer'
_symmetry_space_group_name_H-M	'P1'
_symmetry_Int_Tables_number	1
_symmetry_cell_setting	triclinic
loop_
_symmetry_equiv_pos_as_xyz
  x,y,z
_cell_length_a	6.817900
_cell_length_b	9.582889
_cell_length_c	23.753023
_cell_angle_alpha	94.471399
_cell_angle_beta	100.067528
_cell_angle_gamma	111.207298
loop_
_atom_site_label
_atom_site_type_symbol
_atom_site_fract_x
_atom_site_fract_y
_atom_site_fract_z
V1	V	-4.029112	-0.208944	-0.178282
O2	O	-3.975456	0.008096	-0.174996
O3	O	-4.020166	-0.412431	-0.176959
O4	O	-3.963692	-0.206584	-0.256085
O5	O	-4.032321	-0.199177	-0.095323
V6	V	-4.509834	-0.182883	-0.168372
O7	O	-4.296517	-0.266112	-0.200021
O8	O	-4.692626	-0.125715	-0.146634
O9	O	-4.295574	0.020604	-0.169695
O10	O	-4.680887	-0.399923	-0.171658
O11	O	-4.624022	-0.192651	-0.251332
O12	O	-4.352047	-0.185244	-0.090570
C13	C	-3.875315	-0.462010	-0.174120
C14	C	-3.949174	-0.628369	-0.173557
C15	C	-3.803276	-0.199429	-0.275052
C16	C	-3.831332	-0.198845	-0.338655
C17	C	-4.070524	-0.332539	-0.741178
C18	C	-4.096925	-0.332013	-0.800942
O19	O	-4.165868	-0.448367	-0.838743
N20	N	-4.045186	-0.194614	-0.822729
C21	C	-3.967060	-0.057732	-0.784750
O22	O	-3.925478	0.059185	-0.808769
C23	C	-3.940675	-0.058259	-0.724987
C24	C	-3.992400	-0.195667	-0.703203
C25	C	-4.122246	-0.469935	-0.719393
C26	C	-4.095843	-0.470459	-0.659633
C27	C	-4.017718	-0.333587	-0.621658
C28	C	-3.965996	-0.196191	-0.643443
C29	C	-3.862565	0.078621	-0.687009
C30	C	-3.836185	0.078081	-0.627243
C31	C	-3.887910	-0.059326	-0.605459
C32	C	-3.861468	-0.059844	-0.545709
N33	N	-3.913208	-0.197243	-0.523921
C34	C	-3.991332	-0.334115	-0.561896
C35	C	-4.022480	-0.056635	-0.910255
C36	C	-4.048850	-0.056106	-0.970016
C37	C	-4.178717	-0.330388	-0.986204
C38	C	-4.152332	-0.330915	-0.926442
C39	C	-4.074219	-0.194035	-0.888468
C40	C	-3.935877	-0.335205	-0.436396
C41	C	-3.909457	-0.335717	-0.376630
C42	C	-3.779603	-0.061437	-0.360447
C43	C	-3.806010	-0.060923	-0.420208
C44	C	-3.884158	-0.197820	-0.458181
O45	O	-3.792546	0.056450	-0.507873
O46	O	-4.032929	-0.451013	-0.537868
C47	C	-4.103768	0.070175	-0.172533
C48	C	-4.009147	0.236532	-0.173100
C49	C	-4.175807	-0.192403	-0.071600
C50	C	-4.126988	-0.192979	-0.007996
H51	H	-3.951576	-0.447615	-0.358897
N52	N	-4.015711	-0.475054	-0.475171
N53	N	-4.061873	-0.597708	-0.455702
H54	H	-4.118246	-0.696477	-0.483086
H55	H	-4.194452	-0.442804	-0.908710
N56	N	-3.996019	0.084239	-0.992274
N57	N	-4.019596	0.084709	-1.045633
H58	H	-3.982293	0.183832	-1.061352
N59	N	-3.699765	0.078369	-0.321650
N60	N	-3.529085	0.114469	-0.284249
H61	H	-3.472706	0.213207	-0.256846
H62	H	-3.958855	0.054837	-0.879339
N63	N	-4.148970	-0.610884	-0.637430
N64	N	-4.054183	-0.697013	-0.647295
H65	H	-4.091829	-0.796221	-0.631634
N66	N	-4.202068	-0.609773	-0.758170
N67	N	-4.248236	-0.732425	-0.738700
H68	H	-4.304602	-0.831196	-0.766082
H69	H	-3.772583	0.189549	-0.596327
H70	H	-3.763902	0.050964	-0.437945
N71	N	-4.258505	-0.470190	-1.025009
N72	N	-4.282045	-0.469683	-1.078365
H73	H	-4.338385	-0.568411	-1.105773
H74	H	-3.820425	0.190513	-0.704734
