data_functionalizedCrystal
_audit_creation_method	'MofGen! by Chris Wilmer'
_symmetry_space_group_name_H-M	'P1'
_symmetry_Int_Tables_number	1
_symmetry_cell_setting	triclinic
loop_
_symmetry_equiv_pos_as_xyz
  x,y,z
_cell_length_a	19.805405
_cell_length_b	17.077404
_cell_length_c	17.077396
_cell_angle_alpha	89.981638
_cell_angle_beta	89.968350
_cell_angle_gamma	90.024381
loop_
_atom_site_label
_atom_site_type_symbol
_atom_site_fract_x
_atom_site_fract_y
_atom_site_fract_z
Zn1	Zn	-0.269500	1.200035	-0.443802
Zn2	Zn	0.063833	1.533369	-0.110468
Zn3	Zn	0.397167	1.866702	0.222865
Zn4	Zn	-0.382693	1.199934	-0.312528
Zn5	Zn	-0.049360	1.533268	0.020805
Zn6	Zn	0.283974	1.866601	0.354138
Zn7	Zn	-0.269519	1.068767	-0.312552
Zn8	Zn	0.063814	1.402101	0.020781
Zn9	Zn	0.397148	1.735434	0.354115
Zn10	Zn	-0.382648	1.068727	-0.443754
Zn11	Zn	-0.049315	1.402060	-0.110421
Zn12	Zn	0.284018	1.735394	0.222912
O13	O	-0.326090	1.134366	-0.378159
O14	O	0.007243	1.467699	-0.044826
O15	O	0.340577	1.801033	0.288508
O16	O	-0.284526	1.309869	-0.426398
O17	O	0.048808	1.643202	-0.093064
O18	O	0.382141	1.976536	0.240269
O19	O	-0.367707	1.182509	-0.202684
O20	O	-0.034374	1.515843	0.130649
O21	O	0.298960	1.849176	0.463982
O22	O	-0.174800	1.086239	-0.329992
O23	O	0.158533	1.419573	0.003341
O24	O	0.491867	1.752906	0.336674
O25	O	-0.367688	1.309795	-0.329952
O26	O	-0.034355	1.643128	0.003382
O27	O	0.298979	1.976461	0.336715
O28	O	-0.174786	1.182681	-0.426421
O29	O	0.158548	1.516015	-0.093087
O30	O	0.491881	1.849348	0.240246
O31	O	-0.284559	1.086141	-0.202702
O32	O	0.048775	1.419475	0.130631
O33	O	0.382108	1.752808	0.463965
O34	O	-0.284515	0.958915	-0.329947
O35	O	0.048818	1.292248	0.003387
O36	O	0.382151	1.625582	0.336720
O37	O	-0.367612	1.086171	-0.553608
O38	O	-0.034279	1.419504	-0.220274
O39	O	0.299055	1.752838	0.113059
O40	O	-0.367631	0.958886	-0.426340
O41	O	-0.034297	1.292219	-0.093007
O42	O	0.299036	1.625552	0.240326
O43	O	-0.284482	1.182643	-0.553642
O44	O	0.048851	1.515976	-0.220309
O45	O	0.382184	1.849309	0.113024
O46	O	-0.477404	1.182470	-0.329906
O47	O	-0.144070	1.515804	0.003427
O48	O	0.189263	1.849137	0.336761
O49	O	-0.477371	1.086073	-0.426317
O50	O	-0.144037	1.419406	-0.092984
O51	O	0.189296	1.752740	0.240349
C52	C	-0.326071	0.930418	-0.378141
C53	C	0.007262	1.263751	-0.044808
C54	C	0.340596	1.597085	0.288525
C55	C	-0.326079	0.843168	-0.378153
C56	C	0.007254	1.176502	-0.044819
C57	C	0.340588	1.509835	0.288514
C58	C	-0.282853	0.802218	-0.428449
C59	C	0.050480	1.135551	-0.095115
C60	C	0.383813	1.468884	0.238218
C61	C	-0.282858	0.720237	-0.428452
C62	C	0.050476	1.053570	-0.095119
C63	C	0.383809	1.386904	0.238214
C64	C	-0.326092	0.679209	-0.378163
C65	C	0.007242	1.012542	-0.044830
C66	C	0.340575	1.345876	0.288503
C67	C	-0.369319	0.720165	-0.327862
C68	C	-0.035986	1.053499	0.005472
C69	C	0.297348	1.386832	0.338805
C70	C	-0.369311	0.802144	-0.327855
C71	C	-0.035978	1.135478	0.005479
C72	C	0.297356	1.468811	0.338812
C73	C	-0.369335	0.549295	-0.327881
C74	C	-0.036001	0.882629	0.005452
C75	C	0.297332	1.215962	0.338786
C76	C	-0.369344	0.467311	-0.327889
C77	C	-0.036011	0.800644	0.005444
C78	C	0.297323	1.133977	0.338778
C79	C	-0.282881	0.467388	-0.428479
C80	C	0.050452	0.800721	-0.095145
C81	C	0.383785	1.134055	0.238188
C82	C	-0.282873	0.549367	-0.428472
C83	C	0.050460	0.882700	-0.095138
C84	C	0.383794	1.216034	0.238195
C85	C	-0.326102	0.590318	-0.378171
C86	C	0.007232	0.923651	-0.044838
C87	C	0.340565	1.256985	0.288496
C88	C	-0.501946	1.134278	-0.378121
C89	C	-0.168613	1.467611	-0.044788
C90	C	0.164721	1.800944	0.288546
C91	C	-0.577178	1.134312	-0.378131
C92	C	-0.243845	1.467645	-0.044798
C93	C	0.089489	1.800978	0.288536
C94	C	-0.612517	1.184555	-0.327982
C95	C	-0.279183	1.517888	0.005351
C96	C	0.054150	1.851221	0.338684
C97	C	-0.683205	1.184588	-0.328000
C98	C	-0.349872	1.517921	0.005334
C99	C	-0.016539	1.851255	0.338667
C100	C	-0.718554	1.134374	-0.378162
C101	C	-0.385220	1.467707	-0.044829
C102	C	-0.051887	1.801041	0.288504
C103	C	-0.683210	1.084129	-0.428317
C104	C	-0.349877	1.417462	-0.094983
C105	C	-0.016543	1.750795	0.238350
C106	C	-0.612523	1.084100	-0.428303
C107	C	-0.279189	1.417433	-0.094969
C108	C	0.054144	1.750767	0.238364
C109	C	-0.968283	1.084245	-0.428375
C110	C	-0.634950	1.417578	-0.095042
C111	C	-0.301616	1.750911	0.238292
C112	C	-1.038975	1.084276	-0.428383
C113	C	-0.705642	1.417609	-0.095050
C114	C	-0.372309	1.750942	0.238283
C115	C	-1.038966	1.184733	-0.328072
C116	C	-0.705632	1.518066	0.005262
C117	C	-0.372299	1.851399	0.338595
C118	C	-0.968278	1.184704	-0.328058
C119	C	-0.634945	1.518037	0.005276
C120	C	-0.301612	1.851370	0.338609
C121	C	-0.932941	1.134462	-0.378215
C122	C	-0.599608	1.467795	-0.044881
C123	C	-0.266274	1.801129	0.288452
C124	C	-0.856293	1.134427	-0.378196
C125	C	-0.522959	1.467761	-0.044863
C126	C	-0.189626	1.801094	0.288470
C127	C	-0.795201	1.134404	-0.378177
C128	C	-0.461867	1.467737	-0.044844
C129	C	-0.128534	1.801070	0.288489
C130	C	-0.149547	1.134476	-0.378214
C131	C	0.183786	1.467809	-0.044881
C132	C	0.517119	1.801143	0.288452
C133	C	-0.074315	1.134523	-0.378238
C134	C	0.259018	1.467856	-0.044905
C135	C	0.592351	1.801190	0.288429
C136	C	-0.326040	1.134414	-0.582903
C137	C	0.007293	1.467747	-0.249570
C138	C	0.340627	1.801080	0.083763
C139	C	-0.326019	1.134434	-0.670153
C140	C	0.007314	1.467767	-0.336820
C141	C	0.340648	1.801100	-0.003487
C142	C	-0.326110	1.339110	-0.378177
C143	C	0.007224	1.672444	-0.044844
C144	C	0.340557	2.005777	0.288489
C145	C	-0.326118	1.426360	-0.378185
C146	C	0.007215	1.759693	-0.044852
C147	C	0.340548	2.093027	0.288482
C148	C	-0.282730	1.184668	-0.711163
C149	C	0.050604	1.518002	-0.377829
C150	C	0.383937	1.851335	-0.044496
C151	C	-0.282707	1.184678	-0.793143
C152	C	0.050626	1.518011	-0.459810
C153	C	0.383959	1.851344	-0.126477
C154	C	-0.325978	1.134456	-0.834113
C155	C	0.007356	1.467789	-0.500779
C156	C	0.340689	1.801123	-0.167446
C157	C	-0.369269	1.084216	-0.793098
C158	C	-0.035936	1.417549	-0.459764
C159	C	0.297398	1.750883	-0.126431
C160	C	-0.369287	1.084203	-0.711119
C161	C	-0.035954	1.417536	-0.377785
C162	C	0.297379	1.750870	-0.044452
C163	C	-0.369228	1.084247	-0.963968
C164	C	-0.035895	1.417581	-0.630634
C165	C	0.297438	1.750914	-0.297301
C166	C	-0.369211	1.084261	-1.045952
C167	C	-0.035877	1.417594	-0.712619
C168	C	0.297456	1.750928	-0.379286
C169	C	-0.282648	1.184722	-1.045992
C170	C	0.050685	1.518056	-0.712659
C171	C	0.384019	1.851389	-0.379326
C172	C	-0.282666	1.184709	-0.964013
C173	C	0.050667	1.518043	-0.630680
C174	C	0.384000	1.851376	-0.297347
C175	C	-0.325959	1.134470	-0.923004
C176	C	0.007375	1.467803	-0.589671
C177	C	0.340708	1.801137	-0.256337
C178	C	-0.326091	1.134364	-0.174211
C179	C	0.007242	1.467697	0.159122
C180	C	0.340576	1.801031	0.492455
C181	C	-0.325921	1.134496	-0.086962
C182	C	0.007412	1.467829	0.246371
C183	C	0.340745	1.801162	0.579705
H184	H	-0.247672	0.582770	-0.469426
H185	H	0.085661	0.916103	-0.136093
H186	H	0.418995	1.249437	0.197241
H187	H	-0.939517	1.043334	-0.469213
H188	H	-0.606184	1.376668	-0.135880
H189	H	-0.272850	1.710001	0.197454
H190	H	-0.404471	1.043325	-0.930580
H191	H	-0.071137	1.376658	-0.597247
H192	H	0.262196	1.709992	-0.263914
F193	F	-0.415371	0.423647	-0.274381
F194	F	-0.082038	0.756980	0.058953
F195	F	0.251296	1.090314	0.392286
F196	F	-1.076580	1.238209	-0.274693
F197	F	-0.743247	1.571542	0.058640
F198	F	-0.409913	1.904875	0.391973
H199	H	-0.247682	0.434042	-0.469434
H200	H	0.085652	0.767375	-0.136101
H201	H	0.418985	1.100709	0.197233
F202	F	-0.415329	0.676498	-0.274336
F203	F	-0.081995	1.009831	0.058998
F204	F	0.251338	1.343165	0.392331
H205	H	-0.711975	1.225500	-0.287163
H206	H	-0.378642	1.558833	0.046170
H207	H	-0.045308	1.892167	0.379504
H208	H	-0.247496	1.225567	-0.677811
H209	H	0.085838	1.558901	-0.344478
H210	H	0.419171	1.892234	-0.011145
F211	F	-0.236840	0.845876	-0.481978
F212	F	0.096493	1.179209	-0.148644
F213	F	0.429827	1.512542	0.184689
F214	F	-0.415346	0.592876	-0.274348
F215	F	-0.082013	0.926210	0.058985
F216	F	0.251320	1.259543	0.392318
H217	H	-0.404509	0.835485	-0.286898
H218	H	-0.071176	1.168819	0.046435
H219	H	0.262157	1.502152	0.379769
F220	F	-0.236573	1.238192	-1.089638
F221	F	0.096760	1.571525	-0.756305
F222	F	0.430093	1.904858	-0.422972
H223	H	-0.404498	1.043322	-0.826462
H224	H	-0.071165	1.376655	-0.493128
H225	H	0.262169	1.709988	-0.159795
F226	F	-0.574903	1.237995	-0.274586
F227	F	-0.241569	1.571329	0.058747
F228	F	0.091764	1.904662	0.392080
F229	F	-0.236617	1.238166	-0.920412
F230	F	0.096716	1.571499	-0.587079
F231	F	0.430050	1.904832	-0.253745
F232	F	-0.930662	1.238148	-0.274667
F233	F	-0.597329	1.571481	0.058666
F234	F	-0.263995	1.904814	0.391999
F235	F	-0.720832	1.030691	-0.481709
F236	F	-0.387499	1.364025	-0.148375
F237	F	-0.054166	1.697358	0.184958
F238	F	-0.236852	0.676658	-0.481986
F239	F	0.096481	1.009991	-0.148652
F240	F	0.429815	1.343325	0.184681
F241	F	-1.076594	1.030829	-0.481777
F242	F	-0.743261	1.364163	-0.148444
F243	F	-0.409928	1.697496	0.184889
F244	F	-0.574913	1.030627	-0.481680
F245	F	-0.241580	1.363960	-0.148347
F246	F	0.091754	1.697293	0.184986
H247	H	-0.247458	1.225586	-0.826530
H248	H	0.085875	1.558919	-0.493196
H249	H	0.419208	1.892252	-0.159863
F250	F	-0.415258	1.030803	-1.089554
F251	F	-0.081925	1.364136	-0.756221
F252	F	0.251408	1.697470	-0.422887
F253	F	-0.415360	1.030735	-0.667474
F254	F	-0.082027	1.364068	-0.334140
F255	F	0.251307	1.697401	-0.000807
