data_functionalizedCrystal
_audit_creation_method	'MofGen! by Chris Wilmer'
_symmetry_space_group_name_H-M	'P1'
_symmetry_Int_Tables_number	1
_symmetry_cell_setting	triclinic
loop_
_symmetry_equiv_pos_as_xyz
  x,y,z
_cell_length_a	10.540539
_cell_length_b	16.992694
_cell_length_c	16.053802
_cell_angle_alpha	92.750953
_cell_angle_beta	92.593658
_cell_angle_gamma	92.403143
loop_
_atom_site_label
_atom_site_type_symbol
_atom_site_fract_x
_atom_site_fract_y
_atom_site_fract_z
O1	O	0.264306	-1.045174	-0.069318
O2	O	0.764306	-0.545174	0.430682
O3	O	0.261349	-0.816873	-0.069343
O4	O	0.761349	-0.316873	0.430657
O5	O	0.078573	-0.936232	-0.069329
O6	O	0.578573	-0.436232	0.430671
O7	O	0.447082	-0.925815	-0.069332
O8	O	0.947082	-0.425815	0.430668
O9	O	0.088589	-0.929662	0.069529
O10	O	0.588589	-0.429662	0.569529
O11	O	0.271366	-0.810303	0.069516
O12	O	0.771366	-0.310303	0.569516
O13	O	0.274322	-1.038604	0.069540
O14	O	0.774322	-0.538604	0.569540
Zn15	Zn	0.274434	-0.923410	0.091575
Zn16	Zn	0.774434	-0.423410	0.591575
Zn17	Zn	0.261237	-0.932067	-0.091377
Zn18	Zn	0.761237	-0.432067	0.408623
O19	O	0.457098	-0.919245	0.069526
O20	O	0.957098	-0.419245	0.569526
C21	C	0.262556	-0.784355	0.000083
C22	C	0.762556	-0.284355	0.500083
C23	C	0.251215	-0.697247	0.000074
C24	C	0.751215	-0.197247	0.500074
C25	C	0.036210	-0.932166	0.000099
C26	C	0.536210	-0.432166	0.500099
C27	C	-0.104941	-0.929829	0.000094
C28	C	0.395059	-0.429829	0.500094
N29	N	0.283440	-0.917508	0.216434
N30	N	0.783440	-0.417508	0.716434
C31	C	-0.296162	-0.840283	-0.000227
C32	C	0.203838	-0.340283	0.499773
C33	C	-0.149316	-0.842638	0.000086
C34	C	0.350684	-0.342638	0.500086
C35	C	-0.157237	-0.968037	0.079393
C36	C	0.342763	-0.468037	0.579393
C37	C	-0.304035	-0.965058	0.079460
C38	C	0.195965	-0.465058	0.579460
C39	C	-0.315790	-0.974303	-0.078448
C40	C	0.184210	-0.474303	0.421552
C41	C	-0.168814	-0.975156	-0.079496
C42	C	0.331186	-0.475156	0.420504
C43	C	0.499461	-0.923311	0.000097
C44	C	0.999461	-0.423311	0.500097
C45	C	0.640612	-0.925649	0.000096
C46	C	1.140612	-0.425649	0.500096
C47	C	0.273115	-1.071123	0.000112
C48	C	0.773115	-0.571123	0.500112
C49	C	0.284456	-1.158230	0.000117
C50	C	0.784456	-0.658230	0.500117
C51	C	0.360635	-0.647620	0.000073
C52	C	0.860635	-0.147620	0.500073
C53	C	0.349973	-0.565773	0.000085
C54	C	0.849973	-0.065773	0.500085
C55	C	0.229889	-0.533555	0.000091
C56	C	0.729889	-0.033555	0.500091
C57	C	0.120461	-0.583189	0.000094
C58	C	0.620461	-0.083189	0.500094
C59	C	0.131125	-0.665034	0.000088
C60	C	0.631125	-0.165034	0.500088
C61	C	0.185691	-0.289709	0.000114
C62	C	0.685691	0.210291	0.500114
C63	C	0.175036	-0.207858	0.000117
C64	C	0.675036	0.292142	0.500117
C65	C	0.404549	-0.190447	0.000110
C66	C	0.904549	0.309553	0.500110
C67	C	0.415202	-0.272294	0.000099
C68	C	0.915202	0.227706	0.500099
C69	C	0.305774	-0.321921	0.000106
C70	C	0.805774	0.178079	0.500106
N71	N	0.218988	-0.449895	0.000100
N72	N	0.718988	0.050105	0.500100
N73	N	0.316677	-0.405579	0.000103
N74	N	0.816677	0.094421	0.500103
N75	N	0.252222	-0.937975	-0.216237
N76	N	0.752222	-0.437975	0.283763
C77	C	0.205700	-0.968315	0.260134
C78	C	0.705700	-0.468315	0.760134
C79	C	0.212013	-0.964193	0.347540
C80	C	0.712013	-0.464193	0.847540
C81	C	0.296073	-0.909269	0.391245
C82	C	0.796073	-0.409269	0.891245
C83	C	0.373817	-0.858458	0.347539
C84	C	0.873817	-0.358458	0.847539
C85	C	0.367497	-0.862576	0.260134
C86	C	0.867497	-0.362576	0.760134
C87	C	0.323645	-0.891281	0.652653
C88	C	0.823645	-0.391281	1.152653
C89	C	0.329962	-0.887169	0.740063
C90	C	0.829962	-0.387169	1.240063
C91	C	0.168156	-0.992904	0.740059
C92	C	0.668156	-0.492904	1.240059
C93	C	0.161848	-0.997020	0.652652
C94	C	0.661848	-0.497020	1.152652
C95	C	0.239587	-0.946206	0.608954
C96	C	0.739587	-0.446206	1.108954
N97	N	0.302531	-0.905057	0.480588
N98	N	0.802531	-0.405057	0.980588
N99	N	0.233122	-0.950415	0.519612
N100	N	0.733122	-0.450415	1.019612
H101	H	-0.113678	-0.812311	-0.056760
H102	H	0.386322	-0.312311	0.443240
H103	H	0.148710	-1.005563	0.383120
H104	H	0.648710	-0.505563	0.883120
H105	H	0.439075	-0.525369	0.000084
H106	H	0.939075	-0.025369	0.500084
H107	H	0.042023	-0.705441	0.000088
H108	H	0.542023	-0.205441	0.500088
H109	H	0.458420	-0.673844	0.000068
H110	H	0.958420	-0.173844	0.500068
H111	H	-0.357589	-1.037306	-0.078974
H112	H	0.142411	-0.537306	0.421026
H113	H	0.512986	-0.298520	0.000084
H114	H	1.012986	0.201480	0.500084
H115	H	-0.139421	-1.038951	-0.084277
H116	H	0.360579	-0.538951	0.415723
H117	H	0.493638	-0.150032	0.000105
H118	H	0.993638	0.349968	0.500105
H119	H	0.093400	-1.041744	0.617070
H120	H	0.593400	-0.541744	1.117070
H121	H	0.077244	-0.181630	0.000121
H122	H	0.577244	0.318370	0.500121
H123	H	0.096587	-0.330106	0.000120
H124	H	0.596587	0.169894	0.500120
H125	H	-0.330650	-0.931243	0.138731
H126	H	0.169350	-0.431243	0.638731
H127	H	0.442256	-0.813733	0.383129
H128	H	0.942256	-0.313733	0.883129
H129	H	0.022687	-0.556951	0.000111
H130	H	0.522687	-0.056951	0.500111
H131	H	0.137255	-1.013043	0.224555
H132	H	0.637255	-0.513043	0.724555
H133	H	0.104863	-1.034274	0.775646
H134	H	0.604863	-0.534274	1.275646
H135	H	-0.331853	-0.808532	-0.057095
H136	H	0.168147	-0.308532	0.442905
H137	H	0.430799	-0.821203	0.224555
H138	H	0.930799	-0.321203	0.724555
H139	H	0.398419	-0.842440	0.775644
H140	H	0.898419	-0.342440	1.275644
H141	H	-0.325268	-0.803306	0.056314
H142	H	0.174732	-0.303306	0.556314
H143	H	-0.346303	-1.027595	0.083064
H144	H	0.153697	-0.527595	0.583064
H145	H	-0.129114	-1.031928	0.082349
H146	H	0.370886	-0.531928	0.582349
H147	H	0.386945	-0.849907	0.617080
H148	H	0.886945	-0.349907	1.117080
H149	H	-0.106338	-0.806696	0.057018
H150	H	0.393662	-0.306696	0.557018
H151	H	-0.112911	-0.936097	0.138399
H152	H	0.387089	-0.436097	0.638399
H153	H	-0.354127	-0.948927	-0.138551
H154	H	0.145873	-0.448927	0.361449
H155	H	-0.134851	-0.947229	-0.138159
H156	H	0.365149	-0.447229	0.361841
