data_functionalizedCrystal
_audit_creation_method	'MofGen! by Chris Wilmer'
_symmetry_space_group_name_H-M	'P1'
_symmetry_Int_Tables_number	1
_symmetry_cell_setting	triclinic
loop_
_symmetry_equiv_pos_as_xyz
  x,y,z
_cell_length_a	15.944551
_cell_length_b	10.654550
_cell_length_c	9.130313
_cell_angle_alpha	90.000110
_cell_angle_beta	89.995744
_cell_angle_gamma	83.991821
loop_
_atom_site_label
_atom_site_type_symbol
_atom_site_fract_x
_atom_site_fract_y
_atom_site_fract_z
O1	O	-1.115457	-0.161961	-0.121643
O2	O	-0.871023	-0.181929	-0.121679
O3	O	-0.998860	0.010867	-0.121654
O4	O	-0.987620	-0.354757	-0.121667
O5	O	-0.998858	0.010862	0.121944
O6	O	-0.871021	-0.181935	0.121920
O7	O	-1.115455	-0.161966	0.121956
Cu8	Cu	-0.993238	-0.171951	0.144181
Cu9	Cu	-0.993240	-0.171945	-0.143903
O10	O	-0.987618	-0.354762	0.121932
C11	C	-0.998034	0.057652	0.000143
C12	C	-0.995565	0.197063	0.000138
C13	C	-0.839723	-0.181103	0.000116
C14	C	-0.746463	-0.178618	0.000102
C15	C	-1.146755	-0.162792	0.000158
C16	C	-1.240015	-0.165278	0.000162
C17	C	-0.530880	-0.053173	0.000135
C18	C	-0.470198	-0.111423	-0.119974
C19	C	-0.575711	-0.174122	0.000120
C20	C	-0.470219	-0.111457	0.120195
C21	C	-0.410773	-0.169770	0.000143
C22	C	-0.516257	-0.232405	-0.120088
C23	C	-0.516284	-0.232421	0.120189
C24	C	-0.455620	-0.290759	0.000050
C25	C	-0.670728	-0.176625	0.000105
C26	C	-0.315757	-0.167276	0.000147
C27	C	-0.988444	-0.401547	0.000131
C28	C	-0.990913	-0.540958	0.000127
N29	N	-0.993243	-0.171954	0.346803
C30	C	-1.070833	0.277522	0.000153
C31	C	-1.068508	0.408513	0.000143
C32	C	-0.915639	0.378572	0.000107
C33	C	-0.917965	0.247584	0.000107
C34	C	-1.148432	0.227002	0.000184
C35	C	-1.223707	0.307463	0.000201
C36	C	-1.221382	0.438453	0.000190
C37	C	-1.143782	0.488983	0.000162
N38	N	-0.993242	-0.171931	-0.346526
C39	C	-1.049864	-0.086613	0.423466
C40	C	-1.049861	-0.086598	0.576803
C41	C	-0.936615	-0.257277	0.576801
C42	C	-0.936614	-0.257285	0.423467
C43	C	-1.106493	-0.001282	0.346803
C44	C	-1.163119	0.084065	0.423465
C45	C	-1.163117	0.084080	0.576802
C46	C	-1.106488	-0.001252	0.653476
H47	H	-0.449792	-0.060264	-0.221514
H48	H	-0.423043	-0.391240	-0.000020
H49	H	-1.209220	0.153547	0.361030
C50	C	-0.831477	0.433673	0.000165
C51	C	-0.845551	0.565609	0.000210
C52	C	-0.768040	0.616409	0.000288
H53	H	-0.800387	0.406198	-0.084765
H54	H	-0.800444	0.406126	0.085143
H55	H	-0.876570	0.593145	-0.084759
H56	H	-0.876627	0.593119	0.085133
H57	H	-0.737007	0.588861	0.085266
H58	H	-0.736956	0.588924	-0.084643
H59	H	-0.777578	0.705931	0.000332
H60	H	-0.856675	0.182071	0.000096
C61	C	-0.443005	-0.043018	0.255414
C62	C	-0.401980	0.060947	0.212460
C63	C	-0.376912	0.124040	0.336974
H64	H	-0.405623	-0.098825	0.312074
H65	H	-0.491220	-0.014915	0.312347
H66	H	-0.353772	0.032842	0.155552
H67	H	-0.439347	0.116783	0.155818
H68	H	-0.425127	0.152144	0.393907
H69	H	-0.339532	0.068223	0.393625
H70	H	-0.349081	0.194594	0.307848
H71	H	-0.536711	-0.283537	0.221734
H72	H	-0.563632	0.047204	-0.000010
H73	H	-1.150334	0.120344	0.000197
H74	H	-1.286886	0.266312	0.000187
C75	C	-0.875005	-0.349778	0.659968
C76	C	-0.792350	-0.329309	0.622692
C77	C	-0.735573	-0.414489	0.699290
H78	H	-0.884495	-0.433660	0.634911
H79	H	-0.883060	-0.337543	0.762281
H80	H	-0.784298	-0.341554	0.520402
H81	H	-0.782832	-0.245445	0.647753
H82	H	-0.743629	-0.402255	0.801604
H83	H	-0.745071	-0.498366	0.674227
H84	H	-0.679485	-0.400606	0.674020
H85	H	-0.890507	-0.326776	0.361047
H86	H	-1.209218	0.153581	0.639220
H87	H	-0.536541	-0.283520	-0.221742
H88	H	-1.282674	0.503962	0.000189
H89	H	-1.106502	-0.001289	0.221948
H90	H	-1.141895	0.595646	0.000138
H91	H	-1.106486	-0.001224	0.778334
