data_functionalizedCrystal
_audit_creation_method	'MofGen! by Chris Wilmer'
_symmetry_space_group_name_H-M	'P1'
_symmetry_Int_Tables_number	1
_symmetry_cell_setting	triclinic
loop_
_symmetry_equiv_pos_as_xyz
  x,y,z
_cell_length_a	19.288864
_cell_length_b	26.210047
_cell_length_c	19.288865
_cell_angle_alpha	90.009860
_cell_angle_beta	83.136245
_cell_angle_gamma	90.030276
loop_
_atom_site_label
_atom_site_type_symbol
_atom_site_fract_x
_atom_site_fract_y
_atom_site_fract_z
O1	O	0.921361	0.042598	0.086646
O2	O	0.719100	0.042564	0.098335
O3	O	0.826075	0.042572	-0.008640
O4	O	0.814386	0.042590	0.193621
O5	O	0.826041	-0.042286	-0.008640
O6	O	0.719066	-0.042294	0.098335
O7	O	0.921327	-0.042260	0.086646
Cu8	Cu	0.820194	-0.050025	0.092490
Cu9	Cu	0.820233	0.050330	0.092490
O10	O	0.814352	-0.042268	0.193621
C11	C	0.693207	0.000131	0.097959
C12	C	0.616103	0.000117	0.096830
C13	C	0.571407	0.000131	0.159598
C14	C	0.498960	0.000137	0.158537
C15	C	0.471212	0.000139	0.094705
C16	C	0.515918	0.000122	0.031929
C17	C	0.588364	0.000111	0.032991
C18	C	0.362962	0.029881	0.044526
C19	C	0.290517	0.029895	0.043466
C20	C	0.247767	0.000169	0.091425
C21	C	0.277468	-0.029563	0.140456
C22	C	0.349913	-0.029574	0.141519
C23	C	0.392658	0.000150	0.093546
C24	C	0.124514	0.000188	0.153047
C25	C	0.052066	0.000191	0.151984
C26	C	0.069026	0.000181	0.025374
C27	C	0.141473	0.000174	0.026439
C28	C	0.169212	0.000180	0.090278
N29	N	0.820171	-0.120609	0.092490
C30	C	0.862219	-0.473111	0.134503
C31	C	0.862240	-0.686770	0.134503
O32	O	0.897975	-0.714382	0.170216
N33	N	0.820250	-0.713503	0.092483
C34	C	0.778255	-0.686818	0.050458
O35	O	0.742546	-0.714458	0.014713
C36	C	0.778239	-0.473160	0.050455
C37	C	0.820226	-0.446430	0.092482
C38	C	0.904203	-0.446381	0.176526
C39	C	0.904195	-0.392970	0.176529
C40	C	0.862202	-0.366289	0.134508
C41	C	0.820218	-0.393019	0.092485
C42	C	0.736249	-0.446476	0.008427
C43	C	0.736250	-0.393058	0.008428
C44	C	0.778237	-0.366328	0.050456
C45	C	0.778217	-0.312926	0.050467
N46	N	0.820206	-0.286193	0.092486
C47	C	0.862199	-0.312874	0.134507
C48	C	0.778266	-0.798991	0.050463
C49	C	0.778269	-0.852405	0.050465
C50	C	0.862254	-0.852354	0.134509
C51	C	0.862247	-0.798939	0.134510
C52	C	0.820256	-0.772258	0.092483
C53	C	0.862178	-0.200706	0.134509
C54	C	0.862163	-0.147290	0.134510
C55	C	0.778181	-0.147346	0.050464
C56	C	0.778192	-0.200758	0.050466
C57	C	0.820196	-0.227437	0.092490
O58	O	0.742506	-0.285281	0.014766
O59	O	0.897914	-0.285225	0.170235
C60	C	0.862227	-0.526523	0.134501
C61	C	0.820243	-0.553253	0.092477
C62	C	0.778250	-0.526571	0.050457
C63	C	0.820246	-0.606667	0.092479
C64	C	0.862239	-0.633348	0.134499
C65	C	0.904229	-0.606616	0.176519
C66	C	0.904220	-0.553204	0.176521
C67	C	0.736260	-0.553304	0.008438
C68	C	0.736272	-0.606716	0.008439
C69	C	0.778265	-0.633397	0.050460
C70	C	0.947220	0.000175	0.087022
C71	C	1.024324	0.000192	0.088151
C72	C	0.825682	0.000142	-0.034516
C73	C	0.824553	0.000137	-0.111620
N74	N	0.820262	0.120914	0.092485
C75	C	0.887321	0.000145	-0.156316
C76	C	0.886260	0.000153	-0.228763
C77	C	0.822428	0.000142	-0.256511
C78	C	0.759652	0.000137	-0.211805
C79	C	0.760714	0.000135	-0.139359
C80	C	0.772236	-0.029590	-0.364798
C81	C	0.771177	-0.029590	-0.437243
C82	C	0.819148	0.000153	-0.479956
C83	C	0.868191	0.029891	-0.450218
C84	C	0.869254	0.029888	-0.377773
C85	C	0.821269	0.000146	-0.335065
C86	C	0.880770	0.000171	-0.603209
C87	C	0.879707	0.000182	-0.675657
C88	C	0.753097	0.000161	-0.658697
C89	C	0.754162	0.000155	-0.586250
C90	C	0.818001	0.000158	-0.558511
C91	C	0.814745	0.000164	0.219497
C92	C	0.815874	0.000172	0.296601
H93	H	0.242661	-0.053769	0.179509
H94	H	0.939303	0.000149	-0.133736
O95	O	0.450735	0.000153	0.226237
H96	H	0.460602	0.034744	0.256789
H97	H	0.046435	0.000215	-0.026600
H98	H	0.744070	-0.874164	0.016250
O99	O	0.258494	0.061962	-0.009420
H100	H	0.221759	0.089896	0.018192
H101	H	0.015674	0.000199	0.203099
H102	H	0.374093	-0.053785	0.181439
O103	O	0.690805	0.000125	-0.241732
H104	H	0.647335	0.000123	-0.198477
H105	H	0.896382	-0.222422	0.168729
O106	O	0.919947	0.061964	-0.496282
H107	H	0.954232	0.082634	-0.463434
O108	O	0.690967	-0.475284	-0.036923
H109	H	0.653513	-0.499632	-0.003553
O110	O	0.601329	0.000133	0.228448
H111	H	0.633899	-0.034457	0.231955
O112	O	0.154442	0.000184	0.221897
H113	H	0.111187	0.000185	0.265367
H114	H	0.397765	0.054090	0.005470
O115	O	0.720492	-0.061675	-0.318734
H116	H	0.749073	-0.089586	-0.289497
H117	H	0.938403	-0.468100	0.210745
H118	H	0.702055	-0.371337	-0.025797
O119	O	0.732965	-0.770216	0.005138
H120	H	0.703765	-0.797784	-0.024069
O121	O	0.189689	0.000163	-0.041261
H122	H	0.158225	0.000169	-0.085827
O123	O	0.485997	0.000125	-0.036921
H124	H	0.428112	0.000139	-0.027116
H125	H	0.624756	0.000101	-0.018124
O126	O	0.907452	-0.118459	0.179840
H127	H	0.936657	-0.145989	0.209053
H128	H	0.896444	-0.874087	0.168726
O129	O	0.949484	-0.364142	0.221855
H130	H	0.978686	-0.391676	0.251066
O131	O	0.686457	0.000137	-0.538042
H132	H	0.683920	0.034723	-0.504623
O133	O	0.693012	0.000117	-0.091144
H134	H	0.648445	0.000107	-0.122606
H135	H	0.896436	-0.777179	0.168733
H136	H	0.743994	-0.222522	0.016253
O137	O	0.732937	-0.118564	0.005095
H138	H	0.740013	-0.076932	0.012138
O139	O	0.953961	0.000155	-0.276986
H140	H	0.998530	0.000152	-0.245525
H141	H	0.938410	-0.531445	0.210744
H142	H	0.938417	-0.628349	0.210737
O143	O	0.684246	0.000147	-0.688612
H144	H	0.694051	0.000147	-0.746497
H145	H	0.702074	-0.628475	-0.025783
H146	H	0.702065	-0.531586	-0.025783
H147	H	0.909185	0.054102	-0.353563
H148	H	0.932751	0.000175	-0.580622
H149	H	0.930822	0.000191	-0.712049
H150	H	0.731240	-0.053801	-0.461449
