data_functionalizedCrystal
_audit_creation_method	'MofGen! by Chris Wilmer'
_symmetry_space_group_name_H-M	'P1'
_symmetry_Int_Tables_number	1
_symmetry_cell_setting	triclinic
loop_
_symmetry_equiv_pos_as_xyz
  x,y,z
_cell_length_a	10.654545
_cell_length_b	19.288865
_cell_length_c	9.730223
_cell_angle_alpha	90.010265
_cell_angle_beta	89.999987
_cell_angle_gamma	83.809663
loop_
_atom_site_label
_atom_site_type_symbol
_atom_site_fract_x
_atom_site_fract_y
_atom_site_fract_z
O1	O	1.665749	0.097541	0.114294
O2	O	2.165749	0.597541	0.614294
O3	O	1.300071	0.106838	0.114301
O4	O	1.800071	0.606838	0.614301
O5	O	1.493476	0.001128	0.114270
O6	O	1.993476	0.501128	0.614270
O7	O	1.472344	0.203251	0.114325
O8	O	1.972344	0.703251	0.614325
O9	O	1.493475	0.001123	-0.114310
O10	O	1.993475	0.501123	0.385690
O11	O	1.300069	0.106833	-0.114279
O12	O	1.800069	0.606833	0.385721
O13	O	1.665747	0.097536	-0.114286
O14	O	2.165747	0.597536	0.385714
Zn15	Zn	1.482908	0.102184	-0.150574
Zn16	Zn	1.982908	0.602184	0.349426
Zn17	Zn	1.482910	0.102190	0.150590
Zn18	Zn	1.982910	0.602190	0.650590
O19	O	1.472342	0.203246	-0.114255
O20	O	1.972342	0.703246	0.385745
C21	C	1.253287	0.106154	0.000012
C22	C	1.753287	0.606154	0.500012
C23	C	1.113887	0.104113	0.000014
C24	C	1.613887	0.604113	0.500014
C25	C	1.048402	0.103150	-0.124586
C26	C	1.548402	0.603150	0.375414
C27	C	0.917424	0.101221	-0.124587
C28	C	1.417424	0.601221	0.375413
C29	C	0.917426	0.101222	0.124623
C30	C	1.417426	0.601222	0.624623
C31	C	1.048403	0.103146	0.124623
C32	C	1.548403	0.603146	0.624623
C33	C	1.492796	-0.024755	-0.000024
C34	C	1.992796	0.475245	0.499976
C35	C	1.490754	-0.101872	-0.000036
C36	C	1.990754	0.398128	0.499964
C37	C	1.604236	-0.145826	-0.000045
C38	C	2.104236	0.354174	0.499955
C39	C	1.602318	-0.218286	-0.000023
C40	C	2.102318	0.281714	0.499977
C41	C	1.486913	-0.246788	-0.000020
C42	C	1.986913	0.253212	0.499980
C43	C	1.373416	-0.202824	-0.000003
C44	C	1.873416	0.297176	0.499997
C45	C	1.375337	-0.130366	-0.000011
C46	C	1.875337	0.369634	0.499989
C47	C	1.396190	-0.355670	-0.080085
C48	C	1.896190	0.144330	0.419915
C49	C	1.394274	-0.428127	-0.080085
C50	C	1.894274	0.071873	0.419915
C51	C	1.480983	-0.470272	0.000011
C52	C	1.980983	0.029728	0.500011
C53	C	1.569630	-0.439953	0.080090
C54	C	2.069630	0.060047	0.580090
C55	C	1.571551	-0.367495	0.080082
C56	C	2.071551	0.132505	0.580082
C57	C	1.484817	-0.325356	-0.000010
C58	C	1.984817	0.174644	0.499990
C59	C	1.592393	-0.592796	0.000027
C60	C	2.092393	-0.092796	0.500027
C61	C	1.590471	-0.665257	0.000058
C62	C	2.090471	-0.165257	0.500058
C63	C	1.361565	-0.649793	0.000064
C64	C	1.861565	-0.149793	0.500064
C65	C	1.363491	-0.577334	0.000047
C66	C	1.863491	-0.077334	0.500047
C67	C	1.478908	-0.548840	0.000023
C68	C	1.978908	-0.048840	0.500023
C69	C	1.712532	0.098220	0.000006
C70	C	2.212532	0.598220	0.500006
C71	C	1.851932	0.100261	0.000014
C72	C	2.351932	0.600261	0.500014
C73	C	1.473023	0.229129	0.000042
C74	C	1.973023	0.729129	0.500042
C75	C	1.475064	0.306246	0.000063
C76	C	1.975064	0.806246	0.500063
N77	N	1.482912	0.102189	0.356126
N78	N	1.982912	0.602189	0.856126
N79	N	1.482916	0.102179	-0.356111
N80	N	1.982916	0.602179	0.143889
C81	C	1.568711	0.055474	0.428038
C82	C	2.068711	0.555474	0.928038
C83	C	1.568716	0.055470	0.571921
C84	C	2.068716	0.555470	1.071921
C85	C	1.397113	0.148900	0.571967
C86	C	1.897113	0.648900	1.071967
C87	C	1.397115	0.148906	0.428087
C88	C	1.897115	0.648906	0.928087
H89	H	1.101715	0.103938	-0.226051
H90	H	1.601715	0.603938	0.273949
H91	H	1.698218	-0.122632	-0.000060
H92	H	2.198218	0.377368	0.499940
Br93	Br	0.828556	0.099913	-0.293695
Br94	Br	1.328556	0.599913	0.206305
H95	H	0.864093	0.100435	0.226076
H96	H	1.364093	0.600435	0.726076
Br97	Br	1.685167	-0.007929	0.669514
Br98	Br	2.185167	0.492071	1.169514
H99	H	1.101723	0.103928	0.226093
H100	H	1.601723	0.603928	0.726093
H101	H	1.638574	0.017435	0.369451
H102	H	2.138574	0.517435	0.869451
Br103	Br	1.756340	-0.277950	-0.000029
Br104	Br	2.256340	0.222050	0.499971
H105	H	1.643728	-0.342812	0.145287
H106	H	2.143728	0.157188	0.645287
H107	H	1.640237	-0.474266	0.145312
H108	H	2.140237	0.025734	0.645312
H109	H	1.682885	-0.701044	0.000058
H110	H	2.182885	-0.201044	0.500058
H111	H	1.327257	0.186935	0.630572
H112	H	1.827257	0.686935	1.130572
H113	H	1.279452	-0.226035	0.000002
H114	H	1.779452	0.273965	0.500002
H115	H	1.327247	0.186951	0.369532
H116	H	1.827247	0.686951	0.869532
H117	H	1.267600	-0.672999	0.000073
H118	H	1.767600	-0.172999	0.500073
Br119	Br	1.749026	-0.554121	-0.000020
Br120	Br	2.249026	-0.054121	0.499980
H121	H	1.271082	-0.541546	0.000047
H122	H	1.771082	-0.041546	0.500047
H123	H	1.325577	-0.321361	-0.145316
H124	H	1.825577	0.178639	0.354684
Br125	Br	1.273977	-0.469269	-0.188771
Br126	Br	1.773977	0.030731	0.311229
H127	H	1.282924	-0.094578	-0.000004
H128	H	1.782924	0.405422	0.499996
