data_functionalizedCrystal
_audit_creation_method	'MofGen! by Chris Wilmer'
_symmetry_space_group_name_H-M	'P1'
_symmetry_Int_Tables_number	1
_symmetry_cell_setting	triclinic
loop_
_symmetry_equiv_pos_as_xyz
  x,y,z
_cell_length_a	14.044220
_cell_length_b	13.101039
_cell_length_c	14.044220
_cell_angle_alpha	93.667477
_cell_angle_beta	93.188878
_cell_angle_gamma	86.340132
loop_
_atom_site_label
_atom_site_type_symbol
_atom_site_fract_x
_atom_site_fract_y
_atom_site_fract_z
O1	O	1.281968	-0.085109	0.225348
O2	O	1.005298	-0.085135	0.217041
O3	O	1.139480	-0.085112	0.082860
O4	O	1.147787	-0.085132	0.359530
O5	O	1.129854	0.085316	0.092504
O6	O	0.995673	0.085293	0.226686
O7	O	1.272343	0.085319	0.234993
Zn8	Zn	1.132479	0.112365	0.232371
Zn9	Zn	1.145162	-0.112181	0.219663
O10	O	1.138161	0.085296	0.369175
C11	C	0.964864	0.000076	0.218228
C12	C	0.858722	0.000066	0.207383
C13	C	0.664383	0.000088	0.187558
C14	C	0.613253	0.000087	0.264472
C15	C	0.505116	0.000099	0.253441
C16	C	0.772529	0.000076	0.198587
C17	C	1.131031	0.000102	0.052060
C18	C	1.120187	0.000102	-0.054083
C19	C	1.312777	0.000106	0.233806
C20	C	1.418920	0.000109	0.244651
N21	N	1.123831	0.265612	0.241043
N22	N	1.153817	-0.265428	0.210984
C23	C	1.112065	0.474653	0.252851
C24	C	1.165580	0.525538	0.199179
C25	C	1.159034	0.641855	0.205749
C26	C	1.118610	0.358325	0.246282
C27	C	1.100362	0.000086	-0.248421
C28	C	1.177276	0.000090	-0.299551
C29	C	1.166245	0.000080	-0.407688
C30	C	1.111391	0.000095	-0.140275
C31	C	1.146610	0.000080	0.399974
C32	C	1.157455	0.000073	0.506116
H33	H	0.626945	0.000099	0.113431
O34	O	1.011858	0.000034	-0.292928
C35	C	0.942503	0.000063	-0.224096
H36	H	0.976688	-0.032198	-0.155959
H37	H	0.912506	0.081826	-0.207677
C38	C	0.819098	-0.027152	-0.346815
C39	C	0.861084	-0.066784	-0.263131
H40	H	0.768873	-0.068382	-0.370893
H41	H	0.865823	-0.027168	-0.393189
H42	H	0.794109	0.040984	-0.333120
H43	H	0.886083	-0.134913	-0.276828
H44	H	0.814361	-0.066781	-0.216759
H45	H	1.216314	0.481744	0.148295
H46	H	1.061336	0.518442	0.303733
O47	O	1.265676	-0.000027	-0.254794
C48	C	1.281635	-0.088297	-0.202335
H49	H	1.210116	-0.117740	-0.185675
H50	H	1.323717	-0.150100	-0.246182
C51	C	1.426673	-0.025300	-0.128767
C52	C	1.338831	-0.061457	-0.108298
H53	H	1.461958	-0.008747	-0.070763
H54	H	1.415924	0.034168	-0.164113
H55	H	1.461729	-0.076809	-0.165308
H56	H	1.303771	-0.009944	-0.071768
H57	H	1.349576	-0.120916	-0.072944
O58	O	0.658066	0.000004	0.352840
C59	C	0.757624	0.000008	0.344329
H60	H	0.776400	-0.032228	0.269932
H61	H	0.781152	0.081760	0.355910
C62	C	0.786169	-0.027286	0.511259
C63	C	0.809231	-0.066886	0.419886
H64	H	0.818004	-0.068545	0.557868
H65	H	0.719095	-0.027285	0.516995
H66	H	0.805777	0.040840	0.520896
H67	H	0.789613	-0.135006	0.410245
H68	H	0.876304	-0.066900	0.414150
