data_functionalizedCrystal
_audit_creation_method	'MofGen! by Chris Wilmer'
_symmetry_space_group_name_H-M	'P1'
_symmetry_Int_Tables_number	1
_symmetry_cell_setting	triclinic
loop_
_symmetry_equiv_pos_as_xyz
  x,y,z
_cell_length_a	15.995350
_cell_length_b	19.188924
_cell_length_c	14.472310
_cell_angle_alpha	89.996838
_cell_angle_beta	89.990621
_cell_angle_gamma	83.317170
loop_
_atom_site_label
_atom_site_type_symbol
_atom_site_fract_x
_atom_site_fract_y
_atom_site_fract_z
O1	O	1.110664	0.089992	-0.076767
O2	O	0.866848	0.101105	-0.076787
O3	O	0.995795	-0.006090	-0.076765
O4	O	0.981717	0.197186	-0.076788
O5	O	0.995762	-0.006084	0.076917
O6	O	0.866815	0.101111	0.076895
O7	O	1.110631	0.089998	0.076915
Cu8	Cu	0.988720	0.095555	0.090938
Cu9	Cu	0.988759	0.095548	-0.090809
O10	O	0.981684	0.197193	0.076894
C11	C	0.835638	0.100649	0.000052
C12	C	0.742693	0.099271	0.000045
C13	C	0.404964	0.094325	0.000065
C14	C	0.452680	0.017982	0.000416
C15	C	0.549365	0.019360	0.000063
C16	C	0.572515	0.096778	0.000056
C17	C	0.531308	0.134429	-0.087705
C18	C	0.434679	0.132511	-0.087772
C19	C	0.434297	0.134096	0.086993
C20	C	0.531242	0.134078	0.088147
C21	C	0.667208	0.098169	0.000047
C22	C	0.310271	0.092936	0.000067
C23	C	0.995324	-0.032099	0.000077
C24	C	0.993958	-0.109607	0.000079
C25	C	0.993339	-0.146011	-0.083693
C26	C	0.992044	-0.218837	-0.083701
C27	C	0.991385	-0.255258	0.000069
C28	C	0.991999	-0.218845	0.083853
C29	C	0.993286	-0.146019	0.083858
N30	N	1.036999	-0.374803	0.062421
N31	N	1.035779	-0.443984	0.062411
C32	C	0.987506	-0.474677	0.000060
N33	N	0.940511	-0.433577	-0.062294
N34	N	0.941735	-0.364389	-0.062287
C35	C	0.989989	-0.334225	0.000074
C36	C	0.985482	-0.590047	-0.083726
C37	C	0.984181	-0.662874	-0.083729
C38	C	0.984146	-0.662882	0.083826
C39	C	0.985437	-0.590055	0.083828
C40	C	0.986109	-0.553643	0.000049
C41	C	1.141841	0.090454	0.000074
C42	C	1.234786	0.091832	0.000075
C43	C	0.982155	0.223202	0.000050
C44	C	0.983521	0.300710	0.000042
N45	N	0.988699	0.095560	0.218769
N46	N	0.988787	0.095537	-0.218640
C47	C	0.988758	0.095545	0.592860
C48	C	0.919531	0.152710	0.553683
C49	C	0.919689	0.152919	0.446594
C50	C	0.988728	0.095552	0.407269
C51	C	1.076034	0.111464	0.446111
C52	C	1.075644	0.111870	0.553232
C53	C	0.971459	0.022298	0.553396
C54	C	0.969454	0.022787	0.446268
C55	C	0.988716	0.095555	0.302381
C56	C	0.988775	0.095544	0.697748
H57	H	0.577346	-0.010441	-0.062950
H58	H	0.854415	0.143386	0.579466
H59	H	0.577889	-0.010236	0.062974
H60	H	0.993787	-0.116379	0.152077
H61	H	0.983673	-0.692512	-0.151950
H62	H	1.021947	-0.020242	0.578730
C63	C	0.992088	-0.211539	0.249470
C64	C	0.991275	-0.258875	0.175936
H65	H	0.991632	-0.236252	0.306319
H66	H	1.041402	-0.188460	0.245994
H67	H	0.943770	-0.177807	0.245974
H68	H	1.039595	-0.292604	0.179428
H69	H	0.941955	-0.281966	0.179413
H70	H	0.546398	0.190534	0.093442
C71	C	1.172325	0.173042	0.359421
C72	C	1.097173	0.182756	0.409883
H73	H	1.185366	0.217057	0.337054
H74	H	1.216562	0.152869	0.398219
H75	H	1.166006	0.142621	0.308758
H76	H	1.103493	0.213174	0.460551
H77	H	1.052925	0.202939	0.371083
H78	H	0.854785	0.143439	0.420335
H79	H	0.402328	0.190382	0.087581
C80	C	0.882644	0.004176	0.315298
C81	C	0.882756	0.006483	0.412002
H82	H	0.829120	-0.005890	0.294142
H83	H	0.893944	0.048250	0.291492
H84	H	0.924783	-0.031405	0.294678
H85	H	0.840620	0.042068	0.432621
H86	H	0.871446	-0.037597	0.435817
C87	C	0.656536	0.103441	-0.177188
C88	C	0.569759	0.099117	-0.175868
H89	H	0.680273	0.081633	-0.231611
H90	H	0.666323	0.151318	-0.176414
H91	H	0.681863	0.080291	-0.124440
H92	H	0.544430	0.122272	-0.228613
H93	H	0.559965	0.051231	-0.176651
H94	H	0.433212	-0.012395	-0.062167
H95	H	0.909193	0.006998	0.580460
H96	H	0.930396	0.206759	0.580587
H97	H	0.434257	-0.012531	0.063353
H98	H	0.983603	-0.692534	0.152034
H99	H	0.416487	0.105049	-0.153369
H100	H	0.402225	0.188560	-0.091760
C101	C	1.091155	-0.009982	0.351896
C102	C	1.033132	-0.037335	0.410149
H103	H	1.130476	-0.047098	0.329607
H104	H	1.062265	0.013265	0.301237
H105	H	1.120085	0.022430	0.385347
H106	H	1.004198	-0.069743	0.376697
H107	H	1.062026	-0.060593	0.460817
H108	H	0.545224	0.191306	-0.090974
H109	H	1.090929	0.165289	0.578203
H110	H	0.985949	-0.560416	0.152044
C111	C	0.943388	0.270234	0.487729
C112	C	0.934574	0.226293	0.411973
H113	H	0.952586	0.315532	0.466353
H114	H	0.893608	0.273719	0.524044
H115	H	0.989957	0.251256	0.524157
H116	H	0.888001	0.245268	0.375548
H117	H	0.984359	0.222810	0.375643
H118	H	0.413839	0.109140	0.153513
C119	C	1.058950	-0.516025	-0.180919
C120	C	0.986234	-0.550029	-0.175820
H121	H	1.059422	-0.491329	-0.237779
H122	H	1.059497	-0.483913	-0.131040
H123	H	1.107248	-0.549776	-0.177410
H124	H	0.937936	-0.516277	-0.179322
H125	H	0.985680	-0.582144	-0.225712
C126	C	0.503595	0.071692	0.226581
C127	C	0.568227	0.096968	0.175794
H128	H	0.526435	0.048777	0.280685
H129	H	0.463174	0.109764	0.243561
H130	H	0.477352	0.039383	0.189943
H131	H	0.594465	0.129281	0.212430
H132	H	0.608663	0.058891	0.158816
H133	H	0.993883	-0.116368	-0.151913
C134	C	0.992175	-0.211518	-0.249322
C135	C	0.991330	-0.258860	-0.175789
H136	H	0.991729	-0.236226	-0.306172
H137	H	0.943873	-0.177781	-0.245822
H138	H	1.041505	-0.188449	-0.245847
H139	H	0.941997	-0.281925	-0.179261
H140	H	1.039637	-0.292609	-0.179291
H141	H	1.128753	0.071876	0.579146
H142	H	1.128767	0.070935	0.420636
