data_functionalizedCrystal
_audit_creation_method	'MofGen! by Chris Wilmer'
_symmetry_space_group_name_H-M	'P1'
_symmetry_Int_Tables_number	1
_symmetry_cell_setting	triclinic
loop_
_symmetry_equiv_pos_as_xyz
  x,y,z
_cell_length_a	9.065215
_cell_length_b	15.995343
_cell_length_c	8.140239
_cell_angle_alpha	89.991761
_cell_angle_beta	89.997810
_cell_angle_gamma	84.251941
loop_
_atom_site_label
_atom_site_type_symbol
_atom_site_fract_x
_atom_site_fract_y
_atom_site_fract_z
O1	O	1.957504	0.122759	-0.136614
O2	O	1.527981	0.132832	-0.136624
O3	O	1.754489	0.005996	-0.136588
O4	O	1.730995	0.249594	-0.136650
O5	O	1.754477	0.005995	0.136639
O6	O	1.527968	0.132830	0.136604
O7	O	1.957491	0.122757	0.136613
Zn8	Zn	1.742728	0.127794	0.179989
Zn9	Zn	1.742744	0.127796	-0.180000
O10	O	1.730982	0.249593	0.136577
C11	C	1.473011	0.131864	-0.000011
C12	C	1.309236	0.128971	-0.000013
C13	C	1.753514	-0.025207	0.000030
C14	C	1.750608	-0.118179	0.000042
C15	C	1.745333	-0.288406	0.000005
C16	C	1.581829	-0.312990	-0.000002
C17	C	1.578753	-0.409692	-0.000641
C18	C	1.740138	-0.456005	-0.000030
C19	C	1.822358	-0.426282	-0.155741
C20	C	1.824298	-0.329475	-0.155853
C21	C	1.826677	-0.329563	0.154868
C22	C	1.820641	-0.426104	0.156896
C23	C	1.737211	-0.550725	-0.000056
C24	C	1.748266	-0.193686	0.000019
C25	C	2.012461	0.123726	-0.000004
C26	C	2.176236	0.126619	-0.000013
C27	C	1.731958	0.280796	-0.000044
C28	C	1.734864	0.373769	-0.000068
N29	N	1.742727	0.127792	0.425671
N30	N	1.742756	0.127791	-0.425682
H31	H	1.514378	-0.429204	0.110947
H32	H	1.518448	-0.285468	0.111646
H33	H	1.775086	-0.301690	0.272934
H34	H	1.944201	-0.313993	-0.162487
H35	H	1.519491	-0.284473	-0.111501
C36	C	1.982813	-0.468091	-0.162990
C37	C	2.113435	-0.413513	-0.161851
C38	C	2.273888	-0.455325	-0.169095
C39	C	2.303719	-0.551714	-0.177477
C40	C	2.173094	-0.606298	-0.178616
C41	C	2.012641	-0.564486	-0.171372
H42	H	2.091356	-0.342155	-0.155645
H43	H	2.370586	-0.414918	-0.168252
H44	H	2.422496	-0.582666	-0.182840
H45	H	2.195173	-0.677656	-0.184822
H46	H	1.915943	-0.604893	-0.172216
C47	C	1.492239	-0.435256	-0.152329
C48	C	1.425746	-0.367639	-0.273265
C49	C	1.339233	-0.393203	-0.424963
C50	C	1.319212	-0.486384	-0.455725
C51	C	1.385707	-0.554006	-0.334785
C52	C	1.472221	-0.528442	-0.183087
H53	H	1.440565	-0.298656	-0.250497
H54	H	1.290009	-0.343144	-0.514491
H55	H	1.255170	-0.505307	-0.568021
H56	H	1.370888	-0.622989	-0.357553
H57	H	1.521444	-0.578502	-0.093559
H58	H	1.768033	-0.303109	-0.272695
H59	H	1.765954	-0.446794	-0.272068
C60	C	1.979740	-0.469401	0.170224
C61	C	2.006235	-0.565807	0.182515
C62	C	2.165341	-0.609106	0.195823
C63	C	2.297952	-0.555998	0.196839
C64	C	2.271460	-0.459586	0.184548
C65	C	2.112355	-0.416287	0.171241
H66	H	1.908065	-0.605126	0.181762
H67	H	2.184951	-0.680476	0.204921
H68	H	2.415731	-0.588050	0.206691
H69	H	2.369630	-0.420267	0.185301
H70	H	2.092745	-0.344917	0.162142
H71	H	1.760767	-0.445123	0.272094
H72	H	1.947022	-0.314631	0.156383
