data_functionalizedCrystal
_audit_creation_method	'MofGen! by Chris Wilmer'
_symmetry_space_group_name_H-M	'P1'
_symmetry_Int_Tables_number	1
_symmetry_cell_setting	triclinic
loop_
_symmetry_equiv_pos_as_xyz
  x,y,z
_cell_length_a	15.944493
_cell_length_b	23.532407
_cell_length_c	14.421503
_cell_angle_alpha	89.999621
_cell_angle_beta	89.992936
_cell_angle_gamma	83.161861
loop_
_atom_site_label
_atom_site_type_symbol
_atom_site_fract_x
_atom_site_fract_y
_atom_site_fract_z
O1	O	1.113942	0.073285	-0.077109
O2	O	0.869309	0.082375	-0.077115
O3	O	0.999003	-0.005074	-0.077095
O4	O	0.984249	0.160734	-0.077129
O5	O	0.998981	-0.005061	0.077129
O6	O	0.869288	0.082388	0.077109
O7	O	1.113921	0.073298	0.077114
Cu8	Cu	0.991602	0.077844	0.091193
Cu9	Cu	0.991628	0.077829	-0.091194
O10	O	0.984227	0.160747	0.077094
C11	C	0.838007	0.082010	-0.000004
C12	C	0.744768	0.080896	-0.000005
C13	C	0.508574	0.132371	-0.000016
C14	C	0.458239	0.104619	0.076034
C15	C	0.574064	0.078832	-0.000003
C16	C	0.458265	0.104593	-0.076019
C17	C	0.409171	0.076843	-0.000005
C18	C	0.524957	0.051095	0.076110
C19	C	0.524986	0.051077	-0.076011
C20	C	0.474684	0.023286	0.000058
C21	C	0.669054	0.079980	-0.000001
C22	C	0.314184	0.075691	0.000000
C23	C	0.998616	-0.026285	0.000019
C24	C	0.997486	-0.089506	0.000026
C25	C	1.067151	-0.488350	-0.000023
C26	C	1.066102	-0.547754	-0.000030
O27	O	1.130682	-0.584257	-0.000063
N28	N	0.988999	-0.570668	-0.000031
C29	C	0.912941	-0.534174	-0.000034
O30	O	0.847263	-0.559119	-0.000037
C31	C	0.913991	-0.474771	-0.000034
C32	C	0.991099	-0.451861	-0.000023
C33	C	1.144253	-0.465439	-0.000013
C34	C	1.145302	-0.406038	-0.000004
C35	C	1.069249	-0.369549	-0.000005
C36	C	0.992148	-0.392460	-0.000015
C37	C	0.837934	-0.438278	-0.000044
C38	C	0.838991	-0.378872	-0.000044
C39	C	0.916098	-0.355962	-0.000034
C40	C	0.917144	-0.296571	-0.000007
N41	N	0.994247	-0.273657	-0.000005
C42	C	1.070300	-0.310146	-0.000005
C43	C	0.910741	-0.658925	-0.000037
C44	C	0.909690	-0.718327	-0.000031
C45	C	1.062852	-0.731902	-0.000028
C46	C	1.063902	-0.672499	-0.000027
C47	C	0.987844	-0.636011	-0.000036
C48	C	1.072497	-0.185401	0.000015
C49	C	1.073539	-0.125996	0.000027
C50	C	0.920378	-0.112425	0.000019
C51	C	0.919335	-0.171826	0.000012
C52	C	0.995402	-0.208313	0.000006
O53	O	0.852598	-0.260033	0.000022
O54	O	1.135967	-0.285193	-0.000014
C55	C	1.145223	0.073663	0.000001
C56	C	1.238462	0.074777	-0.000003
C57	C	0.984614	0.181958	-0.000022
C58	C	0.985743	0.245179	-0.000035
N59	N	0.991590	0.077855	0.219475
N60	N	0.991646	0.077814	-0.219475
C61	C	0.931610	0.118273	0.469119
C62	C	1.007419	0.129319	0.530921
C63	C	0.991611	0.077841	0.408636
C64	C	0.915821	0.066808	0.530928
C65	C	0.991624	0.077829	0.591357
C66	C	1.067458	0.088912	0.469077
C67	C	0.975811	0.026380	0.469079
C68	C	1.051675	0.037404	0.530853
C69	C	0.991602	0.077849	0.303375
C70	C	0.991641	0.077820	0.696616
H71	H	0.459607	-0.022867	0.000111
H72	H	0.856548	-0.190480	0.000029
C73	C	1.026042	0.187255	0.664689
C74	C	1.025474	0.188058	0.567605
H75	H	1.037187	0.223519	0.687332
H76	H	0.972613	0.179144	0.686765
H77	H	1.068722	0.158562	0.685809
H78	H	0.982789	0.216748	0.546485
H79	H	1.078909	0.196176	0.545520
C80	C	0.435589	0.192233	0.162662
C81	C	0.418896	0.135147	0.162812
H82	H	0.411297	0.211082	0.216231
H83	H	0.494912	0.193475	0.163002
H84	H	0.411864	0.210861	0.108658
H85	H	0.442627	0.116518	0.216813
H86	H	0.359561	0.133902	0.162481
C87	C	0.606215	0.058888	-0.214640
C88	C	0.564356	0.020575	-0.162790
H89	H	0.630526	0.040058	-0.268216
H90	H	0.567059	0.090507	-0.232899
H91	H	0.649459	0.072075	-0.177972
H92	H	0.521107	0.007391	-0.199456
H93	H	0.603515	-0.011054	-0.144533
C94	C	0.879950	0.218313	0.463731
C95	C	0.863184	0.164464	0.432512
H96	H	0.837713	0.246830	0.441124
H97	H	0.879814	0.218852	0.529587
H98	H	0.933691	0.225781	0.441641
H99	H	0.809446	0.156995	0.454608
H100	H	0.863313	0.163924	0.366642
C101	C	0.435686	0.192198	-0.162676
C102	C	0.418974	0.135115	-0.162817
H103	H	0.411439	0.211040	-0.216265
H104	H	0.411936	0.210835	-0.108696
H105	H	0.495020	0.193429	-0.162988
H106	H	0.359640	0.133884	-0.162499
H107	H	0.442721	0.116473	-0.216811
H108	H	0.553966	0.028504	0.140468
H109	H	1.136332	-0.107346	0.000038
C110	C	1.223996	-0.192837	0.000031
C111	C	1.156109	-0.225502	0.000017
H112	H	1.275613	-0.217595	0.000043
H113	H	1.221226	-0.169386	-0.053745
H114	H	1.221196	-0.169384	0.053818
H115	H	1.158906	-0.248952	-0.053773
H116	H	1.158881	-0.248963	0.053799
C117	C	0.853998	-0.015332	0.000014
C118	C	0.836784	-0.072309	0.000013
H119	H	0.802389	0.009434	-0.000001
H120	H	0.885616	-0.008392	0.053797
H121	H	0.885651	-0.008397	-0.053765
H122	H	0.805135	-0.079246	0.053796
H123	H	0.805152	-0.079251	-0.053776
H124	H	1.131571	0.098291	0.442023
C125	C	1.199519	0.002924	0.535834
C126	C	1.120250	-0.008762	0.567228
H127	H	1.241854	-0.025573	0.558299
H128	H	1.200183	0.002886	0.469977
H129	H	1.210282	0.039384	0.557952
H130	H	1.109485	-0.045220	0.545105
H131	H	1.119584	-0.008730	0.633099
C132	C	1.296584	-0.425442	-0.000012
C133	C	1.230062	-0.380861	-0.000005
H134	H	1.348913	-0.409900	-0.000020
H135	H	1.292979	-0.448327	0.053766
H136	H	1.292981	-0.448329	-0.053797
H137	H	1.233662	-0.357976	0.053783
H138	H	1.233668	-0.357967	-0.053789
C139	C	0.707087	-0.444972	-0.079355
C140	C	0.753173	-0.463450	-0.000066
H141	H	0.654758	-0.460514	-0.079370
H142	H	0.696844	-0.404376	-0.079343
H143	H	0.738401	-0.457504	-0.133124
H144	H	0.721861	-0.450915	0.053704
H145	H	0.763413	-0.504055	-0.000068
C146	C	1.231965	-0.540111	-0.079292
C147	C	1.227861	-0.505540	-0.000012
H148	H	1.283588	-0.564862	-0.079287
H149	H	1.185911	-0.562265	-0.079288
H150	H	1.229192	-0.516650	-0.133067
H151	H	1.230628	-0.529001	0.053764
H152	H	1.273928	-0.483384	-0.000007
C153	C	0.616900	0.195042	-0.000757
C154	C	0.529159	0.194623	0.000065
H155	H	0.629607	0.233473	-0.000709
H156	H	0.640725	0.175849	0.052715
H157	H	0.639869	0.176095	-0.054844
H158	H	0.506190	0.213567	0.054155
H159	H	0.505324	0.213824	-0.053412
C160	C	1.215186	-0.691898	-0.000031
C161	C	1.148660	-0.647319	-0.000030
H162	H	1.267513	-0.676354	-0.000041
H163	H	1.211583	-0.714781	0.053750
H164	H	1.211585	-0.714788	-0.053813
H165	H	1.152258	-0.624432	0.053755
H166	H	1.152265	-0.624427	-0.053817
H167	H	1.124778	-0.761623	-0.000031
H168	H	0.962411	-0.017121	0.441894
H169	H	0.851722	0.057483	0.558099
H170	H	0.846902	-0.736975	-0.000023
C171	C	0.823055	-0.584249	-0.079314
C172	C	0.827130	-0.618819	-0.000034
H173	H	0.771434	-0.559496	-0.079314
H174	H	0.869112	-0.562098	-0.079306
H175	H	0.825841	-0.607711	-0.133089
H176	H	0.824350	-0.595357	0.053742
H177	H	0.781060	-0.640972	-0.000033
C178	C	0.751320	-0.304193	-0.079331
C179	C	0.755383	-0.338765	-0.000053
H180	H	0.699702	-0.279437	-0.079336
H181	H	0.797381	-0.282045	-0.079316
H182	H	0.754108	-0.327654	-0.133108
H183	H	0.752601	-0.315304	0.053724
H184	H	0.709310	-0.360914	-0.000059
