data_functionalizedCrystal
_audit_creation_method	'MofGen! by Chris Wilmer'
_symmetry_space_group_name_H-M	'P1'
_symmetry_Int_Tables_number	1
_symmetry_cell_setting	triclinic
loop_
_symmetry_equiv_pos_as_xyz
  x,y,z
_cell_length_a	14.446369
_cell_length_b	23.196402
_cell_length_c	23.196402
_cell_angle_alpha	60.000268
_cell_angle_beta	59.997299
_cell_angle_gamma	90.002919
loop_
_atom_site_label
_atom_site_type_symbol
_atom_site_fract_x
_atom_site_fract_y
_atom_site_fract_z
Zr1	Zr	-0.121477	0.555355	0.631033
O2	O	-0.269284	0.583570	0.631037
O3	O	-0.076172	0.463305	0.631033
O4	O	-0.269300	0.463297	0.751312
O5	O	0.076192	0.678455	0.415878
O6	O	-0.269305	0.463295	0.846185
O7	O	-0.076157	0.583577	0.510758
O8	O	0.076165	0.463309	0.631027
O9	O	-0.269278	0.678441	0.631036
O10	O	-0.056847	0.524808	0.701834
O11	O	0.056853	0.595615	0.560223
O12	O	-0.170529	0.595606	0.701837
O13	O	-0.056829	0.666413	0.560226
Zr14	Zr	0.121493	0.706670	0.631022
Zr15	Zr	-0.121486	0.555352	0.782344
Zr16	Zr	0.121502	0.706673	0.479710
Zr17	Zr	-0.121467	0.706664	0.631030
Zr18	Zr	0.121483	0.555361	0.631024
O19	O	0.076188	0.798721	0.631022
O20	O	-0.269297	0.583566	0.846183
O21	O	0.076200	0.798725	0.415876
O22	O	0.269301	0.678456	0.631017
O23	O	-0.076184	0.463300	0.846178
O24	O	0.269313	0.678460	0.415871
O25	O	-0.076176	0.583571	0.846177
O26	O	0.269316	0.798728	0.510743
O27	O	0.269321	0.798730	0.415870
O28	O	0.076173	0.678448	0.751297
O29	O	-0.269285	0.678439	0.751309
O30	O	0.269301	0.583587	0.510746
O31	O	0.269294	0.583584	0.631019
O32	O	0.076158	0.463306	0.751300
O33	O	-0.076142	0.798719	0.510755
O34	O	-0.076149	0.798717	0.631027
O35	O	0.170546	0.666419	0.560218
O36	O	0.056846	0.595612	0.701829
O37	O	-0.056837	0.666410	0.701832
O38	O	0.056863	0.737218	0.560221
C39	C	-0.000005	0.441748	0.631030
C40	C	-0.000009	0.377514	0.631031
C41	C	-0.303898	0.631004	0.631038
C42	C	-0.407041	0.631002	0.631041
C43	C	-0.059364	0.310380	0.704948
C44	C	-0.059355	0.250025	0.704949
C45	C	-0.000006	0.256807	0.631029
C46	C	0.059361	0.323953	0.557102
C47	C	0.059360	0.384306	0.557103
C48	C	-0.008473	0.189505	0.574398
C49	C	-0.008479	0.129151	0.574400
C50	C	0.000005	0.070660	0.631023
C51	C	0.008473	0.072523	0.687658
C52	C	0.008472	0.132876	0.687659
C53	C	0.000003	0.191369	0.631020
C54	C	-0.059342	-0.061921	0.704946
C55	C	-0.059325	-0.122276	0.704944
C56	C	0.059384	-0.048345	0.557095
C57	C	0.059374	0.012008	0.557099
C58	C	0.000005	0.005215	0.631027
C59	C	-0.625418	0.586571	0.720346
C60	C	-0.518186	0.586320	0.720406
C61	C	-0.410367	0.598432	0.586679
C62	C	-0.518136	0.598108	0.587246
C63	C	-0.516759	0.708065	0.585405
C64	C	-0.410790	0.707941	0.587088
C65	C	0.303914	0.631021	0.631017
C66	C	0.407057	0.631024	0.631013
C67	C	0.000019	0.631016	0.441759
C68	C	0.000022	0.631018	0.377523
C69	C	0.000021	0.820277	0.631024
C70	C	0.000026	0.884512	0.631023
C71	C	0.059353	0.594057	0.347354
C72	C	0.059357	0.594059	0.286996
C73	C	0.000010	0.631012	0.256823
C74	C	-0.059323	0.667980	0.286997
C75	C	-0.059317	0.667983	0.347347
C76	C	-0.099406	0.625726	0.194810
C77	C	-0.099416	0.625718	0.134464
C78	C	-0.000008	0.631007	0.070680
C79	C	0.099408	0.636289	0.067257
C80	C	0.099414	0.636292	0.127607
C81	C	-0.000003	0.631013	0.191383
C82	C	0.059333	0.594047	-0.024937
C83	C	0.059341	0.594054	-0.085299
C84	C	-0.059351	0.667970	-0.085291
C85	C	-0.059348	0.667968	-0.024936
C86	C	-0.000009	0.631002	0.005240
C87	C	-0.000002	0.631009	0.820295
C88	C	-0.000006	0.631008	0.884531
C89	C	-0.303921	0.441736	0.820309
C90	C	-0.407072	0.377498	0.884549
C91	C	-0.000015	0.441745	0.820298
C92	C	-0.000023	0.377509	0.884535
C93	C	0.303925	0.631025	0.441749
C94	C	0.407071	0.631029	0.377510
C95	C	0.000032	0.820281	0.441756
C96	C	0.000040	0.884517	0.377520
C97	C	0.303938	0.820289	0.441746
C98	C	0.407089	0.884528	0.377506
C99	C	-0.303908	0.631001	0.820306
C100	C	-0.407055	0.630997	0.884545
C101	C	-0.514865	0.384287	0.914725
C102	C	-0.611795	0.323934	0.975094
C103	C	-0.600931	0.256792	1.005282
C104	C	-0.493128	0.250005	0.975104
C105	C	-0.396200	0.310357	0.914740
C106	C	-0.059384	0.310377	0.914710
C107	C	-0.059414	0.250015	0.975076
C108	C	-0.000077	0.256786	1.005261
C109	C	0.059285	0.323924	0.975084
C110	C	0.059308	0.384285	0.914723
C111	C	0.514867	0.667996	0.347333
C112	C	0.611793	0.668014	0.286965
C113	C	0.600922	0.631060	0.256778
C114	C	0.493115	0.594091	0.286957
C115	C	0.396191	0.594078	0.347320
C116	C	0.059390	0.951648	0.347351
C117	C	0.059393	1.012010	0.287002
C118	C	0.000053	1.005239	0.256818
C119	C	-0.059305	0.938101	0.286993
C120	C	-0.059314	0.877740	0.347345
C121	C	0.396189	0.951657	0.347333
C122	C	0.493101	1.012022	0.286963
C123	C	0.600912	1.005256	0.256772
C124	C	0.611810	0.938119	0.286948
C125	C	0.514899	0.877756	0.347312
C126	C	-0.396147	0.667954	0.914716
C127	C	-0.493055	0.667948	0.975084
C128	C	-0.600870	0.630989	1.005275
C129	C	-0.611775	0.594026	0.975102
C130	C	-0.514868	0.594029	0.914739
H131	H	-0.107702	0.304846	0.765145
H132	H	-0.308368	0.698054	0.890141
H133	H	0.679814	1.054413	0.207620
H134	H	0.699603	0.932620	0.262357
H135	H	0.699564	0.698118	0.262403
H136	H	0.015396	0.024901	0.733759
H137	H	-0.308434	0.304820	0.890172
H138	H	0.107595	0.329427	0.999670
H139	H	-0.484299	0.195330	0.999693
H140	H	-0.107690	0.195354	0.765144
H141	H	0.107734	1.066671	0.262440
H142	H	0.107653	0.438944	0.890156
H143	H	0.107672	0.563960	0.262428
H144	H	-0.107717	0.304851	0.890149
H145	H	-0.107753	0.195354	0.999637
H146	H	-0.180356	0.621432	0.246736
H147	H	0.308412	0.957180	0.371907
H148	H	-0.411308	0.732273	0.619435
H149	H	0.180348	0.640578	0.015333
H150	H	0.523790	0.823098	0.371877
H151	H	-0.679865	0.207655	1.054435
H152	H	-0.484154	0.698050	0.999641
H153	H	0.484205	1.066681	0.262404
H154	H	-0.107644	0.698068	0.262425
H155	H	0.308423	0.563970	0.371889
H156	H	0.523740	0.698091	0.371902
H157	H	0.679853	0.631077	0.207627
H158	H	0.484281	0.564005	0.262370
H159	H	0.107664	0.563952	0.371924
H160	H	0.107706	-0.042821	0.496908
H161	H	-0.679768	0.630993	1.054426
H162	H	-0.699570	0.563935	0.999693
H163	H	-0.107628	0.698085	0.371909
H164	H	-0.000103	0.207631	1.054410
H165	H	0.015370	0.134390	0.733771
H166	H	-0.523765	0.563935	0.890177
H167	H	-0.107680	-0.067453	0.765143
H168	H	0.107674	0.563962	-0.000381
H169	H	-0.107654	-0.176941	0.765138
H170	H	0.107720	0.957174	0.371914
H171	H	0.000070	1.054395	0.207676
H172	H	0.107702	0.066672	0.496908
H173	H	-0.331624	0.743848	0.521892
H174	H	-0.107618	0.932598	0.262409
H175	H	-0.015380	0.127639	0.528288
H176	H	-0.107641	0.823081	0.371901
H177	H	0.107684	0.329472	0.496916
H178	H	0.107694	0.438972	0.496909
H179	H	-0.015405	0.237123	0.528296
H180	H	-0.519803	0.608162	0.755214
H181	H	-0.679330	0.608328	0.755393
H182	H	-0.680404	0.530082	0.755234
H183	H	-0.520650	0.529487	0.755438
H184	H	-0.568489	0.541416	0.618774
H185	H	-0.107669	0.698061	-0.000367
H186	H	-0.523732	0.438951	0.890151
H187	H	-0.491477	0.628391	0.521705
H188	H	-0.332093	0.629249	0.520972
H189	H	-0.408239	0.542277	0.617493
H190	H	-0.489333	0.741346	0.519604
H191	H	-0.566779	0.735273	0.613989
H192	H	0.107663	0.563958	-0.109866
H193	H	0.180364	0.640597	0.124813
H194	H	-0.180367	0.621414	0.137260
H195	H	-0.107674	0.698058	-0.109857
H196	H	-0.699564	0.329474	0.999655
