data_functionalizedCrystal
_audit_creation_method	'MofGen! by Chris Wilmer'
_symmetry_space_group_name_H-M	'P1'
_symmetry_Int_Tables_number	1
_symmetry_cell_setting	triclinic
loop_
_symmetry_equiv_pos_as_xyz
  x,y,z
_cell_length_a	8.559649
_cell_length_b	15.944551
_cell_length_c	7.088929
_cell_angle_alpha	83.774879
_cell_angle_beta	95.325015
_cell_angle_gamma	76.638701
loop_
_atom_site_label
_atom_site_type_symbol
_atom_site_fract_x
_atom_site_fract_y
_atom_site_fract_z
O1	O	2.103727	-0.018804	-0.158956
O2	O	1.638526	0.024575	-0.158968
O3	O	1.883832	-0.120210	-0.158944
O4	O	1.858421	0.125981	-0.158979
O5	O	1.916614	-0.139599	0.159034
O6	O	1.671309	0.005187	0.159010
O7	O	2.136509	-0.038193	0.159023
Cu8	Cu	1.906902	-0.018273	0.188050
Cu9	Cu	1.868133	0.004656	-0.187996
O10	O	1.891203	0.106593	0.158999
C11	C	1.595388	0.018169	0.000020
C12	C	1.418008	0.027954	0.000015
C13	C	1.899168	-0.161130	0.000045
C14	C	1.896006	-0.254172	0.000046
C15	C	1.736394	-0.458727	0.000015
C16	C	1.826675	-0.534087	0.156800
C17	C	1.890284	-0.424528	0.000031
C18	C	1.794391	-0.514957	-0.156702
C19	C	1.884745	-0.589082	0.000009
C20	C	1.980621	-0.498671	0.156945
C21	C	1.948300	-0.479525	-0.156697
C22	C	2.038697	-0.554877	0.000126
C23	C	1.893471	-0.329732	0.000046
C24	C	1.881571	-0.683878	0.000008
C25	C	2.179647	-0.031786	0.000031
C26	C	2.357025	-0.041571	0.000022
C27	C	1.875866	0.147513	0.000005
C28	C	1.879027	0.240556	-0.000008
N29	N	1.934182	-0.034401	0.452541
N30	N	1.840866	0.020776	-0.452487
H31	H	1.334507	0.094969	-0.000005
C32	C	2.064853	-0.111652	0.562849
C33	C	2.087420	-0.124979	0.783008
C34	C	2.218088	-0.202228	0.893316
C35	C	2.326189	-0.266149	0.783464
C36	C	2.303625	-0.252824	0.563292
C37	C	2.172957	-0.175575	0.452984
H38	H	2.007394	-0.077659	0.864339
H39	H	2.234791	-0.212091	1.056302
H40	H	2.422918	-0.323333	0.865120
H41	H	2.383651	-0.300144	0.481961
H42	H	2.156254	-0.165711	0.289998
H43	H	2.059335	-0.490968	0.289640
C44	C	2.211415	-0.610831	0.000235
C45	C	2.343010	-0.613921	0.166211
C46	C	2.515727	-0.669874	0.166328
C47	C	2.556847	-0.722738	0.000469
C48	C	2.425248	-0.719650	-0.165520
C49	C	2.252532	-0.663696	-0.165637
H50	H	2.312573	-0.574786	0.289001
H51	H	2.613145	-0.672160	0.289205
H52	H	2.684702	-0.764158	0.000556
H53	H	2.455685	-0.758784	-0.288310
H54	H	2.155114	-0.661410	-0.288513
C55	C	1.563861	-0.402599	0.000210
C56	C	1.431289	-0.400493	-0.163917
C57	C	1.258763	-0.344365	-0.163711
C58	C	1.218809	-0.290343	0.000621
C59	C	1.351384	-0.292447	0.164761
C60	C	1.523911	-0.348575	0.164555
H61	H	1.460862	-0.440485	-0.285576
H62	H	1.160622	-0.342808	-0.285219
H63	H	1.091094	-0.248794	0.000773
H64	H	1.321811	-0.252455	0.286420
H65	H	1.622052	-0.350132	0.286063
H66	H	1.440515	-0.108579	0.000023
H67	H	1.775252	-0.558076	0.289345
C68	C	2.017695	-0.447074	-0.335761
C69	C	2.189973	-0.491594	-0.372130
C70	C	2.259352	-0.459138	-0.551213
C71	C	2.156452	-0.382162	-0.693927
C72	C	1.984163	-0.337637	-0.657562
C73	C	1.914785	-0.370093	-0.478479
H74	H	2.266155	-0.548581	-0.266481
H75	H	2.386892	-0.492099	-0.578131
H76	H	2.207810	-0.358136	-0.826495
H77	H	1.907981	-0.280650	-0.763211
H78	H	1.787245	-0.337132	-0.451561
C79	C	1.687978	-0.525501	-0.335767
C80	C	1.539417	-0.563223	-0.314350
C81	C	1.432994	-0.573763	-0.493405
C82	C	1.475133	-0.546581	-0.693878
C83	C	1.623701	-0.508856	-0.715303
C84	C	1.730124	-0.498317	-0.536248
H85	H	1.508216	-0.583347	-0.165940
H86	H	1.323014	-0.601690	-0.477543
H87	H	1.396353	-0.554383	-0.826425
H88	H	1.654902	-0.488732	-0.863713
H89	H	1.840105	-0.470390	-0.552110
C90	C	1.710202	0.098023	0.437214
C91	C	1.530973	0.106610	0.464077
C92	C	1.400306	0.183858	0.353764
C93	C	1.448869	0.252518	0.216587
C94	C	1.628106	0.243933	0.189717
C95	C	1.758773	0.166685	0.300030
H96	H	1.495016	0.055782	0.565630
H97	H	1.267622	0.190213	0.373655
H98	H	1.352141	0.309702	0.134926
H99	H	1.664063	0.294761	0.088164
H100	H	1.891457	0.160330	0.280139
