data_functionalizedCrystal
_audit_creation_method	'MofGen! by Chris Wilmer'
_symmetry_space_group_name_H-M	'P1'
_symmetry_Int_Tables_number	1
_symmetry_cell_setting	triclinic
loop_
_symmetry_equiv_pos_as_xyz
  x,y,z
_cell_length_a	16.959455
_cell_length_b	29.839131
_cell_length_c	16.959447
_cell_angle_alpha	89.966085
_cell_angle_beta	89.985678
_cell_angle_gamma	90.038367
loop_
_atom_site_label
_atom_site_type_symbol
_atom_site_fract_x
_atom_site_fract_y
_atom_site_fract_z
Zn1	Zn	1.208267	-0.178881	-0.446889
Zn2	Zn	1.208140	-0.254014	-0.314702
Zn3	Zn	1.076095	-0.178895	-0.314726
Zn4	Zn	1.076010	-0.253981	-0.446841
O5	O	1.142128	-0.216443	-0.380790
O6	O	1.318861	-0.188856	-0.429364
O7	O	1.190606	-0.244070	-0.204094
O8	O	1.093716	-0.116026	-0.332288
O9	O	1.318767	-0.244056	-0.332247
O10	O	1.190822	-0.116016	-0.429388
O11	O	1.093593	-0.188880	-0.204112
O12	O	0.965473	-0.188847	-0.332242
O13	O	1.093572	-0.243999	-0.557458
O14	O	0.965411	-0.244012	-0.429305
O15	O	1.190740	-0.188823	-0.557493
O16	O	1.190524	-0.316877	-0.332200
O17	O	1.093449	-0.316852	-0.429282
C18	C	0.936762	-0.216428	-0.380771
C19	C	0.848905	-0.216433	-0.380782
C20	C	0.477437	-0.187695	-0.330354
C21	C	0.477421	-0.245228	-0.431270
C22	C	0.559967	-0.245221	-0.431265
C23	C	0.601252	-0.216452	-0.380803
C24	C	0.559991	-0.187688	-0.330346
C25	C	0.601235	-0.273987	-0.481716
C26	C	0.683786	-0.273982	-0.481713
C27	C	0.725072	-0.245210	-0.431254
C28	C	0.683806	-0.216445	-0.380795
C29	C	0.725090	-0.187676	-0.330333
C30	C	0.683826	-0.158908	-0.279878
C31	C	0.601277	-0.158916	-0.279887
C32	C	0.807620	-0.245202	-0.431245
C33	C	0.807644	-0.187669	-0.330325
C34	C	1.141985	-0.333165	-0.380750
C35	C	1.141996	-0.383100	-0.380760
C36	C	1.192767	-0.692743	-0.330313
C37	C	1.192864	-0.880416	-0.330344
O38	O	1.235918	-0.904681	-0.287422
N39	N	1.142292	-0.903885	-0.380849
C40	C	1.091695	-0.880432	-0.431354
O41	O	1.048688	-0.904700	-0.474319
C42	C	1.091602	-0.692760	-0.431327
C43	C	1.142172	-0.669294	-0.380812
C44	C	1.243333	-0.669277	-0.279803
C45	C	1.243305	-0.622362	-0.279793
C46	C	1.192711	-0.598913	-0.330293
C47	C	1.142144	-0.622379	-0.380802
C48	C	1.041010	-0.669308	-0.481835
C49	C	1.040992	-0.622387	-0.481826
C50	C	1.091563	-0.598921	-0.431311
C51	C	1.091522	-0.552014	-0.431292
N52	N	1.142094	-0.528545	-0.380786
C53	C	1.192689	-0.551995	-0.330287
C54	C	1.091746	-0.978963	-0.431364
C55	C	1.091768	-1.025881	-0.431370
C56	C	1.192939	-1.025862	-0.330360
C57	C	1.192912	-0.978943	-0.330351
C58	C	1.142319	-0.955494	-0.380858
C59	C	1.192626	-0.453469	-0.330268
C60	C	1.192591	-0.406549	-0.330260
C61	C	1.091424	-0.406572	-0.431273
C62	C	1.091455	-0.453488	-0.431278
C63	C	1.142063	-0.476935	-0.380773
O64	O	1.048497	-0.527720	-0.474197
O65	O	1.235702	-0.527719	-0.287341
C66	C	1.192795	-0.739659	-0.330323
C67	C	1.142228	-0.763125	-0.380833
C68	C	1.091633	-0.739675	-0.431332
C69	C	1.142250	-0.810043	-0.380839
C70	C	1.192845	-0.833492	-0.330339
C71	C	1.243417	-0.810024	-0.279834
C72	C	1.243389	-0.763108	-0.279824
C73	C	1.041061	-0.763144	-0.481838
C74	C	1.041092	-0.810059	-0.481843
C75	C	1.091687	-0.833509	-0.431344
C76	C	1.348296	-0.216458	-0.380808
C77	C	1.436153	-0.216465	-0.380816
C78	C	1.142161	-0.216406	-0.586958
C79	C	1.142175	-0.216390	-0.674814
C80	C	1.142293	-0.099264	-0.380846
C81	C	1.142363	-0.049330	-0.380870
C82	C	1.091678	-0.245070	-1.046274
C83	C	1.192860	-0.187615	-1.046306
C84	C	1.192839	-0.187625	-0.963760
C85	C	1.142238	-0.216358	-0.922468
C86	C	1.091657	-0.245081	-0.963721
C87	C	1.243424	-0.158905	-0.922501
C88	C	1.243406	-0.158914	-0.839950
C89	C	1.192800	-0.187645	-0.798656
C90	C	1.142217	-0.216369	-0.839914
C91	C	1.091615	-0.245102	-0.798621
C92	C	1.041028	-0.273824	-0.839878
C93	C	1.041051	-0.273812	-0.922426
C94	C	1.192776	-0.187657	-0.716107
C95	C	1.091594	-0.245113	-0.716068
C96	C	1.142141	-0.216447	-0.175423
C97	C	1.142280	-0.216337	-0.087567
H98	H	0.717450	-0.135486	-0.238788
O99	O	1.241802	-0.159739	-0.675943
C100	C	1.252504	-0.099081	-0.582817
C101	C	1.196891	-0.130678	-0.628239
H102	H	1.216215	-0.075571	-0.544249
H103	H	1.293778	-0.119693	-0.544102
H104	H	1.288696	-0.078565	-0.626523
H105	H	1.160648	-0.151200	-0.584589
H106	H	1.155669	-0.110040	-0.666966
H107	H	1.050489	-0.268453	-1.079869
O108	O	1.292536	-0.130935	-0.962528
C109	C	1.330991	-0.054517	-0.987885
C110	C	1.275335	-0.086143	-0.942485
H111	H	1.317093	-0.018296	-0.971709
H112	H	1.394727	-0.062377	-0.971642
H113	H	1.322322	-0.059467	-1.053966
H114	H	1.283934	-0.081210	-0.876393
H115	H	1.211620	-0.078275	-0.958793
H116	H	1.050582	-1.044983	-0.472496
O117	O	0.991973	-0.692074	-0.531024
C118	C	0.953508	-0.706357	-0.665455
C119	C	1.009106	-0.680557	-0.609833
H120	H	0.967329	-0.697048	-0.729183
H121	H	0.962207	-0.743926	-0.656869
H122	H	0.889782	-0.697174	-0.651481
H123	H	1.072854	-0.689702	-0.623773
H124	H	1.000339	-0.642994	-0.618429
H125	H	0.443836	-0.164272	-0.289277
H126	H	1.234062	-0.164225	-1.079932
H127	H	0.443803	-0.268653	-0.472350
H128	H	0.841252	-0.164238	-0.289237
H129	H	0.567615	-0.297413	-0.522794
H130	H	1.050279	-0.472595	-0.472414
O131	O	1.292399	-0.692116	-0.230749
C132	C	1.303214	-0.745135	-0.124078
C133	C	1.247544	-0.719302	-0.179573
H134	H	1.266971	-0.767114	-0.082676
H135	H	1.344494	-0.767082	-0.160418
H136	H	1.339398	-0.720305	-0.088017
H137	H	1.211310	-0.744100	-0.215645
H138	H	1.206317	-0.697348	-0.143187
O139	O	1.292512	-0.599640	-0.230706
C140	C	1.392839	-0.604590	-0.130499
C141	C	1.337158	-0.630375	-0.186061
H142	H	1.428938	-0.629428	-0.094377
H143	H	1.434189	-0.582603	-0.166787
H144	H	1.356564	-0.582647	-0.089158
H145	H	1.373369	-0.652343	-0.227413
H146	H	1.295805	-0.652334	-0.149723
H147	H	0.717376	-0.297406	-0.522797
O148	O	0.991957	-0.599589	-0.530973
C149	C	0.981226	-0.546562	-0.637642
C150	C	1.036848	-0.572360	-0.582048
H151	H	1.017496	-0.524534	-0.678938
H152	H	0.945103	-0.571374	-0.673802
H153	H	0.939888	-0.524654	-0.601297
H154	H	1.078233	-0.594268	-0.618331
H155	H	1.072915	-0.547523	-0.545885
H156	H	0.841214	-0.268625	-0.472322
H157	H	1.050545	-0.959874	-0.472494
H158	H	0.567672	-0.135496	-0.238808
O159	O	1.042354	-0.383719	-0.480302
C160	C	0.997465	-0.311442	-0.525018
C161	C	1.053083	-0.337268	-0.469460
H162	H	1.006108	-0.273882	-0.516260
H163	H	1.011315	-0.320599	-0.588785
H164	H	0.933748	-0.320731	-0.511098
H165	H	1.116819	-0.327993	-0.483309
H166	H	1.039165	-0.328110	-0.405709
H167	H	1.233771	-0.387445	-0.289123
O168	O	1.241807	-0.476172	-0.281132
C169	C	1.342174	-0.471189	-0.180969
C170	C	1.286510	-0.445422	-0.236566
H171	H	1.378343	-0.446339	-0.144935
H172	H	1.305963	-0.493178	-0.139554
H173	H	1.383467	-0.493129	-0.217304
H174	H	1.245207	-0.423458	-0.200294
H175	H	1.322771	-0.423461	-0.277983
O176	O	1.242113	-0.956219	-0.281259
C177	C	1.342422	-0.961166	-0.181034
C178	C	1.286753	-0.986952	-0.236604
H179	H	1.378517	-0.986002	-0.144904
H180	H	1.383777	-0.939177	-0.217316
H181	H	1.306138	-0.939222	-0.139700
H182	H	1.322973	-1.008920	-0.277949
H183	H	1.245396	-1.008912	-0.200273
O184	O	0.991989	-0.301757	-0.799671
C185	C	0.981274	-0.362438	-0.706459
C186	C	1.036893	-0.330826	-0.751936
H187	H	1.017557	-0.385954	-0.667866
H188	H	0.939984	-0.341838	-0.667764
H189	H	0.945100	-0.382946	-0.750129
H190	H	1.073119	-0.310311	-0.708322
H191	H	1.078131	-0.351452	-0.790643
O192	O	0.991870	-0.740319	-0.530782
C193	C	0.885069	-0.687433	-0.541303
C194	C	0.940749	-0.713244	-0.485785
H195	H	0.843714	-0.665543	-0.504944
H196	H	0.921267	-0.665398	-0.582655
H197	H	0.848969	-0.712277	-0.577416
H198	H	0.976862	-0.688431	-0.449621
H199	H	0.904506	-0.735285	-0.444485
H200	H	1.234135	-1.044962	-0.289242
H201	H	1.284568	-0.744006	-0.238690
H202	H	1.284611	-0.829124	-0.238713
H203	H	0.999905	-0.829161	-0.522978
H204	H	1.050381	-0.268507	-0.682453
O205	O	0.991991	-0.301697	-0.962625
C206	C	0.947151	-0.327122	-1.089784
C207	C	1.002763	-0.295527	-1.044355
H208	H	0.955830	-0.322138	-1.155871
H209	H	0.960975	-0.363360	-1.073591
H210	H	0.883430	-0.319234	-1.073515
H211	H	1.066503	-0.303375	-1.060600
H212	H	0.988872	-0.259298	-1.060552
O213	O	1.292422	-0.130982	-0.799798
C214	C	1.303082	-0.070306	-0.706702
C215	C	1.247491	-0.101923	-0.752108
H216	H	1.266777	-0.046798	-0.668147
H217	H	1.344371	-0.090902	-0.667977
H218	H	1.339259	-0.049790	-0.750420
H219	H	1.211262	-0.122446	-0.708447
H220	H	1.206254	-0.081301	-0.790845
