data_functionalizedCrystal
_audit_creation_method	'MofGen! by Chris Wilmer'
_symmetry_space_group_name_H-M	'P1'
_symmetry_Int_Tables_number	1
_symmetry_cell_setting	triclinic
loop_
_symmetry_equiv_pos_as_xyz
  x,y,z
_cell_length_a	11.792241
_cell_length_b	16.109301
_cell_length_c	14.586319
_cell_angle_alpha	90.005214
_cell_angle_beta	89.999304
_cell_angle_gamma	83.827448
loop_
_atom_site_label
_atom_site_type_symbol
_atom_site_fract_x
_atom_site_fract_y
_atom_site_fract_z
O1	O	-1.505908	-0.113953	-0.076154
O2	O	-1.175464	-0.125697	-0.076176
O3	O	-1.349763	0.001163	-0.076155
O4	O	-1.331608	-0.240814	-0.076175
O5	O	-1.349751	0.001165	0.076325
O6	O	-1.175452	-0.125695	0.076305
O7	O	-1.505896	-0.113951	0.076326
Cu8	Cu	-1.340673	-0.119823	0.090238
Cu9	Cu	-1.340687	-0.119825	-0.090088
O10	O	-1.331596	-0.240812	0.076306
C11	C	-1.133173	-0.124959	0.000062
C12	C	-1.007179	-0.122751	0.000054
C13	C	-1.349022	0.032142	0.000085
C14	C	-1.346817	0.124448	0.000087
C15	C	-1.548186	-0.114690	0.000087
C16	C	-1.674181	-0.116898	0.000088
C17	C	-0.776502	-0.118690	0.000080
C18	C	-0.904868	-0.120946	0.000066
C19	C	-1.332338	-0.271791	0.000063
C20	C	-1.334542	-0.364097	0.000055
N21	N	-1.340671	-0.119821	0.217070
C22	C	-1.445116	0.346258	0.000078
C23	C	-1.443036	0.432988	0.000071
C24	C	-1.236235	0.414087	0.000061
C25	C	-1.238317	0.327358	0.000062
C26	C	-1.342761	0.293446	0.000075
C27	C	-1.338599	0.466905	0.000067
C28	C	-1.336342	0.560942	0.000058
C29	C	-1.345018	0.199404	0.000082
N30	N	-1.340698	-0.119821	-0.216920
C31	C	-1.417876	-0.063666	0.452086
C32	C	-1.417879	-0.063664	0.548067
C33	C	-1.263484	-0.175978	0.548058
C34	C	-1.263476	-0.175976	0.452078
C35	C	-1.340679	-0.119821	0.404095
C36	C	-1.340690	-0.119821	0.596055
C37	C	-1.340693	-0.119820	0.700123
C38	C	-1.340675	-0.119821	0.300021
H39	H	-1.530161	0.318650	0.000088
N40	N	-1.501111	-0.003089	0.400320
H41	H	-1.551350	-0.035098	0.360486
H42	H	-1.549938	0.032479	0.445340
N43	N	-1.180217	-0.236546	0.400303
H44	H	-1.129979	-0.204523	0.360490
H45	H	-1.131391	-0.272113	0.445317
N46	N	-1.123592	0.450667	0.000065
H47	H	-1.059066	0.404048	0.000062
H48	H	-1.118222	0.486237	-0.056460
H49	H	-1.480739	-0.017937	0.587138
H50	H	-1.526384	0.475984	0.000071
N51	N	-1.127914	0.270389	0.000052
H52	H	-1.061434	0.305031	0.000050
H53	H	-1.124272	0.233996	0.056577
N54	N	-1.180220	-0.236543	0.599812
H55	H	-1.191939	-0.228027	0.667897
H56	H	-1.193304	-0.295589	0.583025
