data_functionalizedCrystal
_audit_creation_method	'MofGen! by Chris Wilmer'
_symmetry_space_group_name_H-M	'P1'
_symmetry_Int_Tables_number	1
_symmetry_cell_setting	triclinic
loop_
_symmetry_equiv_pos_as_xyz
  x,y,z
_cell_length_a	10.654549
_cell_length_b	14.750522
_cell_length_c	10.654551
_cell_angle_alpha	75.915024
_cell_angle_beta	95.514897
_cell_angle_gamma	104.086365
loop_
_atom_site_label
_atom_site_type_symbol
_atom_site_fract_x
_atom_site_fract_y
_atom_site_fract_z
O1	O	1.692368	0.079802	-0.200921
O2	O	1.326892	0.079809	-0.217730
O3	O	1.518032	0.079803	-0.026585
O4	O	1.501229	0.079808	-0.392065
O5	O	1.468947	-0.079854	0.022485
O6	O	1.277807	-0.079849	-0.168659
O7	O	1.643283	-0.079855	-0.151850
Zn8	Zn	1.452752	-0.105201	-0.152463
Zn9	Zn	1.517423	0.105155	-0.217116
O10	O	1.452143	-0.079849	-0.342994
C11	C	1.255552	-0.000019	-0.191960
C12	C	1.116109	-0.000016	-0.188269
C13	C	0.905594	-0.000019	-0.297332
C14	C	1.036616	-0.000013	-0.300812
C15	C	1.064576	-0.000016	-0.072242
C16	C	0.933558	-0.000015	-0.068765
C17	C	1.216072	0.055925	-0.460054
C18	C	1.267596	0.055911	-0.576074
C19	C	1.195532	-0.000034	-0.658653
C20	C	1.071937	-0.055987	-0.625208
C21	C	1.020418	-0.055981	-0.509183
C22	C	1.092487	-0.000014	-0.426616
C23	C	0.754097	-0.055961	0.090471
C24	C	0.702573	-0.055962	0.206499
C25	C	0.774634	-0.000024	0.289090
C26	C	0.898230	0.055915	0.255662
C27	C	0.949754	0.055916	0.139634
C28	C	0.877684	-0.000020	0.057042
N29	N	1.408624	-0.248763	-0.108339
C30	C	1.684700	-0.600541	-0.384498
C31	C	1.653807	-0.701045	-0.353559
C32	C	1.500166	-0.701030	-0.199810
C33	C	1.531040	-0.600524	-0.230740
C34	C	1.623309	-0.550288	-0.323084
C35	C	1.469650	-0.550271	-0.169326
C36	C	1.500528	-0.449774	-0.200250
C37	C	1.592796	-0.399530	-0.292587
C38	C	1.654187	-0.449791	-0.354008
C39	C	1.377388	-0.600509	-0.076976
C40	C	1.315998	-0.550255	-0.015562
C41	C	1.346869	-0.449757	-0.046492
C42	C	1.439137	-0.399513	-0.138829
C43	C	1.285478	-0.399496	0.014929
C44	C	1.316355	-0.298999	-0.015995
C45	C	1.470014	-0.299016	-0.169753
C46	C	1.714624	-0.000025	-0.177620
C47	C	1.854069	-0.000021	-0.181313
C48	C	1.492255	-0.000024	0.044747
C49	C	1.488564	-0.000019	0.184189
N50	N	1.561561	0.248717	-0.261231
C51	C	1.477920	-0.000020	-0.414328
C52	C	1.481613	-0.000018	-0.553772
C53	C	1.513588	0.087011	0.222944
C54	C	1.510108	0.087012	0.353964
C55	C	1.456584	-0.087055	0.407466
C56	C	1.460055	-0.087055	0.276447
C57	C	1.464063	0.191574	0.491899
C58	C	1.489110	0.278609	0.530660
C59	C	1.587326	0.355447	0.473503
C60	C	1.660528	0.345254	0.377591
C61	C	1.635492	0.258218	0.338839
C62	C	1.537247	0.181383	0.395989
C63	C	1.506113	-0.191611	0.138509
C64	C	1.481085	-0.278648	0.099756
C65	C	1.382874	-0.355495	0.156913
C66	C	1.309689	-0.345311	0.252835
C67	C	1.334716	-0.258274	0.291588
C68	C	1.432925	-0.181427	0.234421
H69	H	1.237492	-0.000044	-0.753119
F70	F	1.713391	0.247366	0.236770
F71	F	1.426244	-0.179680	0.505662
H72	H	1.352258	-0.682340	-0.051793
F73	F	1.719160	-0.754525	-0.418927
H74	H	0.840877	-0.000024	-0.388976
F75	F	1.217802	-0.603731	0.082715
H76	H	1.425043	-0.741946	-0.124619
F77	F	1.205166	-0.427102	0.313678
F78	F	1.251037	-0.245513	0.049389
F79	F	0.974933	0.115448	0.343568
H80	H	1.210361	-0.440414	0.090125
H81	H	1.536798	0.157881	0.147830
F82	F	1.356254	-0.448132	0.115676
F83	F	0.719798	-0.000038	0.412587
H84	H	0.919794	-0.101544	-0.481948
F85	F	1.359508	0.109803	0.552720
H86	H	1.740513	0.407823	0.331070
F87	F	0.995253	-0.115540	-0.713095
F88	F	1.558991	-0.289488	-0.002323
H89	H	1.586078	-0.129035	0.091948
F90	F	0.571036	-0.115509	0.242082
F91	F	1.399131	0.115462	-0.611665
H92	H	1.545135	-0.258111	-0.244962
F93	F	0.677391	-0.115499	0.002568
H94	H	1.274755	0.101493	-0.392828
H95	H	1.617937	-0.317699	-0.317761
F96	F	1.081300	0.115451	0.104060
F97	F	1.149183	-0.000016	0.047534
H98	H	1.607718	0.426313	0.505071
H99	H	1.429499	0.286902	0.608753
F100	F	1.256825	-0.247439	0.393683
H101	H	1.729308	-0.408886	-0.429217
H102	H	1.759820	-0.559636	-0.459707
