data_functionalizedCrystal
_audit_creation_method	'MofGen! by Chris Wilmer'
_symmetry_space_group_name_H-M	'P1'
_symmetry_Int_Tables_number	1
_symmetry_cell_setting	triclinic
loop_
_symmetry_equiv_pos_as_xyz
  x,y,z
_cell_length_a	12.837939
_cell_length_b	11.026607
_cell_length_c	10.065875
_cell_angle_alpha	79.285170
_cell_angle_beta	99.704437
_cell_angle_gamma	101.707328
loop_
_atom_site_label
_atom_site_type_symbol
_atom_site_fract_x
_atom_site_fract_y
_atom_site_fract_z
O1	O	-1.447755	-0.306027	-0.113473
O2	O	-1.142978	-0.290099	-0.113479
O3	O	-1.270106	-0.118490	-0.113471
O4	O	-1.320627	-0.477636	-0.113480
O5	O	-1.245818	-0.151282	0.113516
O6	O	-1.118690	-0.322891	0.113509
O7	O	-1.423467	-0.338818	0.113515
Zn8	Zn	-1.267222	-0.336061	0.149551
Zn9	Zn	-1.299223	-0.292857	-0.149515
O10	O	-1.296339	-0.510428	0.113507
C11	C	-1.091209	-0.301115	0.000014
C12	C	-0.973138	-0.285068	0.000012
C13	C	-1.248643	-0.088597	0.000021
C14	C	-1.220860	0.049331	0.000015
N15	N	-1.245390	-0.365547	0.353655
C16	C	-0.768178	-0.477988	0.000029
C17	C	-0.657239	-0.462916	0.000028
C18	C	-0.640320	-0.239854	0.000018
C19	C	-0.751259	-0.254926	0.000020
C20	C	-0.815184	-0.373997	0.000023
C21	C	-0.926125	-0.389066	0.000014
C22	C	-0.909203	-0.166007	0.000015
C23	C	-0.798265	-0.150935	0.000014
C24	C	-0.475236	-0.327804	0.000021
C25	C	-0.593307	-0.343853	0.000020
C26	C	-1.317803	-0.540321	0.000012
C27	C	-1.345586	-0.678247	0.000009
C28	C	-1.297574	0.114266	0.000015
C29	C	-1.268861	0.256821	0.000009
N30	N	-1.321061	-0.263362	-0.353619
C31	C	-1.274833	-0.325802	0.578600
C32	C	-1.291625	-0.303098	0.421433
H33	H	-0.978172	-0.486020	0.000019
H34	H	-0.947488	-0.081328	0.000001
F35	F	-1.107229	0.114606	0.000001
H36	H	-1.193372	-0.435813	0.411973
F37	F	-0.572268	-0.113143	0.000031
H38	H	-0.746200	-0.053993	0.000027
F39	F	-1.206844	-0.417640	0.654824
F40	F	-1.411207	0.048993	0.000009
F41	F	-1.389037	-0.171511	0.570154
H42	H	-0.618972	-0.547598	0.000036
F43	F	-0.836216	-0.604707	0.000015
F44	F	-1.155225	0.322092	-0.000005
H45	H	-1.343634	-0.232823	0.363115
H46	H	-1.432537	0.271831	-0.000092
