data_functionalizedCrystal
_audit_creation_method	'MofGen! by Chris Wilmer'
_symmetry_space_group_name_H-M	'P1'
_symmetry_Int_Tables_number	1
_symmetry_cell_setting	triclinic
loop_
_symmetry_equiv_pos_as_xyz
  x,y,z
_cell_length_a	10.654550
_cell_length_b	19.188930
_cell_length_c	9.130313
_cell_angle_alpha	89.993647
_cell_angle_beta	89.996220
_cell_angle_gamma	83.814841
loop_
_atom_site_label
_atom_site_type_symbol
_atom_site_fract_x
_atom_site_fract_y
_atom_site_fract_z
O1	O	1.665759	0.098059	-0.121938
O2	O	1.300083	0.107401	-0.121916
O3	O	1.493474	0.001143	-0.121899
O4	O	1.472368	0.204317	-0.121955
O5	O	1.493471	0.001146	0.121700
O6	O	1.300081	0.107404	0.121682
O7	O	1.665757	0.098062	0.121661
Cu8	Cu	1.482918	0.102733	0.143914
Cu9	Cu	1.482921	0.102730	-0.144170
O10	O	1.472366	0.204320	0.121644
C11	C	1.253298	0.106717	-0.000114
C12	C	1.113898	0.104664	-0.000104
C13	C	1.033089	0.167227	-0.000143
C14	C	0.902109	0.165295	-0.000168
C15	C	0.932761	0.038231	-0.000121
C16	C	1.063738	0.040164	-0.000086
C17	C	1.083249	0.231728	-0.000161
C18	C	1.002438	0.294296	-0.000201
C19	C	0.871458	0.292363	-0.000226
C20	C	0.821289	0.227863	-0.000211
C21	C	1.492789	-0.024871	-0.000096
C22	C	1.490737	-0.102389	-0.000083
C23	C	1.604213	-0.146570	-0.000083
C24	C	1.602285	-0.219407	-0.000106
C25	C	1.486876	-0.248058	-0.000100
C26	C	1.373386	-0.203867	-0.000109
C27	C	1.375316	-0.131032	-0.000100
N28	N	1.398658	-0.356639	0.082806
N29	N	1.396832	-0.425830	0.082801
C30	C	1.481052	-0.467505	-0.000129
N31	N	1.567186	-0.437377	-0.083037
N32	N	1.569016	-0.368180	-0.083025
C33	C	1.484770	-0.327034	-0.000110
C34	C	1.592445	-0.590665	-0.000157
C35	C	1.590513	-0.663502	-0.000189
C36	C	1.361610	-0.647960	-0.000177
C37	C	1.363545	-0.575125	-0.000159
C38	C	1.478966	-0.546481	-0.000142
C39	C	1.712541	0.098746	-0.000145
C40	C	1.851941	0.100798	-0.000164
C41	C	1.473051	0.230334	-0.000163
C42	C	1.475102	0.307852	-0.000186
N43	N	1.482926	0.102735	0.346537
N44	N	1.482924	0.102722	-0.346792
C45	C	1.568581	0.055700	0.423196
C46	C	1.568577	0.055692	0.576533
C47	C	1.397260	0.149759	0.576537
C48	C	1.397258	0.149764	0.423203
C49	C	1.654248	0.008672	0.346530
C50	C	1.739911	-0.038367	0.423189
C51	C	1.739908	-0.038375	0.576526
C52	C	1.654241	0.008655	0.653203
H53	H	1.043295	0.346810	-0.000201
H54	H	1.189898	0.233309	-0.000147
H55	H	0.805665	0.343309	-0.000244
H56	H	1.282908	-0.095058	-0.000100
F57	F	0.681886	0.225809	-0.000217
H58	H	1.129536	-0.010780	-0.000058
F59	F	1.727055	-0.116090	-0.000096
H60	H	0.891902	-0.014283	-0.000133
F61	F	1.723066	-0.266437	-0.000108
F62	F	1.831068	-0.088422	0.341584
F63	F	1.306090	0.199823	0.341616
H64	H	1.279418	-0.227199	-0.000107
H65	H	1.682922	-0.699475	-0.000197
F66	F	1.306097	0.199810	0.658146
H67	H	1.686428	-0.567342	-0.000149
F68	F	1.238782	-0.678448	-0.000178
H69	H	1.654261	0.008675	0.221675
F70	F	1.242768	-0.528101	-0.000154
H71	H	1.809649	-0.076680	0.638941
H72	H	1.654238	0.008639	0.778061
