data_functionalizedCrystal
_audit_creation_method	'MofGen! by Chris Wilmer'
_symmetry_space_group_name_H-M	'P1'
_symmetry_Int_Tables_number	1
_symmetry_cell_setting	triclinic
loop_
_symmetry_equiv_pos_as_xyz
  x,y,z
_cell_length_a	11.026607
_cell_length_b	11.026607
_cell_length_c	10.065875
_cell_angle_alpha	79.268236
_cell_angle_beta	79.303208
_cell_angle_gamma	71.413983
loop_
_atom_site_label
_atom_site_type_symbol
_atom_site_fract_x
_atom_site_fract_y
_atom_site_fract_z
O1	O	1.741282	-0.518969	-0.113460
O2	O	2.241282	-0.018969	0.386540
O3	O	1.374703	-0.458205	-0.113469
O4	O	1.874703	0.041795	0.386531
O5	O	1.527611	-0.305298	-0.113460
O6	O	2.027611	0.194702	0.386540
O7	O	1.588375	-0.671877	-0.113469
O8	O	2.088375	-0.171877	0.386531
O9	O	1.498486	-0.334605	0.113527
O10	O	1.998486	0.165395	0.613527
O11	O	1.345579	-0.487512	0.113518
O12	O	1.845579	0.012488	0.613518
O13	O	1.712158	-0.548277	0.113527
O14	O	2.212158	-0.048277	0.613527
Zn15	Zn	1.524244	-0.522547	0.149562
Zn16	Zn	2.024244	-0.022547	0.649562
Zn17	Zn	1.562617	-0.483934	-0.149504
Zn18	Zn	2.062617	0.016066	0.350496
O19	O	1.559251	-0.701184	0.113518
O20	O	2.059251	-0.201184	0.613518
C21	C	1.312482	-0.461648	0.000024
C22	C	1.812482	0.038352	0.500024
C23	C	1.170468	-0.428231	0.000020
C24	C	1.670468	0.071769	0.500020
C25	C	1.501839	-0.272291	0.000031
C26	C	2.001839	0.227709	0.500031
C27	C	1.468423	-0.130277	0.000026
C28	C	1.968423	0.369723	0.500026
N29	N	1.498065	-0.548901	0.353666
N30	N	1.998065	-0.048901	0.853666
C31	C	1.774380	-0.544833	0.000031
C32	C	2.274380	-0.044833	0.500031
C33	C	1.916395	-0.578249	0.000026
C34	C	2.416395	-0.078249	0.500026
C35	C	1.970044	-0.485979	0.000026
C36	C	2.470044	0.014021	0.500026
C37	C	2.116823	-0.520514	0.000020
C38	C	2.616823	-0.020514	0.500020
C39	C	1.585023	-0.734190	0.000024
C40	C	2.085023	-0.234190	0.500024
C41	C	1.618440	-0.876203	0.000020
C42	C	2.118440	-0.376203	0.500020
C43	C	1.560692	-0.076627	0.000026
C44	C	2.060692	0.423373	0.500026
C45	C	1.526157	0.070152	0.000020
C46	C	2.026157	0.570152	0.500020
N47	N	1.588804	-0.457572	-0.353608
N48	N	2.088804	0.042428	0.146392
C49	C	1.553499	-0.493094	0.421448
C50	C	2.053499	0.006906	0.921448
C51	C	1.533362	-0.513388	0.578614
C52	C	2.033362	-0.013388	1.078614
H53	H	1.907307	-0.381420	0.000051
H54	H	2.407307	0.118580	0.500051
H55	H	1.363861	-0.067542	0.000014
H56	H	1.863861	0.432458	0.500014
Br57	Br	1.734979	-0.181173	0.000016
Br58	Br	2.234979	0.318827	0.500016
H59	H	2.107752	-0.323650	-0.000065
H60	H	2.607752	0.176350	0.499935
H61	H	1.723023	0.061082	-0.000080
H62	H	2.223023	0.561082	0.499920
H63	H	1.615860	-0.430284	0.363127
H64	H	2.115860	0.069716	0.863127
Br65	Br	1.351868	0.174698	-0.000004
Br66	Br	1.851868	0.674698	0.499996
Br67	Br	1.394100	-0.653569	0.450862
Br68	Br	1.894100	-0.153569	0.950862
Br69	Br	2.221365	-0.694807	0.000029
Br70	Br	2.721365	-0.194807	0.500029
H71	H	1.470986	-0.576190	0.636931
H72	H	1.970986	-0.076190	1.136931
Br73	Br	1.693126	-0.353251	0.549206
Br74	Br	2.193126	0.146749	1.049206
H75	H	1.979127	-0.682812	0.000029
H76	H	2.479127	-0.182812	0.500029
