data_functionalizedCrystal
_audit_creation_method	'MofGen! by Chris Wilmer'
_symmetry_space_group_name_H-M	'P1'
_symmetry_Int_Tables_number	1
_symmetry_cell_setting	triclinic
loop_
_symmetry_equiv_pos_as_xyz
  x,y,z
_cell_length_a	8.597340
_cell_length_b	14.853559
_cell_length_c	7.088929
_cell_angle_alpha	83.769914
_cell_angle_beta	103.954719
_cell_angle_gamma	84.487308
loop_
_atom_site_label
_atom_site_type_symbol
_atom_site_fract_x
_atom_site_fract_y
_atom_site_fract_z
O1	O	2.101636	0.123814	0.187225
O2	O	1.636985	0.138531	0.110680
O3	O	1.881729	-0.000076	0.151001
O4	O	1.856891	0.262422	0.146905
O5	O	1.914437	-0.018642	0.474364
O6	O	1.669692	0.119966	0.434044
O7	O	2.134343	0.105249	0.510589
Cu8	Cu	1.905004	0.110912	0.501842
Cu9	Cu	1.866324	0.132868	0.119427
O10	O	1.889599	0.243856	0.470269
C11	C	1.593874	0.128702	0.262566
C12	C	1.416689	0.127064	0.233377
C13	C	1.896960	-0.042946	0.312494
C14	C	1.893593	-0.143024	0.311929
C15	C	1.861489	-0.556058	0.133311
C16	C	1.897147	-0.576294	0.485854
C17	C	1.900323	-0.482265	0.486379
C18	C	1.884078	-0.425129	0.310367
C19	C	1.864659	-0.462020	0.133830
C20	C	1.919726	-0.445365	0.662910
C21	C	1.922900	-0.351331	0.663442
C22	C	1.906667	-0.294193	0.487429
C23	C	1.887248	-0.331091	0.310885
C24	C	1.871004	-0.273954	0.134873
C25	C	1.851596	-0.310851	-0.041671
C26	C	1.848426	-0.404883	-0.042183
C27	C	1.909838	-0.200161	0.487941
C28	C	1.874174	-0.179916	0.135392
C29	C	2.177453	0.115078	0.358699
C30	C	2.354637	0.116717	0.387875
C31	C	1.874368	0.286726	0.308771
C32	C	1.877733	0.386805	0.309324
N33	N	1.932222	0.095469	0.770814
N34	N	1.839119	0.148304	-0.149543
H35	H	1.437065	0.109106	0.542486
C36	C	1.708761	0.222268	0.718703
H37	H	1.653301	0.253752	0.797715
H38	H	1.634187	0.194451	0.628339
H39	H	1.758383	0.264248	0.648783
C40	C	1.305338	0.137344	0.024496
H41	H	1.196858	0.134867	0.031606
H42	H	1.337274	0.089209	-0.041509
H43	H	1.313166	0.194314	-0.045465
H44	H	1.910362	-0.622819	0.629154
C45	C	1.856303	-0.117073	-0.058226
H46	H	1.844281	-0.152516	-0.163434
H47	H	1.949793	-0.086916	-0.050033
H48	H	1.763781	-0.073023	-0.080677
C49	C	1.833726	-0.247999	-0.235278
H50	H	1.821705	-0.283434	-0.340499
H51	H	1.927216	-0.217841	-0.227073
H52	H	1.741204	-0.203950	-0.257718
C53	C	1.840135	-0.596638	-0.060873
H54	H	1.840565	-0.660823	-0.035986
H55	H	1.926325	-0.584016	-0.117899
H56	H	1.740315	-0.570119	-0.148529
H57	H	2.028730	0.040720	0.868369
H58	H	1.832623	-0.434933	-0.185916
H59	H	1.932942	-0.491891	0.806209
H60	H	1.938709	-0.321299	0.807196
H61	H	1.925603	-0.170121	0.631675
