data_functionalizedCrystal
_audit_creation_method	'MofGen! by Chris Wilmer'
_symmetry_space_group_name_H-M	'P1'
_symmetry_Int_Tables_number	1
_symmetry_cell_setting	triclinic
loop_
_symmetry_equiv_pos_as_xyz
  x,y,z
_cell_length_a	20.875641
_cell_length_b	23.196402
_cell_length_c	23.196402
_cell_angle_alpha	60.002465
_cell_angle_beta	90.000410
_cell_angle_gamma	57.589996
loop_
_atom_site_label
_atom_site_type_symbol
_atom_site_fract_x
_atom_site_fract_y
_atom_site_fract_z
Zr1	Zr	0.641493	0.588687	-0.054483
O2	O	0.535171	0.715965	-0.150033
O3	O	0.674084	0.466272	-0.025195
O4	O	0.674084	0.586537	-0.145459
O5	O	0.535173	0.595699	0.065102
O6	O	0.783665	0.579310	-0.141847
O7	O	0.535171	0.595700	-0.029768
O8	O	0.783664	0.364177	0.073284
O9	O	0.535174	0.810832	-0.150029
O10	O	0.769765	0.509428	-0.010004
O11	O	0.687989	0.514822	0.058101
O12	O	0.687989	0.656419	-0.083494
O13	O	0.606213	0.661812	-0.015389
Zr14	Zr	0.816266	0.577159	0.102586
Zr15	Zr	0.816261	0.577160	-0.048722
Zr16	Zr	0.641498	0.588687	0.096825
Zr17	Zr	0.641498	0.739989	-0.054476
Zr18	Zr	0.816261	0.425857	0.102579
O19	O	0.783675	0.699574	0.073298
O20	O	0.783668	0.699575	-0.141842
O21	O	0.535177	0.715964	0.065108
O22	O	0.922588	0.449881	0.198136
O23	O	0.922582	0.449882	-0.017004
O24	O	0.674090	0.466272	0.189945
O25	O	0.922585	0.570147	-0.016999
O26	O	0.783674	0.579309	0.193563
O27	O	0.674094	0.586537	0.189951
O28	O	0.922588	0.570147	0.077872
O29	O	0.674091	0.801670	-0.145450
O30	O	0.783668	0.364177	0.193553
O31	O	0.922585	0.355014	0.198132
O32	O	0.922581	0.355015	0.077862
O33	O	0.535177	0.810832	-0.029759
O34	O	0.674095	0.801669	-0.025180
O35	O	0.769769	0.509428	0.131598
O36	O	0.851546	0.504034	0.063492
O37	O	0.769770	0.651025	-0.009998
O38	O	0.687993	0.656418	0.058108
C39	C	0.728873	0.393667	0.024043
C40	C	0.728871	0.329436	0.024041
C41	C	0.510271	0.597342	0.016846
C42	C	0.436078	0.602235	0.014401
C43	C	0.771552	0.296450	-0.011513
C44	C	0.771560	0.236089	-0.011507
C45	C	0.728871	0.208727	0.024042
C46	C	0.686188	0.241717	0.059604
C47	C	0.686188	0.302071	0.059603
C48	C	0.657368	0.151414	0.016411
C49	C	0.657366	0.091065	0.016407
C50	C	0.728872	0.022573	0.024050
C51	C	0.800380	0.014444	0.031682
C52	C	0.800380	0.074799	0.031681
C53	C	0.728867	0.143283	0.024048
C54	C	0.771565	-0.075865	-0.011499
C55	C	0.771576	-0.136231	-0.011488
C56	C	0.686196	-0.130595	0.059618
C57	C	0.686194	-0.070236	0.059612
C58	C	0.728877	-0.042872	0.024049
C59	C	0.443906	0.527809	0.051609
C60	C	0.374190	0.532412	0.049310
C61	C	0.296647	0.611442	0.009797
C62	C	0.288821	0.685875	-0.027412
C63	C	0.358536	0.681271	-0.025108
C64	C	0.083569	0.633439	-0.001203
C65	C	0.013853	0.638037	-0.003506
C66	C	0.099227	0.484574	0.073218
C67	C	0.168939	0.479977	0.075515
C68	C	0.161107	0.554409	0.038308
N69	N	0.225386	0.616149	0.007444
N70	N	0.232368	0.549702	0.040666
C71	C	0.947487	0.568505	0.031257
C72	C	1.021681	0.563611	0.033703
C73	C	0.728874	0.582924	-0.165211
C74	C	0.728872	0.582924	-0.229446
C75	C	0.728885	0.772179	0.024060
C76	C	0.728887	0.836411	0.024063
C77	C	0.668512	0.586914	-0.694276
C78	C	0.668512	0.586909	-0.633918
C79	C	0.728880	0.582928	-0.601746
C80	C	0.789265	0.578931	-0.629926
C81	C	0.789269	0.578928	-0.690279
C82	C	0.747694	0.629192	-0.529259
C83	C	0.747685	0.629201	-0.468910
C84	C	0.728875	0.582932	-0.415598
C85	C	0.710056	0.536668	-0.422647
C86	C	0.710060	0.536665	-0.483000
C87	C	0.728884	0.582930	-0.536304
C88	C	0.668497	0.586917	-0.321975
C89	C	0.668502	0.586906	-0.261614
C90	C	0.789253	0.578937	-0.257628
C91	C	0.789250	0.578939	-0.317984
C92	C	0.728869	0.582934	-0.350156
C93	C	0.728885	0.582923	0.213315
C94	C	0.728887	0.582923	0.277549
C95	C	0.947481	0.379249	0.031249
C96	C	1.021673	0.310123	0.033692
C97	C	0.728879	0.393667	0.213307
C98	C	0.728879	0.329435	0.277538
C99	C	0.947487	0.379248	0.220512
C100	C	1.021680	0.310123	0.287189
C101	C	0.510272	0.786598	-0.172409
C102	C	0.436078	0.855724	-0.239086
C103	C	0.510277	0.786598	0.016854
C104	C	0.436086	0.855723	0.014412
C105	C	0.728880	0.772180	-0.165203
C106	C	0.728880	0.836411	-0.229435
C107	C	1.013825	0.280477	-0.003532
C108	C	1.083530	0.215535	-0.001251
C109	C	1.161080	0.180237	0.038258
C110	C	1.168926	0.209889	0.075482
C111	C	1.099223	0.274834	0.073197
C112	C	0.771567	0.296455	0.346072
C113	C	0.771564	0.236111	0.406430
C114	C	0.728876	0.208744	0.398252
C115	C	0.686183	0.241729	0.329711
C116	C	0.686182	0.302077	0.269354
C117	C	1.099216	0.274845	0.282951
C118	C	1.168935	0.209902	0.345595
C119	C	1.161117	0.180234	0.412477
C120	C	1.083573	0.215519	0.416713
C121	C	1.013856	0.280464	0.354070
C122	C	0.358543	0.891009	-0.234848
C123	C	0.288823	0.955971	-0.297492
C124	C	0.296642	0.985641	-0.364374
C125	C	0.374186	0.950353	-0.368610
C126	C	0.443903	0.885397	-0.305966
C127	C	0.443933	0.885376	0.051629
C128	C	0.374229	0.950334	0.049332
C129	C	0.296678	0.985635	0.009821
C130	C	0.288832	0.955979	-0.027401
C131	C	0.358536	0.891026	-0.025108
C132	C	0.771576	0.863760	-0.221234
C133	C	0.771592	0.924103	-0.281579
C134	C	0.728907	0.957102	-0.350126
C135	C	0.686210	0.929748	-0.358325
C136	C	0.686199	0.869401	-0.297980
H137	H	0.806309	0.318726	-0.040467
C138	C	0.818550	0.954191	-0.272548
H139	H	0.843954	0.925904	-0.223081
H140	H	0.858955	0.941633	-0.293213
H141	H	0.781699	1.013604	-0.295768
C142	C	0.074948	0.715311	-0.042137
H143	H	0.018781	0.763036	-0.066005
H144	H	0.100365	0.716712	-0.009400
H145	H	0.100369	0.716704	-0.076273
H146	H	0.728922	1.006240	-0.399257
C147	C	0.639253	0.966060	-0.433728
H148	H	0.645371	1.005924	-0.468488
H149	H	0.660319	0.921356	-0.438345
H150	H	0.583086	0.993322	-0.440875
C151	C	0.382870	0.982946	0.090276
H152	H	0.330254	1.026694	0.083247
H153	H	0.411833	0.937708	0.139851
H154	H	0.411845	1.004571	0.072977
H155	H	0.694737	0.498994	-0.379241
C156	C	0.203527	0.772806	-0.070877
H157	H	0.163128	0.764890	-0.066927
H158	H	0.197410	0.803582	-0.052828
H159	H	0.197420	0.803575	-0.119701
H160	H	0.651427	0.847142	-0.304667
H161	H	0.239928	1.038523	0.007959
C162	C	0.818515	0.326560	0.355082
H163	H	0.843924	0.298279	0.404546
H164	H	0.858916	0.314007	0.334411
H165	H	0.781656	0.385973	0.331859
C166	C	0.639233	0.211618	0.320720
H167	H	0.613801	0.239903	0.271259
H168	H	0.676086	0.152208	0.343949
H169	H	0.598837	0.224180	0.341399
H170	H	0.651422	0.328921	0.213552
H171	H	0.806333	0.209261	0.462234
C172	C	0.349931	0.858383	-0.161285
H173	H	0.402552	0.814638	-0.124576
H174	H	0.320972	0.903620	-0.156944
H175	H	0.320959	0.836752	-0.156948
C176	C	1.107832	0.307470	0.209390
H177	H	1.164000	0.277157	0.215848
H178	H	1.082417	0.299253	0.183468
H179	H	1.082411	0.366129	0.183476
C180	C	0.578704	0.226763	0.007990
H181	H	0.588945	0.261542	0.009085
H182	H	0.537300	0.259012	-0.036358
H183	H	0.561347	0.206216	0.046058
C184	C	0.855670	0.574552	-0.594543
H185	H	0.891633	0.572168	-0.619967
H186	H	0.830874	0.623473	-0.595459
H187	H	0.885486	0.525296	-0.546372
H188	H	0.225691	0.984692	-0.294029
C189	C	0.203524	0.994810	-0.070854
H190	H	0.163142	1.037732	-0.066878
H191	H	0.197393	1.018762	-0.119680
H192	H	0.197404	0.951886	-0.052797
H193	H	1.077125	0.191401	-0.031564
H194	H	0.806336	-0.163093	-0.040436
H195	H	1.217831	0.127354	0.040113
C196	C	0.382775	0.982991	-0.442182
H197	H	0.330145	1.026722	-0.478878
H198	H	0.411741	1.004627	-0.446534
H199	H	0.411727	0.937753	-0.446528
H200	H	0.858610	-0.041330	0.037914
H201	H	0.950686	0.309216	-0.035713
C202	C	0.728889	0.142357	0.464649
H203	H	0.760436	0.126633	0.506635
H204	H	0.674507	0.165717	0.462870
H205	H	0.751753	0.093752	0.465411
H206	H	1.232069	0.181180	0.342133
H207	H	0.232075	0.415622	0.107676
C208	C	1.074983	0.182871	0.490285
H209	H	1.127613	0.139132	0.526981
H210	H	1.046021	0.228095	0.494642
H211	H	1.046028	0.161222	0.494627
H212	H	0.838408	0.575691	-0.231432
C213	C	1.107861	0.307440	0.114145
H214	H	1.055246	0.351180	0.107126
H215	H	1.136834	0.262197	0.163718
H216	H	1.136827	0.329076	0.096841
H217	H	1.217892	0.127351	0.463480
H218	H	0.619340	0.590152	-0.238670
C219	C	1.254234	0.171049	0.118945
H220	H	1.294617	0.128118	0.114978
H221	H	1.260367	0.213959	0.100910
H222	H	1.260353	0.147087	0.167773
C223	C	0.578714	0.100005	0.008012
H224	H	0.588951	0.054258	0.009098
H225	H	0.561372	0.099226	0.046084
H226	H	0.537296	0.152047	-0.036336
C227	C	0.928569	0.319260	0.358736
H228	H	0.888161	0.362193	0.311853
H229	H	0.922467	0.276327	0.383617
H230	H	0.922459	0.343210	0.383614
C231	C	0.639239	-0.160686	0.098721
H232	H	0.645348	-0.201352	0.093627
H233	H	0.660318	-0.185616	0.148036
H234	H	0.583074	-0.113651	0.078614
H235	H	0.239867	1.038533	-0.415377
H236	H	0.507073	0.856639	0.083808
C237	C	0.818505	0.199803	-0.050621
H238	H	0.843921	0.224748	-0.071804
H239	H	0.858901	0.140160	-0.017396
H240	H	0.781646	0.212133	-0.086809
C241	C	0.349925	0.763140	-0.066041
H242	H	0.293760	0.810867	-0.089909
H243	H	0.375346	0.764534	-0.033301
H244	H	0.375347	0.764533	-0.100177
H245	H	0.352135	0.866885	-0.055413
H246	H	0.858605	0.068176	0.037898
C247	C	0.529188	0.846580	-0.310637
H248	H	0.523852	0.873552	-0.359443
H249	H	0.558176	0.854548	-0.287676
H250	H	0.558147	0.787690	-0.287686
C251	C	0.818536	0.827468	-0.145840
H252	H	0.843970	0.852399	-0.149609
H253	H	0.781696	0.839791	-0.121970
H254	H	0.858932	0.767821	-0.119433
H255	H	0.763005	0.666875	-0.463178
C256	C	0.818519	-0.045765	-0.050607
H257	H	0.812397	-0.005087	-0.045525
H258	H	0.874681	-0.092792	-0.030507
H259	H	0.797433	-0.020831	-0.099926
C260	C	0.639233	-0.033941	0.098711
H261	H	0.613804	-0.058874	0.119879
H262	H	0.676076	-0.046257	0.134896
H263	H	0.598834	0.025705	0.065473
H264	H	0.507041	0.463454	0.083788
H265	H	0.105594	0.423976	0.103510
C266	C	0.639250	0.211607	0.098725
H267	H	0.613841	0.239888	0.119910
H268	H	0.598850	0.224150	0.065510
H269	H	0.676118	0.152195	0.134912
C270	C	0.639231	0.338363	0.098707
H271	H	0.613803	0.313428	0.119877
H272	H	0.676073	0.326049	0.134890
H273	H	0.598829	0.398009	0.065468
H274	H	0.380571	0.471806	0.079610
H275	H	0.619348	0.590164	-0.720467
C276	C	-0.071447	0.724973	-0.046971
H277	H	-0.111843	0.717051	-0.043021
H278	H	-0.077568	0.755748	-0.028920
H279	H	-0.077557	0.755745	-0.095796
H280	H	0.619346	0.590159	-0.610973
C281	C	0.689369	0.485773	-0.490754
H282	H	0.692061	0.492405	-0.534336
H283	H	0.727382	0.427522	-0.451739
H284	H	0.635890	0.506009	-0.490985
C285	C	0.602089	0.591301	-0.357365
H286	H	0.610730	0.590740	-0.397350
H287	H	0.604588	0.543853	-0.323753
H288	H	0.549973	0.642030	-0.372836
C289	C	0.855655	0.574563	-0.348986
H290	H	0.891605	0.572199	-0.321186
H291	H	0.885474	0.525313	-0.347907
H292	H	0.830851	0.623490	-0.396990
H293	H	0.763010	0.666875	-0.572666
H294	H	0.838434	0.575677	-0.713219
