data_functionalizedCrystal
_audit_creation_method	'MofGen! by Chris Wilmer'
_symmetry_space_group_name_H-M	'P1'
_symmetry_Int_Tables_number	1
_symmetry_cell_setting	triclinic
loop_
_symmetry_equiv_pos_as_xyz
  x,y,z
_cell_length_a	15.297475
_cell_length_b	10.686285
_cell_length_c	10.685880
_cell_angle_alpha	90.361115
_cell_angle_beta	76.787678
_cell_angle_gamma	104.726765
loop_
_atom_site_label
_atom_site_type_symbol
_atom_site_fract_x
_atom_site_fract_y
_atom_site_fract_z
Zn1	Zn	1.485818	0.939120	-1.000641
Zn2	Zn	1.483937	1.132369	-0.774395
Zn3	Zn	1.318127	0.879612	-0.753690
Zn4	Zn	1.341765	1.111464	-0.952579
O5	O	1.407412	1.015641	-0.870326
O6	O	1.615247	0.998407	-0.999408
O7	O	1.451262	1.082685	-0.593728
O8	O	1.331267	0.709599	-0.797897
O9	O	1.613865	1.140387	-0.833186
O10	O	1.454469	0.753319	-0.979331
O11	O	1.329442	0.896985	-0.578516
O12	O	1.191584	0.876715	-0.751293
O13	O	1.371554	1.104758	-1.136875
O14	O	1.208951	1.047056	-0.897417
O15	O	1.477389	0.978137	-1.172185
O16	O	1.474182	1.307502	-0.786583
O17	O	1.369729	1.292144	-0.917494
C18	C	1.166643	0.953160	-0.816894
C19	C	1.063645	0.926464	-0.794063
C20	C	1.424343	1.345961	-0.849103
C21	C	1.431674	1.487299	-0.840085
C22	C	1.427318	1.045753	-1.201953
C23	C	1.435801	1.058585	-1.343272
C24	C	0.809575	1.206452	-1.033502
C25	C	0.906347	1.231544	-1.054948
C26	C	0.945676	1.155276	-0.989729
C27	C	0.888224	1.053912	-0.903059
C28	C	0.791442	1.028825	-0.881603
C29	C	0.927543	0.977649	-0.837831
C30	C	0.870090	0.876285	-0.751161
C31	C	0.773318	0.851202	-0.729710
C32	C	0.733989	0.927470	-0.794929
C33	C	1.024325	1.002736	-0.859287
C34	C	1.006192	0.825109	-0.707388
C35	C	0.909420	0.800017	-0.685942
C36	C	1.649120	1.078367	-0.923968
C37	C	1.752122	1.105097	-0.946827
C38	C	1.390441	0.684040	-0.891665
C39	C	1.383209	0.542732	-0.900759
C40	C	1.387632	0.985568	-0.540007
C41	C	1.379310	0.972425	-0.398751
H42	H	1.071094	1.085266	-0.929855
H43	H	1.024473	1.175711	-1.007196
H44	H	1.324445	0.888838	-1.338127
H45	H	1.336109	1.482064	-0.959605
H46	H	1.478771	1.547973	-0.781226
H47	H	0.953119	1.314076	-1.125512
H48	H	0.777543	1.268545	-1.086585
H49	H	0.655190	0.907043	-0.777475
O50	O	0.711346	0.741881	-0.636229
H51	H	0.754949	0.693052	-0.594490
H52	H	0.862628	0.717487	-0.615374
O53	O	1.508463	1.169309	-1.423567
H54	H	1.496157	1.262678	-1.388210
H55	H	1.038213	0.763007	-0.654279
