data_functionalizedCrystal
_audit_creation_method	'MofGen! by Chris Wilmer'
_symmetry_space_group_name_H-M	'P1'
_symmetry_Int_Tables_number	1
_symmetry_cell_setting	triclinic
loop_
_symmetry_equiv_pos_as_xyz
  x,y,z
_cell_length_a	12.827893
_cell_length_b	12.827892
_cell_length_c	21.395355
_cell_angle_alpha	89.986671
_cell_angle_beta	89.977438
_cell_angle_gamma	90.015362
loop_
_atom_site_label
_atom_site_type_symbol
_atom_site_fract_x
_atom_site_fract_y
_atom_site_fract_z
Zn1	Zn	1.597703	-0.416155	-0.354251
Zn2	Zn	1.597588	-0.590882	-0.249483
Zn3	Zn	1.422935	-0.416155	-0.249491
Zn4	Zn	1.422930	-0.590855	-0.354227
O5	O	1.510289	-0.503511	-0.301863
O6	O	1.743924	-0.439344	-0.340360
O7	O	1.574373	-0.567715	-0.161806
O8	O	1.446169	-0.269919	-0.263401
O9	O	1.743839	-0.567715	-0.263387
O10	O	1.574571	-0.269919	-0.340368
O11	O	1.446056	-0.439344	-0.161812
O12	O	1.276698	-0.439318	-0.263378
O13	O	1.446161	-0.567669	-0.441908
O14	O	1.276695	-0.567669	-0.340327
O15	O	1.574566	-0.439318	-0.441925
O16	O	1.574368	-0.737114	-0.263364
O17	O	1.446048	-0.737094	-0.340318
C18	C	1.238779	-0.503491	-0.301851
C19	C	1.122626	-0.503508	-0.301861
C20	C	0.950771	-0.439930	-0.263862
C21	C	1.070821	-0.439912	-0.263851
C22	C	1.510224	-0.775021	-0.301851
C23	C	1.510291	-0.891175	-0.301867
C24	C	1.573800	-0.942876	-0.339987
C25	C	1.573872	-1.062926	-0.340004
C26	C	1.782859	-0.503532	-0.301875
C27	C	1.899012	-0.503541	-0.301880
C28	C	1.510376	-0.503490	-0.465286
C29	C	1.510413	-0.503481	-0.534927
C30	C	1.510383	-0.230941	-0.301888
C31	C	1.510423	-0.114788	-0.301899
C32	C	1.577270	-0.436646	-0.567651
C33	C	1.577269	-0.436601	-0.633086
C34	C	1.510421	-0.503410	-0.665796
C35	C	1.443550	-0.570250	-0.633065
C36	C	1.443546	-0.570286	-0.567630
C37	C	1.502147	-0.597504	-0.769467
C38	C	1.502158	-0.597470	-0.834900
C39	C	1.510427	-0.503300	-0.867617
C40	C	1.518707	-0.409160	-0.834893
C41	C	1.518703	-0.409196	-0.769458
C42	C	1.510417	-0.503378	-0.736748
C43	C	1.577287	-0.436410	-0.971293
C44	C	1.577278	-0.436363	-1.036729
C45	C	1.443565	-0.570022	-1.036706
C46	C	1.443568	-0.570059	-0.971271
C47	C	1.510435	-0.503255	-0.938568
C48	C	1.510263	-0.503457	-0.139075
C49	C	1.510428	-0.503172	-0.069434
H50	H	0.906207	-0.385480	-0.231324
C51	C	1.527801	-0.305564	-0.870876
N52	N	1.534652	-0.227538	-0.897982
H53	H	1.631710	-0.382170	-0.659735
H54	H	1.495423	-0.674124	-0.861538
H55	H	1.078121	-0.557974	-0.334409
H56	H	1.525442	-0.332544	-0.742817
C57	C	1.436962	-1.054732	-0.257806
N58	N	1.381630	-1.009489	-0.224597
C59	C	1.650832	-0.362915	-0.935317
N60	N	1.706224	-0.307557	-0.908222
H61	H	1.115333	-0.385455	-0.231301
C62	C	0.959211	-0.577100	-0.345842
N63	N	1.004552	-0.632508	-0.378954
C64	C	1.647188	-0.882610	-0.384060
N65	N	1.702467	-0.837220	-0.417256
C66	C	1.493070	-0.701108	-0.733484
N67	N	1.486240	-0.779140	-0.706384
C68	C	1.647330	-1.122990	-0.384095
N69	N	1.702660	-1.168232	-0.417306
C70	C	1.650812	-0.363145	-0.531681
N71	N	1.706200	-0.307779	-0.504588
C72	C	1.370012	-0.643735	-0.669046
N73	N	1.314617	-0.699083	-0.696148
C74	C	1.650829	-0.362833	-1.072725
N75	N	1.706230	-0.307450	-1.099837
H76	H	1.455967	-0.935788	-0.269247
C77	C	1.370032	-0.643513	-1.072683
N78	N	1.314644	-0.698869	-1.099784
C79	C	1.370023	-0.643589	-0.935274
N80	N	1.314622	-0.698972	-0.908161
C81	C	1.369996	-0.643815	-0.531634
N82	N	1.314599	-0.699201	-0.504520
