data_functionalizedCrystal
_audit_creation_method	'MofGen! by Chris Wilmer'
_symmetry_space_group_name_H-M	'P1'
_symmetry_Int_Tables_number	1
_symmetry_cell_setting	triclinic
loop_
_symmetry_equiv_pos_as_xyz
  x,y,z
_cell_length_a	18.101389
_cell_length_b	19.077105
_cell_length_c	19.077068
_cell_angle_alpha	90.115316
_cell_angle_beta	87.722285
_cell_angle_gamma	92.315730
loop_
_atom_site_label
_atom_site_type_symbol
_atom_site_fract_x
_atom_site_fract_y
_atom_site_fract_z
Zn1	Zn	-0.477251	-1.062984	0.323060
Zn2	Zn	-0.358165	-1.058173	0.440549
Zn3	Zn	-0.348262	-0.945478	0.318333
Zn4	Zn	-0.476806	-0.940719	0.435801
O5	O	-0.415121	-1.001839	0.379436
O6	O	-0.465784	-1.160677	0.342610
O7	O	-0.253218	-1.043201	0.424345
O8	O	-0.361415	-0.965071	0.220629
O9	O	-0.378292	-1.157142	0.428929
O10	O	-0.456182	-1.051402	0.224102
O11	O	-0.245943	-0.960405	0.334554
O12	O	-0.360983	-0.846515	0.329950
O13	O	-0.580498	-0.956960	0.420837
O14	O	-0.455424	-0.843019	0.416254
O15	O	-0.580825	-1.046788	0.338006
O16	O	-0.377861	-1.038587	0.538250
O17	O	-0.465026	-0.952294	0.534762
C18	C	-0.407081	-0.819271	0.372074
C19	C	-0.403660	-0.741167	0.368942
C20	C	-0.422487	-0.994421	0.562002
C21	C	-0.425665	-0.991312	0.640108
C22	C	-0.608284	-1.001880	0.379419
C23	C	-0.690599	-1.001897	0.379413
C24	C	-0.989686	-1.001944	0.379283
C25	C	-0.958140	-0.945246	0.431217
C26	C	-0.872538	-0.945384	0.431474
C27	C	-0.841305	-1.001920	0.379347
C28	C	-0.876470	-1.075148	0.402427
C29	C	-0.962116	-1.074830	0.402771
C30	C	-0.954271	-0.986062	0.304173
C31	C	-0.868566	-0.984397	0.304536
C32	C	-0.757447	-1.001911	0.379382
C33	C	-1.073545	-1.001957	0.379249
C34	C	-0.222709	-1.001840	0.379403
C35	C	-0.140393	-1.001966	0.379217
C36	C	-0.423193	-1.185119	0.386826
C37	C	-0.426632	-1.263222	0.389976
C38	C	-0.451151	-0.702669	0.412472
C39	C	-0.447940	-0.629283	0.409519
C40	C	-0.397233	-0.594395	0.363040
C41	C	-0.349740	-0.632899	0.319506
C42	C	-0.352956	-0.706284	0.322455
C43	C	-0.382355	-0.375111	0.349390
C44	C	-0.379141	-0.301720	0.346446
C45	C	-0.477342	-0.298109	0.436459
C46	C	-0.480550	-0.371496	0.439407
C47	C	-0.433060	-0.409993	0.395870
N48	N	-0.393948	-0.519383	0.360023
N49	N	-0.436349	-0.485004	0.398884
C50	C	-0.407743	-1.009304	0.196157
C51	C	-0.404600	-1.012485	0.118054
C52	C	-0.381818	-1.034814	0.678596
C53	C	-0.384812	-1.031895	0.751984
C54	C	-0.431651	-0.985468	0.786883
C55	C	-0.475503	-0.941964	0.748390
C56	C	-0.472512	-0.944888	0.675003
C57	C	-0.445461	-0.971905	1.006174
C58	C	-0.448447	-0.968983	1.079566
C59	C	-0.357757	-1.058915	1.083156
C60	C	-0.354767	-1.061831	1.009767
C61	C	-0.398622	-1.018330	0.971280
N62	N	-0.434711	-0.982481	0.861898
N63	N	-0.395565	-1.021321	0.896267
H64	H	-0.848590	-0.890989	0.416686
F65	F	-0.992032	-1.092882	0.474652
F66	F	-0.311089	-1.105211	1.124121
H67	H	-0.847074	-1.022917	0.263548
F68	F	-0.519184	-0.898589	0.634041
H69	H	-0.486602	-0.931186	1.107979
H70	H	-0.316627	-1.099635	0.981354
H71	H	-0.983169	-1.118346	0.366747
H72	H	-0.972791	-0.933749	0.283725
H73	H	-0.975808	-0.890681	0.416551
H74	H	-0.982425	-0.955380	0.486488
F75	F	-0.980911	-1.040085	0.253549
H76	H	-0.337854	-0.273317	0.308589
F77	F	-0.838075	-0.913975	0.281859
H78	H	-0.492439	-0.731069	0.450322
H79	H	-0.854835	-0.955627	0.487086
H80	H	-0.521839	-0.399896	0.477257
F81	F	-0.498487	-0.588313	0.455850
H82	H	-0.856405	-1.118397	0.365920
H83	H	-0.516007	-0.266757	0.471903
F84	F	-0.331960	-1.084224	0.641461
H85	H	-0.857919	-1.089260	0.456855
F86	F	-0.331813	-0.416073	0.303052
H87	H	-0.308457	-0.604488	0.281658
H88	H	-0.314287	-0.737628	0.287005
F89	F	-0.338145	-1.078198	0.792943
F90	F	-0.492136	-0.925606	0.965223
H91	H	-0.513644	-0.904166	0.776810
