data_functionalizedCrystal
_audit_creation_method	'MofGen! by Chris Wilmer'
_symmetry_space_group_name_H-M	'P1'
_symmetry_Int_Tables_number	1
_symmetry_cell_setting	triclinic
loop_
_symmetry_equiv_pos_as_xyz
  x,y,z
_cell_length_a	12.594517
_cell_length_b	12.594516
_cell_length_c	17.077396
_cell_angle_alpha	89.976506
_cell_angle_beta	90.010060
_cell_angle_gamma	89.977383
loop_
_atom_site_label
_atom_site_type_symbol
_atom_site_fract_x
_atom_site_fract_y
_atom_site_fract_z
Zn1	Zn	1.627173	0.423859	0.443672
Zn2	Zn	1.627035	0.601860	0.312418
Zn3	Zn	1.449181	0.423883	0.312442
Zn4	Zn	1.449126	0.601783	0.443663
O5	O	1.538129	0.512846	0.378049
O6	O	1.776100	0.447493	0.426255
O7	O	1.603408	0.578293	0.202574
O8	O	1.472873	0.274934	0.329864
O9	O	1.775999	0.578270	0.329823
O10	O	1.603643	0.274916	0.426278
O11	O	1.472739	0.447534	0.202592
O12	O	1.300228	0.447460	0.329855
O13	O	1.472779	0.578139	0.553511
O14	O	1.300188	0.578162	0.426262
O15	O	1.603589	0.447419	0.553518
O16	O	1.603354	0.750795	0.329814
O17	O	1.472645	0.750739	0.426239
C18	C	1.261588	0.512806	0.378060
C19	C	1.143282	0.512814	0.378084
C20	C	1.074038	0.584043	0.430419
C21	C	1.003247	0.486998	0.449723
C22	C	1.003275	0.609939	0.358763
C23	C	1.074050	0.415718	0.397426
C24	C	1.074083	0.538725	0.306432
C25	C	1.003324	0.441613	0.325709
C26	C	1.538008	0.789387	0.378040
C27	C	1.538053	0.907693	0.378062
C28	C	1.466941	0.976954	0.430471
C29	C	1.440996	1.047812	0.358846
C30	C	1.564055	1.047633	0.449698
C31	C	1.512058	0.976993	0.306399
C32	C	1.635161	0.976808	0.397300
C33	C	1.609254	1.047634	0.325626
C34	C	1.815750	0.512887	0.378037
C35	C	1.934055	0.512905	0.378032
C36	C	1.538193	0.512768	0.582793
C37	C	1.538221	0.512734	0.670043
C38	C	1.538233	1.235225	0.378074
C39	C	1.538157	1.116920	0.378081
C40	C	1.538126	0.512848	0.174101
C41	C	1.538305	0.512581	0.086851
C42	C	1.606336	0.444663	0.711038
C43	C	1.606349	0.444627	0.793018
C44	C	1.538251	0.512670	0.834002
C45	C	1.470128	0.580744	0.793002
C46	C	1.470111	0.580774	0.711023
C47	C	1.470171	0.580680	0.963872
C48	C	1.470189	0.580653	1.045856
C49	C	1.606409	0.444534	1.045867
C50	C	1.606392	0.444563	0.963888
C51	C	1.538270	0.512640	0.922893
H52	H	1.105008	0.333595	0.413815
Cl53	Cl	1.384529	0.666262	0.912336
Cl54	Cl	1.384514	0.666280	0.844524
Cl55	Cl	1.478022	0.929290	0.212850
Cl56	Cl	1.373958	0.929033	0.498800
H57	H	1.358924	1.079024	0.342590
H58	H	1.661793	0.389258	0.677674
H59	H	1.414736	0.636056	1.079223
H60	H	1.669436	1.078473	0.281263
H61	H	1.414633	0.636194	0.677645
H62	H	1.661818	0.389199	0.826393
H63	H	1.105090	0.644162	0.474734
H64	H	1.717216	0.945599	0.413590
H65	H	1.661849	0.389163	0.930521
Cl66	Cl	1.597945	1.095546	0.543218
Cl67	Cl	1.692049	0.358954	1.097403
Cl68	Cl	0.955682	0.348572	0.257344
Cl69	Cl	1.122124	0.572536	0.212924
Cl70	Cl	0.955206	0.453210	0.543241
Cl71	Cl	0.955274	0.736692	0.333563
