data_functionalizedCrystal
_audit_creation_method	'MofGen! by Chris Wilmer'
_symmetry_space_group_name_H-M	'P1'
_symmetry_Int_Tables_number	1
_symmetry_cell_setting	triclinic
loop_
_symmetry_equiv_pos_as_xyz
  x,y,z
_cell_length_a	18.101398
_cell_length_b	18.101397
_cell_length_c	17.077396
_cell_angle_alpha	89.967492
_cell_angle_beta	89.976860
_cell_angle_gamma	90.018196
loop_
_atom_site_label
_atom_site_type_symbol
_atom_site_fract_x
_atom_site_fract_y
_atom_site_fract_z
Zn1	Zn	1.132164	-0.294868	-0.443949
Zn2	Zn	1.632164	0.205132	0.056051
Zn3	Zn	1.132086	-0.418719	-0.312675
Zn4	Zn	1.632086	0.081281	0.187325
Zn5	Zn	1.008326	-0.294891	-0.312683
Zn6	Zn	1.508326	0.205109	0.187317
Zn7	Zn	1.008296	-0.418668	-0.443886
Zn8	Zn	1.508296	0.081332	0.056114
O9	O	1.070218	-0.356786	-0.378298
O10	O	1.570218	0.143214	0.121702
O11	O	1.235786	-0.311309	-0.426558
O12	O	1.735786	0.188691	0.073442
O13	O	1.115649	-0.402323	-0.202829
O14	O	1.615649	0.097677	0.297171
O15	O	1.024798	-0.191255	-0.330126
O16	O	1.524798	0.308745	0.169874
O17	O	1.235729	-0.402302	-0.330112
O18	O	1.735729	0.097698	0.169888
O19	O	1.115781	-0.191238	-0.426566
O20	O	1.615781	0.308762	0.073434
O21	O	1.024723	-0.311348	-0.202835
O22	O	1.524723	0.188652	0.297165
O23	O	0.904689	-0.311298	-0.330064
O24	O	1.404689	0.188702	0.169936
O25	O	1.024748	-0.402215	-0.553741
O26	O	1.524748	0.097785	-0.053741
O27	O	0.904667	-0.402236	-0.426458
O28	O	1.404667	0.097764	0.073542
O29	O	1.115752	-0.311260	-0.553787
O30	O	1.615752	0.188740	-0.053787
O31	O	1.115620	-0.522345	-0.330051
O32	O	1.615620	-0.022345	0.169949
O33	O	1.024672	-0.522307	-0.426451
O34	O	1.524672	-0.022307	0.073549
C35	C	0.877808	-0.356765	-0.378256
C36	C	1.377808	0.143235	0.121744
C37	C	0.795493	-0.356773	-0.378256
C38	C	1.295493	0.143227	0.121744
C39	C	0.644785	-0.356788	-0.378291
C40	C	1.144785	0.143212	0.121709
C41	C	0.613420	-0.299490	-0.317744
C42	C	1.113420	0.200510	0.182256
C43	C	0.527802	-0.299275	-0.317943
C44	C	1.027802	0.200725	0.182057
C45	C	0.496402	-0.356803	-0.378325
C46	C	0.996402	0.143197	0.121675
C47	C	0.527536	-0.335968	-0.461146
C48	C	1.027536	0.164032	0.038854
C49	C	0.613181	-0.335544	-0.460777
C50	C	1.113181	0.164456	0.039223
C51	C	0.613196	-0.435069	-0.356748
C52	C	1.113196	0.064931	0.143252
C53	C	0.527545	-0.434657	-0.354943
C54	C	1.027545	0.065343	0.145057
C55	C	0.412543	-0.356813	-0.378349
C56	C	0.912543	0.143187	0.121651
C57	C	0.728644	-0.356777	-0.378273
C58	C	1.228644	0.143223	0.121727
C59	C	1.070155	-0.549197	-0.378260
C60	C	1.570155	-0.049197	0.121740
C61	C	1.070195	-0.631511	-0.378270
C62	C	1.570195	-0.131511	0.121730
C63	C	1.070290	-0.930602	-0.378342
C64	C	1.570290	-0.430602	0.121658
C65	C	1.127352	-0.899269	-0.317527
C66	C	1.627352	-0.399269	0.182473
C67	C	1.127550	-0.813651	-0.317685
C68	C	1.627550	-0.313651	0.182315
C69	C	1.070243	-0.782219	-0.378306
C70	C	1.570243	-0.282219	0.121694
C71	C	1.091397	-0.813225	-0.461049
C72	C	1.591397	-0.313225	0.038951
C73	C	1.091838	-0.898870	-0.460718
C74	C	1.591838	-0.398870	0.039282
C75	C	0.991922	-0.899108	-0.357129
C76	C	1.491922	-0.399108	0.142871
C77	C	0.992309	-0.813459	-0.355282
C78	C	1.492309	-0.313459	0.144718
C79	C	1.070215	-0.698360	-0.378290
C80	C	1.570215	-0.198360	0.121710
C81	C	1.070319	-1.014461	-0.378363
C82	C	1.570319	-0.514461	0.121637
C83	C	1.263380	-0.356809	-0.378342
C84	C	1.763380	0.143191	0.121658
C85	C	1.345694	-0.356818	-0.378360
C86	C	1.845694	0.143182	0.121640
C87	C	1.070255	-0.356729	-0.583043
C88	C	1.570255	0.143271	-0.083043
C89	C	1.070271	-0.356704	-0.670292
C90	C	1.570271	0.143296	-0.170292
C91	C	1.070302	-0.163624	-0.378354
C92	C	1.570302	0.336376	0.121646
C93	C	1.070338	-0.081310	-0.378377
C94	C	1.570338	0.418690	0.121623
C95	C	1.022940	-0.309328	-0.711285
C96	C	1.522940	0.190672	-0.211285
C97	C	1.022953	-0.309311	-0.793265
C98	C	1.522953	0.190689	-0.293265
C99	C	1.070300	-0.356668	-0.834252
C100	C	1.570300	0.143332	-0.334252
C101	C	1.117632	-0.404050	-0.793254
C102	C	1.617632	0.095950	-0.293254
C103	C	1.117616	-0.404070	-0.711275
C104	C	1.617616	0.095930	-0.211275
C105	C	1.117664	-0.404003	-0.964124
C106	C	1.617664	0.095997	-0.464124
C107	C	1.117682	-0.403983	-1.046109
C108	C	1.617682	0.096017	-0.546109
C109	C	1.023001	-0.309245	-1.046115
C110	C	1.523001	0.190755	-0.546115
C111	C	1.022985	-0.309265	-0.964136
C112	C	1.522985	0.190735	-0.464136
C113	C	1.070319	-0.356646	-0.923143
C114	C	1.570319	0.143354	-0.423143
C115	C	1.070224	-0.356790	-0.174350
C116	C	1.570224	0.143210	0.325650
C117	C	1.070351	-0.356606	-0.087101
C118	C	1.570351	0.143394	0.412899
H119	H	0.506105	-0.279390	-0.479676
H120	H	1.006105	0.220610	0.020324
F121	F	1.166712	-0.924910	-0.484202
F122	F	1.666712	-0.424910	0.015798
F123	F	0.639316	-0.260765	-0.484578
F124	F	1.139316	0.239235	0.015422
F125	F	0.972597	-0.258858	-0.920516
F126	F	1.472597	0.241142	-0.420516
H127	H	0.984461	-0.270664	-1.079495
H128	H	1.484461	0.229336	-0.579495
H129	H	0.972677	-0.920770	-0.297838
H130	H	1.472677	-0.420770	0.202162
F131	F	0.499631	-0.493411	-0.408367
F132	F	0.999631	0.006589	0.091633
H133	H	1.185086	-0.920739	-0.331402
H134	H	1.685086	-0.420739	0.168598
F135	F	1.168018	-0.454455	-0.836877
F136	F	1.668018	0.045545	-0.336877
F137	F	0.639725	-0.490868	-0.414372
F138	F	1.139725	0.009132	0.085628
F139	F	1.039867	-0.925960	-0.521957
F140	F	1.539867	-0.425960	-0.021957
H141	H	0.633965	-0.312341	-0.256139
H142	H	1.133965	0.187659	0.243861
H143	H	1.114278	-0.919914	-0.255991
H144	H	1.614278	-0.419914	0.244009
F145	F	0.936350	-0.925594	-0.415021
F146	F	1.436350	-0.425594	0.084979
H147	H	0.984408	-0.270735	-0.826638
H148	H	1.484408	0.229265	-0.326638
F149	F	0.641382	-0.459936	-0.279125
F150	F	1.141382	0.040064	0.220875
F151	F	1.168078	-0.454381	-1.089728
F152	F	1.668078	0.045619	-0.589728
H153	H	0.976358	-0.793202	-0.294389
H154	H	1.476358	-0.293202	0.205611
H155	H	0.506749	-0.312274	-0.256542
H156	H	1.006749	0.187726	0.243458
F157	F	0.641568	-0.224101	-0.336198
F158	F	1.141568	0.275899	0.163802
H159	H	1.148039	-0.791719	-0.479321
H160	H	1.648039	-0.291719	0.020679
F161	F	0.933746	-0.785504	-0.408936
F162	F	1.433746	-0.285504	0.091064
F163	F	1.038730	-0.786618	-0.521869
F164	F	1.538730	-0.286618	-0.021869
F165	F	0.500943	-0.455202	-0.275273
F166	F	1.000943	0.044798	0.224727
F167	F	1.203426	-0.786798	-0.336035
F168	F	1.703426	-0.286798	0.163965
F169	F	1.110213	-0.786252	-0.237502
F170	F	1.610213	-0.286252	0.262498
H171	H	0.507329	-0.241273	-0.332246
H172	H	1.007329	0.258727	0.167754
H173	H	1.156215	-0.442580	-0.930750
H174	H	1.656215	0.057420	-0.430750
H175	H	0.633933	-0.375480	-0.507451
H176	H	1.133933	0.124520	-0.007451
F177	F	0.972550	-0.258919	-0.667671
F178	F	1.472550	0.241081	-0.167671
F179	F	0.500960	-0.388854	-0.521747
F180	F	1.000960	0.111146	-0.021747
F181	F	1.167989	-0.454497	-0.667648
F182	F	1.667989	0.045503	-0.167648
