data_functionalizedCrystal
_audit_creation_method	'MofGen! by Chris Wilmer'
_symmetry_space_group_name_H-M	'P1'
_symmetry_Int_Tables_number	1
_symmetry_cell_setting	triclinic
loop_
_symmetry_equiv_pos_as_xyz
  x,y,z
_cell_length_a	10.540535
_cell_length_b	10.540539
_cell_length_c	14.586319
_cell_angle_alpha	89.998343
_cell_angle_beta	89.998875
_cell_angle_gamma	84.524567
loop_
_atom_site_label
_atom_site_type_symbol
_atom_site_fract_x
_atom_site_fract_y
_atom_site_fract_z
O1	O	1.685889	0.178872	-0.076185
O2	O	1.316475	0.195733	-0.076198
O3	O	1.509610	0.002596	-0.076190
O4	O	1.492754	0.372009	-0.076193
O5	O	1.509596	0.002593	0.076291
O6	O	1.316462	0.195730	0.076283
O7	O	1.685875	0.178869	0.076295
Cu8	Cu	1.501167	0.187299	0.090212
Cu9	Cu	1.501183	0.187303	-0.090114
O10	O	1.492741	0.372006	0.076288
C11	C	1.269165	0.194469	0.000041
C12	C	1.128217	0.190689	0.000036
C13	C	1.091546	0.049675	0.000041
C14	C	0.944946	0.045698	0.000396
C15	C	0.918873	0.255058	0.086951
C16	C	1.065639	0.258058	0.087015
C17	C	1.065538	0.260113	-0.086390
C18	C	0.919192	0.253592	-0.087523
C19	C	1.508339	-0.044709	0.000048
C20	C	1.504557	-0.185657	0.000043
C21	C	1.359640	-0.369081	-0.000304
C22	C	1.363474	-0.222463	0.000040
C23	C	1.572445	-0.247317	0.087120
C24	C	1.567630	-0.393862	0.087193
C25	C	1.570515	-0.394376	-0.086206
C26	C	1.571815	-0.247395	-0.087357
C27	C	1.733185	0.180133	0.000055
C28	C	1.874134	0.183913	0.000053
C29	C	1.494011	0.419311	0.000047
C30	C	1.497793	0.560259	0.000046
N31	N	1.501165	0.187296	0.217044
N32	N	1.501195	0.187296	-0.216946
C33	C	1.586714	0.101804	0.452053
C34	C	1.586718	0.101801	0.548035
C35	C	1.415637	0.272792	0.548037
C36	C	1.415628	0.272788	0.452058
C37	C	1.501174	0.187295	0.404068
C38	C	1.501186	0.187297	0.596029
C39	C	1.501190	0.187294	0.700096
C40	C	1.501170	0.187296	0.299995
H41	H	0.916488	-0.009672	0.063057
H42	H	1.524859	-0.425927	-0.152204
H43	H	1.522142	-0.206534	-0.151774
H44	H	1.303914	-0.397679	-0.062748
H45	H	0.871517	0.356823	0.089937
H46	H	1.656369	0.032189	0.412983
H47	H	1.345990	0.342400	0.587120
H48	H	0.887965	0.206244	0.151870
H49	H	0.870144	0.354465	-0.093042
H50	H	1.656371	0.032184	0.587101
H51	H	1.108003	0.216112	-0.152279
H52	H	1.105804	0.210009	0.152222
H53	H	0.915614	-0.009942	-0.061883
H54	H	1.345965	0.342406	0.412986
H55	H	1.674676	-0.223175	-0.092612
H56	H	1.088669	0.361432	0.090727
H57	H	1.672419	-0.441604	-0.086788
H58	H	1.133521	-0.004474	-0.062266
H59	H	0.890595	0.201817	-0.151812
H60	H	1.134999	-0.003570	0.062266
H61	H	1.310055	-0.179858	-0.062380
H62	H	1.304130	-0.399289	0.061787
H63	H	1.087723	0.363865	-0.087232
H64	H	1.309670	-0.180707	0.062560
H65	H	1.517446	-0.422062	0.152281
H66	H	1.669095	-0.441832	0.091147
H67	H	1.525275	-0.204718	0.151916
H68	H	1.676053	-0.224965	0.090361
