data_functionalizedCrystal
_audit_creation_method	'MofGen! by Chris Wilmer'
_symmetry_space_group_name_H-M	'P1'
_symmetry_Int_Tables_number	1
_symmetry_cell_setting	triclinic
loop_
_symmetry_equiv_pos_as_xyz
  x,y,z
_cell_length_a	27.732048
_cell_length_b	17.699083
_cell_length_c	16.176319
_cell_angle_alpha	89.996995
_cell_angle_beta	89.999528
_cell_angle_gamma	97.037166
loop_
_atom_site_label
_atom_site_type_symbol
_atom_site_fract_x
_atom_site_fract_y
_atom_site_fract_z
O1	O	-0.641252	0.090056	0.068629
O2	O	-0.500508	0.103749	0.068652
O3	O	-0.574856	-0.013322	0.068648
O4	O	-0.566904	0.207127	0.068633
O5	O	-0.574848	-0.013322	-0.068845
O6	O	-0.500499	0.103749	-0.068841
O7	O	-0.641243	0.090056	-0.068864
Cu8	Cu	-0.570871	0.096902	-0.081407
Cu9	Cu	-0.570881	0.096903	0.081195
O10	O	-0.566895	0.207127	-0.068860
C11	C	-0.482496	0.103462	-0.000091
C12	C	-0.428838	0.102596	-0.000081
C13	C	-0.574567	-0.041516	-0.000094
C14	C	-0.573712	-0.125527	-0.000083
C15	C	-0.659256	0.090343	-0.000119
C16	C	-0.712914	0.091209	-0.000123
C17	C	-0.090252	0.166329	-0.000122
C18	C	0.111419	0.163117	-0.000129
O19	O	0.142466	0.221396	-0.000168
N20	N	0.130793	0.093699	-0.000123
C21	C	0.099745	0.025079	-0.000120
O22	O	0.120851	-0.034039	-0.000123
C23	C	-0.101925	0.028291	-0.000119
C24	C	-0.121296	0.097714	-0.000117
C25	C	-0.109623	0.235746	-0.000120
C26	C	-0.160037	0.236548	-0.000114
C27	C	-0.191081	0.167933	-0.000109
C28	C	-0.171710	0.098516	-0.000110
C29	C	-0.132972	-0.040329	-0.000122
C30	C	-0.183392	-0.039519	-0.000124
C31	C	-0.202763	0.029903	-0.000122
C32	C	-0.253169	0.030703	-0.000099
N33	N	-0.272543	0.100121	-0.000105
C34	C	-0.241499	0.168736	-0.000110
C35	C	0.205625	0.023397	-0.000119
C36	C	0.256042	0.022594	-0.000118
C37	C	0.267713	0.160633	-0.000128
C38	C	0.217295	0.161435	-0.000123
C39	C	0.186252	0.092815	-0.000125
C40	C	-0.347374	0.170415	-0.000096
C41	C	-0.397794	0.171211	-0.000086
C42	C	-0.409460	0.033173	-0.000081
C43	C	-0.359045	0.032376	-0.000086
C44	C	-0.328002	0.101004	-0.000096
O45	O	-0.284244	-0.027545	-0.000068
O46	O	-0.262614	0.227845	-0.000125
C47	C	-0.039837	0.165526	-0.000128
C48	C	-0.020466	0.096109	-0.000129
C49	C	-0.051510	0.027494	-0.000124
C50	C	0.029951	0.095306	-0.000128
C51	C	0.060995	0.163921	-0.000133
C52	C	0.041622	0.233339	-0.000139
C53	C	-0.008793	0.234141	-0.000133
C54	C	-0.032137	-0.041924	-0.000118
C55	C	0.018279	-0.042720	-0.000123
C56	C	0.049323	0.025895	-0.000128
C57	C	-0.567184	0.235321	-0.000115
C58	C	-0.568039	0.319332	-0.000121
N59	N	-0.570867	0.096902	-0.195772
C60	C	-0.524398	0.368338	-0.000114
C61	C	-0.525204	0.447274	-0.000105
C62	C	-0.569652	0.477203	-0.000108
C63	C	-0.613296	0.428191	-0.000113
C64	C	-0.612490	0.349256	-0.000117
C65	C	-0.616550	0.746525	-0.000097
C66	C	-0.617354	0.825466	-0.000096
C67	C	-0.529265	0.844543	-0.000085
C68	C	-0.528458	0.765608	-0.000089
C69	C	-0.572102	0.716603	-0.000089
C70	C	-0.571228	0.631012	-0.000098
C71	C	-0.570527	0.562793	-0.000105
C72	C	-0.600126	0.142492	-0.239041
C73	C	-0.600132	0.142490	-0.325588
C74	C	-0.570874	0.096899	-0.368864
C75	C	-0.541614	0.051304	-0.325589
C76	C	-0.541611	0.051303	-0.239044
C77	C	-0.541622	0.051304	-0.674618
C78	C	-0.541626	0.051310	-0.761169
C79	C	-0.600143	0.142491	-0.761162
C80	C	-0.600140	0.142490	-0.674616
C81	C	-0.570882	0.096892	-0.631349
C82	C	-0.570877	0.096894	-0.537504
C83	C	-0.570876	0.096900	-0.462707
N84	N	-0.570888	0.096897	0.195560
H85	H	-0.413562	0.227746	-0.000084
H86	H	-0.492265	0.741245	-0.000090
C87	C	-0.313652	0.244901	-0.000271
C88	C	-0.284375	0.248497	-0.071019
C89	C	-0.253310	0.317105	-0.071207
H90	H	-0.293696	0.247532	0.047620
H91	H	-0.332399	0.286375	-0.000312
H92	H	-0.265630	0.207035	-0.070971
H93	H	-0.304318	0.245879	-0.118921
H94	H	-0.272057	0.358579	-0.071248
H95	H	-0.233357	0.319730	-0.023313
H96	H	-0.233445	0.319558	-0.119212
H97	H	-0.489667	0.487172	-0.000096
H98	H	-0.517785	0.014178	-0.203815
H99	H	-0.117210	-0.096860	-0.000125
C100	C	-0.481841	0.897662	0.000056
C101	C	-0.455070	0.884192	0.070783
C102	C	-0.411380	0.933101	0.070933
H103	H	-0.488616	0.948986	0.000103
H104	H	-0.463583	0.888641	-0.047866
H105	H	-0.473324	0.893219	0.118692
H106	H	-0.448282	0.832877	0.070750
H107	H	-0.393122	0.924080	0.023011
H108	H	-0.418160	0.984422	0.070978
H109	H	-0.393208	0.923963	0.118916
C110	C	-0.509862	0.001885	-0.372719
C111	C	-0.516088	0.011696	-0.457774
C112	C	-0.486840	-0.033808	-0.501212
H113	H	-0.518891	-0.050030	-0.358662
H114	H	-0.476766	0.016290	-0.358554
H115	H	-0.549178	-0.002713	-0.471934
H116	H	-0.507056	0.063601	-0.471856
H117	H	-0.453743	-0.019403	-0.487047
H118	H	-0.495871	-0.085720	-0.487149
H119	H	-0.491057	-0.027152	-0.558927
H120	H	-0.648027	0.309356	-0.000119
H121	H	-0.175804	0.293079	-0.000112
H122	H	-0.652088	0.706634	-0.000103
C123	C	-0.665628	0.857919	0.000079
C124	C	-0.692000	0.832977	0.070829
C125	C	-0.736467	0.862867	0.071023
H126	H	-0.683654	0.841088	-0.047810
H127	H	-0.659876	0.911951	0.000124
H128	H	-0.697753	0.778957	0.070777
H129	H	-0.673989	0.849807	0.118730
H130	H	-0.730715	0.916899	0.071068
H131	H	-0.754488	0.846033	0.023131
H132	H	-0.754363	0.845954	0.119029
H133	H	-0.649486	0.452565	-0.000117
C134	C	-0.029726	0.309594	-0.000179
C135	C	0.008260	0.369504	-0.000207
C136	C	-0.011000	0.439026	-0.000262
H137	H	-0.049142	0.312892	0.047755
H138	H	-0.049136	0.312822	-0.048145
H139	H	0.027663	0.366278	0.047755
H140	H	0.027680	0.366231	-0.048137
H141	H	-0.030411	0.442253	-0.048228
H142	H	-0.030417	0.442316	0.047673
H143	H	0.014770	0.479683	-0.000289
C144	C	-0.631944	0.192016	-0.192208
C145	C	-0.657579	0.231926	-0.248630
C146	C	-0.686901	0.277546	-0.205521
H147	H	-0.612146	0.227126	-0.158447
H148	H	-0.654251	0.160774	-0.158461
H149	H	-0.635275	0.263165	-0.282363
H150	H	-0.677386	0.196835	-0.282393
H151	H	-0.709208	0.246304	-0.171774
H152	H	-0.667099	0.312651	-0.171762
H153	H	-0.704301	0.304624	-0.243797
C154	C	0.075413	0.307756	-0.000187
C155	C	0.123710	0.292184	-0.000212
C156	C	0.154854	0.360713	-0.000272
H157	H	0.069617	0.336306	0.047744
H158	H	0.069579	0.336252	-0.048156
H159	H	0.129543	0.263700	0.047751
H160	H	0.129522	0.263645	-0.048140
H161	H	0.149020	0.389208	-0.048241
H162	H	0.149054	0.389257	0.047660
H163	H	0.187627	0.350156	-0.000297
C164	C	0.039212	-0.118178	-0.000167
C165	C	0.001228	-0.178091	-0.000185
C166	C	0.020491	-0.247610	-0.000245
H167	H	0.058632	-0.121478	0.047762
H168	H	0.058619	-0.121400	-0.048138
H169	H	-0.018171	-0.174870	0.047781
H170	H	-0.018196	-0.174816	-0.048111
H171	H	0.039898	-0.250832	-0.048216
H172	H	0.039911	-0.250902	0.047685
H173	H	-0.005278	-0.288269	-0.000265
H174	H	-0.623963	0.179617	-0.639385
H175	H	-0.623959	0.179613	-0.360814
H176	H	-0.623968	0.179618	-0.796400
C177	C	-0.065893	-0.116369	0.000024
C178	C	-0.095183	-0.119934	0.070757
C179	C	-0.126287	-0.188502	0.070916
H180	H	-0.047190	-0.157884	0.000070
H181	H	-0.085836	-0.118942	-0.047894
H182	H	-0.075242	-0.117368	0.118662
H183	H	-0.113896	-0.078435	0.070726
H184	H	-0.146230	-0.191075	0.022999
H185	H	-0.107580	-0.230011	0.070960
H186	H	-0.146167	-0.190926	0.118904
C187	C	-0.509801	0.001781	-0.627798
C188	C	-0.484169	-0.038124	-0.684225
C189	C	-0.454844	-0.083746	-0.641122
H190	H	-0.529596	-0.033331	-0.594031
H191	H	-0.487492	0.033022	-0.594057
H192	H	-0.506475	-0.069363	-0.717952
H193	H	-0.464365	-0.003031	-0.717993
H194	H	-0.432535	-0.052505	-0.607381
H195	H	-0.474643	-0.118854	-0.607356
H196	H	-0.437446	-0.110822	-0.679400
H197	H	-0.517800	0.014183	-0.796402
H198	H	-0.084351	0.291623	-0.000127
C199	C	-0.217073	-0.114047	0.000050
C200	C	-0.208335	-0.155873	0.070798
C201	C	-0.239356	-0.224525	0.070995
H202	H	-0.211238	-0.142627	-0.047841
H203	H	-0.249883	-0.103663	0.000098
H204	H	-0.175533	-0.166259	0.070742
H205	H	-0.214173	-0.127316	0.118700
H206	H	-0.272165	-0.214141	0.071043
H207	H	-0.233518	-0.253098	0.023101
H208	H	-0.233434	-0.252909	0.119000
H209	H	0.201528	0.217965	-0.000126
H210	H	0.271809	-0.033937	-0.000107
C211	C	0.301400	0.235155	0.000031
C212	C	0.292672	0.276993	0.070771
C213	C	0.323701	0.345637	0.070945
H214	H	0.295566	0.263731	-0.047865
H215	H	0.334207	0.224760	0.000076
H216	H	0.259873	0.287389	0.070719
H217	H	0.298510	0.248440	0.118679
H218	H	0.356508	0.335243	0.070989
H219	H	0.317864	0.374206	0.023045
H220	H	0.317786	0.374030	0.118944
H221	H	0.180353	-0.032485	-0.000121
H222	H	-0.434745	-0.022692	-0.000073
H223	H	-0.343273	-0.024153	-0.000076
C224	C	-0.476090	0.335995	-0.000066
C225	C	-0.438044	0.395811	-0.000034
C226	C	-0.393535	0.366048	0.000025
H227	H	-0.473870	0.305615	-0.048001
H228	H	-0.473922	0.305617	0.047899
H229	H	-0.440211	0.426176	-0.047995
H230	H	-0.440248	0.426195	0.047897
H231	H	-0.391367	0.335671	0.047991
H232	H	-0.391320	0.335669	-0.047910
H233	H	-0.367715	0.406629	0.000055
