data_functionalizedCrystal
_audit_creation_method	'MofGen! by Chris Wilmer'
_symmetry_space_group_name_H-M	'P1'
_symmetry_Int_Tables_number	1
_symmetry_cell_setting	triclinic
loop_
_symmetry_equiv_pos_as_xyz
  x,y,z
_cell_length_a	16.120530
_cell_length_b	18.101395
_cell_length_c	16.120297
_cell_angle_alpha	87.127310
_cell_angle_beta	89.871860
_cell_angle_gamma	87.126665
loop_
_atom_site_label
_atom_site_type_symbol
_atom_site_fract_x
_atom_site_fract_y
_atom_site_fract_z
Zn1	Zn	1.247384	-0.375190	0.534565
Zn2	Zn	1.580718	-0.041857	0.867899
Zn3	Zn	1.914051	0.291477	1.201232
Zn4	Zn	1.254317	-0.493082	0.395508
Zn5	Zn	1.587651	-0.159749	0.728841
Zn6	Zn	1.920984	0.173584	1.062175
Zn7	Zn	1.115376	-0.362676	0.388483
Zn8	Zn	1.448710	-0.029343	0.721817
Zn9	Zn	1.782043	0.303991	1.055150
Zn10	Zn	1.108274	-0.492400	0.527477
Zn11	Zn	1.441607	-0.159067	0.860810
Zn12	Zn	1.774941	0.174266	1.194144
O13	O	1.181338	-0.430837	0.461508
O14	O	1.514671	-0.097504	0.794842
O15	O	1.848005	0.235830	1.128175
O16	O	1.364669	-0.396351	0.522025
O17	O	1.698003	-0.063018	0.855359
O18	O	2.031336	0.270315	1.188692
O19	O	1.241761	-0.470832	0.278211
O20	O	1.575094	-0.137499	0.611544
O21	O	1.908427	0.195835	0.944877
O22	O	1.132958	-0.260707	0.407888
O23	O	1.466292	0.072626	0.741221
O24	O	1.799625	0.405959	1.074555
O25	O	1.369763	-0.482966	0.419860
O26	O	1.703096	-0.149633	0.753194
O27	O	2.036430	0.183700	1.086527
O28	O	1.229944	-0.269901	0.515214
O29	O	1.563277	0.063432	0.848547
O30	O	1.896611	0.396765	1.181880
O31	O	1.139681	-0.375023	0.273050
O32	O	1.473015	-0.041689	0.606383
O33	O	1.806348	0.291644	0.939716
O34	O	0.998069	-0.374361	0.401015
O35	O	1.331402	-0.041028	0.734348
O36	O	1.664735	0.292305	1.067682
O37	O	1.120853	-0.481804	0.644783
O38	O	1.454186	-0.148471	0.978116
O39	O	1.787520	0.184863	1.311450
O40	O	0.992851	-0.469669	0.503133
O41	O	1.326184	-0.136336	0.836466
O42	O	1.659517	0.196997	1.169800
O43	O	1.223057	-0.395690	0.649990
O44	O	1.556390	-0.062357	0.983324
O45	O	1.889724	0.270977	1.316657
O46	O	1.234873	-0.596620	0.412987
O47	O	1.568207	-0.263287	0.746321
O48	O	1.901540	0.070046	1.079654
O49	O	1.127576	-0.596119	0.509945
O50	O	1.460909	-0.262786	0.843278
O51	O	1.794243	0.070547	1.176611
C52	C	0.965287	-0.420584	0.450543
C53	C	1.298621	-0.087251	0.783876
C54	C	1.631954	0.246083	1.117210
C55	C	0.872859	-0.416216	0.445872
C56	C	1.206192	-0.082883	0.779205
C57	C	1.539526	0.250450	1.112538
C58	C	0.703631	-0.408225	0.437350
C59	C	1.036964	-0.074892	0.770684
C60	C	1.370297	0.258441	1.104017
C61	C	0.659883	-0.453506	0.485727
C62	C	0.993216	-0.120173	0.819060
C63	C	1.326549	0.213161	1.152394
C64	C	0.565718	-0.449060	0.480986
C65	C	0.899052	-0.115727	0.814319
C66	C	1.232385	0.217607	1.147652
C67	C	0.797804	-0.412671	0.442091
C68	C	1.131137	-0.079337	0.775424
C69	C	1.464470	0.253996	1.108757
C70	C	1.181228	-0.623241	0.461478
C71	C	1.514561	-0.289908	0.794812
C72	C	1.847895	0.043425	1.128145
C73	C	1.181256	-0.705558	0.461497
C74	C	1.514589	-0.372224	0.794830
C75	C	1.847922	-0.038891	1.128164
C76	C	1.181436	-1.004659	0.461551
C77	C	1.514769	-0.671326	0.794884
C78	C	1.848102	-0.337992	1.128218
C79	C	1.114068	-0.973063	0.522721
C80	C	1.447401	-0.639730	0.856054
C81	C	1.780735	-0.306397	1.189388
C82	C	1.113774	-0.887422	0.522504
C83	C	1.447107	-0.554089	0.855837
C84	C	1.780440	-0.220756	1.189171
C85	C	1.181346	-0.856271	0.461525
C86	C	1.514680	-0.522938	0.794858
C87	C	1.848013	-0.189605	1.128192
C88	C	1.162064	-0.882548	0.372686
C89	C	1.495398	-0.549215	0.706019
C90	C	1.828731	-0.215881	1.039352
C91	C	1.161632	-0.968190	0.373050
C92	C	1.494965	-0.634857	0.706384
C93	C	1.828298	-0.301524	1.039717
C94	C	1.268265	-0.978132	0.488456
C95	C	1.601598	-0.644799	0.821790
C96	C	1.934932	-0.311465	1.155123
C97	C	1.267650	-0.892539	0.490352
C98	C	1.600984	-0.559205	0.823685
C99	C	1.934317	-0.225872	1.157019
C100	C	1.181297	-0.772409	0.461505
C101	C	1.514631	-0.439075	0.794838
C102	C	1.847964	-0.105742	1.128172
C103	C	1.181483	-1.088521	0.461565
C104	C	1.514816	-0.755188	0.794899
C105	C	1.848150	-0.421855	1.128232
C106	C	1.398232	-0.441131	0.472517
C107	C	1.731565	-0.107797	0.805850
C108	C	2.064899	0.225536	1.139184
C109	C	1.490660	-0.445517	0.477208
C110	C	1.823993	-0.112184	0.810542
C111	C	2.157326	0.221149	1.143875
C112	C	1.170389	-0.440067	0.678403
C113	C	1.503723	-0.106733	1.011736
C114	C	1.837056	0.226600	1.345069
C115	C	1.165724	-0.444000	0.770830
C116	C	1.499057	-0.110667	1.104163
C117	C	1.832390	0.222667	1.437497
C118	C	1.181470	-0.237683	0.461558
C119	C	1.514803	0.095650	0.794891
C120	C	1.848137	0.428983	1.128225
C121	C	1.181526	-0.155373	0.461579
C122	C	1.514860	0.177961	0.794912
C123	C	1.848193	0.511294	1.128246
C124	C	1.192292	-0.421592	0.245460
C125	C	1.525625	-0.088259	0.578794
C126	C	1.858958	0.245074	0.912127
C127	C	1.197119	-0.417458	0.153042
C128	C	1.530452	-0.084125	0.486375
C129	C	1.863785	0.249209	0.819708
C130	C	1.157175	-0.451163	0.940055
C131	C	1.490508	-0.117830	1.273388
C132	C	1.823842	0.215504	1.606721
C133	C	1.205665	-0.410297	0.983822
C134	C	1.538998	-0.076964	1.317156
C135	C	1.872331	0.256369	1.650489
C136	C	1.200908	-0.414283	1.077985
C137	C	1.534242	-0.080949	1.411318
C138	C	1.867575	0.252384	1.744651
C139	C	1.161931	-0.447178	0.845884
C140	C	1.495264	-0.113845	1.179217
C141	C	1.828597	0.219488	1.512550
H142	H	1.125459	-0.997097	0.588658
H143	H	1.458792	-0.663764	0.921992
H144	H	1.792126	-0.330431	1.255325
H145	H	1.318402	-0.998637	0.443958
H146	H	1.651735	-0.665304	0.777291
H147	H	1.985068	-0.331970	1.110625
H148	H	1.250750	-0.372317	0.950575
H149	H	1.584083	-0.038984	1.283908
H150	H	1.917416	0.294350	1.617241
N151	N	1.097454	-0.501459	0.984098
N152	N	1.430787	-0.168125	1.317432
N153	N	1.764120	0.165208	1.650765
H154	H	1.129440	-0.538871	1.021857
H155	H	1.462774	-0.205538	1.355191
H156	H	1.796107	0.127795	1.688524
H157	H	1.065759	-0.528131	0.941728
H158	H	1.399092	-0.194798	1.275061
H159	H	1.732426	0.138536	1.608395
N160	N	1.028409	-0.855424	0.498420
N161	N	1.361743	-0.522091	0.831753
N162	N	1.695076	-0.188758	1.165087
H163	H	1.004732	-0.825458	0.544902
H164	H	1.338066	-0.492124	0.878236
H165	H	1.671399	-0.158791	1.211569
H166	H	0.990888	-0.897002	0.487887
H167	H	1.324222	-0.563669	0.821221
H168	H	1.657555	-0.230335	1.154554
N169	N	1.224096	-0.995625	0.310279
N170	N	1.557429	-0.662292	0.643612
N171	N	1.890763	-0.328959	0.976945
H172	H	1.224296	-1.051418	0.310020
H173	H	1.557629	-0.718085	0.643353
H174	H	1.890962	-0.384752	0.976686
H175	H	1.281185	-0.980130	0.325545
H176	H	1.614519	-0.646797	0.658878
H177	H	1.947852	-0.313463	0.992211
H178	H	1.209784	-0.862211	0.325672
H179	H	1.543117	-0.528877	0.659005
H180	H	1.876451	-0.195544	0.992339
H181	H	1.282271	-0.875783	0.555755
H182	H	1.615605	-0.542450	0.889088
H183	H	1.948938	-0.209117	1.222421
N184	N	0.703938	-0.509282	0.545307
N185	N	1.037272	-0.175949	0.878640
N186	N	1.370605	0.157385	1.211973
H187	H	0.765937	-0.504594	0.540291
H188	H	1.099270	-0.171261	0.873624
H189	H	1.432603	0.162073	1.206957
H190	H	0.689434	-0.560896	0.531507
H191	H	1.022767	-0.227563	0.864840
H192	H	1.356100	0.105771	1.198173
H193	H	0.670367	-0.366124	0.392376
H194	H	1.003700	-0.032790	0.725709
H195	H	1.337033	0.300543	1.059043
N196	N	1.129065	-0.864128	0.609574
N197	N	1.462398	-0.530794	0.942908
N198	N	1.795731	-0.197461	1.276241
H199	H	1.136058	-0.909528	0.648443
H200	H	1.469391	-0.576195	0.981777
H201	H	1.802724	-0.242861	1.315110
H202	H	1.080241	-0.831878	0.628123
H203	H	1.413575	-0.498545	0.961456
H204	H	1.746908	-0.165212	1.294789
N205	N	1.029204	-0.996747	0.498930
N206	N	1.362538	-0.663413	0.832264
N207	N	1.695871	-0.330080	1.165597
H208	H	1.028935	-1.052600	0.501828
H209	H	1.362268	-0.719267	0.835162
H210	H	1.695601	-0.385934	1.168495
H211	H	1.015575	-0.977242	0.440497
H212	H	1.348909	-0.643909	0.773831
H213	H	1.682242	-0.310576	1.107164
H214	H	1.099423	-0.857320	0.350105
H215	H	1.432756	-0.523987	0.683439
H216	H	1.766090	-0.190653	1.016772
N217	N	1.077736	-0.989633	0.343544
N218	N	1.411069	-0.656300	0.676877
N219	N	1.744402	-0.322966	1.010210
H220	H	1.041381	-0.943473	0.330424
H221	H	1.374715	-0.610140	0.663757
H222	H	1.708048	-0.276807	0.997091
H223	H	1.050819	-1.021074	0.388528
H224	H	1.384152	-0.687740	0.721861
H225	H	1.717486	-0.354407	1.055194
N226	N	1.292706	-1.011590	0.573113
N227	N	1.626039	-0.678257	0.906446
N228	N	1.959372	-0.344924	1.239780
H229	H	1.247735	-1.044288	0.594882
H230	H	1.581068	-0.710955	0.928216
H231	H	1.914401	-0.377621	1.261549
H232	H	1.300206	-0.970713	0.612424
H233	H	1.633539	-0.637380	0.945757
H234	H	1.966873	-0.304047	1.279091
H235	H	1.320141	-0.871648	0.449401
H236	H	1.653475	-0.538314	0.782734
H237	H	1.986808	-0.204981	1.116068
