data_functionalizedCrystal
_audit_creation_method	'MofGen! by Chris Wilmer'
_symmetry_space_group_name_H-M	'P1'
_symmetry_Int_Tables_number	1
_symmetry_cell_setting	triclinic
loop_
_symmetry_equiv_pos_as_xyz
  x,y,z
_cell_length_a	13.897449
_cell_length_b	13.897448
_cell_length_c	13.897441
_cell_angle_alpha	89.969401
_cell_angle_beta	89.973931
_cell_angle_gamma	90.017620
loop_
_atom_site_label
_atom_site_type_symbol
_atom_site_fract_x
_atom_site_fract_y
_atom_site_fract_z
Zn1	Zn	-1.474703	0.383986	0.545519
Zn2	Zn	-0.974703	0.883986	1.045519
Zn3	Zn	-1.474597	0.545308	0.384220
Zn4	Zn	-0.974597	1.045308	0.884220
Zn5	Zn	-1.313392	0.384028	0.384222
Zn6	Zn	-0.813392	0.884028	0.884222
Zn7	Zn	-1.313374	0.545240	0.545457
Zn8	Zn	-0.813374	1.045240	1.045457
O9	O	-1.394016	0.464641	0.464854
O10	O	-0.894016	0.964641	0.964854
O11	O	-1.609670	0.405396	0.524147
O12	O	-1.109670	0.905396	1.024147
O13	O	-1.453176	0.523959	0.249238
O14	O	-0.953176	1.023959	0.749238
O15	O	-1.334842	0.249041	0.405645
O16	O	-0.834842	0.749041	0.905645
O17	O	-1.609592	0.523918	0.405641
O18	O	-1.109592	1.023918	0.905641
O19	O	-1.453356	0.249010	0.524149
O20	O	-0.953356	0.749010	1.024149
O21	O	-1.334739	0.405468	0.249240
O22	O	-0.834739	0.905468	0.749240
O23	O	-1.178408	0.405403	0.405585
O24	O	-0.678408	0.905403	0.905585
O25	O	-1.334811	0.523804	0.680447
O26	O	-0.834811	1.023804	1.180447
O27	O	-1.178394	0.523845	0.524045
O28	O	-0.678394	1.023845	1.024045
O29	O	-1.453339	0.405331	0.680492
O30	O	-0.953339	0.905331	1.180492
O31	O	-1.453158	0.680280	0.405582
O32	O	-0.953158	1.180280	0.905582
O33	O	-1.334708	0.680231	0.524043
O34	O	-0.834708	1.180231	1.024043
C35	C	-1.143402	0.464622	0.464809
C36	C	-0.643402	0.964622	0.964809
C37	C	-1.036188	0.464637	0.464813
C38	C	-0.536188	0.964637	0.964813
C39	C	-0.949118	0.464639	0.464825
C40	C	-0.449118	0.964639	0.964825
C41	C	-0.839886	0.464644	0.464849
C42	C	-0.339886	0.964644	0.964849
C43	C	-1.393946	0.715255	0.464827
C44	C	-0.893946	1.215255	0.964827
C45	C	-1.394004	0.822469	0.464847
C46	C	-0.894004	1.322469	0.964847
C47	C	-1.394085	0.464555	0.716448
C48	C	-0.894085	0.964555	1.216448
C49	C	-1.394114	0.464519	0.823662
C50	C	-0.894114	0.964519	1.323662
C51	C	-0.645609	0.464656	0.464889
C52	C	-0.145609	0.964656	0.964889
C53	C	-0.752823	0.464653	0.464873
C54	C	-0.252823	0.964653	0.964873
C55	C	-1.394113	0.213048	0.464904
C56	C	-0.894113	0.713048	0.964904
C57	C	-1.394154	0.105834	0.464925
C58	C	-0.894154	0.605834	0.964925
C59	C	-1.394105	1.018764	0.464907
C60	C	-0.894105	1.518764	0.964907
C61	C	-1.394046	0.909531	0.464877
C62	C	-0.894046	1.409531	0.964877
C63	C	-1.394004	0.464656	0.214240
C64	C	-0.894004	0.964656	0.714240
C65	C	-1.394161	0.464420	0.107027
C66	C	-0.894161	0.964420	0.607027
C67	C	-1.394140	0.464454	1.019957
C68	C	-0.894140	0.964454	1.519957
C69	C	-1.394122	0.464493	0.910724
C70	C	-0.894122	0.964493	1.410724
