data_functionalizedCrystal
_audit_creation_method	'MofGen! by Chris Wilmer'
_symmetry_space_group_name_H-M	'P1'
_symmetry_Int_Tables_number	1
_symmetry_cell_setting	triclinic
loop_
_symmetry_equiv_pos_as_xyz
  x,y,z
_cell_length_a	11.792241
_cell_length_b	17.019294
_cell_length_c	10.268362
_cell_angle_alpha	86.115747
_cell_angle_beta	89.999626
_cell_angle_gamma	83.793186
loop_
_atom_site_label
_atom_site_type_symbol
_atom_site_fract_x
_atom_site_fract_y
_atom_site_fract_z
O1	O	1.505777	0.108120	-0.120297
O2	O	1.839110	0.441454	0.213037
O3	O	2.172443	0.774787	0.546370
O4	O	1.175319	0.119263	-0.121577
O5	O	1.508652	0.452596	0.211757
O6	O	1.841985	0.785930	0.545090
O7	O	1.349766	-0.001102	-0.108056
O8	O	1.683100	0.332231	0.225277
O9	O	2.016433	0.665565	0.558611
O10	O	1.331329	0.228485	-0.133817
O11	O	1.664662	0.561818	0.199516
O12	O	1.997996	0.895152	0.532849
O13	O	1.349751	-0.001107	0.108545
O14	O	1.683084	0.332226	0.441878
O15	O	2.016418	0.665560	0.775212
O16	O	1.175304	0.119258	0.095025
O17	O	1.508637	0.452591	0.428358
O18	O	1.841970	0.785925	0.761691
O19	O	1.505761	0.108115	0.096304
O20	O	1.839095	0.441448	0.429638
O21	O	2.172428	0.774782	0.762971
Cu22	Cu	1.340531	0.113686	0.115442
Cu23	Cu	1.673865	0.447019	0.448775
Cu24	Cu	2.007198	0.780353	0.782109
Cu25	Cu	1.340549	0.113692	-0.140714
Cu26	Cu	1.673882	0.447025	0.192619
Cu27	Cu	2.007216	0.780359	0.525953
O28	O	1.331314	0.228480	0.082784
O29	O	1.664647	0.561813	0.416117
O30	O	1.997981	0.895147	0.749451
C31	C	1.133028	0.118561	-0.013201
C32	C	1.466361	0.451894	0.320132
C33	C	1.799694	0.785227	0.653465
C34	C	1.007036	0.116466	-0.012978
C35	C	1.340369	0.449799	0.320356
C36	C	1.673703	0.783132	0.653689
C37	C	0.776364	0.112613	-0.012508
C38	C	1.109697	0.445947	0.320825
C39	C	1.443031	0.779280	0.654159
C40	C	0.904727	0.114754	-0.012769
C41	C	1.238060	0.448087	0.320564
C42	C	1.571393	0.781420	0.653898
C43	C	1.349059	-0.030497	0.003539
C44	C	1.682393	0.302837	0.336873
C45	C	2.015726	0.636170	0.670206
C46	C	1.346962	-0.118076	0.013357
C47	C	1.680295	0.215257	0.346691
C48	C	2.013629	0.548591	0.680024
C49	C	1.345988	-0.159214	-0.100099
C50	C	1.679321	0.174120	0.233235
C51	C	2.012654	0.507453	0.566568
C52	C	1.344010	-0.241503	-0.090870
C53	C	1.677343	0.091830	0.242464
C54	C	2.010676	0.425163	0.575797
C55	C	1.343014	-0.282654	0.031817
C56	C	1.676348	0.050679	0.365150
C57	C	2.009681	0.384012	0.698483
C58	C	1.343986	-0.241511	0.145281
C59	C	1.677319	0.091823	0.478614
C60	C	2.010652	0.425156	0.811948
C61	C	1.345955	-0.159222	0.136051
C62	C	1.679289	0.174112	0.469384
C63	C	2.012622	0.507445	0.802718
C64	C	1.337059	-0.531113	0.065593
C65	C	1.670392	-0.197780	0.398926
C66	C	2.003726	0.135554	0.732260
C67	C	1.335093	-0.613408	0.074815
C68	C	1.668426	-0.280075	0.408148
C69	C	2.001759	0.053259	0.741482
C70	C	1.335115	-0.613395	-0.161337
C71	C	1.668448	-0.280062	0.171996
C72	C	2.001781	0.053272	0.505330
C73	C	1.337091	-0.531105	-0.170556
C74	C	1.670425	-0.197772	0.162777
C75	C	2.003758	0.135561	0.496110
C76	C	1.338056	-0.489968	-0.057092
C77	C	1.671390	-0.156635	0.276241
C78	C	2.004723	0.176699	0.609575
C79	C	1.340996	-0.366768	0.041253
C80	C	1.674330	-0.033435	0.374587
C81	C	2.007663	0.299899	0.707920
C82	C	1.340066	-0.405855	-0.066530
C83	C	1.673400	-0.072522	0.266804
C84	C	2.006733	0.260811	0.600137
C85	C	1.548053	0.108818	-0.012074
C86	C	1.881386	0.442151	0.321260
C87	C	2.214719	0.775484	0.654593
C88	C	1.674044	0.110913	-0.012306
C89	C	2.007378	0.444246	0.321028
C90	C	2.340711	0.777579	0.654361
C91	C	1.332021	0.257875	-0.028815
C92	C	1.665354	0.591208	0.304519
C93	C	1.998687	0.924541	0.637852
C94	C	1.334118	0.345454	-0.038641
C95	C	1.667451	0.678788	0.294692
C96	C	2.000785	1.012121	0.628026
N97	N	1.340527	0.113681	0.295608
N98	N	1.673860	0.447015	0.628942
N99	N	2.007194	0.780348	0.962275
N100	N	1.340562	0.113690	-0.320880
N101	N	1.673896	0.447024	0.012454
N102	N	2.007229	0.780357	0.345787
C103	C	1.340543	0.113690	0.561278
C104	C	1.673877	0.447024	0.894611
C105	C	2.007210	0.780357	1.227945
C106	C	1.340530	0.113688	0.413440
C107	C	1.673864	0.447021	0.746774
C108	C	2.007197	0.780354	1.080107
H109	H	1.346804	-0.125715	-0.200003
H110	H	1.680138	0.207618	0.133330
H111	H	2.013471	0.540952	0.466664
H112	H	1.343221	-0.274995	-0.183258
H113	H	1.676554	0.058339	0.150076
H114	H	2.009888	0.391672	0.483409
F115	F	1.334087	-0.657182	-0.282085
F116	F	1.667420	-0.323848	0.051248
F117	F	2.000753	0.009485	0.384582
H118	H	1.337903	-0.497606	-0.270460
H119	H	1.671237	-0.164272	0.062873
H120	H	2.004570	0.169061	0.396206
H121	H	1.334276	-0.646910	0.174726
H122	H	1.667610	-0.313577	0.508059
H123	H	2.000943	0.019756	0.841393
H124	H	1.340869	-0.372346	-0.166420
H125	H	1.674202	-0.039013	0.166913
H126	H	2.007536	0.294321	0.500246
H127	H	1.340190	-0.400283	0.141145
H128	H	1.673523	-0.066949	0.474478
H129	H	2.006856	0.266384	0.807812
F130	F	1.346991	-0.115440	0.256807
F131	F	1.680324	0.217893	0.590140
F132	F	2.013658	0.551227	0.923473
F133	F	1.338072	-0.487341	0.186353
F134	F	1.671405	-0.154008	0.519687
F135	F	2.004738	0.179326	0.853020
F136	F	1.342914	-0.285308	0.275854
F137	F	1.676247	0.048026	0.609187
F138	F	2.009580	0.381359	0.942520
