data_functionalizedCrystal
_audit_creation_method	'MofGen! by Chris Wilmer'
_symmetry_space_group_name_H-M	'P1'
_symmetry_Int_Tables_number	1
_symmetry_cell_setting	triclinic
loop_
_symmetry_equiv_pos_as_xyz
  x,y,z
_cell_length_a	25.639242
_cell_length_b	25.639239
_cell_length_c	16.959447
_cell_angle_alpha	89.966924
_cell_angle_beta	89.975785
_cell_angle_gamma	90.034213
loop_
_atom_site_label
_atom_site_type_symbol
_atom_site_fract_x
_atom_site_fract_y
_atom_site_fract_z
Zn1	Zn	0.799236	-0.208203	-0.447102
Zn2	Zn	0.799156	-0.295643	-0.314917
Zn3	Zn	0.711809	-0.208217	-0.314917
Zn4	Zn	0.711757	-0.295602	-0.447033
O5	O	0.755489	-0.251916	-0.380992
O6	O	0.872390	-0.219813	-0.429597
O7	O	0.787558	-0.284069	-0.204306
O8	O	0.723461	-0.135050	-0.332480
O9	O	0.872332	-0.284056	-0.332481
O10	O	0.787693	-0.135039	-0.429596
O11	O	0.723384	-0.219838	-0.204306
O12	O	0.638637	-0.219798	-0.332413
O13	O	0.723373	-0.283985	-0.557653
O14	O	0.638599	-0.283999	-0.429478
O15	O	0.787643	-0.219773	-0.557704
O16	O	0.787507	-0.368803	-0.332414
O17	O	0.723296	-0.368773	-0.429479
C18	C	0.619647	-0.251896	-0.380939
C19	C	0.561533	-0.251900	-0.380935
C20	C	0.201159	-0.285402	-0.431486
C21	C	0.146555	-0.285405	-0.431499
O22	O	0.118308	-0.313865	-0.474434
N23	N	0.119250	-0.251931	-0.381044
C24	C	0.146553	-0.218447	-0.330579
O25	O	0.118315	-0.189975	-0.287665
C26	C	0.201157	-0.218442	-0.330571
C27	C	0.228458	-0.251922	-0.381023
C28	C	0.228460	-0.318879	-0.481935
C29	C	0.283061	-0.318877	-0.481921
C30	C	0.310360	-0.285397	-0.431459
C31	C	0.283059	-0.251920	-0.381010
C32	C	0.228459	-0.184956	-0.280111
C33	C	0.283066	-0.184953	-0.280108
C34	C	0.310367	-0.218434	-0.330560
C35	C	0.364958	-0.218437	-0.330533
N36	N	0.392262	-0.251911	-0.380988
C37	C	0.364963	-0.285391	-0.431451
C38	C	0.031883	-0.218461	-0.330600
C39	C	-0.022720	-0.218468	-0.330604
C40	C	-0.022715	-0.285426	-0.431525
C41	C	0.031889	-0.285420	-0.431517
C42	C	0.059187	-0.251935	-0.381055
C43	C	0.479628	-0.285384	-0.431418
C44	C	0.534234	-0.285379	-0.431397
C45	C	0.534224	-0.218420	-0.330480
C46	C	0.479623	-0.218426	-0.330497
C47	C	0.452327	-0.251909	-0.380972
O48	O	0.393239	-0.189991	-0.287622
O49	O	0.393208	-0.313854	-0.474365
C50	C	0.755401	-0.387759	-0.380956
C51	C	0.755412	-0.445873	-0.380967
C52	C	0.789012	-0.806239	-0.330537
C53	C	0.789032	-0.860844	-0.330547
O54	O	0.817509	-0.889083	-0.287630
N55	N	0.755581	-0.888155	-0.381045
C56	C	0.722112	-0.860860	-0.431540
O57	O	0.693662	-0.889105	-0.474494
C58	C	0.722095	-0.806257	-0.431533
C59	C	0.755544	-0.778948	-0.381027
C60	C	0.822458	-0.778930	-0.280035
C61	C	0.822437	-0.724330	-0.280024
C62	C	0.788969	-0.697038	-0.330514
C63	C	0.755523	-0.724347	-0.381016
C64	C	0.688628	-0.778963	-0.482032
C65	C	0.688614	-0.724356	-0.482021
C66	C	0.722063	-0.697047	-0.431515
C67	C	0.722034	-0.642455	-0.431494
N68	N	0.755484	-0.615143	-0.380997
C69	C	0.788952	-0.642435	-0.330507
C70	C	0.722151	-0.975531	-0.431553
C71	C	0.722166	-1.030133	-0.431556
C72	C	0.789086	-1.030113	-0.330564
C73	C	0.789069	-0.975509	-0.330557
C74	C	0.755602	-0.948219	-0.381055
C75	C	0.788905	-0.527770	-0.330486
C76	C	0.788880	-0.473164	-0.330477
C77	C	0.721961	-0.473190	-0.431472
C78	C	0.721984	-0.527790	-0.431478
C79	C	0.755461	-0.555079	-0.380983
O80	O	0.693573	-0.614181	-0.474392
O81	O	0.817402	-0.614183	-0.287568
C82	C	0.891862	-0.251937	-0.381047
C83	C	0.949976	-0.251946	-0.381070
C84	C	0.755511	-0.251873	-0.587161
C85	C	0.755520	-0.251855	-0.675017
C86	C	0.755592	-0.115543	-0.381046
C87	C	0.755636	-0.057429	-0.381069
C88	C	0.722120	-0.285232	-1.046469
C89	C	0.789045	-0.218367	-1.046517
C90	C	0.789032	-0.218378	-0.963971
C91	C	0.755562	-0.251817	-0.922670
C92	C	0.722107	-0.285245	-0.963916
C93	C	0.822490	-0.184955	-0.922720
C94	C	0.822478	-0.184965	-0.840169
C95	C	0.789006	-0.218402	-0.798867
C96	C	0.755548	-0.251830	-0.840117
C97	C	0.722079	-0.285269	-0.798816
C98	C	0.688618	-0.318696	-0.840065
C99	C	0.688634	-0.318682	-0.922613
C100	C	0.788990	-0.218416	-0.716318
C101	C	0.722065	-0.285282	-0.716262
C102	C	0.755498	-0.251922	-0.175626
C103	C	0.755590	-0.251793	-0.087770
H104	H	0.054105	-0.191193	-0.289503
H105	H	0.849723	-0.157747	-0.806591
H106	H	0.305289	-0.157682	-0.239019
H107	H	0.661370	-0.345924	-0.806427
C108	C	-0.017226	-0.152284	-0.230849
C109	C	-0.052726	-0.181669	-0.275140
H110	H	-0.035750	-0.129561	-0.196614
H111	H	0.004045	-0.175040	-0.200550
H112	H	0.004096	-0.132315	-0.265349
H113	H	-0.074046	-0.201641	-0.240640
H114	H	-0.074006	-0.158910	-0.305441
C115	C	0.651668	-0.589261	-0.442364
C116	C	0.685212	-0.557809	-0.486990
H117	H	0.628966	-0.607787	-0.476641
H118	H	0.671604	-0.613331	-0.412309
H119	H	0.631677	-0.567992	-0.407887
H120	H	0.705206	-0.579078	-0.521463
H121	H	0.665274	-0.533737	-0.517058
C122	C	0.658943	-0.348352	-1.049132
C123	C	0.651859	-0.355423	-0.967955
H124	H	0.636243	-0.371038	-1.077124
H125	H	0.651320	-0.313223	-1.062672
H126	H	0.694072	-0.356008	-1.062654
H127	H	0.616732	-0.347763	-0.954432
H128	H	0.659479	-0.390560	-0.954410
C129	C	0.233962	-0.118761	-0.180378
C130	C	0.198459	-0.148148	-0.224658
H131	H	0.215441	-0.096033	-0.146146
H132	H	0.255232	-0.141515	-0.150074
H133	H	0.255285	-0.098798	-0.214884
H134	H	0.177138	-0.168114	-0.190151
H135	H	0.177179	-0.125391	-0.254963
C136	C	0.093259	-0.355758	-0.442307
C137	C	0.061895	-0.322220	-0.486980
H138	H	0.111779	-0.378478	-0.476553
H139	H	0.117335	-0.335818	-0.412266
H140	H	0.071932	-0.375728	-0.407816
H141	H	0.083223	-0.302246	-0.521468
H142	H	0.037817	-0.342161	-0.517036
H143	H	0.816306	-0.953278	-0.289431
H144	H	0.457393	-0.191165	-0.289413
H145	H	0.556461	-0.191164	-0.289392
H146	H	0.694876	-0.312445	-1.080057
C147	C	-0.039573	-0.373992	-0.469798
C148	C	-0.052730	-0.322225	-0.486999
H149	H	-0.058107	-0.396708	-0.504041
H150	H	-0.003151	-0.378781	-0.477021
H151	H	-0.048545	-0.381595	-0.416668
H152	H	-0.043754	-0.314621	-0.540128
H153	H	-0.089160	-0.317434	-0.479783
C154	C	0.855146	-0.152326	-0.724661
C155	C	0.825765	-0.181677	-0.670978
H156	H	0.877848	-0.129641	-0.696669
H157	H	0.875133	-0.175105	-0.756847
H158	H	0.832383	-0.132318	-0.756867
H159	H	0.848528	-0.201687	-0.638776
H160	H	0.805777	-0.158894	-0.638778
C161	C	0.714735	-0.355625	-0.623391
C162	C	0.685276	-0.322040	-0.670862
H163	H	0.692022	-0.378315	-0.595359
H164	H	0.737498	-0.375622	-0.655594
H165	H	0.734658	-0.335715	-0.587016
H166	H	0.665356	-0.341950	-0.707241
H167	H	0.662504	-0.302041	-0.638656
C168	C	0.814406	-0.456398	-0.196665
C169	C	0.825651	-0.443148	-0.274958
H170	H	0.837109	-0.437871	-0.162393
H171	H	0.779283	-0.447485	-0.185042
H172	H	0.819207	-0.492826	-0.189460
H173	H	0.820846	-0.406721	-0.282164
H174	H	0.860782	-0.452058	-0.286585
C175	C	0.528746	-0.351563	-0.531161
C176	C	0.564243	-0.322181	-0.486863
H177	H	0.547271	-0.374279	-0.565405
H178	H	0.507426	-0.371535	-0.496672
H179	H	0.507471	-0.328802	-0.561458
H180	H	0.585515	-0.344942	-0.456561
H181	H	0.585571	-0.302208	-0.521356
H182	H	0.457410	-0.312648	-0.472522
H183	H	0.816166	-0.549982	-0.289370
H184	H	0.694710	-0.450960	-0.472578
H185	H	0.849676	-0.702098	-0.238900
C186	C	0.888595	-0.773411	-0.180202
C187	C	0.859247	-0.808923	-0.224525
H188	H	0.911304	-0.791925	-0.145924
H189	H	0.908572	-0.752084	-0.214674
H190	H	0.865811	-0.752145	-0.149940
H191	H	0.882032	-0.830186	-0.254792
H192	H	0.839269	-0.830258	-0.190049
H193	H	0.305285	-0.346139	-0.523007
H194	H	0.816339	-1.052343	-0.289455
C195	C	0.656018	-1.024655	-0.531381
C196	C	0.685394	-1.060147	-0.487070
H197	H	0.633320	-1.043184	-0.565660
H198	H	0.636027	-1.003396	-0.496903
H199	H	0.678784	-1.003320	-0.561643
H200	H	0.662628	-1.081480	-0.456803
H201	H	0.705386	-1.081416	-0.521553
C202	C	0.211697	-0.344468	-0.615714
C203	C	0.198460	-0.355688	-0.537408
H204	H	0.193181	-0.367199	-0.649958
H205	H	0.202760	-0.309357	-0.627382
H206	H	0.248126	-0.349250	-0.622912
H207	H	0.162031	-0.350902	-0.530209
H208	H	0.207393	-0.390808	-0.525736
C209	C	0.663087	-0.707513	-0.615829
C210	C	0.651826	-0.694358	-0.537533
H211	H	0.640373	-0.688996	-0.650097
H212	H	0.698204	-0.698522	-0.627442
H213	H	0.658312	-0.743942	-0.623051
H214	H	0.656605	-0.657929	-0.530310
H215	H	0.616700	-0.703346	-0.525916
H216	H	0.694894	-0.953314	-0.472672
C217	C	0.681346	-0.840313	-0.588370
C218	C	0.651864	-0.808971	-0.537559
H219	H	0.658648	-0.858839	-0.622650
H220	H	0.704107	-0.818974	-0.618622
H221	H	0.701272	-0.864387	-0.558294
H222	H	0.631941	-0.784894	-0.567635
H223	H	0.629094	-0.830312	-0.507304
C224	C	0.818784	-0.188664	-1.173079
C225	C	0.825836	-0.181615	-1.091913
H226	H	0.841496	-0.165970	-1.201105
H227	H	0.826413	-0.223789	-1.186583
H228	H	0.783661	-0.181003	-1.186597
H229	H	0.860957	-0.189279	-1.078394
H230	H	0.818211	-0.146481	-1.078404
C231	C	0.848035	-0.096424	-0.948191
C232	C	0.859279	-0.148203	-0.968120
H233	H	0.870749	-0.073736	-0.976221
H234	H	0.812917	-0.088767	-0.961713
H235	H	0.852821	-0.091653	-0.893125
H236	H	0.854489	-0.152975	-1.023186
H237	H	0.894405	-0.155863	-0.954604
