data_functionalizedCrystal
_audit_creation_method	'MofGen! by Chris Wilmer'
_symmetry_space_group_name_H-M	'P1'
_symmetry_Int_Tables_number	1
_symmetry_cell_setting	triclinic
loop_
_symmetry_equiv_pos_as_xyz
  x,y,z
_cell_length_a	13.339070
_cell_length_b	16.109301
_cell_length_c	14.586319
_cell_angle_alpha	90.005214
_cell_angle_beta	90.003986
_cell_angle_gamma	99.545387
loop_
_atom_site_label
_atom_site_type_symbol
_atom_site_fract_x
_atom_site_fract_y
_atom_site_fract_z
O1	O	-1.342144	-0.416774	-0.076285
O2	O	-0.842144	0.083226	0.423715
O3	O	-1.047635	-0.362069	-0.076278
O4	O	-0.547635	0.137931	0.423722
O5	O	-1.202980	-0.270259	-0.076272
O6	O	-0.702980	0.229741	0.423728
O7	O	-1.186799	-0.508584	-0.076291
O8	O	-0.686799	-0.008584	0.423709
O9	O	-1.202969	-0.270254	0.076208
O10	O	-0.702969	0.229746	0.576208
O11	O	-1.047624	-0.362065	0.076203
O12	O	-0.547624	0.137935	0.576203
O13	O	-1.342133	-0.416769	0.076196
O14	O	-0.842133	0.083231	0.576196
Cu15	Cu	-1.194878	-0.389417	0.090122
Cu16	Cu	-0.694878	0.110583	0.590122
Cu17	Cu	-1.194890	-0.389422	-0.090204
Cu18	Cu	-0.694890	0.110578	0.409796
O19	O	-1.186788	-0.508580	0.076190
O20	O	-0.686788	-0.008580	0.576190
C21	C	-1.009943	-0.352827	-0.000037
C22	C	-0.509943	0.147173	0.499963
C23	C	-0.897651	-0.325282	-0.000034
C24	C	-0.397651	0.174718	0.499966
C25	C	-1.202319	-0.239130	-0.000032
C26	C	-0.702319	0.260870	0.499968
C27	C	-1.200354	-0.146381	-0.000030
C28	C	-0.700354	0.353619	0.499970
C29	C	-1.379825	-0.426012	-0.000048
C30	C	-0.879825	0.073988	0.499952
C31	C	-1.492117	-0.453556	-0.000057
C32	C	-0.992117	0.046444	0.499943
C33	C	-0.532787	-0.539450	-0.000065
C34	C	-0.032787	-0.039450	0.499935
C35	C	-0.638291	-0.565332	-0.000070
C36	C	-0.138291	-0.065332	0.499930
C37	C	-0.703136	-0.505322	-0.000061
C38	C	-0.203136	-0.005322	0.499939
C39	C	-0.662467	-0.419426	-0.000046
C40	C	-0.162467	0.080574	0.499954
C41	C	-0.556952	-0.393541	-0.000048
C42	C	-0.056952	0.106459	0.499952
C43	C	-0.727301	-0.359413	-0.000044
C44	C	-0.227301	0.140587	0.499956
C45	C	-0.686632	-0.273517	-0.000030
C46	C	-0.186632	0.226483	0.499970
C47	C	-0.581127	-0.247637	-0.000030
C48	C	-0.081127	0.252363	0.499970
C49	C	-0.516283	-0.307647	-0.000040
C50	C	-0.016283	0.192353	0.499960
C51	C	-0.832816	-0.385297	-0.000043
C52	C	-0.332816	0.114703	0.499957
C53	C	-0.856981	-0.239388	-0.000026
C54	C	-0.356981	0.260612	0.499974
C55	C	-0.751477	-0.213506	-0.000020
C56	C	-0.251477	0.286494	0.499980
C57	C	-1.187449	-0.539708	-0.000053
C58	C	-0.687449	-0.039708	0.499947
C59	C	-1.189414	-0.632457	-0.000060
C60	C	-0.689414	-0.132457	0.499940
N61	N	-1.194876	-0.389414	0.216954
N62	N	-0.694876	0.110586	0.716954
C63	C	-1.287963	0.055662	-0.000047
C64	C	-0.787963	0.555662	0.499953
C65	C	-1.286109	0.142810	-0.000054
C66	C	-0.786109	0.642810	0.499946
C67	C	-1.101798	0.165494	-0.000046
C68	C	-0.601798	0.665494	0.499954
C69	C	-1.103653	0.078347	-0.000045
C70	C	-0.603653	0.578347	0.499955
C71	C	-1.196739	0.023433	-0.000041
C72	C	-0.696739	0.523433	0.499959
C73	C	-1.193029	0.197729	-0.000049
C74	C	-0.693029	0.697729	0.499951
C75	C	-1.191018	0.292219	-0.000058
C76	C	-0.691018	0.792219	0.499942
C77	C	-1.198750	-0.071064	-0.000035
C78	C	-0.698750	0.428936	0.499965
N79	N	-1.194900	-0.389420	-0.217036
N80	N	-0.694900	0.110580	0.282964
C81	C	-1.263685	-0.348785	0.451963
C82	C	-0.763685	0.151215	0.951963
C83	C	-1.263688	-0.348783	0.547944
C84	C	-0.763688	0.151217	1.047944
C85	C	-1.126083	-0.430050	0.547948
C86	C	-0.626083	0.069950	1.047948
C87	C	-1.126076	-0.430046	0.451969
C88	C	-0.626076	0.069954	0.951969
C89	C	-1.194883	-0.389415	0.403978
C90	C	-0.694883	0.110585	0.903978
C91	C	-1.194893	-0.389418	0.595939
C92	C	-0.694893	0.110582	1.095939
C93	C	-1.194896	-0.389417	0.700006
C94	C	-0.694896	0.110583	1.200006
C95	C	-1.194879	-0.389415	0.299905
C96	C	-0.694879	0.110585	0.799905
H97	H	-0.865918	-0.455234	-0.000051
H98	H	-0.365918	0.044766	0.499949
Br99	Br	-0.979839	0.034604	-0.000050
Br100	Br	-0.479839	0.534604	0.499950
H101	H	-1.319711	-0.315699	0.412891
H102	H	-0.819711	0.184301	0.912891
H103	H	-1.319712	-0.315697	0.587010
H104	H	-0.819712	0.184303	1.087010
Br105	Br	-0.373091	-0.272524	-0.000027
Br106	Br	0.126909	0.227476	0.499973
Br107	Br	-0.846323	-0.540448	-0.000068
Br108	Br	-0.346323	-0.040448	0.499932
H109	H	-1.070063	-0.463132	0.587032
H110	H	-0.570063	0.036868	1.087032
Br111	Br	-1.032687	-0.485183	0.386840
Br112	Br	-0.532687	0.014817	0.886840
Br113	Br	-0.525935	-0.131064	-0.000048
Br114	Br	-0.025935	0.368936	0.499952
Br115	Br	-0.696270	-0.096936	0.000001
Br116	Br	-0.196270	0.403064	0.500001
Br117	Br	-1.409920	0.186546	-0.000068
Br118	Br	-0.909920	0.686546	0.499932
Br119	Br	-0.975473	0.240025	-0.000055
Br120	Br	-0.475473	0.740025	0.499945
H121	H	-0.671396	-0.635268	-0.000089
H122	H	-0.171396	-0.135268	0.499911
H123	H	-0.909778	-0.190522	-0.000022
H124	H	-0.409778	0.309478	0.499978
Br125	Br	-0.444782	-0.620882	-0.000097
Br126	Br	0.055218	-0.120882	0.499903
Br127	Br	-1.414293	-0.018862	-0.000040
Br128	Br	-0.914293	0.481138	0.499960
