data_functionalizedCrystal
_audit_creation_method	'MofGen! by Chris Wilmer'
_symmetry_space_group_name_H-M	'P1'
_symmetry_Int_Tables_number	1
_symmetry_cell_setting	triclinic
loop_
_symmetry_equiv_pos_as_xyz
  x,y,z
_cell_length_a	17.699097
_cell_length_b	17.699083
_cell_length_c	15.500346
_cell_angle_alpha	93.175894
_cell_angle_beta	93.191228
_cell_angle_gamma	83.285707
loop_
_atom_site_label
_atom_site_type_symbol
_atom_site_fract_x
_atom_site_fract_y
_atom_site_fract_z
O1	O	-1.007207	-0.098881	-0.072031
O2	O	-0.786829	-0.111322	-0.072014
O3	O	-0.903244	0.005088	-0.072015
O4	O	-0.890792	-0.215290	-0.072030
O5	O	-0.896967	0.011328	0.071872
O6	O	-0.780552	-0.105082	0.071873
O7	O	-1.000930	-0.092641	0.071856
Cu8	Cu	-0.890168	-0.098292	0.085003
Cu9	Cu	-0.897591	-0.105671	-0.085160
O10	O	-0.884515	-0.209051	0.071858
C11	C	-0.755494	-0.107754	-0.000068
C12	C	-0.671476	-0.106412	-0.000061
N13	N	-0.884953	-0.093101	0.204686
C14	C	-0.159180	-0.101585	-0.078522
C15	C	-0.238124	-0.102841	-0.078519
C16	C	-0.274168	-0.100069	-0.000083
C17	C	-0.231266	-0.096033	0.078355
C18	C	-0.152324	-0.094771	0.078351
C19	C	-0.549629	-0.101119	0.078373
C20	C	-0.628576	-0.102383	0.078371
C21	C	-0.635429	-0.109189	-0.078496
C22	C	-0.556487	-0.107927	-0.078501
C23	C	-0.513592	-0.103887	-0.000063
C24	C	-0.427992	-0.102524	-0.000068
C25	C	-0.359766	-0.101438	-0.000077
C26	C	-0.899659	0.036405	-0.000071
C27	C	-0.898320	0.120423	-0.000071
C28	C	-0.032265	-0.096208	-0.000088
C29	C	-0.116283	-0.097551	-0.000090
C30	C	-0.888100	-0.240368	-0.000088
C31	C	-0.889439	-0.324386	-0.000094
C32	C	-0.966654	0.169041	-0.000075
C33	C	-0.965392	0.247984	-0.000083
C34	C	-0.895796	0.278308	-0.000080
C35	C	-0.827457	0.229684	-0.000079
C36	C	-0.828720	0.150742	-0.000077
C37	C	-0.822362	0.548047	-0.000085
C38	C	-0.821104	0.626995	-0.000084
C39	C	-0.959034	0.645288	-0.000091
C40	C	-0.960297	0.566347	-0.000089
C41	C	-0.891959	0.517730	-0.000092
C42	C	-0.893328	0.432131	-0.000086
C43	C	-0.894425	0.363906	-0.000080
N44	N	-0.902812	-0.110856	-0.204844
C45	C	-0.858968	-0.066984	0.749869
C46	C	-0.862908	-0.070939	0.659297
C47	C	-0.910687	-0.118770	0.614014
C48	C	-0.954536	-0.162643	0.659308
C49	C	-0.950600	-0.158684	0.749878
C50	C	-0.924866	-0.133015	0.340550
C51	C	-0.928796	-0.136973	0.249974
C52	C	-0.837169	-0.045267	0.249969
C53	C	-0.833234	-0.041315	0.340541
C54	C	-0.877086	-0.085185	0.385827
C55	C	-0.914713	-0.122815	0.521435
C56	C	-0.873064	-0.081135	0.478404
H57	H	-0.129838	-0.103848	-0.142394
H58	H	-0.117397	-0.091494	0.142218
Br59	Br	-0.726646	0.668149	-0.000079
H60	H	-0.773076	0.111158	-0.000074
H61	H	-0.794328	-0.002364	0.377404
H62	H	-0.986303	-0.194409	0.786750
Br63	Br	-0.984375	-0.192559	0.401999
H64	H	-0.967703	-0.175928	0.213107
Br65	Br	-1.058134	0.313963	-0.000088
Br66	Br	-1.061110	0.127895	-0.000066
Br67	Br	-0.507573	-0.111696	-0.184953
H68	H	-0.766717	0.508472	-0.000087
Br69	Br	-1.054752	0.525196	-0.000093
Br70	Br	-1.019386	-0.227552	0.597854
H71	H	-1.014678	0.684882	-0.000092
Br72	Br	-0.794116	-0.002072	0.811315
H73	H	-0.827208	-0.035211	0.622428
H74	H	-0.273048	-0.106121	-0.142386
Br75	Br	-0.808226	-0.016220	0.539860
H76	H	-0.801468	-0.009549	0.213088
Br77	Br	-0.733005	0.270836	-0.000089
H78	H	-0.670365	-0.112476	-0.142364
H79	H	-0.657921	-0.100126	0.142247
H80	H	-0.514714	-0.097818	0.142242
H81	H	-0.953614	-0.161761	0.484556
H82	H	-0.260620	-0.093771	0.142219
