data_functionalizedCrystal
_audit_creation_method	'MofGen! by Chris Wilmer'
_symmetry_space_group_name_H-M	'P1'
_symmetry_Int_Tables_number	1
_symmetry_cell_setting	triclinic
loop_
_symmetry_equiv_pos_as_xyz
  x,y,z
_cell_length_a	6.817900
_cell_length_b	11.102288
_cell_length_c	15.185463
_cell_angle_alpha	93.562303
_cell_angle_beta	104.264314
_cell_angle_gamma	108.605689
loop_
_atom_site_label
_atom_site_type_symbol
_atom_site_fract_x
_atom_site_fract_y
_atom_site_fract_z
V1	V	-4.061615	-0.176679	-0.283393
O2	O	-4.021598	0.007626	-0.277998
O3	O	-4.038734	-0.349494	-0.281455
O4	O	-4.016627	-0.174341	-0.406990
O5	O	-4.043858	-0.168740	-0.151594
V6	V	-4.541495	-0.154589	-0.267629
O7	O	-4.330867	-0.225135	-0.317973
O8	O	-4.722441	-0.106133	-0.233049
O9	O	-4.341170	0.018225	-0.269567
O10	O	-4.698909	-0.338894	-0.273023
O11	O	-4.676649	-0.162529	-0.399428
O12	O	-4.363277	-0.156928	-0.144031
C13	C	-3.889832	-0.391610	-0.276984
C14	C	-3.952433	-0.532891	-0.276224
C15	C	-4.165053	-0.605751	-0.280401
C16	C	-4.223865	-0.738501	-0.279693
C17	C	-3.857416	-0.725516	-0.270627
C18	C	-3.798610	-0.592770	-0.271341
C19	C	-3.861631	-0.168184	-0.437116
C20	C	-3.906301	-0.167415	-0.538158
C21	C	-3.911991	-0.157851	-0.960761
C22	C	-4.278396	-0.170565	-0.970012
C23	C	-4.236424	-0.171275	-0.875077
C24	C	-4.032232	-0.165276	-0.822980
C25	C	-3.870011	-0.158566	-0.865817
C26	C	-4.398645	-0.177998	-0.832234
C27	C	-4.356678	-0.178711	-0.737293
C28	C	-4.152478	-0.172702	-0.685193
C29	C	-3.990252	-0.165990	-0.728036
C30	C	-3.786060	-0.159991	-0.675939
C31	C	-3.623826	-0.153270	-0.718779
C32	C	-3.665811	-0.152557	-0.813717
C33	C	-4.110493	-0.173415	-0.590255
C34	C	-3.744080	-0.160705	-0.580995
C35	C	-4.153414	0.060335	-0.274035
C36	C	-4.070052	0.201614	-0.274802
C37	C	-4.181615	-0.163089	-0.113901
C38	C	-4.116183	-0.163851	-0.012858
H39	H	-4.396996	-0.797819	-0.283096
H40	H	-3.732186	-0.774286	-0.266650
Br41	Br	-4.675760	-0.186163	-0.902942
H42	H	-3.625466	-0.533445	-0.267943
Br43	Br	-3.466943	-0.152548	-0.510297
Br44	Br	-4.373816	-0.524491	-0.287033
H45	H	-3.533736	-0.147088	-0.848607
Br46	Br	-3.346722	-0.145147	-0.648067
Br47	Br	-3.691824	-0.148727	-1.018897
Br48	Br	-4.555513	-0.178727	-1.040718
Br49	Br	-4.330654	-0.182551	-0.532119
H50	H	-4.488782	-0.184182	-0.702421
