data_functionalizedCrystal
_audit_creation_method	'MofGen! by Chris Wilmer'
_symmetry_space_group_name_H-M	'P1'
_symmetry_Int_Tables_number	1
_symmetry_cell_setting	triclinic
loop_
_symmetry_equiv_pos_as_xyz
  x,y,z
_cell_length_a	10.654556
_cell_length_b	10.489741
_cell_length_c	9.730223
_cell_angle_alpha	89.995878
_cell_angle_beta	89.998368
_cell_angle_gamma	84.513355
loop_
_atom_site_label
_atom_site_type_symbol
_atom_site_fract_x
_atom_site_fract_y
_atom_site_fract_z
O1	O	1.667918	0.179201	-0.114237
O2	O	1.302449	0.196261	-0.114251
O3	O	1.493500	0.002129	-0.114236
O4	O	1.476867	0.373333	-0.114253
O5	O	1.493487	0.002124	0.114344
O6	O	1.302436	0.196256	0.114329
O7	O	1.667906	0.179195	0.114343
Zn8	Zn	1.485169	0.187725	0.150628
Zn9	Zn	1.485186	0.187732	-0.150536
O10	O	1.476855	0.373327	0.114327
C11	C	1.255644	0.195004	0.000037
C12	C	1.116200	0.191251	0.000032
C13	C	1.492237	-0.045404	0.000053
C14	C	1.488479	-0.187032	0.000051
C15	C	0.919658	0.185970	-0.124556
C16	C	1.050682	0.189489	-0.124565
C17	C	1.050688	0.189483	0.124645
C18	C	0.919667	0.185955	0.124653
C19	C	1.366919	-0.255116	0.000036
C20	C	1.424337	-0.347268	0.112740
C21	C	1.424378	-0.347237	-0.112622
C22	C	1.545947	-0.277318	0.112848
C23	C	1.545971	-0.277278	-0.112615
C24	C	1.603477	-0.369402	0.000116
C25	C	1.714711	0.180452	0.000052
C26	C	1.854155	0.184205	0.000048
C27	C	1.478117	0.420861	0.000035
C28	C	1.481876	0.562489	0.000029
N29	N	1.485167	0.187719	0.356164
N30	N	1.485197	0.187727	-0.356073
C31	C	1.569794	0.101794	0.428097
C32	C	1.569806	0.101795	0.571980
C33	C	1.400562	0.273657	0.571985
C34	C	1.400544	0.273649	0.428104
H35	H	0.866323	0.184544	-0.226018
H36	H	1.597367	-0.246255	-0.207900
H37	H	1.331625	0.343620	0.369533
H38	H	1.104010	0.190924	-0.226030
H39	H	1.372933	-0.378175	-0.207913
H40	H	1.638697	0.031823	0.369527
H41	H	1.638715	0.031825	0.630544
H42	H	1.104043	0.190910	0.226094
H43	H	0.866333	0.184517	0.226126
H44	H	1.266973	-0.205419	0.000146
H45	H	1.372897	-0.378258	0.208019
H46	H	1.597332	-0.246512	0.208237
H47	H	1.703513	-0.418872	0.000183
H48	H	1.331665	0.343620	0.630573
