data_functionalizedCrystal
_audit_creation_method	'MofGen! by Chris Wilmer'
_symmetry_space_group_name_H-M	'P1'
_symmetry_Int_Tables_number	1
_symmetry_cell_setting	triclinic
loop_
_symmetry_equiv_pos_as_xyz
  x,y,z
_cell_length_a	10.723024
_cell_length_b	19.188930
_cell_length_c	9.798715
_cell_angle_alpha	89.991738
_cell_angle_beta	89.996609
_cell_angle_gamma	83.806325
loop_
_atom_site_label
_atom_site_type_symbol
_atom_site_fract_x
_atom_site_fract_y
_atom_site_fract_z
O1	O	1.655155	0.097922	-0.113499
O2	O	1.291808	0.107295	-0.113506
O3	O	1.483967	0.001021	-0.113476
O4	O	1.462996	0.204196	-0.113529
O5	O	1.483952	0.001021	0.113507
O6	O	1.291793	0.107295	0.113477
O7	O	1.655140	0.097922	0.113483
Zn8	Zn	1.473465	0.102608	0.149518
Zn9	Zn	1.473483	0.102609	-0.149541
O10	O	1.462982	0.204196	0.113453
C11	C	1.245315	0.106613	-0.000015
C12	C	1.106803	0.104572	-0.000016
C13	C	1.030586	0.164037	-0.000033
C14	C	0.887427	0.161930	-0.000034
C15	C	1.483280	-0.024995	0.000019
C16	C	1.481242	-0.102512	0.000031
C17	C	1.593994	-0.146704	0.000040
C18	C	1.592079	-0.219540	0.000018
C19	C	1.477405	-0.248182	0.000015
C20	C	1.364638	-0.203981	-0.000001
C21	C	1.366556	-0.131146	0.000007
N22	N	1.389745	-0.356756	0.077260
N23	N	1.387931	-0.425947	0.077255
C24	C	1.471618	-0.467628	-0.000013
N25	N	1.557208	-0.437506	-0.077259
N26	N	1.559026	-0.368310	-0.077248
C27	C	1.475312	-0.327158	0.000005
C28	C	1.582302	-0.590797	-0.000030
C29	C	1.580382	-0.663634	-0.000061
C30	C	1.352937	-0.648073	-0.000066
C31	C	1.354860	-0.575238	-0.000049
C32	C	1.469546	-0.546604	-0.000025
C33	C	1.701633	0.098604	-0.000011
C34	C	1.840145	0.100645	-0.000019
C35	C	1.463668	0.230211	-0.000045
C36	C	1.465706	0.307729	-0.000066
N37	N	1.473461	0.102608	0.353618
N38	N	1.473497	0.102604	-0.353640
C39	C	1.554147	0.057789	0.421407
C40	C	1.554167	0.057787	0.578570
H41	H	0.905627	0.049735	-0.000013
N42	N	1.052854	0.035067	0.000014
H43	H	0.999522	0.031478	-0.084125
H44	H	1.123450	-0.004289	0.000079
N45	N	1.240954	-0.234870	0.000015
H46	H	1.169813	-0.195820	0.000013
H47	H	1.235206	-0.264746	-0.084129
H48	H	1.687380	-0.123395	0.000055
N49	N	1.084529	0.233544	-0.000063
H50	H	1.013997	0.272939	-0.000076
H51	H	1.137874	0.237070	0.084082
H52	H	1.274736	-0.095165	0.000000
H53	H	1.404419	0.140979	0.588072
N54	N	1.645680	0.006960	0.655778
H55	H	1.734275	0.015306	0.630959
H56	H	1.632614	0.014192	0.757080
N57	N	1.381967	0.153429	0.430851
H58	H	1.429701	0.184474	0.490122
H59	H	1.328139	0.183291	0.363935
N60	N	1.713694	-0.267216	0.000024
H61	H	1.786637	-0.238024	0.000038
H62	H	1.717834	-0.297780	0.084168
N63	N	0.800692	0.229367	-0.000065
H64	H	0.710718	0.218302	-0.000065
H65	H	0.816720	0.257461	0.084073
N66	N	1.705990	-0.559906	-0.000010
H67	H	1.777131	-0.598957	-0.000019
H68	H	1.711744	-0.530014	-0.084147
H69	H	1.672202	-0.699615	-0.000061
N70	N	1.229249	-0.678955	-0.000085
H71	H	1.245141	-0.731801	-0.000093
H72	H	1.179917	-0.662836	0.084059
H73	H	1.263044	-0.539256	-0.000049
N74	N	1.645605	0.006945	0.344180
H75	H	1.632614	0.014146	0.242855
H76	H	1.734181	0.015294	0.369045
