data_functionalizedCrystal
_audit_creation_method	'MofGen! by Chris Wilmer'
_symmetry_space_group_name_H-M	'P1'
_symmetry_Int_Tables_number	1
_symmetry_cell_setting	triclinic
loop_
_symmetry_equiv_pos_as_xyz
  x,y,z
_cell_length_a	12.645331
_cell_length_b	12.645330
_cell_length_c	17.077396
_cell_angle_alpha	90.024069
_cell_angle_beta	90.015122
_cell_angle_gamma	90.018103
loop_
_atom_site_label
_atom_site_type_symbol
_atom_site_fract_x
_atom_site_fract_y
_atom_site_fract_z
Zn1	Zn	1.620701	-0.422028	0.443775
Zn2	Zn	1.620592	-0.599313	0.312519
Zn3	Zn	1.443425	-0.422066	0.312533
Zn4	Zn	1.443397	-0.599251	0.443753
O5	O	1.532029	-0.510664	0.378145
O6	O	1.769034	-0.445555	0.426367
O7	O	1.597056	-0.575843	0.202674
O8	O	1.466998	-0.273713	0.329958
O9	O	1.768953	-0.575806	0.329934
O10	O	1.597242	-0.273686	0.426381
O11	O	1.466892	-0.445620	0.202684
O12	O	1.295074	-0.445559	0.329936
O13	O	1.466951	-0.575700	0.553603
O14	O	1.295054	-0.575737	0.426343
O15	O	1.597216	-0.445495	0.553619
O16	O	1.597029	-0.747652	0.329912
O17	O	1.466845	-0.747606	0.426329
C18	C	1.256599	-0.510646	0.378139
C19	C	1.138769	-0.510664	0.378155
C20	C	1.093910	-0.592698	0.438716
C21	C	0.971350	-0.593035	0.438536
C22	C	0.970821	-0.540501	0.295328
C23	C	1.093419	-0.541080	0.295679
C24	C	1.093621	-0.398619	0.399697
C25	C	0.971016	-0.399238	0.401521
C26	C	1.531951	-0.786094	0.378134
C27	C	1.532015	-0.903924	0.378156
C28	C	1.450454	-1.071503	0.438998
C29	C	1.450037	-0.948944	0.438803
C30	C	1.501775	-0.948517	0.295430
C31	C	1.501278	-1.071115	0.295800
C32	C	1.644315	-1.071013	0.399367
C33	C	1.643627	-0.948406	0.401176
C34	C	1.808534	-0.510684	0.378152
C35	C	1.926364	-0.510692	0.378154
C36	C	1.532093	-0.510586	0.582889
C37	C	1.532120	-0.510553	0.670139
C38	C	1.532135	-0.234159	0.378173
C39	C	1.532181	-0.116329	0.378185
C40	C	1.532026	-0.510666	0.174197
C41	C	1.532204	-0.510400	0.086948
C42	C	1.599951	-0.442750	0.711139
C43	C	1.599964	-0.442714	0.793120
C44	C	1.532150	-0.510489	0.834099
C45	C	1.464312	-0.578295	0.793093
C46	C	1.464294	-0.578324	0.711114
C47	C	1.464354	-0.578231	0.963963
C48	C	1.464373	-0.578204	1.045948
C49	C	1.600024	-0.442621	1.045969
C50	C	1.600007	-0.442651	0.963990
C51	C	1.532169	-0.510459	0.922990
H52	H	0.940394	-0.334893	0.360662
H53	H	1.123424	-0.574317	0.500311
Br54	Br	1.145213	-0.730296	0.415192
Br55	Br	1.312765	-1.123034	0.415930
Br56	Br	1.692094	-0.350600	1.101610
H57	H	1.469200	-1.100916	0.500540
H58	H	1.655232	-0.387469	0.930627
Br59	Br	1.372228	-0.670340	0.655470
H60	H	1.121985	-0.622969	0.277471
Br61	Br	0.922409	-0.731439	0.414741
Br62	Br	1.142884	-0.445788	0.217870
H63	H	1.409150	-0.633389	1.079311
H64	H	1.558221	-1.100771	0.248944
H65	H	1.409097	-0.633431	0.930583
H66	H	1.655176	-0.387563	0.677780
Br67	Br	0.922259	-0.443973	0.218051
Br68	Br	1.372271	-0.670269	0.848707
H69	H	1.122632	-0.337504	0.355592
Br70	Br	0.919600	-0.675499	0.264456
Br71	Br	1.145207	-0.353220	0.498666
H72	H	0.941293	-0.574440	0.499940
Br73	Br	0.922598	-0.361752	0.503119
Br74	Br	1.364656	-1.118943	0.265890
H75	H	1.468956	-0.918791	0.500143
Br76	Br	1.597841	-0.899923	0.217842
Br77	Br	1.311477	-0.900208	0.415421
H78	H	1.420659	-0.917906	0.277162
H79	H	1.655201	-0.387504	0.826498
Br80	Br	1.690295	-1.122422	0.498200
H81	H	1.707723	-0.917755	0.360108
Br82	Br	1.681641	-0.899827	0.502650
H83	H	1.705203	-1.100000	0.355074
