data_functionalizedCrystal
_audit_creation_method	'MofGen! by Chris Wilmer'
_symmetry_space_group_name_H-M	'P1'
_symmetry_Int_Tables_number	1
_symmetry_cell_setting	triclinic
loop_
_symmetry_equiv_pos_as_xyz
  x,y,z
_cell_length_a	14.853567
_cell_length_b	7.681481
_cell_length_c	8.559649
_cell_angle_alpha	85.069100
_cell_angle_beta	76.706797
_cell_angle_gamma	95.734544
loop_
_atom_site_label
_atom_site_type_symbol
_atom_site_fract_x
_atom_site_fract_y
_atom_site_fract_z
O1	O	1.172214	-0.146301	0.223675
O2	O	0.908015	-0.146331	0.248525
O3	O	1.063391	-0.146312	0.003549
O4	O	1.016838	-0.146320	0.468651
O5	O	1.082520	0.146548	-0.026671
O6	O	0.927144	0.146529	0.218304
O7	O	1.191343	0.146559	0.193454
Zn8	Zn	1.062281	0.193042	0.201081
Zn9	Zn	1.037077	-0.192814	0.240898
O10	O	1.035967	0.146540	0.438430
C11	C	0.884069	0.000096	0.232289
C12	C	0.784221	0.000084	0.228917
N13	N	1.079488	0.456378	0.173906
N14	N	1.019878	-0.456150	0.268061
C15	C	0.382865	0.000127	0.069131
C16	C	0.341228	0.000119	0.360167
C17	C	0.435039	0.000114	0.363339
C18	C	0.502768	0.000112	0.219406
C19	C	0.476686	0.000116	0.072300
C20	C	0.461128	0.000092	0.510444
C21	C	0.554944	0.000084	0.513623
C22	C	0.622676	0.000095	0.369687
C23	C	0.596589	0.000101	0.222575
C24	C	0.664318	0.000099	0.078642
C25	C	0.638233	0.000117	-0.068473
C26	C	0.544417	0.000126	-0.071636
C27	C	0.716492	0.000086	0.372850
C28	C	0.758138	0.000088	0.081811
C29	C	1.215289	0.000129	0.209691
C30	C	1.315136	0.000128	0.213064
C31	C	1.076483	0.000116	-0.071083
C32	C	1.086983	0.000107	-0.248439
C33	C	1.022875	0.000109	0.513063
C34	C	1.012373	0.000106	0.690420
H35	H	0.813280	0.000093	-0.035400
F36	F	0.918378	0.000100	-0.200655
H37	H	1.158900	0.000129	-0.331787
F38	F	0.269144	0.000100	0.513343
H39	H	0.693389	0.000104	-0.185662
F40	F	0.940343	0.445554	0.393678
H41	H	1.140346	0.531592	0.077808
H42	H	0.361623	0.000148	-0.050647
F43	F	0.516648	0.000139	-0.228191
H44	H	0.405976	0.000075	0.627629
H45	H	0.737726	0.000074	0.492628
F46	F	0.582697	0.000068	0.670193
