data_functionalizedCrystal
_audit_creation_method	'MofGen! by Chris Wilmer'
_symmetry_space_group_name_H-M	'P1'
_symmetry_Int_Tables_number	1
_symmetry_cell_setting	triclinic
loop_
_symmetry_equiv_pos_as_xyz
  x,y,z
_cell_length_a	14.971486
_cell_length_b	15.944551
_cell_length_c	13.448316
_cell_angle_alpha	89.992444
_cell_angle_beta	89.998199
_cell_angle_gamma	83.556434
loop_
_atom_site_label
_atom_site_type_symbol
_atom_site_fract_x
_atom_site_fract_y
_atom_site_fract_z
O1	O	1.186829	0.109463	-0.082580
O2	O	0.926415	0.122572	-0.082607
O3	O	1.063733	-0.006250	-0.082584
O4	O	1.049511	0.238286	-0.082603
O5	O	1.063716	-0.006258	0.082800
O6	O	0.926398	0.122564	0.082777
O7	O	1.186812	0.109456	0.082804
Cu8	Cu	1.056603	0.116009	0.097891
Cu9	Cu	1.056624	0.116018	-0.097694
O10	O	1.049494	0.238278	0.082781
C11	C	0.893082	0.121982	0.000081
C12	C	0.793787	0.120225	0.000071
C13	C	0.736480	0.195904	0.000067
C14	C	0.643182	0.194249	0.000082
C15	C	0.607194	0.116913	0.000094
C16	C	0.664508	0.041227	0.000102
C17	C	0.757804	0.042884	0.000094
C18	C	0.470049	0.037780	0.000116
C19	C	0.376747	0.036123	0.000122
C20	C	0.355428	0.189145	0.000104
C21	C	0.448724	0.190801	0.000096
C22	C	0.506032	0.115116	0.000101
C23	C	1.063134	-0.037549	0.000108
C24	C	1.061364	-0.130797	0.000109
C25	C	0.972017	-0.345738	0.000086
C26	C	1.013498	-0.406720	0.081634
C27	C	1.058162	-0.301526	0.000101
C28	C	1.013536	-0.406696	-0.081421
C29	C	1.055062	-0.466441	0.000089
C30	C	1.099667	-0.361279	0.081717
C31	C	1.099692	-0.361248	-0.081412
C32	C	1.141236	-0.422212	0.000156
C33	C	1.059945	-0.206522	0.000109
C34	C	1.053286	-0.561444	0.000088
C35	C	1.220145	0.110046	0.000113
C36	C	1.319440	0.111802	0.000117
C37	C	1.050093	0.269576	0.000087
C38	C	1.051863	0.362824	0.000080
N39	N	1.056595	0.116002	0.235456
N40	N	1.056639	0.116019	-0.235258
C41	C	1.117419	0.058983	0.287506
C42	C	1.117425	0.058982	0.391610
C43	C	1.056610	0.116005	0.443660
C44	C	0.995780	0.173027	0.391602
C45	C	0.995771	0.173023	0.287501
C46	C	0.995805	0.173033	0.608582
C47	C	0.995815	0.173038	0.712691
C48	C	1.117459	0.058992	0.712691
C49	C	1.117449	0.058988	0.608590
C50	C	1.056620	0.116011	0.556539
H51	H	0.765774	0.258881	0.000056
C52	C	0.292396	0.272403	0.000103
C53	C	0.225318	0.292310	-0.085770
C54	C	0.162284	0.375566	-0.085777
C55	C	0.166328	0.438914	0.000089
C56	C	0.233409	0.419009	0.085968
C57	C	0.296443	0.335753	0.085975
H58	H	0.222322	0.245414	-0.149339
H59	H	0.112626	0.390300	-0.149351
H60	H	0.119666	0.500545	0.000083
H61	H	0.236405	0.465905	0.149537
H62	H	0.346101	0.321019	0.149549
C63	C	0.624925	-0.043846	0.000118
C64	C	0.646551	-0.106737	-0.085753
C65	C	0.606973	-0.191812	-0.085739
C66	C	0.545768	-0.213997	0.000146
C67	C	0.524139	-0.151104	0.086024
C68	C	0.563718	-0.066029	0.086010
H69	H	0.691861	-0.090316	-0.149336
H70	H	0.622984	-0.238369	-0.149311
H71	H	0.516469	-0.276975	0.000157
H72	H	0.478829	-0.167525	0.149607
H73	H	0.547706	-0.019472	0.149582
H74	H	0.900512	-0.312499	0.000160
H75	H	0.946269	0.219464	0.566206
C76	C	0.928865	0.235747	0.230242
C77	C	0.862002	0.298501	0.287492
C78	C	0.795090	0.361224	0.230235
C79	C	0.795043	0.361193	0.115727
C80	C	0.861910	0.298436	0.058471
C81	C	0.928821	0.235713	0.115728
H82	H	0.862034	0.298526	0.372263
H83	H	0.745592	0.407680	0.272620
H84	H	0.745512	0.407624	0.073342
H85	H	0.861877	0.298411	-0.026300
H86	H	0.978320	0.189257	0.073342
C87	C	0.580148	0.277500	0.000077
C88	C	0.584176	0.340848	-0.085812
C89	C	0.521143	0.424105	-0.085813
C90	C	0.454084	0.444014	0.000076
C91	C	0.450054	0.380664	0.085972
C92	C	0.513087	0.297407	0.085972
H93	H	0.633819	0.326112	-0.149398
H94	H	0.524127	0.471001	-0.149399
H95	H	0.407424	0.505646	0.000075
H96	H	0.400411	0.395400	0.149557
H97	H	0.510103	0.250512	0.149559
H98	H	0.478022	0.253775	0.000076
C99	C	0.928912	0.235759	0.769944
C100	C	0.963856	0.300064	0.841488
C101	C	0.896951	0.362786	0.898739
C102	C	0.795101	0.361204	0.884445
C103	C	0.760152	0.296897	0.812897
C104	C	0.827057	0.234174	0.755647
H105	H	1.039256	0.301237	0.852072
H106	H	0.922824	0.410391	0.951703
H107	H	0.745574	0.407635	0.926825
H108	H	0.684752	0.295723	0.802313
H109	H	0.801184	0.186570	0.702682
H110	H	1.212804	-0.455303	0.000210
C111	C	0.337151	-0.048943	0.000153
C112	C	0.358766	-0.111824	0.086055
C113	C	0.319167	-0.196890	0.086091
C114	C	0.257953	-0.219075	0.000226
C115	C	0.236335	-0.156193	-0.085682
C116	C	0.275934	-0.071127	-0.085719
H117	H	0.404082	-0.095403	0.149623
H118	H	0.335170	-0.243439	0.149686
H119	H	0.228640	-0.282045	0.000252
H120	H	0.191019	-0.172614	-0.149251
H121	H	0.259931	-0.024577	-0.149314
C122	C	0.820846	-0.040365	0.000097
C123	C	0.816816	-0.103715	0.085984
C124	C	0.879858	-0.186965	0.085992
C125	C	0.946930	-0.206866	0.000113
C126	C	0.950963	-0.143515	-0.085780
C127	C	0.887921	-0.060264	-0.085788
H128	H	0.767163	-0.088984	0.149562
H129	H	0.876872	-0.233862	0.149576
H130	H	0.993597	-0.268493	0.000120
H131	H	1.000616	-0.158245	-0.149358
H132	H	0.890906	-0.013367	-0.149373
H133	H	0.516708	-0.023852	0.000122
H134	H	0.977055	-0.426866	0.150570
C135	C	1.148836	-0.334240	0.174962
C136	C	1.099233	-0.272422	0.249781
C137	C	1.148398	-0.245382	0.343026
C138	C	1.247166	-0.280160	0.361451
C139	C	1.296774	-0.341982	0.286630
C140	C	1.247610	-0.369022	0.193385
H141	H	1.026115	-0.246674	0.236143
H142	H	1.111674	-0.199617	0.398414
H143	H	1.283561	-0.260143	0.430477
H144	H	1.369893	-0.367730	0.300268
H145	H	1.284334	-0.414787	0.137997
H146	H	1.136104	-0.341080	-0.150351
H147	H	1.166945	0.012552	0.245134
H148	H	1.166951	0.012552	0.433989
H149	H	1.166973	0.012560	0.566210
C150	C	0.964309	-0.433876	-0.174558
C151	C	0.865271	-0.399758	-0.192458
C152	C	0.816037	-0.426934	-0.285589
C153	C	0.865842	-0.488229	-0.360819
C154	C	0.964886	-0.522351	-0.342921
C155	C	1.014120	-0.495174	-0.249791
H156	H	0.828397	-0.354380	-0.136766
H157	H	0.742718	-0.401675	-0.298837
H158	H	0.829397	-0.508347	-0.429760
H159	H	1.001760	-0.567728	-0.398614
H160	H	1.087439	-0.520434	-0.236542
H161	H	0.946260	0.219453	0.433988
H162	H	1.166987	0.012562	0.755077
