data_functionalizedCrystal
_audit_creation_method	'MofGen! by Chris Wilmer'
_symmetry_space_group_name_H-M	'P1'
_symmetry_Int_Tables_number	1
_symmetry_cell_setting	triclinic
loop_
_symmetry_equiv_pos_as_xyz
  x,y,z
_cell_length_a	15.297475
_cell_length_b	16.625546
_cell_length_c	15.298025
_cell_angle_alpha	99.684672
_cell_angle_beta	110.779159
_cell_angle_gamma	80.324704
loop_
_atom_site_label
_atom_site_type_symbol
_atom_site_fract_x
_atom_site_fract_y
_atom_site_fract_z
Zn1	Zn	1.512658	-0.436228	0.771442
Zn2	Zn	1.845991	-0.102894	1.104776
Zn3	Zn	2.179325	0.230439	1.438109
Zn4	Zn	1.485650	-0.590899	0.615903
Zn5	Zn	1.818984	-0.257566	0.949237
Zn6	Zn	2.152317	0.075768	1.282570
Zn7	Zn	1.330249	-0.436153	0.589076
Zn8	Zn	1.663582	-0.102819	0.922410
Zn9	Zn	1.996916	0.230514	1.255743
Zn10	Zn	1.357098	-0.551082	0.744514
Zn11	Zn	1.690431	-0.217748	1.077847
Zn12	Zn	2.023764	0.115585	1.411181
O13	O	1.421414	-0.503590	0.680234
O14	O	1.754747	-0.170257	1.013567
O15	O	2.088080	0.163076	1.346901
O16	O	1.639214	-0.473440	0.773306
O17	O	1.972547	-0.140107	1.106640
O18	O	2.305880	0.193226	1.439973
O19	O	1.442497	-0.587004	0.482200
O20	O	1.775830	-0.253671	0.815533
O21	O	2.109163	0.079663	1.148867
O22	O	1.354512	-0.323334	0.613310
O23	O	1.687846	0.009999	0.946643
O24	O	2.021179	0.343333	1.279977
O25	O	1.619371	-0.587077	0.659033
O26	O	1.952705	-0.253743	0.992366
O27	O	2.286038	0.079590	1.325699
O28	O	1.488528	-0.323389	0.747293
O29	O	1.821861	0.009944	1.080627
O30	O	2.155194	0.343278	1.413960
O31	O	1.328324	-0.473313	0.462490
O32	O	1.661658	-0.139979	0.795824
O33	O	1.994991	0.193354	1.129157
O34	O	1.203672	-0.434703	0.587199
O35	O	1.537005	-0.101370	0.920532
O36	O	1.870339	0.231963	1.253866
O37	O	1.400272	-0.519214	0.878231
O38	O	1.733606	-0.185880	1.211564
O39	O	2.066939	0.147453	1.544897
O40	O	1.223398	-0.519141	0.701398
O41	O	1.556731	-0.185808	1.034732
O42	O	1.890065	0.147526	1.368065
O43	O	1.514562	-0.434831	0.898015
O44	O	1.847895	-0.101497	1.231348
O45	O	2.181228	0.231836	1.564681
O46	O	1.468531	-0.698446	0.632921
O47	O	1.801864	-0.365113	0.966255
O48	O	2.135198	-0.031779	1.299588
O49	O	1.374084	-0.669192	0.727411
O50	O	1.707417	-0.335859	1.060744
O51	O	2.040751	-0.002525	1.394078
C52	C	1.179792	-0.472594	0.638466
C53	C	1.513125	-0.139261	0.971799
C54	C	1.846458	0.194073	1.305133
C55	C	1.076428	-0.459350	0.620619
C56	C	1.409762	-0.126017	0.953953
C57	C	1.743095	0.207317	1.287286
C58	C	0.826184	-0.598251	0.807788
C59	C	1.159517	-0.264918	1.141121
C60	C	1.492850	0.068415	1.474454
C61	C	0.923298	-0.610701	0.824553
C62	C	1.256632	-0.277367	1.157886
C63	C	1.589965	0.055966	1.491219
C64	C	0.961586	-0.572864	0.773571
C65	C	1.294919	-0.239531	1.106905
C66	C	1.628252	0.093803	1.440238
C67	C	0.902749	-0.522576	0.705821
C68	C	1.236082	-0.189243	1.039154
C69	C	1.569416	0.144091	1.372488
C70	C	0.805624	-0.510130	0.689049
C71	C	1.138957	-0.176797	1.022383
C72	C	1.472291	0.156536	1.355716
C73	C	0.941026	-0.484743	0.654833
C74	C	1.274359	-0.151410	0.988166
C75	C	1.607693	0.181924	1.321499
C76	C	0.882189	-0.434455	0.587083
C77	C	1.215523	-0.101122	0.920416
C78	C	1.548856	0.232212	1.253749
C79	C	0.785074	-0.422011	0.570314
C80	C	1.118408	-0.088678	0.903648
C81	C	1.451741	0.244656	1.236981
C82	C	0.746787	-0.459848	0.621296
C83	C	1.080120	-0.126515	0.954629
C84	C	1.413453	0.206819	1.287963
C85	C	1.038151	-0.497189	0.671605
C86	C	1.371484	-0.163855	1.004938
C87	C	1.704818	0.169478	1.338271
C88	C	1.017591	-0.409068	0.552866
C89	C	1.350924	-0.075734	0.886199
C90	C	1.684258	0.257599	1.219533
C91	C	0.920477	-0.396618	0.536101
C92	C	1.253810	-0.063285	0.869434
C93	C	1.587143	0.270049	1.202768
C94	C	1.421319	-0.713075	0.680180
C95	C	1.754652	-0.379742	1.013513
C96	C	2.087986	-0.046408	1.346847
C97	C	1.421369	-0.802700	0.680202
C98	C	1.754702	-0.469367	1.013536
C99	C	2.088036	-0.136034	1.346869
C100	C	1.421548	-1.130884	0.680327
C101	C	1.754881	-0.797551	1.013661
C102	C	2.088215	-0.464218	1.346994
C103	C	1.421496	-1.039573	0.680295
C104	C	1.754829	-0.706239	1.013628
C105	C	2.088162	-0.372906	1.346961
C106	C	1.421458	-0.966795	0.680264
C107	C	1.754791	-0.633462	1.013598
C108	C	2.088124	-0.300128	1.346931
C109	C	1.421407	-0.875478	0.680233
C110	C	1.754740	-0.542144	1.013566
C111	C	2.088074	-0.208811	1.346900
C112	C	1.663979	-0.534708	0.722166
C113	C	1.997313	-0.201375	1.055499
C114	C	2.330646	0.131958	1.388832
C115	C	1.767347	-0.547969	0.740034
C116	C	2.100680	-0.214636	1.073368
C117	C	2.434013	0.118698	1.406701
C118	C	1.463425	-0.472589	0.922811
C119	C	1.796758	-0.139256	1.256145
C120	C	2.130091	0.194078	1.589478
C121	C	1.481327	-0.459378	1.026183
C122	C	1.814660	-0.126045	1.359517
C123	C	2.147994	0.207289	1.692850
C124	C	1.421538	-0.293288	0.680313
C125	C	1.754871	0.040045	1.013646
C126	C	2.088204	0.373378	1.346980
C127	C	1.421591	-0.203670	0.680347
C128	C	1.754924	0.129663	1.013680
C129	C	2.088257	0.462996	1.347013
C130	C	1.549243	-0.409236	1.085046
C131	C	1.882576	-0.075903	1.418379
C132	C	2.215909	0.257431	1.751712
C133	C	1.566055	-0.396812	1.182167
C134	C	1.899389	-0.063479	1.515501
C135	C	2.232722	0.269854	1.848834
C136	C	1.514959	-0.434534	1.220437
C137	C	1.848292	-0.101201	1.553771
C138	C	2.181626	0.232132	1.887104
C139	C	1.447047	-0.484682	1.161576
C140	C	1.780380	-0.151349	1.494909
C141	C	2.113713	0.181984	1.828242
C142	C	1.430227	-0.497102	1.064444
C143	C	1.763560	-0.163769	1.397777
C144	C	2.096894	0.169564	1.731110
C145	C	1.395943	-0.522401	1.199835
C146	C	1.729277	-0.189067	1.533169
C147	C	2.062610	0.144266	1.866502
C148	C	1.328031	-0.572549	1.140974
C149	C	1.661364	-0.239215	1.474307
C150	C	1.994698	0.094118	1.807640
C151	C	1.311215	-0.584967	1.043851
C152	C	1.644548	-0.251633	1.377185
C153	C	1.977882	0.081700	1.710518
C154	C	1.362311	-0.547244	1.005581
C155	C	1.695645	-0.213911	1.338915
C156	C	2.028978	0.119422	1.672248
C157	C	1.412763	-0.509981	1.296968
C158	C	1.746096	-0.176647	1.630301
C159	C	2.079429	0.156686	1.963634
C160	C	1.293747	-0.597847	1.276366
C161	C	1.627080	-0.264514	1.609699
C162	C	1.960414	0.068820	1.943032
C163	C	1.276935	-0.610271	1.179244
C164	C	1.610268	-0.276938	1.512577
C165	C	1.943601	0.056396	1.845911
C166	C	1.379561	-0.534490	1.438599
C167	C	1.712894	-0.201156	1.771932
C168	C	2.046228	0.132177	2.105266
C169	C	1.361663	-0.547705	1.335228
C170	C	1.694996	-0.214372	1.668561
C171	C	2.028329	0.118962	2.001895
H172	H	0.872558	-0.355673	0.480938
H173	H	1.205892	-0.022340	0.814271
H174	H	1.539225	0.310993	1.147605
H175	H	1.086047	-0.538133	0.726768
H176	H	1.419380	-0.204800	1.060101
H177	H	1.752713	0.128533	1.393435
H178	H	1.348629	-0.557359	0.926498
H179	H	1.681962	-0.224026	1.259831
H180	H	2.015295	0.109307	1.593165
O181	O	1.639299	-0.342728	1.245650
O182	O	1.972632	-0.009395	1.578984
O183	O	2.305965	0.323938	1.912317
H184	H	1.694249	-0.379225	1.298078
H185	H	2.027582	-0.045892	1.631411
H186	H	2.360916	0.287442	1.964744
H187	H	1.040661	-0.583003	0.787226
H188	H	1.373995	-0.249670	1.120559
H189	H	1.707328	0.083664	1.453893
H190	H	0.971196	-0.651647	0.879713
H191	H	1.304529	-0.318314	1.213046
H192	H	1.637863	0.015019	1.546380
O193	O	1.604354	-0.368557	1.043773
O194	O	1.937687	-0.035224	1.377106
O195	O	2.271021	0.298110	1.710440
H196	H	1.581252	-0.385624	0.966347
H197	H	1.914586	-0.052291	1.299681
H198	H	2.247919	0.281042	1.633014
H199	H	0.794999	-0.629058	0.849284
H200	H	1.128333	-0.295725	1.182617
H201	H	1.461666	0.037609	1.515951
O202	O	0.642029	-0.446466	0.603160
O203	O	0.975362	-0.113133	0.936494
O204	O	1.308695	0.220200	1.269827
H205	H	0.625292	-0.481244	0.649976
H206	H	0.958625	-0.147910	0.983310
H207	H	1.291959	0.185423	1.316643
O208	O	1.238628	-0.638540	1.317627
O209	O	1.571962	-0.305206	1.650960
O210	O	1.905295	0.028127	1.984294
H211	H	1.261739	-0.621486	1.395055
H212	H	1.595073	-0.288152	1.728388
H213	H	1.928406	0.045181	2.061722
O214	O	1.486004	-0.455898	1.360458
O215	O	1.819337	-0.122565	1.693792
O216	O	2.152670	0.210769	2.027125
H217	H	1.555760	-0.481475	1.354444
H218	H	1.889094	-0.148142	1.687777
H219	H	2.222427	0.185192	2.021110
O220	O	0.721609	-0.367776	0.497240
O221	O	1.054942	-0.034443	0.830573
O222	O	1.388276	0.298891	1.163907
H223	H	0.764546	-0.343550	0.464612
H224	H	1.097879	-0.010216	0.797945
H225	H	1.431213	0.323117	1.131279
H226	H	1.048764	-0.378259	0.511351
H227	H	1.382097	-0.044926	0.844684
H228	H	1.715430	0.288407	1.178018
H229	H	1.528651	-0.424415	1.299519
H230	H	1.861984	-0.091082	1.632852
H231	H	2.195318	0.242252	1.966186
H232	H	1.255914	-0.625798	0.995928
H233	H	1.589247	-0.292464	1.329261
H234	H	1.922580	0.040869	1.662594
H235	H	1.221639	-0.651101	1.131305
H236	H	1.554973	-0.317768	1.464639
H237	H	1.888306	0.015565	1.797972
