data_functionalizedCrystal
_audit_creation_method	'MofGen! by Chris Wilmer'
_symmetry_space_group_name_H-M	'P1'
_symmetry_Int_Tables_number	1
_symmetry_cell_setting	triclinic
loop_
_symmetry_equiv_pos_as_xyz
  x,y,z
_cell_length_a	14.971486
_cell_length_b	10.268362
_cell_length_c	14.971494
_cell_angle_alpha	90.003567
_cell_angle_beta	83.615843
_cell_angle_gamma	89.999627
loop_
_atom_site_label
_atom_site_type_symbol
_atom_site_fract_x
_atom_site_fract_y
_atom_site_fract_z
O1	O	1.186948	0.108145	0.116563
O2	O	1.686948	0.608145	0.616563
O3	O	0.926549	0.108180	0.130522
O4	O	1.426549	0.608180	0.630522
O5	O	1.063724	0.108159	-0.006657
O6	O	1.563724	0.608159	0.493343
O7	O	1.049773	0.108167	0.253742
O8	O	1.549773	0.608167	0.753742
O9	O	1.063712	-0.108442	-0.006663
O10	O	1.563712	0.391558	0.493337
O11	O	0.926537	-0.108420	0.130516
O12	O	1.426537	0.391580	0.630516
O13	O	1.186936	-0.108455	0.116557
O14	O	1.686936	0.391545	0.616557
Cu15	Cu	1.056735	-0.128215	0.123536
Cu16	Cu	1.556735	0.371785	0.623536
Cu17	Cu	1.056749	0.127940	0.123543
Cu18	Cu	1.556749	0.627940	0.623543
O19	O	1.049761	-0.108434	0.253736
O20	O	1.549761	0.391566	0.753736
C21	C	0.893218	-0.000116	0.129895
C22	C	1.393218	0.499884	0.629895
C23	C	0.793921	-0.000102	0.128024
C24	C	1.293921	0.499898	0.628024
N25	N	1.056732	-0.308381	0.123531
N26	N	1.556732	0.191619	0.623531
C27	C	0.736698	-0.000102	0.208613
C28	C	1.236698	0.499898	0.708613
C29	C	0.643398	-0.000121	0.206850
C30	C	1.143398	0.499879	0.706850
C31	C	0.607323	-0.000132	0.124497
C32	C	1.107323	0.499868	0.624497
C33	C	0.664554	-0.000136	0.043902
C34	C	1.164554	0.499864	0.543902
C35	C	0.757851	-0.000126	0.045666
C36	C	1.257851	0.499874	0.545666
C37	C	0.470091	-0.000154	0.040231
C38	C	0.970091	0.499846	0.540231
C39	C	0.376787	-0.000162	0.038466
C40	C	0.876787	0.499838	0.538466
C41	C	0.355638	-0.000149	0.201415
C42	C	0.855638	0.499851	0.701415
C43	C	0.448936	-0.000139	0.203179
C44	C	0.948936	0.499861	0.703179
C45	C	0.506160	-0.000141	0.122583
C46	C	1.006160	0.499859	0.622583
C47	C	1.056745	-0.574052	0.123541
C48	C	1.556745	-0.074052	0.623541
C49	C	1.056735	-0.426214	0.123538
C50	C	1.556735	0.073786	0.623538
C51	C	1.220267	-0.000157	0.117184
C52	C	1.720267	0.499843	0.617184
C53	C	1.319564	-0.000161	0.119055
C54	C	1.819564	0.499839	0.619055
C55	C	1.063093	-0.000139	-0.039985
C56	C	1.563093	0.499861	0.460015
C57	C	1.061219	-0.000133	-0.139281
C58	C	1.561219	0.499867	0.360719
N59	N	1.056760	0.308106	0.123541
N60	N	1.556760	0.808106	0.623541
C61	C	1.060347	0.117938	-0.185923
C62	C	1.560347	0.617938	0.314077
C63	C	1.058581	0.117939	-0.279222
C64	C	1.558581	0.617939	0.220778
C65	C	1.057693	-0.000131	-0.325879
C66	C	1.557693	0.499869	0.174121
C67	C	1.058562	-0.118210	-0.279230
C68	C	1.558562	0.381790	0.220770
C69	C	1.060322	-0.118211	-0.185932
C70	C	1.560322	0.381789	0.314068
C71	C	1.054896	-0.118201	-0.473693
C72	C	1.554896	0.381799	0.026307
C73	C	1.053138	-0.118201	-0.566998
C74	C	1.553138	0.381799	-0.066998
C75	C	1.053155	0.117949	-0.566983
C76	C	1.553155	0.617949	-0.066983
C77	C	1.054915	0.117949	-0.473685
C78	C	1.554915	0.617949	0.026315
C79	C	1.055786	-0.000131	-0.427043
C80	C	1.555786	0.499869	0.072957
C81	C	1.050392	-0.000133	0.287064
C82	C	1.550392	0.499867	0.787064
C83	C	1.052266	-0.000131	0.386360
C84	C	1.552266	0.499869	0.886360
H85	H	0.766062	-0.000092	0.275674
H86	H	1.266062	0.499908	0.775674
Br87	Br	0.547752	-0.000163	-0.069150
Br88	Br	1.047752	0.499837	0.430850
Br89	Br	0.565741	-0.000116	0.316225
Br90	Br	1.065741	0.499884	0.816225
H91	H	0.804442	-0.000126	-0.019958
H92	H	1.304442	0.499874	0.480042
H93	H	1.055645	0.214092	-0.435701
H94	H	1.555645	0.714092	0.064299
Br95	Br	1.061562	0.278185	-0.122614
Br96	Br	1.561562	0.778185	0.377386
H97	H	1.052407	-0.214344	-0.604982
H98	H	1.552407	0.285656	-0.104982
Br99	Br	0.615596	-0.000164	-0.067865
Br100	Br	1.115596	0.499836	0.432135
H101	H	0.478304	-0.000118	0.270238
H102	H	0.978304	0.499882	0.770238
Br103	Br	0.277979	-0.000145	0.310795
Br104	Br	0.777979	0.499855	0.810795
H105	H	1.057875	0.214084	-0.317194
H106	H	1.557875	0.714084	0.182806
H107	H	1.052444	0.214094	-0.604963
H108	H	1.552444	0.714094	-0.104963
H109	H	0.347418	-0.000172	-0.028593
H110	H	0.847418	0.499828	0.471407
Br111	Br	1.056079	-0.278454	-0.410394
Br112	Br	1.556079	0.221546	0.089606
H113	H	1.057833	-0.214345	-0.317225
H114	H	1.557833	0.285655	0.182775
Br115	Br	1.061500	-0.278456	-0.122630
Br116	Br	1.561500	0.221544	0.377370
