data_functionalizedCrystal
_audit_creation_method	'MofGen! by Chris Wilmer'
_symmetry_space_group_name_H-M	'P1'
_symmetry_Int_Tables_number	1
_symmetry_cell_setting	triclinic
loop_
_symmetry_equiv_pos_as_xyz
  x,y,z
_cell_length_a	19.121063
_cell_length_b	19.121215
_cell_length_c	19.805399
_cell_angle_alpha	87.535432
_cell_angle_beta	92.411105
_cell_angle_gamma	95.002544
loop_
_atom_site_label
_atom_site_type_symbol
_atom_site_fract_x
_atom_site_fract_y
_atom_site_fract_z
Zn1	Zn	-0.234359	1.063742	-0.436177
Zn2	Zn	0.265641	1.563742	0.063823
Zn3	Zn	-0.352029	1.058631	-0.327610
Zn4	Zn	0.147971	1.558631	0.172390
Zn5	Zn	-0.239386	0.946075	-0.318359
Zn6	Zn	0.260614	1.446075	0.181641
Zn7	Zn	-0.356997	0.941017	-0.436115
Zn8	Zn	0.143003	1.441017	0.063885
O9	O	-0.295692	1.002366	-0.379565
O10	O	0.204308	1.502366	0.120435
O11	O	-0.245785	1.161529	-0.425673
O12	O	0.254215	1.661529	0.074327
O13	O	-0.337111	1.043678	-0.231667
O14	O	0.162889	1.543678	0.268333
O15	O	-0.140253	0.965939	-0.330143
O16	O	0.359747	1.465939	0.169857
O17	O	-0.332236	1.157775	-0.345909
O18	O	0.167764	1.657775	0.154091
O19	O	-0.136560	1.052388	-0.416703
O20	O	0.363440	1.552388	0.083297
O21	O	-0.254353	0.960983	-0.224870
O22	O	0.245647	1.460983	0.275130
O23	O	-0.259170	0.846938	-0.330082
O24	O	0.240830	1.346938	0.169918
O25	O	-0.340704	0.957319	-0.530839
O26	O	0.159296	1.457319	-0.030839
O27	O	-0.345579	0.843222	-0.416596
O28	O	0.154421	1.343222	0.083404
O29	O	-0.250602	1.047484	-0.530885
O30	O	0.249398	1.547484	-0.030885
O31	O	-0.451153	1.038773	-0.345849
O32	O	0.048847	1.538773	0.154151
O33	O	-0.454804	0.952363	-0.425567
O34	O	0.045196	1.452363	0.074433
C35	C	-0.303460	0.819549	-0.372329
C36	C	0.196540	1.319549	0.127671
C37	C	-0.306799	0.741338	-0.369250
C38	C	0.193201	1.241338	0.130750
C39	C	-0.478509	0.994484	-0.386720
C40	C	0.021491	1.494484	0.113280
C41	C	-0.556716	0.991176	-0.389807
C42	C	-0.056716	1.491176	0.110193
C43	C	-0.327942	0.298895	-0.349772
C44	C	0.172058	0.798895	0.150228
C45	C	-0.324800	0.372383	-0.352659
C46	C	0.175200	0.872383	0.147341
C47	C	-0.278292	0.411080	-0.395705
C48	C	0.221708	0.911080	0.104295
C49	C	-0.234918	0.376287	-0.435861
C50	C	0.265082	0.876287	0.064139
C51	C	-0.238057	0.302801	-0.432969
C52	C	0.261943	0.802801	0.067031
C53	C	-0.266564	0.633059	-0.406514
C54	C	0.233436	1.133059	0.093486
C55	C	-0.263430	0.706550	-0.409404
C56	C	0.236570	1.206550	0.090596
C57	C	-0.353312	0.702640	-0.326201
C58	C	0.146688	1.202640	0.173799
C59	C	-0.356449	0.629153	-0.323317
C60	C	0.143551	1.129153	0.176683
C61	C	-0.313073	0.594366	-0.363470
C62	C	0.186927	1.094366	0.136530
C63	C	-0.275081	0.486196	-0.398660
C64	C	0.224919	0.986196	0.101340
C65	C	-0.316280	0.519252	-0.360511
C66	C	0.183720	1.019252	0.139489
C67	C	-0.591532	1.034646	-0.349789
C68	C	-0.091532	1.534646	0.150211
C69	C	-0.665016	1.031540	-0.352696
C70	C	-0.165016	1.531540	0.147304
C71	C	-0.703682	0.984959	-0.395617
C72	C	-0.203682	1.484959	0.104383
C73	C	-0.668860	0.941486	-0.435639
C74	C	-0.168860	1.441486	0.064361
C75	C	-0.595378	0.944597	-0.432735
C76	C	-0.095378	1.444597	0.067265
C77	C	-0.925647	0.973317	-0.406462
C78	C	-0.425647	1.473317	0.093538
C79	C	-0.999135	0.970208	-0.409361
C80	C	-0.499135	1.470208	0.090639
C81	C	-0.995285	1.060262	-0.326418
C82	C	-0.495285	1.560262	0.173582
C83	C	-0.921802	1.063366	-0.323515
C84	C	-0.421802	1.563366	0.176485
C85	C	-0.886987	1.019897	-0.363540
C86	C	-0.386987	1.519897	0.136460
C87	C	-0.778794	0.981780	-0.398587
C88	C	-0.278794	1.481780	0.101413
C89	C	-0.811876	1.023079	-0.360573
C90	C	-0.311876	1.523079	0.139427
C91	C	-0.112161	1.010298	-0.372398
C92	C	0.387839	1.510298	0.127602
C93	C	-0.033951	1.013678	-0.369343
C94	C	0.466049	1.513678	0.130657
C95	C	-0.295646	1.002407	-0.556108
C96	C	0.204354	1.502407	-0.056108
C97	C	-0.295627	1.002425	-0.631340
C98	C	0.204373	1.502425	-0.131340
C99	C	-0.287895	1.185897	-0.386830
C100	C	0.212105	1.685897	0.113170
C101	C	-0.284573	1.264107	-0.389926
C102	C	0.215427	1.764107	0.110074
C103	C	-0.248709	1.049375	-0.666709
C104	C	0.251291	1.549375	-0.166709
C105	C	-0.248688	1.049383	-0.737397
C106	C	0.251312	1.549383	-0.237397
C107	C	-0.295589	1.002444	-0.772715
C108	C	0.204411	1.502444	-0.272715
C109	C	-0.342510	0.955489	-0.737341
C110	C	0.157490	1.455489	-0.237341
C111	C	-0.342527	0.955478	-0.666654
C112	C	0.157473	1.455478	-0.166654
C113	C	-0.342443	0.955531	-1.022413
C114	C	0.157557	1.455531	-0.522413
C115	C	-0.342424	0.955547	-1.093105
C116	C	0.157576	1.455547	-0.593105
C117	C	-0.248604	1.049437	-1.093156
C118	C	0.251396	1.549437	-0.593156
C119	C	-0.248621	1.049426	-1.022469
C120	C	0.251379	1.549426	-0.522469
C121	C	-0.295538	1.002468	-0.987101
C122	C	0.204462	1.502468	-0.487101
C123	C	-0.295559	1.002459	-0.910453
C124	C	0.204441	1.502459	-0.410453
C125	C	-0.295572	1.002456	-0.849362
C126	C	0.204428	1.502456	-0.349362
C127	C	-0.295686	1.002367	-0.203709
C128	C	0.204314	1.502367	0.296291
C129	C	-0.295501	1.002495	-0.128475
C130	C	0.204499	1.502495	0.371525
H131	H	-0.365818	0.267393	-0.314723
H132	H	0.134182	0.767393	0.185277
H133	H	-0.700348	0.903562	-0.470589
H134	H	-0.200348	1.403562	0.029411
Br135	Br	-0.406200	0.891753	-0.618651
Br136	Br	0.093800	1.391753	-0.118651
Br137	Br	-0.184927	1.113165	-1.141159
Br138	Br	0.315073	1.613165	-0.641159
H139	H	-0.202739	0.274478	-0.465665
H140	H	0.297261	0.774478	0.034335
H141	H	-0.225553	0.738056	-0.444456
H142	H	0.274447	1.238056	0.055544
H143	H	-0.237216	0.517712	-0.433709
H144	H	0.262784	1.017712	0.066291
Br145	Br	-0.548125	0.885604	-0.487052
Br146	Br	-0.048125	1.385604	0.012948
H147	H	-0.360115	0.400704	-0.319960
H148	H	0.139885	0.900704	0.180040
Br149	Br	-0.412175	0.749854	-0.271709
Br150	Br	0.087825	1.249854	0.228291
H151	H	-0.780392	1.061008	-0.325629
H152	H	-0.280392	1.561008	0.174371
Br153	Br	-0.207700	0.585857	-0.461013
Br154	Br	0.292300	1.085857	0.038987
Br155	Br	-0.419549	0.576640	-0.264875
Br156	Br	0.080451	1.076640	0.235125
Br157	Br	-0.539064	1.097860	-0.291529
Br158	Br	-0.039064	1.597860	0.208471
H159	H	-0.693360	1.066937	-0.320109
H160	H	-0.193360	1.566937	0.179891
Br161	Br	-0.185058	1.113087	-0.618785
Br162	Br	0.314942	1.613087	-0.118785
H163	H	-0.354145	0.487741	-0.325462
H164	H	0.145855	0.987741	0.174538
Br165	Br	-0.406081	0.891840	-1.141037
Br166	Br	0.093919	1.391840	-0.641037
H167	H	-0.380656	0.917305	-0.993626
H168	H	0.119344	1.417305	-0.493626
H169	H	-0.890321	1.101296	-0.288566
H170	H	-0.390321	1.601296	0.211434
Br171	Br	-1.042538	1.119257	-0.272106
Br172	Br	-0.542538	1.619257	0.227894
H173	H	-1.030615	0.932284	-0.444325
H174	H	-0.530615	1.432284	0.055675
H175	H	-0.897307	0.937921	-0.439050
H176	H	-0.397307	1.437921	0.060950
H177	H	-0.810284	0.943853	-0.433533
H178	H	-0.310284	1.443853	0.066467
Br179	Br	-0.406159	0.891780	-0.785271
Br180	Br	0.093841	1.391780	-0.285271
H181	H	-0.197047	0.407801	-0.470907
H182	H	0.302953	0.907801	0.029093
H183	H	-0.210431	1.087651	-0.993717
H184	H	0.289569	1.587651	-0.493717
Br185	Br	-0.185042	1.113136	-0.785398
Br186	Br	0.314958	1.613136	-0.285398
