data_functionalizedCrystal
_audit_creation_method	'MofGen! by Chris Wilmer'
_symmetry_space_group_name_H-M	'P1'
_symmetry_Int_Tables_number	1
_symmetry_cell_setting	triclinic
loop_
_symmetry_equiv_pos_as_xyz
  x,y,z
_cell_length_a	13.033409
_cell_length_b	29.839131
_cell_length_c	13.032268
_cell_angle_alpha	82.859460
_cell_angle_beta	74.837427
_cell_angle_gamma	82.872582
loop_
_atom_site_label
_atom_site_type_symbol
_atom_site_fract_x
_atom_site_fract_y
_atom_site_fract_z
Zn1	Zn	1.547172	-0.284725	0.393900
Zn2	Zn	1.569562	-0.351386	0.216298
Zn3	Zn	1.392141	-0.267828	0.238909
Zn4	Zn	1.369479	-0.351369	0.416449
O5	O	1.469589	-0.313827	0.316389
O6	O	1.698759	-0.300646	0.351441
O7	O	1.564881	-0.333237	0.070669
O8	O	1.412820	-0.207210	0.259494
O9	O	1.715208	-0.349621	0.220957
O10	O	1.526721	-0.219624	0.373365
O11	O	1.434530	-0.271848	0.087281
O12	O	1.240518	-0.271832	0.281359
O13	O	1.374197	-0.349593	0.562086
O14	O	1.223869	-0.333208	0.411797
O15	O	1.504747	-0.300630	0.545519
O16	O	1.542907	-0.414243	0.242823
O17	O	1.395907	-0.414230	0.389873
C18	C	1.193659	-0.300685	0.351479
C19	C	1.075612	-0.295075	0.366517
C20	C	0.909123	-0.310960	0.324103
C21	C	1.031132	-0.316760	0.308556
C22	C	1.469404	-0.430538	0.316360
C23	C	1.469417	-0.480474	0.316372
C24	C	1.546242	-0.790132	0.239903
C25	C	1.546368	-0.977813	0.239928
O26	O	1.611541	-1.002081	0.174891
N27	N	1.469799	-1.001283	0.316441
C28	C	1.393197	-0.977831	0.392957
O29	O	1.328079	-1.002101	0.458044
C30	C	1.393076	-0.790151	0.392937
C31	C	1.469644	-0.766682	0.316412
C32	C	1.622805	-0.766663	0.163386
C33	C	1.622769	-0.719745	0.163377
C34	C	1.546171	-0.696296	0.239885
C35	C	1.469608	-0.719765	0.316403
C36	C	1.316480	-0.766700	0.469457
C37	C	1.316458	-0.719777	0.469447
C38	C	1.393026	-0.696309	0.392922
C39	C	1.392974	-0.649397	0.392903
N40	N	1.469544	-0.625927	0.316390
C41	C	1.546142	-0.649376	0.239881
C42	C	1.393264	-1.076365	0.392962
C43	C	1.393293	-1.123285	0.392966
C44	C	1.546466	-1.123264	0.239937
C45	C	1.546431	-1.076343	0.239929
C46	C	1.469833	-1.052895	0.316449
C47	C	1.546061	-0.550845	0.239868
C48	C	1.546015	-0.503923	0.239863
C49	C	1.392846	-0.503949	0.392894
C50	C	1.392887	-0.550866	0.392896
C51	C	1.469504	-0.574314	0.316378
O52	O	1.327843	-0.625101	0.457913
O53	O	1.611264	-0.625100	0.174819
C54	C	1.546278	-0.837050	0.239912
C55	C	1.469716	-0.860518	0.316430
C56	C	1.393118	-0.837069	0.392939
C57	C	1.469744	-0.907438	0.316434
C58	C	1.546343	-0.930887	0.239925
C59	C	1.622912	-0.907417	0.163412
C60	C	1.622876	-0.860499	0.163403
C61	C	1.316548	-0.860539	0.469452
C62	C	1.316589	-0.907457	0.469454
C63	C	1.393188	-0.930906	0.392945
C64	C	1.746596	-0.327021	0.281162
C65	C	1.864639	-0.332643	0.266150
C66	C	1.434446	-0.326994	0.593418
C67	C	1.419471	-0.332606	0.711471
C68	C	1.469800	-0.196663	0.316437
C69	C	1.469891	-0.146734	0.316457
C70	C	1.504655	-0.300681	0.040430
C71	C	1.519837	-0.294953	-0.077649
C72	C	1.477388	-0.310881	0.755906
C73	C	1.461911	-0.316680	0.877920
H74	H	1.023374	-0.272217	0.427649
C75	C	1.602306	-0.264026	0.851730
H76	H	1.601896	-0.264187	0.778986
H77	H	1.584537	-0.233960	0.871846
H78	H	1.671372	-0.274858	0.860777
H79	H	1.685186	-0.785751	0.101082
C80	C	1.101688	-0.347643	0.225978
H81	H	1.057957	-0.360497	0.191641
H82	H	1.150835	-0.330277	0.174298
H83	H	1.139788	-0.371214	0.261062
C84	C	0.935199	-0.363524	0.183577
H85	H	0.891468	-0.376378	0.149240
H86	H	0.984346	-0.346158	0.131897
H87	H	0.973299	-0.387096	0.218661
C88	C	1.630247	-0.478110	0.155687
H89	H	1.675877	-0.498800	0.110132
H90	H	1.595527	-0.455699	0.114531
H91	H	1.671320	-0.463915	0.190476
C92	C	1.630727	-1.149062	0.155781
H93	H	1.676329	-1.128368	0.110203
H94	H	1.671809	-1.171474	0.190580
H95	H	1.596021	-1.163256	0.114630
H96	H	1.685120	-0.700640	0.101067
C97	C	1.232260	-0.792506	0.553642
H98	H	1.186654	-0.771815	0.599209
H99	H	1.191178	-0.806704	0.518878
H100	H	1.266996	-0.814916	0.594798
C101	C	1.337004	-0.363531	0.782093
H102	H	1.302669	-0.376406	0.738394
H103	H	1.372141	-0.387080	0.820193
H104	H	1.285307	-0.346182	0.831252
H105	H	1.254229	-0.926561	0.531769
H106	H	1.538427	-0.287988	0.703618
C107	C	1.379447	-0.347610	0.948543
H108	H	1.379870	-0.347453	1.021284
H109	H	1.310383	-0.336785	0.939497
H110	H	1.397232	-0.377678	0.928426
H111	H	0.856881	-0.288106	0.385232
C112	C	1.630662	-1.050532	0.155761
H113	H	1.676285	-1.071222	0.110203
H114	H	1.595946	-1.028118	0.114607
H115	H	1.671741	-1.036341	0.190550
H116	H	1.330886	-1.057277	0.455275
C117	C	1.630329	-0.576630	0.155693
H118	H	1.675909	-0.555927	0.110120
H119	H	1.671434	-0.599042	0.190468
H120	H	1.595621	-0.590823	0.114542
C121	C	1.309065	-1.149097	0.477135
H122	H	1.320040	-1.180399	0.466183
H123	H	1.315493	-1.145517	0.546536
H124	H	1.239692	-1.137301	0.470599
H125	H	1.254083	-0.700688	0.531761
H126	H	1.330543	-0.569976	0.455212
H127	H	1.330478	-0.484848	0.455184
C128	C	1.707109	-0.834690	0.079233
H129	H	1.752732	-0.855382	0.033681
H130	H	1.672394	-0.812277	0.038074
H131	H	1.748186	-0.820497	0.114020
H132	H	1.685278	-0.926517	0.101114
H133	H	1.254174	-0.841451	0.531756
