data_functionalizedCrystal
_audit_creation_method	'MofGen! by Chris Wilmer'
_symmetry_space_group_name_H-M	'P1'
_symmetry_Int_Tables_number	1
_symmetry_cell_setting	triclinic
loop_
_symmetry_equiv_pos_as_xyz
  x,y,z
_cell_length_a	18.050591
_cell_length_b	18.050589
_cell_length_c	18.050582
_cell_angle_alpha	90.018205
_cell_angle_beta	89.979078
_cell_angle_gamma	89.975773
loop_
_atom_site_label
_atom_site_type_symbol
_atom_site_fract_x
_atom_site_fract_y
_atom_site_fract_z
Zn1	Zn	1.135293	0.295786	-0.420054
Zn2	Zn	1.135203	0.419969	-0.295873
Zn3	Zn	1.011112	0.295789	-0.295865
Zn4	Zn	1.011060	0.419930	-0.420009
O5	O	1.073167	0.357868	-0.357950
O6	O	1.239205	0.312274	-0.403603
O7	O	1.118727	0.403514	-0.191948
O8	O	1.027644	0.191864	-0.312354
O9	O	1.239140	0.403511	-0.312369
O10	O	1.118879	0.191862	-0.403595
O11	O	1.027557	0.312279	-0.191942
O12	O	0.907180	0.312241	-0.312311
O13	O	1.027555	0.403444	-0.523940
O14	O	0.907142	0.403447	-0.403519
O15	O	1.118828	0.312236	-0.523973
O16	O	1.118676	0.523888	-0.312325
O17	O	1.027468	0.523860	-0.403527
C18	C	0.880215	0.357841	-0.357909
C19	C	0.797669	0.357847	-0.357909
C20	C	1.073077	0.550820	-0.357938
C21	C	1.073107	0.633366	-0.357958
C22	C	1.073196	0.357835	-0.551656
C23	C	1.073208	0.357821	-0.634202
C24	C	0.598217	0.308191	-0.308425
C25	C	0.548798	0.375927	-0.290154
C26	C	0.646539	0.357869	-0.357943
C27	C	0.548877	0.290157	-0.376212
C28	C	0.500553	0.357885	-0.357974
C29	C	0.598206	0.425641	-0.339637
C30	C	0.598289	0.339825	-0.425726
C31	C	0.548892	0.407607	-0.407481
C32	C	0.730637	0.357859	-0.357923
C33	C	0.416457	0.357903	-0.357994
C34	C	1.266872	0.357897	-0.357992
C35	C	1.349418	0.357909	-0.358010
C36	C	1.073277	0.164163	-0.357979
C37	C	1.073324	0.081617	-0.357991
C38	C	1.023557	0.832828	-0.407536
C39	C	1.005459	0.882261	-0.339767
C40	C	1.073180	0.784497	-0.357967
C41	C	1.091314	0.882146	-0.425744
C42	C	1.073249	0.930482	-0.357983
C43	C	1.055046	0.832842	-0.290162
C44	C	1.140933	0.832722	-0.376186
C45	C	1.122861	0.882133	-0.308370
C46	C	1.073138	0.700398	-0.357959
C47	C	1.073291	1.014578	-0.357983
C48	C	1.023612	0.407353	-0.833635
C49	C	1.091367	0.425511	-0.883034
C50	C	1.073245	0.357765	-0.785332
C51	C	1.005527	0.339586	-0.883014
C52	C	1.073274	0.357711	-0.931317
C53	C	1.141036	0.375958	-0.833645
C54	C	1.055150	0.290002	-0.833620
C55	C	1.122952	0.308134	-0.882998
C56	C	1.073227	0.357797	-0.701234
C57	C	1.073300	0.357679	-1.015414
C58	C	1.073181	0.357848	-0.164998
C59	C	1.073312	0.357652	-0.082453
H60	H	0.619875	0.266226	-0.266503
C61	C	0.519415	0.396558	-0.212741
H62	H	0.490450	0.440389	-0.216044
H63	H	0.489718	0.357274	-0.194212
H64	H	0.559954	0.404747	-0.180209
H65	H	1.039669	0.811275	-0.232834
H66	H	0.527370	0.449673	-0.449370
H67	H	0.948195	0.904037	-0.324371
H68	H	1.106625	0.903802	-0.483056
H69	H	0.619785	0.482928	-0.324134
C70	C	1.179588	0.911203	-0.251689
H71	H	1.166609	0.894231	-0.203592
H72	H	1.227549	0.893492	-0.264214
H73	H	1.179590	0.963830	-0.252284
C74	C	0.627686	0.319164	-0.503121
H75	H	0.610828	0.271006	-0.516018
H76	H	0.610064	0.353966	-0.538434
H77	H	0.680310	0.319753	-0.502651
C78	C	0.519606	0.212792	-0.397075
H79	H	0.536505	0.177554	-0.361832
H80	H	0.466985	0.213460	-0.397381
H81	H	0.537288	0.199628	-0.444879
C82	C	1.179732	0.251456	-0.912102
H83	H	1.227803	0.264472	-0.895106
H84	H	1.167278	0.203484	-0.894434
H85	H	1.179153	0.251460	-0.964729
C86	C	1.218287	0.803330	-0.397012
H87	H	1.231079	0.820188	-0.445199
H88	H	1.253666	0.820963	-0.362287
H89	H	1.217835	0.750705	-0.396413
H90	H	0.981531	0.811178	-0.449395
C91	C	1.218439	0.396793	-0.804481
H92	H	1.250759	0.405444	-0.845117
H93	H	1.214985	0.440387	-0.775187
H94	H	1.237332	0.357391	-0.775156
C95	C	0.966965	0.464072	-0.804348
H96	H	0.979957	0.512178	-0.821269
H97	H	0.918972	0.451649	-0.821978
H98	H	0.967034	0.463391	-0.751723
H99	H	1.039807	0.232736	-0.811899
H100	H	1.106690	0.482794	-0.904739
C101	C	0.928149	0.318840	-0.912309
H102	H	0.892938	0.354141	-0.895398
H103	H	0.928822	0.318525	-0.964930
H104	H	0.914943	0.271059	-0.894656
