data_functionalizedCrystal
_audit_creation_method	'MofGen! by Chris Wilmer'
_symmetry_space_group_name_H-M	'P1'
_symmetry_Int_Tables_number	1
_symmetry_cell_setting	triclinic
loop_
_symmetry_equiv_pos_as_xyz
  x,y,z
_cell_length_a	12.759401
_cell_length_b	13.897448
_cell_length_c	12.759393
_cell_angle_alpha	89.970315
_cell_angle_beta	90.020938
_cell_angle_gamma	89.978906
loop_
_atom_site_label
_atom_site_type_symbol
_atom_site_fract_x
_atom_site_fract_y
_atom_site_fract_z
Zn1	Zn	1.606231	0.383929	0.594026
Zn2	Zn	1.606107	0.545255	0.418349
Zn3	Zn	1.430530	0.383980	0.418361
Zn4	Zn	1.430507	0.545188	0.593986
O5	O	1.518343	0.464588	0.506180
O6	O	1.753235	0.405336	0.570734
O7	O	1.582774	0.523912	0.271329
O8	O	1.453898	0.248992	0.441686
O9	O	1.753144	0.523862	0.441664
O10	O	1.582985	0.248954	0.570746
O11	O	1.453778	0.405423	0.271338
O12	O	1.283505	0.405358	0.441647
O13	O	1.453859	0.523747	0.741012
O14	O	1.283489	0.523797	0.570677
O15	O	1.582963	0.405271	0.741042
O16	O	1.582752	0.680228	0.441625
O17	O	1.453739	0.680179	0.570665
C18	C	1.245376	0.464576	0.506160
C19	C	1.128599	0.464595	0.506176
C20	C	1.073756	0.526359	0.573256
C21	C	0.964032	0.526363	0.573277
C22	C	0.964004	0.402834	0.439128
C23	C	1.073726	0.402827	0.439113
C24	C	1.518258	0.715203	0.506162
C25	C	1.518317	0.822416	0.506190
C26	C	1.518421	1.018711	0.506265
C27	C	1.518360	0.909479	0.506226
C28	C	1.792377	0.464601	0.506202
C29	C	1.909153	0.464606	0.506211
C30	C	1.518422	0.464496	0.780214
C31	C	1.518456	0.464456	0.896991
C32	C	1.518449	1.212995	0.506234
C33	C	1.518471	1.105781	0.506288
C34	C	1.518326	0.464611	0.233213
C35	C	1.518496	0.464379	0.116437
C36	C	1.585685	0.402756	0.951870
C37	C	1.585703	0.402714	1.061594
C38	C	1.451259	0.526082	1.061550
C39	C	1.451237	0.526118	0.951828
H40	H	0.919384	0.576657	0.627902
C41	C	1.134118	0.594298	0.647021
H42	H	1.207320	0.585457	0.637398
H43	H	1.116179	0.580265	0.717642
H44	H	1.116103	0.659093	0.631514
H45	H	1.640446	0.352470	1.106271
H46	H	1.396534	0.576286	1.106212
H47	H	1.396483	0.576361	0.907144
H48	H	1.118381	0.352524	0.384488
H49	H	0.919313	0.352547	0.384526
H50	H	1.640416	0.352544	0.907224
