data_functionalizedCrystal
_audit_creation_method	'MofGen! by Chris Wilmer'
_symmetry_space_group_name_H-M	'P1'
_symmetry_Int_Tables_number	1
_symmetry_cell_setting	triclinic
loop_
_symmetry_equiv_pos_as_xyz
  x,y,z
_cell_length_a	17.640280
_cell_length_b	12.827893
_cell_length_c	17.646359
_cell_angle_alpha	78.936564
_cell_angle_beta	92.134852
_cell_angle_gamma	101.201592
loop_
_atom_site_label
_atom_site_type_symbol
_atom_site_fract_x
_atom_site_fract_y
_atom_site_fract_z
Zn1	Zn	-0.389240	-1.604396	-0.367971
Zn2	Zn	-0.490536	-1.671707	-0.215487
Zn3	Zn	-0.363568	-1.456331	-0.241114
Zn4	Zn	-0.516174	-1.470343	-0.342323
O5	O	-0.439879	-1.550694	-0.291724
O6	O	-0.402691	-1.759562	-0.347753
O7	O	-0.452219	-1.665443	-0.112715
O8	O	-0.260714	-1.441937	-0.279401
O9	O	-0.477112	-1.809016	-0.235723
O10	O	-0.279575	-1.550720	-0.372602
O11	O	-0.358937	-1.507206	-0.131543
O12	O	-0.383797	-1.311952	-0.254531
O13	O	-0.520809	-1.465820	-0.451897
O14	O	-0.495916	-1.322247	-0.328888
O15	O	-0.427551	-1.564308	-0.470740
O16	O	-0.600195	-1.679030	-0.210853
O17	O	-0.619032	-1.531089	-0.304039
C18	C	-0.439854	-1.279182	-0.291708
C19	C	-0.439865	-1.163029	-0.291715
C20	C	-0.476606	-1.135706	-0.236231
C21	C	-0.476618	-1.015657	-0.236238
C22	C	-0.637169	-1.613909	-0.251899
C23	C	-0.721575	-1.641043	-0.234886
C24	C	-1.048293	-1.344932	-0.421238
C25	C	-1.127601	-1.370435	-0.405229
C26	C	-1.107941	-1.524549	-0.308292
C27	C	-1.028631	-1.499062	-0.324296
C28	C	-0.998813	-1.409251	-0.380769
C29	C	-0.979151	-1.563381	-0.283828
C30	C	-0.899846	-1.537891	-0.299828
C31	C	-0.870022	-1.448083	-0.356297
C32	C	-0.919509	-1.383762	-0.396770
C33	C	-1.008969	-1.653186	-0.227351
C34	C	-0.959489	-1.717505	-0.186882
C35	C	-0.880184	-1.692021	-0.202886
C36	C	-0.850360	-1.602213	-0.259355
C37	C	-0.830697	-1.756343	-0.162413
C38	C	-0.751393	-1.730853	-0.178413
C39	C	-0.771055	-1.576724	-0.275355
C40	C	-0.241822	-1.487257	-0.331721
C41	C	-0.157423	-1.460224	-0.348766
C42	C	-0.479904	-1.509118	-0.489617
C43	C	-0.496960	-1.491401	-0.573948
C44	C	-0.439898	-0.823266	-0.291735
C45	C	-0.439887	-0.939418	-0.291728
C46	C	-0.399955	-1.592151	-0.094611
C47	C	-0.382685	-1.610002	-0.010324
C48	C	-0.570172	-1.415589	0.317360
C49	C	-0.553930	-1.432387	0.396557
C50	C	-0.456213	-1.533645	0.376356
C51	C	-0.472450	-1.516859	0.297156
C52	C	-0.529430	-1.457829	0.267665
C53	C	-0.431708	-1.559099	0.247460
C54	C	-0.447941	-1.542310	0.168267
C55	C	-0.504917	-1.483280	0.138769
C56	C	-0.545663	-1.441040	0.188471
C57	C	-0.374724	-1.618123	0.276953
C58	C	-0.333982	-1.660363	0.227257
C59	C	-0.350219	-1.643580	0.148063
C60	C	-0.407195	-1.584551	0.118565
C61	C	-0.309472	-1.685821	0.098360
C62	C	-0.325706	-1.669032	0.019167
C63	C	-0.423428	-1.567761	0.039371
H64	H	-0.746779	-1.503597	-0.321347
Cl65	Cl	-0.391316	-1.061937	-0.365068
Cl66	Cl	-0.495065	-1.493558	0.002291
H67	H	-0.287587	-1.708422	0.251280
Cl68	Cl	-0.525181	-0.979241	-0.162892
Cl69	Cl	-0.354319	-1.639233	0.376512
H70	H	-0.711105	-1.783228	-0.145459
Cl71	Cl	-0.770360	-1.416241	-0.376588
H72	H	-1.073544	-1.673939	-0.214328
H73	H	-0.518128	-1.469602	0.074283
Cl74	Cl	-0.525164	-1.236800	-0.162884
Cl75	Cl	-0.617301	-1.366837	0.151391
H76	H	-0.408426	-0.963002	-0.339229
H77	H	-0.983777	-1.790627	-0.140900
Cl78	Cl	-0.882020	-1.270863	-0.467773
H79	H	-1.024017	-1.271805	-0.467230
Cl80	Cl	-1.189802	-1.289556	-0.456102
Cl81	Cl	-1.145435	-1.637452	-0.237302
H82	H	-0.854986	-1.829460	-0.116428
H83	H	-0.616576	-1.367529	0.293348
H84	H	-0.587097	-1.397961	0.437015
H85	H	-0.409818	-1.581704	0.400379
H86	H	-0.263074	-1.733874	0.122384
Cl87	Cl	-0.274466	-1.722099	-0.043316
