data_functionalizedCrystal
_audit_creation_method	'MofGen! by Chris Wilmer'
_symmetry_space_group_name_H-M	'P1'
_symmetry_Int_Tables_number	1
_symmetry_cell_setting	triclinic
loop_
_symmetry_equiv_pos_as_xyz
  x,y,z
_cell_length_a	18.101398
_cell_length_b	18.101395
_cell_length_c	15.299448
_cell_angle_alpha	99.699061
_cell_angle_beta	99.704834
_cell_angle_gamma	90.028835
loop_
_atom_site_label
_atom_site_type_symbol
_atom_site_fract_x
_atom_site_fract_y
_atom_site_fract_z
Zn1	Zn	1.204680	-0.222378	0.510277
Zn2	Zn	1.183123	-0.367661	0.359409
Zn3	Zn	1.059386	-0.243833	0.359407
Zn4	Zn	1.080781	-0.346186	0.510215
O5	O	1.131992	-0.295014	0.434827
O6	O	1.305457	-0.241658	0.490291
O7	O	1.148734	-0.369201	0.233157
O8	O	1.078727	-0.137350	0.379445
O9	O	1.289619	-0.348397	0.379449
O10	O	1.185474	-0.121587	0.490288
O11	O	1.057825	-0.278225	0.233155
O12	O	0.958587	-0.257402	0.379386
O13	O	1.115192	-0.311796	0.636475
O14	O	0.974306	-0.332600	0.490183
O15	O	1.206220	-0.220835	0.636521
O16	O	1.169479	-0.468448	0.379389
O17	O	1.094289	-0.452671	0.490185
C18	C	0.939575	-0.295000	0.434778
C19	C	0.857261	-0.295008	0.434779
C20	C	1.131890	-0.487429	0.434801
C21	C	1.131918	-0.569740	0.434819
C22	C	0.706558	-0.295017	0.434819
C23	C	0.665306	-0.247606	0.365224
C24	C	0.579721	-0.247358	0.365453
C25	C	0.558181	-0.295027	0.434857
C26	C	0.602856	-0.260669	0.530046
C27	C	0.688441	-0.260305	0.529621
C28	C	0.671435	-0.376815	0.410065
C29	C	0.585488	-0.376697	0.407991
C30	C	0.474326	-0.295033	0.434885
C31	C	0.790415	-0.295009	0.434798
C32	C	1.132087	-0.868824	0.434868
C33	C	1.084937	-0.827578	0.504751
C34	C	1.084634	-0.741992	0.504532
C35	C	1.132003	-0.720445	0.434845
C36	C	1.097353	-0.765105	0.339757
C37	C	1.097044	-0.850691	0.340175
C38	C	1.213894	-0.833709	0.459235
C39	C	1.213729	-0.747762	0.461321
C40	C	1.131956	-0.636588	0.434826
C41	C	1.132131	-0.952682	0.434881
C42	C	1.325161	-0.295030	0.434877
C43	C	1.407478	-0.295036	0.434898
C44	C	1.165497	-0.261527	0.670149
C45	C	1.179774	-0.247257	0.770429
C46	C	1.132119	-0.101846	0.434874
C47	C	1.132172	-0.019529	0.434893
C48	C	1.098661	-0.328318	0.200421
C49	C	1.084527	-0.342380	0.100141
C50	C	1.233876	-0.193192	0.817562
C51	C	1.247284	-0.179774	0.911780
C52	C	1.206597	-0.220425	0.958875
C53	C	1.152497	-0.274494	0.911742
C54	C	1.139084	-0.287909	0.817515
C55	C	1.111804	-0.315142	0.958828
C56	C	1.057705	-0.369212	0.911695
C57	C	1.044294	-0.382624	0.817477
C58	C	1.084982	-0.341974	0.770382
C59	C	1.125218	-0.301727	1.053055
C60	C	1.030425	-0.396445	1.053008
C61	C	1.017017	-0.409862	0.958790
H62	H	0.548629	-0.270382	0.294883
H63	H	1.217516	-0.209496	1.035592
Br64	Br	0.682791	-0.285763	0.247214
Br65	Br	0.943599	-0.483240	0.894814
H66	H	1.107879	-0.710911	0.575038
H67	H	0.584464	-0.201066	0.551339
H68	H	1.037705	-0.746703	0.318747
H69	H	0.683290	-0.405537	0.341812
H70	H	0.590093	-0.293561	0.583335
H71	H	0.555171	-0.402365	0.337936
H72	H	0.570778	-0.414980	0.454951
Br73	Br	1.066791	-0.360185	0.642509
H74	H	1.036842	-0.873664	0.319535
H75	H	0.997289	-0.429541	1.091353
H76	H	1.242849	-0.845574	0.527392
Br77	Br	1.289060	-0.138001	0.753645
Br78	Br	0.705062	-0.147632	0.392259
H79	H	0.698916	-0.412300	0.460754
H80	H	0.711421	-0.200121	0.550545
H81	H	0.561595	-0.187022	0.381887
Br82	Br	0.735738	-0.314164	0.619036
H83	H	1.108083	-0.838077	0.575485
Br84	Br	1.320730	-0.106426	0.975740
H85	H	1.024954	-0.851427	0.488813
Br86	Br	0.984023	-0.711762	0.477636
H87	H	1.129164	-0.879060	0.286331
Br88	Br	0.970861	-0.455991	0.753513
H89	H	1.130019	-0.752336	0.286269
H90	H	1.239614	-0.717457	0.531300
H91	H	1.251803	-0.733055	0.414132
Br92	Br	1.272727	-0.879528	0.374417
H93	H	1.169264	-0.257702	1.091422
