data_functionalizedCrystal
_audit_creation_method	'MofGen! by Chris Wilmer'
_symmetry_space_group_name_H-M	'P1'
_symmetry_Int_Tables_number	1
_symmetry_cell_setting	triclinic
loop_
_symmetry_equiv_pos_as_xyz
  x,y,z
_cell_length_a	10.654550
_cell_length_b	15.944551
_cell_length_c	9.730223
_cell_angle_alpha	89.997716
_cell_angle_beta	89.996251
_cell_angle_gamma	83.991820
loop_
_atom_site_label
_atom_site_type_symbol
_atom_site_fract_x
_atom_site_fract_y
_atom_site_fract_z
O1	O	1.666308	0.117973	-0.114406
O2	O	1.300684	0.129213	-0.114384
O3	O	1.493480	0.001376	-0.114384
O4	O	1.473511	0.245810	-0.114407
O5	O	1.493478	0.001379	0.114196
O6	O	1.300681	0.129216	0.114196
O7	O	1.666305	0.117976	0.114174
Zn8	Zn	1.483493	0.123597	0.150477
Zn9	Zn	1.483496	0.123592	-0.150687
O10	O	1.473509	0.245813	0.114173
C11	C	1.253895	0.128389	-0.000092
C12	C	1.114484	0.125920	-0.000083
C13	C	1.034024	0.201188	-0.000110
C14	C	0.903034	0.198863	-0.000134
C15	C	0.932975	0.045995	-0.000108
C16	C	1.063963	0.048321	-0.000075
C17	C	1.084545	0.278788	-0.000118
C18	C	1.004084	0.354062	-0.000147
C19	C	0.873094	0.351737	-0.000170
C20	C	0.822564	0.274137	-0.000165
C21	C	1.492650	-0.029921	-0.000093
C22	C	1.490165	-0.123182	-0.000092
C23	C	1.364720	-0.338765	-0.000104
C24	C	1.422971	-0.399443	0.112596
C25	C	1.485668	-0.293934	-0.000103
C26	C	1.423002	-0.399430	-0.112765
C27	C	1.481317	-0.458872	-0.000119
C28	C	1.543953	-0.353384	0.112691
C29	C	1.543967	-0.353364	-0.112772
C30	C	1.602306	-0.414024	-0.000045
C31	C	1.488172	-0.198917	-0.000092
C32	C	1.478822	-0.553887	-0.000119
C33	C	1.713094	0.118800	-0.000122
C34	C	1.852505	0.121269	-0.000140
C35	C	1.474339	0.277110	-0.000120
C36	C	1.476824	0.370371	-0.000130
N37	N	1.483500	0.123599	0.356013
N38	N	1.483499	0.123583	-0.356224
C39	C	1.568892	0.067012	0.427939
C40	C	1.568889	0.067002	0.571822
C41	C	1.398098	0.180173	0.571840
C42	C	1.398096	0.180178	0.427959
C43	C	1.654296	0.010433	0.355993
C44	C	1.739696	-0.046158	0.427920
C45	C	1.739693	-0.046168	0.571803
C46	C	1.654290	0.010412	0.643759
H47	H	0.891822	-0.017184	-0.000127
H48	H	1.595065	-0.333096	0.208074
H49	H	1.809222	-0.092229	0.369325
N50	N	1.055672	0.433331	-0.000159
N51	N	0.983814	0.500530	-0.000180
H52	H	1.020244	0.556516	-0.000188
N53	N	1.826912	-0.103970	0.645289
N54	N	1.904854	-0.076846	0.725588
H55	H	1.966453	-0.117670	0.777492
H56	H	0.715901	0.272250	-0.000163
H57	H	1.654286	0.010393	0.760918
N58	N	0.790890	0.428617	-0.000170
N59	N	0.714440	0.444375	0.096172
H60	H	0.656384	0.498674	0.096173
N61	N	1.146141	-0.028570	-0.000030
N62	N	1.101021	-0.097849	-0.000027
H63	H	1.159059	-0.152156	0.000014
H64	H	1.702787	-0.446602	0.000013
N65	N	1.310873	0.237958	0.645358
N66	N	1.310888	0.237944	0.773821
H67	H	1.249286	0.278756	0.825745
N68	N	1.238776	-0.297716	0.000048
N69	N	1.165576	-0.309996	0.096676
H70	H	1.076630	-0.281005	0.096789
N71	N	1.608083	-0.327747	-0.232321
N72	N	1.566861	-0.342263	-0.349257
H73	H	1.612134	-0.324170	-0.433700
N74	N	1.358788	-0.425003	-0.232275
N75	N	1.245915	-0.397884	-0.252316
H76	H	1.200554	-0.415943	-0.336714
N77	N	1.358806	-0.425034	0.232139
N78	N	1.314071	-0.371092	0.316971
H79	H	1.268747	-0.389163	0.401395
N80	N	1.654316	0.010455	0.209022
N81	N	1.751333	0.024970	0.144806
H82	H	1.751349	0.024990	0.041007
N83	N	1.218344	0.281179	-0.000106
N84	N	1.263441	0.350465	-0.000118
H85	H	1.357937	0.352154	-0.000114
N86	N	1.310860	0.237983	0.354500
N87	N	1.234622	0.288500	0.418750
H88	H	1.173006	0.329325	0.366870
