data_functionalizedCrystal
_audit_creation_method	'MofGen! by Chris Wilmer'
_symmetry_space_group_name_H-M	'P1'
_symmetry_Int_Tables_number	1
_symmetry_cell_setting	triclinic
loop_
_symmetry_equiv_pos_as_xyz
  x,y,z
_cell_length_a	16.625548
_cell_length_b	21.295419
_cell_length_c	16.625539
_cell_angle_alpha	90.018037
_cell_angle_beta	90.018832
_cell_angle_gamma	90.000443
loop_
_atom_site_label
_atom_site_type_symbol
_atom_site_fract_x
_atom_site_fract_y
_atom_site_fract_z
Zn1	Zn	-1.232775	0.250622	-0.455995
Zn2	Zn	-0.732775	0.750622	0.044005
Zn3	Zn	-1.232738	0.355892	-0.321182
Zn4	Zn	-0.732738	0.855892	0.178818
Zn5	Zn	-1.097945	0.250640	-0.321171
Zn6	Zn	-0.597945	0.750640	0.178829
Zn7	Zn	-1.097959	0.355857	-0.455967
Zn8	Zn	-0.597959	0.855857	0.044033
O9	O	-1.165354	0.303253	-0.388579
O10	O	-0.665354	0.803253	0.111421
O11	O	-1.345603	0.264593	-0.438127
O12	O	-0.845603	0.764593	0.061873
O13	O	-1.214836	0.341952	-0.208348
O14	O	-0.714836	0.841952	0.291652
O15	O	-1.115840	0.162548	-0.339063
O16	O	-0.615840	0.662548	0.160937
O17	O	-1.345575	0.341935	-0.339081
O18	O	-0.845575	0.841935	0.160919
O19	O	-1.214899	0.162535	-0.438117
O20	O	-0.714899	0.662535	0.061883
O21	O	-1.115805	0.264624	-0.208340
O22	O	-0.615805	0.764624	0.291660
O23	O	-0.985115	0.264591	-0.339036
O24	O	-0.485115	0.764591	0.160964
O25	O	-1.115864	0.341875	-0.568803
O26	O	-0.615864	0.841875	-0.068803
O27	O	-0.985125	0.341893	-0.438070
O28	O	-0.485125	0.841893	0.061930
O29	O	-1.214913	0.264559	-0.568823
O30	O	-0.714913	0.764559	-0.068823
O31	O	-1.214850	0.443977	-0.339054
O32	O	-0.714850	0.943977	0.160946
O33	O	-1.115828	0.443951	-0.438081
O34	O	-0.615828	0.943951	0.061919
C35	C	-0.955863	0.303240	-0.388550
C36	C	-0.455863	0.803240	0.111450
C37	C	-0.866242	0.303250	-0.388556
C38	C	-0.366242	0.803250	0.111444
C39	C	-1.165373	0.139063	-0.388592
C40	C	-0.665373	0.639063	0.111408
C41	C	-1.165380	0.069094	-0.388597
C42	C	-0.665380	0.569094	0.111403
C43	C	-0.538067	0.303249	-0.388581
C44	C	-0.038067	0.803249	0.111419
C45	C	-0.629375	0.303247	-0.388571
C46	C	-0.129375	0.803247	0.111429
C47	C	-0.702152	0.303250	-0.388568
C48	C	-0.202152	0.803250	0.111432
C49	C	-0.793466	0.303248	-0.388560
C50	C	-0.293466	0.803248	0.111440
C51	C	-1.113884	-0.430376	-0.440174
C52	C	-0.613884	0.069624	0.059826
C53	C	-1.113872	-0.364633	-0.440169
C54	C	-0.613872	0.135367	0.059831
C55	C	-1.165423	-0.331745	-0.388612
C56	C	-0.665423	0.168255	0.111388
C57	C	-1.216976	-0.364605	-0.337041
C58	C	-0.716976	0.135395	0.162959
C59	C	-1.216981	-0.430346	-0.337041
C60	C	-0.716981	0.069654	0.162959
N61	N	-1.235993	-0.228521	-0.382436
N62	N	-0.735993	0.271479	0.117564
N63	N	-1.235986	-0.166069	-0.382440
N64	N	-0.735986	0.333931	0.117560
C65	C	-1.165410	-0.133670	-0.388607
C66	C	-0.665410	0.366330	0.111393
N67	N	-1.094839	-0.166082	-0.394784
N68	N	-0.594839	0.333918	0.105216
N69	N	-1.094847	-0.228539	-0.394784
N70	N	-0.594847	0.271461	0.105216
C71	C	-1.165423	-0.260460	-0.388606
C72	C	-0.665423	0.239540	0.111394
C73	C	-1.113843	-0.029533	-0.440166
C74	C	-0.613843	0.470467	0.059834
C75	C	-1.113829	0.036211	-0.440156
C76	C	-0.613829	0.536211	0.059844
C77	C	-1.216941	0.036238	-0.337032
C78	C	-0.716941	0.536238	0.162968
C79	C	-1.216948	-0.029504	-0.337038
C80	C	-0.716948	0.470496	0.162962
C81	C	-1.165399	-0.062386	-0.388609
C82	C	-0.665399	0.437614	0.111391
C83	C	-0.375663	0.303262	-0.388601
C84	C	0.124337	0.803262	0.111399
C85	C	-0.465284	0.303255	-0.388590
C86	C	0.034716	0.803255	0.111410
C87	C	-1.165358	0.466804	-0.388583
C88	C	-0.665358	0.966804	0.111417
C89	C	-1.165433	0.536772	-0.388612
C90	C	-0.665433	1.036772	0.111388
C91	C	-1.165394	0.303211	-0.598888
C92	C	-0.665394	0.803211	-0.098888
C93	C	-1.165411	0.303193	-0.688509
C94	C	-0.665411	0.803193	-0.188509
C95	C	-1.165424	0.303180	-0.761291
C96	C	-0.665424	0.803180	-0.261291
C97	C	-1.165443	0.303156	-0.852600
C98	C	-0.665443	0.803156	-0.352600
C99	C	-1.165462	0.303134	-0.925376
C100	C	-0.665462	0.803134	-0.425376
C101	C	-1.165482	0.303111	-1.016691
C102	C	-0.665482	0.803111	-0.516691
C103	C	-1.165361	0.303249	-0.179088
C104	C	-0.665361	0.803249	0.320912
C105	C	-1.165501	0.303089	-0.089467
C106	C	-0.665501	0.803089	0.410533
H107	H	-1.071908	-0.457146	-0.482164
H108	H	-0.571908	0.042854	0.017836
H109	H	-1.258914	0.063015	-0.295051
H110	H	-0.758914	0.563015	0.204949
N111	N	-1.269611	-0.063056	-0.284364
N112	N	-0.769611	0.436944	0.215636
N113	N	-1.315634	-0.033686	-0.238331
N114	N	-0.815634	0.466314	0.261669
H115	H	-1.352829	-0.057381	-0.201125
H116	H	-0.852829	0.442619	0.298875
N117	N	-1.061203	-0.331077	-0.492841
N118	N	-0.561203	0.168923	0.007159
N119	N	-1.015180	-0.360443	-0.538877
N120	N	-0.515180	0.139557	-0.038877
H121	H	-0.977982	-0.336745	-0.576077
H122	H	-0.477982	0.163255	-0.076077
H123	H	-1.258949	-0.337823	-0.295061
H124	H	-0.758949	0.162177	0.204939
N125	N	-1.061186	-0.063116	-0.492847
N126	N	-0.561186	0.436884	0.007153
N127	N	-1.015156	-0.033773	-0.538878
N128	N	-0.515156	0.466227	-0.038878
H129	H	-0.977967	-0.057488	-0.576085
H130	H	-0.477967	0.442512	-0.076085
N131	N	-1.269643	-0.463897	-0.284362
N132	N	-0.769643	0.036103	0.215638
N133	N	-1.315664	-0.434529	-0.238326
N134	N	-0.815664	0.065471	0.261674
H135	H	-1.352858	-0.458224	-0.201120
H136	H	-0.852858	0.041776	0.298880
H137	H	-1.071844	0.062957	-0.482140
H138	H	-0.571844	0.562957	0.017860
