data_functionalizedCrystal
_audit_creation_method	'MofGen! by Chris Wilmer'
_symmetry_space_group_name_H-M	'P1'
_symmetry_Int_Tables_number	1
_symmetry_cell_setting	triclinic
loop_
_symmetry_equiv_pos_as_xyz
  x,y,z
_cell_length_a	12.827893
_cell_length_b	16.959453
_cell_length_c	12.827885
_cell_angle_alpha	90.034004
_cell_angle_beta	90.019081
_cell_angle_gamma	90.024792
loop_
_atom_site_label
_atom_site_type_symbol
_atom_site_fract_x
_atom_site_fract_y
_atom_site_fract_z
Zn1	Zn	1.597601	-0.314644	0.590813
Zn2	Zn	1.597466	-0.446843	0.416060
Zn3	Zn	1.422843	-0.314682	0.416087
Zn4	Zn	1.422799	-0.446784	0.590761
O5	O	1.510177	-0.380738	0.503430
O6	O	1.743819	-0.332189	0.567642
O7	O	1.574264	-0.429352	0.269828
O8	O	1.446099	-0.204066	0.439298
O9	O	1.743720	-0.429315	0.439252
O10	O	1.574494	-0.204038	0.567668
O11	O	1.445969	-0.332255	0.269847
O12	O	1.276601	-0.332197	0.439247
O13	O	1.446025	-0.429215	0.737004
O14	O	1.276569	-0.429252	0.567579
O15	O	1.574451	-0.332132	0.737042
O16	O	1.574222	-0.557446	0.439202
O17	O	1.445895	-0.557403	0.567553
C18	C	1.238667	-0.380723	0.503411
C19	C	1.122514	-0.380736	0.503428
C20	C	0.950734	-0.332774	0.567074
C21	C	1.070784	-0.332760	0.567058
C22	C	1.510067	-0.586105	0.503392
C23	C	1.510116	-0.673961	0.503410
C24	C	1.443269	-0.715242	0.570190
C25	C	1.577015	-0.715234	0.436654
C26	C	1.577067	-0.797780	0.436673
C27	C	1.510220	-0.839061	0.503452
C28	C	1.443321	-0.797795	0.570213
C29	C	1.643972	-0.839052	0.369921
C30	C	1.644027	-0.921603	0.369938
C31	C	1.577174	-0.962885	0.436713
C32	C	1.510272	-0.921614	0.503476
C33	C	1.443425	-0.962895	0.570255
C34	C	1.376516	-0.921626	0.637013
C35	C	1.376468	-0.839077	0.636988
C36	C	1.577223	-1.045433	0.436738
C37	C	1.443477	-1.045448	0.570278
C38	C	1.782747	-0.380754	0.503450
C39	C	1.898901	-0.380761	0.503458
C40	C	1.510248	-0.380663	0.776000
C41	C	1.510279	-0.380630	0.892154
C42	C	1.510316	-0.174570	0.503492
C43	C	1.510375	-0.086714	0.503518
C44	C	1.510167	-0.380757	0.231920
C45	C	1.510339	-0.380567	0.115768
C46	C	1.573835	-0.332581	0.943957
C47	C	1.573868	-0.332547	1.064008
H48	H	0.943401	-0.421839	0.448989
H49	H	1.077946	-0.421820	0.448959
O50	O	1.123839	-0.283785	0.632183
C51	C	1.157585	-0.245630	0.810001
C52	C	1.097416	-0.301132	0.736361
H53	H	1.136261	-0.259646	0.894245
H54	H	1.136182	-0.181852	0.791911
H55	H	1.244926	-0.254338	0.798356
H56	H	1.010061	-0.292494	0.747964
H57	H	1.118906	-0.364889	0.754469
H58	H	1.389041	-1.079053	0.624659
H59	H	1.321994	-0.805471	0.691341
H60	H	1.322094	-0.955247	0.691390
H61	H	1.631445	-0.681621	0.382289
O62	O	1.445535	-0.429763	1.062679
C63	C	1.394712	-0.564201	1.029084
C64	C	1.468178	-0.508576	1.089264
H65	H	1.412978	-0.627933	1.050572
H66	H	1.406262	-0.555554	0.941720
H67	H	1.310448	-0.550288	1.050461
H68	H	1.552471	-0.522455	1.067974
H69	H	1.456538	-0.517234	1.176613
H70	H	1.388790	-0.681639	0.624540
O71	O	0.897772	-0.283662	0.632018
C72	C	0.864198	-0.149280	0.682999
C73	C	0.924255	-0.204811	0.609398
H74	H	0.885570	-0.085516	0.664722
H75	H	0.885655	-0.163155	0.767263
H76	H	0.776839	-0.158062	0.671453
H77	H	1.011627	-0.196059	0.620850
H78	H	0.902711	-0.190922	0.525161
H79	H	1.628220	-0.291467	0.899432
O80	O	1.708807	-0.798832	0.305093
C81	C	1.768040	-0.671652	0.245926
C82	C	1.694541	-0.717107	0.319383
H83	H	1.756547	-0.605569	0.257470
H84	H	1.749757	-0.687887	0.161625
H85	H	1.852291	-0.687856	0.264357
H86	H	1.610265	-0.700927	0.301047
H87	H	1.712914	-0.700868	0.403663
O88	O	1.709046	-0.961565	0.304988
C89	C	1.841740	-0.952839	0.172575
C90	C	1.768147	-0.907482	0.246062
H91	H	1.889558	-0.909132	0.124930
H92	H	1.793866	-0.991526	0.117826
H93	H	1.896331	-0.991445	0.220627
H94	H	1.713541	-0.868833	0.198094
H95	H	1.816085	-0.868844	0.300814
H96	H	1.631705	-1.079031	0.382391
O97	O	1.638685	-0.283491	1.117308
C98	C	1.697888	-0.238784	1.285561
C99	C	1.624413	-0.294369	1.225327
H100	H	1.686391	-0.247571	1.372905
H101	H	1.679587	-0.175022	1.264257
H102	H	1.782146	-0.252648	1.264101
H103	H	1.540130	-0.280576	1.246754
H104	H	1.642804	-0.358114	1.246636
H105	H	1.455883	-0.421736	0.936679
