data_functionalizedCrystal
_audit_creation_method	'MofGen! by Chris Wilmer'
_symmetry_space_group_name_H-M	'P1'
_symmetry_Int_Tables_number	1
_symmetry_cell_setting	triclinic
loop_
_symmetry_equiv_pos_as_xyz
  x,y,z
_cell_length_a	14.908932
_cell_length_b	12.827892
_cell_length_c	12.827885
_cell_angle_alpha	90.029976
_cell_angle_beta	93.272666
_cell_angle_gamma	86.684958
loop_
_atom_site_label
_atom_site_type_symbol
_atom_site_fract_x
_atom_site_fract_y
_atom_site_fract_z
Zn1	Zn	-1.379220	-0.323766	0.498848
Zn2	Zn	-1.379128	-0.498550	0.324114
Zn3	Zn	-1.228356	-0.333904	0.334185
Zn4	Zn	-1.228343	-0.508554	0.508872
O5	O	-1.303762	-0.416194	0.416505
O6	O	-1.505449	-0.338522	0.467260
O7	O	-1.359095	-0.476765	0.179216
O8	O	-1.248412	-0.186320	0.356048
O9	O	-1.505382	-0.466935	0.338883
O10	O	-1.359251	-0.178872	0.477025
O11	O	-1.248323	-0.355801	0.186615
O12	O	-1.102113	-0.365501	0.365767
O13	O	-1.248390	-0.483985	0.653776
O14	O	-1.102104	-0.493816	0.494109
O15	O	-1.359239	-0.348223	0.646412
O16	O	-1.359083	-0.646116	0.348603
O17	O	-1.248302	-0.653466	0.484344
C18	C	-1.069376	-0.431845	0.432119
C19	C	-0.969104	-0.438566	0.438824
C20	C	-0.827795	-0.514946	0.514975
C21	C	-0.922009	-0.508632	0.508684
C22	C	-0.921979	-0.374811	0.375248
C23	C	-0.827765	-0.381126	0.381539
C24	C	-0.780676	-0.451194	0.451405
C25	C	-0.686460	-0.457503	0.457701
C26	C	-0.686432	-0.323688	0.324260
C27	C	-0.780646	-0.317374	0.317970
C28	C	-1.303706	-0.687707	0.416489
C29	C	-1.303764	-0.803856	0.416512
C30	C	-0.539063	-0.400472	0.400824
C31	C	-0.639335	-0.393748	0.394125
C32	C	-1.358586	-0.851874	0.476434
C33	C	-1.358648	-0.971920	0.476459
C34	C	-1.303823	-0.416089	0.689071
C35	C	-1.303850	-0.416045	0.805223
C36	C	-1.303843	-0.143618	0.416542
C37	C	-1.303878	-0.027463	0.416557
C38	C	-1.303753	-0.416219	0.144996
C39	C	-1.303901	-0.415957	0.028833
C40	C	-1.358707	-0.348852	0.853363
C41	C	-1.358735	-0.348805	0.973411
H42	H	-0.648122	-0.514553	0.514594
O43	O	-1.247968	-0.484738	0.979480
C44	C	-1.204119	-0.665408	0.948822
C45	C	-1.267529	-0.587627	1.004768
H46	H	-1.219899	-0.748610	0.969263
H47	H	-1.214088	-0.653308	0.860792
H48	H	-1.131373	-0.651877	0.975050
H49	H	-1.340299	-0.601111	0.978625
H50	H	-1.257483	-0.599746	1.092787
H51	H	-1.256899	-0.473529	0.852884
H52	H	-0.789455	-0.571990	0.571872
H53	H	-0.960370	-0.560546	0.560448
O54	O	-1.414499	-0.794742	0.537521
C55	C	-1.465352	-0.623009	0.593275
C56	C	-1.401998	-0.687578	0.524023
H57	H	-1.455254	-0.536355	0.582402
H58	H	-1.538151	-0.639401	0.570165
H59	H	-1.449509	-0.645482	0.678592
H60	H	-1.417760	-0.665143	0.438687
H61	H	-1.329218	-0.671179	0.547222
H62	H	-1.405648	-0.291358	0.805702
O63	O	-1.414680	-0.280209	1.022975
C64	C	-1.465781	-0.217686	1.187816
C65	C	-1.402362	-0.295414	1.131817
H66	H	-1.455857	-0.229967	1.275823
H67	H	-1.449970	-0.134445	1.167561
H68	H	-1.538520	-0.231152	1.161506
H69	H	-1.329601	-0.282043	1.158096
H70	H	-1.418250	-0.378628	1.152073
H71	H	-1.256870	-0.851621	0.365234
O72	O	-1.414560	-1.021358	0.537637
C73	C	-1.465666	-1.186082	0.593362
C74	C	-1.402284	-1.130226	0.524044
H75	H	-1.455777	-1.274109	0.582380
H76	H	-1.449787	-1.165776	0.678706
H77	H	-1.538413	-1.159697	0.570260
H78	H	-1.329516	-1.156580	0.547053
H79	H	-1.418240	-1.150531	0.438717
H80	H	-0.960334	-0.317773	0.318358
O81	O	-1.247752	-0.978321	0.355410
C82	C	-1.094328	-0.955121	0.314830
C83	C	-1.157789	-1.010874	0.384132
H84	H	-1.021579	-0.981402	0.338040
H85	H	-1.110127	-0.975532	0.229496
H86	H	-1.104302	-0.867086	0.325694
H87	H	-1.147850	-1.098920	0.373358
H88	H	-1.141974	-0.990377	0.469440
O89	O	-0.826493	-0.249452	0.250049
C90	C	-0.932778	-0.228108	0.101847
C91	C	-0.880929	-0.305144	0.178711
H92	H	-0.976787	-0.273107	0.044138
H93	H	-0.976972	-0.170582	0.146913
H94	H	-0.882900	-0.183600	0.057542
H95	H	-0.930742	-0.349724	0.223037
H96	H	-0.836721	-0.362602	0.133587
O97	O	-0.640799	-0.261647	0.262461
C98	C	-0.650716	-0.128289	0.129407
C99	C	-0.702506	-0.198474	0.199343
H100	H	-0.700582	-0.077212	0.078342
H101	H	-0.606658	-0.076585	0.180373
H102	H	-0.606554	-0.179175	0.077677
H103	H	-0.746716	-0.147669	0.251084
H104	H	-0.746506	-0.250184	0.148316
