data_functionalizedCrystal
_audit_creation_method	'MofGen! by Chris Wilmer'
_symmetry_space_group_name_H-M	'P1'
_symmetry_Int_Tables_number	1
_symmetry_cell_setting	triclinic
loop_
_symmetry_equiv_pos_as_xyz
  x,y,z
_cell_length_a	25.639239
_cell_length_b	19.121102
_cell_length_c	19.120904
_cell_angle_alpha	89.911827
_cell_angle_beta	92.410104
_cell_angle_gamma	92.407118
loop_
_atom_site_label
_atom_site_type_symbol
_atom_site_fract_x
_atom_site_fract_y
_atom_site_fract_z
Zn1	Zn	-0.255751	-1.054765	-0.442042
Zn2	Zn	-0.339618	-1.059658	-0.324799
Zn3	Zn	-0.248315	-0.942536	-0.319827
Zn4	Zn	-0.339266	-0.937469	-0.437001
O5	O	-0.295738	-0.998607	-0.380917
O6	O	-0.270136	-1.153518	-0.430680
O7	O	-0.324541	-1.048290	-0.226035
O8	O	-0.176139	-0.957496	-0.336067
O9	O	-0.331752	-1.157113	-0.344542
O10	O	-0.181603	-1.039950	-0.425859
O11	O	-0.257461	-0.962241	-0.222382
O12	O	-0.257121	-0.843760	-0.331180
O13	O	-0.331153	-0.948861	-0.535775
O14	O	-0.323942	-0.840037	-0.417267
O15	O	-0.269795	-1.035037	-0.539478
O16	O	-0.412733	-1.043377	-0.339654
O17	O	-0.412475	-0.953605	-0.422089
C18	C	-0.289687	-0.816461	-0.373137
C19	C	-0.287111	-0.738537	-0.369826
C20	C	-0.431575	-0.998491	-0.380880
C21	C	-0.489690	-0.998504	-0.380890
C22	C	-0.301264	-0.990838	-0.563775
C23	C	-0.303619	-0.987527	-0.641698
C24	C	-0.850185	-1.045465	-0.338075
C25	C	-0.904791	-1.045491	-0.338085
O26	O	-0.933135	-1.085298	-0.301642
N27	N	-0.931982	-0.998728	-0.380969
C28	C	-0.904565	-0.951940	-0.423850
O29	O	-0.932708	-0.912167	-0.460327
C30	C	-0.849961	-0.951917	-0.423843
C31	C	-0.822772	-0.998679	-0.380951
C32	C	-0.822997	-1.092223	-0.295188
C33	C	-0.768395	-1.092195	-0.295176
C34	C	-0.740982	-1.045409	-0.338052
C35	C	-0.768171	-0.998651	-0.380940
C36	C	-0.822546	-0.905133	-0.466727
C37	C	-0.767938	-0.905115	-0.466716
C38	C	-0.740749	-0.951876	-0.423825
C39	C	-0.686156	-0.951837	-0.423805
N40	N	-0.658965	-0.998600	-0.380921
C41	C	-0.686378	-1.045386	-0.338045
C42	C	-1.019238	-0.951992	-0.423863
C43	C	-1.073841	-0.952011	-0.423867
C44	C	-1.074063	-1.045564	-0.338103
C45	C	-1.019459	-1.045541	-0.338096
C46	C	-0.992047	-0.998756	-0.380980
C47	C	-0.571710	-1.045324	-0.338024
C48	C	-0.517103	-1.045290	-0.338014
C49	C	-0.516886	-0.951740	-0.423780
C50	C	-0.571488	-0.951771	-0.423788
C51	C	-0.598899	-0.998569	-0.380907
O52	O	-0.657777	-0.912052	-0.460232
O53	O	-0.658229	-1.085159	-0.301581
C54	C	-0.159371	-0.998742	-0.380971
C55	C	-0.101259	-0.998800	-0.380993
C56	C	-0.301813	-1.181464	-0.388728
C57	C	-0.304401	-1.259387	-0.392057
C58	C	-0.320740	-0.700012	-0.413021
C59	C	-0.318313	-0.626794	-0.409912
C60	C	-0.282260	-0.592104	-0.363605
C61	C	-0.248627	-0.630634	-0.320408
C62	C	-0.251052	-0.703850	-0.323520
C63	C	-0.273194	-0.371134	-0.351972
C64	C	-0.270773	-0.297913	-0.348862
C65	C	-0.340458	-0.294078	-0.438367
C66	C	-0.342882	-0.367296	-0.441472
C67	C	-0.309247	-0.405820	-0.398278
C68	C	-0.279779	-0.517264	-0.360425
C69	C	-0.311726	-0.480658	-0.401462
C70	C	-0.272781	-1.030837	-0.680236
C71	C	-0.274992	-1.027718	-0.753453
C72	C	-0.308044	-0.981292	-0.788130
C73	C	-0.338883	-0.937977	-0.749587
C74	C	-0.336669	-0.941093	-0.676372
C75	C	-0.316324	-0.969635	-1.009097
C76	C	-0.318536	-0.966523	-1.082318
C77	C	-0.254644	-1.056263	-1.086178
C78	C	-0.252436	-1.059378	-1.012961
C79	C	-0.283273	-1.016061	-0.974424
C80	C	-0.310306	-0.978104	-0.862970
C81	C	-0.281008	-1.019246	-0.899586
C82	C	-0.290196	-1.006386	-0.198772
C83	C	-0.287698	-1.009833	-0.120856
H84	H	-0.594021	-1.083432	-0.303108
O85	O	-0.487316	-0.901278	-0.470025
H86	H	-0.464527	-0.931105	-0.507053
H87	H	-0.367840	-0.262704	-0.473534
H88	H	-0.345452	-0.928715	-1.110550
H89	H	-0.746261	-1.130274	-0.260252
O90	O	-0.214781	-0.745408	-0.276933
H91	H	-0.238166	-0.780262	-0.242630
O92	O	-0.852559	-1.142684	-0.248934
H93	H	-0.824471	-1.175185	-0.219111
H94	H	-0.372241	-0.395536	-0.479179
H95	H	-0.249882	-1.062987	-0.784827
H96	H	-0.996922	-0.913888	-0.458781
H97	H	-0.997325	-1.083618	-0.303171
O98	O	-0.349554	-0.922881	-0.967534
H99	H	-0.372901	-0.890067	-1.003950
H100	H	-0.593627	-0.913696	-0.458716
H101	H	-0.361775	-0.905819	-0.644995
O102	O	-1.103163	-0.901565	-0.470117
H103	H	-1.130129	-0.931403	-0.507154
H104	H	-0.345698	-0.595430	-0.445086
H105	H	-0.844673	-0.867052	-0.501650
O106	O	-0.231881	-0.260491	-0.298919
H107	H	-0.208896	-0.299579	-0.269411
H108	H	-0.245810	-0.402492	-0.316795
O109	O	-0.209752	-0.593224	-0.270443
H110	H	-0.213723	-0.535840	-0.275522
O111	O	-0.359624	-0.737428	-0.462969
H112	H	-0.382596	-0.698335	-0.492489
H113	H	-1.096393	-1.083662	-0.303194
O114	O	-0.216790	-1.109455	-0.975558
H115	H	-0.195715	-1.139046	-1.014657
O116	O	-0.374530	-0.887897	-0.786984
H117	H	-0.370892	-0.893009	-0.844371
H118	H	-0.254095	-1.057043	-0.871348
O119	O	-0.240913	-0.479835	-0.310462
H120	H	-0.214197	-0.445157	-0.340476
H121	H	-0.337219	-0.940307	-0.891213
H122	H	-0.341078	-0.508906	-0.439168
H123	H	-0.229538	-1.091528	-1.117562
O124	O	-0.237135	-1.080914	-0.642833
H125	H	-0.196127	-1.068330	-0.656382
O126	O	-0.487777	-1.095734	-0.291760
H127	H	-0.496225	-1.086108	-0.236217
O128	O	-0.738370	-0.854644	-0.512961
H129	H	-0.766454	-0.822130	-0.542777
