data_functionalizedCrystal
_audit_creation_method	'MofGen! by Chris Wilmer'
_symmetry_space_group_name_H-M	'P1'
_symmetry_Int_Tables_number	1
_symmetry_cell_setting	triclinic
loop_
_symmetry_equiv_pos_as_xyz
  x,y,z
_cell_length_a	16.959455
_cell_length_b	18.101397
_cell_length_c	16.959447
_cell_angle_alpha	89.966244
_cell_angle_beta	89.977004
_cell_angle_gamma	90.017485
loop_
_atom_site_label
_atom_site_type_symbol
_atom_site_fract_x
_atom_site_fract_y
_atom_site_fract_z
Zn1	Zn	1.208402	-0.294873	-0.447018
Zn2	Zn	1.541735	0.038460	-0.113685
Zn3	Zn	1.875069	0.371793	0.219649
Zn4	Zn	1.208318	-0.418726	-0.314832
Zn5	Zn	1.541651	-0.085393	0.018502
Zn6	Zn	1.874984	0.247940	0.351835
Zn7	Zn	1.076225	-0.294897	-0.314841
Zn8	Zn	1.409558	0.038437	0.018492
Zn9	Zn	1.742891	0.371770	0.351825
Zn10	Zn	1.076194	-0.418671	-0.446956
Zn11	Zn	1.409528	-0.085338	-0.113623
Zn12	Zn	1.742861	0.247996	0.219710
O13	O	1.142285	-0.356792	-0.380912
O14	O	1.475618	-0.023458	-0.047578
O15	O	1.808951	0.309875	0.285755
O16	O	1.319002	-0.311316	-0.429505
O17	O	1.652335	0.022017	-0.096171
O18	O	1.985668	0.355351	0.237162
O19	O	1.190773	-0.402333	-0.204222
O20	O	1.524106	-0.069000	0.129111
O21	O	1.857439	0.264334	0.462445
O22	O	1.093806	-0.191261	-0.332405
O23	O	1.427139	0.142073	0.000928
O24	O	1.760473	0.475406	0.334262
O25	O	1.318940	-0.402310	-0.332388
O26	O	1.652273	-0.068977	0.000945
O27	O	1.985606	0.264356	0.334279
O28	O	1.190916	-0.191243	-0.429514
O29	O	1.524250	0.142090	-0.096181
O30	O	1.857583	0.475423	0.237152
O31	O	1.093724	-0.311356	-0.204229
O32	O	1.427058	0.021977	0.129104
O33	O	1.760391	0.355311	0.462437
O34	O	0.965610	-0.311302	-0.332345
O35	O	1.298943	0.022031	0.000988
O36	O	1.632276	0.355364	0.334322
O37	O	1.093755	-0.402216	-0.557575
O38	O	1.427088	-0.068883	-0.224242
O39	O	1.760421	0.264451	0.109091
O40	O	0.965587	-0.402239	-0.429409
O41	O	1.298921	-0.068905	-0.096076
O42	O	1.632254	0.264428	0.237257
O43	O	1.190887	-0.311262	-0.557621
O44	O	1.524221	0.022071	-0.224287
O45	O	1.857554	0.355404	0.109046
O46	O	1.190743	-0.522352	-0.332328
O47	O	1.524077	-0.189019	0.001005
O48	O	1.857410	0.144315	0.334338
O49	O	1.093673	-0.522311	-0.429400
O50	O	1.427006	-0.188978	-0.096066
O51	O	1.760339	0.144355	0.237267
C52	C	0.936918	-0.356768	-0.380872
C53	C	1.270252	-0.023434	-0.047539
C54	C	1.603585	0.309899	0.285795
C55	C	0.849062	-0.356775	-0.380874
C56	C	1.182395	-0.023442	-0.047540
C57	C	1.515728	0.309892	0.285793
C58	C	0.477543	-0.404126	-0.330317
C59	C	0.810877	-0.070792	0.003016
C60	C	1.144210	0.262541	0.336349
C61	C	0.477629	-0.309520	-0.431602
C62	C	0.810963	0.023814	-0.098269
C63	C	1.144296	0.357147	0.235064
C64	C	0.560175	-0.309507	-0.431583
C65	C	0.893508	0.023826	-0.098250
C66	C	1.226842	0.357159	0.235083
C67	C	0.601409	-0.356806	-0.380931
C68	C	0.934742	-0.023472	-0.047598
C69	C	1.268076	0.309861	0.285736
C70	C	0.560097	-0.404116	-0.330298
C71	C	0.893430	-0.070783	0.003035
C72	C	1.226763	0.262550	0.336368
C73	C	0.601493	-0.262203	-0.482221
C74	C	0.934827	0.071131	-0.148888
C75	C	1.268160	0.404464	0.184446
C76	C	0.684044	-0.262189	-0.482204
C77	C	1.017378	0.071144	-0.148871
C78	C	1.350711	0.404477	0.184462
C79	C	0.725280	-0.309485	-0.431548
C80	C	1.058613	0.023849	-0.098214
C81	C	1.391946	0.357182	0.235119
C82	C	0.683962	-0.356797	-0.380912
C83	C	1.017296	-0.023463	-0.047579
C84	C	1.350629	0.309870	0.285755
C85	C	0.725196	-0.404095	-0.330260
C86	C	1.058530	-0.070762	0.003073
C87	C	1.391863	0.262572	0.336407
C88	C	0.683881	-0.451404	-0.279620
C89	C	1.017214	-0.118071	0.053714
C90	C	1.350547	0.215263	0.387047
C91	C	0.601332	-0.451412	-0.279642
C92	C	0.934665	-0.118078	0.053692
C93	C	1.267999	0.215255	0.387025
C94	C	0.807828	-0.309477	-0.431526
C95	C	1.141161	0.023857	-0.098192
C96	C	1.474495	0.357190	0.235141
C97	C	0.807750	-0.404086	-0.330241
C98	C	1.141083	-0.070753	0.003093
C99	C	1.474416	0.262581	0.336426
C100	C	1.142217	-0.549202	-0.380873
C101	C	1.475550	-0.215869	-0.047540
C102	C	1.808884	0.117464	0.285793
C103	C	1.142260	-0.631516	-0.380884
C104	C	1.475594	-0.298183	-0.047550
C105	C	1.808927	0.035150	0.285783
C106	C	1.142361	-0.930607	-0.380956
C107	C	1.475695	-0.597274	-0.047622
C108	C	1.809028	-0.263941	0.285711
C109	C	1.203265	-0.899277	-0.319717
C110	C	1.536598	-0.565944	0.013616
C111	C	1.869932	-0.232610	0.346949
C112	C	1.203476	-0.813658	-0.319876
C113	C	1.536809	-0.480325	0.013457
C114	C	1.870143	-0.146992	0.346791
C115	C	1.142311	-0.782225	-0.380919
C116	C	1.475645	-0.448892	-0.047586
C117	C	1.808978	-0.115558	0.285747
C118	C	1.164890	-0.813229	-0.464238
C119	C	1.498224	-0.479896	-0.130905
C120	C	1.831557	-0.146562	0.202429
C121	C	1.165362	-0.898874	-0.463904
C122	C	1.498695	-0.565541	-0.130571
C123	C	1.832028	-0.232207	0.202762
C124	C	1.058716	-0.899113	-0.359596
C125	C	1.392049	-0.565780	-0.026263
C126	C	1.725383	-0.232447	0.307070
C127	C	1.059129	-0.813464	-0.357737
C128	C	1.392462	-0.480131	-0.024403
C129	C	1.725796	-0.146797	0.308930
C130	C	1.142282	-0.698365	-0.380904
C131	C	1.475615	-0.365032	-0.047570
C132	C	1.808948	-0.031699	0.285763
C133	C	1.142393	-1.014467	-0.380977
C134	C	1.475726	-0.681134	-0.047643
C135	C	1.809060	-0.347800	0.285690
C136	C	1.348453	-0.356817	-0.380952
C137	C	1.681786	-0.023483	-0.047619
C138	C	2.015120	0.309850	0.285714
C139	C	1.436309	-0.356827	-0.380969
C140	C	1.769643	-0.023494	-0.047636
C141	C	2.102976	0.309839	0.285697
C142	C	1.142327	-0.356730	-0.587080
C143	C	1.475660	-0.023397	-0.253747
C144	C	1.808994	0.309936	0.079587
C145	C	1.142345	-0.356704	-0.674937
C146	C	1.475678	-0.023371	-0.341603
C147	C	1.809012	0.309963	-0.008270
C148	C	1.142374	-0.163630	-0.380968
C149	C	1.475707	0.169703	-0.047634
C150	C	1.809041	0.503037	0.285699
C151	C	1.142412	-0.081316	-0.380991
C152	C	1.475746	0.252018	-0.047658
C153	C	1.809079	0.585351	0.285675
C154	C	1.091886	-0.309258	-1.046423
C155	C	1.425219	0.024075	-0.713089
C156	C	1.758553	0.357408	-0.379756
C157	C	1.192943	-0.403994	-1.046403
C158	C	1.526276	-0.070660	-0.713069
C159	C	1.859610	0.262673	-0.379736
C160	C	1.192929	-0.404011	-0.963857
C161	C	1.526263	-0.070678	-0.630523
C162	C	1.859596	0.262656	-0.297190
C163	C	1.142393	-0.356652	-0.922590
C164	C	1.475726	-0.023319	-0.589257
C165	C	1.809059	0.310015	-0.255923
C166	C	1.091869	-0.309276	-0.963869
C167	C	1.425203	0.024058	-0.630536
C168	C	1.758536	0.357391	-0.297202
C169	C	1.243446	-0.451392	-0.922571
C170	C	1.576780	-0.118058	-0.589238
C171	C	1.910113	0.215275	-0.255905
C172	C	1.243434	-0.451411	-0.840020
C173	C	1.576767	-0.118078	-0.506687
C174	C	1.910101	0.215255	-0.173354
C175	C	1.192900	-0.404048	-0.798752
C176	C	1.526234	-0.070715	-0.465419
C177	C	1.859567	0.262619	-0.132085
C178	C	1.142376	-0.356669	-0.840036
C179	C	1.475709	-0.023336	-0.506703
C180	C	1.809042	0.309997	-0.173370
C181	C	1.091839	-0.309310	-0.798770
C182	C	1.425172	0.024023	-0.465436
C183	C	1.758505	0.357356	-0.132103
C184	C	1.041317	-0.261927	-0.840052
C185	C	1.374651	0.071406	-0.506719
C186	C	1.707984	0.404739	-0.173386
C187	C	1.041336	-0.261913	-0.922601
C188	C	1.374669	0.071421	-0.589267
C189	C	1.708002	0.404754	-0.255934
C190	C	1.192882	-0.404063	-0.716204
C191	C	1.526215	-0.070730	-0.382870
C192	C	1.859549	0.262604	-0.049537
C193	C	1.091822	-0.309328	-0.716216
C194	C	1.425155	0.024006	-0.382883
C195	C	1.758488	0.357339	-0.049549
C196	C	1.142288	-0.356800	-0.175546
C197	C	1.475621	-0.023466	0.157788
C198	C	1.808955	0.309867	0.491121
C199	C	1.142423	-0.356617	-0.087689
C200	C	1.475756	-0.023284	0.245644
C201	C	1.809090	0.310049	0.578977
H202	H	0.443900	-0.442641	-0.289085
H203	H	0.777234	-0.109308	0.044248
H204	H	1.110567	0.224025	0.377581
H205	H	0.444052	-0.271015	-0.472845
H206	H	0.777385	0.062318	-0.139512
H207	H	1.110718	0.395651	0.193821
F208	F	0.728008	-0.211839	-0.536099
F209	F	1.061341	0.121494	-0.202765
F210	F	1.394675	0.454827	0.130568
F211	F	0.851795	-0.259134	-0.485420
F212	F	1.185129	0.074199	-0.152087
F213	F	1.518462	0.407532	0.181246
H214	H	1.000203	-0.223337	-0.956221
H215	H	1.333536	0.109996	-0.622887
H216	H	1.666869	0.443330	-0.289554
H217	H	1.284582	-0.489957	-0.956177
H218	H	1.617915	-0.156624	-0.622843
H219	H	1.951248	0.176710	-0.289510
H220	H	0.567915	-0.223700	-0.523464
H221	H	0.901248	0.109634	-0.190131
H222	H	1.234581	0.442967	0.143203
F223	F	0.996624	-0.785507	-0.411765
F224	F	1.329958	-0.452173	-0.078432
F225	F	1.663291	-0.118840	0.254902
F226	F	1.108678	-0.786621	-0.525481
F227	F	1.442012	-0.453287	-0.192148
F228	F	1.775345	-0.119954	0.141185
F229	F	1.246719	-0.454399	-1.090324
F230	F	1.580052	-0.121066	-0.756990
F231	F	1.913385	0.212268	-0.423657
H232	H	1.225347	-0.791723	-0.482636
H233	H	1.558680	-0.458390	-0.149302
H234	H	1.892013	-0.125057	0.184031
H235	H	0.841316	-0.442600	-0.288990
H236	H	1.174650	-0.109267	0.044343
H237	H	1.507983	0.224067	0.377676
F238	F	1.185030	-0.926266	-0.238724
F239	F	1.518363	-0.592932	0.094610
F240	F	1.851697	-0.259599	0.427943
F241	F	0.999403	-0.925597	-0.417893
F242	F	1.332736	-0.592264	-0.084559
F243	F	1.666070	-0.258931	0.248774
H244	H	1.050671	-0.270758	-0.682622
H245	H	1.384005	0.062575	-0.349289
H246	H	1.717338	0.395908	-0.015956
F247	F	1.184971	-0.786261	-0.239135
F248	F	1.518305	-0.452928	0.094198
F249	F	1.851638	-0.119594	0.427531
F250	F	1.284461	-0.786806	-0.338352
F251	F	1.617795	-0.453473	-0.005019
F252	F	1.951128	-0.120139	0.328315
H253	H	0.717464	-0.489918	-0.238383
H254	H	1.050797	-0.156585	0.094950
H255	H	1.384130	0.176748	0.428284
F256	F	1.038123	-0.258830	-1.090358
F257	F	1.371457	0.074503	-0.757025
F258	F	1.704790	0.407837	-0.423691
H259	H	1.264886	-0.920747	-0.333688
H260	H	1.598220	-0.587414	-0.000354
H261	H	1.931553	-0.254081	0.332979
H262	H	0.567686	-0.489928	-0.238413
H263	H	0.901019	-0.156594	0.094921
H264	H	1.234352	0.176739	0.428254
F265	F	1.245277	-0.924914	-0.487551
F266	F	1.578610	-0.591581	-0.154217
F267	F	1.911944	-0.258248	0.179116
F268	F	1.109892	-0.925962	-0.525570
F269	F	1.443225	-0.592628	-0.192237
F270	F	1.776558	-0.259295	0.141096
F271	F	0.987534	-0.211526	-0.796124
F272	F	1.320868	0.121807	-0.462790
F273	F	1.654201	0.455141	-0.129457
F274	F	1.031866	-0.927428	-0.281561
F275	F	1.365199	-0.594095	0.051772
F276	F	1.698532	-0.260761	0.385106
F277	F	1.297205	-0.501837	-0.796092
F278	F	1.630538	-0.168504	-0.462758
F279	F	1.963872	0.164829	-0.129425
F280	F	1.036871	-0.786985	-0.277594
F281	F	1.370204	-0.453651	0.055739
F282	F	1.703538	-0.120318	0.389072
H283	H	1.234021	-0.442636	-0.682595
H284	H	1.567354	-0.109303	-0.349262
H285	H	1.900688	0.224030	-0.015928
