data_functionalizedCrystal
_audit_creation_method	'MofGen! by Chris Wilmer'
_symmetry_space_group_name_H-M	'P1'
_symmetry_Int_Tables_number	1
_symmetry_cell_setting	triclinic
loop_
_symmetry_equiv_pos_as_xyz
  x,y,z
_cell_length_a	10.654549
_cell_length_b	19.288857
_cell_length_c	9.130313
_cell_angle_alpha	89.993335
_cell_angle_beta	89.997498
_cell_angle_gamma	83.808943
loop_
_atom_site_label
_atom_site_type_symbol
_atom_site_fract_x
_atom_site_fract_y
_atom_site_fract_z
O1	O	1.665747	0.097554	-0.121773
O2	O	2.165747	0.597554	0.378227
O3	O	1.300069	0.106848	-0.121784
O4	O	1.800069	0.606848	0.378216
O5	O	1.493479	0.001140	-0.121761
O6	O	1.993479	0.501140	0.378239
O7	O	1.472336	0.203263	-0.121797
O8	O	1.972336	0.703263	0.378203
O9	O	1.493466	0.001136	0.121838
O10	O	1.993466	0.501136	0.621838
O11	O	1.300056	0.106845	0.121814
O12	O	1.800056	0.606845	0.621814
O13	O	1.665734	0.097551	0.121825
O14	O	2.165734	0.597551	0.621825
Cu15	Cu	1.482893	0.102198	0.144062
Cu16	Cu	1.982893	0.602198	0.644062
Cu17	Cu	1.482909	0.102201	-0.144021
Cu18	Cu	1.982909	0.602201	0.355979
O19	O	1.472323	0.203259	0.121802
O20	O	1.972323	0.703259	0.621802
C21	C	1.253279	0.106164	0.000014
C22	C	1.753279	0.606164	0.500014
C23	C	1.113879	0.104123	0.000010
C24	C	1.613879	0.604123	0.500010
C25	C	0.902070	0.164439	0.000005
C26	C	1.402070	0.664439	0.500005
C27	C	1.033050	0.166362	-0.000004
C28	C	1.533050	0.666362	0.499996
C29	C	1.063724	0.039955	0.000018
C30	C	1.563724	0.539955	0.500018
C31	C	0.932747	0.038032	0.000017
C32	C	1.432747	0.538032	0.500017
C33	C	1.492794	-0.024743	0.000040
C34	C	1.992794	0.475257	0.500040
C35	C	1.490756	-0.101860	0.000044
C36	C	1.990756	0.398140	0.500044
C37	C	1.489813	-0.138075	-0.132742
C38	C	1.989813	0.361925	0.367258
C39	C	1.487881	-0.210534	-0.132753
C40	C	1.987881	0.289466	0.367247
C41	C	1.486917	-0.246776	0.000030
C42	C	1.986917	0.253224	0.500030
C43	C	1.487854	-0.210552	0.132833
C44	C	1.987854	0.289448	0.632833
C45	C	1.489774	-0.138094	0.132840
C46	C	1.989774	0.361906	0.632840
C47	C	1.557425	-0.366548	0.101751
C48	C	2.057425	0.133452	0.601751
C49	C	1.555513	-0.439005	0.101738
C50	C	2.055513	0.060995	0.601738
C51	C	1.480991	-0.470261	0.000013
C52	C	1.980991	0.029739	0.500013
C53	C	1.408398	-0.429052	-0.101725
C54	C	1.908398	0.070948	0.398275
C55	C	1.410317	-0.356594	-0.101718
C56	C	1.910317	0.143406	0.398282
C57	C	1.484835	-0.325345	0.000037
C58	C	1.984835	0.174655	0.500037
C59	C	1.477951	-0.585044	-0.132794
C60	C	1.977951	-0.085044	0.367206
C61	C	1.476011	-0.657504	-0.132800
C62	C	1.976011	-0.157504	0.367200
C63	C	1.475997	-0.657521	0.132790
C64	C	1.975997	-0.157521	0.632790
C65	C	1.477924	-0.585062	0.132792
C66	C	1.977924	-0.085062	0.632792
C67	C	1.478907	-0.548828	-0.000004
C68	C	1.978907	-0.048828	0.499996
C69	C	1.712523	0.098235	0.000024
C70	C	2.212523	0.598235	0.500024
C71	C	1.851923	0.100276	0.000018
C72	C	2.351923	0.600276	0.500018
C73	C	1.473008	0.229142	-0.000002
C74	C	1.973008	0.729142	0.499998
C75	C	1.475046	0.306259	-0.000016
C76	C	1.975046	0.806259	0.499984
N77	N	1.482892	0.102195	0.346685
N78	N	1.982892	0.602195	0.846685
N79	N	1.482921	0.102199	-0.346644
N80	N	1.982921	0.602199	0.153356
C81	C	1.568562	0.055407	0.423347
C82	C	2.068562	0.555407	0.923347
C83	C	1.568574	0.055407	0.576684
C84	C	2.068574	0.555407	1.076684
C85	C	1.397241	0.148989	0.576683
C86	C	1.897241	0.648989	1.076683
C87	C	1.397224	0.148985	0.423349
C88	C	1.897224	0.648985	0.923349
H89	H	0.836267	0.215122	0.000005
H90	H	1.336267	0.715122	0.500005
H91	H	1.475203	-0.687028	0.240905
H92	H	1.975203	-0.187028	0.740905
Br93	Br	1.311800	-0.300669	-0.239778
Br94	Br	1.811800	0.199331	0.260222
H95	H	1.478703	-0.555576	0.240921
H96	H	1.978703	-0.055576	0.740921
Br97	Br	1.280939	0.212482	0.319295
Br98	Br	1.780939	0.712482	0.819295
H99	H	1.638316	0.017306	0.360931
H100	H	2.138316	0.517306	0.860931
H101	H	1.073873	0.218610	-0.000015
H102	H	1.573873	0.718610	0.499985
H103	H	1.347715	-0.454499	-0.184560
H104	H	1.847715	0.045501	0.315440
Br105	Br	1.479278	-0.535865	-0.313012
Br106	Br	1.979278	-0.035865	0.186988
H107	H	1.618108	-0.341105	0.184600
H108	H	2.118108	0.158895	0.684600
Br109	Br	0.864682	-0.049052	0.000007
Br110	Br	1.364682	0.450948	0.500007
Br111	Br	1.684840	-0.008097	0.680723
Br112	Br	2.184840	0.491903	1.180723
Br113	Br	1.173420	-0.044514	0.000029
Br114	Br	1.673420	0.455486	0.500029
H115	H	1.487066	-0.240065	0.240945
H116	H	1.987066	0.259935	0.740945
H117	H	1.327494	0.187086	0.639118
H118	H	1.827494	0.687086	1.139118
H119	H	1.490609	-0.108578	-0.240875
H120	H	1.990609	0.391422	0.259125
Br121	Br	1.486595	-0.259694	-0.312975
Br122	Br	1.986595	0.240306	0.187025
H123	H	1.475236	-0.686988	-0.240934
H124	H	1.975236	-0.186988	0.259066
H125	H	1.614628	-0.472552	0.184574
H126	H	2.114628	0.027448	0.684574
H127	H	1.490537	-0.108608	0.240974
H128	H	1.990537	0.391392	0.740974
