data_functionalizedCrystal
_audit_creation_method	'MofGen! by Chris Wilmer'
_symmetry_space_group_name_H-M	'P1'
_symmetry_Int_Tables_number	1
_symmetry_cell_setting	triclinic
loop_
_symmetry_equiv_pos_as_xyz
  x,y,z
_cell_length_a	14.971482
_cell_length_b	14.519709
_cell_length_c	13.448316
_cell_angle_alpha	90.015021
_cell_angle_beta	89.993798
_cell_angle_gamma	96.353623
loop_
_atom_site_label
_atom_site_type_symbol
_atom_site_fract_x
_atom_site_fract_y
_atom_site_fract_z
O1	O	1.187017	-0.120168	-0.082698
O2	O	0.926624	-0.134563	-0.082705
O3	O	1.063725	0.006877	-0.082674
O4	O	1.049917	-0.261608	-0.082730
O5	O	1.063707	0.006886	0.082710
O6	O	0.926607	-0.134555	0.082679
O7	O	1.187000	-0.120159	0.082686
Cu8	Cu	1.056802	-0.127356	0.097783
Cu9	Cu	1.056822	-0.127366	-0.097802
O10	O	1.049900	-0.261599	0.082654
C11	C	0.893291	-0.133916	-0.000014
C12	C	0.793992	-0.131988	-0.000015
C13	C	0.747338	-0.131076	0.090137
C14	C	0.654038	-0.129250	0.090138
C15	C	0.607394	-0.128343	-0.000013
C16	C	0.654056	-0.129253	-0.090172
C17	C	0.747354	-0.131072	-0.090173
C18	C	0.459592	-0.125464	-0.090165
C19	C	0.366286	-0.123646	-0.090165
C20	C	0.366276	-0.123641	0.090146
C21	C	0.459574	-0.125461	0.090146
C22	C	0.506229	-0.126372	-0.000014
C23	C	1.063073	0.041241	0.000023
C24	C	1.061144	0.143621	0.000038
C25	C	1.054045	0.518513	0.000065
C26	C	1.056017	0.414206	0.000058
C27	C	1.057594	0.331070	0.000053
C28	C	1.059566	0.226757	0.000044
C29	C	1.220333	-0.120806	-0.000008
C30	C	1.319632	-0.122734	-0.000013
N31	N	1.056794	-0.127348	0.235347
C32	C	1.050552	0.704037	-0.000010
C33	C	1.052480	0.601657	0.000074
N34	N	1.056837	-0.127367	-0.235367
C35	C	1.117521	-0.064744	0.287402
C36	C	1.117527	-0.064743	0.391505
C37	C	1.056809	-0.127352	0.443552
C38	C	0.996075	-0.189959	0.391490
C39	C	0.996066	-0.189954	0.287389
C40	C	0.996100	-0.189965	0.608470
C41	C	0.996110	-0.189971	0.712579
C42	C	1.117561	-0.064754	0.712586
C43	C	1.117551	-0.064750	0.608485
C44	C	1.056819	-0.127358	0.556431
H45	H	0.785339	-0.131817	-0.163584
H46	H	1.166968	-0.013765	0.245032
N47	N	1.179548	-0.000763	0.444651
N48	N	1.178172	0.084476	0.433015
H49	H	1.221975	0.129675	0.470539
H50	H	0.946615	-0.240932	0.245007
N51	N	0.606415	-0.128307	-0.182260
N52	N	0.562502	-0.062334	-0.202359
H53	H	0.528856	-0.061666	-0.267399
H54	H	0.328285	-0.122899	0.163557
H55	H	1.166996	-0.013774	0.566108
N56	N	0.934067	-0.253906	0.765737
N57	N	0.851396	-0.252476	0.754134
H58	H	0.807573	-0.297627	0.791680
H59	H	0.946642	-0.240945	0.566091
H60	H	1.167011	-0.013776	0.754975
N61	N	0.934038	-0.253908	0.444639
N62	N	0.851365	-0.252496	0.433031
H63	H	0.807549	-0.297661	0.470565
N64	N	0.794963	-0.132023	0.182235
N65	N	0.753290	-0.131215	0.262721
H66	H	0.786922	-0.131887	0.327769
N67	N	0.606397	-0.128311	0.182236
N68	N	0.648053	-0.129123	0.262721
H69	H	0.614408	-0.128457	0.327770
H70	H	0.497549	-0.126205	0.163555
H71	H	0.328311	-0.122909	-0.163574
H72	H	0.497575	-0.126206	-0.163582
