data_functionalizedCrystal
_audit_creation_method	'MofGen! by Chris Wilmer'
_symmetry_space_group_name_H-M	'P1'
_symmetry_Int_Tables_number	1
_symmetry_cell_setting	triclinic
loop_
_symmetry_equiv_pos_as_xyz
  x,y,z
_cell_length_a	9.065215
_cell_length_b	12.503552
_cell_length_c	9.065218
_cell_angle_alpha	86.426261
_cell_angle_beta	85.015291
_cell_angle_gamma	93.574918
loop_
_atom_site_label
_atom_site_type_symbol
_atom_site_fract_x
_atom_site_fract_y
_atom_site_fract_z
O1	O	1.968807	0.089304	0.207922
O2	O	2.468807	0.589304	0.707922
O3	O	1.539522	0.089308	0.225673
O4	O	2.039522	0.589308	0.725673
O5	O	1.763038	0.089304	0.002155
O6	O	2.263038	0.589304	0.502155
O7	O	1.745292	0.089308	0.431440
O8	O	2.245292	0.589308	0.931440
O9	O	1.746208	-0.089338	0.018980
O10	O	2.246208	0.410662	0.518980
O11	O	1.522693	-0.089334	0.242497
O12	O	2.022693	0.410666	0.742497
O13	O	1.951978	-0.089338	0.224747
O14	O	2.451978	0.410662	0.724747
Cu15	Cu	1.735799	-0.105648	0.235158
Cu16	Cu	2.235799	0.394352	0.735158
Cu17	Cu	1.755701	0.105617	0.215261
Cu18	Cu	2.255701	0.605617	0.715261
O19	O	1.728462	-0.089334	0.448264
O20	O	2.228462	0.410666	0.948264
C21	C	1.476121	-0.000012	0.232380
C22	C	1.976121	0.499988	0.732380
C23	C	1.312278	-0.000010	0.227282
C24	C	1.812278	0.499990	0.727282
N25	N	1.721811	-0.254240	0.249152
N26	N	2.221811	0.245760	0.749152
C27	C	1.790269	-0.526675	0.180666
C28	C	2.290269	-0.026675	0.680666
C29	C	1.701248	-0.473349	0.269737
C30	C	2.201248	0.026651	0.769737
C31	C	1.712692	-0.351425	0.258281
C32	C	2.212692	0.148575	0.758281
C33	C	1.778826	-0.648609	0.192121
C34	C	2.278826	-0.148609	0.692121
C35	C	2.015379	-0.000016	0.218039
C36	C	2.515379	0.499984	0.718039
C37	C	2.179223	-0.000010	0.223137
C38	C	2.679223	0.499990	0.723137
C39	C	1.752918	-0.000016	-0.044419
C40	C	2.252918	0.499984	0.455581
C41	C	1.747818	-0.000010	-0.208263
C42	C	2.247818	0.499990	0.291737
N43	N	1.769700	0.254210	0.201256
N44	N	2.269700	0.754210	0.701256
C45	C	1.738583	-0.000012	0.494839
C46	C	2.238583	0.499988	0.994839
C47	C	1.743682	-0.000010	0.658681
C48	C	2.243682	0.499990	1.158681
H49	H	1.616440	-0.519263	0.354598
H50	H	2.116440	-0.019263	0.854598
H51	H	1.875073	-0.480766	0.095812
H52	H	2.375073	0.019234	0.595812
