data_functionalizedCrystal
_audit_creation_method	'MofGen! by Chris Wilmer'
_symmetry_space_group_name_H-M	'P1'
_symmetry_Int_Tables_number	1
_symmetry_cell_setting	triclinic
loop_
_symmetry_equiv_pos_as_xyz
  x,y,z
_cell_length_a	12.811434
_cell_length_b	14.519709
_cell_length_c	13.596369
_cell_angle_alpha	89.985562
_cell_angle_beta	95.431513
_cell_angle_gamma	83.864770
loop_
_atom_site_label
_atom_site_type_symbol
_atom_site_fract_x
_atom_site_fract_y
_atom_site_fract_z
O1	O	-1.392895	-0.124234	-0.042445
O2	O	-0.892895	0.375766	0.457555
O3	O	-1.087337	-0.137737	-0.015183
O4	O	-0.587337	0.362263	0.484817
O5	O	-1.248217	0.003234	-0.029564
O6	O	-0.748217	0.503234	0.470436
O7	O	-1.232015	-0.265205	-0.028063
O8	O	-0.732015	0.234795	0.471937
O9	O	-1.248215	0.003242	-0.193147
O10	O	-0.748215	0.503242	0.306853
O11	O	-1.087335	-0.137729	-0.178766
O12	O	-0.587335	0.362271	0.321234
O13	O	-1.392892	-0.124225	-0.206027
O14	O	-0.892892	0.375775	0.293973
Zn15	Zn	-1.240113	-0.130975	-0.218369
Zn16	Zn	-0.740113	0.369025	0.281631
Zn17	Zn	-1.240116	-0.130987	-0.002842
Zn18	Zn	-0.740116	0.369013	0.497158
O19	O	-1.232012	-0.265196	-0.191646
O20	O	-0.732012	0.234804	0.308354
C21	C	-1.048231	-0.136976	-0.093486
C22	C	-0.548231	0.363024	0.406514
C23	C	-0.931709	-0.134708	-0.083091
C24	C	-0.431709	0.365292	0.416909
C25	C	-1.247461	0.037600	-0.111293
C26	C	-0.747461	0.537600	0.388707
C27	C	-1.245198	0.139986	-0.111106
C28	C	-0.745198	0.639986	0.388894
C29	C	-0.767476	-0.131517	0.020718
C30	C	-0.267476	0.368483	0.520718
C31	C	-0.876958	-0.133647	0.010959
C32	C	-0.376958	0.366353	0.510959
C33	C	-0.876970	-0.133637	-0.167389
C34	C	-0.376970	0.366363	0.332611
C35	C	-0.767488	-0.131507	-0.157630
C36	C	-0.267488	0.368493	0.342370
C37	C	-0.712744	-0.130448	-0.063574
C38	C	-0.212744	0.369552	0.436426
C39	C	-0.603259	-0.128325	-0.053816
C40	C	-0.103259	0.371675	0.446184
C41	C	-0.603274	-0.128308	-0.232164
C42	C	-0.103274	0.371692	0.267836
C43	C	-0.712757	-0.130438	-0.241922
C44	C	-0.212757	0.369562	0.258078
C45	C	-1.236868	0.514902	-0.110389
C46	C	-0.736868	1.014902	0.389611
C47	C	-1.239181	0.410589	-0.110589
C48	C	-0.739181	0.910589	0.389411
C49	C	-1.241033	0.327447	-0.110749
C50	C	-0.741033	0.827447	0.389251
C51	C	-1.243347	0.223127	-0.110946
C52	C	-0.743347	0.723127	0.389054
C53	C	-0.431999	-0.124986	-0.127723
C54	C	0.068001	0.375014	0.372277
C55	C	-0.548520	-0.127253	-0.138114
C56	C	-0.048520	0.372747	0.361886
C57	C	-1.232768	0.700438	-0.109950
C58	C	-0.732768	1.200438	0.390050
C59	C	-1.235031	0.598052	-0.110235
C60	C	-0.735031	1.098052	0.389765
N61	N	-1.240118	-0.130967	-0.365461
N62	N	-0.740118	0.369033	0.134539
N63	N	-1.240119	-0.130988	0.144250
N64	N	-0.740119	0.369012	0.644250
C65	C	-1.240114	-0.130978	0.545541
C66	C	-0.740114	0.369022	1.045541
C67	C	-1.240112	-0.130984	0.433890
C68	C	-0.740112	0.369016	0.933890
C69	C	-1.240116	-0.130983	0.344899
C70	C	-0.740116	0.369017	0.844899
C71	C	-1.240115	-0.130989	0.233241
C72	C	-0.740115	0.369011	0.733241
H73	H	-0.558688	-0.127467	0.022769
H74	H	-0.058688	0.372533	0.522769
N75	N	-0.935985	-0.134794	0.101878
N76	N	-0.435985	0.365206	0.601878
H77	H	-0.908529	-0.191526	0.143323
H78	H	-0.408529	0.308474	0.643323
H79	H	-1.013636	-0.136267	0.081351
H80	H	-0.513636	0.363733	0.581351
H81	H	-0.722901	-0.130665	0.097302
H82	H	-0.222901	0.369335	0.597302
N83	N	-0.936024	-0.134774	-0.268828
N84	N	-0.436024	0.365226	0.231172
H85	H	-1.013686	-0.136284	-0.262214
H86	H	-0.513686	0.363716	0.237786
H87	H	-0.908495	-0.191505	-0.305300
H88	H	-0.408495	0.308495	0.194700
H89	H	-0.757344	-0.131297	-0.318500
H90	H	-0.257344	0.368703	0.181500
N91	N	-0.544237	-0.127164	-0.323083
N92	N	-0.044237	0.372836	0.176917
H93	H	-0.466398	-0.126936	-0.302618
H94	H	0.033602	0.373064	0.197382
H95	H	-0.570774	-0.069783	-0.363815
H96	H	-0.070774	0.430217	0.136185
