data_functionalizedCrystal
_audit_creation_method	'MofGen! by Chris Wilmer'
_symmetry_space_group_name_H-M	'P1'
_symmetry_Int_Tables_number	1
_symmetry_cell_setting	triclinic
loop_
_symmetry_equiv_pos_as_xyz
  x,y,z
_cell_length_a	14.044220
_cell_length_b	16.109301
_cell_length_c	14.586319
_cell_angle_alpha	90.000846
_cell_angle_beta	89.998609
_cell_angle_gamma	91.674821
loop_
_atom_site_label
_atom_site_type_symbol
_atom_site_fract_x
_atom_site_fract_y
_atom_site_fract_z
O1	O	-1.257643	0.200436	-0.076125
O2	O	-0.924310	0.533769	0.257208
O3	O	-0.590977	0.867102	0.590542
O4	O	-0.981677	0.193203	-0.076149
O5	O	-0.648343	0.526536	0.257184
O6	O	-0.315010	0.859870	0.590518
O7	O	-1.127241	0.076352	-0.076141
O8	O	-0.793908	0.409686	0.257192
O9	O	-0.460574	0.743019	0.590525
O10	O	-1.112079	0.317286	-0.076133
O11	O	-0.778746	0.650620	0.257200
O12	O	-0.445412	0.983953	0.590534
O13	O	-1.127231	0.076350	0.076340
O14	O	-0.793898	0.409683	0.409673
O15	O	-0.460564	0.743016	0.743006
O16	O	-0.981666	0.193200	0.076332
O17	O	-0.648333	0.526534	0.409665
O18	O	-0.315000	0.859867	0.742998
O19	O	-1.257633	0.200433	0.076356
O20	O	-0.924300	0.533766	0.409689
O21	O	-0.590967	0.867100	0.743022
Cu22	Cu	-1.119649	0.196816	0.090266
Cu23	Cu	-0.786316	0.530150	0.423600
Cu24	Cu	-0.452982	0.863483	0.756933
Cu25	Cu	-1.119661	0.196820	-0.090060
Cu26	Cu	-0.786328	0.530153	0.243274
Cu27	Cu	-0.452994	0.863486	0.576607
O28	O	-1.112069	0.317284	0.076348
O29	O	-0.778736	0.650617	0.409681
O30	O	-0.445402	0.983950	0.743014
C31	C	-0.946358	0.190036	0.000088
C32	C	-0.613025	0.523369	0.333422
C33	C	-0.279691	0.856702	0.666755
C34	C	-0.841135	0.180592	0.000079
C35	C	-0.507802	0.513925	0.333412
C36	C	-0.174468	0.847258	0.666745
C37	C	-1.126622	0.045330	0.000096
C38	C	-0.793289	0.378664	0.333429
C39	C	-0.459955	0.711997	0.666763
C40	C	-1.124781	-0.047102	0.000086
C41	C	-0.791447	0.286231	0.333420
C42	C	-0.458114	0.619565	0.666753
C43	C	-1.292952	0.203600	0.000116
C44	C	-0.959619	0.536934	0.333450
C45	C	-0.626285	0.870267	0.666783
C46	C	-1.398175	0.213044	0.000120
C47	C	-1.064841	0.546378	0.333453
C48	C	-0.731508	0.879711	0.666787
C49	C	-0.648479	0.163326	0.000096
C50	C	-0.315146	0.496660	0.333430
C51	C	0.018188	0.829993	0.666763
C52	C	-0.590825	0.230306	0.000102
C53	C	-0.257492	0.563639	0.333436
C54	C	0.075841	0.896972	0.666769
C55	C	-0.483625	0.220699	0.000112
C56	C	-0.150291	0.554032	0.333445
C57	C	0.183042	0.887366	0.666779
C58	C	-0.755690	0.172932	0.000086
C59	C	-0.422356	0.506265	0.333420
C60	C	-0.089023	0.839598	0.666753
C61	C	-1.112688	0.348306	0.000109
C62	C	-0.779355	0.681639	0.333442
C63	C	-0.446021	1.014972	0.666775
C64	C	-1.114529	0.440738	0.000112
C65	C	-0.781196	0.774071	0.333446
C66	C	-0.447863	1.107404	0.666779
N67	N	-1.119647	0.196814	0.217098
N68	N	-0.786314	0.530148	0.550432
N69	N	-0.452981	0.863481	0.883765
C70	C	-1.032436	0.656902	0.000092
C71	C	-0.699102	0.990236	0.333425
C72	C	-0.365769	1.323569	0.666759
C73	C	-1.034173	0.743752	0.000085
C74	C	-0.700840	1.077085	0.333418
C75	C	-0.367507	1.410419	0.666752
C76	C	-1.206881	0.736727	0.000104
C77	C	-0.873547	1.070061	0.333437
C78	C	-0.540214	1.403394	0.666771
C79	C	-1.205142	0.649879	0.000104
C80	C	-0.871809	0.983213	0.333438
C81	C	-0.538476	1.316546	0.666771
C82	C	-1.117917	0.609969	0.000103
C83	C	-0.784584	0.943302	0.333436
C84	C	-0.451250	1.276636	0.666769
C85	C	-1.121393	0.783667	0.000096
C86	C	-0.788060	1.117000	0.333429
C87	C	-0.454726	1.450334	0.666762
C88	C	-1.123278	0.877833	0.000088
C89	C	-0.789944	1.211166	0.333422
C90	C	-0.456611	1.544500	0.666755
C91	C	-1.116032	0.515797	0.000108
C92	C	-0.782699	0.849130	0.333442
C93	C	-0.449365	1.182464	0.666775
N94	N	-1.119670	0.196816	-0.216892
N95	N	-0.786337	0.530149	0.116442
N96	N	-0.453003	0.863482	0.449775
C97	C	-1.184125	0.145093	0.452108
C98	C	-0.850791	0.478427	0.785441
C99	C	-0.517458	0.811760	1.118775
C100	C	-1.184128	0.145092	0.548089
C101	C	-0.850794	0.478425	0.881423
C102	C	-0.517461	0.811758	1.214756
C103	C	-1.055186	0.248539	0.548092
C104	C	-0.721852	0.581872	0.881425
C105	C	-0.388519	0.915205	1.214759
C106	C	-1.055179	0.248536	0.452112
C107	C	-0.721846	0.581869	0.785446
C108	C	-0.388513	0.915202	1.118779
C109	C	-1.119654	0.196814	0.404123
C110	C	-0.786321	0.530148	0.737456
C111	C	-0.452987	0.863481	1.070790
C112	C	-1.119663	0.196816	0.596084
C113	C	-0.786330	0.530149	0.929417
C114	C	-0.452997	0.863482	1.262750
C115	C	-1.119666	0.196814	0.700151
C116	C	-0.786333	0.530147	1.033484
C117	C	-0.452999	0.863481	1.366818
C118	C	-1.119651	0.196815	0.300049
C119	C	-0.786317	0.530148	0.633383
C120	C	-0.452984	0.863481	0.966716
H121	H	-0.621976	0.294863	0.000100
H122	H	-0.288643	0.628197	0.333433
H123	H	0.044690	0.961530	0.666767
Cl124	Cl	-0.926706	0.802750	0.000067
Cl125	Cl	-0.593373	1.136084	0.333400
Cl126	Cl	-0.260039	1.469417	0.666733
H127	H	-0.617330	0.098774	0.000099
H128	H	-0.283996	0.432107	0.333432
H129	H	0.049337	0.765441	0.666766
H130	H	-1.236623	0.102977	0.413037
H131	H	-0.903289	0.436311	0.746371
H132	H	-0.569956	0.769644	1.079704
Cl133	Cl	-0.922782	0.606733	0.000085
Cl134	Cl	-0.589448	0.940066	0.333419
Cl135	Cl	-0.256115	1.273399	0.666752
Cl136	Cl	-0.974120	0.313557	0.391782
Cl137	Cl	-0.640786	0.646890	0.725116
Cl138	Cl	-0.307453	0.980224	1.058449
H139	H	-1.277897	0.769233	0.000114
H140	H	-0.944563	1.102566	0.333448
H141	H	-0.611230	1.435899	0.666781
Cl142	Cl	-1.312613	0.590873	0.000112
Cl143	Cl	-0.979280	0.924206	0.333446
Cl144	Cl	-0.645947	1.257539	0.666779
Cl145	Cl	-1.265178	0.080066	0.608411
Cl146	Cl	-0.931844	0.413400	0.941744
Cl147	Cl	-0.598511	0.746733	1.275078
H148	H	-1.002693	0.290650	0.587174
H149	H	-0.669360	0.623984	0.920508
H150	H	-0.336026	0.957317	1.253841
