data_functionalizedCrystal
_audit_creation_method	'MofGen! by Chris Wilmer'
_symmetry_space_group_name_H-M	'P1'
_symmetry_Int_Tables_number	1
_symmetry_cell_setting	triclinic
loop_
_symmetry_equiv_pos_as_xyz
  x,y,z
_cell_length_a	14.971482
_cell_length_b	14.853567
_cell_length_c	14.048226
_cell_angle_alpha	89.998885
_cell_angle_beta	90.004139
_cell_angle_gamma	83.623769
loop_
_atom_site_label
_atom_site_type_symbol
_atom_site_fract_x
_atom_site_fract_y
_atom_site_fract_z
O1	O	1.186969	0.117467	0.079140
O2	O	1.686969	0.617467	0.579140
O3	O	0.926571	0.131540	0.079144
O4	O	1.426571	0.631540	0.579144
O5	O	1.063725	-0.006728	0.079145
O6	O	1.563725	0.493272	0.579145
O7	O	1.049814	0.255734	0.079139
O8	O	1.549814	0.755734	0.579139
O9	O	1.063712	-0.006727	-0.079177
O10	O	1.563712	0.493273	0.420823
O11	O	0.926558	0.131541	-0.079178
O12	O	1.426558	0.631541	0.420822
O13	O	1.186956	0.117468	-0.079181
O14	O	1.686956	0.617468	0.420819
Zn15	Zn	1.056755	0.124505	-0.104316
Zn16	Zn	1.556755	0.624505	0.395684
Zn17	Zn	1.056772	0.124503	0.104279
Zn18	Zn	1.556772	0.624503	0.604279
O19	O	1.049801	0.255736	-0.079182
O20	O	1.549801	0.755736	0.420818
C21	C	0.893239	0.130912	-0.000016
C22	C	1.393239	0.630912	0.499984
C23	C	0.793942	0.129027	-0.000015
C24	C	1.293942	0.629027	0.499985
C25	C	0.747290	0.128141	-0.086317
C26	C	1.247290	0.628141	0.413683
C27	C	0.653991	0.126356	-0.086318
C28	C	1.153991	0.626356	0.413682
C29	C	0.607345	0.125464	-0.000016
C30	C	1.107345	0.625464	0.499984
C31	C	0.654004	0.126348	0.086293
C32	C	1.154004	0.626348	0.586293
C33	C	0.747302	0.128127	0.086293
C34	C	1.247302	0.628127	0.586293
C35	C	0.459541	0.122644	0.086287
C36	C	0.959541	0.622644	0.586287
C37	C	0.366236	0.120867	0.086287
C38	C	0.866236	0.620867	0.586287
C39	C	0.366230	0.120873	-0.086324
C40	C	0.866230	0.620873	0.413676
C41	C	0.459528	0.122651	-0.086324
C42	C	0.959528	0.622651	0.413676
C43	C	0.506180	0.123537	-0.000015
C44	C	1.006180	0.623537	0.499985
C45	C	1.063088	-0.040316	-0.000013
C46	C	1.563088	0.459684	0.499987
C47	C	1.061200	-0.140399	-0.000005
C48	C	1.561200	0.359601	0.499995
C49	C	0.971742	-0.552915	-0.000022
C50	C	1.471742	-0.052915	0.499978
C51	C	1.134685	-0.574228	-0.000024
C52	C	1.634685	-0.074228	0.499976
C53	C	1.136461	-0.480195	-0.000018
C54	C	1.636461	0.019805	0.499982
C55	C	1.055876	-0.422517	-0.000016
C56	C	1.555876	0.077483	0.499984
C57	C	0.973516	-0.458873	-0.000019
C58	C	1.473516	0.041127	0.499981
C59	C	1.218820	-0.443832	-0.000025
C60	C	1.718820	0.056168	0.499975
C61	C	1.220599	-0.349793	-0.000020
C62	C	1.720599	0.150207	0.499980
C63	C	1.140014	-0.292114	-0.000011
C64	C	1.640014	0.207886	0.499989
C65	C	1.057650	-0.328475	-0.000013
C66	C	1.557650	0.171525	0.499987
C67	C	0.977065	-0.270797	-0.000011
C68	C	1.477065	0.229203	0.499989
C69	C	0.894700	-0.307156	-0.000006
C70	C	1.394700	0.192844	0.499994
C71	C	0.892930	-0.401193	-0.000010
C72	C	1.392930	0.098807	0.499990
C73	C	1.141784	-0.198077	-0.000007
C74	C	1.641784	0.301923	0.499993
C75	C	0.978839	-0.176755	-0.000008
C76	C	1.478839	0.323245	0.499992
C77	C	1.220287	0.118096	-0.000019
C78	C	1.720287	0.618096	0.499981
C79	C	1.319585	0.119980	-0.000015
C80	C	1.819585	0.619980	0.499985
C81	C	1.050438	0.289324	-0.000022
C82	C	1.550438	0.789324	0.499978
C83	C	1.052327	0.389407	-0.000024
C84	C	1.552327	0.889407	0.499976
N85	N	1.056749	0.124505	-0.246677
N86	N	1.556749	0.624505	0.253323
C87	C	1.002471	0.069725	-0.703542
C88	C	1.502471	0.569725	-0.203542
C89	C	1.002468	0.069723	-0.603885
C90	C	1.502468	0.569723	-0.103885
C91	C	1.056773	0.124495	-0.554047
C92	C	1.556773	0.624495	-0.054047
C93	C	1.111092	0.179268	-0.603872
C94	C	1.611092	0.679268	-0.103872
C95	C	1.111099	0.179265	-0.703528
C96	C	1.611099	0.679265	-0.203528
C97	C	1.111070	0.179271	-0.396158
C98	C	1.611070	0.679271	0.103842
C99	C	1.111062	0.179275	-0.296495
C100	C	1.611062	0.679275	0.203505
C101	C	1.002439	0.069729	-0.296515
C102	C	1.502439	0.569729	0.203485
C103	C	1.002447	0.069726	-0.396170
C104	C	1.502447	0.569726	0.103830
C105	C	1.056764	0.124500	-0.445989
C106	C	1.556764	0.624500	0.054011
N107	N	1.056784	0.124495	0.246639
N108	N	1.556784	0.624495	0.746639
H109	H	0.328242	0.120152	-0.156600
H110	H	0.828242	0.620152	0.343400
H111	H	0.958245	0.025128	-0.744113
H112	H	1.458245	0.525128	-0.244113
H113	H	0.829089	-0.260183	-0.000011
H114	H	1.329089	0.239817	0.499989
H115	H	0.958210	0.025132	-0.255948
H116	H	1.458210	0.525132	0.244052
H117	H	1.155279	0.223879	-0.255920
H118	H	1.655279	0.723879	0.244080
H119	H	0.958223	0.025130	-0.436746
H120	H	1.458223	0.525130	0.063254
H121	H	0.616013	0.125619	-0.156593
H122	H	1.116013	0.625619	0.343407
H123	H	1.200293	-0.621195	-0.000034
H124	H	1.700293	-0.121195	0.499966
H125	H	0.616018	0.125616	0.156562
H126	H	1.116018	0.625616	0.656562
H127	H	0.497522	0.123366	0.156569
H128	H	0.997522	0.623366	0.656569
H129	H	0.497504	0.123383	-0.156598
H130	H	0.997504	0.623383	0.343402
H131	H	0.958244	0.025121	-0.563327
H132	H	1.458244	0.525121	-0.063327
H133	H	0.785261	0.128874	-0.156594
H134	H	1.285261	0.628874	0.343406
H135	H	0.785284	0.128851	0.156569
H136	H	1.285284	0.628851	0.656569
H137	H	1.155304	0.223872	-0.436717
H138	H	1.655304	0.723872	0.063283
H139	H	0.328260	0.120142	0.156562
H140	H	0.828260	0.620142	0.656562
H141	H	1.155312	0.223860	-0.563286
H142	H	1.655312	0.723860	-0.063286
H143	H	1.155326	0.223864	-0.744089
H144	H	1.655326	0.723864	-0.244089
H145	H	0.913216	-0.129799	-0.000002
H146	H	1.413216	0.370201	0.499998
H147	H	0.904682	-0.582523	-0.000014
H148	H	1.404682	-0.082523	0.499986
H149	H	0.825873	-0.430806	-0.000007
H150	H	1.325873	0.069194	0.499993
H151	H	1.284428	-0.490800	-0.000036
H152	H	1.784428	0.009200	0.499964
H153	H	1.287666	-0.320198	-0.000023
H154	H	1.787666	0.179802	0.499977
H155	H	1.208844	-0.168477	-0.000017
H156	H	1.708844	0.331523	0.499983
