data_functionalizedCrystal
_audit_creation_method	'MofGen! by Chris Wilmer'
_symmetry_space_group_name_H-M	'P1'
_symmetry_Int_Tables_number	1
_symmetry_cell_setting	triclinic
loop_
_symmetry_equiv_pos_as_xyz
  x,y,z
_cell_length_a	12.645330
_cell_length_b	16.625548
_cell_length_c	16.625539
_cell_angle_alpha	89.988279
_cell_angle_beta	89.975479
_cell_angle_gamma	90.018732
loop_
_atom_site_label
_atom_site_type_symbol
_atom_site_fract_x
_atom_site_fract_y
_atom_site_fract_z
Zn1	Zn	-0.421885	1.232708	-0.455805
Zn2	Zn	-0.599165	1.232642	-0.320977
Zn3	Zn	-0.421935	1.097878	-0.320998
Zn4	Zn	-0.599126	1.097863	-0.455780
O5	O	-0.510528	1.165273	-0.388390
O6	O	-0.445397	1.345531	-0.437922
O7	O	-0.575693	1.214744	-0.208148
O8	O	-0.273581	1.115797	-0.338901
O9	O	-0.575644	1.345483	-0.338864
O10	O	-0.273544	1.214856	-0.437943
O11	O	-0.445482	1.115733	-0.208163
O12	O	-0.445444	0.985043	-0.338876
O13	O	-0.575577	1.115772	-0.568615
O14	O	-0.575625	0.985032	-0.437899
O15	O	-0.445359	1.214841	-0.568634
O16	O	-0.747507	1.214730	-0.338839
O17	O	-0.747478	1.115708	-0.437878
C18	C	-0.510537	0.955782	-0.388387
C19	C	-0.510566	0.866161	-0.388405
C20	C	-0.785957	1.165232	-0.388371
C21	C	-0.903787	1.165289	-0.388390
C22	C	-1.071326	1.227483	-0.325958
C23	C	-0.948765	1.227686	-0.326111
C24	C	-0.948171	1.188327	-0.473380
C25	C	-1.070769	1.188820	-0.473049
C26	C	-1.071125	1.080032	-0.366669
C27	C	-0.948521	1.080440	-0.364763
C28	C	-0.510458	1.165312	-0.598699
C29	C	-0.510428	1.165329	-0.688320
C30	C	-0.234022	1.165335	-0.388427
C31	C	-0.116192	1.165362	-0.388443
C32	C	-0.510519	1.375581	-0.388394
C33	C	-0.510516	1.465203	-0.388395
C34	C	-0.510565	1.793378	-0.388400
C35	C	-0.510555	1.702070	-0.388396
C36	C	-0.510540	1.629293	-0.388397
C37	C	-0.510530	1.537979	-0.388394
C38	C	-0.510404	1.165342	-0.761103
C39	C	-0.510365	1.165361	-0.852411
C40	C	-0.510328	1.165380	-0.925188
C41	C	-0.510289	1.165400	-1.016502
C42	C	-0.510521	1.165280	-0.178899
C43	C	-0.510252	1.165419	-0.089279
H44	H	-1.100877	1.213250	-0.262754
H45	H	-1.100445	1.145555	-0.521208
H46	H	-1.102048	1.290345	-0.340198
C47	C	-1.021882	1.322548	-0.513008
C48	C	-1.109258	1.273021	-0.497938
H49	H	-1.045642	1.374532	-0.528367
H50	H	-0.980665	1.300069	-0.555151
H51	H	-0.980091	1.326640	-0.465718
H52	H	-1.151046	1.268924	-0.545230
H53	H	-1.150493	1.295505	-0.455791
C54	C	-0.995686	1.364130	-0.357132
C55	C	-0.909044	1.313001	-0.345565
H56	H	-0.971162	1.416800	-0.369150
H57	H	-1.037273	1.365486	-0.309563
H58	H	-1.037374	1.344784	-0.400537
H59	H	-0.867361	1.332343	-0.302156
H60	H	-0.867440	1.311648	-0.393139
C61	C	-0.996380	1.045562	-0.229412
C62	C	-0.909414	1.057041	-0.280303
H63	H	-0.972242	1.031140	-0.177261
H64	H	-1.039775	1.003816	-0.250190
H65	H	-1.036092	1.093951	-0.226261
H66	H	-0.869706	1.008650	-0.283458
H67	H	-0.866002	1.098790	-0.259519
C68	C	-0.938490	1.031989	-0.500582
C69	C	-0.907210	1.014583	-0.421695
H70	H	-0.912991	0.991330	-0.535732
H71	H	-0.910210	1.082555	-0.516252
H72	H	-1.013486	1.033873	-0.503261
H73	H	-0.832213	1.012705	-0.419015
H74	H	-0.935485	0.964003	-0.406021
H75	H	-0.919034	1.144457	-0.521183
C76	C	-1.168561	0.957961	-0.388311
C77	C	-1.110300	1.017547	-0.428103
H78	H	-1.192743	0.919391	-0.426242
H79	H	-1.227501	0.981829	-0.362149
H80	H	-1.124941	0.932242	-0.349565
H81	H	-1.153923	1.043270	-0.466846
H82	H	-1.051352	0.993677	-0.454279
H83	H	-0.918761	1.213272	-0.263092
H84	H	-0.917375	1.249994	-0.492133
H85	H	-1.102134	1.059080	-0.305774
