data_functionalizedCrystal
_audit_creation_method	'MofGen! by Chris Wilmer'
_symmetry_space_group_name_H-M	'P1'
_symmetry_Int_Tables_number	1
_symmetry_cell_setting	triclinic
loop_
_symmetry_equiv_pos_as_xyz
  x,y,z
_cell_length_a	16.959453
_cell_length_b	12.594517
_cell_length_c	16.959447
_cell_angle_alpha	90.024246
_cell_angle_beta	89.968822
_cell_angle_gamma	89.980124
loop_
_atom_site_label
_atom_site_type_symbol
_atom_site_fract_x
_atom_site_fract_y
_atom_site_fract_z
Zn1	Zn	-0.314770	-1.627171	-0.447058
Zn2	Zn	-0.446962	-1.627044	-0.314878
Zn3	Zn	-0.314790	-1.449184	-0.314879
Zn4	Zn	-0.446899	-1.449130	-0.447000
O5	O	-0.380855	-1.538132	-0.380954
O6	O	-0.332323	-1.776100	-0.429548
O7	O	-0.429465	-1.603420	-0.204267
O8	O	-0.204177	-1.472871	-0.332438
O9	O	-0.429445	-1.776007	-0.332436
O10	O	-0.204161	-1.603637	-0.429549
O11	O	-0.332358	-1.472747	-0.204268
O12	O	-0.332297	-1.300231	-0.332381
O13	O	-0.429336	-1.472778	-0.557619
O14	O	-0.429356	-1.300191	-0.429450
O15	O	-0.332261	-1.603584	-0.557662
O16	O	-0.557565	-1.603367	-0.332379
O17	O	-0.557518	-1.472655	-0.429449
C18	C	-0.380822	-1.261591	-0.380910
C19	C	-0.380827	-1.143286	-0.380909
C20	C	-0.586221	-1.538020	-0.380925
C21	C	-0.674078	-1.538070	-0.380939
C22	C	-0.327971	-1.003260	-0.328225
C23	C	-0.308717	-1.074118	-0.400360
C24	C	-0.400045	-1.074000	-0.308783
C25	C	-0.361556	-1.003358	-0.453126
C26	C	-0.452917	-1.003234	-0.361501
C27	C	-0.433691	-1.074060	-0.433685
C28	C	-0.715357	-1.469980	-0.431442
C29	C	-0.715353	-1.606212	-0.330453
C30	C	-0.797899	-1.606265	-0.330467
C31	C	-0.839177	-1.538175	-0.380971
C32	C	-0.797910	-1.470033	-0.431460
C33	C	-0.839172	-1.674414	-0.279984
C34	C	-0.921723	-1.674470	-0.279997
C35	C	-0.963003	-1.606374	-0.330497
C36	C	-0.921731	-1.538228	-0.380988
C37	C	-0.963010	-1.470139	-0.431492
C38	C	-0.921739	-1.401987	-0.481979
C39	C	-0.839190	-1.401937	-0.481960
C40	C	-1.045552	-1.606424	-0.330516
C41	C	-1.045563	-1.470192	-0.431510
C42	C	-0.174687	-1.538274	-0.381000
C43	C	-0.086830	-1.538334	-0.381020
C44	C	-0.380789	-1.538189	-0.587122
C45	C	-0.380761	-1.538214	-0.674979
C46	C	-0.380874	-0.815753	-0.380983
C47	C	-0.380846	-0.934059	-0.380953
C48	C	-0.330119	-1.470272	-1.046461
C49	C	-0.431237	-1.606343	-1.046448
C50	C	-0.431255	-1.606324	-0.963902
C51	C	-0.380706	-1.538278	-0.922632
C52	C	-0.330138	-1.470249	-0.963908
C53	C	-0.481828	-1.674344	-0.922620
C54	C	-0.481849	-1.674327	-0.840069
C55	C	-0.431295	-1.606285	-0.798797
C56	C	-0.380724	-1.538255	-0.840078
C57	C	-0.330175	-1.470208	-0.798808
C58	C	-0.279600	-1.402183	-0.840088
C59	C	-0.279584	-1.402207	-0.922636
C60	C	-0.431311	-1.606260	-0.716249
C61	C	-0.330193	-1.470185	-0.716255
C62	C	-0.380864	-1.538137	-0.175588
C63	C	-0.380669	-1.538319	-0.087731
H64	H	-0.283230	-0.972176	-0.283709
H65	H	-0.416292	-1.105034	-0.247768
H66	H	-0.288940	-1.414890	-1.080075
C67	C	-0.537457	-1.749190	-0.794669
N68	N	-0.579331	-1.805592	-0.760474
C69	C	-0.537782	-1.748711	-0.968021
N70	N	-0.580053	-1.804556	-1.002220
H71	H	-0.247757	-1.105234	-0.416808
C72	C	-0.669959	-1.395018	-0.486978
N73	N	-0.635764	-1.338558	-0.528808
C74	C	-0.486943	-1.681079	-0.670846
N75	N	-0.528848	-1.737438	-0.636648
C76	C	-0.793761	-1.749307	-0.224434
N77	N	-0.759553	-1.805716	-0.182589
H78	H	-0.478399	-1.104949	-0.478308
C79	C	-0.223993	-1.327338	-0.794680
N80	N	-0.182110	-1.270971	-0.760475
C81	C	-0.223960	-1.327381	-0.968049
N82	N	-0.182066	-1.271020	-1.002258
H83	H	-1.079151	-1.661919	-0.289415
C84	C	-0.274584	-1.395327	-0.670864
N85	N	-0.232699	-1.338942	-0.636676
C86	C	-0.487071	-1.680875	-1.091847
N87	N	-0.529209	-1.736905	-1.126045
H88	H	-0.345238	-0.972456	-0.514158
C89	C	-0.669944	-1.681107	-0.274902
N90	N	-0.635738	-1.737517	-0.233057
H91	H	-0.513857	-0.972076	-0.345040
C92	C	-0.967156	-1.327090	-0.537531
N93	N	-1.001367	-1.270677	-0.579370
C94	C	-1.090963	-1.395285	-0.487068
N95	N	-1.125158	-1.338866	-0.528916
H96	H	-0.955319	-1.729962	-0.238886
C97	C	-0.793787	-1.326986	-0.537498
N98	N	-0.759585	-1.270536	-0.579331
