data_functionalizedCrystal
_audit_creation_method	'MofGen! by Chris Wilmer'
_symmetry_space_group_name_H-M	'P1'
_symmetry_Int_Tables_number	1
_symmetry_cell_setting	triclinic
loop_
_symmetry_equiv_pos_as_xyz
  x,y,z
_cell_length_a	6.817900
_cell_length_b	19.551136
_cell_length_c	14.858572
_cell_angle_alpha	95.614431
_cell_angle_beta	104.524003
_cell_angle_gamma	101.650842
loop_
_atom_site_label
_atom_site_type_symbol
_atom_site_fract_x
_atom_site_fract_y
_atom_site_fract_z
V1	V	-4.029268	-0.097117	-0.290420
O2	O	-4.026005	0.004214	-0.284421
O3	O	-3.971850	-0.192132	-0.288887
O4	O	-3.986028	-0.095822	-0.416876
O5	O	-4.011729	-0.092762	-0.155546
V6	V	-4.513395	-0.084973	-0.274233
O7	O	-4.289200	-0.123756	-0.325928
O8	O	-4.703661	-0.058335	-0.238725
O9	O	-4.347606	0.010041	-0.275766
O10	O	-4.634055	-0.186305	-0.280233
O11	O	-4.648331	-0.089328	-0.409107
O12	O	-4.333428	-0.086268	-0.147778
C13	C	-3.814490	-0.215288	-0.284423
C14	C	-3.848866	-0.292965	-0.284012
C15	C	-3.822319	-0.319326	-0.198595
C16	C	-3.854689	-0.392309	-0.198181
C17	C	-3.913566	-0.438929	-0.283188
C18	C	-3.940125	-0.412561	-0.368616
C19	C	-3.907775	-0.339579	-0.369029
C20	C	-3.880593	-0.560034	-0.344824
C21	C	-3.912928	-0.633014	-0.344408
C22	C	-4.013355	-0.664032	-0.281920
C23	C	-4.081410	-0.622057	-0.219831
C24	C	-4.049059	-0.549075	-0.220243
C25	C	-3.948650	-0.518067	-0.282750
C26	C	-4.021908	-0.769529	-0.196047
C27	C	-4.054292	-0.842515	-0.195637
C28	C	-4.139709	-0.862765	-0.366075
C29	C	-4.107344	-0.789781	-0.366483
C30	C	-4.048435	-0.743167	-0.281466
C31	C	-3.832575	-0.092434	-0.447684
C32	C	-3.878446	-0.092004	-0.551065
C33	C	-4.046335	-0.090431	-0.929625
C34	C	-3.999615	-0.090869	-0.824298
C35	C	-3.962392	-0.091218	-0.740348
C36	C	-3.915669	-0.091654	-0.635014
C37	C	-4.168308	0.033194	-0.280228
C38	C	-4.113171	0.110870	-0.280645
C39	C	-4.150223	-0.089658	-0.116965
C40	C	-4.083591	-0.090085	-0.013583
H41	H	-3.857506	-0.667184	-0.394962
H42	H	-3.988068	-0.450524	-0.437830
O43	O	-3.936530	-0.311117	-0.461146
H44	H	-3.787838	-0.275677	-0.461954
H45	H	-4.128947	-0.768318	-0.436039
O46	O	-4.025639	-0.870948	-0.103501
H47	H	-4.134971	-0.854727	-0.066186
O48	O	-3.758761	-0.269053	-0.106897
H49	H	-3.880529	-0.280851	-0.069430
H50	H	-3.833067	-0.413777	-0.128621
H51	H	-3.798814	-0.534786	-0.395714
O52	O	-4.122349	-0.503795	-0.153248
H53	H	-4.197587	-0.537616	-0.109712
O54	O	-3.958394	-0.719251	-0.104353
H55	H	-3.805544	-0.682872	-0.096976
O56	O	-4.203217	-0.913043	-0.457760
H57	H	-4.353550	-0.906544	-0.502178
O58	O	-4.189750	-0.655499	-0.152430
H59	H	-4.200844	-0.713301	-0.162581
