data_functionalizedCrystal
_audit_creation_method	'MofGen! by Chris Wilmer'
_symmetry_space_group_name_H-M	'P1'
_symmetry_Int_Tables_number	1
_symmetry_cell_setting	triclinic
loop_
_symmetry_equiv_pos_as_xyz
  x,y,z
_cell_length_a	14.519731
_cell_length_b	15.944551
_cell_length_c	12.996460
_cell_angle_alpha	89.992903
_cell_angle_beta	89.994327
_cell_angle_gamma	83.593795
loop_
_atom_site_label
_atom_site_type_symbol
_atom_site_fract_x
_atom_site_fract_y
_atom_site_fract_z
O1	O	1.223664	0.110194	-0.085571
O2	O	1.723664	0.610194	0.414429
O3	O	0.955167	0.123142	-0.085573
O4	O	1.455167	0.623142	0.414427
O5	O	1.096748	-0.005595	-0.085563
O6	O	1.596748	0.494405	0.414437
O7	O	1.082083	0.238932	-0.085582
O8	O	1.582083	0.738932	0.414418
O9	O	1.096733	-0.005603	0.085571
O10	O	1.596733	0.494397	0.585571
O11	O	0.955152	0.123135	0.085561
O12	O	1.455152	0.623135	0.585561
O13	O	1.223649	0.110187	0.085563
O14	O	1.723649	0.610187	0.585563
Cu15	Cu	1.089399	0.116660	0.101187
Cu16	Cu	1.589399	0.616660	0.601187
Cu17	Cu	1.089417	0.116669	-0.101198
Cu18	Cu	1.589417	0.616669	0.398802
O19	O	1.082069	0.238925	0.085552
O20	O	1.582069	0.738925	0.585552
C21	C	0.920801	0.122532	-0.000006
C22	C	1.420801	0.622532	0.499994
C23	C	0.818424	0.120714	-0.000007
C24	C	1.318424	0.620714	0.499993
C25	C	0.735283	0.119237	-0.000011
C26	C	1.235283	0.619237	0.499989
C27	C	0.630977	0.117391	-0.000011
C28	C	1.130977	0.617391	0.499989
C29	C	0.547841	0.115926	-0.000011
C30	C	1.047841	0.615926	0.499989
C31	C	0.443528	0.114080	-0.000013
C32	C	0.943528	0.614080	0.499987
C33	C	1.096131	-0.036894	0.000004
C34	C	1.596131	0.463106	0.500004
C35	C	1.094306	-0.130143	0.000005
C36	C	1.594306	0.369857	0.500005
C37	C	1.002186	-0.345139	-0.000010
C38	C	1.502186	0.154861	0.499990
C39	C	1.044956	-0.406095	0.084370
C40	C	1.544956	0.093905	0.584370
C41	C	1.091005	-0.300874	-0.000003
C42	C	1.591005	0.199126	0.499997
C43	C	1.044992	-0.406072	-0.084355
C44	C	1.544992	0.093928	0.415645
C45	C	1.087809	-0.465791	-0.000015
C46	C	1.587809	0.034209	0.499985
C47	C	1.133799	-0.360601	0.084446
C48	C	1.633799	0.139399	0.584446
C49	C	1.133822	-0.360571	-0.084354
C50	C	1.633822	0.139429	0.415646
C51	C	1.176658	-0.421509	0.000046
C52	C	1.676658	0.078491	0.500046
C53	C	1.092843	-0.205868	0.000005
C54	C	1.592843	0.294132	0.500005
C55	C	1.085977	-0.560795	-0.000016
C56	C	1.585977	-0.060795	0.499984
C57	C	1.258015	0.110797	-0.000007
C58	C	1.758015	0.610797	0.499993
C59	C	1.360392	0.112615	-0.000013
C60	C	1.860392	0.612615	0.499987
C61	C	1.082685	0.270223	-0.000017
C62	C	1.582685	0.770223	0.499983
C63	C	1.084510	0.363472	-0.000024
C64	C	1.584510	0.863472	0.499976
N65	N	1.089394	0.116654	0.243535
N66	N	1.589394	0.616654	0.743535
N67	N	1.089430	0.116669	-0.243545
N68	N	1.589430	0.616669	0.256455
C69	C	1.089416	0.116670	0.663349
C70	C	1.589416	0.616670	1.163349
C71	C	1.089407	0.116668	0.546544
C72	C	1.589407	0.616668	1.046544
C73	C	1.089405	0.116663	0.453445
C74	C	1.589405	0.616663	0.953445
C75	C	1.089395	0.116660	0.336633
C76	C	1.589395	0.616660	0.836633
H77	H	0.928462	-0.311944	0.000074
H78	H	1.428462	0.188056	0.500074
C79	C	1.276339	-0.466162	0.000113
C80	C	1.776339	0.033838	0.500113
N81	N	1.351417	-0.499798	0.000170
N82	N	1.851417	0.000202	0.500170
H83	H	1.007383	-0.426264	0.155705
H84	H	1.507383	0.073736	0.655705
H85	H	1.171328	-0.340557	0.155861
H86	H	1.671328	0.159443	0.655861
C87	C	1.184538	-0.333291	-0.180732
C88	C	1.684538	0.166709	0.319268
N89	N	1.222730	-0.312741	-0.253332
N90	N	1.722730	0.187259	0.246668
C91	C	0.994229	-0.433280	-0.180725
C92	C	1.494229	0.066720	0.319275
N93	N	0.955989	-0.453769	-0.253307
N94	N	1.455989	0.046231	0.246693
