data_functionalizedCrystal
_audit_creation_method	'MofGen! by Chris Wilmer'
_symmetry_space_group_name_H-M	'P1'
_symmetry_Int_Tables_number	1
_symmetry_cell_setting	triclinic
loop_
_symmetry_equiv_pos_as_xyz
  x,y,z
_cell_length_a	12.827893
_cell_length_b	19.121111
_cell_length_c	12.827885
_cell_angle_alpha	92.406008
_cell_angle_beta	90.019272
_cell_angle_gamma	87.529784
loop_
_atom_site_label
_atom_site_type_symbol
_atom_site_fract_x
_atom_site_fract_y
_atom_site_fract_z
Zn1	Zn	1.579826	0.279579	0.608554
Zn2	Zn	2.079826	0.779579	1.108554
Zn3	Zn	1.572223	0.397046	0.441253
Zn4	Zn	2.072223	0.897046	0.941253
Zn5	Zn	1.405065	0.279614	0.433830
Zn6	Zn	1.905065	0.779614	0.933830
Zn7	Zn	1.397558	0.396994	0.615950
Zn8	Zn	1.897558	0.896994	1.115950
O9	O	1.488668	0.338308	0.524896
O10	O	1.988668	0.838308	1.024896
O11	O	1.725053	0.295169	0.586372
O12	O	2.225053	0.795169	1.086372
O13	O	1.550008	0.381505	0.294034
O14	O	2.050008	0.881505	0.794034
O15	O	1.434571	0.181325	0.450805
O16	O	1.934571	0.681325	0.950805
O17	O	1.719467	0.381471	0.463457
O18	O	2.219467	0.881471	0.963457
O19	O	1.562967	0.181300	0.579174
O20	O	2.062967	0.681300	1.079174
O21	O	1.427198	0.295227	0.288580
O22	O	1.927198	0.795227	0.788580
O23	O	1.257834	0.295177	0.457977
O24	O	1.757834	0.795177	0.957977
O25	O	1.421777	0.381382	0.761202
O26	O	1.921777	0.881382	1.261202
O27	O	1.252319	0.381415	0.591779
O28	O	1.752319	0.881415	1.091779
O29	O	1.555688	0.295118	0.755769
O30	O	2.055688	0.795118	1.255769
O31	O	1.542730	0.495323	0.470629
O32	O	2.042730	0.995323	0.970629
O33	O	1.414405	0.495285	0.598978
O34	O	1.914405	0.995285	1.098978
C35	C	1.217159	0.338295	0.524876
C36	C	1.717159	0.838295	1.024876
C37	C	1.101005	0.338306	0.524893
C38	C	1.601005	0.838306	1.024893
C39	C	1.476956	0.520788	0.536434
C40	C	1.976956	1.020788	1.036434
C41	C	1.472041	0.598854	0.541405
C42	C	1.972041	1.098854	1.041405
C43	C	1.046515	0.381046	0.591009
C44	C	1.546515	0.881046	1.091009
C45	C	0.926464	0.381059	0.591028
C46	C	1.426464	0.881059	1.091028
C47	C	1.536596	0.635526	0.476971
C48	C	2.036596	1.135526	0.976971
C49	C	1.531980	0.708877	0.481652
C50	C	2.031980	1.208877	0.981652
C51	C	1.462803	0.745554	0.550763
C52	C	1.962803	1.245554	1.050763
C53	C	1.398245	0.708877	0.615203
C54	C	1.898245	1.208877	1.115203
C55	C	1.402867	0.635528	0.610527
C56	C	1.902867	1.135528	1.110527
C57	C	1.445506	0.967023	0.568228
C58	C	1.945506	1.467023	1.068228
C59	C	1.440887	1.040378	0.572898
C60	C	1.940887	1.540378	1.072898
C61	C	1.574623	1.040373	0.439347
C62	C	2.074623	1.540373	0.939347
C63	C	1.579235	0.967021	0.434672
C64	C	2.079235	1.467021	0.934672
C65	C	1.514681	0.930351	0.499117
C66	C	2.014681	1.430351	0.999117
C67	C	1.458080	0.820531	0.555547
C68	C	1.958080	1.320531	1.055547
C69	C	1.519410	0.855375	0.494337
C70	C	2.019410	1.355375	0.994337
C71	C	1.761237	0.338322	0.524918
C72	C	2.261237	0.838322	1.024918
C73	C	1.877390	0.338328	0.524927
C74	C	2.377390	0.838328	1.024927
C75	C	1.488743	0.338241	0.797463
C76	C	1.988743	0.838241	1.297463
C77	C	1.488775	0.338212	0.913614
C78	C	1.988775	0.838212	1.413614
C79	C	1.500445	1.155116	0.513350
C80	C	2.000445	1.655116	1.013350
C81	C	1.505442	1.077050	0.508464
C82	C	2.005442	1.577050	1.008464
C83	C	1.488656	0.338325	0.253388
C84	C	1.988656	0.838325	0.753388
C85	C	1.488839	0.338156	0.137224
C86	C	1.988839	0.838156	0.637224
C87	C	1.555046	0.295518	0.962709
C88	C	2.055046	0.795518	1.462709
C89	C	1.555081	0.295487	1.082758
C90	C	2.055081	0.795487	1.582758
H91	H	1.088741	0.417626	0.647603
H92	H	1.588741	0.917626	1.147603
H93	H	1.627181	1.070238	0.386882
H94	H	2.127181	1.570238	0.886882
N95	N	1.630177	0.247132	0.900671
N96	N	2.130177	0.747132	1.400671
H97	H	1.674408	0.218636	0.949927
H98	H	2.174408	0.718636	1.449927
H99	H	1.589676	0.214665	0.853332
H100	H	2.089676	0.714665	1.353332
N101	N	1.333230	0.595978	0.680021
N102	N	1.833230	1.095978	1.180021
H103	H	1.286741	0.565594	0.635573
H104	H	1.786741	1.065594	1.135573
H105	H	1.377662	0.565536	0.726535
H106	H	1.877662	1.065536	1.226535
N107	N	1.413656	0.386599	0.975663
N108	N	1.913656	0.886599	1.475663
H109	H	1.426631	0.436800	0.959898
H110	H	1.926631	0.936800	1.459898
H111	H	1.339700	0.375644	0.956007
H112	H	1.839700	0.875644	1.456007
N113	N	1.413671	0.386581	1.081315
N114	N	1.913671	0.886581	1.581315
H115	H	1.454069	0.419118	1.038085
H116	H	1.954069	0.919118	1.538085
H117	H	1.367123	0.357972	1.034281
H118	H	1.867123	0.857972	1.534281
H119	H	1.341924	0.738746	0.671479
H120	H	1.841924	1.238746	1.171479
N121	N	1.045082	0.289850	0.449923
N122	N	1.545082	0.789850	0.949923
H123	H	1.063297	0.300689	0.375899
H124	H	1.563297	0.800689	0.875899
H125	H	1.067264	0.239685	0.463168
H126	H	1.567264	0.739685	0.963168
N127	N	0.864417	0.429537	0.666005
N128	N	1.364417	0.929537	1.166005
H129	H	0.787452	0.422676	0.655389
H130	H	1.287452	0.922676	1.155389
H131	H	0.884170	0.418675	0.739994
H132	H	1.384170	0.918675	1.239994
N133	N	0.939434	0.289846	0.449953
N134	N	1.439434	0.789846	0.949953
H135	H	0.890185	0.261331	0.405846
H136	H	1.390185	0.761331	0.905846
H137	H	0.982872	0.318415	0.403359
H138	H	1.482872	0.818415	0.903359
N139	N	1.611205	0.595969	0.402427
N140	N	2.111205	1.095969	0.902427
H141	H	1.651402	0.630334	0.362321
H142	H	2.151402	1.130334	0.862321
H143	H	1.661463	0.565487	0.443065
H144	H	2.161463	1.065487	0.943065
N145	N	1.601606	0.748431	0.412156
N146	N	2.101606	1.248431	0.912156
H147	H	1.646125	0.714066	0.367661
H148	H	2.146125	1.214066	0.867661
H149	H	1.557171	0.778915	0.365705
H150	H	2.057171	1.278915	0.865705
H151	H	1.384567	1.070239	0.629194
H152	H	1.884567	1.570239	1.129194
H153	H	1.392942	0.937171	0.620699
H154	H	1.892942	1.437171	1.120699
N155	N	1.383457	0.860093	0.630072
N156	N	1.883457	1.360093	1.130072
H157	H	1.343254	0.825734	0.670182
H158	H	1.843254	1.325734	1.170182
H159	H	1.424054	0.890477	0.680408
H160	H	1.924054	1.390477	1.180408
N161	N	1.630247	0.247070	1.138686
N162	N	2.130247	0.747070	1.638686
H163	H	1.619619	0.253912	1.216516
H164	H	2.119619	0.753912	1.716516
H165	H	1.617222	0.196901	1.116496
H166	H	2.117222	0.696901	1.616496
H167	H	1.635564	0.937160	0.378397
H168	H	2.135564	1.437160	0.878397
H169	H	1.575738	0.825511	0.438071
H170	H	2.075738	1.325511	0.938071
