data_functionalizedCrystal
_audit_creation_method	'MofGen! by Chris Wilmer'
_symmetry_space_group_name_H-M	'P1'
_symmetry_Int_Tables_number	1
_symmetry_cell_setting	triclinic
loop_
_symmetry_equiv_pos_as_xyz
  x,y,z
_cell_length_a	14.519709
_cell_length_b	12.837942
_cell_length_c	11.892095
_cell_angle_alpha	85.697431
_cell_angle_beta	86.099364
_cell_angle_gamma	90.745457
loop_
_atom_site_label
_atom_site_type_symbol
_atom_site_fract_x
_atom_site_fract_y
_atom_site_fract_z
O1	O	1.240918	-0.129302	-0.093854
O2	O	1.740918	0.370698	0.406146
O3	O	0.973826	-0.145304	-0.093888
O4	O	1.473826	0.354696	0.406112
O5	O	1.101449	0.013610	-0.093865
O6	O	1.601449	0.513610	0.406135
O7	O	1.113295	-0.288216	-0.093877
O8	O	1.613295	0.211784	0.406123
O9	O	1.090807	0.000381	0.094141
O10	O	1.590807	0.500381	0.594141
O11	O	0.963184	-0.158534	0.094118
O12	O	1.463184	0.341466	0.594118
O13	O	1.230275	-0.142531	0.094152
O14	O	1.730275	0.357469	0.594152
Zn15	Zn	1.095040	-0.152633	0.123985
Zn16	Zn	1.595040	0.347367	0.623985
Zn17	Zn	1.109062	-0.135203	-0.123721
Zn18	Zn	1.609062	0.364797	0.376279
O19	O	1.102652	-0.301446	0.094129
O20	O	1.602652	0.198554	0.594129
C21	C	0.934081	-0.151173	0.000110
C22	C	1.434081	0.348827	0.500110
C23	C	0.831507	-0.148937	0.000097
C24	C	1.331507	0.351063	0.500097
C25	C	1.092127	0.045624	0.000137
C26	C	1.592127	0.545624	0.500137
C27	C	1.080193	0.160723	0.000134
C28	C	1.580193	0.660723	0.500134
N29	N	1.085477	-0.164528	0.293037
N30	N	1.585477	0.335472	0.793037
C31	C	0.455897	-0.140712	0.000149
C32	C	0.955897	0.359288	0.500149
C33	C	0.560404	-0.142996	0.000134
C34	C	1.060404	0.357004	0.500134
C35	C	0.643699	-0.144824	0.000122
C36	C	1.143699	0.355176	0.500122
C37	C	0.748212	-0.147109	0.000110
C38	C	1.248212	0.352891	0.500110
C39	C	1.270021	-0.136663	0.000151
C40	C	1.770021	0.363337	0.500151
C41	C	1.372595	-0.138898	0.000157
C42	C	1.872595	0.361102	0.500157
C43	C	1.111975	-0.333459	0.000124
C44	C	1.611975	0.166541	0.500124
C45	C	1.123910	-0.448558	0.000120
C46	C	1.623910	0.051442	0.500120
C47	C	1.223663	0.401416	0.000129
C48	C	1.723663	0.901416	0.500129
C49	C	1.212455	0.509563	0.000125
C50	C	1.712455	1.009563	0.500125
C51	C	1.046568	0.485166	0.000116
C52	C	1.546568	0.985166	0.500116
C53	C	1.057777	0.377019	0.000119
C54	C	1.557777	0.877019	0.500119
C55	C	1.146327	0.335148	0.000127
C56	C	1.646327	0.835148	0.500127
C57	C	1.157535	0.226999	0.000139
C58	C	1.657535	0.726999	0.500139
C59	C	0.991649	0.202605	0.000121
C60	C	1.491649	0.702605	0.500121
C61	C	0.980440	0.310752	0.000118
C62	C	1.480440	0.810752	0.500118
N63	N	1.118632	-0.123299	-0.292773
N64	N	1.618632	0.376701	0.207227
C65	C	1.185172	-0.040467	0.529703
C66	C	1.685172	0.459533	1.029703
C67	C	1.178494	-0.048789	0.648044
C68	C	1.678494	0.451211	1.148044
C69	C	1.065441	-0.189489	0.648061
C70	C	1.565441	0.310511	1.148061
C71	C	1.072118	-0.181167	0.529721
C72	C	1.572118	0.318833	1.029721
C73	C	1.131986	-0.106655	0.470546
C74	C	1.631986	0.393345	0.970546
C75	C	1.138668	-0.098338	0.352203
C76	C	1.638668	0.401662	0.852203
C77	C	1.025610	-0.239032	0.352222
C78	C	1.525610	0.260968	0.852222
C79	C	1.018933	-0.247355	0.470563
C80	C	1.518933	0.252645	0.970563
H81	H	1.229637	0.192909	0.000149
H82	H	1.729637	0.692909	0.500149
H83	H	1.275431	0.563515	0.000123
H84	H	1.775431	1.063515	0.500123
H85	H	1.295764	0.367323	0.000146
H86	H	1.795764	0.867323	0.500146
O87	O	0.968243	-0.310431	0.288418
O88	O	1.468243	0.189569	0.788418
H89	H	0.893894	-0.298650	0.311148
H90	H	1.393894	0.201350	0.811148
H91	H	0.970186	-0.308019	0.518757
H92	H	1.470186	0.191981	1.018757
O93	O	1.000872	-0.269852	0.711893
O94	O	1.500872	0.230148	1.211893
H95	H	1.005170	-0.264518	0.804120
H96	H	1.505170	0.235482	1.304120
H97	H	0.974474	0.519278	0.000097
H98	H	1.474474	1.019278	0.500097
H99	H	0.908345	0.344859	0.000107
H100	H	1.408345	0.844859	0.500107
O101	O	0.908233	0.131121	0.000124
O102	O	1.408233	0.631121	0.500124
H103	H	0.861984	0.140639	0.076757
H104	H	1.361984	0.640639	0.576757
H105	H	1.233925	0.020197	0.481522
H106	H	1.733925	0.520197	0.981522
O107	O	1.203230	-0.017970	0.288370
O108	O	1.703230	0.482030	0.788370
H109	H	1.239082	0.026665	0.349393
H110	H	1.739082	0.526665	0.849393
O111	O	1.235868	0.022585	0.711855
O112	O	1.735868	0.522585	1.211855
H113	H	1.278625	0.075786	0.650821
H114	H	1.778625	0.575786	1.150821
