data_functionalizedCrystal
_audit_creation_method	'MofGen! by Chris Wilmer'
_symmetry_space_group_name_H-M	'P1'
_symmetry_Int_Tables_number	1
_symmetry_cell_setting	triclinic
loop_
_symmetry_equiv_pos_as_xyz
  x,y,z
_cell_length_a	6.817900
_cell_length_b	11.353959
_cell_length_c	12.000055
_cell_angle_alpha	99.248069
_cell_angle_beta	119.142236
_cell_angle_gamma	107.526623
loop_
_atom_site_label
_atom_site_type_symbol
_atom_site_fract_x
_atom_site_fract_y
_atom_site_fract_z
V1	V	-4.284952	-0.186385	-0.440054
O2	O	-4.205461	0.003835	-0.390128
O3	O	-4.294418	-0.364643	-0.477005
O4	O	-4.321913	-0.185765	-0.613746
O5	O	-4.177776	-0.176282	-0.252441
V6	V	-4.750021	-0.163367	-0.412760
O7	O	-4.586691	-0.236876	-0.499927
O8	O	-4.898479	-0.112875	-0.352887
O9	O	-4.517348	0.014892	-0.375809
O10	O	-4.946908	-0.353586	-0.462686
O11	O	-4.974593	-0.173469	-0.600373
O12	O	-4.489853	-0.163986	-0.239068
C13	C	-4.150734	-0.408029	-0.480374
C14	C	-4.240330	-0.553772	-0.511744
C15	C	-4.185804	-0.179850	-0.654799
C16	C	-4.297690	-0.180523	-0.797055
C17	C	-4.169365	-0.174527	-0.852890
C18	C	-4.285001	-0.175222	-0.999920
C19	C	-4.180883	-0.599566	-0.410208
C20	C	-4.273482	-0.750199	-0.442627
C21	C	-4.324374	0.058271	-0.372438
C22	C	-4.214021	0.204013	-0.341077
C23	C	-4.289302	-0.169905	-0.198009
C24	C	-4.156651	-0.169226	-0.055750
H25	H	-3.973897	-0.168886	-0.791845
H26	H	-3.961174	-0.163584	-0.994711
O27	O	-4.071624	-0.709923	-0.208654
C28	C	-4.034273	-0.781750	-0.120541
H29	H	-4.189984	-0.887652	-0.179807
H30	H	-4.036636	-0.731567	-0.031229
H31	H	-3.846003	-0.784113	-0.079337
O32	O	-4.038271	-0.513124	-0.277939
C33	C	-3.977600	-0.381970	-0.275017
H34	H	-3.990971	-0.378404	-0.372780
H35	H	-3.778946	-0.313347	-0.182030
H36	H	-4.113817	-0.348102	-0.267879
O37	O	-4.382542	-0.639888	-0.644129
C38	C	-4.247528	-0.612413	-0.703446
H39	H	-4.097355	-0.505086	-0.645107
H40	H	-4.380487	-0.627779	-0.815366
H41	H	-4.155569	-0.682156	-0.697833
H42	H	-4.480489	-0.180879	-1.060966
H43	H	-4.493169	-0.186179	-0.858106
H44	H	-4.392942	-0.822507	-0.553564
