data_functionalizedCrystal
_audit_creation_method	'MofGen! by Chris Wilmer'
_symmetry_space_group_name_H-M	'P1'
_symmetry_Int_Tables_number	1
_symmetry_cell_setting	triclinic
loop_
_symmetry_equiv_pos_as_xyz
  x,y,z
_cell_length_a	16.959455
_cell_length_b	16.120531
_cell_length_c	16.959447
_cell_angle_alpha	87.136958
_cell_angle_beta	89.985678
_cell_angle_gamma	87.070795
loop_
_atom_site_label
_atom_site_type_symbol
_atom_site_fract_x
_atom_site_fract_y
_atom_site_fract_z
Zn1	Zn	1.192357	0.331957	-0.462832
Zn2	Zn	1.185548	0.471386	-0.337341
Zn3	Zn	1.060184	0.331984	-0.330671
Zn4	Zn	1.053421	0.471323	-0.469477
O5	O	1.122877	0.401662	-0.400080
O6	O	1.302064	0.350468	-0.446196
O7	O	1.168898	0.452931	-0.225847
O8	O	1.083397	0.215315	-0.342629
O9	O	1.297061	0.452905	-0.353999
O10	O	1.180504	0.215296	-0.439728
O11	O	1.076794	0.350513	-0.220946
O12	O	0.948677	0.350452	-0.349073
O13	O	1.071871	0.452799	-0.579205
O14	O	0.943708	0.452824	-0.451053
O15	O	1.173946	0.350408	-0.574323
O16	O	1.162341	0.588043	-0.360442
O17	O	1.065268	0.587997	-0.457522
C18	C	0.917512	0.401635	-0.400061
C19	C	0.829655	0.401643	-0.400072
C20	C	1.112353	0.618270	-0.410444
C21	C	1.107923	0.710935	-0.414904
C22	C	0.460744	0.348314	-0.347082
C23	C	0.455611	0.455080	-0.453126
C24	C	0.538157	0.455068	-0.453121
C25	C	0.582001	0.401679	-0.400095
C26	C	0.543298	0.348302	-0.347074
C27	C	0.576866	0.508450	-0.506136
C28	C	0.659417	0.508441	-0.506132
C29	C	0.703263	0.455047	-0.453109
C30	C	0.664555	0.401667	-0.400086
C31	C	0.708398	0.348278	-0.347060
C32	C	0.669692	0.294893	-0.294041
C33	C	0.587143	0.294908	-0.294051
C34	C	0.785812	0.455032	-0.453098
C35	C	0.790952	0.348266	-0.347051
C36	C	1.099840	0.880596	-0.423063
C37	C	1.145945	0.921888	-0.377052
C38	C	1.141447	1.016294	-0.381592
C39	C	1.104336	0.786182	-0.418525
C40	C	1.329044	0.401691	-0.400100
C41	C	1.416900	0.401703	-0.400109
C42	C	1.122914	0.401593	-0.606245
C43	C	1.122929	0.401564	-0.694100
C44	C	1.133436	1.184209	-0.389679
C45	C	1.137864	1.091544	-0.385209
C46	C	1.069882	0.454787	-1.068116
C47	C	1.176174	0.348166	-1.063028
C48	C	1.176152	0.348183	-0.980483
C49	C	1.122995	0.401504	-0.941751
C50	C	1.069860	0.454808	-0.985564
C51	C	1.229291	0.294887	-0.936664
C52	C	1.229272	0.294903	-0.854113
C53	C	1.176111	0.348221	-0.815380
C54	C	1.122973	0.401525	-0.859198
C55	C	1.069816	0.454846	-0.820466
C56	C	1.016674	0.508148	-0.864283
C57	C	1.016698	0.508125	-0.946830
C58	C	1.176086	0.348243	-0.732832
C59	C	1.069794	0.454867	-0.737914
C60	C	1.122890	0.401671	-0.194714
C61	C	1.123039	0.401466	-0.106848
H62	H	0.826645	0.304784	-0.303875
Br63	Br	1.248208	0.275920	-0.673371
Br64	Br	0.997642	0.527229	-0.685355
H65	H	1.219456	0.304759	-1.094569
H66	H	1.188793	0.886339	-0.334251
Br67	Br	1.028425	0.939844	-0.494397
Br68	Br	0.944541	0.580516	-0.811709
Br69	Br	0.997759	0.527116	-1.127577
H70	H	0.705400	0.251427	-0.250863
H71	H	0.817323	0.498500	-0.496264
Br72	Br	1.301390	0.222566	-0.794655
Br73	Br	0.534609	0.222463	-0.222104
Br74	Br	0.408218	0.275859	-0.275137
H75	H	1.272573	0.251481	-0.968206
H76	H	0.419908	0.498552	-0.496294
H77	H	0.541162	0.551923	-0.549301
Br78	Br	0.944586	0.580459	-1.006299
Br79	Br	0.711940	0.580889	-0.578085
