data_functionalizedCrystal
_audit_creation_method	'MofGen! by Chris Wilmer'
_symmetry_space_group_name_H-M	'P1'
_symmetry_Int_Tables_number	1
_symmetry_cell_setting	triclinic
loop_
_symmetry_equiv_pos_as_xyz
  x,y,z
_cell_length_a	12.759401
_cell_length_b	16.120484
_cell_length_c	12.759393
_cell_angle_alpha	92.862621
_cell_angle_beta	89.982620
_cell_angle_gamma	92.925560
loop_
_atom_site_label
_atom_site_type_symbol
_atom_site_fract_x
_atom_site_fract_y
_atom_site_fract_z
Zn1	Zn	1.584960	-0.331851	-0.615146
Zn2	Zn	1.575915	-0.471289	-0.448359
Zn3	Zn	1.409262	-0.331895	-0.439488
Zn4	Zn	1.400312	-0.471225	-0.623996
O5	O	1.492612	-0.401565	-0.531747
O6	O	1.730780	-0.350357	-0.593029
O7	O	1.553768	-0.452844	-0.300164
O8	O	1.440101	-0.215224	-0.455373
O9	O	1.724135	-0.452801	-0.470492
O10	O	1.569185	-0.215192	-0.584428
O11	O	1.431330	-0.350432	-0.293646
O12	O	1.261055	-0.350369	-0.463955
O13	O	1.424845	-0.452691	-0.769840
O14	O	1.254478	-0.452734	-0.599512
O15	O	1.560505	-0.350294	-0.763338
O16	O	1.545089	-0.587946	-0.479074
O17	O	1.416074	-0.587899	-0.608114
C18	C	1.219646	-0.401550	-0.531732
C19	C	1.102868	-0.401563	-0.531751
C20	C	1.044604	-0.454950	-0.602230
C21	C	0.934879	-0.454961	-0.602242
C22	C	0.941693	-0.348196	-0.461287
C23	C	1.051416	-0.348181	-0.461281
C24	C	1.096056	-0.508332	-0.672701
C25	C	1.037792	-0.561724	-0.743185
C26	C	0.928067	-0.561734	-0.743197
C27	C	0.876607	-0.508353	-0.672725
C28	C	1.478657	-0.618172	-0.545539
C29	C	1.472783	-0.710838	-0.551475
C30	C	1.462065	-0.880498	-0.562333
C31	C	1.523347	-0.921791	-0.501178
C32	C	1.517384	-1.016197	-0.507219
C33	C	1.468028	-0.786085	-0.556293
C34	C	1.766644	-0.401581	-0.531763
C35	C	1.883421	-0.401588	-0.531770
C36	C	1.492686	-0.401480	-0.805775
C37	C	1.492717	-0.401444	-0.922549
C38	C	1.506650	-0.184112	-0.517924
C39	C	1.512632	-0.091447	-0.512033
C40	C	1.428993	-0.348108	-0.974023
C41	C	1.429026	-0.348083	-1.083746
C42	C	1.556517	-0.454733	-1.090511
C43	C	1.556478	-0.454761	-0.980791
C44	C	1.365232	-0.294791	-0.915782
C45	C	1.301503	-0.241450	-0.967256
C46	C	1.301536	-0.241426	-1.076978
C47	C	1.365299	-0.294742	-1.135227
C48	C	1.492603	-0.401590	-0.258781
C49	C	1.492790	-0.401391	-0.141992
H50	H	0.787262	-0.508359	-0.672749
C51	C	1.626571	-0.513439	-0.924167
N52	N	1.679361	-0.557641	-0.881518
C53	C	1.385131	-0.928521	-0.639180
N54	N	1.327180	-0.964701	-0.697055
H55	H	1.580290	-0.886243	-0.444282
H56	H	1.098856	-0.304703	-0.403898
C57	C	1.231434	-0.182751	-1.133596
N58	N	1.178636	-0.138550	-1.176238
H59	H	1.365200	-0.294804	-0.826440
H60	H	1.249584	-0.198047	-0.919823
H61	H	1.365318	-0.294719	-1.224570
C62	C	1.626501	-0.513489	-1.154596
N63	N	1.679161	-0.557785	-1.202867
H64	H	0.880631	-0.605202	-0.800595
C65	C	0.885082	-0.289485	-0.383768
N66	N	0.842442	-0.245267	-0.325376
H67	H	1.185399	-0.508331	-0.672697
C68	C	1.094400	-0.620438	-0.820701
N69	N	1.137036	-0.664664	-0.879087
