data_functionalizedCrystal
_audit_creation_method	'MofGen! by Chris Wilmer'
_symmetry_space_group_name_H-M	'P1'
_symmetry_Int_Tables_number	1
_symmetry_cell_setting	triclinic
loop_
_symmetry_equiv_pos_as_xyz
  x,y,z
_cell_length_a	27.732064
_cell_length_b	27.732025
_cell_length_c	16.053802
_cell_angle_alpha	92.558378
_cell_angle_beta	87.447638
_cell_angle_gamma	82.641446
loop_
_atom_site_label
_atom_site_type_symbol
_atom_site_fract_x
_atom_site_fract_y
_atom_site_fract_z
O1	O	0.642967	0.055511	-0.069256
O2	O	0.892967	0.305511	0.180744
O3	O	1.142967	0.555511	0.430744
O4	O	1.392967	0.805511	0.680744
O5	O	0.502175	0.064247	-0.069286
O6	O	0.752175	0.314247	0.180714
O7	O	1.002175	0.564247	0.430714
O8	O	1.252175	0.814247	0.680714
O9	O	0.576950	-0.010519	-0.069295
O10	O	0.826950	0.239481	0.180705
O11	O	1.076950	0.489481	0.430705
O12	O	1.326950	0.739481	0.680705
O13	O	0.568192	0.130277	-0.069247
O14	O	0.818192	0.380277	0.180753
O15	O	1.068192	0.630277	0.430753
O16	O	1.318192	0.880277	0.680753
O17	O	0.572834	-0.006421	0.069564
O18	O	0.822834	0.243579	0.319564
O19	O	1.072834	0.493579	0.569564
O20	O	1.322834	0.743579	0.819564
O21	O	0.498059	0.068345	0.069573
O22	O	0.748059	0.318345	0.319573
O23	O	0.998059	0.568345	0.569573
O24	O	1.248059	0.818345	0.819573
O25	O	0.638851	0.059609	0.069604
O26	O	0.888851	0.309609	0.319604
O27	O	1.138851	0.559609	0.569604
O28	O	1.388851	0.809609	0.819604
Zn29	Zn	0.567802	0.064628	0.091635
Zn30	Zn	0.817802	0.314628	0.341635
Zn31	Zn	1.067802	0.564628	0.591635
Zn32	Zn	1.317802	0.814628	0.841635
Zn33	Zn	0.573224	0.059228	-0.091318
Zn34	Zn	0.823224	0.309228	0.158682
Zn35	Zn	1.073224	0.559228	0.408682
Zn36	Zn	1.323224	0.809228	0.658682
O37	O	0.564076	0.134375	0.069613
O38	O	0.814076	0.384375	0.319613
O39	O	1.064076	0.634375	0.569613
O40	O	1.314076	0.884375	0.819613
C41	C	0.482110	0.066111	0.000139
C42	C	0.732110	0.316111	0.250139
C43	C	0.982110	0.566111	0.500139
C44	C	1.232110	0.816111	0.750139
C45	C	0.428456	0.065555	0.000126
C46	C	0.678456	0.315555	0.250126
C47	C	0.928456	0.565555	0.500126
C48	C	1.178456	0.815555	0.750126
C49	C	0.051386	0.017588	0.000157
C50	C	0.301386	0.267588	0.250157
C51	C	0.551386	0.517588	0.500157
C52	C	0.801386	0.767588	0.750157
C53	C	0.253047	0.019634	0.000136
C54	C	0.503047	0.269634	0.250136
C55	C	0.753047	0.519634	0.500136
C56	C	1.003047	0.769634	0.750136
O57	O	0.284302	-0.017587	0.000154
O58	O	0.534302	0.232413	0.250154
O59	O	0.784302	0.482413	0.500154
O60	O	1.034302	0.732413	0.750154
N61	N	0.272171	0.063969	0.000147
N62	N	0.522171	0.313969	0.250147
N63	N	0.772171	0.563969	0.500147
N64	N	1.022171	0.813969	0.750147
C65	C	0.240875	0.107796	0.000170
C66	C	0.490875	0.357796	0.250170
C67	C	0.740875	0.607796	0.500170
C68	C	0.990875	0.857796	0.750170
O69	O	0.261768	0.145553	0.000188
O70	O	0.511768	0.395553	0.250188
O71	O	0.761768	0.645553	0.500188
O72	O	1.011768	0.895553	0.750188
C73	C	0.039215	0.105750	0.000197
C74	C	0.289215	0.355750	0.250197
C75	C	0.539215	0.605750	0.500197
C76	C	0.789215	0.855750	0.750197
C77	C	0.020095	0.061412	0.000177
C78	C	0.270095	0.311412	0.250177
C79	C	0.520095	0.561412	0.500177
C80	C	0.770095	0.811412	0.750177
C81	C	0.032265	-0.026746	0.000138
C82	C	0.282265	0.223254	0.250138
C83	C	0.532265	0.473254	0.500138
C84	C	0.782265	0.723254	0.750138
C85	C	-0.018147	-0.027258	0.000138
C86	C	0.231853	0.222742	0.250138
C87	C	0.481853	0.472742	0.500138
C88	C	0.731853	0.722742	0.750138
C89	C	-0.049438	0.016566	0.000158
C90	C	0.200562	0.266566	0.250158
C91	C	0.450562	0.516566	0.500158
C92	C	0.700562	0.766566	0.750158
C93	C	-0.030317	0.060901	0.000177
C94	C	0.219683	0.310901	0.250177
C95	C	0.469683	0.560901	0.500177
C96	C	0.719683	0.810901	0.750177
C97	C	0.007921	0.149577	0.000225
C98	C	0.257921	0.399577	0.250225
C99	C	0.507921	0.649577	0.500225
C100	C	0.757921	0.899577	0.750225
C101	C	-0.042497	0.149061	0.000234
C102	C	0.207503	0.399061	0.250234
C103	C	0.457503	0.649061	0.500234
C104	C	0.707503	0.899061	0.750234
C105	C	-0.061617	0.104723	0.000214
C106	C	0.188383	0.354723	0.250214
C107	C	0.438383	0.604723	0.500214
C108	C	0.688383	0.854723	0.750214
C109	C	-0.112020	0.104213	0.000198
C110	C	0.137980	0.354213	0.250198
C111	C	0.387980	0.604213	0.500198
C112	C	0.637980	0.854213	0.750198
N113	N	-0.131144	0.059878	0.000186
N114	N	0.118856	0.309878	0.250186
N115	N	0.368856	0.559878	0.500186
N116	N	0.618856	0.809878	0.750186
C117	C	-0.099853	0.016054	0.000166
C118	C	0.150147	0.266054	0.250166
C119	C	0.400147	0.516054	0.500166
C120	C	0.650147	0.766054	0.750166
C121	C	0.346750	0.108867	0.000154
C122	C	0.596750	0.358867	0.250154
C123	C	0.846750	0.608867	0.500154
C124	C	1.096750	0.858867	0.750154
C125	C	0.397165	0.109379	0.000146
C126	C	0.647165	0.359379	0.250146
C127	C	0.897165	0.609379	0.500146
C128	C	1.147165	0.859379	0.750146
C129	C	0.409333	0.021216	0.000113
C130	C	0.659333	0.271216	0.250113
C131	C	0.909333	0.521216	0.500113
C132	C	1.159333	0.771216	0.750113
C133	C	0.358918	0.020705	0.000116
C134	C	0.608918	0.270705	0.250116
C135	C	0.858918	0.520705	0.500116
C136	C	1.108918	0.770705	0.750116
C137	C	0.327627	0.064532	0.000142
C138	C	0.577627	0.314532	0.250142
C139	C	0.827627	0.564532	0.500142
C140	C	1.077627	0.814532	0.750142
C141	C	-0.205722	0.014984	0.000167
C142	C	0.044278	0.264984	0.250167
C143	C	0.294278	0.514984	0.500167
C144	C	0.544278	0.764984	0.750167
C145	C	-0.256139	0.014477	0.000164
C146	C	-0.006139	0.264477	0.250164
C147	C	0.243861	0.514477	0.500164
C148	C	0.493861	0.764477	0.750164
C149	C	-0.268303	0.102639	0.000201
C150	C	-0.018303	0.352639	0.250201
C151	C	0.231697	0.602639	0.500201
C152	C	0.481697	0.852639	0.750201
C153	C	-0.217890	0.103147	0.000200
C154	C	0.032110	0.353147	0.250200
C155	C	0.282110	0.603147	0.500200
C156	C	0.532110	0.853147	0.750200
C157	C	-0.186601	0.059315	0.000185
C158	C	0.063399	0.309315	0.250185
C159	C	0.313399	0.559315	0.500185
C160	C	0.563399	0.809315	0.750185
O161	O	-0.143304	0.141414	0.000189
O162	O	0.106696	0.391414	0.250189
O163	O	0.356696	0.641414	0.500189
O164	O	0.606696	0.891414	0.750189
O165	O	-0.120755	-0.021696	0.000167
O166	O	0.129245	0.228304	0.250167
O167	O	0.379245	0.478304	0.500167
O168	O	0.629245	0.728304	0.750167
C169	C	0.101798	0.018099	0.000156
C170	C	0.351798	0.268099	0.250156
C171	C	0.601798	0.518099	0.500156
C172	C	0.851798	0.768099	0.750156
C173	C	0.120919	0.062434	0.000175
C174	C	0.370919	0.312434	0.250175
C175	C	0.620919	0.562434	0.500175
C176	C	0.870919	0.812434	0.750175
C177	C	0.089628	0.106257	0.000195
C178	C	0.339628	0.356257	0.250195
C179	C	0.589628	0.606257	0.500195
C180	C	0.839628	0.856257	0.750195
C181	C	0.171334	0.062945	0.000167
C182	C	0.421334	0.312945	0.250167
C183	C	0.671334	0.562945	0.500167
C184	C	0.921334	0.812945	0.750167
C185	C	0.202625	0.019122	0.000147
C186	C	0.452625	0.269122	0.250147
C187	C	0.702625	0.519122	0.500147
C188	C	0.952625	0.769122	0.750147
C189	C	0.183502	-0.025213	0.000135
C190	C	0.433502	0.224787	0.250135
C191	C	0.683502	0.474787	0.500135
C192	C	0.933502	0.724787	0.750135
C193	C	0.133090	-0.025724	0.000136
C194	C	0.383090	0.224276	0.250136
C195	C	0.633090	0.474276	0.500136
C196	C	0.883090	0.724276	0.750136
C197	C	0.108752	0.150593	0.000207
C198	C	0.358752	0.400593	0.250207
C199	C	0.608752	0.650593	0.500207
C200	C	0.858752	0.900593	0.750207
C201	C	0.159164	0.151100	0.000205
C202	C	0.409164	0.401100	0.250205
C203	C	0.659164	0.651100	0.500205
C204	C	0.909164	0.901100	0.750205
C205	C	0.190455	0.107276	0.000185
C206	C	0.440455	0.357276	0.250185
C207	C	0.690455	0.607276	0.500185
C208	C	0.940455	0.857276	0.750185
C209	C	0.574710	-0.026477	0.000126
C210	C	0.824710	0.223523	0.250126
C211	C	1.074710	0.473523	0.500126
C212	C	1.324710	0.723523	0.750126
C213	C	0.574162	-0.080134	0.000101
C214	C	0.824162	0.169866	0.250101
C215	C	1.074162	0.419866	0.500101
C216	C	1.324162	0.669866	0.750101
C217	C	0.572508	-0.465532	-0.075543
C218	C	0.822508	-0.215532	0.174457
C219	C	1.072508	0.034468	0.424457
C220	C	1.322508	0.284468	0.674457
C221	C	0.574561	-0.263873	-0.075570
C222	C	0.824561	-0.013873	0.174430
C223	C	1.074561	0.236127	0.424430
C224	C	1.324561	0.486127	0.674430
O225	O	0.576754	-0.239706	-0.139945
O226	O	0.826754	0.010294	0.110055
O227	O	1.076754	0.260294	0.360055
O228	O	1.326754	0.510294	0.610055
N229	N	0.572574	-0.236418	0.000120
N230	N	0.822574	0.013582	0.250120
N231	N	1.072574	0.263582	0.500120
N232	N	1.322574	0.513582	0.750120
C233	C	0.570077	-0.259381	0.075822
C234	C	0.820077	-0.009381	0.325822
C235	C	1.070077	0.240619	0.575822
C236	C	1.320077	0.490619	0.825822
O237	O	0.568439	-0.231402	0.140201
O238	O	0.818439	0.018598	0.390201
O239	O	1.068439	0.268598	0.640201
O240	O	1.318439	0.518598	0.890201
C241	C	0.568027	-0.461039	0.075848
C242	C	0.818027	-0.211039	0.325848
C243	C	1.068027	0.038961	0.575848
C244	C	1.318027	0.288961	0.825848
C245	C	0.570009	-0.488491	0.000153
C246	C	0.820009	-0.238491	0.250153
C247	C	1.070009	0.011509	0.500153
C248	C	1.320009	0.261509	0.750153
C249	C	0.574490	-0.492984	-0.151232
C250	C	0.824490	-0.242984	0.098768
C251	C	1.074490	0.007016	0.348768
C252	C	1.324490	0.257016	0.598768
C253	C	0.573974	-0.543395	-0.151225
C254	C	0.823974	-0.293395	0.098775
C255	C	1.073974	-0.043395	0.348775
C256	C	1.323974	0.206605	0.598775
C257	C	0.571476	-0.566355	-0.075529
C258	C	0.821476	-0.316355	0.174471
C259	C	1.071476	-0.066355	0.424471
C260	C	1.321476	0.183645	0.674471
C261	C	0.569493	-0.538903	0.000160
C262	C	0.819493	-0.288903	0.250160
C263	C	1.069493	-0.038903	0.500160
C264	C	1.319493	0.211097	0.750160
C265	C	0.565534	-0.484002	0.151549
C266	C	0.815534	-0.234002	0.401549
C267	C	1.065534	0.015998	0.651549
C268	C	1.315534	0.265998	0.901549
C269	C	0.565023	-0.534420	0.151549
C270	C	0.815023	-0.284420	0.401549
C271	C	1.065023	-0.034420	0.651549
C272	C	1.315023	0.215580	0.901549
C273	C	0.567005	-0.561872	0.075854
C274	C	0.817005	-0.311872	0.325854
C275	C	1.067005	-0.061872	0.575854
C276	C	1.317005	0.188128	0.825854
C277	C	0.566479	-0.612273	0.075864
C278	C	0.816479	-0.362273	0.325864
C279	C	1.066479	-0.112273	0.575864
C280	C	1.316479	0.137727	0.825864
N281	N	0.568466	-0.639728	0.000174
N282	N	0.818466	-0.389728	0.250174
N283	N	1.068466	-0.139728	0.500174
N284	N	1.318466	0.110272	0.750174
C285	C	0.570964	-0.616769	-0.075522
C286	C	0.820964	-0.366769	0.174478
C287	C	1.070964	-0.116769	0.424478
C288	C	1.320964	0.133231	0.674478
C289	C	0.571152	-0.153507	0.075804
C290	C	0.821152	0.096493	0.325804
C291	C	1.071152	0.346493	0.575804
C292	C	1.321152	0.596493	0.825804
C293	C	0.571664	-0.103093	0.075797
C294	C	0.821664	0.146907	0.325797
C295	C	1.071664	0.396907	0.575797
C296	C	1.321664	0.646907	0.825797
C297	C	0.576149	-0.107589	-0.075595
C298	C	0.826149	0.142411	0.174405
C299	C	1.076149	0.392411	0.424405
C300	C	1.326149	0.642411	0.674405
C301	C	0.575634	-0.158004	-0.075588
C302	C	0.825634	0.091996	0.174412
C303	C	1.075634	0.341996	0.424412
C304	C	1.325634	0.591996	0.674412
C305	C	0.573139	-0.180963	0.000113
C306	C	0.823139	0.069037	0.250113
C307	C	1.073139	0.319037	0.500113
C308	C	1.323139	0.569037	0.750113
C309	C	0.569880	-0.722636	-0.075501
C310	C	0.819880	-0.472636	0.174499
C311	C	1.069880	-0.222636	0.424499
C312	C	1.319880	0.027364	0.674499
C313	C	0.569362	-0.773051	-0.075487
C314	C	0.819362	-0.523051	0.174513
C315	C	1.069362	-0.273051	0.424513
C316	C	1.319362	-0.023051	0.674513
C317	C	0.564880	-0.768551	0.075905
C318	C	0.814880	-0.518551	0.325905
C319	C	1.064880	-0.268551	0.575905
C320	C	1.314880	-0.018551	0.825905
C321	C	0.565395	-0.718140	0.075891
C322	C	0.815395	-0.468140	0.325891
C323	C	1.065395	-0.218140	0.575891
C324	C	1.315395	0.031860	0.825891
C325	C	0.567897	-0.695184	0.000181
C326	C	0.817897	-0.445184	0.250181
C327	C	1.067897	-0.195184	0.500181
C328	C	1.317897	0.054816	0.750181
O329	O	0.564292	-0.636473	0.140205
O330	O	0.814292	-0.386473	0.390205
O331	O	1.064292	-0.136473	0.640205
O332	O	1.314292	0.113527	0.890205
O333	O	0.572612	-0.644758	-0.139891
O334	O	0.822612	-0.394758	0.110109
O335	O	1.072612	-0.144758	0.360109
O336	O	1.322612	0.105242	0.610109
C337	C	0.573024	-0.415121	-0.075551
C338	C	0.823024	-0.165121	0.174449
C339	C	1.073024	0.084879	0.424449
C340	C	1.323024	0.334879	0.674449
C341	C	0.571041	-0.387669	0.000138
C342	C	0.821041	-0.137669	0.250138
C343	C	1.071041	0.112331	0.500138
C344	C	1.321041	0.362331	0.750138
C345	C	0.568543	-0.410628	0.075834
C346	C	0.818543	-0.160628	0.325834
C347	C	1.068543	0.089372	0.575834
C348	C	1.318543	0.339372	0.825834
C349	C	0.571553	-0.337254	0.000132
C350	C	0.821553	-0.087254	0.250132
C351	C	1.071553	0.162746	0.500132
C352	C	1.321553	0.412746	0.750132
C353	C	0.574051	-0.314295	-0.075564
C354	C	0.824051	-0.064295	0.174436
C355	C	1.074051	0.185705	0.424436
C356	C	1.324051	0.435705	0.674436
C357	C	0.576038	-0.341750	-0.151254
C358	C	0.826038	-0.091750	0.098746
C359	C	1.076038	0.158250	0.348746
C360	C	1.326038	0.408250	0.598746
C361	C	0.575522	-0.392162	-0.151247
C362	C	0.825522	-0.142162	0.098753
C363	C	1.075522	0.107838	0.348753
C364	C	1.325522	0.357838	0.598753
C365	C	0.566556	-0.383173	0.151524
C366	C	0.816556	-0.133173	0.401524
C367	C	1.066556	0.116827	0.651524
C368	C	1.316556	0.366827	0.901524
C369	C	0.567072	-0.332761	0.151511
C370	C	0.817072	-0.082761	0.401511
C371	C	1.067072	0.167239	0.651511
C372	C	1.317072	0.417239	0.901511
C373	C	0.569570	-0.309802	0.075815
C374	C	0.819570	-0.059802	0.325815
C375	C	1.069570	0.190198	0.575815
C376	C	1.319570	0.440198	0.825815
C377	C	0.658916	0.057745	0.000177
C378	C	0.908916	0.307745	0.250177
C379	C	1.158916	0.557745	0.500177
C380	C	1.408916	0.807745	0.750177
C381	C	0.712570	0.058301	0.000184
C382	C	0.962570	0.308301	0.250184
C383	C	1.212570	0.558301	0.500184
C384	C	1.462570	0.808301	0.750184
C385	C	0.566316	0.150333	0.000190
C386	C	0.816316	0.400333	0.250190
C387	C	1.066316	0.650333	0.500190
C388	C	1.316316	0.900333	0.750190
C389	C	0.566863	0.203989	0.000209
C390	C	0.816863	0.453989	0.250209
C391	C	1.066863	0.703989	0.500209
C392	C	1.316863	0.953989	0.750209
N393	N	0.564104	0.068313	0.216496
N394	N	0.814104	0.318313	0.466496
N395	N	1.064104	0.568313	0.716496
N396	N	1.314104	0.818313	0.966496
N397	N	0.576925	0.055539	-0.216179
N398	N	0.826925	0.305539	0.033821
N399	N	1.076925	0.555539	0.283821
N400	N	1.326925	0.805539	0.533821
C401	C	0.595933	0.036511	0.260186
C402	C	0.845933	0.286511	0.510186
C403	C	1.095933	0.536511	0.760186
C404	C	1.345933	0.786511	1.010186
C405	C	0.593351	0.039093	0.347593
C406	C	0.843351	0.289093	0.597593
C407	C	1.093351	0.539093	0.847593
C408	C	1.343351	0.789093	1.097593
C409	C	0.558943	0.073480	0.391309
C410	C	0.808943	0.323480	0.641309
C411	C	1.058943	0.573480	0.891309
C412	C	1.308943	0.823480	1.141309
C413	C	0.527111	0.105283	0.347613
C414	C	0.777111	0.355283	0.597613
C415	C	1.027111	0.605283	0.847613
C416	C	1.277111	0.855283	1.097613
C417	C	0.529691	0.102699	0.260207
C418	C	0.779691	0.352699	0.510207
C419	C	1.029691	0.602699	0.760207
C420	C	1.279691	0.852699	1.010207
C421	C	0.547673	0.084758	0.652720
C422	C	0.797673	0.334758	0.902720
C423	C	1.047673	0.584758	1.152720
C424	C	1.297673	0.834758	1.402720
C425	C	0.545097	0.087341	0.740131
C426	C	0.795097	0.337341	0.990131
C427	C	1.045097	0.587341	1.240131
C428	C	1.295097	0.837341	1.490131
C429	C	0.611337	0.021150	0.740106
C430	C	0.861337	0.271150	0.990106
C431	C	1.111337	0.521150	1.240106
C432	C	1.361337	0.771150	1.490106
C433	C	0.613915	0.018570	0.652699
C434	C	0.863915	0.268570	0.902699
C435	C	1.113915	0.518570	1.152699
C436	C	1.363915	0.768570	1.402699
C437	C	0.582082	0.050372	0.609010
C438	C	0.832082	0.300372	0.859010
C439	C	1.082082	0.550372	1.109010
C440	C	1.332082	0.800372	1.359010
N441	N	0.556304	0.076121	0.480653
N442	N	0.806304	0.326121	0.730653
N443	N	1.056304	0.576121	0.980653
N444	N	1.306304	0.826121	1.230653
N445	N	0.584719	0.047728	0.519668
N446	N	0.834719	0.297728	0.769668
N447	N	1.084719	0.547728	1.019668
N448	N	1.334719	0.797728	1.269668
H449	H	0.057738	-0.062435	0.000124
H450	H	0.307738	0.187565	0.250124
H451	H	0.557738	0.437565	0.500124
H452	H	0.807738	0.687565	0.750124
H453	H	0.578180	-0.088887	-0.137230
H454	H	0.828180	0.161113	0.112770
H455	H	1.078180	0.411113	0.362770
H456	H	1.328180	0.661113	0.612770
H457	H	0.023479	0.185681	0.000238
H458	H	0.273479	0.435681	0.250238
H459	H	0.523479	0.685681	0.500238
H460	H	0.773479	0.935681	0.750238
H461	H	-0.202322	0.139251	0.000215
H462	H	0.047678	0.389251	0.250215
H463	H	0.297678	0.639251	0.500215
H464	H	0.547678	0.889251	0.750215
H465	H	0.434819	-0.014467	0.000094
H466	H	0.684819	0.235533	0.250094
H467	H	0.934819	0.485533	0.500094
H468	H	1.184819	0.735533	0.750094
H469	H	0.571918	-0.703952	-0.137151
H470	H	0.821918	-0.453952	0.112849
H471	H	1.071918	-0.203952	0.362849
H472	H	1.321918	0.046048	0.612849
H473	H	0.083279	0.186280	0.000224
H474	H	0.333279	0.436280	0.250224
H475	H	0.583279	0.686280	0.500224
H476	H	0.833279	0.936280	0.750224
H477	H	0.499092	0.133280	0.383211
H478	H	0.749092	0.383280	0.633211
H479	H	0.999092	0.633280	0.883211
H480	H	1.249092	0.883280	1.133211
H481	H	0.174727	0.187208	0.000216
H482	H	0.424727	0.437208	0.250216
H483	H	0.674727	0.687208	0.500216
H484	H	0.924727	0.937208	0.750216
H485	H	0.521754	0.110653	0.617155
H486	H	0.771754	0.360653	0.867155
H487	H	1.021754	0.610653	1.117155
H488	H	1.271754	0.860653	1.367155
H489	H	-0.271704	-0.021630	0.000146
H490	H	-0.021704	0.228370	0.250146
H491	H	0.228296	0.478370	0.500146
H492	H	0.478296	0.728370	0.750146
H493	H	0.503772	0.128594	0.224635
H494	H	0.753772	0.378594	0.474635
H495	H	1.003772	0.628594	0.724635
H496	H	1.253772	0.878594	0.974635
H497	H	-0.293789	0.138319	0.000213
H498	H	-0.043789	0.388319	0.250213
H499	H	0.206211	0.638319	0.500213
H500	H	0.456211	0.888319	0.750213
H501	H	0.563925	-0.461659	0.213188
H502	H	0.813925	-0.211659	0.463188
H503	H	1.063925	0.038341	0.713188
H504	H	1.313925	0.288341	0.963188
H505	H	0.564523	-0.401861	0.213167
H506	H	0.814523	-0.151861	0.463167
H507	H	1.064523	0.098139	0.713167
H508	H	1.314523	0.348139	0.963167
H509	H	0.575592	-0.565743	-0.212864
H510	H	0.825592	-0.315743	0.037136
H511	H	1.075592	-0.065743	0.287136
H512	H	1.325592	0.184257	0.537136
H513	H	-0.067972	0.184751	0.000260
H514	H	0.182028	0.434751	0.250260
H515	H	0.432028	0.684751	0.500260
H516	H	0.682028	0.934751	0.750260
H517	H	-0.180251	-0.020707	0.000155
H518	H	0.069749	0.229293	0.250155
H519	H	0.319749	0.479293	0.500155
H520	H	0.569749	0.729293	0.750155
H521	H	0.562992	-0.553110	0.213196
H522	H	0.812992	-0.303110	0.463196
H523	H	1.062992	-0.053110	0.713196
H524	H	1.312992	0.196890	0.963196
H525	H	0.637253	-0.004742	0.775685
H526	H	0.887253	0.245258	1.025685
H527	H	1.137253	0.495258	1.275685
H528	H	1.387253	0.745258	1.525685
H529	H	0.117527	-0.061829	0.000120
H530	H	0.367527	0.188171	0.250120
H531	H	0.617527	0.438171	0.500120
H532	H	0.867527	0.688171	0.750120
H533	H	-0.033709	-0.063362	0.000125
H534	H	0.216291	0.186638	0.250125
H535	H	0.466291	0.436638	0.500125
H536	H	0.716291	0.686638	0.750125
H537	H	0.343354	-0.015399	0.000100
H538	H	0.593354	0.234601	0.250100
H539	H	0.843354	0.484601	0.500100
H540	H	1.093354	0.734601	0.750100
H541	H	0.412728	0.145483	0.000151
H542	H	0.662728	0.395483	0.250151
H543	H	0.912728	0.645483	0.500151
H544	H	1.162728	0.895483	0.750151
H545	H	0.577247	-0.180352	-0.137226
H546	H	0.827247	0.069648	0.112774
H547	H	1.077247	0.319648	0.362774
H548	H	1.327247	0.569648	0.612774
H549	H	0.619268	0.013197	0.383165
H550	H	0.869268	0.263197	0.633165
H551	H	1.119268	0.513197	0.883165
H552	H	1.369268	0.763197	1.133165
H553	H	0.576526	-0.474297	-0.212877
H554	H	0.826526	-0.224297	0.037123
H555	H	1.076526	0.025703	0.287123
H556	H	1.326526	0.275703	0.537123
H557	H	0.570041	-0.080744	0.137436
H558	H	0.820041	0.169256	0.387436
H559	H	1.070041	0.419256	0.637436
H560	H	1.320041	0.669256	0.887436
H561	H	0.321277	0.144558	0.000175
H562	H	0.571277	0.394558	0.250175
H563	H	0.821277	0.644558	0.500175
H564	H	1.071277	0.894558	0.750175
H565	H	0.641933	-0.009430	0.617107
H566	H	0.891933	0.240570	0.867107
H567	H	1.141933	0.490570	1.117107
H568	H	1.391933	0.740570	1.367107
H569	H	0.577136	-0.414509	-0.212886
H570	H	0.827136	-0.164509	0.037114
H571	H	1.077136	0.085491	0.287114
H572	H	1.327136	0.335491	0.537114
H573	H	0.208988	-0.060896	0.000114
H574	H	0.458988	0.189104	0.250114
H575	H	0.708988	0.439104	0.500114
H576	H	0.958988	0.689104	0.750114
H577	H	0.517076	0.115345	0.775721
H578	H	0.767076	0.365345	1.025721
H579	H	1.017076	0.615345	1.275721
H580	H	1.267076	0.865345	1.525721
H581	H	0.570974	-0.795401	-0.137130
H582	H	0.820974	-0.545401	0.112870
H583	H	1.070974	-0.295401	0.362870
H584	H	1.320974	-0.045401	0.612870
H585	H	0.623953	0.008512	0.224599
H586	H	0.873953	0.258512	0.474599
H587	H	1.123953	0.508512	0.724599
H588	H	1.373953	0.758512	0.974599
H589	H	0.569121	-0.172195	0.137452
H590	H	0.819121	0.077805	0.387452
H591	H	1.069121	0.327805	0.637452
H592	H	1.319121	0.577805	0.887452
H593	H	0.563762	-0.695785	0.137528
H594	H	0.813762	-0.445785	0.387528
H595	H	1.063762	-0.195785	0.637528
H596	H	1.313762	0.054215	0.887528
H597	H	0.562844	-0.787254	0.137535
H598	H	0.812844	-0.537254	0.387535
H599	H	1.062844	-0.287254	0.637535
H600	H	1.312844	-0.037254	0.887535
H601	H	0.578069	-0.323048	-0.212889
H602	H	0.828069	-0.073048	0.037111
H603	H	1.078069	0.176952	0.287111
H604	H	1.328069	0.426952	0.537111
H605	H	0.565453	-0.310413	0.213156
H606	H	0.815453	-0.060413	0.463156
H607	H	1.065453	0.189587	0.713156
H608	H	1.315453	0.439587	0.963156
