data_functionalizedCrystal
_audit_creation_method	'MofGen! by Chris Wilmer'
_symmetry_space_group_name_H-M	'P1'
_symmetry_Int_Tables_number	1
_symmetry_cell_setting	triclinic
loop_
_symmetry_equiv_pos_as_xyz
  x,y,z
_cell_length_a	8.559649
_cell_length_b	15.944551
_cell_length_c	7.088929
_cell_angle_alpha	83.774879
_cell_angle_beta	95.325015
_cell_angle_gamma	76.638701
loop_
_atom_site_label
_atom_site_type_symbol
_atom_site_fract_x
_atom_site_fract_y
_atom_site_fract_z
O1	O	2.103727	-0.018804	-0.158956
O2	O	1.638526	0.024575	-0.158968
O3	O	1.883832	-0.120210	-0.158944
O4	O	1.858421	0.125981	-0.158979
O5	O	1.916614	-0.139599	0.159034
O6	O	1.671309	0.005187	0.159010
O7	O	2.136509	-0.038193	0.159023
Cu8	Cu	1.906902	-0.018273	0.188050
Cu9	Cu	1.868133	0.004656	-0.187996
O10	O	1.891203	0.106593	0.158999
C11	C	1.595388	0.018169	0.000020
C12	C	1.418008	0.027954	0.000015
C13	C	1.899168	-0.161130	0.000045
C14	C	1.896006	-0.254172	0.000046
C15	C	1.736394	-0.458727	0.000015
C16	C	1.826675	-0.534087	0.156800
C17	C	1.890284	-0.424528	0.000031
C18	C	1.794391	-0.514957	-0.156702
C19	C	1.884745	-0.589082	0.000009
C20	C	1.980621	-0.498671	0.156945
C21	C	1.948300	-0.479525	-0.156697
C22	C	2.038697	-0.554877	0.000126
C23	C	1.893471	-0.329732	0.000046
C24	C	1.881571	-0.683878	0.000008
C25	C	2.179647	-0.031786	0.000031
C26	C	2.357025	-0.041571	0.000022
C27	C	1.875866	0.147513	0.000005
C28	C	1.879027	0.240556	-0.000008
N29	N	1.934182	-0.034401	0.452541
N30	N	1.840866	0.020776	-0.452487
H31	H	1.608676	-0.417185	0.000169
H32	H	1.744154	0.077957	0.465858
C33	C	1.305221	0.118485	0.000000
H34	H	1.196798	0.113410	0.000010
H35	H	1.313205	0.155709	-0.110886
H36	H	1.336065	0.142181	0.110900
H37	H	2.030912	-0.091580	0.534206
H38	H	1.999667	-0.455510	-0.289250
C39	C	1.469805	-0.132097	0.000041
H40	H	1.578229	-0.127021	0.000057
H41	H	1.438964	-0.155800	-0.110838
H42	H	1.461826	-0.169317	0.110948
H43	H	2.059335	-0.490968	0.289640
C44	C	1.757213	-0.566500	0.335851
H45	H	1.649809	-0.533058	0.335660
H46	H	1.822324	-0.560467	0.447184
H47	H	1.756619	-0.625973	0.335141
C48	C	1.687977	-0.525496	-0.335763
H49	H	1.580625	-0.492062	-0.335560
H50	H	1.687515	-0.585046	-0.335108
H51	H	1.730125	-0.505860	-0.447093
H52	H	2.166552	-0.596292	0.000218
