data_functionalizedCrystal
_audit_creation_method	'MofGen! by Chris Wilmer'
_symmetry_space_group_name_H-M	'P1'
_symmetry_Int_Tables_number	1
_symmetry_cell_setting	triclinic
loop_
_symmetry_equiv_pos_as_xyz
  x,y,z
_cell_length_a	8.634740
_cell_length_b	15.944551
_cell_length_c	7.088899
_cell_angle_alpha	83.041113
_cell_angle_beta	84.037673
_cell_angle_gamma	92.034522
loop_
_atom_site_label
_atom_site_type_symbol
_atom_site_fract_x
_atom_site_fract_y
_atom_site_fract_z
O1	O	2.031942	0.265019	0.158995
O2	O	1.582987	0.242054	0.158999
O3	O	1.819726	0.132254	0.158980
O4	O	1.795203	0.374818	0.159014
O5	O	1.847998	0.149934	-0.158994
O6	O	1.611260	0.259734	-0.158975
O7	O	2.060214	0.282699	-0.158978
Cu8	Cu	1.838318	0.272831	-0.188010
Cu9	Cu	1.804883	0.251922	0.188031
O10	O	1.823475	0.392498	-0.158959
C11	C	1.539673	0.245692	0.000012
C12	C	1.368488	0.230180	0.000013
C13	C	1.832844	0.109718	-0.000007
C14	C	1.829793	0.016225	-0.000008
C15	C	1.675755	-0.211095	0.000019
C16	C	1.761224	-0.257608	-0.156762
C17	C	1.824271	-0.154948	0.000006
C18	C	1.733385	-0.275020	0.156735
C19	C	1.818925	-0.320294	0.000029
C20	C	1.909792	-0.200223	-0.156904
C21	C	1.881919	-0.217638	0.156734
C22	C	1.967499	-0.264122	-0.000085
C23	C	1.827346	-0.059696	-0.000008
C24	C	1.815862	-0.415543	0.000030
C25	C	2.103528	0.279061	0.000013
C26	C	2.274712	0.294571	0.000025
C27	C	1.810357	0.415034	0.000032
C28	C	1.813407	0.508527	0.000046
N29	N	1.861846	0.287537	-0.452496
N30	N	1.781368	0.237210	0.452517
H31	H	1.325397	0.361571	0.000021
H32	H	1.932895	-0.199800	0.289286
O33	O	1.307940	0.150250	0.000345
C34	C	1.132718	0.037668	0.165012
C35	C	1.201202	0.128191	0.164895
H36	H	1.046382	0.019812	0.298016
H37	H	1.230775	-0.008363	0.165128
H38	H	1.070215	0.034562	0.031879
H39	H	1.263689	0.131379	0.298005
H40	H	1.103080	0.174181	0.164679
H41	H	1.658764	-0.307550	0.289290
H42	H	1.697941	0.185062	-0.465830
O43	O	1.528715	-0.183261	-0.000493
C44	C	1.299026	-0.171806	-0.166308
C45	C	1.465534	-0.203355	-0.165978
H46	H	1.247883	-0.188055	-0.300067
H47	H	1.302515	-0.100334	-0.165064
H48	H	1.223367	-0.203727	-0.033940
H49	H	1.541289	-0.171496	-0.298323
H50	H	1.461925	-0.274832	-0.167123
O51	O	1.961564	0.349709	-0.549670
C52	C	2.226594	0.406879	-0.611318
C53	C	2.113826	0.336430	-0.501102
H54	H	2.349727	0.396157	-0.572123
H55	H	2.188949	0.470924	-0.572035
H56	H	2.224595	0.405677	-0.771517
H57	H	2.115770	0.337552	-0.340879
H58	H	2.151509	0.272416	-0.540545
H59	H	1.710193	-0.275428	-0.289306
H60	H	2.090889	-0.287294	-0.000174
H61	H	1.984352	-0.167777	-0.289595
