data_functionalizedCrystal
_audit_creation_method	'MofGen! by Chris Wilmer'
_symmetry_space_group_name_H-M	'P1'
_symmetry_Int_Tables_number	1
_symmetry_cell_setting	triclinic
loop_
_symmetry_equiv_pos_as_xyz
  x,y,z
_cell_length_a	13.635800
_cell_length_b	7.190339
_cell_length_c	20.090147
_cell_angle_alpha	97.171745
_cell_angle_beta	60.934144
_cell_angle_gamma	119.388276
loop_
_atom_site_label
_atom_site_type_symbol
_atom_site_fract_x
_atom_site_fract_y
_atom_site_fract_z
V1	V	2.153668	0.297093	-0.237006
O2	O	2.100146	-0.012215	-0.233048
O3	O	2.171369	0.587104	-0.234852
O4	O	2.171078	0.293428	-0.340615
O5	O	2.100439	0.283494	-0.126553
V6	V	2.384661	0.259990	-0.223859
O7	O	2.307919	0.378483	-0.265843
O8	O	2.455508	0.178599	-0.195022
O9	O	2.255356	-0.030021	-0.226013
O10	O	2.496881	0.569298	-0.227817
O11	O	2.496588	0.273589	-0.334312
O12	O	2.255647	0.263655	-0.120250
V13	V	2.653668	0.297093	-0.237006
O14	O	2.600146	-0.012215	-0.233048
O15	O	2.671369	0.587104	-0.234852
O16	O	2.671078	0.293428	-0.340615
O17	O	2.600439	0.283494	-0.126553
V18	V	2.884661	0.259990	-0.223859
O19	O	2.807919	0.378483	-0.265843
O20	O	2.955508	0.178599	-0.195022
O21	O	2.755356	-0.030021	-0.226013
O22	O	2.996881	0.569298	-0.227817
O23	O	2.996588	0.273589	-0.334312
O24	O	2.755647	0.263655	-0.120250
C25	C	2.102727	0.657776	-0.230979
C26	C	2.159163	0.899326	-0.229890
C27	C	2.588688	-0.342218	-0.230993
C28	C	2.655685	-0.100671	-0.229894
C29	C	2.102344	0.283158	-0.365886
C30	C	2.157498	0.282080	-0.450584
C31	C	2.156051	0.273931	-0.094975
C32	C	2.090515	0.274999	-0.010276
C33	C	2.602344	0.283158	-0.365886
C34	C	2.657498	0.282080	-0.450584
C35	C	2.656051	0.273931	-0.094975
C36	C	2.590515	0.274999	-0.010276
C37	C	2.622694	0.470913	0.018988
C38	C	2.561119	0.471923	0.098571
C39	C	2.467372	0.277015	0.148888
C40	C	2.435190	0.081086	0.119619
C41	C	2.496758	0.080079	0.040037
C42	C	2.186891	0.085141	0.440564
C43	C	2.125326	0.086163	0.520151
C44	C	2.251252	0.476985	0.499098
C45	C	2.312820	0.475978	0.419516
C46	C	2.280628	0.280051	0.390253
C47	C	2.347393	0.278959	0.303960
C48	C	2.400613	0.278104	0.235180
C49	C	1.976569	0.286160	0.025646
C50	C	1.914969	0.287138	0.105230
C51	C	1.967322	0.276969	0.148890
C52	C	2.081276	0.265800	0.112962
C53	C	2.142869	0.264807	0.033381
C54	C	2.777610	0.292241	-0.494223
C55	C	2.829439	0.291200	-0.573804
C56	C	2.761159	0.280014	-0.609746
C57	C	2.641035	0.269846	-0.566101
C58	C	2.589203	0.270872	-0.486520
H59	H	2.699029	0.629630	-0.021976
H60	H	2.470556	-0.079455	0.016213
H61	H	2.833226	0.301355	-0.464970
N62	N	2.595848	0.683235	0.130131
H63	H	2.516569	0.699658	0.160059
H64	H	2.664618	0.806412	0.086137
N65	N	1.900896	0.278067	0.234723
H66	H	1.875888	0.141235	0.262571
H67	H	1.820819	0.286774	0.250784
H68	H	2.048986	-0.072564	0.561119
N69	N	2.413927	0.686213	0.365253
H70	H	2.385723	0.701760	0.329146
H71	H	2.498798	0.687129	0.334436
H72	H	2.585452	0.260740	-0.595377
N73	N	2.285975	0.688316	0.530659
H74	H	2.232748	0.659391	0.588708
H75	H	2.267684	0.780740	0.509530
H76	H	2.160660	-0.074393	0.416748
H77	H	1.822183	0.296232	0.134470
H78	H	2.358850	-0.077611	0.160594
N79	N	2.958996	0.302158	-0.620868
H80	H	2.994383	0.309419	-0.586020
H81	H	3.020814	0.435085	-0.661218
N82	N	2.459653	0.259918	-0.439456
H83	H	2.424275	0.252682	-0.474307
H84	H	2.470249	0.392776	-0.413433
N85	N	1.920093	0.297143	-0.021435
H86	H	1.838560	0.304356	0.013408
H87	H	1.899209	0.164303	-0.047469
H88	H	2.123888	0.257514	0.148522
H89	H	2.235656	0.255730	0.004139
H90	H	2.803379	0.279181	-0.674547
