data_functionalizedCrystal
_audit_creation_method	'MofGen! by Chris Wilmer'
_symmetry_space_group_name_H-M	'P1'
_symmetry_Int_Tables_number	1
_symmetry_cell_setting	triclinic
loop_
_symmetry_equiv_pos_as_xyz
  x,y,z
_cell_length_a	17.640112
_cell_length_b	25.639239
_cell_length_c	17.640968
_cell_angle_alpha	78.768889
_cell_angle_beta	92.139080
_cell_angle_gamma	101.263838
loop_
_atom_site_label
_atom_site_type_symbol
_atom_site_fract_x
_atom_site_fract_y
_atom_site_fract_z
Zn1	Zn	1.247772	-0.015023	-0.195080
Zn2	Zn	1.221957	-0.122899	-0.068099
Zn3	Zn	1.095090	-0.049036	-0.093726
Zn4	Zn	1.120701	-0.116017	-0.220680
O5	O	1.171380	-0.075744	-0.144396
O6	O	1.350622	-0.017980	-0.156797
O7	O	1.183606	-0.130216	0.034775
O8	O	1.115429	0.028654	-0.107183
O9	O	1.331655	-0.097236	-0.063504
O10	O	1.227604	0.053643	-0.181647
O11	O	1.090397	-0.075949	0.015946
O12	O	0.992213	-0.069275	-0.132006
O13	O	1.159079	-0.085505	-0.323557
O14	O	1.011029	-0.118485	-0.225279
O15	O	1.252438	-0.011306	-0.304749
O16	O	1.208439	-0.195165	-0.088327
O17	O	1.134047	-0.190108	-0.200429
C18	C	0.974065	-0.096824	-0.184202
C19	C	0.889657	-0.105852	-0.201249
C20	C	0.563036	-0.007149	-0.014898
C21	C	0.483724	-0.015641	-0.030927
C22	C	0.503337	-0.067003	-0.127884
C23	C	0.582654	-0.058513	-0.111866
C24	C	0.612496	-0.028586	-0.055372
C25	C	0.632114	-0.079950	-0.152340
C26	C	0.711422	-0.071463	-0.136320
C27	C	0.741271	-0.041538	-0.079827
C28	C	0.691805	-0.020099	-0.039352
C29	C	0.602269	-0.109880	-0.208830
C30	C	0.651729	-0.131317	-0.249304
C31	C	0.731040	-0.122827	-0.233288
C32	C	0.760888	-0.092902	-0.176795
C33	C	0.780506	-0.144266	-0.273763
C34	C	0.859815	-0.135779	-0.257743
C35	C	0.840197	-0.084415	-0.160775
C36	C	1.171245	-0.211606	-0.144387
C37	C	1.171262	-0.269716	-0.144395
C38	C	1.210259	-0.632657	-0.086082
C39	C	1.210291	-0.687257	-0.086087
O40	O	1.243308	-0.717705	-0.036496
N41	N	1.171523	-0.711960	-0.144420
C42	C	1.132728	-0.682060	-0.202757
O43	O	1.099757	-0.708086	-0.252374
C44	C	1.132702	-0.627461	-0.202755
C45	C	1.171465	-0.602761	-0.144414
C46	C	1.249020	-0.607957	-0.027746
C47	C	1.248988	-0.553362	-0.027742
C48	C	1.210194	-0.523466	-0.086073
C49	C	1.171433	-0.548166	-0.144409
C50	C	1.093912	-0.597561	-0.261094
C51	C	1.093890	-0.542958	-0.261088
C52	C	1.132653	-0.518258	-0.202747
C53	C	1.132606	-0.463675	-0.202735
N54	N	1.171373	-0.438971	-0.144402
C55	C	1.210167	-0.468867	-0.086071
C56	C	1.132788	-0.796723	-0.202757
C57	C	1.132809	-0.851323	-0.202756
C58	C	1.210373	-0.856515	-0.086087
C59	C	1.210347	-0.801915	-0.086085
C60	C	1.171556	-0.772019	-0.144424
C61	C	1.210095	-0.354212	-0.086065
C62	C	1.210056	-0.299612	-0.086064
C63	C	1.132496	-0.294424	-0.202735
C64	C	1.132531	-0.349020	-0.202735
C65	C	1.171336	-0.378912	-0.144396
O66	O	1.099609	-0.433192	-0.252303
O67	O	1.243141	-0.442832	-0.036467
C68	C	1.369465	-0.054581	-0.104436
C69	C	1.453877	-0.045563	-0.087407
C70	C	1.211495	-0.043844	-0.342479
C71	C	1.228589	-0.030250	-0.426890
C72	C	1.171539	0.060653	-0.144418
C73	C	1.171607	0.118778	-0.144427
C74	C	1.041806	-0.178700	-0.753464
C75	C	1.057885	-0.165918	-0.832778
C76	C	1.155091	-0.088661	-0.813184
C77	C	1.139017	-0.101435	-0.733867
C78	C	1.082375	-0.146456	-0.704014
C79	C	1.179586	-0.069190	-0.684417
C80	C	1.163517	-0.081965	-0.605107
C81	C	1.106878	-0.126985	-0.575247
C82	C	1.066305	-0.159230	-0.624704
C83	C	1.236233	-0.024172	-0.714271
C84	C	1.276802	0.008072	-0.664821
C85	C	1.260728	-0.004700	-0.585510
C86	C	1.204090	-0.049719	-0.555650
C87	C	1.301302	0.027546	-0.536054
C88	C	1.285232	0.014771	-0.456743
C89	C	1.188020	-0.062494	-0.476340
C90	C	1.131465	-0.107478	0.052925
C91	C	1.114517	-0.120908	0.137365
H92	H	0.864498	-0.060036	-0.114783
H93	H	0.537690	-0.116789	-0.221871
H94	H	0.627419	-0.155685	-0.295299
H95	H	1.322922	0.044727	-0.689139
O96	O	1.094943	-0.265327	-0.259455
C97	C	1.148074	-0.221173	-0.299797
H98	H	1.208847	-0.230436	-0.292466
H99	H	1.132400	-0.214081	-0.363772
H100	H	1.145937	-0.183300	-0.275775
H101	H	0.756195	-0.168637	-0.319755
O102	O	0.592112	0.021854	0.040033
C103	C	0.627990	-0.010873	0.098427
H104	H	0.645244	-0.044962	0.074142
H105	H	0.681728	0.014770	0.119811
H106	H	0.586010	-0.028892	0.148548
H107	H	0.900087	-0.153235	-0.290702
O108	O	1.056146	-0.513882	-0.317663
C109	C	0.998330	-0.494567	-0.284282
H110	H	1.013501	-0.492776	-0.221338
H111	H	0.994367	-0.452284	-0.317268
H112	H	0.940372	-0.523020	-0.287247
H113	H	0.443456	0.001823	0.002031
O114	O	0.474223	-0.096039	-0.182761
C115	C	0.393614	-0.098947	-0.188207
H116	H	0.377784	-0.063719	-0.165620
H117	H	0.375001	-0.096615	-0.251169
H118	H	0.362873	-0.138856	-0.152239
O119	O	1.247781	-0.275696	-0.029350
C120	C	1.282012	-0.313799	0.022140
H121	H	1.290938	-0.347418	-0.008450
H122	H	1.340216	-0.292885	0.042268
H123	H	1.242567	-0.331902	0.074239
O124	O	1.095028	-0.767770	-0.259465
C125	C	1.060837	-0.801285	-0.310956
H126	H	1.051959	-0.845501	-0.280367
H127	H	1.002615	-0.790653	-0.331081
H128	H	1.100288	-0.794800	-0.363056
H129	H	1.241696	-0.378544	-0.038561
O130	O	1.324716	0.046021	-0.408655
C131	C	1.364421	0.014093	-0.352867
H132	H	1.373904	-0.022741	-0.375819
H133	H	1.422706	0.039103	-0.340174
H134	H	1.328762	0.000101	-0.297497
O135	O	1.286719	-0.529447	0.028964
C136	C	1.320949	-0.567554	0.080449
H137	H	1.329860	-0.601175	0.049856
H138	H	1.379158	-0.546645	0.100569
H139	H	1.281508	-0.585654	0.132552
H140	H	1.062342	-0.617662	-0.308599
O141	O	1.286858	-0.636965	0.028815
C142	C	1.344653	-0.656279	-0.004601
H143	H	1.361336	-0.629691	-0.063503
H144	H	1.397599	-0.654981	0.034573
H145	H	1.321761	-0.699781	-0.011892
O146	O	1.095159	-0.875403	-0.259349
C147	C	1.103518	-0.930001	-0.246867
H148	H	1.116575	-0.944233	-0.183254
H149	H	1.047673	-0.956046	-0.263456
H150	H	1.153062	-0.933873	-0.283797
H151	H	1.241964	-0.880865	-0.038592
H152	H	1.020163	-0.195880	-0.600400
H153	H	1.241912	-0.781808	-0.038579
O154	O	0.986795	-0.222474	-0.724577
C155	C	0.954420	-0.248193	-0.785231
H156	H	0.996967	-0.237562	-0.835498
H157	H	0.941655	-0.293951	-0.763945
H158	H	0.898459	-0.233863	-0.805295
H159	H	1.141878	-0.099144	-0.452036
H160	H	1.100970	-0.369130	-0.250243
O161	O	1.091192	-0.139486	-0.498220
C162	C	1.032485	-0.186127	-0.482480
H163	H	1.031079	-0.210453	-0.530328
H164	H	1.044624	-0.212070	-0.424793
H165	H	0.974282	-0.173574	-0.479590
O166	O	0.818309	-0.033390	-0.064255
C167	C	0.840788	-0.083809	-0.039255
H168	H	0.797684	-0.116754	-0.061391
H169	H	0.900785	-0.081947	-0.062759
H170	H	0.842073	-0.093496	0.026601
O171	O	1.018584	-0.197278	-0.880831
C172	C	1.071077	-0.219032	-0.917995
H173	H	1.126043	-0.219727	-0.882022
H174	H	1.043744	-0.262064	-0.924439
H175	H	1.085891	-0.192900	-0.977575
H176	H	1.201211	-0.052007	-0.837501
O177	O	1.251849	-0.011856	-0.791312
C178	C	1.276677	-0.055618	-0.813867
H179	H	1.254402	-0.094488	-0.770781
H180	H	1.253165	-0.060021	-0.873841
H181	H	1.342540	-0.047731	-0.815217
H182	H	1.347425	0.064198	-0.560372
H183	H	0.716106	0.004281	0.006640
