data_functionalizedCrystal
_audit_creation_method	'MofGen! by Chris Wilmer'
_symmetry_space_group_name_H-M	'P1'
_symmetry_Int_Tables_number	1
_symmetry_cell_setting	triclinic
loop_
_symmetry_equiv_pos_as_xyz
  x,y,z
_cell_length_a	15.995343
_cell_length_b	15.995292
_cell_length_c	14.586319
_cell_angle_alpha	89.996995
_cell_angle_beta	90.001533
_cell_angle_gamma	83.478900
loop_
_atom_site_label
_atom_site_type_symbol
_atom_site_fract_x
_atom_site_fract_y
_atom_site_fract_z
O1	O	1.110969	0.107893	0.076142
O2	O	0.867190	0.121227	0.076163
O3	O	0.995769	-0.007331	0.076153
O4	O	0.982391	0.236451	0.076152
O5	O	0.995753	-0.007324	-0.076328
O6	O	0.867175	0.121235	-0.076318
O7	O	1.110954	0.107900	-0.076339
Cu8	Cu	0.989063	0.114568	-0.090251
Cu9	Cu	0.989081	0.114559	0.090075
O10	O	0.982375	0.236459	-0.076329
C11	C	0.835988	0.120681	-0.000075
C12	C	0.743037	0.119032	-0.000066
C13	C	0.572852	0.116038	-0.000078
C14	C	0.549525	0.023238	-0.000078
C15	C	0.452848	0.021493	-0.000429
C16	C	0.405292	0.113089	-0.000090
C17	C	0.434365	0.159755	-0.086991
C18	C	0.531158	0.160856	-0.087058
C19	C	0.531086	0.162206	0.086347
C20	C	0.434592	0.158780	0.087484
C21	C	0.310595	0.111428	-0.000099
C22	C	0.667549	0.117702	-0.000075
C23	C	0.995217	-0.038523	-0.000085
C24	C	0.993584	-0.131476	-0.000078
C25	C	0.987583	-0.469214	-0.000086
C26	C	1.080388	-0.445904	-0.000434
C27	C	1.082152	-0.349229	-0.000088
C28	C	0.990561	-0.301658	-0.000082
C29	C	0.944172	-0.330762	0.086993
C30	C	0.943055	-0.427553	0.087063
C31	C	0.941142	-0.427401	-0.086336
C32	C	0.944581	-0.330909	-0.087484
C33	C	0.992239	-0.206962	-0.000077
C34	C	0.985902	-0.563910	-0.000084
C35	C	1.142156	0.108447	-0.000099
C36	C	1.235107	0.110096	-0.000102
C37	C	0.982927	0.267650	-0.000089
C38	C	0.984560	0.360603	-0.000090
N39	N	0.989056	0.114574	-0.217083
C40	C	1.039840	0.165374	-0.452094
C41	C	1.039848	0.165368	-0.548076
C42	C	0.938309	0.063741	-0.548075
C43	C	0.938305	0.063743	-0.452096
C44	C	0.989069	0.114564	-0.404108
C45	C	0.989082	0.114557	-0.596068
C46	C	0.989091	0.114550	-0.700136
C47	C	0.989061	0.114570	-0.300034
N48	N	0.989095	0.114547	0.216907
H49	H	0.401621	0.225614	0.093000
Cl50	Cl	0.841362	-0.280007	-0.095599
H51	H	0.545085	0.230512	0.087184
Cl52	Cl	1.103664	0.229257	-0.391770
Cl53	Cl	0.985958	-0.471087	-0.188233
H54	H	0.578511	-0.012142	-0.062302
H55	H	0.402505	0.227168	-0.089979
H56	H	0.978359	-0.312341	-0.151902
Cl57	Cl	0.403350	0.110332	-0.187220
H58	H	0.896978	0.022365	-0.587158
Cl59	Cl	1.135611	-0.489126	-0.096847
H60	H	1.118483	-0.330202	-0.062505
Cl61	Cl	0.423501	-0.034905	0.095729
Cl62	Cl	0.592788	-0.032307	0.096121
Cl63	Cl	0.424376	-0.034613	-0.097182
Cl64	Cl	0.574749	0.116995	0.188075
H65	H	1.081192	0.206742	-0.587142
H66	H	0.896961	0.022363	-0.413024
Cl67	Cl	0.553640	0.265921	-0.092787
Cl68	Cl	0.572516	0.111552	-0.187731
Cl69	Cl	1.135323	-0.490709	0.095426
Cl70	Cl	0.838003	-0.450019	0.093178
H71	H	0.416048	0.124796	0.151775
H72	H	1.118710	-0.330828	0.062434
Cl73	Cl	0.992683	-0.468966	0.187546
Cl74	Cl	0.993928	-0.299804	0.187037
Cl75	Cl	0.840115	-0.281556	0.092006
Cl76	Cl	0.835676	-0.449000	-0.087239
