data_functionalizedCrystal
_audit_creation_method	'MofGen! by Chris Wilmer'
_symmetry_space_group_name_H-M	'P1'
_symmetry_Int_Tables_number	1
_symmetry_cell_setting	triclinic
loop_
_symmetry_equiv_pos_as_xyz
  x,y,z
_cell_length_a	19.288856
_cell_length_b	19.288859
_cell_length_c	18.366186
_cell_angle_alpha	89.994011
_cell_angle_beta	90.011039
_cell_angle_gamma	96.866756
loop_
_atom_site_label
_atom_site_type_symbol
_atom_site_fract_x
_atom_site_fract_y
_atom_site_fract_z
O1	O	-0.921355	0.086621	-0.060582
O2	O	-0.719093	0.098316	-0.060577
O3	O	-0.826070	-0.008663	-0.060575
O4	O	-0.814377	0.193599	-0.060584
O5	O	-0.826052	-0.008668	0.060524
O6	O	-0.719075	0.098310	0.060523
O7	O	-0.921336	0.086615	0.060517
Zn8	Zn	-0.820203	0.092462	0.079747
Zn9	Zn	-0.820227	0.092469	-0.079807
O10	O	-0.814359	0.193594	0.060516
C11	C	-0.693207	0.097938	-0.000026
C12	C	-0.616103	0.096811	-0.000024
C13	C	-0.052061	0.151959	-0.000016
C14	C	-0.124507	0.153024	-0.000021
C15	C	-0.169216	0.090254	-0.000018
C16	C	-0.141472	0.026415	-0.000028
C17	C	-0.069027	0.025352	-0.000030
C18	C	-0.290481	0.043438	0.042411
C19	C	-0.362924	0.044504	0.042417
C20	C	-0.392662	0.093530	-0.000015
C21	C	-0.349945	0.141502	-0.042445
C22	C	-0.277499	0.140439	-0.042446
C23	C	-0.247771	0.091400	-0.000016
C24	C	-0.498952	0.158520	-0.000016
C25	C	-0.571400	0.159582	-0.000026
C26	C	-0.588363	0.032971	-0.000026
C27	C	-0.515916	0.031910	-0.000023
C28	C	-0.471215	0.094687	-0.000015
C29	C	-0.825686	-0.034542	-0.000026
C30	C	-0.824558	-0.111646	-0.000027
C31	C	0.052778	0.086996	-0.000030
C32	C	-0.024325	0.088128	-0.000022
C33	C	-0.879702	-0.675688	-0.000048
C34	C	-0.880767	-0.603241	-0.000042
C35	C	-0.817998	-0.558533	-0.000040
C36	C	-0.754158	-0.586276	-0.000026
C37	C	-0.753095	-0.658721	-0.000026
C38	C	-0.771191	-0.437256	-0.042464
C39	C	-0.772257	-0.364812	-0.042469
C40	C	-0.821275	-0.335087	-0.000040
C41	C	-0.869239	-0.377816	0.042386
C42	C	-0.868176	-0.450261	0.042387
C43	C	-0.819144	-0.479977	-0.000041
C44	C	-0.886266	-0.228797	-0.000041
C45	C	-0.887329	-0.156349	-0.000030
C46	C	-0.760718	-0.139385	-0.000022
C47	C	-0.759657	-0.211832	-0.000026
C48	C	-0.822433	-0.256534	-0.000039
C49	C	-0.814744	0.219473	-0.000035
C50	C	-0.815871	0.296577	-0.000039
N51	N	-0.820191	0.092457	0.188638
N52	N	-0.820243	0.092469	-0.188698
C53	C	-0.867577	0.045110	0.226739
C54	C	-0.867581	0.045107	0.302967
C55	C	-0.820207	0.092463	0.341091
C56	C	-0.772813	0.139813	0.302981
C57	C	-0.772805	0.139810	0.226754
C58	C	-0.810907	0.155751	0.461849
C59	C	-0.810920	0.155755	0.538074
C60	C	-0.820227	0.092471	0.576198
C61	C	-0.829536	0.029181	0.538089
C62	C	-0.829528	0.029179	0.461862
C63	C	-0.820210	0.092471	0.423746
C64	C	-0.867619	0.045117	0.696954
C65	C	-0.867619	0.045113	0.773183
C66	C	-0.772854	0.139825	0.773196
C67	C	-0.772851	0.139823	0.696968
C68	C	-0.820237	0.092470	0.658852
H69	H	-0.462554	0.209636	-0.000010
H70	H	-0.906202	0.006557	0.665919
H71	H	-0.703051	-0.549869	-0.000023
H72	H	-0.593980	0.211562	-0.000027
H73	H	-0.177878	-0.024693	-0.000028
N74	N	-0.721741	0.190895	0.655875
H75	H	-0.729582	0.240174	0.669130
H76	H	-0.728946	0.183649	0.601814
H77	H	-0.624764	-0.018138	-0.000029
H78	H	-0.493334	-0.020068	-0.000024
N79	N	-0.258411	-0.009447	0.088175
H80	H	-0.296462	-0.039671	0.115058
H81	H	-0.224920	0.015668	0.124413
H82	H	-0.374154	0.181426	-0.076995
N83	N	-0.039106	-0.043497	-0.000036
H84	H	-0.078419	-0.083102	-0.000037
H85	H	-0.009411	-0.046699	0.044858
N86	N	-0.953967	-0.277022	-0.000038
H87	H	-0.956356	-0.307453	-0.044931
H88	H	-0.994531	-0.248410	-0.000008
N89	N	-0.720532	-0.318732	-0.088232
H90	H	-0.691141	-0.284674	-0.055734
H91	H	-0.746538	-0.292142	-0.124512
N92	N	-0.721753	0.190899	0.814306
H93	H	-0.672485	0.183019	0.801054
H94	H	-0.729007	0.183687	0.868363
H95	H	-0.906160	0.006551	0.195707
H96	H	-0.930819	-0.712081	-0.000055
N97	N	-0.408993	-0.007227	0.088187
H98	H	-0.379164	-0.038450	0.115062
H99	H	-0.443053	-0.036565	0.055647
N100	N	-0.839578	-0.039081	0.579196
H101	H	-0.838168	-0.029479	0.633268
H102	H	-0.801056	-0.067909	0.565885
N103	N	-0.800872	0.224013	0.420736
H104	H	-0.843041	0.228020	0.389096
H105	H	-0.757847	0.225603	0.389164
H106	H	-0.932748	-0.580655	-0.000050
H107	H	-0.909150	-0.353615	0.076942
H108	H	-0.803344	0.207289	0.569097
H109	H	-0.906169	0.006550	0.333994
N110	N	-0.684246	-0.688641	-0.000010
H111	H	-0.644641	-0.649328	-0.000003
H112	H	-0.681048	-0.718325	-0.044902
H113	H	-0.906203	0.006554	0.804206
H114	H	-0.734239	0.178370	0.334025
H115	H	-0.731265	-0.461450	-0.077010
H116	H	-0.837106	-0.022354	0.430837
H117	H	-0.907228	-0.485048	0.076933
N118	N	-0.721692	0.190881	0.185661
H119	H	-0.729531	0.240160	0.198917
H120	H	-0.728900	0.183635	0.131600
N121	N	-0.003874	0.219682	0.000038
H122	H	-0.012776	0.247572	-0.044836
H123	H	0.046219	0.209297	0.000080
N124	N	-0.154434	0.221872	-0.000015
H125	H	-0.115123	0.261479	-0.000011
H126	H	-0.184114	0.225060	0.044880
H127	H	-0.242722	0.179499	-0.076995
N128	N	-0.956179	-0.126431	-0.000032
H129	H	-0.995782	-0.165745	-0.000041
H130	H	-0.959380	-0.096735	-0.044923
H131	H	-0.707679	-0.234413	-0.000023
N132	N	-0.693014	-0.091174	-0.000012
H133	H	-0.703372	-0.041070	-0.000012
H134	H	-0.665188	-0.100127	-0.044902
