data_functionalizedCrystal
_audit_creation_method	'MofGen! by Chris Wilmer'
_symmetry_space_group_name_H-M	'P1'
_symmetry_Int_Tables_number	1
_symmetry_cell_setting	triclinic
loop_
_symmetry_equiv_pos_as_xyz
  x,y,z
_cell_length_a	20.919287
_cell_length_b	20.919320
_cell_length_c	14.628931
_cell_angle_alpha	62.591024
_cell_angle_beta	86.844449
_cell_angle_gamma	55.758717
loop_
_atom_site_label
_atom_site_type_symbol
_atom_site_fract_x
_atom_site_fract_y
_atom_site_fract_z
Zr1	Zr	0.589437	0.700779	-0.127383
O2	O	0.482005	0.834343	-0.257457
O3	O	0.625981	0.567215	-0.092944
O4	O	0.620775	0.700779	-0.275810
O5	O	0.487211	0.700779	0.075841
O6	O	0.726132	0.700779	-0.284104
O7	O	0.487211	0.700779	-0.074591
O8	O	0.735445	0.461857	0.043011
O9	O	0.477898	0.939702	-0.251274
O10	O	0.715831	0.622152	-0.077878
O11	O	0.637205	0.622152	0.040577
O12	O	0.631075	0.779407	-0.174725
O13	O	0.552448	0.779407	-0.056270
Zr14	Zr	0.757469	0.700780	0.099311
Zr15	Zr	0.757469	0.700780	-0.140610
Zr16	Zr	0.589437	0.700780	0.112539
Zr17	Zr	0.582887	0.868813	-0.117521
Zr18	Zr	0.764019	0.532746	0.089449
O19	O	0.720925	0.834345	0.064872
O20	O	0.720926	0.834344	-0.276265
O21	O	0.482005	0.834344	0.083680
O22	O	0.864901	0.567216	0.229386
O23	O	0.864901	0.567215	-0.111751
O24	O	0.625981	0.567215	0.248193
O25	O	0.859695	0.700780	-0.103912
O26	O	0.726131	0.700781	0.247739
O27	O	0.620774	0.700780	0.256032
O28	O	0.859695	0.700781	0.046519
O29	O	0.611462	0.939702	-0.261788
O30	O	0.735445	0.461857	0.233716
O31	O	0.869008	0.461858	0.223202
O32	O	0.869008	0.461858	0.032497
O33	O	0.477898	0.939702	-0.060568
O34	O	0.611462	0.939703	-0.071082
O35	O	0.715831	0.622153	0.146653
O36	O	0.794458	0.622153	0.028198
O37	O	0.709702	0.779407	-0.068649
O38	O	0.631075	0.779407	0.049806
C39	C	0.681646	0.490594	-0.026371
C40	C	0.684427	0.419260	-0.030558
C41	C	0.702213	0.015816	-0.057378
C42	C	0.699596	0.082844	-0.053440
C43	C	0.657249	0.116350	0.010368
C44	C	0.617510	0.082831	0.070234
C45	C	0.620123	0.015809	0.066290
C46	C	0.647301	0.318718	0.025364
C47	C	0.644693	0.385743	0.029306
C48	C	0.726778	0.385753	-0.094370
C49	C	0.729391	0.318725	-0.098304
C50	C	0.689649	0.285216	-0.038442
C51	C	0.654574	0.184862	0.014397
C52	C	0.692319	0.216710	-0.042477
C53	C	0.463270	0.700779	0.002510
C54	C	0.391936	0.700779	0.008125
C55	C	0.358423	0.700781	-0.072113
C56	C	0.291399	0.700776	-0.066832
C57	C	0.257887	0.700775	0.018685
C58	C	0.291406	0.700770	0.098930
C59	C	0.358432	0.700769	0.093652
C60	C	0.055515	0.700774	0.038771
C61	C	-0.011517	0.700779	0.044042
C62	C	-0.011518	0.700783	-0.121720
C63	C	0.055506	0.700786	-0.126994
C64	C	0.089022	0.700777	-0.046745
C65	C	0.189376	0.700773	0.024083
C66	C	0.157535	0.700772	-0.052141
C67	C	0.883636	0.700781	-0.030581
C68	C	0.954970	0.700781	-0.036197
C69	C	0.673453	0.700779	-0.314141
C70	C	0.673454	0.700779	-0.415993
C71	C	0.665260	0.910965	-0.001700
C72	C	0.662480	0.982300	0.002487
C73	C	0.631409	0.778788	-0.509445
C74	C	0.631408	0.778789	-0.614716
C75	C	0.673453	0.700780	0.286069
C76	C	0.673453	0.700781	0.387922
C77	C	0.891829	0.490595	-0.042917
C78	C	0.965944	0.419261	-0.052719
C79	C	0.681646	0.490595	0.273733
C80	C	0.684426	0.419260	0.371400
C81	C	0.891829	0.490596	0.257188
C82	C	0.965943	0.419261	0.349239
C83	C	0.455078	0.910964	-0.285259
C84	C	0.380963	0.982298	-0.377310
C85	C	0.455077	0.910964	0.014845
C86	C	0.380963	0.982299	0.024647
C87	C	0.665261	0.910964	-0.301805
C88	C	0.662480	0.982299	-0.399471
C89	C	0.959706	0.385761	-0.112703
C90	C	1.029338	0.318744	-0.121934
C91	C	1.105207	0.285223	-0.071175
C92	C	1.111442	0.318729	-0.011188
C93	C	1.041811	0.385750	-0.001964
C94	C	0.726774	0.385761	0.472645
C95	C	0.729383	0.318744	0.564423
C96	C	0.689649	0.285223	0.554952
C97	C	0.647296	0.318728	0.453696
C98	C	0.644682	0.385749	0.361921
C99	C	1.041798	0.385762	0.330634
C100	C	1.111442	0.318745	0.417117
C101	C	1.105231	0.285224	0.522203
C102	C	1.029368	0.318730	0.540806
C103	C	0.959725	0.385750	0.454325
C104	C	0.305108	1.015806	-0.358705
C105	C	0.235463	1.082843	-0.445186
C106	C	0.241674	1.116368	-0.550272
C107	C	0.317537	1.082858	-0.568876
C108	C	0.387180	1.015826	-0.482395
C109	C	0.387200	1.015806	0.084622
C110	C	0.317567	1.082841	0.093828
C111	C	0.241698	1.116365	0.043065
C112	C	0.235463	1.082855	-0.016917
C113	C	0.305095	1.015825	-0.026128
C114	C	0.702223	1.015799	-0.389966
C115	C	0.699627	1.082817	-0.481726
C116	C	0.657281	1.116338	-0.582990
C117	C	0.617537	1.082831	-0.592493
C118	C	0.620139	1.015810	-0.500734
H119	H	0.731949	0.110134	-0.102187
H120	H	0.184959	1.170949	-0.620680
H121	H	0.173699	1.110116	-0.430018
H122	H	0.709451	0.633994	-0.413922
H123	H	0.763875	0.291471	0.646861
H124	H	0.162084	0.700775	0.093711
O125	O	-0.044014	0.700623	-0.199538
C126	C	-0.040767	0.622643	-0.153407
H127	H	0.008811	0.568134	-0.074394
H128	H	-0.027417	0.596461	-0.210522
H129	H	-0.101068	0.640277	-0.138002
O130	O	0.299173	0.983197	-0.084372
C131	C	0.376894	0.916824	-0.081599
H132	H	0.420907	0.927820	-0.062889
H133	H	0.375929	0.922258	-0.162784
H134	H	0.396695	0.846725	-0.016884
O135	O	0.323490	1.115500	0.152031
C136	C	0.245770	1.181837	0.149308
H137	H	0.200191	1.211176	0.075368
H138	H	0.244332	1.238205	0.145871
H139	H	0.229938	1.149772	0.224480
H140	H	1.173224	0.291427	0.030136
H141	H	0.595407	0.845576	-0.694898
O142	O	0.613505	0.217250	0.076534
C143	C	0.646491	0.145725	0.184355
H144	H	0.679161	0.078675	0.187639
H145	H	0.596150	0.155829	0.224790
H146	H	0.690833	0.144832	0.227824
O147	O	0.576287	1.115414	-0.690793
C148	C	0.494651	1.154217	-0.694498
H149	H	0.489110	1.123933	-0.609604
H150	H	0.470072	1.139540	-0.743739
H151	H	0.458760	1.230553	-0.733148
O152	O	0.174005	1.181394	0.052052
C153	C	0.130377	1.148644	0.100289
H154	H	0.147244	1.091637	0.087823
H155	H	0.063129	1.205896	0.062250
H156	H	0.145477	1.121919	0.189797
O157	O	0.581442	0.983321	-0.509842
C158	C	0.523174	0.999755	-0.452539
H159	H	0.540124	1.008059	-0.388161
H160	H	0.520474	0.940257	-0.413187
H161	H	0.461808	1.064237	-0.509932
H162	H	0.897964	0.413017	0.469488
O163	O	1.048021	0.418152	0.056397
C164	C	1.129918	0.374202	0.099195
H165	H	1.168297	0.306275	0.103971
H166	H	1.139726	0.362630	0.182919
H167	H	1.147953	0.418160	0.045306
O168	O	0.161809	1.115262	-0.066145
C169	C	0.155992	1.043744	-0.026543
H170	H	0.218938	0.976692	0.007667
H171	H	0.120322	1.053862	-0.094482
H172	H	0.124013	1.042846	0.039206
O173	O	0.716281	0.621153	-0.516360
C174	C	0.663737	0.616302	-0.453690
H175	H	0.606930	0.687592	-0.481900
H176	H	0.694818	0.581639	-0.365979
H177	H	0.646976	0.575751	-0.462514
H178	H	1.161899	0.230650	-0.078693
H179	H	0.082791	0.700787	-0.196628
H180	H	0.691783	0.230650	0.629690
H181	H	0.300036	0.988514	-0.273146
H182	H	0.385719	0.700765	0.158991
O183	O	0.460853	0.983233	0.134102
C184	C	0.470962	0.944451	0.245545
H185	H	0.409446	0.974733	0.261658
H186	H	0.505644	0.959151	0.279528
H187	H	0.505970	0.868111	0.285563
O188	O	0.765380	0.418254	0.482056
C189	C	0.803322	0.374296	0.591106
H190	H	0.772209	0.346670	0.643049
H191	H	0.799136	0.424585	0.607566
H192	H	0.869300	0.316089	0.610883
H193	H	0.322585	1.110162	-0.654447
O194	O	0.743236	-0.016715	-0.119432
C195	C	0.689902	-0.000313	-0.196591
H196	H	0.635558	0.008023	-0.167215
H197	H	0.721997	-0.059843	-0.209533
H198	H	0.669023	0.064140	-0.275415
O199	O	0.460803	0.983343	-0.500668
C200	C	0.451340	1.027327	-0.611964
H201	H	0.390443	1.054954	-0.656654
H202	H	0.501355	0.977055	-0.632060
H203	H	0.454569	1.085535	-0.637177
H204	H	0.736706	0.988517	-0.307520
O205	O	1.047700	0.418391	0.228491
C206	C	0.969972	0.484748	0.156134
H207	H	0.925973	0.473738	0.196273
H208	H	0.970930	0.479309	0.081955
H209	H	0.950158	0.554855	0.131662
H210	H	0.731990	1.110091	-0.473968
O211	O	0.654806	1.181473	-0.672006
C212	C	0.698985	1.203831	-0.641891
H213	H	0.702781	1.185356	-0.554880
H214	H	0.667621	1.279585	-0.695659
H215	H	0.762274	1.164633	-0.650783
H216	H	0.759133	0.413044	-0.143108
O217	O	0.770528	0.286313	-0.160387
C218	C	0.805053	0.330255	-0.212363
H219	H	0.770216	0.398187	-0.217433
H220	H	0.802387	0.341814	-0.296643
H221	H	0.870473	0.286297	-0.165045
H222	H	0.610199	0.413030	0.081260
H223	H	0.897937	0.413053	-0.154052
H224	H	1.024246	0.291471	-0.170780
H225	H	-0.038800	0.700779	0.113683
H226	H	0.614945	0.291425	0.446000
H227	H	0.614943	0.291440	0.074111
H228	H	0.264114	0.700777	-0.132167
O229	O	0.603544	0.418151	0.263649
C230	C	0.569024	0.374200	0.274986
H231	H	0.603866	0.306274	0.353877
H232	H	0.571690	0.362628	0.205516
H233	H	0.503604	0.418158	0.274732
H234	H	0.583026	0.110121	0.122183
H235	H	1.161945	0.230652	0.592612
O236	O	0.581561	-0.016728	0.124607
C237	C	0.543633	0.027206	0.181785
H238	H	0.574718	0.054876	0.192408
H239	H	0.547875	-0.023112	0.263817
H240	H	0.477639	0.085379	0.135367
H241	H	0.595417	0.845573	-0.511517
H242	H	1.173207	0.291471	0.401950
H243	H	0.726794	0.189431	-0.094434
H244	H	1.024323	0.291427	0.626378
O245	O	0.391032	0.700621	-0.155107
C246	C	0.416668	0.622640	-0.156217
H247	H	0.427623	0.568131	-0.072701
H248	H	0.474855	0.596459	-0.181160
H249	H	0.368257	0.640273	-0.215687
O250	O	0.087955	0.700790	0.116796
C251	C	0.044017	0.700759	0.193421
H252	H	-0.019134	0.729293	0.155318
H253	H	0.039838	0.744454	0.222966
H254	H	0.075816	0.628509	0.263938
O255	O	0.258739	0.700930	0.181881
C256	C	0.177929	0.778912	0.141859
H257	H	0.168750	0.833422	0.059667
H258	H	0.163061	0.805090	0.199098
H259	H	0.136633	0.761283	0.134449
O260	O	0.190221	0.700652	-0.135082
C261	C	0.271019	0.622648	-0.095065
H262	H	0.295073	0.596641	-0.007881
H263	H	0.308700	0.640190	-0.144648
H264	H	0.274622	0.568041	-0.100308
