data_functionalizedCrystal
_audit_creation_method	'MofGen! by Chris Wilmer'
_symmetry_space_group_name_H-M	'P1'
_symmetry_Int_Tables_number	1
_symmetry_cell_setting	triclinic
loop_
_symmetry_equiv_pos_as_xyz
  x,y,z
_cell_length_a	10.654550
_cell_length_b	10.654550
_cell_length_c	9.130313
_cell_angle_alpha	89.996647
_cell_angle_beta	89.999724
_cell_angle_gamma	84.484917
loop_
_atom_site_label
_atom_site_type_symbol
_atom_site_fract_x
_atom_site_fract_y
_atom_site_fract_z
O1	O	1.667839	0.176399	-0.121686
O2	O	1.302361	0.193205	-0.121712
O3	O	1.493503	0.002063	-0.121693
O4	O	1.476697	0.367541	-0.121705
O5	O	1.493490	0.002057	0.121906
O6	O	1.302348	0.193199	0.121886
O7	O	1.667826	0.176393	0.121913
Cu8	Cu	1.485086	0.184796	0.144142
Cu9	Cu	1.485101	0.184802	-0.143942
O10	O	1.476684	0.367535	0.121894
C11	C	1.255556	0.191968	0.000084
C12	C	1.116113	0.188276	0.000073
C13	C	1.036627	0.300818	0.000074
C14	C	0.905607	0.297341	0.000100
C15	C	0.933570	0.068772	0.000118
C16	C	1.064588	0.072250	0.000103
C17	C	1.492263	-0.044738	0.000104
C18	C	1.488571	-0.184181	0.000099
C19	C	1.601112	-0.263667	0.000112
C20	C	1.597636	-0.394688	0.000101
C21	C	1.369066	-0.366725	0.000072
C22	C	1.372544	-0.235706	0.000072
C23	C	1.733075	-0.279813	0.000135
C24	C	1.729599	-0.410834	0.000125
C25	C	1.714631	0.177630	0.000114
C26	C	1.854074	0.181322	0.000114
C27	C	1.477924	0.414336	0.000093
C28	C	1.481616	0.553779	0.000089
N29	N	1.485084	0.184790	0.346765
N30	N	1.485113	0.184798	-0.346564
C31	C	1.569751	0.100188	0.423425
C32	C	1.569763	0.100189	0.576762
C33	C	1.400437	0.269404	0.576765
C34	C	1.400420	0.269396	0.423431
H35	H	1.078574	0.395294	0.000061
H36	H	1.129309	-0.019401	0.000107
H37	H	1.331508	0.338290	0.639201
H38	H	1.280902	-0.170993	0.000041
H39	H	0.891602	-0.025693	0.000151
C40	C	1.662873	0.007129	0.339091
H41	H	1.650750	0.019249	0.236790
H42	H	1.648522	-0.076821	0.364229
H43	H	1.746810	0.021567	0.364212
C44	C	1.662893	0.007129	0.661089
H45	H	1.650772	0.019237	0.763390
H46	H	1.746824	0.021548	0.635949
H47	H	1.648520	-0.076823	0.635967
C48	C	0.818178	0.421137	0.000090
H49	H	0.867633	0.490731	0.000059
H50	H	0.766492	0.424540	0.085043
H51	H	0.766481	0.424525	-0.084864
C52	C	1.241448	-0.423407	0.000053
H53	H	1.255493	-0.512821	0.000062
H54	H	1.195065	-0.396184	-0.084897
H55	H	1.195058	-0.396197	0.085010
C56	C	1.307285	0.362466	0.339098
H57	H	1.256878	0.412868	0.406716
H58	H	1.254614	0.316796	0.279296
H59	H	1.352917	0.415168	0.279270
H60	H	1.784696	-0.250452	-0.101800
H61	H	1.775091	-0.244188	0.105319
H62	H	1.769485	-0.456474	-0.105052
C63	C	1.796740	-0.467258	0.137849
H64	H	1.826700	-0.401553	0.194505
H65	H	1.865785	-0.525251	0.109550
H66	H	1.739135	-0.509765	0.194476
