data_functionalizedCrystal
_audit_creation_method	'MofGen! by Chris Wilmer'
_symmetry_space_group_name_H-M	'P1'
_symmetry_Int_Tables_number	1
_symmetry_cell_setting	triclinic
loop_
_symmetry_equiv_pos_as_xyz
  x,y,z
_cell_length_a	12.759400
_cell_length_b	12.759401
_cell_length_c	12.759393
_cell_angle_alpha	90.019027
_cell_angle_beta	89.969790
_cell_angle_gamma	89.987402
loop_
_atom_site_label
_atom_site_type_symbol
_atom_site_fract_x
_atom_site_fract_y
_atom_site_fract_z
Zn1	Zn	-0.418277	-1.606252	-0.594004
Zn2	Zn	-0.593992	-1.606148	-0.418325
Zn3	Zn	-0.418321	-1.430555	-0.418341
Zn4	Zn	-0.593908	-1.430543	-0.593964
O5	O	-0.506124	-1.518375	-0.506158
O6	O	-0.441602	-1.753260	-0.570710
O7	O	-0.570742	-1.582816	-0.271306
O8	O	-0.271294	-1.453911	-0.441668
O9	O	-0.570699	-1.753183	-0.441639
O10	O	-0.271262	-1.582995	-0.570727
O11	O	-0.441677	-1.453809	-0.271318
O12	O	-0.441596	-1.283533	-0.441628
O13	O	-0.570557	-1.453890	-0.740990
O14	O	-0.570599	-1.283524	-0.570657
O15	O	-0.441521	-1.582983	-0.741020
O16	O	-0.741002	-1.582804	-0.441599
O17	O	-0.740940	-1.453788	-0.570641
C18	C	-0.506094	-1.245407	-0.506140
C19	C	-0.506107	-1.128631	-0.506157
C20	C	-0.779092	-1.518312	-0.506137
C21	C	-0.895868	-1.518382	-0.506162
C22	C	-0.573384	-1.073791	-0.573231
C23	C	-0.573393	-0.964067	-0.573241
C24	C	-0.438844	-0.964031	-0.439095
C25	C	-0.438831	-1.073753	-0.439091
C26	C	-0.640660	-1.128669	-0.640297
C27	C	-0.707943	-1.073829	-0.707375
C28	C	-0.707952	-0.964105	-0.707385
C29	C	-0.640678	-0.909221	-0.640317
C30	C	-0.950727	-1.585635	-0.439045
C31	C	-1.060451	-1.585699	-0.439077
C32	C	-1.060448	-1.451249	-0.573348
C33	C	-0.950726	-1.451190	-0.573320
C34	C	-0.895870	-1.652826	-0.371888
C35	C	-0.950729	-1.720084	-0.304764
C36	C	-1.060453	-1.720149	-0.304796
C37	C	-1.115318	-1.652955	-0.371952
C38	C	-0.232091	-1.518466	-0.506203
C39	C	-0.115314	-1.518505	-0.506223
C40	C	-0.506025	-1.518447	-0.780192
C41	C	-0.505982	-1.518478	-0.896969
C42	C	-0.506145	-0.792408	-0.506174
C43	C	-0.506129	-0.909185	-0.506171
C44	C	-0.573110	-1.585690	-1.061553
C45	C	-0.573157	-1.585658	-0.951829
C46	C	-0.438763	-1.451316	-0.951838
C47	C	-0.438722	-1.451343	-1.061560
C48	C	-0.640282	-1.652883	-1.116408
C49	C	-0.707503	-1.720043	-1.061546
C50	C	-0.707550	-1.720011	-0.951822
C51	C	-0.640376	-1.652820	-0.896960
C52	C	-0.506148	-1.518363	-0.233191
C53	C	-0.505894	-1.518536	-0.116415
H54	H	-0.762709	-1.118524	-0.761986
H55	H	-1.105117	-1.774921	-0.250148
C56	C	-0.738803	-1.552801	-0.344964
C57	C	-0.775261	-1.652756	-0.371840
H58	H	-0.664344	-1.552759	-0.344926
H59	H	-0.763615	-1.503175	-0.394568
H60	H	-0.763711	-1.534692	-0.277160
H61	H	-0.750359	-1.670862	-0.439647
H62	H	-0.750437	-1.702398	-0.322234
C63	C	-0.917058	-1.771335	-0.126893
C64	C	-0.890428	-1.793942	-0.230949
H65	H	-0.879835	-1.816938	-0.081324
H66	H	-0.899140	-1.700751	-0.111460
H67	H	-0.990257	-1.781001	-0.117322
H68	H	-0.817229	-1.784269	-0.240522
H69	H	-0.908339	-1.864544	-0.246387
C70	C	-0.827422	-1.309797	-0.587769
C71	C	-0.890418	-1.377264	-0.647097
H72	H	-0.790188	-1.264166	-0.633323
H73	H	-0.870290	-1.269656	-0.541983
H74	H	-0.779051	-1.349819	-0.547780
H75	H	-0.938795	-1.337243	-0.687080
H76	H	-0.847546	-1.417410	-0.692902
H77	H	-1.204663	-1.653022	-0.371982
H78	H	-0.384074	-0.919336	-0.384490
H79	H	-0.640249	-1.652918	-1.205751
C80	C	-0.305860	-1.062705	-0.306470
C81	C	-0.364893	-1.134041	-0.365349
H82	H	-0.260219	-1.099927	-0.260940
H83	H	-0.265724	-1.019938	-0.352310
H84	H	-0.351604	-1.019884	-0.266213
H85	H	-0.319149	-1.176858	-0.405612
H86	H	-0.405032	-1.176827	-0.319503
C87	C	-0.387508	-1.273470	-1.095342
C88	C	-0.364835	-1.377531	-1.121873
H89	H	-0.341889	-1.227901	-1.132574
H90	H	-0.458082	-1.258084	-1.113313
H91	H	-0.377911	-1.263849	-1.022144
H92	H	-0.374439	-1.387154	-1.195071
H93	H	-0.294244	-1.392922	-1.103909
C94	C	-0.885473	-1.771132	-0.918030
C95	C	-0.781440	-1.793829	-0.891518
H96	H	-0.931086	-1.816713	-0.880807
H97	H	-0.900846	-1.700542	-0.900035
H98	H	-0.895043	-1.780765	-0.991230
H99	H	-0.771868	-1.784188	-0.818319
H100	H	-0.766062	-1.864435	-0.909506
C101	C	-1.228645	-1.391634	-0.632998
C102	C	-1.120753	-1.377384	-0.647152
H103	H	-1.265872	-1.346025	-0.678557
H104	H	-1.246556	-1.462217	-0.648444
H105	H	-1.246679	-1.376306	-0.562394
H106	H	-1.102718	-1.392720	-0.717755
H107	H	-1.102835	-1.306785	-0.631714
C108	C	-0.713621	-1.725909	-0.739775
C109	C	-0.640432	-1.652780	-0.776348
H110	H	-0.713648	-1.725888	-0.665317
H111	H	-0.781395	-1.707720	-0.764588
H112	H	-0.695441	-1.793717	-0.764606
H113	H	-0.658616	-1.584970	-0.751524
H114	H	-0.572643	-1.670962	-0.751525
C115	C	-0.379147	-1.391636	-0.783643
C116	C	-0.364921	-1.377473	-0.891535
H117	H	-0.333551	-1.346052	-0.746418
H118	H	-0.449734	-1.376227	-0.765654
H119	H	-0.363787	-1.462232	-0.765684
H120	H	-0.380288	-1.306878	-0.909495
H121	H	-0.294318	-1.392874	-0.909531
H122	H	-0.762197	-1.774743	-1.106222
C123	C	-0.840950	-0.975167	-0.839976
C124	C	-0.781906	-0.903824	-0.781116
H125	H	-0.886614	-0.937951	-0.885488
H126	H	-0.795222	-1.017981	-0.880241
H127	H	-0.881072	-1.017942	-0.794113
H128	H	-0.741778	-0.861054	-0.826978
H129	H	-0.827640	-0.860992	-0.740848
H130	H	-0.640682	-0.819876	-0.640339
C131	C	-0.667304	-1.285798	-0.540293
C132	C	-0.640653	-1.249278	-0.640288
H133	H	-0.667306	-1.360257	-0.540289
H134	H	-0.617609	-1.260967	-0.490765
H135	H	-0.735082	-1.260951	-0.522016
H136	H	-0.572871	-1.274119	-0.658562
H137	H	-0.690350	-1.274120	-0.689831
