data_functionalizedCrystal
_audit_creation_method	'MofGen! by Chris Wilmer'
_symmetry_space_group_name_H-M	'P1'
_symmetry_Int_Tables_number	1
_symmetry_cell_setting	triclinic
loop_
_symmetry_equiv_pos_as_xyz
  x,y,z
_cell_length_a	21.395362
_cell_length_b	16.959454
_cell_length_c	21.395355
_cell_angle_alpha	90.012996
_cell_angle_beta	90.043940
_cell_angle_gamma	90.035955
loop_
_atom_site_label
_atom_site_type_symbol
_atom_site_fract_x
_atom_site_fract_y
_atom_site_fract_z
Zn1	Zn	0.957906	-0.314438	0.354610
Zn2	Zn	0.957828	-0.446599	0.249842
Zn3	Zn	0.853121	-0.314475	0.249811
Zn4	Zn	0.853109	-0.446615	0.354547
O5	O	0.905491	-0.380532	0.302202
O6	O	1.045573	-0.331947	0.340751
O7	O	0.943910	-0.429081	0.162160
O8	O	0.867058	-0.203859	0.263726
O9	O	1.045516	-0.429045	0.263779
O10	O	0.944043	-0.203832	0.340721
O11	O	0.866982	-0.332010	0.162137
O12	O	0.765441	-0.332026	0.263665
O13	O	0.867039	-0.429073	0.442233
O14	O	0.765433	-0.429109	0.340614
O15	O	0.944032	-0.331963	0.442279
O16	O	0.943899	-0.557212	0.263718
O17	O	0.866963	-0.557224	0.340645
C18	C	0.742703	-0.380574	0.302130
C19	C	0.673062	-0.380610	0.302114
C20	C	0.640361	-0.431228	0.342121
C21	C	0.574925	-0.431209	0.342149
C22	C	0.542194	-0.380580	0.302158
C23	C	0.574903	-0.329952	0.262148
C24	C	0.640337	-0.329967	0.262126
C25	C	0.438468	-0.374212	0.245752
C26	C	0.373035	-0.374203	0.245774
C27	C	0.340373	-0.380528	0.302227
C28	C	0.373152	-0.386881	0.358661
C29	C	0.438586	-0.386896	0.358639
C30	C	0.471241	-0.380557	0.302178
C31	C	0.236719	-0.431128	0.342268
C32	C	0.171283	-0.431103	0.342297
C33	C	0.171261	-0.329850	0.262291
C34	C	0.236697	-0.329871	0.262267
C35	C	0.269422	-0.380514	0.302255
C36	C	0.905438	-0.585898	0.302192
C37	C	0.905473	-0.673755	0.302208
C38	C	0.865488	-1.045266	0.342254
C39	C	0.945668	-1.045194	0.262215
C40	C	0.945646	-0.962648	0.262209
C41	C	0.905544	-0.921407	0.302226
C42	C	0.865464	-0.962713	0.342248
C43	C	0.985721	-0.921337	0.222184
C44	C	0.985700	-0.838786	0.222176
C45	C	0.945601	-0.797544	0.262196
C46	C	0.905520	-0.838854	0.302220
C47	C	0.865418	-0.797613	0.342236
C48	C	0.825339	-0.838922	0.382264
C49	C	0.825365	-0.921471	0.382268
C50	C	0.945575	-0.714995	0.262192
C51	C	0.865393	-0.715060	0.342230
C52	C	1.068914	-0.380490	0.302276
C53	C	1.138555	-0.380473	0.302307
C54	C	0.905543	-0.380516	0.465626
C55	C	0.905565	-0.380509	0.535267
C56	C	0.905561	-0.174363	0.302227
C57	C	0.905590	-0.086507	0.302237
C58	C	0.905475	-0.380491	0.139415
C59	C	0.905574	-0.380275	0.069774
C60	C	0.945654	-0.329942	0.568005
C61	C	0.945653	-0.329908	0.633441
C62	C	0.905570	-0.380455	0.666135
C63	C	0.865473	-0.431026	0.633389
C64	C	0.865471	-0.431053	0.567955
C65	C	0.900604	-0.451628	0.769805
C66	C	0.900611	-0.451602	0.835238
C67	C	0.905574	-0.380371	0.867956
C68	C	0.910543	-0.309164	0.835234
C69	C	0.910540	-0.309191	0.769800
C70	C	0.905568	-0.380431	0.737088
C71	C	0.945664	-0.329763	0.971647
C72	C	0.945659	-0.329728	1.037084
C73	C	0.865482	-0.430853	1.037031
C74	C	0.865484	-0.430881	0.971596
C75	C	0.905578	-0.380337	0.938908
H76	H	0.263322	-0.288656	0.229686
H77	H	0.914584	-0.251211	0.743160
H78	H	1.018335	-0.805157	0.189584
H79	H	0.896569	-0.509584	0.861875
C80	C	0.675968	-0.486074	0.385580
C81	C	0.713615	-0.441401	0.425778
C82	C	0.746432	-0.491895	0.465818
H83	H	0.647187	-0.516233	0.409472
H84	H	0.701484	-0.520465	0.361579
H85	H	0.688102	-0.407024	0.449777
H86	H	0.742408	-0.411244	0.401904
H87	H	0.771948	-0.526287	0.441817
H88	H	0.717646	-0.522052	0.489705
H89	H	0.771983	-0.461593	0.493093
H90	H	0.832823	-0.472230	0.541300
C91	C	0.989256	-1.090026	0.218860
C92	C	1.029420	-1.137363	0.254372
C93	C	1.069577	-1.178677	0.214447
H94	H	0.965357	-1.122320	0.191532
H95	H	1.013160	-1.053642	0.195022
H96	H	1.005518	-1.173743	0.278199
H97	H	1.053332	-1.105089	0.281698
H98	H	1.093482	-1.142292	0.190609
H99	H	1.045674	-1.210965	0.187122
H100	H	1.096837	-1.210794	0.238536
C101	C	0.135744	-0.485932	0.385816
C102	C	0.098268	-0.441247	0.426065
C103	C	0.065527	-0.491729	0.466168
H104	H	0.110117	-0.520334	0.361882
H105	H	0.164590	-0.516080	0.409661
H106	H	0.069426	-0.411113	0.402222
H107	H	0.123880	-0.406847	0.450012
H108	H	0.094373	-0.521876	0.490013
H109	H	0.039903	-0.526128	0.442229
H110	H	0.040100	-0.461417	0.493485
H111	H	0.548295	-0.472428	0.374730
C112	C	0.781868	-0.793999	0.425685
C113	C	0.790437	-0.712867	0.417116
C114	C	0.750410	-0.671457	0.457109
H115	H	0.739753	-0.807489	0.416506
H116	H	0.791028	-0.807446	0.467810
H117	H	0.781272	-0.699425	0.375001
H118	H	0.832544	-0.699354	0.426300
H119	H	0.759570	-0.684904	0.499234
H120	H	0.708297	-0.684953	0.447927
H121	H	0.756222	-0.616404	0.451305
C122	C	0.895299	-0.528942	0.734233
C123	C	0.948265	-0.539027	0.696687
C124	C	0.943386	-0.610238	0.663916
H125	H	0.892369	-0.571390	0.763041
H126	H	0.858992	-0.527951	0.708652
H127	H	0.984562	-0.540023	0.722265
H128	H	0.951205	-0.496596	0.667867
H129	H	0.907079	-0.609248	0.638336
H130	H	0.940455	-0.652680	0.692729
H131	H	0.979319	-0.617086	0.638433
H132	H	0.978307	-0.288603	0.945031
C133	C	0.822036	-0.485712	1.072633
C134	C	0.830630	-0.474882	1.136946
C135	C	0.790624	-0.525414	1.169765
H136	H	0.779915	-0.474217	1.061956
H137	H	0.831200	-0.538837	1.061954
H138	H	0.821462	-0.421769	1.147621
H139	H	0.872743	-0.486382	1.147642
H140	H	0.799789	-0.578540	1.159086
H141	H	0.748505	-0.513915	1.159082
H142	H	0.796454	-0.518078	1.213404
C143	C	0.989255	-0.274792	1.072518
C144	C	1.024376	-0.230553	1.029882
C145	C	1.064550	-0.179945	1.062502
H146	H	0.965372	-0.240273	1.098024
H147	H	1.016575	-0.304996	1.098054
H148	H	0.997059	-0.200350	1.004356
H149	H	1.048272	-0.265051	1.004374
H150	H	1.091871	-0.210150	1.088038
H151	H	1.040662	-0.145431	1.088007
H152	H	1.088389	-0.149928	1.033578
H153	H	0.465272	-0.392066	0.404590
C154	C	0.821938	-0.485875	0.936160
C155	C	0.786843	-0.530150	0.978796
C156	C	0.746724	-0.580825	0.946176
H157	H	0.794593	-0.455742	0.910610
H158	H	0.845878	-0.520363	0.910667
H159	H	0.762905	-0.495666	1.004278
H160	H	0.814172	-0.560299	1.004347
H161	H	0.770664	-0.615313	0.920683
H162	H	0.719383	-0.550686	0.920627
H163	H	0.722912	-0.610876	0.975099
H164	H	1.018365	-0.954921	0.189600
C165	C	0.989149	-0.670288	0.218712
C166	C	1.024280	-0.724073	0.183675
C167	C	1.064434	-0.682919	0.143618
H168	H	0.965252	-0.638123	0.191328
H169	H	1.016465	-0.638059	0.242694
H170	H	0.996968	-0.756289	0.159694
H171	H	1.048190	-0.756240	0.211043
H172	H	1.091750	-0.650690	0.167600
H173	H	1.040532	-0.650756	0.116238
H174	H	1.088280	-0.719405	0.119845
H175	H	0.346351	-0.369035	0.199822
C176	C	0.821851	-0.485811	0.668851
C177	C	0.759863	-0.468607	0.652903
C178	C	0.719658	-0.519050	0.685563
H179	H	0.830918	-0.538950	0.658164
H180	H	0.827553	-0.478547	0.712516
H181	H	0.754164	-0.475877	0.609248
H182	H	0.750776	-0.415477	0.663592
H183	H	0.725360	-0.511787	0.729229
H184	H	0.728731	-0.572186	0.674874
H185	H	0.677594	-0.507380	0.674752
C186	C	0.821953	-1.089968	0.385780
C187	C	0.786841	-1.036179	0.420832
C188	C	0.746735	-1.077329	0.460941
H189	H	0.794618	-1.122221	0.361853
H190	H	0.845904	-1.122108	0.413147
H191	H	0.762891	-1.004052	0.393468
H192	H	0.814158	-1.003924	0.444771
H193	H	0.770687	-1.109470	0.488308
H194	H	0.719405	-1.109581	0.437010
H195	H	0.722911	-1.040840	0.484732
H196	H	0.346560	-0.392030	0.404632
H197	H	0.144612	-0.288624	0.229733
C198	C	0.473813	-0.367387	0.184386
C199	C	0.431104	-0.361855	0.134969
C200	C	0.463640	-0.355580	0.078431
H201	H	0.499375	-0.321582	0.185156
H202	H	0.499287	-0.412701	0.178781
H203	H	0.405641	-0.316545	0.140572
H204	H	0.405541	-0.407654	0.134178
H205	H	0.489114	-0.400895	0.072826
H206	H	0.489201	-0.309775	0.079208
H207	H	0.434667	-0.351833	0.044894
H208	H	0.978301	-0.288784	0.541395
H209	H	0.978297	-0.288725	0.660101
H210	H	0.263366	-0.472361	0.374832
C211	C	0.539450	-0.275029	0.218625
C212	C	0.555304	-0.292116	0.156606
C213	C	0.522665	-0.241526	0.116496
H214	H	0.495786	-0.282219	0.224279
H215	H	0.550231	-0.221927	0.227826
H216	H	0.544519	-0.345205	0.147408
H217	H	0.598962	-0.284921	0.150932
H218	H	0.533446	-0.188423	0.125697
H219	H	0.479003	-0.248719	0.122156
H220	H	0.533422	-0.253107	0.074412
H221	H	0.914585	-0.251161	0.861872
H222	H	0.666962	-0.288746	0.229547
H223	H	0.832739	-0.681487	0.374819
H224	H	0.792734	-0.955112	0.414855
