data_functionalizedCrystal
_audit_creation_method	'MofGen! by Chris Wilmer'
_symmetry_space_group_name_H-M	'P1'
_symmetry_Int_Tables_number	1
_symmetry_cell_setting	triclinic
loop_
_symmetry_equiv_pos_as_xyz
  x,y,z
_cell_length_a	23.532407
_cell_length_b	23.532353
_cell_length_c	10.868271
_cell_angle_alpha	90.010957
_cell_angle_beta	90.001021
_cell_angle_gamma	97.162402
loop_
_atom_site_label
_atom_site_type_symbol
_atom_site_fract_x
_atom_site_fract_y
_atom_site_fract_z
O1	O	0.755246	-0.069137	-0.102184
O2	O	1.255246	0.430863	0.397816
O3	O	0.589381	-0.079140	-0.102222
O4	O	1.089381	0.420860	0.397778
O5	O	0.677331	0.008795	-0.102176
O6	O	1.177331	0.508795	0.397824
O7	O	0.667295	-0.157073	-0.102231
O8	O	1.167295	0.342927	0.397769
O9	O	0.677324	0.008799	0.102469
O10	O	1.177324	0.508799	0.602469
O11	O	0.589373	-0.079137	0.102422
O12	O	1.089373	0.420863	0.602422
O13	O	0.755239	-0.069134	0.102461
O14	O	1.255239	0.430866	0.602461
Zn15	Zn	0.672305	-0.074135	0.134933
Zn16	Zn	1.172305	0.425865	0.634933
Zn17	Zn	0.672314	-0.074139	-0.134695
Zn18	Zn	1.172314	0.425861	0.365305
O19	O	0.667288	-0.157069	0.102414
O20	O	1.167288	0.342931	0.602414
C21	C	0.568161	-0.078884	0.000095
C22	C	1.068161	0.421116	0.500095
C23	C	0.504944	-0.078118	0.000082
C24	C	1.004944	0.421882	0.500082
C25	C	0.677077	0.030013	0.000150
C26	C	1.177077	0.530013	0.500150
C27	C	0.676323	0.093232	0.000163
C28	C	1.176323	0.593232	0.500163
N29	N	0.672303	-0.074131	0.318947
N30	N	1.172303	0.425869	0.818947
C31	C	0.105832	-0.125353	0.000122
C32	C	0.605832	0.374647	0.500122
C33	C	0.046432	-0.124641	0.000130
C34	C	0.546432	0.375359	0.500130
O35	O	0.009679	-0.168428	0.000160
O36	O	0.509679	0.331572	0.500160
N37	N	0.023816	-0.072364	0.000145
N38	N	0.523816	0.427636	0.500145
C39	C	0.060603	-0.020794	0.000165
C40	C	0.560603	0.479206	0.500165
O41	O	0.035912	0.023738	0.000180
O42	O	0.535912	0.523738	0.500180
C43	C	0.120002	-0.021506	0.000166
C44	C	0.620002	0.478494	0.500166
C45	C	0.142615	-0.073787	0.000138
C46	C	0.642615	0.426213	0.500138
C47	C	0.128445	-0.177630	0.000096
C48	C	0.628445	0.322370	0.500096
C49	C	0.187841	-0.178341	0.000086
C50	C	0.687841	0.321659	0.500086
C51	C	0.224624	-0.126775	0.000102
C52	C	0.724624	0.373225	0.500102
C53	C	0.202011	-0.074498	0.000128
C54	C	0.702011	0.425502	0.500128
C55	C	0.156789	0.030063	0.000195
C56	C	0.656789	0.530063	0.500195
C57	C	0.216191	0.029346	0.000197
C58	C	0.716191	0.529346	0.500197
C59	C	0.238804	-0.022935	0.000169
C60	C	0.738804	0.477065	0.500169
C61	C	0.298190	-0.023644	0.000134
C62	C	0.798190	0.476356	0.500134
N63	N	0.320806	-0.075922	0.000119
N64	N	0.820806	0.424078	0.500119
C65	C	0.284023	-0.127487	0.000103
C66	C	0.784023	0.372513	0.500103
C67	C	-0.064139	-0.019303	0.000165
C68	C	0.435861	0.480697	0.500165
C69	C	-0.123537	-0.018590	0.000155
C70	C	0.376463	0.481410	0.500155
C71	C	-0.137704	-0.122438	0.000122
C72	C	0.362296	0.377562	0.500122
C73	C	-0.078305	-0.123150	0.000123
C74	C	0.421695	0.376850	0.500123
C75	C	-0.041523	-0.071580	0.000150
C76	C	0.458477	0.428420	0.500150
C77	C	0.408759	-0.128977	0.000081
C78	C	0.908759	0.371023	0.500081
C79	C	0.468161	-0.129684	0.000066
C80	C	0.968161	0.370316	0.500066
C81	C	0.482323	-0.025837	0.000105
C82	C	0.982323	0.474163	0.500105
C83	C	0.422927	-0.025130	0.000114
C84	C	0.922927	0.474870	0.500114
C85	C	0.386145	-0.076705	0.000106
C86	C	0.886145	0.423295	0.500106
O87	O	0.334977	0.020120	0.000109
O88	O	0.834977	0.520120	0.500109
O89	O	0.308722	-0.172012	0.000104
O90	O	0.808722	0.327988	0.500104
C91	C	0.776458	-0.069390	0.000140
C92	C	1.276458	0.430610	0.500140
C93	C	0.839675	-0.070156	0.000145
C94	C	1.339675	0.429844	0.500145
C95	C	0.671597	0.485242	-0.111452
C96	C	1.171597	0.985242	0.388548
C97	C	0.670880	0.544642	-0.111459
C98	C	1.170880	1.044642	0.388541
O99	O	0.670494	0.575357	-0.206329
O100	O	1.170494	1.075357	0.293671
N101	N	0.670521	0.574355	0.000092
N102	N	1.170521	1.074355	0.500092
C103	C	0.670873	0.544665	0.111656
C104	C	1.170873	1.044665	0.611656
O105	O	0.670501	0.575392	0.206538
O106	O	1.170501	1.075392	0.706538
C107	C	0.671585	0.485266	0.111661
C108	C	1.171585	0.985266	0.611661
C109	C	0.671950	0.455557	0.000103
C110	C	1.171950	0.955557	0.500103
C111	C	0.671961	0.455533	-0.223001
C112	C	1.171961	0.955533	0.276999
C113	C	0.672678	0.396138	-0.222994
C114	C	1.172678	0.896138	0.277006
C115	C	0.673031	0.366452	-0.111438
C116	C	1.173031	0.866452	0.388562
C117	C	0.672667	0.396161	0.000110
C118	C	1.172667	0.896161	0.500110
C119	C	0.671932	0.455576	0.223224
C120	C	1.171932	0.955576	0.723224
C121	C	0.672644	0.396173	0.223220
C122	C	1.172644	0.896173	0.723220
C123	C	0.673009	0.366464	0.111662
C124	C	1.173009	0.866464	0.611662
C125	C	0.673737	0.307080	0.111673
C126	C	1.173737	0.807080	0.611673
N127	N	0.674097	0.277367	0.000122
N128	N	1.174097	0.777367	0.500122
C129	C	0.673743	0.307053	-0.111433
C130	C	1.173743	0.807053	0.388567
C131	C	0.669376	0.669407	0.111636
C132	C	1.169376	1.169407	0.611636
C133	C	0.668668	0.728805	0.111632
C134	C	1.168668	1.228805	0.611632
C135	C	0.668674	0.728778	-0.111483
C136	C	1.168674	1.228778	0.388517
C137	C	0.669387	0.669379	-0.111478
C138	C	1.169387	1.169379	0.388522
C139	C	0.669735	0.639694	0.000086
C140	C	1.169735	1.139694	0.500086
C141	C	0.675250	0.182318	-0.111410
C142	C	1.175250	0.682318	0.388590
C143	C	0.675970	0.122918	-0.111393
C144	C	1.175970	0.622918	0.388607
C145	C	0.675960	0.122950	0.111721
C146	C	1.175960	0.622950	0.611721
C147	C	0.675244	0.182345	0.111705
C148	C	1.175244	0.682345	0.611705
C149	C	0.674887	0.212028	0.000129
C150	C	1.174887	0.712028	0.500129
O151	O	0.674122	0.276327	0.206495
O152	O	1.174122	0.776327	0.706495
O153	O	0.674108	0.276317	-0.206299
O154	O	1.174108	0.776317	0.293701
C155	C	0.667546	0.821713	0.000088
C156	C	1.167546	1.321713	0.500088
C157	C	0.668312	0.758496	0.000076
C158	C	1.168312	1.258496	0.500076
N159	N	0.672321	-0.074138	-0.318709
N160	N	1.172321	0.425862	0.181291
C161	C	0.672311	-0.074138	0.569953
C162	C	1.172311	0.425862	1.069953
C163	C	0.672305	-0.074136	0.430276
C164	C	1.172305	0.425864	0.930276
H165	H	0.378818	-0.170974	0.000078
H166	H	0.878818	0.329026	0.500078
N167	N	-0.177370	-0.178066	0.000177
N168	N	0.322630	0.321934	0.500177
H169	H	-0.170142	-0.200908	-0.075673
H170	H	0.329858	0.299092	0.424327
H171	H	-0.218417	-0.169646	0.000251
H172	H	0.281583	0.330354	0.500251
H173	H	0.671636	0.479755	0.314067
H174	H	1.171636	0.979755	0.814067
H175	H	0.206246	-0.220914	0.000063
H176	H	0.706246	0.279086	0.500063
N177	N	0.398533	0.031257	0.000120
N178	N	0.898533	0.531257	0.500120
H179	H	0.430851	0.063815	0.000123
H180	H	0.930851	0.563815	0.500123
H181	H	0.374203	0.033817	0.075993
H182	H	0.874203	0.533817	0.575993
H183	H	0.674952	0.206537	0.202545
H184	H	1.174952	0.706537	0.702545
H185	H	0.669661	0.645240	0.202490
H186	H	1.169661	1.145240	0.702490
H187	H	0.668379	0.752991	0.202474
H188	H	1.168379	1.252991	0.702474
H189	H	0.676269	0.098732	-0.202241
H190	H	1.176269	0.598732	0.297759
N191	N	0.492548	-0.186076	0.000051
N192	N	0.992548	0.313924	0.500051
H193	H	0.535758	-0.178706	0.000046
H194	H	1.035758	0.321294	0.500046
H195	H	0.479066	-0.208627	-0.075817
H196	H	0.979066	0.291373	0.424183
N197	N	0.255864	0.084969	0.000233
N198	N	0.755864	0.584969	0.500233
H199	H	0.232521	0.118192	0.000252
H200	H	0.732521	0.618192	0.500252
H201	H	0.280816	0.086939	-0.075632
H202	H	0.780816	0.586939	0.424368
N203	N	0.088792	-0.233262	0.000084
N204	N	0.588792	0.266738	0.500084
H205	H	0.063829	-0.235297	-0.075776
H206	H	0.563829	0.264703	0.424224
H207	H	0.063870	-0.235260	0.075997
H208	H	0.563870	0.264740	0.575997
H209	H	0.674957	0.206479	-0.202266
H210	H	1.174957	0.706479	0.297734
N211	N	-0.053924	-0.179541	0.000105
N212	N	0.446076	0.320459	0.500105
H213	H	-0.029597	-0.182154	0.075968
H214	H	0.470403	0.317846	0.575968
H215	H	-0.029624	-0.182122	-0.075806
H216	H	0.470376	0.317878	0.424194
H217	H	-0.141942	0.023982	0.000158
H218	H	0.358058	0.523982	0.500158
H219	H	0.672919	0.372005	0.314070
H220	H	1.172919	0.872005	0.814070
H221	H	0.672973	0.371954	-0.313836
H222	H	1.172973	0.871954	0.186164
N223	N	0.676347	0.090927	0.232038
N224	N	1.176347	0.590927	0.732038
H225	H	0.676855	0.048790	0.215104
H226	H	1.176855	0.548790	0.715104
H227	H	0.640908	0.096490	0.280742
H228	H	1.140908	0.596490	0.780742
N229	N	-0.024468	0.036322	0.000187
N230	N	0.475532	0.536322	0.500187
H231	H	-0.047813	0.069544	0.000196
H232	H	0.452187	0.569544	0.500196
H233	H	0.000486	0.038291	-0.075676
H234	H	0.500486	0.538291	0.424324
N235	N	0.522002	0.029779	0.000123
N236	N	1.022002	0.529779	0.500123
H237	H	0.563061	0.021390	0.000120
H238	H	1.063061	0.521390	0.500120
H239	H	0.514716	0.052574	0.076002
H240	H	1.014716	0.552574	0.576002
H241	H	0.669683	0.645194	-0.202318
H242	H	1.169683	1.145194	0.297682
H243	H	0.138389	0.072636	0.000218
H244	H	0.638389	0.572636	0.500218
H245	H	0.671671	0.479697	-0.313848
H246	H	1.171671	0.979697	0.186152
H247	H	0.668385	0.752959	-0.202318
H248	H	1.168385	1.252959	0.297682
