data_functionalizedCrystal
_audit_creation_method	'MofGen! by Chris Wilmer'
_symmetry_space_group_name_H-M	'P1'
_symmetry_Int_Tables_number	1
_symmetry_cell_setting	triclinic
loop_
_symmetry_equiv_pos_as_xyz
  x,y,z
_cell_length_a	12.759401
_cell_length_b	16.625546
_cell_length_c	12.759393
_cell_angle_alpha	89.963602
_cell_angle_beta	89.982620
_cell_angle_gamma	90.022629
loop_
_atom_site_label
_atom_site_type_symbol
_atom_site_fract_x
_atom_site_fract_y
_atom_site_fract_z
Zn1	Zn	1.606187	-0.320949	-0.593948
Zn2	Zn	2.106187	0.179051	-0.093948
Zn3	Zn	1.606061	-0.455806	-0.418253
Zn4	Zn	2.106061	0.044194	0.081747
Zn5	Zn	1.430492	-0.320992	-0.418287
Zn6	Zn	1.930492	0.179008	0.081713
Zn7	Zn	1.430454	-0.455744	-0.593895
Zn8	Zn	1.930454	0.044256	-0.093895
O9	O	1.518299	-0.388373	-0.506096
O10	O	2.018299	0.111627	-0.006096
O11	O	1.753191	-0.338846	-0.570649
O12	O	2.253191	0.161154	-0.070649
O13	O	1.582735	-0.437967	-0.271237
O14	O	2.082735	0.062033	0.228763
O15	O	1.453868	-0.208154	-0.441625
O16	O	1.953868	0.291846	0.058375
O17	O	1.753099	-0.437925	-0.441568
O18	O	2.253099	0.062075	0.058432
O19	O	1.582950	-0.208122	-0.570682
O20	O	2.082950	0.291878	-0.070682
O21	O	1.453745	-0.338919	-0.271261
O22	O	1.953745	0.161081	0.228739
O23	O	1.283466	-0.338859	-0.441574
O24	O	1.783466	0.161141	0.058426
O25	O	1.453802	-0.437819	-0.740923
O26	O	1.953802	0.062181	-0.240923
O27	O	1.283438	-0.437860	-0.570592
O28	O	1.783438	0.062140	-0.070592
O29	O	1.582912	-0.338786	-0.740962
O30	O	2.082912	0.161214	-0.240962
O31	O	1.582697	-0.568630	-0.441517
O32	O	2.082697	-0.068630	0.058483
O33	O	1.453680	-0.568584	-0.570560
O34	O	1.953680	-0.068584	-0.070560
C35	C	1.245331	-0.388358	-0.506081
C36	C	1.745331	0.111642	-0.006081
C37	C	1.128555	-0.388371	-0.506100
C38	C	1.628555	0.111629	-0.006100
C39	C	1.073705	-0.440004	-0.573169
C40	C	1.573705	0.059996	-0.073169
C41	C	0.963981	-0.440014	-0.573180
C42	C	1.463981	0.059986	-0.073180
C43	C	0.963965	-0.336756	-0.439045
C44	C	1.463965	0.163244	0.060955
C45	C	1.073688	-0.336743	-0.439040
C46	C	1.573688	0.163257	0.060960
C47	C	1.073714	-0.499621	-0.650608
C48	C	1.573714	0.000379	-0.150608
C49	C	0.963989	-0.499631	-0.650619
C50	C	1.463989	0.000369	-0.150619
C51	C	1.518199	-0.597864	-0.506052
C52	C	2.018199	-0.097864	-0.006052
C53	C	1.518253	-0.687485	-0.506068
C54	C	2.018253	-0.187485	-0.006068
C55	C	1.518436	-1.015660	-0.506177
C56	C	2.018436	-0.515660	-0.006177
C57	C	1.518382	-0.924352	-0.506150
C58	C	2.018382	-0.424352	-0.006150
C59	C	1.518344	-0.851575	-0.506122
C60	C	2.018344	-0.351575	-0.006122
C61	C	1.518291	-0.760261	-0.506096
C62	C	2.018291	-0.260261	-0.006096
C63	C	1.792332	-0.388388	-0.506111
C64	C	2.292332	0.111612	-0.006111
C65	C	1.909109	-0.388395	-0.506117
C66	C	2.409109	0.111605	-0.006117
C67	C	1.518367	-0.388291	-0.780129
C68	C	2.018367	0.111709	-0.280129
C69	C	1.518396	-0.388256	-0.896906
C70	C	2.018396	0.111744	-0.396906
C71	C	1.518427	-0.178064	-0.506163
C72	C	2.018427	0.321936	-0.006163
C73	C	1.518482	-0.088443	-0.506191
C74	C	2.018482	0.411557	-0.006191
C75	C	1.451260	-0.336672	-0.951787
C76	C	1.951260	0.163328	-0.451787
C77	C	1.451291	-0.336648	-1.061511
C78	C	1.951291	0.163352	-0.561511
C79	C	1.585605	-0.439793	-1.061464
C80	C	2.085605	0.060207	-0.561464
C81	C	1.585567	-0.439821	-0.951742
C82	C	2.085567	0.060179	-0.451742
C83	C	1.373718	-0.277119	-0.951815
C84	C	1.873718	0.222881	-0.451815
C85	C	1.373750	-0.277095	-1.061539
C86	C	1.873750	0.222905	-0.561539
C87	C	1.518291	-0.388396	-0.233128
C88	C	2.018291	0.111604	0.266872
C89	C	1.518466	-0.388204	-0.116352
C90	C	2.018466	0.111796	0.383648
H91	H	1.103523	-0.482968	-0.732016
H92	H	1.603523	0.017032	-0.232016
H93	H	0.919279	-0.294722	-0.384448
H94	H	1.419279	0.205278	0.115552
H95	H	1.292326	-0.293841	-0.922036
H96	H	1.792326	0.206159	-0.422036
H97	H	1.640221	-0.481837	-0.907062
H98	H	2.140221	0.018163	-0.407062
O99	O	1.412366	-0.198565	-0.906749
O100	O	1.912366	0.301435	-0.406749
H101	H	1.432880	-0.156894	-0.971590
H102	H	1.932880	0.343106	-0.471590
O103	O	1.658059	-0.495404	-1.120606
O104	O	2.158059	0.004596	-0.620606
H105	H	1.646812	-0.486717	-1.206123
H106	H	2.146812	0.013283	-0.706123
O107	O	1.271357	-0.306690	-1.106624
O108	O	1.771357	0.193310	-0.606624
H109	H	1.217042	-0.322397	-1.041793
H110	H	1.717042	0.177603	-0.541793
O111	O	1.402730	-0.194398	-1.101089
O112	O	1.902730	0.305602	-0.601089
H113	H	1.344759	-0.149890	-1.072116
H114	H	1.844759	0.350110	-0.572116
O115	O	1.118772	-0.578151	-0.611816
O116	O	1.618772	-0.078151	-0.111816
H117	H	1.053927	-0.619798	-0.591260
H118	H	1.553927	-0.119798	-0.091260
H119	H	0.929994	-0.477341	-0.727974
H120	H	1.429994	0.022659	-0.227974
H121	H	0.934183	-0.562064	-0.628680
H122	H	1.434183	-0.062064	-0.128680
H123	H	1.118342	-0.294693	-0.384433
H124	H	1.618342	0.205307	0.115567
