data_functionalizedCrystal
_audit_creation_method	'MofGen! by Chris Wilmer'
_symmetry_space_group_name_H-M	'P1'
_symmetry_Int_Tables_number	1
_symmetry_cell_setting	triclinic
loop_
_symmetry_equiv_pos_as_xyz
  x,y,z
_cell_length_a	15.538191
_cell_length_b	27.732048
_cell_length_c	14.185569
_cell_angle_alpha	76.951782
_cell_angle_beta	97.875798
_cell_angle_gamma	64.957374
loop_
_atom_site_label
_atom_site_type_symbol
_atom_site_fract_x
_atom_site_fract_y
_atom_site_fract_z
O1	O	1.230624	-0.142649	-0.083403
O2	O	0.955548	-0.086692	-0.083413
O3	O	1.101634	-0.186537	-0.083389
O4	O	1.084538	-0.042804	-0.083428
O5	O	1.144789	-0.216030	0.083453
O6	O	0.998703	-0.116185	0.083429
O7	O	1.273779	-0.172142	0.083438
Cu8	Cu	1.140181	-0.146856	0.098667
Cu9	Cu	1.089145	-0.111978	-0.098642
O10	O	1.127693	-0.072297	0.083414
C11	C	0.941944	-0.095584	0.000007
C12	C	0.837116	-0.078145	0.000004
C13	C	0.551856	-0.251395	0.000035
C14	C	0.453350	-0.234996	0.000030
C15	C	0.429558	-0.142756	0.000005
C16	C	0.528065	-0.159148	0.000015
C17	C	0.589206	-0.213468	0.000029
C18	C	0.565415	-0.121222	0.000009
C19	C	0.663913	-0.137612	0.000014
C20	C	0.725059	-0.191928	0.000025
C21	C	0.687703	-0.229858	0.000034
C22	C	0.504271	-0.066901	-0.000012
C23	C	0.541621	-0.028974	-0.000018
C24	C	0.640122	-0.045365	-0.000006
C25	C	0.701268	-0.099682	0.000005
C26	C	0.677478	-0.007436	-0.000015
C27	C	0.775975	-0.023826	-0.000010
C28	C	0.799766	-0.116072	0.000010
C29	C	1.122854	-0.219229	0.000035
C30	C	1.121776	-0.272700	0.000043
C31	C	1.201288	-0.625155	-0.000006
C32	C	1.197277	-0.826124	-0.000020
O33	O	1.269986	-0.869853	-0.000061
N34	N	1.110657	-0.830382	-0.000022
C35	C	1.025032	-0.784391	-0.000027
O36	O	0.951262	-0.792622	-0.000040
C37	C	1.029042	-0.583422	-0.000020
C38	C	1.115670	-0.579170	-0.000008
C39	C	1.287908	-0.620901	0.000005
C40	C	1.288912	-0.570663	0.000014
C41	C	1.203294	-0.524678	0.000012
C42	C	1.116673	-0.528931	0.000001
C43	C	0.943416	-0.537431	-0.000033
C44	C	0.944426	-0.487187	-0.000033
C45	C	1.031054	-0.482935	-0.000021
C46	C	1.032059	-0.432708	0.000008
N47	N	1.118679	-0.428450	0.000010
C48	C	1.204296	-0.474435	0.000012
C49	C	1.022933	-0.889905	-0.000029
C50	C	1.021931	-0.940147	-0.000029
C51	C	1.194176	-0.981877	-0.000023
C52	C	1.195179	-0.931634	-0.000016
C53	C	1.109553	-0.885647	-0.000027
C54	C	1.206397	-0.368929	0.000032
C55	C	1.207393	-0.318685	0.000045
C56	C	1.035148	-0.276959	0.000034
C57	C	1.034152	-0.327200	0.000027
C58	C	1.119783	-0.373185	0.000022
O59	O	0.959386	-0.388955	0.000038
O60	O	1.278050	-0.466190	0.000002
C61	C	1.200284	-0.675394	-0.000015
C62	C	1.113664	-0.679647	-0.000026
C63	C	1.028046	-0.633662	-0.000028
C64	C	1.112661	-0.729890	-0.000026
C65	C	1.198279	-0.775875	-0.000024
C66	C	1.284899	-0.771617	-0.000022
C67	C	1.285902	-0.721379	-0.000013
C68	C	0.941426	-0.637919	-0.000030
C69	C	0.940430	-0.688160	-0.000038
C70	C	1.026048	-0.734145	-0.000036
C71	C	1.287382	-0.163249	0.000016
C72	C	1.392208	-0.180687	0.000012
C73	C	1.106473	-0.039604	-0.000012
C74	C	1.107549	0.013868	-0.000027
N75	N	1.176084	-0.171389	0.237444
N76	N	1.053250	-0.087450	-0.237419
C77	C	0.947768	-0.015393	0.605056
C78	C	0.974970	-0.033974	0.710083
C79	C	1.104355	-0.122366	0.710065
C80	C	1.077161	-0.103793	0.605037
C81	C	0.998867	-0.050306	0.552541
C82	C	1.128260	-0.138707	0.552521
C83	C	1.101070	-0.120134	0.447502
C84	C	1.022782	-0.066648	0.394999
C85	C	0.971678	-0.031733	0.447522
C86	C	1.206558	-0.192193	0.605019
C87	C	1.257657	-0.227106	0.552503
C88	C	1.230463	-0.208535	0.447482
C89	C	1.152174	-0.155049	0.394979
C90	C	1.281567	-0.243450	0.394959
C91	C	1.254378	-0.224877	0.289940
C92	C	1.124985	-0.136476	0.289960
H93	H	0.805258	-0.205270	0.000015
H94	H	0.601643	-0.295628	0.000052
C95	C	1.302686	-0.314009	0.000059
H96	H	1.291030	-0.277504	0.000074
H97	H	1.322861	-0.320527	-0.058120
H98	H	1.352952	-0.341110	0.058250
H99	H	1.321407	-0.270656	0.595258
H100	H	1.345321	-0.286998	0.437715
H101	H	1.357632	-0.658340	0.000003
H102	H	1.276125	-0.406366	0.000024
C103	C	0.754971	-0.289610	0.000059
H104	H	0.818983	-0.293939	0.000068
H105	H	0.728675	-0.295597	-0.058113
H106	H	0.758769	-0.316159	0.058257
C107	C	0.885554	0.027102	0.389770
H108	H	0.859013	0.045239	0.436085
H109	H	0.835898	0.023797	0.348810
H110	H	0.908629	0.048572	0.348794
C111	C	0.918713	0.004420	0.767847
H112	H	0.868176	0.038928	0.721538
H113	H	0.962957	0.011411	0.808829
H114	H	0.890272	-0.013396	0.808801
C115	C	1.310581	-0.263281	0.232169
H116	H	1.361096	-0.297798	0.278474
H117	H	1.339026	-0.245486	0.191188
H118	H	1.266292	-0.270259	0.191214
C119	C	0.850238	-0.436601	-0.000044
H120	H	0.863233	-0.406067	-0.000046
H121	H	0.829731	-0.446551	0.058131
H122	H	0.799644	-0.425973	-0.058239
H123	H	1.354613	-0.809069	-0.000015
H124	H	0.963620	-0.330666	0.000044
C125	C	0.362300	-0.083010	-0.000004
H126	H	0.298291	-0.078681	0.000001
H127	H	0.358507	-0.056457	-0.058184
H128	H	0.388607	-0.077037	0.058186
H129	H	1.263889	-1.019327	-0.000021
C130	C	1.190469	-0.181200	0.767816
H131	H	1.199341	-0.187263	0.837883
H132	H	1.248961	-0.183935	0.750589
H133	H	1.176219	-0.208703	0.750612
C134	C	1.290466	-0.926960	-0.000012
H135	H	1.341307	-0.961545	-0.000016
H136	H	1.309491	-0.918516	0.058166
H137	H	1.279389	-0.897941	-0.058204
H138	H	1.228695	-0.207312	0.690532
H139	H	0.422944	-0.265884	0.000033
H140	H	0.951394	-0.943606	-0.000021
H141	H	1.359452	-0.567207	0.000020
H142	H	0.953202	-0.852463	-0.000037
C143	C	0.848122	-0.542095	-0.000055
H144	H	0.797280	-0.507505	-0.000069
H145	H	0.859180	-0.571113	0.058121
H146	H	0.829100	-0.550533	-0.058249
H147	H	0.424068	-0.053557	-0.000019
C148	C	0.867034	-0.175824	0.000035
H149	H	0.931045	-0.180153	0.000044
H150	H	0.840737	-0.181811	-0.058137
H151	H	0.870832	-0.202373	0.058233
H152	H	0.965441	-0.239510	0.000036
H153	H	0.884007	0.028160	0.562312
C154	C	0.474364	0.030772	-0.000026
H155	H	0.410354	0.035101	-0.000022
H156	H	0.470571	0.057325	-0.058206
H157	H	0.500671	0.036745	0.058164
H158	H	0.806388	0.007056	-0.000005
C159	C	0.610216	0.052312	-0.000034
H160	H	0.546206	0.056641	-0.000033
H161	H	0.606426	0.078862	-0.058216
H162	H	0.636515	0.058290	0.058154
C163	C	1.381191	-0.716707	-0.000009
H164	H	1.432028	-0.751292	-0.000018
H165	H	1.400222	-0.708265	0.058171
H166	H	1.370114	-0.687686	-0.058199
C167	C	1.038853	-0.077644	0.232203
H168	H	1.029977	-0.071587	0.162137
H169	H	1.053074	-0.050133	0.249400
H170	H	0.980363	-0.074922	0.249429
C171	C	0.845132	-0.692829	-0.000055
H172	H	0.794287	-0.658241	-0.000065
H173	H	0.856194	-0.721850	0.058118
H174	H	0.826113	-0.701265	-0.058252
H175	H	0.871704	-0.600480	-0.000034
H176	H	1.000648	-0.051526	0.309485
