data_functionalizedCrystal
_audit_creation_method	'MofGen! by Chris Wilmer'
_symmetry_space_group_name_H-M	'P1'
_symmetry_Int_Tables_number	1
_symmetry_cell_setting	triclinic
loop_
_symmetry_equiv_pos_as_xyz
  x,y,z
_cell_length_a	17.077404
_cell_length_b	12.645330
_cell_length_c	17.077396
_cell_angle_alpha	89.973796
_cell_angle_beta	89.980499
_cell_angle_gamma	90.012871
loop_
_atom_site_label
_atom_site_type_symbol
_atom_site_fract_x
_atom_site_fract_y
_atom_site_fract_z
Zn1	Zn	1.200110	-0.422033	-0.443855
Zn2	Zn	1.700110	0.077967	0.056145
Zn3	Zn	1.200041	-0.599318	-0.312594
Zn4	Zn	1.700041	-0.099318	0.187406
Zn5	Zn	1.068842	-0.422070	-0.312603
Zn6	Zn	1.568842	0.077930	0.187397
Zn7	Zn	1.068834	-0.599256	-0.443818
Zn8	Zn	1.568834	-0.099256	0.056182
O9	O	1.134457	-0.510669	-0.378218
O10	O	1.634457	-0.010669	0.121782
O11	O	1.309948	-0.445561	-0.426455
O12	O	1.809948	0.054439	0.073545
O13	O	1.182612	-0.575848	-0.202749
O14	O	1.682612	-0.075848	0.297251
O15	O	1.086288	-0.273718	-0.330033
O16	O	1.586288	0.226282	0.169967
O17	O	1.309897	-0.575812	-0.330018
O18	O	1.809897	-0.075812	0.169982
O19	O	1.182730	-0.273691	-0.426464
O20	O	1.682730	0.226309	0.073536
O21	O	1.086221	-0.445624	-0.202755
O22	O	1.586221	0.054376	0.297245
O23	O	0.958994	-0.445563	-0.329997
O24	O	1.458994	0.054437	0.170003
O25	O	1.086273	-0.575705	-0.553670
O26	O	1.586273	-0.075705	-0.053670
O27	O	0.958988	-0.575741	-0.426400
O28	O	1.458988	-0.075741	0.073600
O29	O	1.182722	-0.445500	-0.553697
O30	O	1.682722	0.054500	-0.053697
O31	O	1.182603	-0.747657	-0.329982
O32	O	1.682603	-0.247657	0.170018
O33	O	1.086206	-0.747611	-0.426392
O34	O	1.586206	-0.247611	0.073608
C35	C	0.930509	-0.510650	-0.378196
C36	C	1.430509	-0.010650	0.121804
C37	C	0.843259	-0.510667	-0.378205
C38	C	1.343259	-0.010667	0.121795
C39	C	0.802286	-0.578553	-0.428322
C40	C	1.302286	-0.078553	0.071678
C41	C	0.720306	-0.578555	-0.428334
C42	C	1.220306	-0.078555	0.071666
C43	C	0.679300	-0.510677	-0.378226
C44	C	1.179300	-0.010677	0.121774
C45	C	0.720278	-0.442783	-0.328107
C46	C	1.220278	0.057217	0.171893
C47	C	0.802257	-0.442777	-0.328099
C48	C	1.302257	0.057223	0.171901
C49	C	0.549408	-0.442804	-0.328126
C50	C	1.049408	0.057196	0.171874
C51	C	0.467424	-0.442812	-0.328133
C52	C	0.967424	0.057188	0.171867
C53	C	0.467457	-0.578583	-0.428361
C54	C	0.967457	-0.078583	0.071639
C55	C	0.549436	-0.578576	-0.428353
C56	C	1.049436	-0.078576	0.071647
C57	C	0.590409	-0.510684	-0.378233
C58	C	1.090409	-0.010684	0.121767
C59	C	1.134418	-0.786099	-0.378199
C60	C	1.634418	-0.286099	0.121801
C61	C	1.134473	-0.903929	-0.378217
C62	C	1.634473	-0.403929	0.121783
C63	C	1.195019	-1.071478	-0.317443
C64	C	1.695019	-0.571478	0.182557
C65	C	1.195216	-0.948918	-0.317592
C66	C	1.695216	-0.448918	0.182408
C67	C	1.156905	-0.948313	-0.460961
C68	C	1.656905	-0.448313	0.039039
C69	C	1.157385	-1.070911	-0.460639
C70	C	1.657385	-0.570911	0.039361
C71	C	1.051470	-1.071256	-0.357063
C72	C	1.551470	-0.571256	0.142937
C73	C	1.051868	-0.948652	-0.355208
C74	C	1.551868	-0.448652	0.144792
C75	C	1.339201	-0.510689	-0.378240
C76	C	1.839201	-0.010689	0.121760
C77	C	1.426451	-0.510698	-0.378249
C78	C	1.926451	-0.010698	0.121751
C79	C	1.134504	-0.510591	-0.582962
C80	C	1.634504	-0.010591	-0.082962
C81	C	1.134525	-0.510558	-0.670212
C82	C	1.634525	-0.010558	-0.170212
C83	C	1.134518	-0.234164	-0.378253
C84	C	1.634518	0.265836	0.121747
C85	C	1.134544	-0.116334	-0.378269
C86	C	1.634544	0.383666	0.121731
C87	C	1.184747	-0.442755	-0.711218
C88	C	1.684747	0.057245	-0.211218
C89	C	1.184757	-0.442719	-0.793198
C90	C	1.684757	0.057281	-0.293198
C91	C	1.134547	-0.510493	-0.834171
C92	C	1.634547	-0.010493	-0.334171
C93	C	1.084319	-0.578300	-0.793160
C94	C	1.584319	-0.078300	-0.293160
C95	C	1.084306	-0.578329	-0.711181
C96	C	1.584306	-0.078329	-0.211181
C97	C	1.084350	-0.578236	-0.964030
C98	C	1.584350	-0.078236	-0.464030
C99	C	1.084364	-0.578208	-1.046015
C100	C	1.584364	-0.078208	-0.546015
C101	C	1.184801	-0.442626	-1.046047
C102	C	1.684801	0.057374	-0.546047
C103	C	1.184788	-0.442656	-0.964068
C104	C	1.684788	0.057344	-0.464068
C105	C	1.134561	-0.510464	-0.923062
C106	C	1.634561	-0.010464	-0.423062
C107	C	1.134455	-0.510671	-0.174270
C108	C	1.634455	-0.010671	0.325730
C109	C	1.134587	-0.510405	-0.087020
C110	C	1.634587	-0.010405	0.412980
H111	H	0.686949	-0.633836	-0.469144
H112	H	1.186949	-0.133836	0.030856
Br113	Br	1.252899	-0.350778	-0.655619
Br114	Br	1.752899	0.149222	-0.155619
Br115	Br	1.252970	-0.350606	-1.101696
Br116	Br	1.752970	0.149394	-0.601696
Br117	Br	1.087149	-1.120367	-0.538739
Br118	Br	1.587149	-0.620367	-0.038739
Br119	Br	0.857865	-0.350637	-0.260086
Br120	Br	1.357865	0.149363	0.239914
Br121	Br	1.256970	-0.897001	-0.491403
Br122	Br	1.756970	-0.397001	0.008597
H123	H	1.043477	-0.633394	-1.079373
H124	H	1.543477	-0.133394	-0.579373
Br125	Br	1.297025	-1.122691	-0.340555
Br126	Br	1.797025	-0.622691	0.159445
H127	H	0.434093	-0.633860	-0.469173
H128	H	0.934093	-0.133860	0.030827
Br129	Br	1.297769	-0.899892	-0.340973
Br130	Br	1.797769	-0.399892	0.159027
H131	H	1.043402	-0.633530	-0.677795
H132	H	1.543402	-0.133530	-0.177795
Br133	Br	1.017467	-1.122940	-0.258251
Br134	Br	1.517467	-0.622940	0.241749
Br135	Br	1.023669	-0.900316	-0.253718
Br136	Br	1.523669	-0.400316	0.246282
H137	H	1.043434	-0.633479	-0.826527
H138	H	1.543434	-0.133479	-0.326527
H139	H	1.114198	-0.919168	-0.507495
H140	H	1.614198	-0.419168	-0.007495
Br141	Br	1.016181	-0.670258	-0.908380
Br142	Br	1.516181	-0.170258	-0.408380
H143	H	0.835668	-0.633831	-0.469124
H144	H	1.335668	-0.133831	0.030876
Br145	Br	0.976368	-1.119606	-0.430900
Br146	Br	1.476368	-0.619606	0.069100
Br147	Br	0.972711	-0.897630	-0.423632
Br148	Br	1.472711	-0.397630	0.076368
Br149	Br	0.605087	-0.670708	-0.496351
Br150	Br	1.105087	-0.170708	0.003649
H151	H	1.225655	-0.387510	-0.826581
H152	H	1.725655	0.112490	-0.326581
Br153	Br	0.605014	-0.350662	-0.260107
Br154	Br	1.105014	0.149338	0.239893
Br155	Br	0.411773	-0.350698	-0.260122
Br156	Br	0.911773	0.149302	0.239878
Br157	Br	0.664628	-0.350651	-0.260109
Br158	Br	1.164628	0.149349	0.239891
Br159	Br	1.171765	-0.898902	-0.215346
Br160	Br	1.671765	-0.398902	0.284654
H161	H	1.181160	-1.101030	-0.255910
H162	H	1.681160	-0.601030	0.244090
H163	H	1.218108	-1.099423	-0.478601
H164	H	1.718108	-0.599423	0.021399
H165	H	1.225678	-0.387474	-0.930710
H166	H	1.725678	0.112526	-0.430710
