data_functionalizedCrystal
_audit_creation_method	'MofGen! by Chris Wilmer'
_symmetry_space_group_name_H-M	'P1'
_symmetry_Int_Tables_number	1
_symmetry_cell_setting	triclinic
loop_
_symmetry_equiv_pos_as_xyz
  x,y,z
_cell_length_a	10.723024
_cell_length_b	16.098538
_cell_length_c	10.723024
_cell_angle_alpha	87.249955
_cell_angle_beta	84.467869
_cell_angle_gamma	92.764343
loop_
_atom_site_label
_atom_site_type_symbol
_atom_site_fract_x
_atom_site_fract_y
_atom_site_fract_z
O1	O	1.662728	0.069249	0.169499
O2	O	1.299576	0.069251	0.186252
O3	O	1.489528	0.069247	-0.003701
O4	O	1.472775	0.069253	0.359451
O5	O	1.478432	-0.069266	0.007352
O6	O	1.288479	-0.069261	0.197304
O7	O	1.651631	-0.069264	0.180551
Zn8	Zn	1.468293	-0.091255	0.190682
Zn9	Zn	1.482914	0.091242	0.176120
O10	O	1.461679	-0.069260	0.370503
C11	C	1.247528	-0.000005	0.190559
C12	C	1.108974	-0.000004	0.186911
N13	N	1.458325	-0.215804	0.200620
C14	C	1.033991	-0.000001	0.293198
C15	C	0.890788	-0.000000	0.289431
C16	C	1.538978	-0.259391	0.120025
C17	C	1.532016	-0.346579	0.126989
C18	C	1.444406	-0.390180	0.214554
C19	C	1.363744	-0.346587	0.295151
C20	C	1.370701	-0.259399	0.288181
C21	C	1.419187	-0.653429	0.239801
C22	C	1.412239	-0.740622	0.246768
C23	C	1.580510	-0.740609	0.078603
C24	C	1.587464	-0.653420	0.071645
C25	C	1.506798	-0.609835	0.152238
C26	C	1.437291	-0.479301	0.221676
C27	C	1.513908	-0.520715	0.145109
C28	C	1.703679	-0.000006	0.176244
C29	C	1.842234	-0.000002	0.179891
C30	C	1.482761	-0.000009	-0.044674
C31	C	1.479113	-0.000006	-0.183229
N32	N	1.492892	0.215791	0.166173
C33	C	1.585401	-0.000005	-0.258211
C34	C	1.581634	-0.000002	-0.401415
C35	C	1.468446	-0.000002	0.411477
C36	C	1.472094	0.000000	0.550031
H37	H	1.075813	-0.000005	0.386985
H38	H	1.672624	-0.000006	-0.465847
H39	H	1.646184	-0.776104	0.012986
H40	H	1.340892	-0.776118	0.318079
H41	H	1.381098	-0.000006	-0.385543
C42	C	0.803760	0.000006	0.412359
H43	H	0.852800	0.000013	0.481570
H44	H	0.748524	-0.048293	0.419536
H45	H	0.756277	0.048318	0.411819
C46	C	1.635357	-0.211434	0.023715
H47	H	1.627962	-0.153265	0.031113
H48	H	1.619966	-0.225730	-0.058557
H49	H	1.717615	-0.225714	0.039188
H50	H	1.353507	-0.617949	0.305426
H51	H	1.585236	-0.485214	0.073809
H52	H	0.906659	0.000001	0.088895
C53	C	1.267377	-0.394544	0.391473
H54	H	1.274793	-0.452713	0.384092
H55	H	1.185118	-0.380272	0.376021
H56	H	1.282789	-0.380243	0.473743
H57	H	1.385328	0.000001	-0.225051
C58	C	1.281988	-0.211450	0.376834
H59	H	1.298669	-0.153280	0.360135
H60	H	1.295104	-0.225726	0.461388
H61	H	1.197447	-0.225753	0.363652
H62	H	1.067153	0.000016	0.093124
C63	C	1.620747	-0.394522	0.038347
H64	H	1.673934	-0.356068	-0.014788
H65	H	1.572716	-0.428547	-0.011301
H66	H	1.670358	-0.428518	0.086450
C67	C	1.683828	-0.605466	-0.024684
H68	H	1.730859	-0.643913	-0.071695
H69	H	1.738868	-0.571440	0.017960
H70	H	1.641199	-0.571468	-0.079763
H71	H	1.365959	-0.514807	0.292976
C72	C	1.712102	-0.000009	-0.201726
H73	H	1.698012	-0.000017	-0.112886
H74	H	1.762102	0.048291	-0.232567
H75	H	1.754353	-0.048319	-0.224864
