data_functionalizedCrystal
_audit_creation_method	'MofGen! by Chris Wilmer'
_symmetry_space_group_name_H-M	'P1'
_symmetry_Int_Tables_number	1
_symmetry_cell_setting	triclinic
loop_
_symmetry_equiv_pos_as_xyz
  x,y,z
_cell_length_a	13.032781
_cell_length_b	17.638574
_cell_length_c	13.033454
_cell_angle_alpha	84.509500
_cell_angle_beta	90.931488
_cell_angle_gamma	92.691017
loop_
_atom_site_label
_atom_site_type_symbol
_atom_site_fract_x
_atom_site_fract_y
_atom_site_fract_z
Zn1	Zn	-0.579871	-1.061760	0.947904
Zn2	Zn	-0.772782	-1.057672	0.796555
Zn3	Zn	-0.575964	-0.949646	0.742750
Zn4	Zn	-0.718763	-0.918192	0.927163
O5	O	-0.661845	-0.996818	0.853593
O6	O	-0.629704	-1.166511	0.959025
O7	O	-0.767646	-1.054795	0.648900
O8	O	-0.435987	-0.979393	0.756126
O9	O	-0.771435	-1.163508	0.847830
O10	O	-0.438857	-1.061763	0.906853
O11	O	-0.623045	-0.975429	0.609369
O12	O	-0.570664	-0.840180	0.736015
O13	O	-0.679366	-0.925784	1.070432
O14	O	-0.675578	-0.817071	0.871502
O15	O	-0.577323	-1.031263	1.085671
O16	O	-0.906112	-1.024296	0.827718
O17	O	-0.866424	-0.921820	0.923675
C18	C	-0.616836	-0.801324	0.795670
C19	C	-0.597601	-0.717687	0.770916
C20	C	-0.515755	-0.611815	0.665575
C21	C	-0.533835	-0.690403	0.688844
C22	C	-0.643318	-0.666386	0.829750
C23	C	-0.625251	-0.587793	0.806491
C24	C	-0.561468	-0.560514	0.724403
C25	C	-0.670964	-0.536493	0.865318
C26	C	-0.652895	-0.457908	0.842063
C27	C	-0.589112	-0.430622	0.759981
C28	C	-0.543398	-0.481929	0.701148
C29	C	-0.734741	-0.563774	0.947410
C30	C	-0.780454	-0.512474	1.006238
C31	C	-0.762391	-0.433887	0.982979
C32	C	-0.698608	-0.406601	0.900897
C33	C	-0.808104	-0.382580	1.041812
C34	C	-0.790034	-0.303995	1.018557
C35	C	-0.680538	-0.328016	0.877642
C36	C	-0.922699	-0.969220	0.879312
C37	C	-1.034304	-0.957479	0.890369
C38	C	-1.219017	-0.990853	0.859301
C39	C	-1.103668	-1.002989	0.847873
C40	C	-0.399975	-1.024542	0.827801
C41	C	-0.288381	-1.036357	0.816810
C42	C	-0.622755	-0.975471	1.115505
C43	C	-0.606097	-0.966374	1.227116
C44	C	-0.707022	-0.193076	0.911729
C45	C	-0.726251	-0.276716	0.936469
C46	C	-0.700721	-1.018132	0.592706
C47	C	-0.717129	-1.027405	0.481110
C48	C	-0.670216	-1.001588	1.296435
C49	C	-0.653001	-0.992187	1.411792
H50	H	-0.463817	-0.589603	0.598731
H51	H	-0.491460	-0.459717	0.634304
C52	C	-1.215021	-0.856031	0.873532
C53	C	-1.254113	-0.926130	0.919836
H54	H	-1.236681	-0.816075	0.910911
H55	H	-1.239757	-0.848768	0.804503
H56	H	-1.142109	-0.855706	0.873795
H57	H	-1.327026	-0.926457	0.919566
H58	H	-1.229382	-0.933395	0.988883
H59	H	-1.077663	-1.050938	0.803037
C60	C	-0.469737	-0.970901	1.416692
C61	C	-0.561682	-0.942089	1.446952
H62	H	-0.413363	-0.939975	1.438407
H63	H	-0.469328	-0.970640	1.343791
H64	H	-0.464155	-1.021626	1.447372
H65	H	-0.567267	-0.891366	1.416265
H66	H	-0.562091	-0.942342	1.519867
C67	C	-0.872091	-1.033117	1.379416
C68	C	-0.808453	-1.077502	1.445960
H69	H	-0.928472	-1.064045	1.357722
H70	H	-0.834097	-1.012253	1.320982
H71	H	-0.896877	-0.992957	1.414422
H72	H	-0.783661	-1.117659	1.410951
H73	H	-0.846454	-1.098378	1.504403
H74	H	-1.060308	-0.909536	0.935215
H75	H	-0.827255	-0.262224	1.066463
H76	H	-0.538454	-0.929271	1.253172
C77	C	-0.886868	-0.480836	1.143192
C78	C	-0.850561	-0.542463	1.096468
H79	H	-0.930146	-0.499350	1.198900
H80	H	-0.924693	-0.449701	1.094084
H81	H	-0.830386	-0.451669	1.168294
H82	H	-0.907044	-0.571626	1.071359
H83	H	-0.812736	-0.573610	1.145585
C84	C	-1.192909	-1.070227	0.673261
C85	C	-1.253281	-1.101079	0.756276
H86	H	-1.171249	-1.110185	0.635886
H87	H	-1.134451	-1.043259	0.698443
H88	H	-1.232095	-1.036321	0.629145
H89	H	-1.214093	-1.134980	0.800396
H90	H	-1.311749	-1.128059	0.731094
C91	C	-0.651146	-0.322818	0.695660
C92	C	-0.610428	-0.298017	0.787410
H93	H	-0.607859	-0.304298	0.639962
H94	H	-0.717821	-0.304016	0.683700
H95	H	-0.655355	-0.376963	0.701089
H96	H	-0.606225	-0.243871	0.781984
H97	H	-0.543734	-0.316815	0.799372
C98	C	-0.423809	-0.706250	0.547195
C99	C	-0.483600	-0.746794	0.624159
H100	H	-0.392805	-0.741065	0.507259
H101	H	-0.371882	-0.676096	0.578159
H102	H	-0.466198	-0.674103	0.503960
H103	H	-0.441210	-0.778938	0.667398
H104	H	-0.535534	-0.776962	0.593193
C105	C	-0.825166	-1.007291	1.194725
C106	C	-0.761534	-1.051680	1.261271
H107	H	-0.881545	-1.038217	1.173024
H108	H	-0.787166	-0.986425	1.136297
H109	H	-0.849954	-0.967134	1.229733
H110	H	-0.736739	-1.091835	1.226261
H111	H	-0.799539	-1.072559	1.319709
H112	H	-0.574396	-0.366633	0.741053
H113	H	-0.695247	-0.688608	0.896588
H114	H	-0.749444	-0.627764	0.966347
H115	H	-0.860028	-0.404803	1.108654
