data_functionalizedCrystal
_audit_creation_method	'MofGen! by Chris Wilmer'
_symmetry_space_group_name_H-M	'P1'
_symmetry_Int_Tables_number	1
_symmetry_cell_setting	triclinic
loop_
_symmetry_equiv_pos_as_xyz
  x,y,z
_cell_length_a	19.902436
_cell_length_b	21.606444
_cell_length_c	21.606444
_cell_angle_alpha	59.998659
_cell_angle_beta	90.002955
_cell_angle_gamma	59.998796
loop_
_atom_site_label
_atom_site_type_symbol
_atom_site_fract_x
_atom_site_fract_y
_atom_site_fract_z
Zr1	Zr	0.647344	0.677377	-0.081178
O2	O	0.540051	0.806511	-0.180013
O3	O	0.680231	0.548255	-0.050879
O4	O	0.680229	0.677378	-0.180002
O5	O	0.540059	0.677383	0.050964
O6	O	0.790808	0.677366	-0.179994
O7	O	0.540053	0.677388	-0.050890
O8	O	0.790811	0.446388	0.050984
O9	O	0.540056	0.908361	-0.180014
O10	O	0.776785	0.601352	-0.037951
O11	O	0.694266	0.601357	0.038055
O12	O	0.694263	0.753383	-0.113971
O13	O	0.611744	0.753389	-0.037965
Zr14	Zr	0.823713	0.677351	0.081281
Zr15	Zr	0.823704	0.677358	-0.081165
Zr16	Zr	0.647353	0.677370	0.081268
Zr17	Zr	0.647350	0.839817	-0.081179
Zr18	Zr	0.823706	0.514912	0.081282
O19	O	0.790826	0.806474	0.050982
O20	O	0.790813	0.806484	-0.179995
O21	O	0.540064	0.806501	0.050963
O22	O	0.931005	0.548218	0.180116
O23	O	0.930993	0.548227	-0.050860
O24	O	0.680244	0.548245	0.180098
O25	O	0.930998	0.677345	-0.050861
O26	O	0.790828	0.677350	0.180105
O27	O	0.680249	0.677362	0.180097
O28	O	0.931004	0.677341	0.050993
O29	O	0.680239	0.908346	-0.180004
O30	O	0.790818	0.446382	0.180106
O31	O	0.931001	0.446367	0.180117
O32	O	0.930994	0.446373	0.050994
O33	O	0.540063	0.908356	-0.050891
O34	O	0.680246	0.908340	-0.050881
O35	O	0.776793	0.601345	0.114074
O36	O	0.859313	0.601339	0.038067
O37	O	0.776791	0.753371	-0.037952
O38	O	0.694272	0.753377	0.038054
C39	C	0.735520	0.474177	0.000053
C40	C	0.735517	0.405217	0.000053
C41	C	0.514928	0.677388	0.000035
C42	C	0.440059	0.677396	0.000029
C43	C	0.778615	-0.018094	-0.039623
C44	C	0.778609	0.046706	-0.039626
C45	C	0.735532	0.079106	0.000049
C46	C	0.692451	0.046709	0.039723
C47	C	0.692453	-0.018086	0.039721
C48	C	0.692443	0.308020	0.039730
C49	C	0.692446	0.372817	0.039731
C50	C	0.778599	0.372812	-0.039617
C51	C	0.778600	0.308017	-0.039619
C52	C	0.735516	0.275628	0.000052
C53	C	0.735522	0.205366	0.000054
C54	C	0.735530	0.149363	0.000052
C55	C	0.168057	0.677353	0.000059
C56	C	0.144491	0.773258	-0.047666
C57	C	0.222329	0.773318	-0.047931
C58	C	0.303000	0.677375	0.000044
C59	C	0.300585	0.629750	-0.034923
C60	C	0.222357	0.630363	-0.035276
C61	C	0.223351	0.628388	0.082772
C62	C	0.300272	0.630190	0.082645
C63	C	0.379267	0.677382	0.000036
C64	C	0.091792	0.677343	0.000064
C65	C	0.956128	0.677340	0.000068
C66	C	1.030998	0.677332	0.000074
C67	C	0.735517	0.677373	-0.203143
C68	C	0.735513	0.677376	-0.272106
C69	C	0.735537	0.880551	0.000050
C70	C	0.735540	0.949511	0.000050
C71	C	0.692438	0.756734	-0.344186
C72	C	0.692445	0.756732	-0.408981
C73	C	0.735523	0.677370	-0.401694
C74	C	0.778605	0.598006	-0.329606
C75	C	0.778602	0.598009	-0.264813
C76	C	0.778618	0.597990	-0.590909
C77	C	0.778615	0.597993	-0.655710
C78	C	0.692460	0.756713	-0.735077
C79	C	0.692458	0.756717	-0.670284
C80	C	0.735542	0.677353	-0.598202
C81	C	0.735535	0.677356	-0.527944
C82	C	0.735526	0.677366	-0.471950
C83	C	0.735540	0.677355	0.203246
C84	C	0.735543	0.677352	0.272208
C85	C	0.956120	0.474153	0.000069
C86	C	1.030987	0.405185	0.000075
C87	C	0.735531	0.474168	0.203247
C88	C	0.735532	0.405206	0.272210
C89	C	0.956131	0.474145	0.203264
C90	C	1.031002	0.405174	0.272232
C91	C	0.514926	0.880584	-0.203161
C92	C	0.440055	0.949555	-0.272129
C93	C	0.514937	0.880575	0.000034
C94	C	0.440070	0.949543	0.000028
C95	C	0.735526	0.880560	-0.203144
C96	C	0.735525	0.949523	-0.272107
C97	C	1.023066	0.372804	-0.039610
C98	C	1.093405	0.308010	-0.039620
C99	C	1.171663	0.275595	0.000061
C100	C	1.179582	0.307983	0.039747
C101	C	1.109244	0.372780	0.039752
C102	C	0.778611	0.372814	0.344283
C103	C	0.778609	0.308025	0.409087
C104	C	0.735532	0.275625	0.401816
C105	C	0.692448	0.308023	0.329735
C106	C	0.692446	0.372815	0.264933
C107	C	1.109244	0.372781	0.264946
C108	C	1.179599	0.307985	0.329743
C109	C	1.171711	0.275578	0.401825
C110	C	1.093461	0.307976	0.409110
C111	C	1.023108	0.372776	0.344314
C112	C	0.361813	0.981955	-0.264843
C113	C	0.291458	1.046772	-0.329640
C114	C	0.299345	1.079182	-0.401722
C115	C	0.377595	1.046779	-0.409007
C116	C	0.447949	0.981968	-0.344211
C117	C	0.447990	0.981931	0.039706
C118	C	0.377652	1.046743	0.039698
C119	C	0.299394	1.079161	0.000015
C120	C	0.291475	1.046769	-0.039668
C121	C	0.361812	0.981963	-0.039664
C122	C	0.778610	0.981902	-0.264812
C123	C	0.778625	1.046691	-0.329603
C124	C	0.735550	1.079104	-0.401690
C125	C	0.692463	1.046718	-0.408983
C126	C	0.692453	0.981926	-0.344193
H127	H	0.813697	-0.044474	-0.071927
H128	H	0.511655	0.955589	-0.350153
H129	H	0.735564	1.131863	-0.454440
Cl130	Cl	0.638294	0.087443	0.089597
H131	H	0.657381	0.821335	-0.793776
H132	H	1.086941	0.281647	-0.071937
Cl133	Cl	0.638288	0.856489	-0.679450
Cl134	Cl	0.638274	0.941237	-0.353377
Cl135	Cl	0.638289	0.413524	0.174329
Cl136	Cl	0.832780	0.267306	0.499694
H137	H	0.657392	1.073119	-0.467685
Cl138	Cl	0.193086	1.087529	-0.089547
Cl139	Cl	1.119216	0.413474	0.089653
H140	H	0.813683	0.073082	-0.071932
H141	H	1.115682	0.399158	0.206258
Cl142	Cl	1.277971	0.267219	0.089631
H143	H	0.657376	0.281634	0.323826
Cl144	Cl	0.546364	0.941196	0.089595
H145	H	0.813690	0.399187	0.350218
H146	H	0.299898	0.664916	0.108767
Cl147	Cl	1.083559	0.267225	0.499734
H148	H	1.229005	0.222813	0.454580
Cl149	Cl	0.832777	0.498216	-0.646545
H150	H	0.357731	0.560194	0.121197
Cl151	Cl	0.832790	1.087397	-0.320416
Cl152	Cl	0.638285	0.267306	0.089607
H153	H	0.735541	0.222867	0.454589
Cl154	Cl	1.277960	0.267264	0.320567
Cl155	Cl	0.351841	0.941249	-0.089544
H156	H	0.959402	0.399142	0.350257
H157	H	0.355375	0.955570	-0.206156
Cl158	Cl	0.832746	0.498218	-0.500300
Cl159	Cl	0.387626	1.087446	0.089593
Cl160	Cl	0.193097	1.087490	-0.320464
Cl161	Cl	0.302973	0.680820	-0.128002
Cl162	Cl	0.210891	1.160658	-0.483174
H163	H	0.242127	1.131930	0.000018
H164	H	0.657363	0.399198	0.072038
H165	H	0.384008	1.073176	-0.467704
Cl166	Cl	0.832770	0.941167	-0.174197
Cl167	Cl	0.220524	0.831008	-0.011722
Cl168	Cl	0.832753	0.267292	-0.089500
H169	H	0.657375	-0.044459	0.072025
Cl170	Cl	0.084020	0.831379	-0.011644
Cl171	Cl	0.832758	0.413537	-0.089494
H172	H	0.104578	0.810716	-0.108313
H173	H	0.220552	0.810914	-0.108945
H174	H	1.228930	0.222832	0.000051
H175	H	0.185812	0.664211	-0.096141
H176	H	0.241704	0.559999	-0.002762
Cl177	Cl	0.167290	0.675759	0.127874
Cl178	Cl	0.388297	0.520835	0.016161
Cl179	Cl	0.638277	0.856509	-0.353356
Cl180	Cl	0.638288	0.856501	-0.499595
Cl181	Cl	0.832763	0.498236	-0.320445
Cl182	Cl	0.254115	0.519308	0.137928
H183	H	0.813678	0.533387	-0.206122
H184	H	0.959351	0.399196	-0.071932
