data_functionalizedCrystal
_audit_creation_method	'MofGen! by Chris Wilmer'
_symmetry_space_group_name_H-M	'P1'
_symmetry_Int_Tables_number	1
_symmetry_cell_setting	triclinic
loop_
_symmetry_equiv_pos_as_xyz
  x,y,z
_cell_length_a	10.685980
_cell_length_b	13.032868
_cell_length_c	13.034059
_cell_angle_alpha	74.935080
_cell_angle_beta	77.854058
_cell_angle_gamma	77.919775
loop_
_atom_site_label
_atom_site_type_symbol
_atom_site_fract_x
_atom_site_fract_y
_atom_site_fract_z
Zn1	Zn	1.988644	0.385976	-0.766198
Zn2	Zn	2.321978	0.719309	-0.432864
Zn3	Zn	2.655311	1.052643	-0.099531
Zn4	Zn	1.939787	0.544048	-0.608423
Zn5	Zn	2.273120	0.877381	-0.275089
Zn6	Zn	2.606454	1.210714	0.058244
Zn7	Zn	1.749366	0.377229	-0.575166
Zn8	Zn	2.082699	0.710562	-0.241833
Zn9	Zn	2.416032	1.043896	0.091501
Zn10	Zn	1.749647	0.576974	-0.775190
Zn11	Zn	2.082980	0.910307	-0.441857
Zn12	Zn	2.416314	1.243640	-0.108524
O13	O	1.856861	0.471057	-0.681244
O14	O	2.190194	0.804390	-0.347911
O15	O	2.523528	1.137723	-0.014577
O16	O	2.161876	0.396826	-0.755423
O17	O	2.495210	0.730159	-0.422090
O18	O	2.828543	1.063492	-0.088756
O19	O	1.893962	0.504478	-0.454271
O20	O	2.227296	0.837812	-0.120937
O21	O	2.560629	1.171145	0.212396
O22	O	1.801436	0.228642	-0.582825
O23	O	2.134769	0.561975	-0.249492
O24	O	2.468102	0.895308	0.083842
O25	O	2.125981	0.512960	-0.639506
O26	O	2.459315	0.846293	-0.306173
O27	O	2.792648	1.179627	0.027160
O28	O	1.977233	0.235068	-0.723175
O29	O	2.310566	0.568402	-0.389842
O30	O	2.643899	0.901735	-0.056509
O31	O	1.754061	0.381917	-0.429837
O32	O	2.087394	0.715251	-0.096504
O33	O	2.420727	1.048584	0.236830
O34	O	1.569690	0.413844	-0.591545
O35	O	1.903023	0.747178	-0.258212
O36	O	2.236356	1.080511	0.075122
O37	O	1.801915	0.569078	-0.923738
O38	O	2.135249	0.902411	-0.590404
O39	O	2.468582	1.235745	-0.257071
O40	O	1.569896	0.560596	-0.738502
O41	O	1.903230	0.893929	-0.405169
O42	O	2.236563	1.227263	-0.071835
O43	O	1.977505	0.428753	-0.917131
O44	O	2.310839	0.762086	-0.583798
O45	O	2.644172	1.095420	-0.250464
O46	O	1.894235	0.698163	-0.648226
O47	O	2.227569	1.031496	-0.314893
O48	O	2.560902	1.364829	0.018440
O49	O	1.754540	0.722353	-0.770750
O50	O	2.087874	1.055687	-0.437416
O51	O	2.421207	1.389020	-0.104083
C52	C	1.523195	0.489845	-0.662391
C53	C	1.856529	0.823178	-0.329058
C54	C	2.189862	1.156512	0.004275
C55	C	1.380452	0.497911	-0.654354
C56	C	1.713785	0.831245	-0.321021
C57	C	2.047118	1.164578	0.012312
C58	C	1.819155	0.749087	-0.714098
C59	C	2.152488	1.082420	-0.380765
C60	C	2.485821	1.415753	-0.047431
C61	C	1.803146	0.868027	-0.728195
C62	C	2.136480	1.201360	-0.394862
C63	C	2.469813	1.534693	-0.061529
C64	C	1.865203	0.909052	-0.673911
C65	C	2.198537	1.242385	-0.340577
C66	C	2.531870	1.575719	-0.007244
C67	C	1.848659	1.031982	-0.688480
C68	C	2.181993	1.365316	-0.355146
C69	C	2.515326	1.698649	-0.021813
C70	C	2.191829	0.452196	-0.700171
C71	C	2.525163	0.785529	-0.366838
C72	C	2.858496	1.118863	-0.033505
C73	C	2.334573	0.444159	-0.708237
C74	C	2.667906	0.777492	-0.374904
C75	C	3.001240	1.110825	-0.041570
C76	C	1.895192	0.503564	-0.960346
C77	C	2.228525	0.836897	-0.627013
C78	C	2.561858	1.170231	-0.293679
C79	C	1.911526	0.517417	-1.079283
C80	C	2.244859	0.850750	-0.745949
C81	C	2.578193	1.184083	-0.412616
C82	C	1.894709	1.191943	-0.648273
C83	C	2.228042	1.525276	-0.314940
C84	C	2.561375	1.858609	0.018393
C85	C	1.910725	1.073004	-0.634187
C86	C	2.244058	1.406337	-0.300854
C87	C	2.577392	1.739670	0.032479
C88	C	1.818764	0.438594	-0.403223
C89	C	2.152097	0.771928	-0.069890
C90	C	2.485430	1.105261	0.263444
C91	C	1.802719	0.424426	-0.284266
C92	C	2.136052	0.757759	0.049068
C93	C	2.469386	1.091093	0.382401
C94	C	1.865409	0.478239	-0.243246
C95	C	2.198742	0.811572	0.090087
C96	C	2.532075	1.144905	0.423420
C97	C	1.848827	0.463597	-0.120298
C98	C	2.182161	0.796930	0.213036
C99	C	2.515494	1.130263	0.546369
H100	H	1.310519	0.550105	-0.602066
H101	H	1.643853	0.883438	-0.268733
H102	H	1.977186	1.216771	0.064601
H103	H	1.404498	0.391961	-0.760514
H104	H	1.737831	0.725294	-0.427181
H105	H	2.071165	1.058627	-0.093848
H106	H	1.782872	0.406685	-0.064397
H107	H	2.116205	0.740019	0.268937
H108	H	2.449539	1.073352	0.602270
Br109	Br	2.021442	0.612289	-0.172444
Br110	Br	2.354775	0.945622	0.160889
Br111	Br	2.688108	1.278956	0.494223
Br112	Br	1.974188	0.815916	-0.578479
Br113	Br	2.307521	1.149250	-0.245145
Br114	Br	2.640855	1.482583	0.088188
Br115	Br	1.739696	1.125116	-0.783936
Br116	Br	2.073029	1.458449	-0.450603
Br117	Br	2.406362	1.791782	-0.117269
H118	H	1.976112	1.017122	-0.576927
H119	H	2.309446	1.350456	-0.243593
H120	H	2.642779	1.683789	0.089740
H121	H	1.737775	0.923913	-0.785461
H122	H	2.071108	1.257246	-0.452127
H123	H	2.404441	1.590579	-0.118794
H124	H	1.931349	0.535155	-0.299151
H125	H	2.264682	0.868488	0.034183
H126	H	2.598015	1.201822	0.367516
H127	H	1.736768	0.367519	-0.228362
H128	H	2.070102	0.700852	0.104972
H129	H	2.403435	1.034185	0.438305
