data_functionalizedCrystal
_audit_creation_method	'MofGen! by Chris Wilmer'
_symmetry_space_group_name_H-M	'P1'
_symmetry_Int_Tables_number	1
_symmetry_cell_setting	triclinic
loop_
_symmetry_equiv_pos_as_xyz
  x,y,z
_cell_length_a	19.188930
_cell_length_b	14.971486
_cell_length_c	18.266242
_cell_angle_alpha	90.001879
_cell_angle_beta	89.979776
_cell_angle_gamma	96.620546
loop_
_atom_site_label
_atom_site_type_symbol
_atom_site_fract_x
_atom_site_fract_y
_atom_site_fract_z
O1	O	0.926507	-0.111664	-0.061117
O2	O	1.259840	0.221669	0.272217
O3	O	1.593173	0.555002	0.605550
O4	O	0.723244	-0.126697	-0.061067
O5	O	1.056577	0.206637	0.272267
O6	O	1.389910	0.539970	0.605600
O7	O	0.830323	0.011048	-0.061088
O8	O	1.163656	0.344382	0.272246
O9	O	1.496990	0.677715	0.605579
O10	O	0.819427	-0.249409	-0.061096
O11	O	1.152760	0.083924	0.272238
O12	O	1.486094	0.417257	0.605571
O13	O	0.830309	0.011044	0.060674
O14	O	1.163643	0.344377	0.394008
O15	O	1.496976	0.677711	0.727341
O16	O	0.723230	-0.126701	0.060695
O17	O	1.056563	0.206632	0.394029
O18	O	1.389896	0.539966	0.727362
O19	O	0.926493	-0.111669	0.060645
O20	O	1.259826	0.221665	0.393979
O21	O	1.593159	0.554998	0.727312
Zn22	Zn	0.824859	-0.119186	0.080003
Zn23	Zn	1.158192	0.214148	0.413336
Zn24	Zn	1.491526	0.547481	0.746669
Zn25	Zn	0.824877	-0.119180	-0.080424
Zn26	Zn	1.158211	0.214154	0.252909
Zn27	Zn	1.491544	0.547487	0.586243
O28	O	0.819413	-0.249414	0.060666
O29	O	1.152747	0.083920	0.394000
O30	O	1.486080	0.417253	0.727333
C31	C	0.697224	-0.126212	-0.000179
C32	C	1.030557	0.207121	0.333154
C33	C	1.363891	0.540455	0.666488
C34	C	0.619715	-0.124751	-0.000160
C35	C	0.953048	0.208583	0.333173
C36	C	1.286382	0.541916	0.666507
N37	N	0.824852	-0.119189	0.189490
N38	N	1.158185	0.214144	0.522823
N39	N	1.491518	0.547478	0.856156
C40	C	0.829829	0.044368	-0.000207
C41	C	1.163162	0.377702	0.333126
C42	C	1.496496	0.711035	0.666460
C43	C	0.828369	0.143658	-0.000207
C44	C	1.161702	0.476991	0.333126
C45	C	1.495035	0.810324	0.666459
C46	C	0.575051	-0.205575	-0.000174
C47	C	0.908384	0.127758	0.333160
C48	C	1.241718	0.461092	0.666493
C49	C	0.502223	-0.204202	-0.000182
C50	C	0.835556	0.129131	0.333152
C51	C	1.168890	0.462464	0.666485
C52	C	0.474062	-0.122000	-0.000191
C53	C	0.807395	0.211333	0.333143
C54	C	1.140728	0.544666	0.666476
C55	C	0.518735	-0.041165	-0.000173
C56	C	0.852069	0.292168	0.333161
C57	C	1.185402	0.625501	0.666494
C58	C	0.591562	-0.042541	-0.000157
C59	C	0.924895	0.290793	0.333176
C60	C	1.258229	0.624126	0.666509
N61	N	0.365884	-0.059166	-0.041659
N62	N	0.699217	0.274167	0.291674
N63	N	1.032551	0.607501	0.625008
N64	N	0.296701	-0.057865	-0.041675
N65	N	0.630035	0.275468	0.291658
N66	N	0.963368	0.608802	0.624991
C67	C	0.254640	-0.117852	-0.000235
C68	C	0.587973	0.215481	0.333098
C69	C	0.921306	0.548815	0.666431
N70	N	0.284373	-0.179203	0.041212
N71	N	0.617707	0.154130	0.374546
N72	N	0.951040	0.487464	0.707879
N73	N	0.353562	-0.180506	0.041225
N74	N	0.686895	0.152827	0.374559
N75	N	1.020229	0.486160	0.707892
C76	C	0.395094	-0.120500	-0.000207
C77	C	0.728428	0.212833	0.333127
C78	C	1.061761	0.546166	0.666460
C79	C	0.131007	-0.197193	-0.000257
C80	C	0.464340	0.136140	0.333077
C81	C	0.797673	0.469473	0.666410
C82	C	0.058178	-0.195817	-0.000260
C83	C	0.391511	0.137516	0.333073
C84	C	0.724844	0.470850	0.666406
C85	C	0.074692	-0.032778	-0.000258
C86	C	0.408025	0.300555	0.333075
C87	C	0.741358	0.633889	0.666408
C88	C	0.147519	-0.034157	-0.000248
C89	C	0.480853	0.299177	0.333086
C90	C	0.814186	0.632510	0.666419
C91	C	0.175672	-0.116367	-0.000250
C92	C	0.509005	0.216967	0.333083
C93	C	0.842339	0.550300	0.666416
C94	C	0.952512	-0.112153	-0.000244
C95	C	1.285846	0.221180	0.333090
C96	C	1.619179	0.554513	0.666423
C97	C	1.030021	-0.113615	-0.000268
C98	C	1.363355	0.219719	0.333065
C99	C	1.696688	0.553052	0.666399
C100	C	0.819907	-0.282734	-0.000216
C101	C	1.153241	0.050600	0.333117
C102	C	1.486574	0.383933	0.666451
C103	C	0.821368	-0.382023	-0.000221
C104	C	1.154701	-0.048690	0.333113
C105	C	1.488034	0.284644	0.666446
C106	C	0.891275	0.201215	-0.000222
C107	C	1.224608	0.534549	0.333111
C108	C	1.557942	0.867882	0.666444
C109	C	0.889899	0.294507	-0.000229
C110	C	1.223232	0.627841	0.333104
C111	C	1.556565	0.961174	0.666437
C112	C	0.825615	0.330240	-0.000216
C113	C	1.158949	0.663574	0.333117
C114	C	1.492282	0.996907	0.666451
C115	C	0.762704	0.272675	-0.000203
C116	C	1.096038	0.606009	0.333130
C117	C	1.429371	0.939342	0.666463
C118	C	0.764081	0.179385	-0.000201
C119	C	1.097415	0.512718	0.333132
C120	C	1.430748	0.846052	0.666465
C121	C	0.759839	0.467123	-0.000205
C122	C	1.093172	0.800456	0.333128
C123	C	1.426505	1.133789	0.666461
C124	C	0.758461	0.560419	-0.000206
C125	C	1.091795	0.893753	0.333128
C126	C	1.425128	1.227086	0.666461
C127	C	0.885656	0.582245	-0.000233
C128	C	1.218989	0.915579	0.333100
C129	C	1.552323	1.248912	0.666434
C130	C	0.887033	0.488955	-0.000231
C131	C	1.220366	0.822288	0.333102
C132	C	1.553700	1.155622	0.666436
C133	C	0.824122	0.431396	-0.000217
C134	C	1.157455	0.764730	0.333116
C135	C	1.490788	1.098063	0.666450
N136	N	0.824890	-0.119169	-0.189911
N137	N	1.158223	0.214164	0.143422
N138	N	1.491557	0.547497	0.476756
C139	C	0.867278	-0.173276	0.771753
C140	C	1.200612	0.160057	1.105087
C141	C	1.533945	0.493390	1.438420
C142	C	0.867271	-0.173285	0.695108
C143	C	1.200604	0.160048	1.028442
C144	C	1.533938	0.493381	1.361775
C145	C	0.824884	-0.119171	0.656802
C146	C	1.158217	0.214163	0.990135
C147	C	1.491550	0.547496	1.323469
C148	C	0.782487	-0.065060	0.695147
C149	C	1.115820	0.268273	1.028480
C150	C	1.449153	0.601607	1.361814
C151	C	0.782490	-0.065059	0.771791
C152	C	1.115823	0.268274	1.105124
C153	C	1.449157	0.601607	1.438457
N154	N	0.822940	-0.040819	0.536468
N155	N	1.156274	0.292514	0.869801
N156	N	1.489607	0.625847	1.203134
N157	N	0.822941	-0.040822	0.463660
N158	N	1.156275	0.292511	0.796993
N159	N	1.489608	0.625844	1.130326
C160	C	0.824870	-0.119171	0.425880
C161	C	1.158204	0.214163	0.759213
C162	C	1.491537	0.547496	1.092546
N163	N	0.826812	-0.197517	0.463659
N164	N	1.160145	0.135816	0.796992
N165	N	1.493478	0.469150	1.130325
N166	N	0.826815	-0.197513	0.536473
N167	N	1.160148	0.135821	0.869807
N168	N	1.493481	0.469154	1.203140
C169	C	0.824875	-0.119166	0.573695
C170	C	1.158208	0.214168	0.907029
C171	C	1.491542	0.547501	1.240362
C172	C	0.867253	-0.173292	0.304437
C173	C	1.200586	0.160041	0.637770
C174	C	1.533919	0.493374	0.971104
C175	C	0.867241	-0.173303	0.227791
C176	C	1.200574	0.160030	0.561124
C177	C	1.533907	0.493363	0.894457
C178	C	0.782460	-0.065070	0.227831
C179	C	1.115794	0.268264	0.561164
C180	C	1.449127	0.601597	0.894497
C181	C	0.782469	-0.065067	0.304476
C182	C	1.115802	0.268266	0.637809
C183	C	1.449135	0.601600	0.971142
C184	C	0.824869	-0.119177	0.342774
C185	C	1.158202	0.214156	0.676107
C186	C	1.491535	0.547490	1.009441
H187	H	0.597968	-0.272517	-0.000177
H188	H	0.931301	0.060816	0.333156
H189	H	1.264635	0.394150	0.666489
H190	H	0.627928	0.023278	-0.000146
H191	H	0.961261	0.356612	0.333187
H192	H	1.294595	0.689945	0.666520
H193	H	0.901802	-0.217339	0.802931
H194	H	1.235136	0.115995	1.136265
H195	H	1.568469	0.449328	1.469598
H196	H	0.747943	-0.021014	0.196643
H197	H	1.081277	0.312320	0.529976
H198	H	1.414610	0.645653	0.863309
Cl199	Cl	0.729198	0.002968	0.819987
Cl200	Cl	1.062531	0.336301	1.153320
Cl201	Cl	1.395865	0.669634	1.486653
Cl202	Cl	0.483334	0.062174	-0.000179
Cl203	Cl	0.816667	0.395507	0.333154
Cl204	Cl	1.150000	0.728841	0.666487
H205	H	0.183886	0.031659	-0.000240
H206	H	0.517219	0.364993	0.333093
H207	H	0.850552	0.698326	0.666426
H208	H	0.901788	-0.217350	0.663889
H209	H	1.235121	0.115984	0.997223
H210	H	1.568455	0.449317	1.330556
H211	H	0.465851	-0.270021	-0.000191
H212	H	0.799184	0.063312	0.333142
H213	H	1.132517	0.396646	0.666476
Cl214	Cl	0.166403	-0.300541	-0.000253
Cl215	Cl	0.499736	0.032792	0.333080
Cl216	Cl	0.833069	0.366126	0.666414
Cl217	Cl	0.681890	0.317597	-0.000196
Cl218	Cl	1.015224	0.650930	0.333138
Cl219	Cl	1.348557	0.984263	0.666471
Cl220	Cl	0.729180	0.002962	0.352672
Cl221	Cl	1.062514	0.336295	0.686005
Cl222	Cl	1.395847	0.669628	1.019339
H223	H	0.936881	0.629114	-0.000247
H224	H	1.270214	0.962448	0.333087
H225	H	1.603548	1.295781	0.666420
Cl226	Cl	0.002027	-0.297435	-0.000274
Cl227	Cl	0.335360	0.035899	0.333059
Cl228	Cl	0.668694	0.369232	0.666393
H229	H	0.708609	0.420260	-0.000196
H230	H	1.041943	0.753593	0.333138
H231	H	1.375276	1.086927	0.666471
Cl232	Cl	0.729196	0.002966	0.646992
Cl233	Cl	1.062530	0.336299	0.980325
Cl234	Cl	1.395863	0.669633	1.313659
H235	H	0.051764	0.034152	-0.000311
H236	H	0.385097	0.367486	0.333022
H237	H	0.718430	0.700819	0.666356
H238	H	0.706116	0.589510	-0.000183
H239	H	1.039450	0.922843	0.333150
H240	H	1.372783	1.256176	0.666484
H241	H	0.939378	0.459865	-0.000237
H242	H	1.272711	0.793198	0.333097
H243	H	1.606045	1.126531	0.666430
Cl244	Cl	0.972093	0.156304	-0.000231
Cl245	Cl	1.305426	0.489637	0.333102
Cl246	Cl	1.638760	0.822971	0.666435
Cl247	Cl	0.968985	0.366862	-0.000246
Cl248	Cl	1.302318	0.700196	0.333087
Cl249	Cl	1.635651	1.033529	0.666421
Cl250	Cl	0.920518	-0.241351	0.179596
Cl251	Cl	1.253851	0.091983	0.512930
Cl252	Cl	1.587185	0.425316	0.846263
Cl253	Cl	0.684996	0.107026	-0.000185
Cl254	Cl	1.018329	0.440359	0.333148
Cl255	Cl	1.351662	0.773693	0.666481
H256	H	0.901774	-0.217356	0.335621
H257	H	1.235107	0.115977	0.668954
H258	H	1.568441	0.449311	1.002288
