data_functionalizedCrystal
_audit_creation_method	'MofGen! by Chris Wilmer'
_symmetry_space_group_name_H-M	'P1'
_symmetry_Int_Tables_number	1
_symmetry_cell_setting	triclinic
loop_
_symmetry_equiv_pos_as_xyz
  x,y,z
_cell_length_a	14.971486
_cell_length_b	14.971494
_cell_length_c	13.448316
_cell_angle_alpha	90.001938
_cell_angle_beta	90.000121
_cell_angle_gamma	83.615843
loop_
_atom_site_label
_atom_site_type_symbol
_atom_site_fract_x
_atom_site_fract_y
_atom_site_fract_z
O1	O	1.186949	0.116561	0.082574
O2	O	1.686949	0.616561	0.582574
O3	O	0.926549	0.130519	0.082600
O4	O	1.426549	0.630519	0.582600
O5	O	1.063725	-0.006659	0.082584
O6	O	1.563725	0.493341	0.582584
O7	O	1.049774	0.253740	0.082590
O8	O	1.549774	0.753740	0.582590
O9	O	1.063711	-0.006661	-0.082800
O10	O	1.563711	0.493339	0.417200
O11	O	0.926536	0.130518	-0.082784
O12	O	1.426536	0.630518	0.417216
O13	O	1.186935	0.116559	-0.082810
O14	O	1.686935	0.616559	0.417190
Cu15	Cu	1.056734	0.123539	-0.097898
Cu16	Cu	1.556734	0.623539	0.402102
Cu17	Cu	1.056750	0.123540	0.097688
Cu18	Cu	1.556750	0.623540	0.597688
O19	O	1.049760	0.253738	-0.082794
O20	O	1.549760	0.753738	0.417206
C21	C	0.893218	0.129895	-0.000088
C22	C	1.393218	0.629895	0.499912
C23	C	0.793921	0.128024	-0.000078
C24	C	1.293921	0.628024	0.499922
C25	C	1.063093	-0.039985	-0.000106
C26	C	1.563093	0.460015	0.499894
C27	C	1.061219	-0.139281	-0.000102
C28	C	1.561219	0.360719	0.499898
C29	C	0.736698	0.208613	-0.000078
C30	C	1.236698	0.708613	0.499922
C31	C	0.643398	0.206850	-0.000092
C32	C	1.143398	0.706850	0.499908
C33	C	0.607323	0.124497	-0.000101
C34	C	1.107323	0.624497	0.499899
C35	C	0.664554	0.043902	-0.000104
C36	C	1.164554	0.543902	0.499896
C37	C	0.757851	0.045666	-0.000096
C38	C	1.257851	0.545666	0.499904
C39	C	0.470091	0.040231	-0.000118
C40	C	0.970091	0.540231	0.499882
C41	C	0.376787	0.038466	-0.000124
C42	C	0.876787	0.538466	0.499876
C43	C	0.355638	0.201415	-0.000114
C44	C	0.855638	0.701415	0.499886
C45	C	0.448936	0.203179	-0.000106
C46	C	0.948936	0.703179	0.499894
C47	C	0.506160	0.122583	-0.000108
C48	C	1.006160	0.622583	0.499892
C49	C	1.060348	-0.185925	0.090050
C50	C	1.560348	0.314075	0.590050
C51	C	1.058582	-0.279224	0.090052
C52	C	1.558582	0.220776	0.590052
C53	C	1.057693	-0.325879	-0.000100
C54	C	1.557693	0.174121	0.499900
C55	C	1.058561	-0.279228	-0.090259
C56	C	1.558561	0.220772	0.409741
C57	C	1.060321	-0.185929	-0.090259
C58	C	1.560321	0.314071	0.409741
C59	C	1.054895	-0.473691	-0.090252
C60	C	1.554895	0.026309	0.409748
C61	C	1.053137	-0.566996	-0.090252
C62	C	1.553137	-0.066996	0.409748
C63	C	1.053156	-0.566986	0.090059
C64	C	1.553156	-0.066986	0.590059
C65	C	1.054916	-0.473688	0.090059
C66	C	1.554916	0.026312	0.590059
C67	C	1.055786	-0.427043	-0.000100
C68	C	1.555786	0.072957	0.499900
C69	C	1.220267	0.117184	-0.000120
C70	C	1.720267	0.617184	0.499880
C71	C	1.319564	0.119055	-0.000123
C72	C	1.819564	0.619055	0.499877
C73	C	1.050392	0.287064	-0.000101
C74	C	1.550392	0.787064	0.499899
C75	C	1.052266	0.386360	-0.000100
C76	C	1.552266	0.886360	0.499900
N77	N	1.056729	0.123537	-0.235462
N78	N	1.556729	0.623537	0.264538
C79	C	1.111033	0.177878	-0.287503
C80	C	1.611033	0.677878	0.212497
C81	C	1.111045	0.177874	-0.391606
C82	C	1.611045	0.677874	0.108394
C83	C	1.056746	0.123534	-0.443667
C84	C	1.556746	0.623534	0.056333
C85	C	1.002440	0.069186	-0.391619
C86	C	1.502440	0.569186	0.108381
C87	C	1.002434	0.069186	-0.287517
C88	C	1.502434	0.569186	0.212483
C89	C	1.002454	0.069192	-0.608599
C90	C	1.502454	0.569192	-0.108599
C91	C	1.002459	0.069194	-0.712707
C92	C	1.502459	0.569194	-0.212707
C93	C	1.111064	0.177880	-0.712687
C94	C	1.611064	0.677880	-0.212687
C95	C	1.111059	0.177880	-0.608586
C96	C	1.611059	0.677880	-0.108586
C97	C	1.056751	0.123534	-0.556545
C98	C	1.556751	0.623534	-0.056545
N99	N	1.056762	0.123535	0.235252
N100	N	1.556762	0.623535	0.735252
H101	H	0.766062	0.275674	-0.000070
H102	H	1.266062	0.775674	0.499930
H103	H	1.057831	-0.317220	-0.163662
H104	H	1.557831	0.182780	0.336338
C105	C	1.057706	-0.330539	0.189226
C106	C	1.557706	0.169461	0.689226
N107	N	1.057076	-0.369193	0.263929
N108	N	1.557076	0.130807	0.763929
C109	C	1.052194	-0.618295	0.189236
C110	C	1.552194	-0.118295	0.689236
N111	N	1.051471	-0.656946	0.263932
N112	N	1.551471	-0.156946	0.763932
H113	H	1.061077	-0.147947	0.163463
H114	H	1.561077	0.352053	0.663463
H115	H	0.958232	0.024937	-0.566230
H116	H	1.458232	0.524937	-0.066230
C117	C	0.533036	-0.048429	-0.000116
C118	C	1.033036	0.451571	0.499884
N119	N	0.580445	-0.115207	-0.000107
N120	N	1.080445	0.384793	0.499893
H121	H	1.055647	-0.435705	0.163468
H122	H	1.555647	0.064295	0.663468
H123	H	0.804442	-0.019958	-0.000096
H124	H	1.304442	0.480042	0.499904
H125	H	0.635174	-0.023152	-0.000125
H126	H	1.135174	0.476848	0.499875
C127	C	0.580456	0.295504	-0.000110
C128	C	1.080456	0.795504	0.499890
N129	N	0.533049	0.362283	-0.000130
N130	N	1.033049	0.862283	0.499870
C131	C	1.052152	-0.618313	-0.189423
C132	C	1.552152	-0.118313	0.310577
N133	N	1.051409	-0.656964	-0.264120
N134	N	1.551409	-0.156964	0.235880
C135	C	0.942709	0.009413	-0.448889
C136	C	1.442709	0.509413	0.051111
N137	N	0.897715	-0.035606	-0.492025
N138	N	1.397715	0.464394	0.007975
C139	C	1.170808	0.237658	-0.769934
C140	C	1.670808	0.737658	-0.269934
N141	N	1.215803	0.282682	-0.813057
N142	N	1.715803	0.782682	-0.313057
H143	H	1.155266	0.222122	-0.433973
H144	H	1.655266	0.722122	0.066027
C145	C	1.061281	-0.134622	-0.189433
C146	C	1.561281	0.365378	0.310567
N147	N	1.062002	-0.095978	-0.264134
N148	N	1.562002	0.404022	0.235866
H149	H	0.478304	0.270238	-0.000090
H150	H	0.978304	0.770238	0.499910
C151	C	0.292690	0.290071	-0.000118
C152	C	0.792690	0.790071	0.499882
N153	N	0.245274	0.356844	-0.000117
N154	N	0.745274	0.856844	0.499883
C155	C	1.055855	-0.422385	-0.189432
C156	C	1.555855	0.077615	0.310568
N157	N	1.056584	-0.383742	-0.264133
N158	N	1.556584	0.116258	0.235867
H159	H	1.155244	0.222134	-0.245122
H160	H	1.655244	0.722134	0.254878
C161	C	0.942740	0.009404	-0.769972
C162	C	1.442740	0.509404	-0.269972
N163	N	0.897763	-0.035635	-0.813104
N164	N	1.397763	0.464365	-0.313104
C165	C	1.170790	0.237657	-0.551321
C166	C	1.670790	0.737657	-0.051321
N167	N	1.215783	0.282679	-0.508189
N168	N	1.715783	0.782679	-0.008189
C169	C	0.337107	-0.052126	-0.000135
C170	C	0.837107	0.447874	0.499865
N171	N	0.307220	-0.120362	-0.000142
N172	N	0.807220	0.379638	0.499858
C173	C	0.942694	0.009409	-0.230273
C174	C	1.442694	0.509409	0.269727
N175	N	0.897697	-0.035619	-0.187158
N176	N	1.397697	0.464381	0.312842
