data_functionalizedCrystal
_audit_creation_method	'MofGen! by Chris Wilmer'
_symmetry_space_group_name_H-M	'P1'
_symmetry_Int_Tables_number	1
_symmetry_cell_setting	triclinic
loop_
_symmetry_equiv_pos_as_xyz
  x,y,z
_cell_length_a	13.897449
_cell_length_b	13.897448
_cell_length_c	11.169409
_cell_angle_alpha	89.964424
_cell_angle_beta	89.977985
_cell_angle_gamma	90.018972
loop_
_atom_site_label
_atom_site_type_symbol
_atom_site_fract_x
_atom_site_fract_y
_atom_site_fract_z
Zn1	Zn	1.474715	-0.383904	-0.678586
Zn2	Zn	1.474605	-0.545240	-0.477891
Zn3	Zn	1.313400	-0.383964	-0.477913
Zn4	Zn	1.313386	-0.545162	-0.678529
O5	O	1.394027	-0.464567	-0.578230
O6	O	1.609682	-0.405313	-0.651978
O7	O	1.453181	-0.523903	-0.309944
O8	O	1.334851	-0.248974	-0.504565
O9	O	1.609601	-0.523845	-0.504529
O10	O	1.453368	-0.248930	-0.651999
O11	O	1.334745	-0.405415	-0.309960
O12	O	1.178417	-0.405340	-0.504510
O13	O	1.334826	-0.523713	-0.846486
O14	O	1.178406	-0.523772	-0.651901
O15	O	1.453354	-0.405238	-0.846528
O16	O	1.453167	-0.680211	-0.504474
O17	O	1.334720	-0.680154	-0.651881
C18	C	1.143412	-0.464554	-0.578202
C19	C	1.036198	-0.464572	-0.578219
C20	C	0.839903	-0.464576	-0.578251
C21	C	0.949136	-0.464571	-0.578230
C22	C	1.393956	-0.715182	-0.578195
C23	C	1.394014	-0.822396	-0.578220
C24	C	1.394116	-1.018691	-0.578295
C25	C	1.394057	-0.909458	-0.578257
C26	C	1.645619	-0.464581	-0.578258
C27	C	1.752833	-0.464587	-0.578270
C28	C	1.394101	-0.464460	-0.891272
C29	C	1.394132	-0.464415	-1.024672
C30	C	1.394123	-0.212974	-0.578291
C31	C	1.394165	-0.105760	-0.578317
C32	C	1.394008	-0.464604	-0.266405
C33	C	1.394164	-0.464378	-0.133006
