data_functionalizedCrystal
_audit_creation_method	'MofGen! by Chris Wilmer'
_symmetry_space_group_name_H-M	'P1'
_symmetry_Int_Tables_number	1
_symmetry_cell_setting	triclinic
loop_
_symmetry_equiv_pos_as_xyz
  x,y,z
_cell_length_a	13.032831
_cell_length_b	13.897448
_cell_length_c	13.034296
_cell_angle_alpha	82.788857
_cell_angle_beta	74.814550
_cell_angle_gamma	82.822399
loop_
_atom_site_label
_atom_site_type_symbol
_atom_site_fract_x
_atom_site_fract_y
_atom_site_fract_z
Zn1	Zn	1.700198	-0.489003	-0.806452
Zn2	Zn	2.033532	-0.155670	-0.473118
Zn3	Zn	2.366865	0.177664	-0.139785
Zn4	Zn	1.677511	-0.668493	-0.628822
Zn5	Zn	2.010845	-0.335159	-0.295489
Zn6	Zn	2.344178	-0.001826	0.037845
Zn7	Zn	1.500001	-0.489012	-0.606333
Zn8	Zn	1.833335	-0.155678	-0.273000
Zn9	Zn	2.166668	0.177655	0.060334
Zn10	Zn	1.522543	-0.632049	-0.783876
Zn11	Zn	1.855876	-0.298716	-0.450542
Zn12	Zn	2.189209	0.034617	-0.117209
O13	O	1.600064	-0.569639	-0.706371
O14	O	1.933397	-0.236306	-0.373037
O15	O	2.266730	0.097027	-0.039704
O16	O	1.845827	-0.528060	-0.801749
O17	O	2.179160	-0.194727	-0.468415
O18	O	2.512494	0.138606	-0.135082
O19	O	1.635036	-0.659939	-0.477198
O20	O	1.968370	-0.326606	-0.143865
O21	O	2.301703	0.006727	0.189469
O22	O	1.526619	-0.354032	-0.632915
O23	O	1.859952	-0.020699	-0.299582
O24	O	2.193286	0.312635	0.033751
O25	O	1.829159	-0.659931	-0.671245
O26	O	2.162492	-0.326597	-0.337912
O27	O	2.495826	0.006736	-0.004578
O28	O	1.673703	-0.354025	-0.779942
O29	O	2.007036	-0.020692	-0.446608
O30	O	2.340370	0.312641	-0.113275
O31	O	1.504620	-0.528076	-0.460675
O32	O	1.837954	-0.194742	-0.127342
O33	O	2.171287	0.138591	0.205992
O34	O	1.354354	-0.492738	-0.611024
O35	O	1.687687	-0.159405	-0.277691
O36	O	2.021020	0.173928	0.055642
O37	O	1.565037	-0.597819	-0.935512
O38	O	1.898371	-0.264485	-0.602178
O39	O	2.231704	0.068848	-0.268845
O40	O	1.370915	-0.597827	-0.741464
O41	O	1.704248	-0.264494	-0.408131
O42	O	2.037581	0.068839	-0.074798
O43	O	1.695560	-0.492723	-0.952098
O44	O	2.028894	-0.159390	-0.618765
O45	O	2.362227	0.173944	-0.285431
O46	O	1.656894	-0.798637	-0.649354
O47	O	1.990227	-0.465304	-0.316021
O48	O	2.323560	-0.131970	0.017313
O49	O	1.543039	-0.771862	-0.763271
O50	O	1.876372	-0.438529	-0.429938
O51	O	2.209705	-0.105196	-0.096605
C52	C	1.324094	-0.541330	-0.671355
C53	C	1.657427	-0.207996	-0.338022
C54	C	1.990761	0.125337	-0.004688
C55	C	1.206036	-0.529240	-0.656400
C56	C	1.539369	-0.195906	-0.323067
C57	C	1.872703	0.137427	0.010266
C58	C	1.161612	-0.575949	-0.714176
C59	C	1.494945	-0.242616	-0.380842
C60	C	1.828278	0.090717	-0.047509
C61	C	1.039593	-0.563455	-0.698721
C62	C	1.372926	-0.230121	-0.365387
C63	C	1.706259	0.103212	-0.032054
C64	C	1.599982	-0.820249	-0.706330
C65	C	1.933315	-0.486915	-0.372997
C66	C	2.266649	-0.153582	-0.039663
C67	C	1.600049	-0.927467	-0.706361
C68	C	1.933382	-0.594134	-0.373027
C69	C	2.266716	-0.260800	-0.039694
C70	C	1.600169	-1.123767	-0.706441
C71	C	1.933502	-0.790433	-0.373108
C72	C	2.266836	-0.457100	-0.039775
C73	C	1.600100	-1.014531	-0.706399
C74	C	1.933433	-0.681198	-0.373066
C75	C	2.266766	-0.347864	-0.039733
C76	C	1.877111	-0.598060	-0.741524
C77	C	2.210444	-0.264726	-0.408190
C78	C	2.543778	0.068607	-0.074857
C79	C	1.995172	-0.610171	-0.756504
C80	C	2.328505	-0.276838	-0.423170
C81	C	2.661839	0.056496	-0.089837
C82	C	1.635344	-0.541205	-0.983423
C83	C	1.968677	-0.207871	-0.650090
C84	C	2.302011	0.125462	-0.316757
C85	C	1.650378	-0.529088	-1.101487
C86	C	1.983712	-0.195754	-0.768153
C87	C	2.317045	0.137579	-0.434820
C88	C	1.600177	-0.318052	-0.706438
C89	C	1.933511	0.015282	-0.373105
C90	C	2.266844	0.348615	-0.039772
C91	C	1.600226	-0.210840	-0.706467
C92	C	1.933559	0.122493	-0.373134
C93	C	2.266892	0.455827	-0.039800
C94	C	1.592501	-0.575685	-1.145916
C95	C	1.925834	-0.242351	-0.812583
C96	C	2.259168	0.090982	-0.479250
C97	C	1.608038	-0.563162	-1.267941
C98	C	1.941372	-0.229829	-0.934608
C99	C	2.274705	0.103504	-0.601274
C100	C	1.564982	-0.597900	-0.430403
C101	C	1.898315	-0.264566	-0.097070
C102	C	2.231648	0.068767	0.236263
C103	C	1.550153	-0.609766	-0.312367
C104	C	1.883486	-0.276433	0.020966
C105	C	2.216820	0.056901	0.354300
H106	H	0.987296	-0.514207	-0.637815
H107	H	1.320630	-0.180873	-0.304482
H108	H	1.653963	0.152460	0.028851
Cl109	Cl	1.455892	-0.685688	-1.231635
Cl110	Cl	1.789225	-0.352355	-0.898302
Cl111	Cl	2.122558	-0.019021	-0.564968
Cl112	Cl	1.744650	-0.453185	-1.182227
Cl113	Cl	2.077983	-0.119852	-0.848893
Cl114	Cl	2.411316	0.213481	-0.515560
H115	H	1.213913	-0.625186	-0.775084
H116	H	1.547246	-0.291852	-0.441751
H117	H	1.880579	0.041481	-0.108418
H118	H	1.153736	-0.479995	-0.595499
H119	H	1.487069	-0.146662	-0.262166
H120	H	1.820403	0.186672	0.071167
H121	H	1.047468	-0.659408	-0.817420
H122	H	1.380802	-0.326075	-0.484087
H123	H	1.714135	0.007258	-0.150753
H124	H	1.669100	-0.513998	-1.320238
H125	H	2.002433	-0.180665	-0.986905
H126	H	2.335766	0.152668	-0.653572
Cl127	Cl	1.498238	-0.651596	-1.065178
Cl128	Cl	1.831571	-0.318262	-0.731844
Cl129	Cl	2.164904	0.015071	-0.398511
