data_functionalizedCrystal
_audit_creation_method	'MofGen! by Chris Wilmer'
_symmetry_space_group_name_H-M	'P1'
_symmetry_Int_Tables_number	1
_symmetry_cell_setting	triclinic
loop_
_symmetry_equiv_pos_as_xyz
  x,y,z
_cell_length_a	17.699083
_cell_length_b	16.992695
_cell_length_c	16.176319
_cell_angle_alpha	89.993125
_cell_angle_beta	89.998611
_cell_angle_gamma	86.975619
loop_
_atom_site_label
_atom_site_type_symbol
_atom_site_fract_x
_atom_site_fract_y
_atom_site_fract_z
O1	O	1.010252	0.099146	-0.068631
O2	O	1.343585	0.432479	0.264702
O3	O	1.676918	0.765812	0.598036
O4	O	0.790676	0.112045	-0.068658
O5	O	1.124010	0.445378	0.264675
O6	O	1.457343	0.778711	0.598009
O7	O	0.899584	-0.008546	-0.068638
O8	O	1.232917	0.324788	0.264695
O9	O	1.566250	0.658121	0.598029
O10	O	0.901344	0.219736	-0.068651
O11	O	1.234678	0.553070	0.264682
O12	O	1.568011	0.886403	0.598016
O13	O	0.899567	-0.008553	0.068855
O14	O	1.232901	0.324780	0.402189
O15	O	1.566234	0.658113	0.735522
O16	O	0.790660	0.112037	0.068835
O17	O	1.123993	0.445370	0.402169
O18	O	1.457327	0.778704	0.735502
O19	O	1.010235	0.099138	0.068862
O20	O	1.343569	0.432471	0.402196
O21	O	1.676902	0.765805	0.735529
Cu22	Cu	0.900446	0.105587	0.081403
Cu23	Cu	1.233779	0.438920	0.414736
Cu24	Cu	1.567113	0.772254	0.748070
Cu25	Cu	0.900465	0.105596	-0.081199
Cu26	Cu	1.233799	0.438929	0.252135
Cu27	Cu	1.567132	0.772263	0.585468
O28	O	0.901328	0.219729	0.068842
O29	O	1.234661	0.553062	0.402176
O30	O	1.567994	0.886395	0.735509
C31	C	0.762442	0.111579	0.000085
C32	C	1.095776	0.444912	0.333418
C33	C	1.429109	0.778245	0.666752
C34	C	0.678338	0.110192	0.000075
C35	C	1.011671	0.443525	0.333408
C36	C	1.345005	0.776859	0.666742
C37	C	0.634124	0.180976	0.000071
C38	C	0.967457	0.514310	0.333405
C39	C	1.300791	0.847643	0.666738
C40	C	0.555099	0.179669	0.000082
C41	C	0.888433	0.513002	0.333415
C42	C	1.221766	0.846335	0.666749
C43	C	0.520290	0.107576	0.000091
C44	C	0.853623	0.440910	0.333424
C45	C	1.186957	0.774243	0.666757
C46	C	0.564510	0.036787	0.000097
C47	C	0.897843	0.370120	0.333430
C48	C	1.231176	0.703453	0.666763
C49	C	0.643533	0.038095	0.000092
C50	C	0.976866	0.371428	0.333425
C51	C	1.310200	0.704762	0.666759
C52	C	0.245818	0.031509	0.000118
C53	C	0.579151	0.364842	0.333451
C54	C	0.912485	0.698175	0.666784
C55	C	0.166789	0.030206	0.000120
C56	C	0.500122	0.363539	0.333453
C57	C	0.833456	0.696872	0.666787
C58	C	0.157384	0.173082	0.000108
C59	C	0.490718	0.506416	0.333441
C60	C	0.824051	0.839749	0.666774
C61	C	0.236408	0.174391	0.000103
C62	C	0.569741	0.507724	0.333436
C63	C	0.903074	0.841057	0.666769
C64	C	0.280621	0.103602	0.000113
C65	C	0.613954	0.436935	0.333447
C66	C	0.947287	0.770268	0.666780
C67	C	0.366308	0.105020	0.000103
C68	C	0.699641	0.438354	0.333437
C69	C	1.032975	0.771687	0.666770
C70	C	0.434604	0.106157	0.000095
C71	C	0.767937	0.439490	0.333428
C72	C	1.101271	0.772823	0.666761
C73	C	0.897311	-0.037758	0.000108
C74	C	1.230644	0.295576	0.333442
C75	C	1.563977	0.628909	0.666775
C76	C	0.890554	-0.124789	0.000107
C77	C	1.223887	0.208544	0.333441
C78	C	1.557220	0.541878	0.666774
C79	C	0.955751	-0.175154	0.000116
C80	C	1.289085	0.158180	0.333449
C81	C	1.622418	0.491513	0.666783
C82	C	0.949398	-0.256928	0.000107
C83	C	1.282731	0.076405	0.333441
C84	C	1.616064	0.409738	0.666774
C85	C	0.877846	-0.288336	0.000096
C86	C	1.211179	0.044997	0.333429
C87	C	1.544512	0.378330	0.666763
C88	C	0.812643	-0.237965	0.000084
C89	C	1.145977	0.095368	0.333418
C90	C	1.479310	0.428701	0.666751
C91	C	0.818998	-0.156192	0.000087
C92	C	1.152331	0.177141	0.333420
C93	C	1.485664	0.510474	0.666754
C94	C	0.851510	-0.531884	0.000081
C95	C	1.184843	-0.198551	0.333415
C96	C	1.518176	0.134783	0.666748
C97	C	0.845160	-0.613663	0.000081
C98	C	1.178494	-0.280330	0.333414
C99	C	1.511827	0.053003	0.666748
C100	C	0.981915	-0.632621	0.000102
C101	C	1.315249	-0.299287	0.333436
C102	C	1.648582	0.034046	0.666769
C103	C	0.988263	-0.550845	0.000110
C104	C	1.321597	-0.217512	0.333443
C105	C	1.654930	0.115821	0.666777
C106	C	0.923061	-0.500481	0.000094
C107	C	1.256394	-0.167148	0.333428
C108	C	1.589728	0.166185	0.666761
N109	N	0.871350	-0.371923	0.000090
N110	N	1.204683	-0.038590	0.333423
N111	N	1.538016	0.294744	0.666756
N112	N	0.929558	-0.416897	0.000095
N113	N	1.262891	-0.083563	0.333428
N114	N	1.596224	0.249770	0.666761
C115	C	1.038469	0.099604	0.000117
C116	C	1.371803	0.432937	0.333451
C117	C	1.705136	0.766271	0.666784
C118	C	1.122574	0.100991	0.000122
C119	C	1.455907	0.434324	0.333455
C120	C	1.789240	0.767657	0.666789
C121	C	0.903601	0.248941	0.000094
C122	C	1.236934	0.582274	0.333428
C123	C	1.570267	0.915607	0.666761
C124	C	0.910358	0.335972	0.000090
C125	C	1.243691	0.669305	0.333423
C126	C	1.577025	1.002639	0.666757
N127	N	0.900438	0.105580	0.195768
N128	N	1.233771	0.438913	0.529102
N129	N	1.567104	0.772247	0.862435
N130	N	0.900479	0.105597	-0.195564
N131	N	1.233813	0.438930	0.137769
N132	N	1.567146	0.772263	0.471103
C133	C	0.948679	0.052204	0.239041
C134	C	1.282012	0.385538	0.572375
C135	C	1.615346	0.718871	0.905708
C136	C	0.948683	0.052203	0.325588
C137	C	1.282016	0.385537	0.658922
C138	C	1.615349	0.718870	0.992255
C139	C	0.900449	0.105583	0.368861
C140	C	1.233782	0.438916	0.702194
C141	C	1.567115	0.772249	1.035527
C142	C	0.852202	0.158961	0.325582
C143	C	1.185536	0.492294	0.658915
C144	C	1.518869	0.825628	0.992248
C145	C	0.852195	0.158957	0.239036
C146	C	1.185529	0.492291	0.572370
C147	C	1.518862	0.825624	0.905703
C148	C	0.852229	0.158976	0.674610
C149	C	1.185562	0.492309	1.007943
C150	C	1.518896	0.825642	1.341277
C151	C	0.852242	0.158977	0.761161
C152	C	1.185575	0.492310	1.094495
C153	C	1.518908	0.825643	1.427828
C154	C	0.948717	0.052222	0.761162
C155	C	1.282050	0.385555	1.094495
C156	C	1.615383	0.718888	1.427829
C157	C	0.948709	0.052218	0.674617
C158	C	1.282043	0.385552	1.007950
C159	C	1.615376	0.718885	1.341283
C160	C	0.900461	0.105593	0.631345
C161	C	1.233794	0.438927	0.964678
C162	C	1.567127	0.772260	1.298012
C163	C	0.900456	0.105593	0.537501
C164	C	1.233789	0.438926	0.870834
C165	C	1.567123	0.772259	1.204168
C166	C	0.900457	0.105588	0.462703
C167	C	1.233790	0.438921	0.796037
C168	C	1.567123	0.772254	1.129370
H169	H	0.281807	-0.026132	0.000127
H170	H	0.615140	0.307201	0.333460
H171	H	0.948474	0.640534	0.666794
F172	F	0.800901	0.215792	0.807214
F173	F	1.134234	0.549126	1.140547
F174	F	1.467568	0.882459	1.473880
F175	F	0.782114	-0.478293	0.000062
F176	F	1.115448	-0.144960	0.333396
F177	F	1.448781	0.188373	0.666729
F178	F	1.000066	-0.004588	0.807221
F179	F	1.333399	0.328745	1.140554
F180	F	1.666732	0.662078	1.473888
F181	F	0.800882	0.215783	0.628564
F182	F	1.134215	0.549116	0.961897
F183	F	1.467549	0.882449	1.295230
H184	H	0.754384	-0.263544	0.000070
H185	H	1.087717	0.069789	0.333403
H186	H	1.421051	0.403122	0.666736
H187	H	0.536162	-0.021912	0.000116
H188	H	0.869495	0.311421	0.333449
H189	H	1.202828	0.644754	0.666782
F190	F	0.690589	-0.037243	0.000099
F191	F	1.023922	0.296090	0.333432
F192	F	1.357255	0.629424	0.666766
H193	H	0.987964	0.008741	0.360821
H194	H	1.321297	0.342074	0.694154
H195	H	1.654630	0.675407	1.027488
F196	F	0.508047	0.255007	0.000074
F197	F	0.841380	0.588340	0.333408
F198	F	1.174713	0.921674	0.666741
F199	F	0.749605	-0.102590	0.000075
F200	F	1.082938	0.230743	0.333408
F201	F	1.416272	0.564076	0.666742
F202	F	0.273450	0.251121	0.000089
F203	F	0.606783	0.584454	0.333422
F204	F	0.940116	0.917788	0.666755
H205	H	1.014017	-0.149588	0.000131
H206	H	1.347350	0.183745	0.333464
H207	H	1.680683	0.517079	0.666797
F208	F	1.064419	-0.517425	0.000102
F209	F	1.397752	-0.184092	0.333435
F210	F	1.731085	0.149242	0.666768
F211	F	1.000021	-0.004607	0.192996
F212	F	1.333354	0.328727	0.526329
F213	F	1.666688	0.662060	0.859662
F214	F	1.051303	-0.686227	0.000118
F215	F	1.384637	-0.352893	0.333451
F216	F	1.717970	-0.019560	0.666785
H217	H	1.002489	-0.297933	0.000117
H218	H	1.335822	0.035401	0.333450
H219	H	1.669155	0.368734	0.666783
H220	H	0.812925	0.202421	0.360819
H221	H	1.146259	0.535754	0.694152
H222	H	1.479592	0.869087	1.027486
F223	F	0.769001	-0.647088	0.000073
F224	F	1.102335	-0.313754	0.333406
F225	F	1.435668	0.019579	0.666739
H226	H	0.812912	0.202420	0.203804
H227	H	1.146245	0.535754	0.537137
H228	H	1.479578	0.869087	0.870471
H229	H	0.138450	-0.028504	0.000128
H230	H	0.471784	0.304829	0.333461
H231	H	0.805117	0.638163	0.666795
H232	H	0.987989	0.008755	0.639387
H233	H	1.321322	0.342088	0.972720
H234	H	1.654655	0.675421	1.306053
H235	H	0.121377	0.230722	0.000103
H236	H	0.454710	0.564056	0.333437
H237	H	0.788043	0.897389	0.666770
H238	H	0.662460	0.239682	0.000064
H239	H	0.995793	0.573016	0.333397
H240	H	1.329126	0.906349	0.666730
