data_functionalizedCrystal
_audit_creation_method	'MofGen! by Chris Wilmer'
_symmetry_space_group_name_H-M	'P1'
_symmetry_Int_Tables_number	1
_symmetry_cell_setting	triclinic
loop_
_symmetry_equiv_pos_as_xyz
  x,y,z
_cell_length_a	12.759401
_cell_length_b	12.759399
_cell_length_c	12.759393
_cell_angle_alpha	90.027363
_cell_angle_beta	89.980404
_cell_angle_gamma	89.984118
loop_
_atom_site_label
_atom_site_type_symbol
_atom_site_fract_x
_atom_site_fract_y
_atom_site_fract_z
Zn1	Zn	1.606260	0.418208	-0.594005
Zn2	Zn	1.606148	0.593923	-0.418335
Zn3	Zn	1.430558	0.418260	-0.418345
Zn4	Zn	1.430548	0.593846	-0.593976
O5	O	1.518378	0.506059	-0.506165
O6	O	1.753266	0.441527	-0.570710
O7	O	1.582814	0.570675	-0.271315
O8	O	1.453917	0.271232	-0.441663
O9	O	1.753184	0.570625	-0.441646
O10	O	1.583004	0.271194	-0.570720
O11	O	1.453809	0.441616	-0.271322
O12	O	1.283536	0.441541	-0.441634
O13	O	1.453898	0.570493	-0.741001
O14	O	1.283528	0.570544	-0.570670
O15	O	1.582993	0.441452	-0.741023
O16	O	1.582803	0.740934	-0.441618
O17	O	1.453790	0.740877	-0.570661
C18	C	1.245411	0.506040	-0.506151
C19	C	1.128634	0.506058	-0.506170
C20	C	1.518312	0.779027	-0.506158
C21	C	1.518379	0.895803	-0.506190
C22	C	0.964065	0.573347	-0.573260
C23	C	1.073789	0.573336	-0.573249
C24	C	1.073750	0.438794	-0.439089
C25	C	0.964028	0.438812	-0.439095
C26	C	1.585630	0.950660	-0.439075
C27	C	1.585693	1.060384	-0.439114
C28	C	1.451245	1.060385	-0.573386
C29	C	1.451188	0.950663	-0.573352
C30	C	1.663249	0.950660	-0.361551
C31	C	1.663312	1.060384	-0.361589
C32	C	1.792412	0.506079	-0.506181
C33	C	1.909188	0.506087	-0.506187
C34	C	1.518470	1.232026	-0.506209
C35	C	1.518499	1.115249	-0.506263
C36	C	1.518457	0.505958	-0.780199
C37	C	1.518491	0.505915	-0.896976
C38	C	1.585715	0.438713	-0.951850
C39	C	1.585733	0.438668	-1.061574
C40	C	1.451298	0.573036	-1.061539
C41	C	1.451276	0.573075	-0.951817
C42	C	1.518361	0.506084	-0.233198
C43	C	1.518531	0.505831	-0.116422
H44	H	0.919417	0.628127	-0.627890
Br45	Br	1.627084	1.110165	-0.225958
H46	H	1.396542	1.105065	-0.628067
H47	H	1.640473	0.383943	-1.106249
Br48	Br	1.676932	0.347566	-0.877425
H49	H	0.919347	0.384039	-0.384471
H50	H	1.396526	0.627799	-0.907137
H51	H	1.118464	0.628107	-0.627866
Br52	Br	1.148183	0.347493	-0.348045
H53	H	1.744593	0.920803	-0.383401
Br54	Br	1.792142	1.116973	-0.410303
Br55	Br	1.359937	0.876216	-0.664461
H56	H	1.634123	0.916712	-0.284223
Br57	Br	1.360087	0.664181	-1.135974
