data_functionalizedCrystal
_audit_creation_method	'MofGen! by Chris Wilmer'
_symmetry_space_group_name_H-M	'P1'
_symmetry_Int_Tables_number	1
_symmetry_cell_setting	triclinic
loop_
_symmetry_equiv_pos_as_xyz
  x,y,z
_cell_length_a	6.817900
_cell_length_b	17.296766
_cell_length_c	23.753023
_cell_angle_alpha	100.239935
_cell_angle_beta	100.067528
_cell_angle_gamma	102.621013
loop_
_atom_site_label
_atom_site_type_symbol
_atom_site_fract_x
_atom_site_fract_y
_atom_site_fract_z
V1	V	-3.988644	-0.112147	-0.184198
V2	V	-3.488644	0.387853	0.315802
O3	O	-3.977024	0.004345	-0.174767
O4	O	-3.477024	0.504345	0.325233
O5	O	-3.940286	-0.221365	-0.188635
O6	O	-3.440286	0.278635	0.311365
O7	O	-3.923681	-0.110880	-0.261933
O8	O	-3.423681	0.389120	0.238067
O9	O	-3.993744	-0.106905	-0.100962
O10	O	-3.493744	0.393095	0.399038
V11	V	-4.474413	-0.098159	-0.173550
V12	V	-3.974413	0.401841	0.326450
O13	O	-4.244976	-0.142831	-0.207554
O14	O	-3.744976	0.357169	0.292446
O15	O	-4.668278	-0.067475	-0.150193
O16	O	-4.168278	0.432525	0.349807
O17	O	-4.299564	0.011059	-0.169112
O18	O	-3.799564	0.511059	0.330888
O19	O	-4.603430	-0.214652	-0.182980
O20	O	-4.103430	0.285348	0.317020
O21	O	-4.586710	-0.103402	-0.256786
O22	O	-4.086710	0.396598	0.243214
O23	O	-4.316169	-0.099426	-0.095814
O24	O	-3.816169	0.400574	0.404186
C25	C	-3.785833	-0.247976	-0.187200
C26	C	-3.285833	0.252024	0.312800
C27	C	-3.827472	-0.337266	-0.191346
C28	C	-3.327472	0.162734	0.308654
C29	C	-3.817955	-0.367446	-0.140290
C30	C	-3.317955	0.132554	0.359710
C31	C	-3.857098	-0.451344	-0.144188
C32	C	-3.357098	0.048656	0.355812
C33	C	-3.905743	-0.505061	-0.199143
C34	C	-3.405743	-0.005061	0.300857
C35	C	-3.915265	-0.474877	-0.250203
C36	C	-3.415265	0.025123	0.249797
C37	C	-3.876136	-0.390980	-0.246304
C38	C	-3.376136	0.109020	0.253696
C39	C	-4.025353	-0.758964	-0.213565
C40	C	-3.525353	-0.258964	0.286435
C41	C	-4.064475	-0.842865	-0.217460
C42	C	-3.564475	-0.342865	0.282540
C43	C	-4.006309	-0.819328	-0.111445
C44	C	-3.506309	-0.319328	0.388555
C45	C	-3.967171	-0.735430	-0.107551
C46	C	-3.467171	-0.235430	0.392449
C47	C	-3.976707	-0.705253	-0.158611
C48	C	-3.476707	-0.205253	0.341389
C49	C	-3.945747	-0.590819	-0.203128
C50	C	-3.445747	-0.090819	0.296872
C51	C	-3.936717	-0.619497	-0.154625
C52	C	-3.436717	-0.119497	0.345375
C53	C	-3.764651	-0.107040	-0.280698
C54	C	-3.264651	0.392960	0.219302
C55	C	-3.792820	-0.106727	-0.344284
C56	C	-3.292820	0.393273	0.155716
C57	C	-4.006118	-0.178484	-0.750592
C58	C	-3.506118	0.321516	-0.250592
C59	C	-4.032621	-0.178202	-0.810341
C60	C	-3.532621	0.321798	-0.310341
O61	O	-4.079028	-0.240653	-0.851436
O62	O	-3.579028	0.259347	-0.351436
N63	N	-4.007493	-0.104456	-0.828239
N64	N	-3.507493	0.395544	-0.328239
C65	C	-3.955879	-0.030987	-0.786384
C66	C	-3.455879	0.469013	-0.286384
O67	O	-3.936941	0.031766	-0.807094
O68	O	-3.436941	0.531766	-0.307094
C69	C	-3.929391	-0.031270	-0.726637
C70	C	-3.429391	0.468730	-0.226637
C71	C	-3.954503	-0.105021	-0.708742
C72	C	-3.454503	0.394979	-0.208742
C73	C	-4.031229	-0.252229	-0.732697
C74	C	-3.531229	0.247771	-0.232697
C75	C	-4.004724	-0.252511	-0.672952
C76	C	-3.504724	0.247489	-0.172952
C77	C	-3.953109	-0.179047	-0.631102
C78	C	-3.453109	0.320953	-0.131102
C79	C	-3.927998	-0.105302	-0.648997
C80	C	-3.427998	0.394698	-0.148997
C81	C	-3.877792	0.042198	-0.684783
C82	C	-3.377792	0.542198	-0.184783
C83	C	-3.851308	0.041909	-0.625033
C84	C	-3.351308	0.541909	-0.125033
C85	C	-3.876419	-0.031842	-0.607139
C86	C	-3.376419	0.468158	-0.107139
C87	C	-3.849878	-0.032120	-0.547403
C88	C	-3.349878	0.467880	-0.047403
N89	N	-3.875006	-0.105867	-0.529505
N90	N	-3.375006	0.394133	-0.029505
C91	C	-3.926621	-0.179330	-0.571355
C92	C	-3.426621	0.320670	-0.071355
C93	C	-4.011511	-0.030398	-0.911858
C94	C	-3.511511	0.469602	-0.411858
C95	C	-4.037983	-0.030114	-0.971604
C96	C	-3.537983	0.469886	-0.471604
C97	C	-4.114728	-0.177330	-0.995557
C98	C	-3.614728	0.322670	-0.495557
C99	C	-4.088240	-0.177613	-0.935810
C100	C	-3.588240	0.322387	-0.435810
C101	C	-4.036639	-0.104145	-0.893961
C102	C	-3.536639	0.395855	-0.393961
C103	C	-3.870954	-0.179916	-0.445885
C104	C	-3.370954	0.320084	0.054115
C105	C	-3.844436	-0.180190	-0.386134
C106	C	-3.344436	0.319810	0.113866
C107	C	-3.767704	-0.032975	-0.362187
C108	C	-3.267704	0.467025	0.137813
C109	C	-3.794210	-0.032700	-0.421932
C110	C	-3.294210	0.467300	0.078068
C111	C	-3.845845	-0.106177	-0.463782
C112	C	-3.345845	0.393823	0.036218
O113	O	-3.803479	0.030298	-0.506275
O114	O	-3.303479	0.530298	-0.006275
O115	O	-3.945577	-0.242073	-0.550637
O116	O	-3.445577	0.257927	-0.050637
C117	C	-4.117359	0.037665	-0.170546
C118	C	-3.617359	0.537665	0.329454
C119	C	-4.054959	0.126955	-0.166404
C120	C	-3.554959	0.626955	0.333596
C121	C	-4.138542	-0.103269	-0.077047
C122	C	-3.638542	0.396731	0.422953
C123	C	-4.089612	-0.103578	-0.013460
C124	C	-3.589612	0.396422	0.486540
H125	H	-3.985357	-0.634565	-0.247873
H126	H	-3.485357	-0.134565	0.252127
H127	H	-3.912995	-0.239748	-0.479953
H128	H	-3.412995	0.260252	0.020047
H129	H	-4.156761	-0.237148	-1.029643
H130	H	-3.656761	0.262852	-0.529643
H131	H	-3.998553	-0.843907	-0.069875
H132	H	-3.498553	-0.343907	0.430125
H133	H	-4.104079	-0.886601	-0.262213
H134	H	-3.604079	-0.386601	0.237787
H135	H	-4.033094	-0.734404	-0.255142
H136	H	-3.533094	-0.234404	0.244858
H137	H	-3.883908	-0.366410	-0.287880
H138	H	-3.383908	0.133590	0.212120
H139	H	-3.897119	-0.575757	-0.109882
H140	H	-3.397119	-0.075757	0.390118
H141	H	-3.778330	-0.323714	-0.095540
H142	H	-3.278330	0.176286	0.404460
H143	H	-3.773772	0.027354	-0.436502
H144	H	-3.273772	0.527354	0.063498
H145	H	-4.017505	0.029942	-0.986167
H146	H	-3.517505	0.529942	-0.486167
H147	H	-4.025187	-0.312567	-0.658389
H148	H	-3.525187	0.187433	-0.158389
H149	H	-3.864882	-0.240250	-0.371569
H150	H	-3.364882	0.259750	0.128431
H151	H	-3.969476	0.029433	-0.877786
H152	H	-3.469476	0.529433	-0.377786
H153	H	-4.073264	-0.312056	-0.766767
H154	H	-3.573264	0.187944	-0.266767
H155	H	-4.108690	-0.237668	-0.921245
H156	H	-3.608690	0.262332	-0.421245
H157	H	-3.725669	0.026837	-0.328102
H158	H	-3.225669	0.526837	0.171898
H159	H	-3.857324	0.102255	-0.699341
H160	H	-3.357324	0.602255	-0.199341
H161	H	-3.809295	0.101737	-0.590961
H162	H	-3.309295	0.601737	-0.090961
H163	H	-3.849351	-0.475912	-0.102613
H164	H	-3.349351	0.024088	0.397387
H165	H	-3.927575	-0.691698	-0.062801
H166	H	-3.427575	-0.191698	0.437199
H167	H	-3.954888	-0.518620	-0.294948
H168	H	-3.454888	-0.018620	0.205052
