data_functionalizedCrystal
_audit_creation_method	'MofGen! by Chris Wilmer'
_symmetry_space_group_name_H-M	'P1'
_symmetry_Int_Tables_number	1
_symmetry_cell_setting	triclinic
loop_
_symmetry_equiv_pos_as_xyz
  x,y,z
_cell_length_a	21.395362
_cell_length_b	19.805405
_cell_length_c	21.395355
_cell_angle_alpha	89.980090
_cell_angle_beta	89.956060
_cell_angle_gamma	90.042288
loop_
_atom_site_label
_atom_site_type_symbol
_atom_site_fract_x
_atom_site_fract_y
_atom_site_fract_z
Zn1	Zn	0.957878	-0.269255	-0.354580
Zn2	Zn	1.207878	-0.019255	-0.104580
Zn3	Zn	1.457878	0.230745	0.145420
Zn4	Zn	1.707878	0.480745	0.395420
Zn5	Zn	0.957789	-0.382425	-0.249800
Zn6	Zn	1.207789	-0.132425	0.000200
Zn7	Zn	1.457789	0.117575	0.250200
Zn8	Zn	1.707789	0.367575	0.500200
Zn9	Zn	0.853093	-0.269286	-0.249781
Zn10	Zn	1.103093	-0.019286	0.000219
Zn11	Zn	1.353093	0.230714	0.250219
Zn12	Zn	1.603093	0.480714	0.500219
Zn13	Zn	0.853070	-0.382438	-0.354504
Zn14	Zn	1.103070	-0.132438	-0.104504
Zn15	Zn	1.353070	0.117562	0.145496
Zn16	Zn	1.603070	0.367562	0.395496
O17	O	0.905458	-0.325851	-0.302166
O18	O	1.155458	-0.075851	-0.052166
O19	O	1.405458	0.174149	0.197834
O20	O	1.655458	0.424149	0.447834
O21	O	1.045544	-0.284248	-0.340720
O22	O	1.295544	-0.034248	-0.090720
O23	O	1.545544	0.215752	0.159280
O24	O	1.795544	0.465752	0.409280
O25	O	0.943873	-0.367424	-0.162119
O26	O	1.193873	-0.117424	0.087881
O27	O	1.443873	0.132576	0.337881
O28	O	1.693873	0.382576	0.587881
O29	O	0.867040	-0.174565	-0.263706
O30	O	1.117040	0.075435	-0.013706
O31	O	1.367040	0.325435	0.236294
O32	O	1.617040	0.575435	0.486294
O33	O	1.045478	-0.367393	-0.263738
O34	O	1.295478	-0.117393	-0.013738
O35	O	1.545478	0.132607	0.236262
O36	O	1.795478	0.382607	0.486262
O37	O	0.944025	-0.174542	-0.340701
O38	O	1.194025	0.075458	-0.090701
O39	O	1.444025	0.325458	0.159299
O40	O	1.694025	0.575458	0.409299
O41	O	0.866953	-0.284302	-0.162105
O42	O	1.116953	-0.034302	0.087895
O43	O	1.366953	0.215698	0.337895
O44	O	1.616953	0.465698	0.587895
O45	O	0.765412	-0.284315	-0.263633
O46	O	1.015412	-0.034315	-0.013633
O47	O	1.265412	0.215685	0.236367
O48	O	1.515412	0.465685	0.486367
O49	O	0.867001	-0.367417	-0.442192
O50	O	1.117001	-0.117417	-0.192192
O51	O	1.367001	0.132583	0.057808
O52	O	1.617001	0.382583	0.307808
O53	O	0.765395	-0.367448	-0.340573
O54	O	1.015395	-0.117448	-0.090573
O55	O	1.265395	0.132552	0.159427
O56	O	1.515395	0.382552	0.409427
O57	O	0.944003	-0.284261	-0.442247
O58	O	1.194003	-0.034261	-0.192247
O59	O	1.444003	0.215739	0.057753
O60	O	1.694003	0.465739	0.307753
O61	O	0.943850	-0.477143	-0.263665
O62	O	1.193850	-0.227143	-0.013665
O63	O	1.443850	0.022857	0.236335
O64	O	1.693850	0.272857	0.486335
O65	O	0.866914	-0.477153	-0.340591
O66	O	1.116914	-0.227153	-0.090591
O67	O	1.366914	0.022847	0.159409
O68	O	1.616914	0.272847	0.409409
C69	C	0.742670	-0.325887	-0.302093
C70	C	0.992670	-0.075887	-0.052093
C71	C	1.242670	0.174113	0.197907
C72	C	1.492670	0.424113	0.447907
C73	C	0.673029	-0.325918	-0.302077
C74	C	0.923029	-0.075918	-0.052077
C75	C	1.173029	0.174082	0.197923
C76	C	1.423029	0.424082	0.447923
C77	C	0.905387	-0.501707	-0.302136
C78	C	1.155387	-0.251707	-0.052136
C79	C	1.405387	-0.001707	0.197864
C80	C	1.655387	0.248293	0.447864
C81	C	0.905414	-0.576939	-0.302144
C82	C	1.155414	-0.326939	-0.052144
C83	C	1.405414	-0.076939	0.197856
C84	C	1.655414	0.173061	0.447856
C85	C	0.640323	-0.369263	-0.342080
C86	C	0.890323	-0.119263	-0.092080
C87	C	1.140323	0.130737	0.157920
C88	C	1.390323	0.380737	0.407920
C89	C	0.574888	-0.369246	-0.342108
C90	C	0.824888	-0.119246	-0.092108
C91	C	1.074888	0.130754	0.157892
C92	C	1.324888	0.380754	0.407892
C93	C	0.542160	-0.325892	-0.302122
C94	C	0.792160	-0.075892	-0.052122
C95	C	1.042160	0.174108	0.197878
C96	C	1.292160	0.424108	0.447878
C97	C	0.574874	-0.282539	-0.262116
C98	C	0.824874	-0.032539	-0.012116
C99	C	1.074874	0.217461	0.237884
C100	C	1.324874	0.467461	0.487884
C101	C	0.640308	-0.282553	-0.262094
C102	C	0.890308	-0.032553	-0.012094
C103	C	1.140308	0.217447	0.237906
C104	C	1.390308	0.467447	0.487906
C105	C	0.438435	-0.320440	-0.245717
C106	C	0.688435	-0.070440	0.004283
C107	C	0.938435	0.179560	0.254283
C108	C	1.188435	0.429560	0.504283
C109	C	0.373002	-0.320431	-0.245738
C110	C	0.623002	-0.070431	0.004262
C111	C	0.873002	0.179569	0.254262
C112	C	1.123002	0.429569	0.504262
C113	C	0.340340	-0.325848	-0.302191
C114	C	0.590340	-0.075848	-0.052191
C115	C	0.840340	0.174152	0.197809
C116	C	1.090340	0.424152	0.447809
C117	C	0.373118	-0.331287	-0.358624
C118	C	0.623118	-0.081287	-0.108624
C119	C	0.873118	0.168713	0.141376
C120	C	1.123118	0.418713	0.391376
C121	C	0.438552	-0.331301	-0.358602
C122	C	0.688552	-0.081301	-0.108602
C123	C	0.938552	0.168699	0.141398
C124	C	1.188552	0.418699	0.391398
C125	C	0.471208	-0.325873	-0.302142
C126	C	0.721208	-0.075873	-0.052142
C127	C	0.971208	0.174127	0.197858
C128	C	1.221208	0.424127	0.447858
C129	C	0.236682	-0.369177	-0.342227
C130	C	0.486682	-0.119177	-0.092227
C131	C	0.736682	0.130823	0.157773
C132	C	0.986682	0.380823	0.407773
C133	C	0.171245	-0.369156	-0.342256
C134	C	0.421245	-0.119156	-0.092256
C135	C	0.671245	0.130844	0.157744
C136	C	0.921245	0.380844	0.407744
C137	C	0.171232	-0.282452	-0.262259
C138	C	0.421232	-0.032452	-0.012259
C139	C	0.671232	0.217548	0.237741
C140	C	0.921232	0.467548	0.487741
C141	C	0.236668	-0.282470	-0.262236
C142	C	0.486668	-0.032470	-0.012236
C143	C	0.736668	0.217530	0.237764
C144	C	0.986668	0.467530	0.487764
C145	C	0.269388	-0.325836	-0.302219
C146	C	0.519388	-0.075836	-0.052219
C147	C	0.769388	0.174164	0.197781
C148	C	1.019388	0.424164	0.447781
C149	C	0.945514	-0.612255	-0.262130
C150	C	1.195514	-0.362255	-0.012130
C151	C	1.445514	-0.112255	0.237870
C152	C	1.695514	0.137745	0.487870
C153	C	0.945540	-0.682944	-0.262144
C154	C	1.195540	-0.432944	-0.012144
C155	C	1.445540	-0.182944	0.237856
C156	C	1.695540	0.067056	0.487856
C157	C	0.905464	-0.718315	-0.302169
C158	C	1.155464	-0.468315	-0.052169
C159	C	1.405464	-0.218315	0.197831
C160	C	1.655464	0.031685	0.447831
C161	C	0.865362	-0.682993	-0.342187
C162	C	1.115362	-0.432993	-0.092187
C163	C	1.365362	-0.182993	0.157813
C164	C	1.615362	0.067007	0.407813
C165	C	0.865339	-0.612306	-0.342175
C166	C	1.115339	-0.362306	-0.092175
C167	C	1.365339	-0.112306	0.157825
C168	C	1.615339	0.137694	0.407825
C169	C	0.865455	-0.968067	-0.342233
C170	C	1.115455	-0.718067	-0.092233
C171	C	1.365455	-0.468067	0.157767
C172	C	1.615455	-0.218067	0.407767
C173	C	0.865480	-1.038759	-0.342240
C174	C	1.115480	-0.788759	-0.092240
C175	C	1.365480	-0.538759	0.157760
C176	C	1.615480	-0.288759	0.407760
C177	C	0.945656	-1.038704	-0.262202
C178	C	1.195656	-0.788704	-0.012202
C179	C	1.445656	-0.538704	0.237798
C180	C	1.695656	-0.288704	0.487798
C181	C	0.945633	-0.968017	-0.262191
C182	C	1.195633	-0.718017	-0.012191
C183	C	1.445633	-0.468017	0.237809
C184	C	1.695633	-0.218017	0.487809
C185	C	0.905534	-0.932702	-0.302210
C186	C	1.155534	-0.682702	-0.052210
C187	C	1.405534	-0.432702	0.197790
C188	C	1.655534	-0.182702	0.447790
C189	C	0.905507	-0.856053	-0.302196
C190	C	1.155507	-0.606053	-0.052196
C191	C	1.405507	-0.356053	0.197804
C192	C	1.655507	-0.106053	0.447804
C193	C	0.905488	-0.794962	-0.302181
C194	C	1.155488	-0.544962	-0.052181
C195	C	1.405488	-0.294962	0.197819
C196	C	1.655488	-0.044962	0.447819
C197	C	1.068881	-0.325816	-0.302239
C198	C	1.318881	-0.075816	-0.052239
C199	C	1.568881	0.174184	0.197761
C200	C	1.818881	0.424184	0.447761
C201	C	1.138522	-0.325800	-0.302271
C202	C	1.388522	-0.075800	-0.052271
C203	C	1.638522	0.174200	0.197729
C204	C	1.888522	0.424200	0.447729
C205	C	0.905510	-0.325837	-0.465589
C206	C	1.155510	-0.075837	-0.215589
C207	C	1.405510	0.174163	0.034411
C208	C	1.655510	0.424163	0.284411
C209	C	0.905532	-0.325831	-0.535231
C210	C	1.155532	-0.075831	-0.285231
C211	C	1.405532	0.174169	-0.035231
C212	C	1.655532	0.424169	0.214769
C213	C	0.905545	-0.149308	-0.302210
C214	C	1.155545	0.100692	-0.052210
C215	C	1.405545	0.350692	0.197790
C216	C	1.655545	0.600692	0.447790
C217	C	0.905583	-0.074076	-0.302229
C218	C	1.155583	0.175924	-0.052229
C219	C	1.405583	0.425924	0.197771
C220	C	1.655583	0.675924	0.447771
C221	C	0.945625	-0.282530	-0.567974
C222	C	1.195625	-0.032530	-0.317974
C223	C	1.445625	0.217470	-0.067974
C224	C	1.695625	0.467470	0.182026
C225	C	0.945624	-0.282501	-0.633409
C226	C	1.195624	-0.032501	-0.383409
C227	C	1.445624	0.217499	-0.133409
C228	C	1.695624	0.467499	0.116591
C229	C	0.905537	-0.325785	-0.666099
C230	C	1.155537	-0.075785	-0.416099
C231	C	1.405537	0.174215	-0.166099
C232	C	1.655537	0.424215	0.083901
C233	C	0.865436	-0.369089	-0.633348
C234	C	1.115436	-0.119089	-0.383348
C235	C	1.365436	0.130911	-0.133348
C236	C	1.615436	0.380911	0.116652
C237	C	0.865433	-0.369112	-0.567914
C238	C	1.115433	-0.119112	-0.317914
C239	C	1.365433	0.130888	-0.067914
C240	C	1.615433	0.380888	0.182086
C241	C	0.900565	-0.386731	-0.769762
C242	C	1.150565	-0.136731	-0.519762
C243	C	1.400565	0.113269	-0.269762
C244	C	1.650565	0.363269	-0.019762
C245	C	0.900572	-0.386709	-0.835195
C246	C	1.150572	-0.136709	-0.585195
C247	C	1.400572	0.113291	-0.335195
C248	C	1.650572	0.363291	-0.085195
C249	C	0.905540	-0.325714	-0.867920
C250	C	1.155540	-0.075714	-0.617920
C251	C	1.405540	0.174286	-0.367920
C252	C	1.655540	0.424286	-0.117920
C253	C	0.910516	-0.264738	-0.835204
C254	C	1.160516	-0.014738	-0.585204
C255	C	1.410516	0.235262	-0.335204
C256	C	1.660516	0.485262	-0.085204
C257	C	0.910513	-0.264762	-0.769770
C258	C	1.160513	-0.014762	-0.519770
C259	C	1.410513	0.235238	-0.269770
C260	C	1.660513	0.485238	-0.019770
C261	C	0.905534	-0.325765	-0.737051
C262	C	1.155534	-0.075765	-0.487051
C263	C	1.405534	0.174235	-0.237051
C264	C	1.655534	0.424235	0.012949
C265	C	0.945635	-0.282378	-0.971615
C266	C	1.195635	-0.032378	-0.721615
C267	C	1.445635	0.217622	-0.471615
C268	C	1.695635	0.467622	-0.221615
C269	C	0.945630	-0.282347	-1.037052
C270	C	1.195630	-0.032347	-0.787052
C271	C	1.445630	0.217653	-0.537052
C272	C	1.695630	0.467653	-0.287052
C273	C	0.865444	-0.368941	-1.036990
C274	C	1.115444	-0.118941	-0.786990
C275	C	1.365444	0.131059	-0.536990
C276	C	1.615444	0.381059	-0.286990
C277	C	0.865446	-0.368966	-0.971555
C278	C	1.115446	-0.118966	-0.721555
C279	C	1.365446	0.131034	-0.471555
C280	C	1.615446	0.381034	-0.221555
C281	C	0.905545	-0.325685	-0.938871
C282	C	1.155545	-0.075685	-0.688871
C283	C	1.405545	0.174315	-0.438871
C284	C	1.655545	0.424315	-0.188871
C285	C	0.905442	-0.325816	-0.139378
C286	C	1.155442	-0.075816	0.110622
C287	C	1.405442	0.174184	0.360622
C288	C	1.655442	0.424184	0.610622
C289	C	0.905541	-0.325631	-0.069738
C290	C	1.155541	-0.075631	0.180262
C291	C	1.405541	0.174369	0.430262
C292	C	1.655541	0.424369	0.680262
H293	H	0.666960	-0.404574	-0.374638
H294	H	0.916960	-0.154574	-0.124638
H295	H	1.166960	0.095426	0.125362
H296	H	1.416960	0.345426	0.375362
H297	H	0.914563	-0.215070	-0.861848
H298	H	1.164563	0.034930	-0.611848
H299	H	1.414563	0.284930	-0.361848
H300	H	1.664563	0.534930	-0.111848
H301	H	0.832734	-0.711798	-0.374778
H302	H	1.082734	-0.461798	-0.124778
H303	H	1.332734	-0.211798	0.125222
H304	H	1.582734	0.038202	0.375222
C305	C	0.989719	-0.929113	-0.218166
C306	C	1.239719	-0.679113	0.031834
C307	C	1.489719	-0.429113	0.281834
C308	C	1.739719	-0.179113	0.531834
H309	H	1.013610	-0.960271	-0.194341
H310	H	1.263610	-0.710271	0.055659
H311	H	1.513610	-0.460271	0.305659
H312	H	1.763610	-0.210271	0.555659
H313	H	0.965758	-0.901579	-0.190832
H314	H	1.215758	-0.651579	0.059168
H315	H	1.465758	-0.401579	0.309168
H316	H	1.715758	-0.151579	0.559168
H317	H	1.016999	-0.901495	-0.242171
H318	H	1.266999	-0.651495	0.007829
H319	H	1.516999	-0.401495	0.257829
H320	H	1.766999	-0.151495	0.507829
H321	H	0.896351	-0.436388	-0.743122
H322	H	1.146351	-0.186388	-0.493122
H323	H	1.396351	0.063612	-0.243122
H324	H	1.646351	0.313612	0.006878
H325	H	0.144586	-0.247150	-0.229705
H326	H	0.394586	0.002850	0.020295
H327	H	0.644586	0.252850	0.270295
H328	H	0.894586	0.502850	0.520295
C329	C	0.989633	-0.721792	-0.218114
C330	C	1.239633	-0.471792	0.031886
C331	C	1.489633	-0.221792	0.281886
C332	C	1.739633	0.028208	0.531886
H333	H	0.983909	-0.768957	-0.223853
H334	H	1.233909	-0.518957	0.026147
H335	H	1.483909	-0.268957	0.276147
H336	H	1.733909	-0.018957	0.526147
H337	H	0.980465	-0.710235	-0.176009
H338	H	1.230465	-0.460235	0.073991
H339	H	1.480465	-0.210235	0.323991
H340	H	1.730465	0.039765	0.573991
H341	H	1.031729	-0.710159	-0.227323
H342	H	1.281729	-0.460159	0.022677
H343	H	1.531729	-0.210159	0.272677
H344	H	1.781729	0.039841	0.522677
H345	H	0.978146	-0.583461	-0.229535
H346	H	1.228146	-0.333461	0.020465
H347	H	1.478146	-0.083461	0.270465
H348	H	1.728146	0.166539	0.520465
H349	H	0.832845	-1.067556	-0.374837
H350	H	1.082845	-0.817556	-0.124837
H351	H	1.332845	-0.567556	0.125163
H352	H	1.582845	-0.317556	0.375163
H353	H	0.978308	-1.067466	-0.229618
H354	H	1.228308	-0.817466	0.020382
H355	H	1.478308	-0.567466	0.270382
H356	H	1.728308	-0.317466	0.520382
C357	C	0.821353	-0.416557	-1.072941
C358	C	1.071353	-0.166557	-0.822941
C359	C	1.321353	0.083443	-0.572941
C360	C	1.571353	0.333443	-0.322941
H361	H	0.827099	-0.410347	-1.116601
H362	H	1.077099	-0.160347	-0.866601
H363	H	1.327099	0.089653	-0.616601
H364	H	1.577099	0.339653	-0.366601
H365	H	0.779259	-0.406671	-1.062188
H366	H	1.029259	-0.156671	-0.812188
H367	H	1.279259	0.093329	-0.562188
H368	H	1.529259	0.343329	-0.312188
H369	H	0.830509	-0.462037	-1.062222
H370	H	1.080509	-0.212037	-0.812222
H371	H	1.330509	0.037963	-0.562222
H372	H	1.580509	0.287963	-0.312222
H373	H	0.832804	-0.939318	-0.374817
H374	H	1.082804	-0.689318	-0.124817
H375	H	1.332804	-0.439318	0.125183
H376	H	1.582804	-0.189318	0.375183
H377	H	0.263297	-0.247178	-0.229658
H378	H	0.513297	0.002822	0.020342
H379	H	0.763297	0.252822	0.270342
H380	H	1.013297	0.502822	0.520342
H381	H	0.832687	-0.583552	-0.374759
H382	H	1.082687	-0.333552	-0.124759
H383	H	1.332687	-0.083552	0.125241
H384	H	1.582687	0.166448	0.375241
H385	H	0.978276	-0.247287	-0.541367
H386	H	1.228276	0.002713	-0.291367
H387	H	1.478276	0.252713	-0.041367
H388	H	1.728276	0.502713	0.208633
H389	H	0.978271	-0.247237	-0.660074
H390	H	1.228271	0.002763	-0.410074
H391	H	1.478271	0.252763	-0.160074
H392	H	1.728271	0.502763	0.089926
H393	H	0.978277	-0.247083	-1.063710
H394	H	1.228277	0.002917	-0.813710
H395	H	1.478277	0.252917	-0.563710
H396	H	1.728277	0.502917	-0.313710
H397	H	0.832794	-0.404329	-0.659969
H398	H	1.082794	-0.154329	-0.409969
H399	H	1.332794	0.095671	-0.159969
H400	H	1.582794	0.345671	0.090031
C401	C	0.538901	-0.416928	-0.386108
C402	C	0.788901	-0.166928	-0.136108
C403	C	1.038901	0.083072	0.113892
C404	C	1.288901	0.333072	0.363892
H405	H	0.495245	-0.410706	-0.380397
H406	H	0.745245	-0.160706	-0.130397
H407	H	0.995245	0.089294	0.119603
H408	H	1.245245	0.339294	0.369603
H409	H	0.549575	-0.462392	-0.376856
H410	H	0.799575	-0.212392	-0.126856
H411	H	1.049575	0.037608	0.123144
H412	H	1.299575	0.287608	0.373144
H413	H	0.549677	-0.407092	-0.428223
H414	H	0.799677	-0.157092	-0.178223
H415	H	1.049677	0.092908	0.071777
H416	H	1.299677	0.342908	0.321777
C417	C	0.821348	-0.416602	-0.935536
C418	C	1.071348	-0.166602	-0.685536
C419	C	1.321348	0.083398	-0.435536
C420	C	1.571348	0.333398	-0.185536
H421	H	0.797475	-0.442381	-0.964374
H422	H	1.047475	-0.192381	-0.714374
H423	H	1.297475	0.057619	-0.464374
H424	H	1.547475	0.307619	-0.214374
H425	H	0.794061	-0.390726	-0.909990
H426	H	1.044061	-0.140726	-0.659990
H427	H	1.294061	0.109274	-0.409990
H428	H	1.544061	0.359274	-0.159990
H429	H	0.845304	-0.446100	-0.910028
H430	H	1.095304	-0.196100	-0.660028
H431	H	1.345304	0.053900	-0.410028
H432	H	1.595304	0.303900	-0.160028
H433	H	0.832782	-0.404372	-0.541255
H434	H	1.082782	-0.154372	-0.291255
H435	H	1.332782	0.095628	-0.041255
H436	H	1.582782	0.345628	0.208745
H437	H	0.346319	-0.316007	-0.199786
H438	H	0.596319	-0.066007	0.050214
H439	H	0.846319	0.183993	0.300214
H440	H	1.096319	0.433993	0.550214
H441	H	0.144617	-0.404451	-0.374835
H442	H	0.394617	-0.154451	-0.124835
H443	H	0.644617	0.095549	0.125165
H444	H	0.894617	0.345549	0.375165
H445	H	0.914562	-0.215113	-0.743136
H446	H	1.164562	0.034887	-0.493136
H447	H	1.414562	0.284887	-0.243136
H448	H	1.664562	0.534887	0.006864
C449	C	0.474361	-0.314481	-0.183616
C450	C	0.724361	-0.064481	0.066384
C451	C	0.974361	0.185519	0.316384
C452	C	1.224361	0.435519	0.566384
H453	H	0.518025	-0.315261	-0.191685
H454	H	0.768025	-0.065261	0.058315
H455	H	1.018025	0.184739	0.308315
H456	H	1.268025	0.434739	0.558315
H457	H	0.463577	-0.351257	-0.157202
H458	H	0.713577	-0.101257	0.092798
H459	H	0.963577	0.148743	0.342798
H460	H	1.213577	0.398743	0.592798
H461	H	0.463650	-0.273237	-0.163655
H462	H	0.713650	-0.023237	0.086345
H463	H	0.963650	0.226763	0.336345
H464	H	1.213650	0.476763	0.586345
C465	C	0.989730	-0.234760	-0.935661
C466	C	1.239730	0.015240	-0.685661
C467	C	1.489730	0.265240	-0.435661
C468	C	1.739730	0.515240	-0.185661
H469	H	1.013601	-0.208958	-0.964536
H470	H	1.263601	0.041042	-0.714536
H471	H	1.513601	0.291042	-0.464536
H472	H	1.763601	0.541042	-0.214536
H473	H	1.017019	-0.260650	-0.910154
H474	H	1.267019	-0.010650	-0.660154
H475	H	1.517019	0.239350	-0.410154
H476	H	1.767019	0.489350	-0.160154
H477	H	0.965767	-0.205284	-0.910120
H478	H	1.215767	0.044716	-0.660120
H479	H	1.465767	0.294716	-0.410120
H480	H	1.715767	0.544716	-0.160120
H481	H	0.666936	-0.247254	-0.229519
H482	H	0.916936	0.002746	0.020481
H483	H	1.166936	0.252746	0.270481
H484	H	1.416936	0.502746	0.520481
C485	C	0.474606	-0.337273	-0.420674
C486	C	0.724606	-0.087273	-0.170674
C487	C	0.974606	0.162727	0.079326
C488	C	1.224606	0.412727	0.329326
H489	H	0.445786	-0.340493	-0.454301
H490	H	0.695786	-0.090493	-0.204301
H491	H	0.945786	0.159507	0.045699
H492	H	1.195786	0.409507	0.295699
H493	H	0.500100	-0.376509	-0.419787
H494	H	0.750100	-0.126509	-0.169787
H495	H	1.000100	0.123491	0.080213
H496	H	1.250100	0.373491	0.330213
H497	H	0.500168	-0.298489	-0.426232
H498	H	0.750168	-0.048489	-0.176232
H499	H	1.000168	0.201511	0.073768
H500	H	1.250168	0.451511	0.323768
C501	C	0.337198	-0.337244	-0.420726
C502	C	0.587198	-0.087244	-0.170726
C503	C	0.837198	0.162756	0.079274
C504	C	1.087198	0.412756	0.329274
H505	H	0.293534	-0.336449	-0.412660
H506	H	0.543534	-0.086449	-0.162660
H507	H	0.793534	0.163551	0.087340
H508	H	1.043534	0.413551	0.337340
H509	H	0.347906	-0.378483	-0.440689
H510	H	0.597906	-0.128483	-0.190689
H511	H	0.847906	0.121517	0.059311
H512	H	1.097906	0.371517	0.309311
H513	H	0.347986	-0.300463	-0.447138
H514	H	0.597986	-0.050463	-0.197138
H515	H	0.847986	0.199537	0.052862
H516	H	1.097986	0.449537	0.302862
C517	C	0.272677	-0.416869	-0.386212
C518	C	0.522677	-0.166869	-0.136212
C519	C	0.772677	0.083131	0.113788
C520	C	1.022677	0.333131	0.363788
H521	H	0.243824	-0.442675	-0.410048
H522	H	0.493824	-0.192675	-0.160048
H523	H	0.743824	0.057325	0.089952
H524	H	0.993824	0.307325	0.339952
H525	H	0.298150	-0.446329	-0.362188
H526	H	0.548150	-0.196329	-0.112188
H527	H	0.798150	0.053671	0.137812
H528	H	1.048150	0.303671	0.387812
H529	H	0.298256	-0.391021	-0.413547
H530	H	0.548256	-0.141021	-0.163547
H531	H	0.798256	0.108979	0.086453
H532	H	1.048256	0.358979	0.336453
C533	C	0.895107	-0.453777	-0.871179
C534	C	1.145107	-0.203777	-0.621179
C535	C	1.395107	0.046223	-0.371179
C536	C	1.645107	0.296223	-0.121179
H537	H	0.895830	-0.445029	-0.914835
H538	H	1.145830	-0.195029	-0.664835
H539	H	1.395830	0.054971	-0.414835
H540	H	1.645830	0.304971	-0.164835
H541	H	0.856953	-0.475433	-0.860431
H542	H	1.106953	-0.225433	-0.610431
H543	H	1.356953	0.024567	-0.360431
H544	H	1.606953	0.274567	-0.110431
H545	H	0.929180	-0.482242	-0.860475
H546	H	1.179180	-0.232242	-0.610475
H547	H	1.429180	0.017758	-0.360475
H548	H	1.679180	0.267758	-0.110475
H549	H	0.548223	-0.247239	-0.229561
H550	H	0.798223	0.002761	0.020439
H551	H	1.048223	0.252761	0.270439
H552	H	1.298223	0.502761	0.520439
