data_functionalizedCrystal
_audit_creation_method	'MofGen! by Chris Wilmer'
_symmetry_space_group_name_H-M	'P1'
_symmetry_Int_Tables_number	1
_symmetry_cell_setting	triclinic
loop_
_symmetry_equiv_pos_as_xyz
  x,y,z
_cell_length_a	14.971491
_cell_length_b	12.837938
_cell_length_c	14.048226
_cell_angle_alpha	89.995851
_cell_angle_beta	90.003182
_cell_angle_gamma	90.777563
loop_
_atom_site_label
_atom_site_type_symbol
_atom_site_fract_x
_atom_site_fract_y
_atom_site_fract_z
O1	O	1.198330	-0.135133	0.079196
O2	O	0.939294	-0.151307	0.079188
O3	O	1.063069	0.007690	0.079192
O4	O	1.074556	-0.294130	0.079191
O5	O	1.063065	0.007703	-0.079129
O6	O	0.939290	-0.151294	-0.079133
O7	O	1.198326	-0.135120	-0.079126
Zn8	Zn	1.068807	-0.143205	-0.104266
Zn9	Zn	1.068813	-0.143222	0.104329
O10	O	1.074552	-0.294117	-0.079130
C11	C	0.905906	-0.150576	0.000026
C12	C	0.806427	-0.148405	0.000024
C13	C	0.377934	-0.139047	0.086347
C14	C	0.471406	-0.141083	0.086343
C15	C	0.518136	-0.142101	0.000039
C16	C	0.471389	-0.141072	-0.086268
C17	C	0.377919	-0.139028	-0.086263
C18	C	0.666210	-0.145334	-0.086271
C19	C	0.759687	-0.147380	-0.086276
C20	C	0.759697	-0.147389	0.086335
C21	C	0.666227	-0.145345	0.086340
C22	C	0.619487	-0.144318	0.000033
C23	C	1.059186	0.046322	0.000033
C24	C	1.047612	0.161414	0.000040
C25	C	1.186755	0.402197	0.000073
C26	C	1.175884	0.510336	0.000079
C27	C	1.015001	0.485835	0.000064
C28	C	1.025872	0.377695	0.000058
C29	C	1.111751	0.335881	0.000061
C30	C	1.122621	0.227739	0.000049
C31	C	0.961739	0.203239	0.000040
C32	C	0.950868	0.311379	0.000046
C33	C	1.231714	-0.135851	0.000038
C34	C	1.331194	-0.138021	0.000047
C35	C	1.078435	0.667251	0.000041
C36	C	1.090010	0.552160	0.000073
N37	N	1.068816	-0.143226	0.246689
N38	N	1.068810	-0.143192	-0.246627
C39	C	1.123749	-0.072961	0.296509
C40	C	1.123752	-0.072958	0.396167
C41	C	1.068818	-0.143215	0.446003
C42	C	1.013883	-0.213488	0.396176
C43	C	1.013885	-0.213496	0.296520
C44	C	1.013881	-0.213466	0.603890
C45	C	1.013878	-0.213457	0.703553
C46	C	1.123748	-0.072928	0.703537
C47	C	1.123750	-0.072936	0.603881
C48	C	1.068814	-0.143207	0.554061
H49	H	0.509457	-0.141912	0.156617
Br50	Br	0.823106	-0.148755	-0.203404
Br51	Br	1.198300	0.022402	0.228885
H52	H	0.339864	-0.138204	-0.156537
Br53	Br	0.602807	-0.143977	0.203468
Br54	Br	0.834324	0.368137	0.000054
H55	H	1.236960	0.564328	0.000092
H56	H	0.969150	-0.270692	0.563330
Br57	Br	0.602778	-0.143924	-0.203403
H58	H	0.797757	-0.148227	0.156609
Br59	Br	1.303301	0.345443	0.000048
H60	H	0.339893	-0.138226	0.156626
Br61	Br	0.534807	-0.142448	-0.203397
H62	H	0.969155	-0.270714	0.255958
Br63	Br	0.859942	0.113232	0.000007
H64	H	1.192548	0.193696	0.000048
Br65	Br	0.898460	0.542602	0.000094
Br66	Br	1.198308	0.022399	0.463783
Br67	Br	1.198299	0.022443	0.771152
Br68	Br	1.198295	0.022422	0.536243
Br69	Br	0.939321	-0.308812	0.771180
Br70	Br	0.939334	-0.308848	0.463807
