data_functionalizedCrystal
_audit_creation_method	'MofGen! by Chris Wilmer'
_symmetry_space_group_name_H-M	'P1'
_symmetry_Int_Tables_number	1
_symmetry_cell_setting	triclinic
loop_
_symmetry_equiv_pos_as_xyz
  x,y,z
_cell_length_a	17.699083
_cell_length_b	19.188924
_cell_length_c	16.176319
_cell_angle_alpha	89.991125
_cell_angle_beta	89.998611
_cell_angle_gamma	83.212490
loop_
_atom_site_label
_atom_site_type_symbol
_atom_site_fract_x
_atom_site_fract_y
_atom_site_fract_z
O1	O	1.003960	0.088295	-0.068634
O2	O	0.783566	0.099782	-0.068662
O3	O	0.900126	-0.007610	-0.068638
O4	O	0.887400	0.195687	-0.068659
O5	O	0.900110	-0.007617	0.068855
O6	O	0.783550	0.099775	0.068831
O7	O	1.003944	0.088288	0.068859
Cu8	Cu	0.893746	0.094031	0.081399
Cu9	Cu	0.893765	0.094039	-0.081202
O10	O	0.887384	0.195680	0.068834
C11	C	0.755362	0.099367	0.000081
C12	C	0.671345	0.098132	0.000071
C13	C	0.622640	0.161169	0.000065
C14	C	0.543698	0.160005	0.000076
C15	C	0.513464	0.095803	0.000087
C16	C	0.562175	0.032761	0.000096
C17	C	0.641116	0.033926	0.000091
C18	C	0.243819	0.028060	0.000116
C19	C	0.164872	0.026900	0.000119
C20	C	0.146401	0.154139	0.000101
C21	C	0.225341	0.155305	0.000096
C22	C	0.274046	0.092263	0.000110
C23	C	0.359644	0.093526	0.000099
C24	C	0.427868	0.094538	0.000091
C25	C	0.899707	-0.033625	0.000110
C26	C	0.898472	-0.111132	0.000112
C27	C	0.897905	-0.147527	-0.074836
C28	C	0.896734	-0.220351	-0.074843
C29	C	0.896146	-0.256779	0.000103
C30	C	0.896710	-0.220374	0.075061
C31	C	0.897873	-0.147550	0.075065
N32	N	0.937384	-0.376398	0.055889
N33	N	0.936281	-0.445578	0.055879
C34	C	0.892641	-0.476192	0.000095
N35	N	0.850154	-0.435014	-0.055693
N36	N	0.851261	-0.365828	-0.055686
C37	C	0.894885	-0.335744	0.000107
C38	C	0.890803	-0.591552	-0.074865
C39	C	0.889627	-0.664376	-0.074869
C40	C	0.889610	-0.664398	0.075037
C41	C	0.890778	-0.591574	0.075038
C42	C	0.891378	-0.555155	0.000085
C43	C	1.032149	0.088703	0.000114
C44	C	1.116165	0.089938	0.000118
C45	C	0.887804	0.221695	0.000085
C46	C	0.889038	0.299202	0.000078
N47	N	0.893738	0.094025	0.195764
N48	N	0.893778	0.094040	-0.195568
C49	C	0.945366	0.046491	0.239039
C50	C	0.945370	0.046490	0.325586
C51	C	0.893749	0.094027	0.368857
C52	C	0.842115	0.141564	0.325576
C53	C	0.842108	0.141560	0.239030
C54	C	0.842141	0.141577	0.674604
C55	C	0.842153	0.141578	0.761156
C56	C	0.945403	0.046506	0.761160
C57	C	0.945396	0.046503	0.674615
C58	C	0.893760	0.094037	0.631341
C59	C	0.893755	0.094036	0.537497
C60	C	0.893756	0.094032	0.462700
H61	H	0.283465	-0.023272	0.000128
Cl62	Cl	0.777252	0.201342	0.815552
Cl63	Cl	0.891491	-0.545816	0.169264
H64	H	0.889161	-0.694008	-0.135903
Cl65	Cl	0.085167	0.233393	0.000089
H66	H	0.800067	0.180267	0.203797
Cl67	Cl	0.702346	-0.045324	0.000102
Cl68	Cl	0.888867	-0.710185	0.169256
H69	H	0.140259	-0.025384	0.000129
H70	H	0.800099	0.180281	0.639378
Cl71	Cl	0.777215	0.201323	0.379971
H72	H	0.987405	0.007784	0.203814
H73	H	0.647250	0.213450	0.000055
H74	H	0.896229	-0.250037	0.136082
H75	H	0.537552	-0.019514	0.000116
H76	H	0.987409	0.007784	0.360821
H77	H	0.504044	0.211336	0.000069
H78	H	0.898391	-0.117880	-0.135869
Cl79	Cl	0.263346	0.236019	0.000078
H80	H	0.896268	-0.249990	-0.135876
Cl81	Cl	1.010295	-0.013257	0.620221
Cl82	Cl	0.898585	-0.101793	0.169293
H83	H	0.891287	-0.561898	-0.135897
Cl84	Cl	1.010315	-0.013254	0.815566
