data_functionalizedCrystal
_audit_creation_method	'MofGen! by Chris Wilmer'
_symmetry_space_group_name_H-M	'P1'
_symmetry_Int_Tables_number	1
_symmetry_cell_setting	triclinic
loop_
_symmetry_equiv_pos_as_xyz
  x,y,z
_cell_length_a	14.560438
_cell_length_b	14.560438
_cell_length_c	14.560438
_cell_angle_alpha	59.997368
_cell_angle_beta	90.002394
_cell_angle_gamma	60.002811
loop_
_atom_site_label
_atom_site_type_symbol
_atom_site_fract_x
_atom_site_fract_y
_atom_site_fract_z
Zr1	Zr	0.884758	1.005328	-0.120575
O2	O	0.738111	1.196934	-0.267237
O3	O	0.929712	0.813721	-0.075607
O4	O	0.929711	1.005329	-0.267222
O5	O	0.738115	1.005327	0.075517
O6	O	1.080849	1.005331	-0.267219
O7	O	0.738113	1.005326	-0.075622
O8	O	1.080852	0.662581	0.075544
O9	O	0.738112	1.348077	-0.267247
O10	O	1.061679	0.892535	-0.056437
O11	O	0.948888	0.892533	0.056355
O12	O	0.948886	1.118126	-0.169247
O13	O	0.836095	1.118125	-0.056455
Zr14	Zr	1.125810	1.005333	0.120478
Zr15	Zr	1.125806	1.005333	-0.120571
Zr16	Zr	0.884762	1.005329	0.120474
Zr17	Zr	0.884760	1.246385	-0.120591
Zr18	Zr	1.125808	0.764276	0.120494
O19	O	1.080856	1.196941	0.075510
O20	O	1.080850	1.196939	-0.267232
O21	O	0.738116	1.196935	0.075505
O22	O	1.272457	0.813728	0.267140
O23	O	1.272452	0.813727	-0.075601
O24	O	0.929718	0.813722	0.267135
O25	O	1.272453	1.005335	-0.075614
O26	O	1.080857	1.005333	0.267125
O27	O	0.929719	1.005331	0.267122
O28	O	1.272455	1.005336	0.075525
O29	O	0.929713	1.348081	-0.267244
O30	O	1.080855	0.662581	0.267147
O31	O	1.272456	0.662584	0.267150
O32	O	1.272453	0.662584	0.075548
O33	O	0.738115	1.348078	-0.075644
O34	O	0.929716	1.348081	-0.075641
O35	O	1.061682	0.892536	0.169150
O36	O	1.174473	0.892537	0.056358
O37	O	1.061680	1.118129	-0.056452
O38	O	0.948889	1.118127	0.056340
C39	C	1.005282	0.703805	-0.000029
C40	C	1.005281	0.601470	-0.000022
C41	C	0.922015	0.636683	-0.083305
C42	C	0.922019	0.540543	-0.083334
C43	C	1.088562	0.373979	0.083213
C44	C	1.088561	0.470119	0.083236
C45	C	0.703770	1.005326	-0.000053
C46	C	0.601439	1.005324	-0.000055
C47	C	0.612237	0.887570	0.058830
C48	C	0.516082	0.887576	0.058840
C49	C	0.398334	1.123101	-0.058929
C50	C	0.494488	1.123094	-0.058932
C51	C	0.719188	0.769800	0.117707
C52	C	0.729991	0.652036	0.176596
C53	C	0.633836	0.652043	0.176606
C54	C	0.526878	0.769813	0.117728
C55	C	1.306798	1.005336	-0.000044
C56	C	1.409130	1.005338	-0.000042
C57	C	1.005279	1.005330	-0.301565
C58	C	1.005278	1.005330	-0.403897
C59	C	1.005286	1.306856	-0.000068
C60	C	1.005287	1.409191	-0.000074
C61	C	0.922022	1.005331	-0.548137
C62	C	0.922017	1.005325	-0.451982
C63	C	1.088555	1.005327	-0.451965
C64	C	1.088563	1.005324	-0.548113
C65	C	1.005289	1.005332	0.301468
C66	C	1.005290	1.005332	0.403800
C67	C	1.306796	0.703811	-0.000024
C68	C	1.409127	0.601477	-0.000016
C69	C	1.005286	0.703806	0.301487
C70	C	1.005287	0.601472	0.403826
C71	C	1.306801	0.703812	0.301492
C72	C	1.409133	0.601479	0.403832
C73	C	0.703767	1.306850	-0.301589
C74	C	0.601435	1.409183	-0.403929
C75	C	0.703772	1.306851	-0.000073
C76	C	0.601442	1.409185	-0.000081
C77	C	1.005282	1.306855	-0.301584
C78	C	1.005281	1.409190	-0.403923
C79	C	1.398327	0.553397	-0.058888
C80	C	1.494481	0.457252	-0.058884
C81	C	1.612231	0.457272	0.058872
C82	C	1.516078	0.553422	0.058861
C83	C	1.064164	0.553394	0.510783
C84	C	1.064152	0.457249	0.606937
C85	C	0.946385	0.457264	0.489163
C86	C	0.946391	0.553414	0.393012
C87	C	1.516084	0.553401	0.393039
C88	C	1.612232	0.457257	0.489202
C89	C	1.494464	0.457273	0.606949
C90	C	1.398318	0.553422	0.510787
H91	H	1.156373	0.441436	0.151057
H92	H	1.485678	0.418111	-0.106825
H93	H	1.156352	1.005323	-0.412804
F94	F	1.177197	1.005318	-0.599266
H95	H	1.699315	0.418116	0.480406
H96	H	1.112094	0.418110	0.694023
H97	H	1.311246	0.592533	-0.106841
F98	F	1.726061	0.406115	0.121534
F99	F	1.126845	0.604540	0.522296
H100	H	0.898435	0.418121	0.480372
H101	H	0.311244	1.218984	-0.106868
F102	F	1.527576	0.604600	0.121519
F103	F	1.284482	0.604598	0.522278
F104	F	0.883717	0.604591	0.279170
H105	H	0.854197	0.743632	-0.151094
F106	F	1.527598	0.604550	0.279212
H107	H	0.817080	0.556153	0.224541
H108	H	0.797488	0.769782	0.117703
H109	H	0.854217	0.569225	-0.151153
F110	F	1.177185	0.234182	0.171822
F111	F	0.424543	0.769813	0.117750
H112	H	1.485672	0.418131	0.694041
H113	H	0.642637	0.556154	0.224566
H114	H	0.485691	1.218980	-0.106860
H115	H	0.854218	1.005335	-0.587285
H116	H	0.854214	1.005322	-0.412850
