data_functionalizedCrystal
_audit_creation_method	'MofGen! by Chris Wilmer'
_symmetry_space_group_name_H-M	'P1'
_symmetry_Int_Tables_number	1
_symmetry_cell_setting	triclinic
loop_
_symmetry_equiv_pos_as_xyz
  x,y,z
_cell_length_a	11.169417
_cell_length_b	19.077713
_cell_length_c	11.169409
_cell_angle_alpha	92.261581
_cell_angle_beta	89.980487
_cell_angle_gamma	87.733990
loop_
_atom_site_label
_atom_site_type_symbol
_atom_site_fract_x
_atom_site_fract_y
_atom_site_fract_z
Zn1	Zn	1.853982	-0.280099	-0.697688
Zn2	Zn	2.187315	0.053235	-0.364355
Zn3	Zn	2.520648	0.386568	-0.031021
Zn4	Zn	1.861864	-0.397810	-0.505055
Zn5	Zn	2.195197	-0.064477	-0.171722
Zn6	Zn	2.528530	0.268857	0.161612
Zn7	Zn	1.653270	-0.280142	-0.497027
Zn8	Zn	1.986604	0.053191	-0.163693
Zn9	Zn	2.319937	0.386524	0.169640
Zn10	Zn	1.661264	-0.397753	-0.705697
Zn11	Zn	1.994597	-0.064420	-0.372364
Zn12	Zn	2.327931	0.268913	-0.039030
O13	O	1.757595	-0.338951	-0.601367
O14	O	2.090928	-0.005618	-0.268033
O15	O	2.424262	0.327716	0.065300
O16	O	2.022977	-0.295719	-0.672143
O17	O	2.356311	0.037615	-0.338810
O18	O	2.689644	0.370948	-0.005476
O19	O	1.834147	-0.382243	-0.336043
O20	O	2.167480	-0.048910	-0.002710
O21	O	2.500814	0.284424	0.330624
O22	O	1.673251	-0.181653	-0.516933
O23	O	2.006584	0.151680	-0.183600
O24	O	2.339918	0.485013	0.149734
O25	O	2.028768	-0.382201	-0.530616
O26	O	2.362102	-0.048867	-0.197283
O27	O	2.695435	0.284466	0.136050
O28	O	1.820713	-0.181621	-0.664358
O29	O	2.154046	0.151712	-0.331025
O30	O	2.487379	0.485046	0.002309
O31	O	1.680894	-0.295793	-0.330145
O32	O	2.014228	0.037540	0.003189
O33	O	2.347561	0.370874	0.336522
O34	O	1.486381	-0.295738	-0.524699
O35	O	1.819714	0.037595	-0.191366
O36	O	2.153047	0.370928	0.141968
O37	O	1.686875	-0.382104	-0.872582
O38	O	2.020208	-0.048771	-0.539248
O39	O	2.353542	0.284562	-0.205915
O40	O	1.492254	-0.382147	-0.678008
O41	O	1.825587	-0.048813	-0.344675
O42	O	2.158920	0.284520	-0.011342
O43	O	1.828464	-0.295664	-0.866697
O44	O	2.161797	0.037670	-0.533364
O45	O	2.495130	0.371003	-0.200031
O46	O	1.841898	-0.496286	-0.538382
O47	O	2.175231	-0.162952	-0.205049
O48	O	2.508565	0.170381	0.128284
O49	O	1.694518	-0.496244	-0.685793
O50	O	2.027851	-0.162911	-0.352460
O51	O	2.361185	0.170423	-0.019127
C52	C	1.445770	-0.338942	-0.601352
C53	C	1.779103	-0.005608	-0.268019
C54	C	2.112436	0.327725	0.065314
C55	C	1.312371	-0.338954	-0.601376
C56	C	1.645704	-0.005621	-0.268042
C57	C	1.979037	0.327712	0.065291
C58	C	1.769963	-0.521800	-0.613854
C59	C	2.103297	-0.188467	-0.280521
C60	C	2.436630	0.144866	0.052812
C61	C	1.775364	-0.600024	-0.619237
C62	C	2.108698	-0.266691	-0.285903
C63	C	2.442031	0.066643	0.047430
C64	C	1.814097	-1.040332	-0.657805
C65	C	2.147431	-0.706999	-0.324471
C66	C	2.480764	-0.373666	0.008862
C67	C	1.809009	-0.966833	-0.652737
C68	C	2.142342	-0.633499	-0.319404
C69	C	2.475676	-0.300166	0.013930
C70	C	1.729751	-0.930166	-0.573395
C71	C	2.063084	-0.596833	-0.240062
C72	C	2.396417	-0.263499	0.093272
C73	C	1.655584	-0.967003	-0.499108
C74	C	1.988918	-0.633669	-0.165774
C75	C	2.322251	-0.300336	0.167559
C76	C	1.660679	-1.040501	-0.504170
C77	C	1.994013	-0.707168	-0.170837
C78	C	2.327346	-0.373834	0.162496
C79	C	1.706293	-0.710359	-0.550012
C80	C	2.039626	-0.377026	-0.216679
C81	C	2.372959	-0.043692	0.116655
C82	C	1.701201	-0.636856	-0.544957
C83	C	2.034534	-0.303522	-0.211624
C84	C	2.367867	0.029811	0.121709
C85	C	1.854628	-0.636691	-0.698586
C86	C	2.187961	-0.303357	-0.365252
C87	C	2.521295	0.029976	-0.031919
C88	C	1.859711	-0.710190	-0.703646
C89	C	2.193044	-0.376857	-0.370313
C90	C	2.526377	-0.043524	-0.036980
C91	C	1.785549	-0.747021	-0.629355
C92	C	2.118882	-0.413687	-0.296021
C93	C	2.452216	-0.080354	0.037312
N94	N	1.724545	-0.855038	-0.568216
N95	N	2.057879	-0.521705	-0.234882
N96	N	2.391212	-0.188371	0.098451
N97	N	1.790761	-0.822147	-0.634529
N98	N	2.124094	-0.488814	-0.301195
N99	N	2.457428	-0.155481	0.032138
C100	C	2.070638	-0.338961	-0.601382
C101	C	2.403971	-0.005628	-0.268048
C102	C	2.737305	0.327706	0.065285
C103	C	2.204038	-0.338965	-0.601388
C104	C	2.537372	-0.005632	-0.268055
C105	C	2.870705	0.327701	0.065278
C106	C	1.757682	-0.338873	-0.914404
C107	C	2.091015	-0.005540	-0.581071
C108	C	2.424348	0.327794	-0.247737
C109	C	1.757719	-0.338840	-1.047802
C110	C	2.091052	-0.005506	-0.714468
C111	C	2.424385	0.327827	-0.381135
C112	C	1.745211	-0.155388	-0.588857
C113	C	2.078544	0.177946	-0.255523
C114	C	2.411878	0.511279	0.077810
C115	C	1.739934	-0.077164	-0.583526
C116	C	2.073267	0.256170	-0.250192
C117	C	2.406600	0.589503	0.083141
C118	C	1.757574	-0.338978	-0.289544
C119	C	2.090907	-0.005645	0.043790
C120	C	2.424241	0.327689	0.377123
C121	C	1.757756	-0.338813	-0.156133
C122	C	2.091089	-0.005480	0.177200
C123	C	2.424423	0.327854	0.510534
H124	H	1.878626	-1.070181	-0.722425
H125	H	2.211960	-0.736848	-0.389092
H126	H	2.545293	-0.403514	-0.055759
H127	H	1.915009	-0.606697	-0.759069
H128	H	2.248342	-0.273363	-0.425736
H129	H	2.581675	0.059970	-0.092402
H130	H	1.636654	-0.607005	-0.480344
H131	H	1.969988	-0.273672	-0.147011
H132	H	2.303321	0.059662	0.186322
H133	H	1.645904	-0.740337	-0.489519
H134	H	1.979238	-0.407004	-0.156185
H135	H	2.312571	-0.073671	0.177148
H136	H	1.591055	-0.937145	-0.434500
H137	H	1.924388	-0.603811	-0.101166
H138	H	2.257721	-0.270478	0.232167
H139	H	1.869400	-0.936845	-0.713220
H140	H	2.202733	-0.603512	-0.379887
H141	H	2.536066	-0.270178	-0.046553
H142	H	1.924265	-0.740039	-0.768241
H143	H	2.257599	-0.406706	-0.434908
H144	H	2.590932	-0.073373	-0.101574
H145	H	1.600288	-1.070488	-0.443684
H146	H	1.933621	-0.737155	-0.110351
H147	H	2.266954	-0.403822	0.222983
