data_functionalizedCrystal
_audit_creation_method	'MofGen! by Chris Wilmer'
_symmetry_space_group_name_H-M	'P1'
_symmetry_Int_Tables_number	1
_symmetry_cell_setting	triclinic
loop_
_symmetry_equiv_pos_as_xyz
  x,y,z
_cell_length_a	6.817900
_cell_length_b	16.418049
_cell_length_c	10.773894
_cell_angle_alpha	96.344867
_cell_angle_beta	96.645922
_cell_angle_gamma	103.389670
loop_
_atom_site_label
_atom_site_type_symbol
_atom_site_fract_x
_atom_site_fract_y
_atom_site_fract_z
V1	V	-3.948413	-0.112805	-0.389372
O2	O	-3.937980	0.008588	-0.381508
O3	O	-3.899926	-0.226719	-0.387143
O4	O	-3.866089	-0.109680	-0.558992
O5	O	-3.972051	-0.109261	-0.208470
V6	V	-4.436448	-0.098449	-0.367682
O7	O	-4.199774	-0.144295	-0.436951
O8	O	-4.635285	-0.066958	-0.320102
O9	O	-4.261729	0.015465	-0.369910
O10	O	-4.564279	-0.219842	-0.375546
O11	O	-4.530207	-0.101992	-0.548584
O12	O	-4.295567	-0.101574	-0.198061
C13	C	-3.746003	-0.254532	-0.381113
C14	C	-3.787420	-0.347649	-0.380422
C15	C	-3.702840	-0.105236	-0.600321
C16	C	-3.716813	-0.103435	-0.738989
C17	C	-4.063518	-0.566102	-0.385095
C18	C	-4.102420	-0.653596	-0.384456
C19	C	-3.740700	-0.645151	-0.371967
C20	C	-3.701803	-0.557659	-0.372614
C21	C	-3.863218	-0.518136	-0.379172
C22	C	-3.941017	-0.693123	-0.377886
C23	C	-3.983194	-0.787988	-0.377193
C24	C	-3.821038	-0.423265	-0.379867
C25	C	-3.894885	-0.106557	-0.806864
C26	C	-3.909332	-0.104695	-0.950184
C27	C	-4.078994	0.043274	-0.375937
C28	C	-4.016814	0.136390	-0.376636
C29	C	-4.122159	-0.106020	-0.156726
C30	C	-4.087424	-0.107817	-0.018056
H31	H	-4.194955	-0.533925	-0.390433
O32	O	-4.296985	-0.700249	-0.390414
C33	C	-4.346780	-0.761630	-0.498974
H34	H	-4.243960	-0.740210	-0.571528
H35	H	-4.512715	-0.769886	-0.540920
H36	H	-4.323934	-0.824428	-0.472258
O37	O	-3.584138	-0.683673	-0.365536
C38	C	-3.661420	-0.771184	-0.366262
H39	H	-3.816145	-0.782923	-0.331851
H40	H	-3.551469	-0.795849	-0.301158
H41	H	-3.679138	-0.805543	-0.466360
H42	H	-4.229200	-0.111871	-0.970069
O43	O	-3.507087	-0.511179	-0.366796
C44	C	-3.372962	-0.564824	-0.360890
H45	H	-3.447679	-0.624590	-0.322565
H46	H	-3.226002	-0.530700	-0.295845
H47	H	-3.336744	-0.582560	-0.459481
H48	H	-3.767557	-0.100639	-0.998173
O49	O	-4.064026	-0.111538	-0.749594
C50	C	-4.101529	-0.185489	-0.691769
H51	H	-4.027054	-0.233479	-0.739531
H52	H	-4.272866	-0.213579	-0.701565
H53	H	-4.034999	-0.169209	-0.587457
O54	O	-3.547772	-0.098490	-0.796350
C55	C	-3.510206	-0.024514	-0.854115
H56	H	-3.657710	-0.003597	-0.873299
H57	H	-3.450855	-0.037938	-0.946979
H58	H	-3.391676	0.027810	-0.788779
