data_functionalizedCrystal
_audit_creation_method	'MofGen! by Chris Wilmer'
_symmetry_space_group_name_H-M	'P1'
_symmetry_Int_Tables_number	1
_symmetry_cell_setting	triclinic
loop_
_symmetry_equiv_pos_as_xyz
  x,y,z
_cell_length_a	23.532361
_cell_length_b	22.010155
_cell_length_c	12.811415
_cell_angle_alpha	95.426581
_cell_angle_beta	83.439682
_cell_angle_gamma	90.004127
loop_
_atom_site_label
_atom_site_type_symbol
_atom_site_fract_x
_atom_site_fract_y
_atom_site_fract_z
O1	O	0.755973	0.057470	0.127160
O2	O	1.089307	0.390803	0.460493
O3	O	1.422640	0.724136	0.793827
O4	O	0.590207	0.058502	0.145646
O5	O	0.923540	0.391836	0.478979
O6	O	1.256874	0.725169	0.812313
O7	O	0.677260	0.049562	-0.016432
O8	O	1.010593	0.382895	0.316901
O9	O	1.343926	0.716229	0.650235
O10	O	0.668921	0.066410	0.289238
O11	O	1.002254	0.399743	0.622571
O12	O	1.335587	0.733077	0.955905
O13	O	0.677244	-0.051487	-0.016408
O14	O	1.010577	0.281846	0.316926
O15	O	1.343910	0.615180	0.650259
O16	O	0.590191	-0.042547	0.145670
O17	O	0.923524	0.290787	0.479004
O18	O	1.256858	0.624120	0.812337
O19	O	0.755958	-0.043579	0.127184
O20	O	1.089291	0.289754	0.460518
O21	O	1.422624	0.623087	0.793851
Cu22	Cu	0.673073	-0.052290	0.136430
Cu23	Cu	1.006406	0.281044	0.469763
Cu24	Cu	1.339740	0.614377	0.803096
Cu25	Cu	0.673092	0.067213	0.136401
Cu26	Cu	1.006425	0.400546	0.469734
Cu27	Cu	1.339758	0.733879	0.803067
O28	O	0.668905	-0.034639	0.289262
O29	O	1.002238	0.298694	0.622596
O30	O	1.335572	0.632028	0.955929
C31	C	0.568980	0.007954	0.145195
C32	C	0.902313	0.341288	0.478529
C33	C	1.235647	0.674621	0.811862
C34	C	0.505754	0.007883	0.143803
C35	C	0.839087	0.341216	0.477137
C36	C	1.172421	0.674550	0.810470
N37	N	0.673064	-0.136341	0.136449
N38	N	1.006397	0.196992	0.469782
N39	N	1.339731	0.530326	0.803116
C40	C	0.232486	0.062626	0.137702
C41	C	0.565819	0.395959	0.471036
C42	C	0.899152	0.729292	0.804369
C43	C	0.291893	0.062700	0.139020
C44	C	0.625226	0.396033	0.472353
C45	C	0.958559	0.729366	0.805686
O46	O	0.322629	0.109579	0.139654
O47	O	0.655963	0.442913	0.472987
O48	O	0.989296	0.776246	0.806320
N49	N	0.321593	0.007654	0.139699
N50	N	0.654927	0.340988	0.473032
N51	N	0.988260	0.674321	0.806365
C52	C	0.291885	-0.047469	0.139049
C53	C	0.625218	0.285864	0.472382
C54	C	0.958551	0.619197	0.805716
O55	O	0.322602	-0.094283	0.139746
O56	O	0.655936	0.239051	0.473080
O57	O	0.989269	0.572384	0.806413
C58	C	0.232479	-0.047543	0.137724
C59	C	0.565813	0.285790	0.471057
C60	C	0.899146	0.619124	0.804391
C61	C	0.202781	0.007506	0.137056
C62	C	0.536114	0.340840	0.470389
C63	C	0.869448	0.674173	0.803723
C64	C	0.202787	0.117671	0.137033
C65	C	0.536121	0.451004	0.470366
C66	C	0.869454	0.784337	0.803700
C67	C	0.143384	0.117596	0.135718
C68	C	0.476718	0.450930	0.469051
C69	C	0.810051	0.784263	0.802384
C70	C	0.113680	0.062477	0.135071
C71	C	0.447013	0.395811	0.468405
C72	C	0.780346	0.729144	0.801738
C73	C	0.143378	0.007432	0.135740
C74	C	0.476711	0.340766	0.469074
C75	C	0.810045	0.674099	0.802407
C76	C	0.202772	-0.102667	0.137067
C77	C	0.536106	0.230667	0.470400
C78	C	0.869439	0.564000	0.803734
C79	C	0.143363	-0.102736	0.135741
C80	C	0.476696	0.230598	0.469074
C81	C	0.810030	0.563931	0.802408
C82	C	0.113665	-0.047686	0.135073
C83	C	0.446998	0.285647	0.468406
C84	C	0.780331	0.618981	0.801740
C85	C	0.054270	-0.047761	0.133779
C86	C	0.387604	0.285572	0.467112
C87	C	0.720937	0.618905	0.800445
N88	N	0.024570	0.007284	0.133100
N89	N	0.357903	0.340617	0.466433
N90	N	0.691236	0.673951	0.799767
C91	C	0.054274	0.062403	0.133746
C92	C	0.387608	0.395737	0.467080
C93	C	0.720941	0.729070	0.800413
C94	C	0.416640	-0.047310	0.141830
C95	C	0.749973	0.286023	0.475163
C96	C	1.083307	0.619357	0.808497
C97	C	0.476044	-0.047236	0.143163
C98	C	0.809377	0.286097	0.476496
C99	C	1.142710	0.619430	0.809829
C100	C	0.476048	0.062933	0.143131
C101	C	0.809381	0.396266	0.476464
C102	C	1.142714	0.729600	0.809798
C103	C	0.416642	0.062859	0.141806
C104	C	0.749976	0.396192	0.475139
C105	C	1.083309	0.729526	0.808473
C106	C	0.386939	0.007735	0.141151
C107	C	0.720273	0.341069	0.474484
C108	C	1.053606	0.674402	0.807818
C109	C	-0.070476	0.062243	0.130985
C110	C	0.262857	0.395577	0.464318
C111	C	0.596190	0.728910	0.797651
C112	C	-0.129885	0.062164	0.129673
C113	C	0.203449	0.395498	0.463007
C114	C	0.536782	0.728831	0.796340
C115	C	-0.129883	-0.048005	0.129699
C116	C	0.203450	0.285329	0.463033
C117	C	0.536784	0.618662	0.796366
C118	C	-0.070480	-0.047926	0.131016
C119	C	0.262853	0.285408	0.464349
C120	C	0.596186	0.618741	0.797683
C121	C	-0.040778	0.007203	0.131655
C122	C	0.292555	0.340536	0.464988
C123	C	0.625889	0.673870	0.798322
O124	O	0.023496	-0.094617	0.133140
O125	O	0.356830	0.238716	0.466473
O126	O	0.690163	0.572050	0.799806
O127	O	0.023550	0.109208	0.133035
O128	O	0.356884	0.442542	0.466368
O129	O	0.690217	0.775875	0.799701
C130	C	0.711641	-0.560081	0.064643
C131	C	1.044974	-0.226748	0.397976
C132	C	1.378308	0.106585	0.731309
C133	C	0.711643	-0.623689	0.064636
C134	C	1.044977	-0.290356	0.397969
C135	C	1.378310	0.042977	0.731302
O136	O	0.744420	-0.659948	0.003597
O137	O	1.077753	-0.326614	0.336930
O138	O	1.411087	0.006719	0.670264
N139	N	0.673091	-0.651552	0.136379
N140	N	1.006425	-0.318219	0.469712
N141	N	1.339758	0.015115	0.803046
C142	C	0.634530	-0.615803	0.208127
C143	C	0.967863	-0.282470	0.541460
C144	C	1.301197	0.050863	0.874794
O145	O	0.601738	-0.645344	0.269149
O146	O	0.935072	-0.312010	0.602482
O147	O	1.268405	0.021323	0.935816
C148	C	0.634525	-0.552197	0.208128
C149	C	0.967858	-0.218864	0.541462
C150	C	1.301192	0.114470	0.874795
C151	C	0.673084	-0.524337	0.136387
C152	C	1.006417	-0.191004	0.469721
C153	C	1.339750	0.142329	0.803054
C154	C	0.750196	-0.532221	-0.007093
C155	C	1.083529	-0.198888	0.326240
C156	C	1.416863	0.134445	0.659574
C157	C	0.750194	-0.468618	-0.007084
C158	C	1.083527	-0.135284	0.326249
C159	C	1.416860	0.198049	0.659582
C160	C	0.711637	-0.432874	0.064660
C161	C	1.044970	-0.099541	0.397994
C162	C	1.378303	0.233793	0.731327
C163	C	0.673082	-0.460734	0.136396
C164	C	1.006415	-0.127400	0.469730
C165	C	1.339748	0.205933	0.803063
C166	C	0.595962	-0.516450	0.279871
C167	C	0.929295	-0.183117	0.613204
C168	C	1.262628	0.150217	0.946537
C169	C	0.595960	-0.452839	0.279865
C170	C	0.929293	-0.119506	0.613199
C171	C	1.262626	0.213827	0.946532
C172	C	0.634518	-0.424980	0.208124
C173	C	0.967852	-0.091647	0.541458
C174	C	1.301185	0.241687	0.874791
C175	C	0.634522	-0.361386	0.208150
C176	C	0.967856	-0.028053	0.541483
C177	C	1.301189	0.305281	0.874816
N178	N	0.673075	-0.333524	0.136406
N179	N	1.006408	-0.000190	0.469740
N180	N	1.339741	0.333143	0.803073
C181	C	0.711632	-0.369267	0.064662
C182	C	1.044965	-0.035934	0.397995
C183	C	1.378298	0.297399	0.731328
C184	C	0.634543	-0.749382	0.208117
C185	C	0.967876	-0.416048	0.541451
C186	C	1.301209	-0.082715	0.874784
C187	C	0.634550	-0.812987	0.208122
C188	C	0.967883	-0.479653	0.541455
C189	C	1.301216	-0.146320	0.874788
C190	C	0.711663	-0.820868	0.064629
C191	C	1.044996	-0.487535	0.397962
C192	C	1.378329	-0.154202	0.731295
C193	C	0.711658	-0.757262	0.064630
C194	C	1.044991	-0.423929	0.397963
C195	C	1.378324	-0.090595	0.731297
C196	C	0.673095	-0.721519	0.136374
C197	C	1.006428	-0.388186	0.469707
C198	C	1.339761	-0.054852	0.803041
C199	C	0.711625	-0.235695	0.064686
C200	C	1.044958	0.097639	0.398020
C201	C	1.378292	0.430972	0.731353
C202	C	0.711621	-0.172085	0.064704
C203	C	1.044954	0.161248	0.398038
C204	C	1.378288	0.494582	0.731371
C205	C	0.634506	-0.164209	0.208193
C206	C	0.967840	0.169124	0.541527
C207	C	1.301173	0.502458	0.874860
C208	C	0.634512	-0.227813	0.208179
C209	C	0.967845	0.105520	0.541513
C210	C	1.301179	0.438854	0.874846
C211	C	0.673073	-0.263555	0.136417
C212	C	1.006407	0.069778	0.469750
C213	C	1.339740	0.403112	0.803084
O214	O	0.601761	-0.325089	0.269154
O215	O	0.935094	0.008244	0.602488
O216	O	1.268428	0.341577	0.935821
O217	O	0.744413	-0.339719	0.003641
O218	O	1.077746	-0.006386	0.336974
O219	O	1.411080	0.326947	0.670308
C220	C	0.777185	0.006970	0.127635
C221	C	1.110518	0.340303	0.460968
C222	C	1.443851	0.673637	0.794302
C223	C	0.840411	0.007045	0.129027
C224	C	1.173744	0.340379	0.462360
C225	C	1.507077	0.673712	0.795694
C226	C	0.676784	-0.003116	-0.055518
C227	C	1.010117	0.330217	0.277815
C228	C	1.343451	0.663551	0.611148
C229	C	0.675384	-0.009533	-0.172020
C230	C	1.008717	0.323800	0.161313
C231	C	1.342050	0.657133	0.494647
N232	N	0.673105	0.151264	0.136373
N233	N	1.006438	0.484597	0.469706
N234	N	1.339772	0.817930	0.803040
C235	C	0.672759	0.088585	-0.390953
C236	C	1.006093	0.421918	-0.057620
C237	C	1.339426	0.755251	0.275713
C238	C	0.671444	0.082558	-0.500417
C239	C	1.004777	0.415891	-0.167083
C240	C	1.338110	0.749225	0.166250
C241	C	0.671432	-0.027612	-0.500411
C242	C	1.004766	0.305721	-0.167078
C243	C	1.338099	0.639054	0.166255
C244	C	0.672748	-0.021586	-0.390948
C245	C	1.006081	0.311748	-0.057614
C246	C	1.339415	0.645081	0.275719
C247	C	0.673412	0.036515	-0.336223
C248	C	1.006746	0.369848	-0.002890
C249	C	1.340079	0.703181	0.330444
C250	C	0.674732	0.042541	-0.226758
C251	C	1.008066	0.375874	0.106575
C252	C	1.341399	0.709207	0.439908
C253	C	0.674717	-0.067629	-0.226754
C254	C	1.008050	0.265704	0.106579
C255	C	1.341384	0.599037	0.439913
C256	C	0.673401	-0.073656	-0.336217
C257	C	1.006734	0.259678	-0.002884
C258	C	1.340068	0.593011	0.330449
C259	C	0.669381	0.018040	0.328349
C260	C	1.002714	0.351374	0.661682
C261	C	1.336047	0.684707	0.995015
C262	C	0.670781	0.024462	0.444850
C263	C	1.004114	0.357795	0.778184
C264	C	1.337448	0.691128	1.111517
H265	H	-0.154063	0.106995	0.129132
H266	H	0.179271	0.440328	0.462466
H267	H	0.512604	0.773661	0.795799
N268	N	0.672693	-0.136317	-0.395249
N269	N	1.006026	0.197016	-0.061916
N270	N	1.339360	0.530349	0.271417
H271	H	0.637661	-0.158866	-0.367318
H272	H	0.970995	0.174467	-0.033985
H273	H	1.304328	0.507801	0.299349
H274	H	0.671783	-0.132181	-0.472885
H275	H	1.005116	0.201152	-0.139552
H276	H	1.338450	0.534485	0.193781
N277	N	0.670718	-0.090274	-0.559441
N278	N	1.004052	0.243059	-0.226108
N279	N	1.337385	0.576393	0.107226
H280	H	0.706207	-0.113794	-0.549274
H281	H	1.039540	0.219539	-0.215940
H282	H	1.372874	0.552872	0.117393
H283	H	0.635662	-0.112768	-0.531471
H284	H	0.968996	0.220565	-0.198137
H285	H	1.302329	0.553899	0.135196
H286	H	0.564563	-0.539124	0.338288
H287	H	0.897897	-0.205791	0.671621
H288	H	1.231230	0.127543	1.004954
N289	N	0.753232	-0.727210	-0.012761
N290	N	1.086565	-0.393877	0.320573
N291	N	1.419899	-0.060544	0.653906
H292	H	0.778540	-0.698617	0.027092
H293	H	1.111874	-0.365284	0.360426
H294	H	1.445207	-0.031951	0.693759
H295	H	0.777619	-0.759544	-0.058196
H296	H	1.110953	-0.426210	0.275138
H297	H	1.444286	-0.092877	0.608471
N298	N	0.675412	0.105214	-0.167760
N299	N	1.008745	0.438547	0.165573
N300	N	1.342079	0.771881	0.498907
H301	H	0.640686	0.110645	-0.113481
H302	H	0.974019	0.443978	0.219853
H303	H	1.307353	0.777311	0.553186
H304	H	0.711231	0.109683	-0.131272
H305	H	1.044564	0.443016	0.202062
H306	H	1.377897	0.776349	0.535395
N307	N	0.753251	-0.859427	-0.012756
N308	N	1.086584	-0.526094	0.320577
N309	N	1.419917	-0.192760	0.653910
H310	H	0.747399	-0.903948	-0.001868
H311	H	1.080732	-0.570614	0.331466
H312	H	1.414065	-0.237281	0.664799
H313	H	0.746497	-0.852406	-0.087151
H314	H	1.079830	-0.519073	0.246183
H315	H	1.413163	-0.185739	0.579516
N316	N	0.384613	0.122233	0.141083
N317	N	0.717946	0.455566	0.474416
N318	N	1.051279	0.788899	0.807749
H319	H	0.412450	0.157159	0.141695
H320	H	0.745784	0.490492	0.475029
H321	H	1.079117	0.823825	0.808362
H322	H	0.364435	0.121017	0.075458
H323	H	0.697768	0.454350	0.408791
H324	H	1.031101	0.787684	0.742124
H325	H	0.226943	-0.147494	0.137608
H326	H	0.560276	0.185839	0.470941
H327	H	0.893609	0.519173	0.804274
N328	N	0.111328	-0.162193	0.135029
N329	N	0.444662	0.171140	0.468363
N330	N	0.777995	0.504474	0.801696
H331	H	0.139209	-0.197088	0.134938
H332	H	0.472542	0.136245	0.468271
H333	H	0.805876	0.469578	0.801604
H334	H	0.082480	-0.161201	0.199917
H335	H	0.415813	0.172132	0.533250
H336	H	0.749147	0.505466	0.866583
H337	H	0.743022	-0.149404	0.006284
H338	H	1.076355	0.183929	0.339618
H339	H	1.409689	0.517263	0.672951
N340	N	0.592925	-0.257858	0.285564
N341	N	0.926258	0.075475	0.618897
N342	N	1.259591	0.408809	0.952231
H343	H	0.567615	-0.286440	0.245695
H344	H	0.900948	0.046893	0.579029
H345	H	1.234281	0.380226	0.912362
H346	H	0.614832	-0.281670	0.331808
H347	H	0.948165	0.051663	0.665141
H348	H	1.281498	0.384997	0.998475
H349	H	0.603115	-0.135096	0.266610
H350	H	0.936448	0.198237	0.599943
H351	H	1.269782	0.531570	0.933277
N352	N	0.673485	0.151245	-0.331922
N353	N	1.006818	0.484578	0.001411
N354	N	1.340151	0.817912	0.334744
H355	H	0.672875	0.183318	-0.383206
H356	H	1.006208	0.516651	-0.049873
H357	H	1.339541	0.849985	0.283461
H358	H	0.638770	0.156639	-0.277617
H359	H	0.972103	0.489973	0.055716
H360	H	1.305436	0.823306	0.389049
H361	H	0.119210	0.162423	0.135169
H362	H	0.452543	0.495757	0.468502
H363	H	0.785876	0.829090	0.801835
H364	H	0.670910	0.124959	-0.544974
H365	H	1.004243	0.458292	-0.211640
H366	H	1.337576	0.791626	0.121693
N367	N	0.675420	-0.123796	-0.167726
N368	N	1.008754	0.209537	0.165608
N369	N	1.342087	0.542871	0.498941
H370	H	0.710451	-0.149415	-0.195666
H371	H	1.043784	0.183919	0.137668
H372	H	1.377118	0.517252	0.471001
H373	H	0.676335	-0.111115	-0.090090
H374	H	1.009668	0.222219	0.243243
H375	H	1.343002	0.555552	0.576576
N376	N	-0.038445	0.121702	0.131670
N377	N	0.294888	0.455035	0.465003
N378	N	0.628222	0.788368	0.798337
H379	H	-0.066280	0.156557	0.131047
H380	H	0.267053	0.489890	0.464380
H381	H	0.600386	0.823223	0.797714
H382	H	-0.018262	0.127722	0.197289
H383	H	0.315071	0.461056	0.530622
H384	H	0.648404	0.794389	0.863955
H385	H	0.226967	0.162558	0.137556
H386	H	0.560300	0.495891	0.470889
H387	H	0.893634	0.829224	0.804222
N388	N	0.508092	0.122385	0.143827
N389	N	0.841425	0.455719	0.477161
N390	N	1.174759	0.789052	0.810494
H391	H	0.550231	0.114074	0.144764
H392	H	0.883564	0.447407	0.478098
H393	H	1.216898	0.780741	0.811431
H394	H	0.502178	0.142839	0.078516
H395	H	0.835512	0.476172	0.411849
H396	H	1.168845	0.809506	0.745183
H397	H	0.603158	-0.835665	0.266551
H398	H	0.936491	-0.502331	0.599884
H399	H	1.269824	-0.168998	0.933217
H400	H	-0.046300	-0.092750	0.131581
H401	H	0.287033	0.240583	0.464914
H402	H	0.620367	0.573916	0.798247
N403	N	0.508071	-0.106609	0.143908
N404	N	0.841404	0.226724	0.477241
N405	N	1.174737	0.560057	0.810574
H406	H	0.480233	-0.141535	0.143301
H407	H	0.813566	0.191798	0.476634
H408	H	1.146899	0.525132	0.809967
H409	H	0.537184	-0.112571	0.079384
H410	H	0.870517	0.220762	0.412717
H411	H	1.203850	0.554096	0.746050
H412	H	0.781590	-0.445939	-0.065505
H413	H	1.114923	-0.112605	0.267829
H414	H	1.448257	0.220728	0.601162
N415	N	0.384605	-0.106768	0.141132
N416	N	0.717938	0.226565	0.474465
N417	N	1.051272	0.559898	0.807799
H418	H	0.412487	-0.141662	0.141041
H419	H	0.745821	0.191671	0.474374
H420	H	1.079154	0.525005	0.807708
H421	H	0.355759	-0.105775	0.206023
H422	H	0.689092	0.227558	0.539356
H423	H	1.022425	0.560892	0.872689
H424	H	-0.154080	-0.092881	0.129177
H425	H	0.179254	0.240452	0.462511
H426	H	0.512587	0.573786	0.795844
H427	H	0.781594	-0.561319	-0.065521
H428	H	1.114927	-0.227986	0.267812
H429	H	1.448260	0.105347	0.601146
N430	N	0.753218	-0.274239	-0.012705
N431	N	1.086552	0.059095	0.320628
N432	N	1.419885	0.392428	0.653961
H433	H	0.777641	-0.246930	-0.058139
H434	H	1.110975	0.086404	0.275194
H435	H	1.444308	0.419737	0.608528
H436	H	0.778489	-0.298426	0.027237
H437	H	1.111823	0.034907	0.360570
H438	H	1.445156	0.368241	0.693904
H439	H	0.603141	-0.720282	0.266548
H440	H	0.936475	-0.386949	0.599882
H441	H	1.269808	-0.053615	0.933215
N442	N	0.554363	-0.414289	0.357243
N443	N	0.887697	-0.080955	0.690577
N444	N	1.221030	0.252378	1.023910
H445	H	0.529940	-0.441594	0.402684
H446	H	0.863273	-0.108260	0.736017
H447	H	1.196607	0.225073	1.069351
H448	H	0.576268	-0.385353	0.403443
H449	H	0.909602	-0.052020	0.736776
H450	H	1.242935	0.281313	1.070109
