data_functionalizedCrystal
_audit_creation_method	'MofGen! by Chris Wilmer'
_symmetry_space_group_name_H-M	'P1'
_symmetry_Int_Tables_number	1
_symmetry_cell_setting	triclinic
loop_
_symmetry_equiv_pos_as_xyz
  x,y,z
_cell_length_a	11.792241
_cell_length_b	17.766277
_cell_length_c	19.288857
_cell_angle_alpha	90.009885
_cell_angle_beta	83.663262
_cell_angle_gamma	89.994821
loop_
_atom_site_label
_atom_site_type_symbol
_atom_site_fract_x
_atom_site_fract_y
_atom_site_fract_z
O1	O	1.505451	0.062525	0.095204
O2	O	1.174960	0.062543	0.105015
O3	O	1.349760	0.062524	-0.000967
O4	O	1.330651	0.062544	0.201186
O5	O	1.349764	-0.062664	-0.000978
O6	O	1.174965	-0.062646	0.105004
O7	O	1.505455	-0.062663	0.095193
Cu8	Cu	1.340210	-0.074085	0.100098
Cu9	Cu	1.340205	0.073965	0.100110
O10	O	1.330656	-0.062645	0.201175
C11	C	1.132681	-0.000049	0.104393
C12	C	1.006695	-0.000043	0.102549
N13	N	1.340222	-0.178216	0.100088
C14	C	1.349149	-0.000070	-0.026852
C15	C	1.347307	-0.000073	-0.103967
C16	C	0.776035	-0.000065	0.099157
C17	C	0.904391	-0.000052	0.101041
C18	C	1.547735	-0.000070	0.095815
C19	C	1.673720	-0.000071	0.097659
N20	N	1.340202	0.178095	0.100114
C21	C	1.417741	0.217474	0.053278
C22	C	1.417751	0.296276	0.053277
C23	C	1.340203	0.335696	0.100105
C24	C	1.262658	0.296307	0.146950
C25	C	1.262658	0.217507	0.146954
C26	C	1.236792	0.460547	0.108663
C27	C	1.236790	0.539346	0.108654
C28	C	1.340203	0.578742	0.100095
C29	C	1.443622	0.539330	0.091531
C30	C	1.443622	0.460530	0.091536
C31	C	1.340194	0.421141	0.100106
C32	C	1.417759	0.703567	0.053256
C33	C	1.417770	0.782370	0.053259
C34	C	1.262667	0.782400	0.146929
C35	C	1.262666	0.703598	0.146928
C36	C	1.340210	0.664186	0.100088
C37	C	1.346446	0.068168	-0.140176
C38	C	1.344699	0.068174	-0.212632
C39	C	1.343838	-0.000065	-0.248878
C40	C	1.344693	-0.068314	-0.212659
C41	C	1.346428	-0.068318	-0.140203
C42	C	1.407567	-0.052343	-0.368751
C43	C	1.405840	-0.052337	-0.441206
C44	C	1.338482	-0.000056	-0.472354
C45	C	1.272867	0.052230	-0.431039
C46	C	1.274602	0.052227	-0.358584
C47	C	1.341956	-0.000069	-0.327443
C48	C	1.335725	0.068195	-0.587128
C49	C	1.333972	0.068198	-0.659585
C50	C	1.333977	-0.068292	-0.659611
C51	C	1.335719	-0.068293	-0.587155
C52	C	1.336598	-0.000047	-0.550918
C53	C	1.331267	-0.000048	0.227060
C54	C	1.333108	-0.000041	0.304175
H55	H	1.480885	0.185387	0.015140
H56	H	1.199516	0.185444	0.185095
H57	H	1.152581	0.571429	0.115619
H58	H	1.333264	0.123770	-0.689065
O59	O	1.136225	0.422398	0.116935
C60	C	1.044950	0.474078	0.124492
H61	H	1.074378	0.530247	0.100235
H62	H	0.971258	0.451315	0.097083
H63	H	1.015406	0.482462	0.182267
H64	H	1.343991	0.123745	-0.242119
O65	O	1.336513	0.134552	-0.552026
C66	C	1.335394	0.194787	-0.599528
H67	H	1.298231	0.174785	-0.648438
H68	H	1.280805	0.242516	-0.574378
H69	H	1.426240	0.215767	-0.614178
O70	O	1.469750	-0.103097	-0.481265
C71	C	1.585901	-0.093222	-0.472389
H72	H	1.593339	-0.064461	-0.420249
H73	H	1.629850	-0.150423	-0.473260
H74	H	1.628437	-0.056798	-0.516479
H75	H	1.333267	-0.123853	-0.689120
H76	H	1.347125	-0.123889	-0.110721
O77	O	1.492959	0.334526	0.007696
C78	C	1.475130	0.315270	-0.061182
H79	H	1.384304	0.293594	-0.062017
H80	H	1.488450	0.367102	-0.095959
H81	H	1.538218	0.269544	-0.081269
H82	H	1.347158	0.123739	-0.110677
O83	O	1.187481	0.334679	0.192468
C84	C	1.247890	0.380256	0.235655
H85	H	1.336905	0.392050	0.208452
H86	H	1.200438	0.435674	0.246392
H87	H	1.255173	0.349901	0.287043
O88	O	1.207262	0.102987	-0.461199
C89	C	1.091956	0.093105	-0.434673
H90	H	1.087032	0.064350	-0.381596
H91	H	1.048116	0.150303	-0.428837
H92	H	1.047482	0.056673	-0.472135
H93	H	1.221173	0.094799	-0.324948
O94	O	1.336623	-0.134650	-0.552089
C95	C	1.335461	-0.194880	-0.599612
H96	H	1.370141	-0.174872	-0.653999
H97	H	1.391060	-0.242610	-0.582892
H98	H	1.244247	-0.215862	-0.600373
O99	O	1.473080	-0.103018	-0.338415
C100	C	1.553340	-0.064452	-0.302561
H101	H	1.520949	-0.005168	-0.289225
H102	H	1.565767	-0.095934	-0.252461
H103	H	1.638202	-0.061070	-0.337004
O104	O	1.343701	-0.134554	-0.247927
C105	C	1.244412	-0.138636	-0.282328
H106	H	1.211392	-0.079382	-0.290672
H107	H	1.265294	-0.167519	-0.334970
H108	H	1.176263	-0.172306	-0.249160
H109	H	1.527831	0.571405	0.084568
O110	O	1.544177	0.422361	0.083247
C111	C	1.635458	0.474022	0.075673
H112	H	1.606051	0.530205	0.099938
H113	H	1.709166	0.451254	0.103063
H114	H	1.664971	0.482383	0.017894
O115	O	1.492827	0.820624	0.007594
C116	C	1.432206	0.866066	-0.035581
H117	H	1.343305	0.877966	-0.008250
H118	H	1.479651	0.921440	-0.046545
H119	H	1.424644	0.835542	-0.086860
O120	O	1.493189	0.665393	0.007731
C121	C	1.561616	0.717052	-0.033619
H122	H	1.562676	0.773227	-0.005128
H123	H	1.652312	0.694271	-0.043748
H124	H	1.525193	0.725431	-0.085418
H125	H	1.199530	0.814495	0.185059
H126	H	1.199522	0.671534	0.185064
