data_functionalizedCrystal
_audit_creation_method	'MofGen! by Chris Wilmer'
_symmetry_space_group_name_H-M	'P1'
_symmetry_Int_Tables_number	1
_symmetry_cell_setting	triclinic
loop_
_symmetry_equiv_pos_as_xyz
  x,y,z
_cell_length_a	12.827893
_cell_length_b	14.908520
_cell_length_c	12.827893
_cell_angle_alpha	86.715072
_cell_angle_beta	90.003976
_cell_angle_gamma	93.320575
loop_
_atom_site_label
_atom_site_type_symbol
_atom_site_fract_x
_atom_site_fract_y
_atom_site_fract_z
Zn1	Zn	1.573437	-0.359322	0.614830
Zn2	Zn	2.073437	0.140678	1.114830
Zn3	Zn	1.563271	-0.510150	0.450157
Zn4	Zn	2.063271	-0.010150	0.950157
Zn5	Zn	1.398726	-0.359307	0.440103
Zn6	Zn	1.898726	0.140693	0.940103
Zn7	Zn	1.388558	-0.510142	0.624856
Zn8	Zn	1.888558	-0.010142	1.124856
O9	O	1.480998	-0.434730	0.532486
O10	O	1.980998	0.065270	1.032486
O11	O	1.718323	-0.379339	0.592997
O12	O	2.218323	0.120661	1.092997
O13	O	1.541445	-0.490137	0.302587
O14	O	2.041445	0.009863	0.802587
O15	O	1.430411	-0.233062	0.454877
O16	O	1.930411	0.266938	0.954877
O17	O	1.710855	-0.490152	0.472013
O18	O	2.210855	0.009848	0.972013
O19	O	1.558770	-0.233072	0.583248
O20	O	2.058770	0.266928	1.083248
O21	O	1.420554	-0.379314	0.295200
O22	O	1.920554	0.120686	0.795200
O23	O	1.251141	-0.379305	0.464599
O24	O	1.751141	0.120695	0.964599
O25	O	1.413081	-0.490138	0.769762
O26	O	1.913081	0.009862	1.269762
O27	O	1.243671	-0.490123	0.600336
O28	O	1.743671	0.009877	1.100336
O29	O	1.548911	-0.379331	0.762396
O30	O	2.048911	0.120669	1.262396
O31	O	1.531586	-0.636396	0.481735
O32	O	2.031586	-0.136396	0.981735
O33	O	1.403225	-0.636390	0.610086
O34	O	1.903225	-0.136390	1.110086
C35	C	1.209489	-0.434712	0.532465
C36	C	1.709489	0.065288	1.032465
C37	C	1.093335	-0.434727	0.532482
C38	C	1.593335	0.065273	1.032482
C39	C	1.465227	-0.669127	0.548112
C40	C	1.965227	-0.169127	1.048112
C41	C	1.458576	-0.769403	0.554832
C42	C	1.958576	-0.269403	1.054832
C43	C	1.037876	-0.489648	0.599558
C44	C	1.537876	0.010352	1.099558
C45	C	0.917824	-0.489665	0.599577
C46	C	1.417824	0.010335	1.099577
C47	C	1.579878	-0.957778	0.433915
C48	C	2.079878	-0.457778	0.933915
C49	C	1.573633	-1.051997	0.440225
C50	C	2.073633	-0.551997	0.940225
C51	C	1.439845	-1.052060	0.573767
C52	C	1.939845	-0.552060	1.073767
C53	C	1.446091	-0.957842	0.567457
C54	C	1.946091	-0.457842	1.067457
C55	C	1.516109	-0.910704	0.497527
C56	C	2.016109	-0.410704	0.997527
C57	C	1.522348	-0.816484	0.491212
C58	C	2.022348	-0.316484	0.991212
C59	C	1.388567	-0.816549	0.624759
C60	C	1.888567	-0.316549	1.124759
C61	C	1.382321	-0.910768	0.631069
C62	C	1.882321	-0.410768	1.131069
C63	C	1.753567	-0.434748	0.532508
C64	C	2.253567	0.065252	1.032508
C65	C	1.869719	-0.434756	0.532517
C66	C	2.369719	0.065244	1.032517
C67	C	1.480996	-0.434735	0.805057
C68	C	1.980996	0.065265	1.305057
C69	C	1.480995	-0.434737	0.921210
C70	C	1.980995	0.065263	1.421210
C71	C	1.496858	-0.199417	0.516823
C72	C	1.996858	0.300583	1.016823
C73	C	1.503617	-0.099141	0.510148
C74	C	2.003617	0.400859	1.010148
C75	C	1.548198	-0.379917	1.089395
C76	C	2.048198	0.120083	1.589395
C77	C	1.548200	-0.379913	0.969344
C78	C	2.048200	0.120087	1.469344
C79	C	1.480991	-0.434745	1.260977
C80	C	1.980991	0.065255	1.760977
C81	C	1.480992	-0.434743	1.144824
C82	C	1.980992	0.065257	1.644824
H83	H	1.079273	-0.536654	0.656972
H84	H	1.579273	-0.036654	1.156972
C85	C	1.403259	-0.498153	1.088870
C86	C	1.903259	0.001847	1.588870
N87	N	1.344708	-0.545914	1.046727
N88	N	1.844708	-0.045914	1.546727
H89	H	0.870145	-0.536688	0.656999
H90	H	1.370145	-0.036688	1.156999
C91	C	1.656895	-0.905925	0.356990
C92	C	2.156895	-0.405925	0.856990
N93	N	1.714907	-0.866870	0.299050
N94	N	2.214907	-0.366870	0.799050
H95	H	1.625562	-1.090321	0.388427
H96	H	2.125562	-0.590321	0.888427
C97	C	0.934123	-0.371225	0.454935
C98	C	1.434123	0.128775	0.954935
N99	N	0.982640	-0.323372	0.396502
N100	N	1.482640	0.176628	0.896502
H101	H	1.051939	-0.387715	0.475076
H102	H	1.551939	0.112285	0.975076
H103	H	1.579358	-0.778105	0.434269
H104	H	2.079358	-0.278105	0.934269
C105	C	1.362830	-1.103928	0.650682
C106	C	1.862830	-0.603928	1.150682
N107	N	1.304819	-1.142996	0.708612
N108	N	1.804819	-0.642996	1.208612
C109	C	1.305300	-0.962630	0.707982
C110	C	1.805300	-0.462630	1.207982
N111	N	1.247281	-1.001692	0.765910
N112	N	1.747281	-0.501692	1.265910
H113	H	1.336638	-0.778211	0.676554
H114	H	1.836638	-0.278211	1.176554
H115	H	1.605737	-0.332985	1.130817
H116	H	2.105737	0.167015	1.630817
C117	C	1.625933	-0.316498	0.904969
C118	C	2.125933	0.183502	1.404969
N119	N	1.684485	-0.268733	0.856478
N120	N	2.184485	0.231267	1.356478
H121	H	1.423448	-0.481672	0.968857
H122	H	1.923448	0.018328	1.468857
