data_functionalizedCrystal
_audit_creation_method	'MofGen! by Chris Wilmer'
_symmetry_space_group_name_H-M	'P1'
_symmetry_Int_Tables_number	1
_symmetry_cell_setting	triclinic
loop_
_symmetry_equiv_pos_as_xyz
  x,y,z
_cell_length_a	17.077404
_cell_length_b	12.759394
_cell_length_c	17.077396
_cell_angle_alpha	89.973684
_cell_angle_beta	89.980499
_cell_angle_gamma	90.015062
loop_
_atom_site_label
_atom_site_type_symbol
_atom_site_fract_x
_atom_site_fract_y
_atom_site_fract_z
Zn1	Zn	1.200099	-0.418260	-0.443855
Zn2	Zn	1.200024	-0.593961	-0.312593
Zn3	Zn	1.068830	-0.418297	-0.312602
Zn4	Zn	1.068817	-0.593898	-0.443817
O5	O	1.134442	-0.506104	-0.378217
O6	O	1.309936	-0.441578	-0.426454
O7	O	1.182595	-0.570700	-0.202748
O8	O	1.086280	-0.271271	-0.330033
O9	O	1.309881	-0.570664	-0.330017
O10	O	1.182722	-0.271244	-0.426463
O11	O	1.086208	-0.441641	-0.202754
O12	O	0.958982	-0.441580	-0.329996
O13	O	1.086257	-0.570558	-0.553669
O14	O	0.958972	-0.570594	-0.426399
O15	O	1.182709	-0.441517	-0.553697
O16	O	1.182582	-0.740974	-0.329981
O17	O	1.086185	-0.740928	-0.426391
C18	C	0.930495	-0.506085	-0.378195
C19	C	0.843245	-0.506102	-0.378205
C20	C	1.134395	-0.779072	-0.378198
C21	C	1.134447	-0.895848	-0.378216
C22	C	0.802270	-0.573381	-0.428321
C23	C	0.720290	-0.573383	-0.428334
C24	C	0.679285	-0.506111	-0.378225
C25	C	0.720266	-0.438825	-0.328107
C26	C	0.802245	-0.438818	-0.328099
C27	C	0.549396	-0.438846	-0.328125
C28	C	0.467411	-0.438854	-0.328132
C29	C	0.467441	-0.573411	-0.428360
C30	C	0.549419	-0.573404	-0.428352
C31	C	0.590394	-0.506119	-0.378233
C32	C	1.234901	-0.895843	-0.277900
C33	C	1.285148	-0.950701	-0.227751
C34	C	1.285194	-1.060422	-0.227773
C35	C	1.234989	-1.115288	-0.277950
C36	C	1.184742	-1.060430	-0.328099
C37	C	1.184700	-0.950706	-0.328070
C38	C	1.084293	-1.060436	-0.428417
C39	C	1.084242	-0.950714	-0.428393
C40	C	1.034088	-1.115302	-0.478594
C41	C	0.983835	-1.060444	-0.528740
C42	C	0.983791	-0.950716	-0.528716
C43	C	1.033994	-0.895856	-0.478542
C44	C	1.339187	-0.506124	-0.378239
C45	C	1.426436	-0.506132	-0.378249
C46	C	1.134490	-0.506027	-0.582961
C47	C	1.134510	-0.505994	-0.670211
C48	C	1.134511	-0.232071	-0.378253
C49	C	1.134540	-0.115294	-0.378269
C50	C	1.184735	-0.438797	-0.711217
C51	C	1.184744	-0.438762	-0.793197
C52	C	1.134532	-0.505930	-0.834171
C53	C	1.084302	-0.573130	-0.793159
C54	C	1.084290	-0.573159	-0.711180
C55	C	1.084334	-0.573067	-0.964029
C56	C	1.084348	-0.573039	-1.046014
C57	C	1.184788	-0.438670	-1.046047
C58	C	1.184776	-0.438699	-0.964068
C59	C	1.134546	-0.505900	-0.923062
C60	C	1.134440	-0.506105	-0.174269
C61	C	1.134572	-0.505842	-0.087020
H62	H	0.686931	-0.628169	-0.469143
C63	C	0.928521	-0.890375	-0.583881
H64	H	0.935684	-0.817170	-0.576688
H65	H	0.875792	-0.908429	-0.572359
H66	H	0.940001	-0.908293	-0.636638
H67	H	1.043384	-0.627867	-0.677794
C68	C	1.235047	-1.235979	-0.277985
H69	H	1.197956	-1.260798	-0.315052
H70	H	1.221513	-1.260878	-0.227326
H71	H	1.285711	-1.260719	-0.291616
H72	H	0.686874	-0.384047	-0.287311
H73	H	0.835606	-0.384028	-0.287293
H74	H	0.582803	-0.628188	-0.469151
C75	C	1.034136	-1.235993	-0.478617
H76	H	1.071245	-1.260808	-0.441559
H77	H	1.047695	-1.260754	-0.529288
H78	H	0.983492	-1.260874	-0.465002
H79	H	0.942966	-1.105125	-0.569594
C80	C	0.594467	-0.364830	-0.272998
H81	H	0.558306	-0.324772	-0.243151
H82	H	0.626466	-0.319103	-0.303082
H83	H	0.626426	-0.404963	-0.238737
C84	C	0.847367	-0.647380	-0.483442
H85	H	0.811220	-0.687441	-0.513297
H86	H	0.879329	-0.693104	-0.453356
H87	H	0.879366	-0.607237	-0.517696
C88	C	1.033948	-0.775166	-0.478519
H89	H	0.996831	-0.750349	-0.515569
H90	H	1.084588	-0.750282	-0.492127
H91	H	1.020382	-0.750409	-0.427844
H92	H	1.225625	-0.384104	-0.677862
H93	H	1.234858	-0.806502	-0.277868
C94	C	1.340463	-1.120773	-0.172613
H95	H	1.333300	-1.193976	-0.179818
H96	H	1.328996	-1.102859	-0.119857
H97	H	1.393196	-1.102728	-0.184145
H98	H	1.225644	-0.384046	-0.826581
C99	C	1.240048	-0.364761	-1.091149
H100	H	1.232864	-0.374358	-1.145841
H101	H	1.292780	-0.380166	-1.077717
H102	H	1.228585	-0.294165	-1.077726
C103	C	0.422372	-0.647417	-0.483496
H104	H	0.367676	-0.637779	-0.476333
H105	H	0.435789	-0.717987	-0.471914
H106	H	0.435836	-0.632124	-0.536258
H107	H	0.434028	-0.384062	-0.287339
C108	C	1.029069	-0.647015	-0.838224
H109	H	0.999151	-0.687033	-0.802059
H110	H	1.059090	-0.692785	-0.870202
H111	H	0.994880	-0.606805	-0.870203
C112	C	1.340370	-0.890347	-0.172561
H113	H	1.333143	-0.817144	-0.179723
H114	H	1.393113	-0.908261	-0.184094
H115	H	1.328908	-0.908395	-0.119811
C116	C	1.240007	-0.364816	-0.918998
H117	H	1.269919	-0.324782	-0.955159
H118	H	1.274192	-0.405021	-0.887017
H119	H	1.209979	-0.319046	-0.887021
C120	C	1.029112	-0.646916	-1.091083
H121	H	0.999187	-0.686933	-1.054922
H122	H	1.059131	-0.692687	-1.123062
H123	H	0.994928	-0.606698	-1.123063
H124	H	1.043420	-0.627773	-0.930645
