data_functionalizedCrystal
_audit_creation_method	'MofGen! by Chris Wilmer'
_symmetry_space_group_name_H-M	'P1'
_symmetry_Int_Tables_number	1
_symmetry_cell_setting	triclinic
loop_
_symmetry_equiv_pos_as_xyz
  x,y,z
_cell_length_a	13.033293
_cell_length_b	16.959454
_cell_length_c	13.032268
_cell_angle_alpha	97.150351
_cell_angle_beta	89.079182
_cell_angle_gamma	97.190068
loop_
_atom_site_label
_atom_site_type_symbol
_atom_site_fract_x
_atom_site_fract_y
_atom_site_fract_z
Zn1	Zn	1.498447	-0.245918	-0.781493
Zn2	Zn	1.998447	0.254082	-0.281493
Zn3	Zn	1.520183	-0.359509	-0.609525
Zn4	Zn	2.020183	0.140491	-0.109525
Zn5	Zn	1.348307	-0.241744	-0.587669
Zn6	Zn	1.848307	0.258256	-0.087669
Zn7	Zn	1.326431	-0.392460	-0.759567
Zn8	Zn	1.826431	0.107540	-0.259567
O9	O	1.423342	-0.309908	-0.684563
O10	O	1.923342	0.190092	-0.184563
O11	O	1.645250	-0.248943	-0.777005
O12	O	2.145250	0.251057	-0.277005
O13	O	1.515635	-0.328350	-0.462717
O14	O	2.015635	0.171650	0.037283
O15	O	1.368282	-0.131684	-0.613409
O16	O	1.868282	0.368316	-0.113409
O17	O	1.661219	-0.332398	-0.650660
O18	O	2.161219	0.167602	-0.150660
O19	O	1.478589	-0.134751	-0.755811
O20	O	1.978589	0.365249	-0.255811
O21	O	1.389359	-0.241829	-0.446659
O22	O	1.889359	0.258171	0.053341
O23	O	1.201486	-0.273780	-0.592148
O24	O	1.701486	0.226220	-0.092148
O25	O	1.330998	-0.388558	-0.906384
O26	O	1.830998	0.111442	-0.406384
O27	O	1.185414	-0.384511	-0.718441
O28	O	1.685414	0.115489	-0.218441
O29	O	1.457377	-0.280894	-0.922494
O30	O	1.957377	0.219106	-0.422494
O31	O	1.494422	-0.474494	-0.629399
O32	O	1.994422	0.025506	-0.129399
O33	O	1.352074	-0.498703	-0.739634
O34	O	1.852074	0.001297	-0.239634
C35	C	1.156133	-0.332269	-0.650544
C36	C	1.656133	0.167731	-0.150544
C37	C	1.041817	-0.341856	-0.636015
C38	C	1.541817	0.158144	-0.136015
C39	C	0.982937	-0.304924	-0.692146
C40	C	1.482937	0.195076	-0.192146
C41	C	0.864785	-0.314832	-0.677131
C42	C	1.364785	0.185168	-0.177131
C43	C	1.423258	-0.515279	-0.684535
C44	C	1.923258	-0.015279	-0.184535
C45	C	1.423312	-0.603134	-0.684569
C46	C	1.923312	-0.103134	-0.184569
C47	C	1.349318	-0.987233	-0.741968
C48	C	1.849318	-0.487233	-0.241968
C49	C	1.497640	-0.961967	-0.627300
C50	C	1.997640	-0.461967	-0.127300
C51	C	1.497605	-0.879423	-0.627286
C52	C	1.997605	-0.379423	-0.127286
C53	C	1.423425	-0.850780	-0.684613
C54	C	1.923425	-0.350780	-0.184613
C55	C	1.349279	-0.904682	-0.741953
C56	C	1.849279	-0.404682	-0.241953
C57	C	1.571743	-0.825515	-0.569939
C58	C	2.071743	-0.325515	-0.069939
C59	C	1.571710	-0.742966	-0.569921
C60	C	2.071710	-0.242966	-0.069921
C61	C	1.497534	-0.714322	-0.627254
C62	C	1.997534	-0.214322	-0.127254
C63	C	1.423386	-0.768229	-0.684598
C64	C	1.923386	-0.268229	-0.184598
C65	C	1.349205	-0.739587	-0.741924
C66	C	1.849205	-0.239587	-0.241924
C67	C	1.275061	-0.793493	-0.799275
C68	C	1.775061	-0.293493	-0.299275
C69	C	1.275102	-0.876038	-0.799286
C70	C	1.775102	-0.376038	-0.299286
C71	C	1.497492	-0.631777	-0.627243
C72	C	1.997492	-0.131777	-0.127243
C73	C	1.349166	-0.657036	-0.741910
C74	C	1.849166	-0.157036	-0.241910
C75	C	1.691594	-0.287460	-0.718716
C76	C	2.191594	0.212540	-0.218716
C77	C	1.805907	-0.277895	-0.733270
C78	C	2.305907	0.222105	-0.233270
C79	C	1.389323	-0.338867	-0.952796
C80	C	1.889323	0.161133	-0.452796
C81	C	1.374826	-0.351208	-1.067101
C82	C	1.874826	0.148792	-0.567101
C83	C	1.423451	-0.103734	-0.684618
C84	C	1.923451	0.396266	-0.184618
C85	C	1.423498	-0.015876	-0.684641
C86	C	1.923498	0.484124	-0.184641
C87	C	1.430892	-0.303440	-1.126033
C88	C	1.930892	0.196560	-0.626033
C89	C	1.415910	-0.316194	-1.244173
C90	C	1.915910	0.183806	-0.744173
C91	C	1.457288	-0.280999	-0.417382
C92	C	1.957288	0.219001	0.082618
C93	C	1.471985	-0.268419	-0.303103
C94	C	1.971985	0.231581	0.196897
H95	H	1.020000	-0.265966	-0.751315
H96	H	1.520000	0.234034	-0.251315
H97	H	1.632130	-0.848843	-0.523258
H98	H	2.132130	-0.348843	-0.023258
H99	H	1.214737	-0.919935	-0.845976
H100	H	1.714737	-0.419935	-0.345976
H101	H	1.558029	-0.985293	-0.580621
H102	H	2.058029	-0.485293	-0.080621
C103	C	1.653264	-0.683677	-0.506828
C104	C	2.153264	-0.183677	-0.006828
N105	N	1.714691	-0.639019	-0.459305
N106	N	2.214691	-0.139019	0.040695
C107	C	1.336069	-0.384201	-1.294161
C108	C	1.836069	0.115799	-0.794161
N109	N	1.275934	-0.435423	-1.331813
N110	N	1.775934	0.064577	-0.831813
C111	C	1.551824	-0.200409	-1.253117
C112	C	2.051824	0.299591	-0.753117
N113	N	1.611959	-0.149187	-1.215467
N114	N	2.111959	0.350813	-0.715467
C115	C	1.294988	-0.419212	-1.117094
C116	C	1.794988	0.080788	-0.617094
N117	N	1.234853	-0.470434	-1.154746
N118	N	1.734853	0.029566	-0.654746
C119	C	1.267759	-1.046529	-0.805045
C120	C	1.767759	-0.546529	-0.305045
N121	N	1.206326	-1.091191	-0.852553
N122	N	1.706326	-0.591191	-0.352553
H123	H	1.557855	-0.587890	-0.580544
H124	H	2.057855	-0.087890	-0.080544
H125	H	1.489981	-0.253100	-1.089023
H126	H	1.989981	0.246900	-0.589023
H127	H	0.827728	-0.353788	-0.617952
H128	H	1.327728	0.146212	-0.117952
H129	H	0.842965	-0.238933	-0.792442
H130	H	1.342965	0.261067	-0.292442
H131	H	1.004755	-0.380809	-0.576840
H132	H	1.504755	0.119191	-0.076840
H133	H	1.288763	-0.633722	-0.788596
H134	H	1.788763	-0.133722	-0.288596
H135	H	1.214658	-0.770162	-0.845945
H136	H	1.714658	-0.270162	-0.345945
