data_functionalizedCrystal
_audit_creation_method	'MofGen! by Chris Wilmer'
_symmetry_space_group_name_H-M	'P1'
_symmetry_Int_Tables_number	1
_symmetry_cell_setting	triclinic
loop_
_symmetry_equiv_pos_as_xyz
  x,y,z
_cell_length_a	19.121102
_cell_length_b	19.121063
_cell_length_c	11.169409
_cell_angle_alpha	87.599247
_cell_angle_beta	92.462271
_cell_angle_gamma	90.126902
loop_
_atom_site_label
_atom_site_type_symbol
_atom_site_fract_x
_atom_site_fract_y
_atom_site_fract_z
Zn1	Zn	1.059882	-0.324835	0.779422
Zn2	Zn	1.054780	-0.442091	0.586885
Zn3	Zn	0.942636	-0.319867	0.569847
Zn4	Zn	0.937607	-0.437026	0.778619
O5	O	0.998727	-0.380955	0.678693
O6	O	1.157311	-0.344588	0.761349
O7	O	1.039874	-0.425918	0.416676
O8	O	0.962429	-0.222424	0.590853
O9	O	1.153563	-0.430735	0.619893
O10	O	1.048569	-0.226074	0.744827
O11	O	0.957482	-0.336121	0.404158
O12	O	0.843864	-0.331210	0.590074
O13	O	0.953858	-0.422103	0.946674
O14	O	0.840169	-0.417286	0.743458
O15	O	1.043693	-0.339677	0.947265
O16	O	1.034997	-0.539522	0.619114
O17	O	0.948911	-0.535800	0.759980
C18	C	0.816579	-0.373160	0.664830
C19	C	0.738654	-0.369842	0.658929
C20	C	0.700137	-0.413166	0.735900
C21	C	0.626919	-0.410039	0.730361
C22	C	0.592220	-0.363591	0.647844
C23	C	0.630742	-0.320263	0.570870
C24	C	0.703959	-0.323386	0.576416
C25	C	0.371249	-0.351911	0.627114
C26	C	0.298027	-0.348792	0.621571
C27	C	0.294209	-0.438568	0.781064
C28	C	0.367427	-0.441690	0.786598
C29	C	0.405943	-0.398359	0.709629
C30	C	0.517379	-0.360396	0.642177
C31	C	0.480782	-0.401552	0.715302
C32	C	0.990874	-0.563099	0.691336
C33	C	0.987579	-0.641023	0.696790
C34	C	1.030886	-0.679548	0.626077
C35	C	1.027791	-0.752767	0.631214
C36	C	0.981385	-0.787459	0.707057
C37	C	0.938075	-0.748929	0.777778
C38	C	0.941174	-0.675712	0.772647
C39	C	0.969787	-1.008432	0.726222
C40	C	0.966689	-1.081654	0.731345
C41	C	1.056406	-1.085487	0.584781
C42	C	1.059498	-1.012268	0.579651
C43	C	1.016192	-0.973744	0.650377
C44	C	0.978218	-0.862300	0.712307
C45	C	1.019362	-0.898905	0.645133
C46	C	1.181586	-0.388781	0.692611
C47	C	1.259509	-0.392116	0.698542
C48	C	0.998784	-0.380879	0.991735
C49	C	0.998808	-0.380847	1.125134
C50	C	1.006629	-0.198100	0.666029
C51	C	1.009997	-0.120179	0.660632
C52	C	0.998712	-0.380981	0.366869
C53	C	0.998832	-0.380822	0.233467
H54	H	0.735319	-0.288104	0.513744
H55	H	0.509038	-0.439366	0.782492
H56	H	1.091665	-1.116860	0.527202
H57	H	0.940433	-0.890555	0.774057
H58	H	1.057149	-0.870656	0.583385
H59	H	0.728384	-0.450991	0.803090
H60	H	0.900293	-0.777182	0.839537
H61	H	0.905910	-0.644346	0.830231
H62	H	0.934523	-0.977071	0.783807
H63	H	0.489119	-0.322579	0.574989
H64	H	1.068672	-0.651307	0.564311
H65	H	1.063056	-0.784131	0.573631
H66	H	1.097286	-0.984023	0.517893
H67	H	0.928908	-1.109899	0.793127
H68	H	0.595562	-0.445318	0.793037
H69	H	0.262841	-0.473844	0.843730
H70	H	0.269777	-0.310961	0.554383
H71	H	0.402599	-0.316633	0.564431
H72	H	0.602484	-0.282441	0.503688
H73	H	0.395674	-0.479514	0.853790
