data_functionalizedCrystal
_audit_creation_method	'MofGen! by Chris Wilmer'
_symmetry_space_group_name_H-M	'P1'
_symmetry_Int_Tables_number	1
_symmetry_cell_setting	triclinic
loop_
_symmetry_equiv_pos_as_xyz
  x,y,z
_cell_length_a	12.759401
_cell_length_b	16.994747
_cell_length_c	12.759393
_cell_angle_alpha	90.011549
_cell_angle_beta	90.018496
_cell_angle_gamma	90.011218
loop_
_atom_site_label
_atom_site_type_symbol
_atom_site_fract_x
_atom_site_fract_y
_atom_site_fract_z
Zn1	Zn	1.606282	-0.313978	0.594127
Zn2	Zn	1.606188	-0.445905	0.418509
Zn3	Zn	1.430584	-0.314019	0.418467
Zn4	Zn	1.430584	-0.445844	0.594150
O5	O	1.518409	-0.379937	0.506313
O6	O	1.753290	-0.331487	0.570839
O7	O	1.582854	-0.428453	0.271482
O8	O	1.453930	-0.203633	0.441741
O9	O	1.753221	-0.428413	0.441813
O10	O	1.583015	-0.203602	0.570798
O11	O	1.453839	-0.331557	0.271451
O12	O	1.283563	-0.331498	0.441764
O13	O	1.453930	-0.428309	0.741168
O14	O	1.283563	-0.428349	0.570838
O15	O	1.583015	-0.331428	0.741152
O16	O	1.582854	-0.556278	0.441835
O17	O	1.453838	-0.556234	0.570878
C18	C	1.245442	-0.379922	0.506299
C19	C	1.128665	-0.379935	0.506318
C20	C	1.518349	-0.584877	0.506361
C21	C	1.518356	-0.674199	0.506358
Zn22	Zn	1.430614	-0.945106	0.418437
Zn23	Zn	1.606329	-0.945043	0.594081
Zn24	Zn	1.430620	-0.813237	0.594133
Zn25	Zn	1.606207	-0.813160	0.418475
O26	O	1.518442	-0.879136	0.506282
O27	O	1.453972	-1.055479	0.441700
O28	O	1.583074	-0.927564	0.741109
O29	O	1.283598	-0.830788	0.570832
O30	O	1.583069	-1.055433	0.570744
O31	O	1.283594	-0.927672	0.441750
O32	O	1.453981	-0.830727	0.741147
O33	O	1.453863	-0.702845	0.570869
O34	O	1.582861	-0.830657	0.271449
O35	O	1.582866	-0.702789	0.441813
O36	O	1.453853	-0.927597	0.271421
O37	O	1.753334	-0.927490	0.570781
O38	O	1.753244	-0.830597	0.441763
C39	C	1.073831	-0.430446	0.573416
C40	C	0.964107	-0.430456	0.573427
C41	C	0.964061	-0.329442	0.439234
C42	C	1.073784	-0.329428	0.439229
C43	C	1.128713	-0.480953	0.640505
C44	C	1.073878	-0.531469	0.707607
C45	C	0.964154	-0.531479	0.707619
C46	C	0.909264	-0.480973	0.640528
C47	C	1.792443	-0.379952	0.506328
C48	C	1.909219	-0.379958	0.506335
C49	C	1.518483	-0.379857	0.780347
C50	C	1.518514	-0.379823	0.897124
C51	C	1.518476	-0.174197	0.506260
C52	C	1.518508	-0.084875	0.506238
C53	C	1.518397	-0.379959	0.233346
C54	C	1.518569	-0.379771	0.116570
C55	C	1.585738	-0.329372	0.951979
C56	C	1.585763	-0.329344	1.061703
C57	C	1.451338	-0.430224	1.061707
C58	C	1.451308	-0.430248	0.951985
C59	C	1.652944	-0.278947	0.897117
C60	C	1.720174	-0.228493	0.951972
C61	C	1.720199	-0.228464	1.061696
C62	C	1.652994	-0.278890	1.116565
C63	C	1.791410	-0.879030	0.506273
C64	C	1.908186	-0.879008	0.506300
C65	C	1.518343	-0.879126	0.232248
C66	C	1.518300	-0.879121	0.115471
C67	C	1.244409	-0.879245	0.506293
C68	C	1.127632	-0.879291	0.506297
C69	C	1.518467	-0.879192	0.779249
C70	C	1.518216	-0.879347	0.896025
C71	C	1.963060	-0.929486	0.573425
C72	C	2.072784	-0.929472	0.573430
C73	C	2.072751	-0.828497	0.439185
C74	C	1.963029	-0.828515	0.439175
C75	C	1.908218	-0.979979	0.640550
C76	C	1.963092	-1.030460	0.707681
C77	C	2.072816	-1.030447	0.707687
C78	C	2.127666	-0.979952	0.640562
C79	C	1.451115	-0.929587	0.060593
C80	C	1.451068	-0.929571	-0.049131
C81	C	1.585400	-0.828620	-0.049089
C82	C	1.585441	-0.828633	0.060633
C83	C	1.383975	-0.980075	0.115432
C84	C	1.316785	-1.030546	0.060554
C85	C	1.316738	-1.030530	-0.049170
C86	C	1.383880	-0.980043	-0.104016
H87	H	1.118576	-0.572584	0.762237
H88	H	1.384007	-0.980096	0.204775
O89	O	1.127099	-0.280281	0.374195
C90	C	1.190612	-0.229392	0.434099
H91	H	1.157578	-0.224596	0.516856
H92	H	1.273769	-0.253774	0.437668
C93	C	1.232854	-0.153238	0.281276
C94	C	1.192276	-0.147342	0.382918
H95	H	1.233886	-0.102626	0.249704
H96	H	1.190068	-0.187524	0.240916
H97	H	1.302148	-0.173558	0.284264
H98	H	1.122980	-0.127031	0.379927
H99	H	1.235051	-0.113050	0.423275
H100	H	2.117491	-1.071556	0.762340
O101	O	2.125867	-0.779423	0.373889
C102	C	2.053904	-0.734859	0.314656
H103	H	1.975689	-0.767176	0.310966
H104	H	2.042244	-0.674977	0.353209
C105	C	2.192767	-0.683723	0.207391
C106	C	2.096705	-0.723419	0.202851
H107	H	2.219169	-0.676663	0.138425
H108	H	2.241251	-0.713744	0.247299
H109	H	2.183037	-0.633826	0.239523
H110	H	2.106438	-0.773319	0.170731
H111	H	2.048223	-0.693406	0.162935
H112	H	1.396552	-0.471318	0.907321
H113	H	1.640144	-0.787536	0.105316
H114	H	1.818875	-0.979993	0.640555
H115	H	1.262020	-1.071619	-0.093849
H116	H	1.262112	-1.071645	0.105216
O117	O	1.909665	-0.779588	0.373872
C118	C	1.846156	-0.824460	0.305966
H119	H	1.879226	-0.886573	0.299377
H120	H	1.763013	-0.827218	0.338451
C121	C	1.803807	-0.709556	0.204900
C122	C	1.844429	-0.785843	0.196800
H123	H	1.802737	-0.685734	0.137562
H124	H	1.846591	-0.679324	0.250651
H125	H	1.734525	-0.711864	0.231975
H126	H	1.913715	-0.783532	0.169738
H127	H	1.801657	-0.816073	0.151041
O128	O	1.383788	-0.980189	-0.210603
C129	C	1.310097	-1.035563	-0.247283
H130	H	1.295378	-1.081625	-0.184038
H131	H	1.233483	-1.004326	-0.266825
C132	C	1.371053	-1.019451	-0.424067
C133	C	1.352983	-1.076029	-0.346391
H134	H	1.397504	-1.044410	-0.485204
H135	H	1.420698	-0.982142	-0.399356
H136	H	1.307203	-0.993424	-0.440339
H137	H	1.416834	-1.102047	-0.330111
H138	H	1.303349	-1.113343	-0.371102
O139	O	1.650587	-0.779657	-0.102526
C140	C	1.636125	-0.790454	-0.211137
H141	H	1.601741	-0.851341	-0.226148
H142	H	1.580140	-0.743688	-0.242249
C143	C	1.784632	-0.708392	-0.249038
C144	C	1.742409	-0.783177	-0.267475
H145	H	1.850191	-0.703899	-0.283792
H146	H	1.794374	-0.701115	-0.175865
H147	H	1.737968	-0.669428	-0.274964
H148	H	1.789066	-0.822138	-0.241538
H149	H	1.732678	-0.790460	-0.340646
O150	O	1.785346	-0.179366	1.115028
C151	C	1.725567	-0.128409	1.178498
H152	H	1.642814	-0.123542	1.145426
H153	H	1.721962	-0.152773	1.261661
C154	C	1.878566	-0.052391	1.220784
C155	C	1.776929	-0.046407	1.180160
H156	H	1.910250	-0.001809	1.221814
H157	H	1.918841	-0.086723	1.178026
H158	H	1.875547	-0.072697	1.290083
H159	H	1.779950	-0.026111	1.110858
H160	H	1.736655	-0.012070	1.222906
O161	O	0.910839	-0.580431	0.772913
C162	C	0.847383	-0.535594	0.840846
H163	H	0.880455	-0.473472	0.847452
H164	H	0.764213	-0.532857	0.808375
C165	C	0.805122	-0.650533	0.941877
C166	C	0.845747	-0.574234	0.949998
H167	H	0.804107	-0.674369	1.009207
H168	H	0.847870	-0.680741	0.896108
H169	H	0.735817	-0.648241	0.914815
H170	H	0.915054	-0.576528	0.977047
H171	H	0.803010	-0.544027	0.995775
H172	H	1.774883	-0.187433	0.907291
H173	H	1.218055	-0.480952	0.640501
O174	O	1.386166	-0.479185	1.115166
C175	C	1.400592	-0.468333	1.223773
H176	H	1.481684	-0.442498	1.238756
H177	H	1.338297	-0.426319	1.254905
C178	C	1.291358	-0.579861	1.261711
C179	C	1.390961	-0.548137	1.280115
H180	H	1.285413	-0.629087	1.296467
H181	H	1.281636	-0.587171	1.188541
H182	H	1.239457	-0.544842	1.287655
H183	H	1.442860	-0.583151	1.254159
H184	H	1.400692	-0.540835	1.353282
O185	O	0.910863	-0.280427	0.373912
C186	C	0.937619	-0.297586	0.269168
H187	H	1.017283	-0.327896	0.266935
H188	H	0.875853	-0.338118	0.233710
C189	C	0.844824	-0.183407	0.208406
C190	C	0.942673	-0.220628	0.205664
H191	H	0.847937	-0.135937	0.169232
H192	H	0.826794	-0.171848	0.278974
H193	H	0.793363	-0.217192	0.178860
H194	H	0.994129	-0.186847	0.235221
H195	H	0.960712	-0.232180	0.135099
H196	H	0.819920	-0.480978	0.640551
H197	H	1.652934	-0.278967	0.807774
H198	H	1.918426	-1.071575	0.762325
O199	O	1.653184	-0.278935	1.223152
C200	C	1.753885	-0.299170	1.259819
H201	H	1.797291	-0.333573	1.196595
H202	H	1.799425	-0.243324	1.279287
C203	C	1.690421	-0.307986	1.436634
C204	C	1.743730	-0.350246	1.358984
H205	H	1.684159	-0.339489	1.497806
H206	H	1.622578	-0.294350	1.411932
H207	H	1.728379	-0.261450	1.452844
H208	H	1.705766	-0.396776	1.342766
H209	H	1.811567	-0.363891	1.383686
H210	H	2.217011	-0.979950	0.640566
