data_functionalizedCrystal
_audit_creation_method	'MofGen! by Chris Wilmer'
_symmetry_space_group_name_H-M	'P1'
_symmetry_Int_Tables_number	1
_symmetry_cell_setting	triclinic
loop_
_symmetry_equiv_pos_as_xyz
  x,y,z
_cell_length_a	18.101395
_cell_length_b	18.101398
_cell_length_c	16.625539
_cell_angle_alpha	89.984040
_cell_angle_beta	90.027648
_cell_angle_gamma	89.970320
loop_
_atom_site_label
_atom_site_type_symbol
_atom_site_fract_x
_atom_site_fract_y
_atom_site_fract_z
Zn1	Zn	-0.294856	-1.132133	0.455814
Zn2	Zn	-0.418706	-1.132025	0.320983
Zn3	Zn	-0.294879	-1.008288	0.321005
Zn4	Zn	-0.418658	-1.008242	0.455783
O5	O	-0.356775	-1.070172	0.388396
O6	O	-0.311296	-1.235751	0.437932
O7	O	-0.402309	-1.115585	0.208153
O8	O	-0.191243	-1.024780	0.338910
O9	O	-0.402287	-1.235672	0.338872
O10	O	-0.191227	-1.115769	0.437953
O11	O	-0.311335	-1.024676	0.208170
O12	O	-0.311288	-0.904649	0.338881
O13	O	-0.402206	-1.024702	0.568620
O14	O	-0.402228	-0.904615	0.437901
O15	O	-0.311249	-1.115724	0.568642
O16	O	-0.522332	-1.115541	0.338842
O17	O	-0.522297	-1.024598	0.437879
C18	C	-0.356756	-0.877761	0.388391
C19	C	-0.356765	-0.795447	0.388407
C20	C	-0.356780	-0.644739	0.388406
C21	C	-0.414085	-0.613389	0.450611
C22	C	-0.414318	-0.527770	0.450426
C23	C	-0.356795	-0.496356	0.388406
C24	C	-0.377623	-0.527407	0.303328
C25	C	-0.378030	-0.613052	0.303688
C26	C	-0.278506	-0.613218	0.410536
C27	C	-0.278936	-0.527568	0.412410
C28	C	-0.356802	-0.412497	0.388401
C29	C	-0.356775	-0.728598	0.388405
C30	C	-0.549185	-1.070073	0.388373
C31	C	-0.631499	-1.070098	0.388389
C32	C	-0.930590	-1.070261	0.388433
C33	C	-0.899274	-1.013175	0.450899
C34	C	-0.813656	-1.012903	0.450704
C35	C	-0.782208	-1.070180	0.388412
C36	C	-0.813359	-1.049049	0.303436
C37	C	-0.899004	-1.048681	0.303810
C38	C	-0.898936	-1.148603	0.410195
C39	C	-0.813285	-1.148142	0.412058
C40	C	-0.698348	-1.070136	0.388395
C41	C	-1.014450	-1.070303	0.388444
C42	C	-0.163613	-1.070292	0.388438
C43	C	-0.081299	-1.070343	0.388455
C44	C	-0.356720	-1.070220	0.598705
C45	C	-0.356696	-1.070241	0.688326
C46	C	-0.356796	-0.263334	0.388402
C47	C	-0.356810	-0.345648	0.388405
C48	C	-0.356776	-1.070167	0.178905
C49	C	-0.356591	-1.070290	0.089285
C50	C	-0.356613	-1.070275	1.016502
C51	C	-0.356639	-1.070263	0.925194
C52	C	-0.356655	-1.070258	0.852417
C53	C	-0.356679	-1.070246	0.761103
H54	H	-0.338076	-0.633790	0.255750
C55	C	-0.927122	-1.030785	0.536278
H56	H	-0.958091	-1.073115	0.534598
H57	H	-0.886170	-1.040214	0.570532
H58	H	-0.954330	-0.989872	0.556367
H59	H	-0.920859	-0.955459	0.436666
C60	C	-0.220828	-0.640611	0.349347
H61	H	-0.173645	-0.621378	0.363030
H62	H	-0.219104	-0.693055	0.350257
H63	H	-0.234152	-0.624287	0.296999
C64	C	-0.784376	-1.208640	0.355067
H65	H	-0.752838	-1.187046	0.315928
H66	H	-0.757576	-1.244355	0.385129
H67	H	-0.824889	-1.231832	0.328962
H68	H	-0.920484	-1.167868	0.471103
C69	C	-0.785843	-1.103441	0.238840
H70	H	-0.805335	-1.089645	0.187937
H71	H	-0.733412	-1.102272	0.236835
H72	H	-0.801821	-1.151967	0.251892
C73	C	-0.785196	-1.030737	0.535828
H74	H	-0.825977	-1.038212	0.570840
H75	H	-0.755893	-1.074260	0.534185
H76	H	-0.756171	-0.990721	0.554984
H77	H	-0.919187	-1.191134	0.364698
C78	C	-0.786058	-0.934462	0.431220
H79	H	-0.827191	-0.902638	0.423387
H80	H	-0.756909	-0.916672	0.474608
H81	H	-0.757058	-0.935679	0.383629
H82	H	-0.791973	-0.992387	0.284670
H83	H	-0.401243	-0.634011	0.513880
C84	C	-0.491997	-0.642416	0.431029
H85	H	-0.526278	-0.623216	0.468900
H86	H	-0.505682	-0.627107	0.378434
H87	H	-0.492096	-0.694842	0.433688
C88	C	-0.926083	-0.971317	0.278914
H89	H	-0.884741	-0.940408	0.268671
H90	H	-0.955336	-0.975107	0.231645
H91	H	-0.954867	-0.950701	0.321081
C92	C	-0.492674	-0.500041	0.430583
H93	H	-0.524486	-0.541120	0.422595
H94	H	-0.510613	-0.470901	0.473891
H95	H	-0.491266	-0.471004	0.383001
C96	C	-0.926998	-1.102398	0.238783
H97	H	-0.886025	-1.124344	0.212250
H98	H	-0.956110	-1.139850	0.263189
H99	H	-0.956118	-1.076127	0.200776
H100	H	-0.233986	-0.506186	0.370442
C101	C	-0.785767	-1.169680	0.496534
H102	H	-0.755462	-1.131326	0.517310
H103	H	-0.826899	-1.176903	0.531110
H104	H	-0.757946	-1.214094	0.493291
H105	H	-0.337164	-0.507059	0.255708
C106	C	-0.454064	-0.498397	0.277628
H107	H	-0.473387	-0.467370	0.318624
H108	H	-0.449442	-0.471030	0.229131
H109	H	-0.486529	-0.538899	0.269290
H110	H	-0.401325	-0.506777	0.513500
H111	H	-0.259477	-0.634846	0.471529
C112	C	-0.455312	-0.639996	0.278429
H113	H	-0.486164	-0.598599	0.268049
H114	H	-0.451359	-0.669216	0.231173
H115	H	-0.476099	-0.668783	0.320495
H116	H	-0.263224	-0.507277	0.475023
