data_functionalizedCrystal
_audit_creation_method	'MofGen! by Chris Wilmer'
_symmetry_space_group_name_H-M	'P1'
_symmetry_Int_Tables_number	1
_symmetry_cell_setting	triclinic
loop_
_symmetry_equiv_pos_as_xyz
  x,y,z
_cell_length_a	16.109301
_cell_length_b	15.944493
_cell_length_c	15.186229
_cell_angle_alpha	90.002130
_cell_angle_beta	89.999006
_cell_angle_gamma	83.468314
loop_
_atom_site_label
_atom_site_type_symbol
_atom_site_fract_x
_atom_site_fract_y
_atom_site_fract_z
O1	O	1.103143	0.107970	-0.073169
O2	O	0.861083	0.121407	-0.073180
O3	O	0.988748	-0.007592	-0.073181
O4	O	0.975478	0.236969	-0.073167
O5	O	0.988740	-0.007594	0.073276
O6	O	0.861074	0.121405	0.073278
O7	O	1.103135	0.107968	0.073289
Zn8	Zn	0.982103	0.114686	0.096536
Zn9	Zn	0.982114	0.114689	-0.096427
O10	O	0.975469	0.236967	0.073290
C11	C	0.830104	0.120861	0.000048
C12	C	0.737808	0.119229	0.000043
C13	C	0.428818	0.190440	0.000062
C14	C	0.515539	0.191981	0.000057
C15	C	0.535394	0.038929	0.000037
C16	C	0.448675	0.037389	0.000035
C17	C	0.395389	0.113147	0.000053
C18	C	0.568828	0.116228	0.000049
C19	C	0.662855	0.117899	0.000043
C20	C	0.301357	0.111477	0.000056
C21	C	0.988202	-0.038887	0.000044
C22	C	0.986576	-0.132136	0.000033
C23	C	1.061722	-0.367920	0.000053
C24	C	1.021203	-0.418474	-0.072160
C25	C	0.983562	-0.302856	0.000043
C26	C	1.021176	-0.418452	0.072236
C27	C	0.980658	-0.467764	0.000057
C28	C	0.943064	-0.352181	-0.072229
C29	C	0.943049	-0.352156	0.072231
C30	C	0.902472	-0.402677	0.000001
C31	C	0.985238	-0.207856	0.000034
C32	C	0.978976	-0.562761	0.000060
C33	C	1.134114	0.108514	0.000060
C34	C	1.226409	0.110145	0.000059
C35	C	0.976016	0.268262	0.000063
C36	C	0.977642	0.361510	0.000069
N37	N	0.982102	0.114684	0.228229
N38	N	0.982123	0.114684	-0.228120
C39	C	1.038651	0.057583	0.453951
C40	C	1.038654	0.057581	0.546141
C41	C	0.925567	0.171788	0.546151
C42	C	0.925561	0.171786	0.453963
C43	C	0.982108	0.114684	0.407866
C44	C	0.982116	0.114685	0.592243
C45	C	0.982119	0.114683	0.692200
C46	C	0.982105	0.114684	0.307903
H47	H	0.542752	0.254921	0.000064
C48	C	0.863374	0.234605	0.596859
C49	C	0.863421	0.234661	0.698262
C50	C	0.801228	0.297482	0.748967
C51	C	0.738987	0.360246	0.698269
C52	C	0.738937	0.360192	0.596860
C53	C	0.801131	0.297372	0.546155
H54	H	0.909498	0.188197	0.735798
H55	H	0.801265	0.297521	0.824037
H56	H	0.692948	0.406750	0.735803
H57	H	0.692861	0.406657	0.559325
H58	H	0.801093	0.297332	0.471085
C59	C	0.898494	-0.313007	0.154704
C60	C	0.821108	-0.247489	0.144872
C61	C	0.776562	-0.208338	0.227353
C62	C	0.809401	-0.234704	0.319667
C63	C	0.886791	-0.300225	0.329503
C64	C	0.931337	-0.339376	0.247022
H65	H	0.796795	-0.227968	0.076532
H66	H	0.719273	-0.159835	0.220071
H67	H	0.776425	-0.205722	0.380725
H68	H	0.911104	-0.319746	0.397843
H69	H	0.988626	-0.387879	0.254304
H70	H	1.129047	-0.352314	-0.000017
H71	H	1.054197	-0.447395	0.133282
H72	H	0.879513	0.218284	0.416438
H73	H	0.910078	-0.323350	-0.133344
C74	C	0.370203	0.273772	0.000070
C75	C	0.406979	0.358793	0.000074
C76	C	0.348366	0.442127	0.000078
C77	C	0.252978	0.440440	0.000078
C78	C	0.216197	0.355415	0.000074
C79	C	0.274810	0.272081	0.000070
H80	H	0.477595	0.360045	0.000074
H81	H	0.375594	0.505067	0.000081
H82	H	0.209589	0.502129	0.000082
H83	H	0.145581	0.354163	0.000074
H84	H	0.247582	0.209141	0.000067
C85	C	1.100844	-0.005234	0.403243
C86	C	1.163037	-0.068047	0.453942
C87	C	1.225230	-0.130868	0.403237
C88	C	1.225231	-0.130875	0.301834
C89	C	1.163036	-0.068060	0.251130
C90	C	1.100843	-0.005239	0.301835
H91	H	1.163038	-0.068044	0.529012
H92	H	1.271271	-0.177368	0.440772
H93	H	1.271270	-0.177379	0.264299
H94	H	1.163035	-0.068063	0.176060
H95	H	1.054802	0.041261	0.264299
H96	H	0.578790	-0.022751	0.000025
H97	H	1.084695	0.011083	0.583661
H98	H	0.421458	-0.025557	0.000025
H99	H	1.054214	-0.447430	-0.133208
H100	H	0.835095	-0.418120	-0.000041
