data_functionalizedCrystal
_audit_creation_method	'MofGen! by Chris Wilmer'
_symmetry_space_group_name_H-M	'P1'
_symmetry_Int_Tables_number	1
_symmetry_cell_setting	triclinic
loop_
_symmetry_equiv_pos_as_xyz
  x,y,z
_cell_length_a	18.215407
_cell_length_b	18.050589
_cell_length_c	18.215399
_cell_angle_alpha	90.023603
_cell_angle_beta	90.019833
_cell_angle_gamma	90.028669
loop_
_atom_site_label
_atom_site_type_symbol
_atom_site_fract_x
_atom_site_fract_y
_atom_site_fract_z
Zn1	Zn	1.125055	-0.295658	0.416138
Zn2	Zn	1.124956	-0.419853	0.293081
Zn3	Zn	1.001987	-0.295682	0.293085
Zn4	Zn	1.001946	-0.419812	0.416106
O5	O	1.063486	-0.357751	0.354603
O6	O	1.228026	-0.312140	0.399826
O7	O	1.108620	-0.403409	0.190097
O8	O	1.018371	-0.191755	0.309424
O9	O	1.227953	-0.403386	0.309417
O10	O	1.108788	-0.191737	0.399830
O11	O	1.018275	-0.312181	0.190101
O12	O	0.898998	-0.312141	0.309393
O13	O	1.018301	-0.403315	0.519095
O14	O	0.898967	-0.403339	0.399775
O15	O	1.108748	-0.312100	0.519118
O16	O	1.108580	-0.523772	0.309385
O17	O	1.018205	-0.523742	0.399771
C18	C	0.872280	-0.357739	0.354582
C19	C	0.790481	-0.357751	0.354590
C20	C	0.602291	-0.405312	0.401593
C21	C	0.525432	-0.405315	0.401602
C22	C	0.525434	-0.310204	0.307628
C23	C	0.602291	-0.310199	0.307623
C24	C	0.640718	-0.357757	0.354605
C25	C	0.487001	-0.357765	0.354619
C26	C	0.403668	-0.357767	0.354628
C27	C	0.724056	-0.357754	0.354596
C28	C	1.063397	-0.550704	0.354590
C29	C	1.063427	-0.633249	0.354610
C30	C	1.014329	-0.832710	0.403744
C31	C	0.996389	-0.882151	0.336590
C32	C	1.063499	-0.784380	0.354619
C33	C	1.081475	-0.882021	0.421781
C34	C	1.063567	-0.930365	0.354635
C35	C	1.045524	-0.832733	0.287430
C36	C	1.130641	-0.832599	0.372666
C37	C	1.112726	-0.882017	0.305466
C38	C	1.063458	-0.700281	0.354612
C39	C	1.063609	-1.014461	0.354635
C40	C	1.255439	-0.357765	0.354624
C41	C	1.337238	-0.357770	0.354634
C42	C	1.063531	-0.357700	0.546556
C43	C	1.063550	-0.357678	0.628355
C44	C	1.063595	-0.164046	0.354631
C45	C	1.063642	-0.081500	0.354643
C46	C	1.063484	-0.357749	0.163396
C47	C	1.063607	-0.357561	0.081598
C48	C	1.110663	-0.310138	0.816562
C49	C	1.110672	-0.310117	0.893421
C50	C	1.016489	-0.405104	0.893385
C51	C	1.016477	-0.405121	0.816528
C52	C	1.063568	-0.357639	0.778118
C53	C	1.063589	-0.357600	0.931834
C54	C	1.063598	-0.357577	1.015168
C55	C	1.063558	-0.357661	0.694779
H56	H	0.494148	-0.444038	0.439866
H57	H	1.149020	-0.271435	0.924718
H58	H	0.633579	-0.271469	0.269360
H59	H	0.494138	-0.271485	0.269377
F60	F	0.966377	-0.455637	0.934270
F61	F	0.966347	-0.455678	0.775610
H62	H	1.154337	-0.903530	0.263881
H63	H	0.633575	-0.444035	0.439850
F64	F	0.959902	-0.804410	0.457969
H65	H	0.939642	-0.903933	0.321340
F66	F	1.025603	-0.804554	0.213177
F67	F	1.204797	-0.804128	0.392641
H68	H	1.096652	-0.903671	0.478573
H69	H	1.149006	-0.271474	0.785291
