data_functionalizedCrystal
_audit_creation_method	'MofGen! by Chris Wilmer'
_symmetry_space_group_name_H-M	'P1'
_symmetry_Int_Tables_number	1
_symmetry_cell_setting	triclinic
loop_
_symmetry_equiv_pos_as_xyz
  x,y,z
_cell_length_a	10.489711
_cell_length_b	10.489716
_cell_length_c	9.730223
_cell_angle_alpha	90.002678
_cell_angle_beta	89.998239
_cell_angle_gamma	84.528072
loop_
_atom_site_label
_atom_site_type_symbol
_atom_site_fract_x
_atom_site_fract_y
_atom_site_fract_z
O1	O	1.694053	0.179784	-0.114326
O2	O	1.322851	0.196716	-0.114317
O3	O	1.516914	0.002649	-0.114327
O4	O	1.499989	0.373851	-0.114316
O5	O	1.516912	0.002654	0.114253
O6	O	1.322848	0.196721	0.114263
O7	O	1.694050	0.179789	0.114254
Zn8	Zn	1.508449	0.188256	0.150550
Zn9	Zn	1.508452	0.188249	-0.150613
O10	O	1.499986	0.373856	0.114264
C11	C	1.275317	0.195448	-0.000026
C12	C	1.133686	0.191646	-0.000023
C13	C	1.515642	-0.044880	-0.000041
C14	C	1.511837	-0.186511	-0.000053
C15	C	0.951289	0.308352	-0.000035
C16	C	1.043441	0.250053	-0.112737
C17	C	1.043412	0.250027	0.112625
C18	C	0.973501	0.126509	-0.112847
C19	C	0.973462	0.126500	0.112616
C20	C	1.065587	0.068111	-0.000112
C21	C	1.630843	-0.284198	-0.000044
C22	C	1.567958	-0.361554	-0.112740
C23	C	1.567929	-0.361513	0.112622
C24	C	1.449002	-0.262002	-0.112843
C25	C	1.448990	-0.261956	0.112620
C26	C	1.386018	-0.339263	-0.000104
C27	C	1.741584	0.181057	-0.000040
C28	C	1.883215	0.184859	-0.000052
C29	C	1.501259	0.421385	-0.000025
C30	C	1.505064	0.563016	-0.000022
N31	N	1.508456	0.188259	0.356087
N32	N	1.508455	0.188235	-0.356150
C33	C	1.594410	0.102356	0.428009
C34	C	1.594407	0.102340	0.571892
C35	C	1.422492	0.274143	0.571918
C36	C	1.422490	0.274151	0.428038
C37	C	1.693668	0.003170	0.427994
C38	C	1.693664	0.003155	0.571877
H39	H	0.901590	0.409854	-0.000144
C40	C	1.635829	-0.420336	-0.241454
N41	N	1.686959	-0.464611	-0.338396
H42	H	1.618190	-0.404989	0.207896
H43	H	1.352499	0.344073	0.630517
C44	C	1.664185	-0.129290	0.375225
N45	N	1.641975	-0.229056	0.335479
C46	C	1.328033	0.368750	0.348929
N47	N	1.256923	0.440045	0.289345
C48	C	1.826069	0.032827	0.624637
N49	N	1.925780	0.055213	0.664375
H50	H	1.662637	-0.089509	0.616491
H51	H	1.074432	0.302307	-0.208011
H52	H	0.942443	0.074292	0.207900
C53	C	1.381174	-0.203162	0.241350
N54	N	1.330101	-0.158881	0.338320
C55	C	1.132429	-0.069134	-0.000197
N56	N	1.182775	-0.172507	-0.000267
H57	H	1.786293	0.034273	0.383367
H58	H	1.398793	-0.218695	-0.208225
H59	H	1.282425	-0.363682	-0.000162
H60	H	1.074362	0.302303	0.207907
H61	H	1.734358	-0.259532	-0.000161
H62	H	0.942698	0.074303	-0.208239
