data_functionalizedCrystal
_audit_creation_method	'MofGen! by Chris Wilmer'
_symmetry_space_group_name_H-M	'P1'
_symmetry_Int_Tables_number	1
_symmetry_cell_setting	triclinic
loop_
_symmetry_equiv_pos_as_xyz
  x,y,z
_cell_length_a	14.519731
_cell_length_b	15.995292
_cell_length_c	13.596369
_cell_angle_alpha	89.997204
_cell_angle_beta	89.994584
_cell_angle_gamma	83.578735
loop_
_atom_site_label
_atom_site_type_symbol
_atom_site_fract_x
_atom_site_fract_y
_atom_site_fract_z
O1	O	1.223632	0.109848	-0.081786
O2	O	1.723632	0.609848	0.418214
O3	O	0.955131	0.122755	-0.081787
O4	O	1.455131	0.622755	0.418213
O5	O	1.096749	-0.005578	-0.081788
O6	O	1.596749	0.494422	0.418212
O7	O	1.082014	0.238181	-0.081785
O8	O	1.582014	0.738181	0.418215
O9	O	1.096735	-0.005585	0.081795
O10	O	1.596735	0.494415	0.581795
O11	O	0.955117	0.122748	0.081796
O12	O	1.455117	0.622748	0.581796
O13	O	1.223618	0.109841	0.081797
O14	O	1.723618	0.609841	0.581797
Zn15	Zn	1.089365	0.116294	0.107769
Zn16	Zn	1.589365	0.616294	0.607769
Zn17	Zn	1.089383	0.116303	-0.107759
Zn18	Zn	1.589383	0.616303	0.392241
O19	O	1.082000	0.238174	0.081798
O20	O	1.582000	0.738174	0.581798
C21	C	0.920766	0.122147	0.000004
C22	C	1.420766	0.622147	0.500004
C23	C	0.818389	0.120335	0.000004
C24	C	1.318389	0.620335	0.500004
C25	C	0.735248	0.118862	-0.000000
C26	C	1.235248	0.618862	0.500000
C27	C	0.630943	0.117022	-0.000001
C28	C	1.130943	0.617022	0.499999
C29	C	0.547807	0.115562	-0.000001
C30	C	1.047807	0.615562	0.499999
C31	C	0.443495	0.113722	-0.000003
C32	C	0.943495	0.613722	0.499997
C33	C	1.096142	-0.036778	0.000001
C34	C	1.596142	0.463222	0.500001
C35	C	1.094344	-0.129734	-0.000007
C36	C	1.594344	0.370266	0.499993
C37	C	1.087734	-0.467482	0.000002
C38	C	1.587734	0.032518	0.500002
C39	C	1.189950	-0.444010	0.000368
C40	C	1.689950	0.055990	0.500368
C41	C	1.191893	-0.347331	-0.000004
C42	C	1.691893	0.152669	0.499996
C43	C	1.091014	-0.299921	-0.000001
C44	C	1.591014	0.200079	0.499999
C45	C	1.039919	-0.329099	-0.093412
C46	C	1.539919	0.170901	0.406588
C47	C	1.038688	-0.425891	-0.093487
C48	C	1.538688	0.074109	0.406513
C49	C	1.036585	-0.425759	0.092537
C50	C	1.536585	0.074241	0.592537
C51	C	1.040373	-0.329261	0.093768
C52	C	1.540373	0.170739	0.593768
C53	C	1.092862	-0.205222	-0.000007
C54	C	1.592862	0.294778	0.499993
C55	C	1.085883	-0.562181	0.000001
C56	C	1.585883	-0.062181	0.500001
C57	C	1.257983	0.110449	0.000003
C58	C	1.757983	0.610449	0.500003
C59	C	1.360359	0.112261	-0.000003
C60	C	1.860359	0.612261	0.499997
C61	C	1.082606	0.269374	0.000007
C62	C	1.582606	0.769374	0.500007
C63	C	1.084404	0.362330	0.000008
C64	C	1.584404	0.862330	0.500008
N65	N	1.089359	0.116287	0.254860
N66	N	1.589359	0.616287	0.754860
N67	N	1.089397	0.116303	-0.254851
N68	N	1.589397	0.616303	0.245149
C69	C	1.089382	0.116303	0.656151
C70	C	1.589382	0.616303	1.156151
C71	C	1.089373	0.116302	0.544500
C72	C	1.589373	0.616302	1.044500
C73	C	1.089371	0.116296	0.455509
C74	C	1.589371	0.616296	0.955509
C75	C	1.089361	0.116293	0.343851
C76	C	1.589361	0.616293	0.843851
H77	H	1.229343	-0.471948	0.067357
H78	H	1.729343	0.028052	0.567357
N79	N	0.936928	-0.444458	0.093378
N80	N	1.436928	0.055542	0.593378
H81	H	0.924561	-0.476184	0.155352
H82	H	1.424561	0.023816	0.655352
H83	H	0.894588	-0.389915	0.091159
H84	H	1.394588	0.110085	0.591159
H85	H	0.963743	-0.440559	-0.097717
H86	H	1.463743	0.059441	0.402283
N87	N	0.941592	-0.287034	-0.098015
N88	N	1.441592	0.212966	0.401985
H89	H	0.932575	-0.253067	-0.160584
H90	H	1.432575	0.246933	0.339416
H91	H	0.897187	-0.331328	-0.097051
H92	H	1.397187	0.168672	0.402949
N93	N	1.241867	-0.482343	-0.087871
N94	N	1.741867	0.017657	0.412129
H95	H	1.297044	-0.521618	-0.065068
H96	H	1.797044	-0.021618	0.434932
H97	H	1.199398	-0.514808	-0.128048
H98	H	1.699398	-0.014808	0.371952
H99	H	1.232158	-0.328861	-0.067082
H100	H	1.732158	0.171139	0.432918
H101	H	1.231910	-0.328246	0.066955
H102	H	1.731910	0.171754	0.566955
H103	H	1.074086	-0.452649	-0.163315
H104	H	1.574086	0.047351	0.336685
N105	N	1.086940	-0.302467	-0.185500
N106	N	1.586940	0.197533	0.314500
H107	H	1.053560	-0.321533	-0.245207
H108	H	1.553560	0.178467	0.254793
H109	H	1.085291	-0.239181	-0.186477
H110	H	1.585291	0.260819	0.313523
H111	H	1.068769	-0.453800	0.163343
H112	H	1.568769	0.046200	0.663343
H113	H	1.077578	-0.310640	0.162873
H114	H	1.577578	0.189360	0.662873
N115	N	0.942827	-0.285765	0.101224
N116	N	1.442827	0.214235	0.601224
H117	H	0.944701	-0.222934	0.105381
H118	H	1.444701	0.277066	0.605381
H119	H	0.906430	-0.299436	0.041158
H120	H	1.406430	0.200564	0.541158
