data_functionalizedCrystal
_audit_creation_method	'MofGen! by Chris Wilmer'
_symmetry_space_group_name_H-M	'P1'
_symmetry_Int_Tables_number	1
_symmetry_cell_setting	triclinic
loop_
_symmetry_equiv_pos_as_xyz
  x,y,z
_cell_length_a	10.654547
_cell_length_b	16.109301
_cell_length_c	14.586319
_cell_angle_alpha	90.005214
_cell_angle_beta	89.998667
_cell_angle_gamma	96.027452
loop_
_atom_site_label
_atom_site_type_symbol
_atom_site_fract_x
_atom_site_fract_y
_atom_site_fract_z
O1	O	1.666258	-0.116760	-0.076198
O2	O	1.300628	-0.127889	-0.076210
O3	O	1.493487	-0.001353	-0.076194
O4	O	1.473399	-0.243296	-0.076214
O5	O	1.493474	-0.001351	0.076287
O6	O	1.300615	-0.127887	0.076271
O7	O	1.666244	-0.116758	0.076283
Cu8	Cu	1.483428	-0.122322	0.090200
Cu9	Cu	1.483444	-0.122325	-0.090127
O10	O	1.473385	-0.243294	0.076267
C11	C	1.253834	-0.127071	0.000029
C12	C	1.114424	-0.124628	0.000025
C13	C	1.492667	0.029628	0.000047
C14	C	1.490227	0.121937	0.000048
C15	C	1.713038	-0.117576	0.000042
C16	C	1.852448	-0.120019	0.000040
C17	C	2.048941	-0.123478	0.083147
C18	C	1.917952	-0.121170	0.083155
C19	C	1.917941	-0.121167	-0.083088
C20	C	2.048929	-0.123469	-0.083095
C21	C	2.114436	-0.124637	0.166267
C22	C	2.048953	-0.123487	0.249395
C23	C	1.917964	-0.121180	0.249404
C24	C	1.852459	-0.120022	0.166283
C25	C	1.474206	-0.274275	0.000024
C26	C	1.476645	-0.366584	0.000017
N27	N	1.483426	-0.122320	0.217031
C28	C	1.598993	0.343564	0.000037
C29	C	1.596691	0.430298	0.000029
C30	C	1.367870	0.411782	0.000025
C31	C	1.370174	0.325050	0.000026
C32	C	1.485739	0.290943	0.000037
C33	C	1.481134	0.464410	0.000028
C34	C	1.478637	0.558451	0.000020
C35	C	1.488236	0.196896	0.000043
N36	N	1.483456	-0.122320	-0.216958
C37	C	1.568853	-0.066309	0.452045
C38	C	1.568856	-0.066307	0.548026
C39	C	1.398021	-0.178334	0.548021
C40	C	1.398012	-0.178331	0.452042
C41	C	1.483435	-0.122320	0.404056
C42	C	1.483447	-0.122321	0.596017
C43	C	1.483451	-0.122319	0.700084
C44	C	1.483431	-0.122320	0.299982
H45	H	2.221093	-0.126519	0.166269
O46	O	2.112552	-0.124459	0.330157
C47	C	2.094788	-0.052027	0.380741
H48	H	2.068747	-0.001155	0.332113
H49	H	2.185721	-0.029417	0.418441
H50	H	2.015535	-0.066938	0.432572
O51	O	1.651696	-0.011766	0.405492
C52	C	1.631303	0.070647	0.429006
H53	H	1.530754	0.071643	0.455383
H54	H	1.645766	0.112311	0.365911
H55	H	1.700896	0.094630	0.484737
O56	O	1.854330	-0.119907	0.330127
C57	C	1.792805	-0.046704	0.335106
H58	H	1.842243	0.002839	0.287938
H59	H	1.796120	-0.022551	0.408623
H60	H	1.690304	-0.061205	0.312784
H61	H	1.745800	-0.118141	0.166297
O62	O	1.315207	-0.232782	0.405320
C63	C	1.382436	-0.284496	0.349807
H64	H	1.480712	-0.251982	0.335429
H65	H	1.330012	-0.297326	0.282315
H66	H	1.390945	-0.345997	0.386787
O67	O	1.711139	0.310294	0.000078
C68	C	1.688892	0.222458	0.000056
H69	H	1.590884	0.202657	0.028927
H70	H	1.762838	0.195412	0.044323
H71	H	1.694967	0.198277	-0.073097
H72	H	1.638409	-0.020698	0.587096
H73	H	1.328473	-0.223938	0.587101
H74	H	1.277943	0.282204	0.000023
O75	O	1.854225	-0.120197	-0.163801
C76	C	1.764179	-0.190735	-0.168761
H77	H	1.793697	-0.241664	-0.121599
H78	H	1.757897	-0.214838	-0.242277
H79	H	1.668132	-0.172741	-0.146420
H80	H	1.273781	0.439563	0.000018
H81	H	2.102246	-0.124410	-0.150781
O82	O	1.706823	0.481294	0.000073
C83	C	1.809310	0.432588	0.000057
H84	H	1.777407	0.368052	0.028928
H85	H	1.888658	0.464126	0.044328
H86	H	1.844739	0.426200	-0.073094
