data_functionalizedCrystal
_audit_creation_method	'MofGen! by Chris Wilmer'
_symmetry_space_group_name_H-M	'P1'
_symmetry_Int_Tables_number	1
_symmetry_cell_setting	triclinic
loop_
_symmetry_equiv_pos_as_xyz
  x,y,z
_cell_length_a	10.489741
_cell_length_b	14.853567
_cell_length_c	13.330367
_cell_angle_alpha	90.000844
_cell_angle_beta	90.004859
_cell_angle_gamma	84.087052
loop_
_atom_site_label
_atom_site_type_symbol
_atom_site_fract_x
_atom_site_fract_y
_atom_site_fract_z
O1	O	-1.692632	-0.127195	-0.083352
O2	O	-1.321302	-0.139134	-0.083367
O3	O	-1.516886	-0.001990	-0.083362
O4	O	-1.497048	-0.264338	-0.083357
O5	O	-1.516857	-0.001987	0.083485
O6	O	-1.321274	-0.139131	0.083480
O7	O	-1.692603	-0.127191	0.083495
Cu8	Cu	-1.506936	-0.133161	0.098722
Cu9	Cu	-1.506969	-0.133164	-0.098594
O10	O	-1.497020	-0.264335	0.083490
C11	C	-1.273766	-0.138230	0.000055
C12	C	-1.132167	-0.135533	0.000049
C13	C	-1.740139	-0.128095	0.000071
C14	C	-1.881738	-0.130793	0.000071
C15	C	-1.065006	-0.048272	0.000056
C16	C	-0.972431	-0.089495	-0.082205
C17	C	-0.972437	-0.089512	0.082293
C18	C	-1.041457	-0.176791	-0.082281
C19	C	-1.041472	-0.176797	0.082291
C20	C	-0.948923	-0.218083	0.000010
C21	C	-1.515973	0.031605	0.000058
C22	C	-1.513279	0.131704	0.000050
C23	C	-1.497933	-0.297930	0.000067
C24	C	-1.500626	-0.398029	0.000070
N25	N	-1.506922	-0.133157	0.237504
C26	C	-1.385712	0.544953	0.000064
C27	C	-1.618070	0.564931	0.000073
C28	C	-1.620602	0.470883	0.000067
C29	C	-1.505688	0.413866	0.000061
C30	C	-1.388241	0.450896	0.000061
C31	C	-1.738047	0.433846	0.000077
C32	C	-1.740585	0.339793	0.000073
C33	C	-1.625669	0.282773	0.000060
C34	C	-1.508217	0.319809	0.000058
C35	C	-1.393303	0.262791	0.000052
C36	C	-1.275850	0.299825	0.000044
C37	C	-1.273325	0.393877	0.000048
C38	C	-1.628193	0.188722	0.000056
C39	C	-1.395832	0.168735	0.000049
N40	N	-1.506994	-0.133161	-0.237376
C41	C	-1.420361	-0.193868	0.710124
C42	C	-1.593612	-0.072454	0.710097
C43	C	-1.593598	-0.072452	0.605078
C44	C	-1.506965	-0.133159	0.552578
C45	C	-1.420347	-0.193868	0.605096
C46	C	-1.680223	-0.011749	0.552552
C47	C	-1.680213	-0.011744	0.447527
C48	C	-1.593573	-0.072448	0.395025
C49	C	-1.506950	-0.133159	0.447550
C50	C	-1.420318	-0.193866	0.395050
C51	C	-1.333688	-0.254574	0.447573
C52	C	-1.333707	-0.254572	0.552594
C53	C	-1.593554	-0.072450	0.290004
C54	C	-1.420303	-0.193867	0.290022
H55	H	-1.115501	0.023462	-0.000048
H56	H	-1.664152	-0.023033	0.752845
Br57	Br	-1.302788	-0.276248	0.781398
H58	H	-0.941861	-0.052573	0.151839
Br59	Br	-1.797775	0.070643	0.376252
H60	H	-0.941843	-0.052574	-0.151754
Br61	Br	-1.711125	0.009925	0.218729
H62	H	-1.711628	0.611360	0.000086
H63	H	-1.072092	-0.213687	0.151843
H64	H	-1.071882	-0.213686	-0.151905
H65	H	-1.290084	0.575111	0.000053
H66	H	-1.831604	0.480276	0.000092
H67	H	-1.836222	0.309648	0.000078
Br68	Br	-1.787580	0.138463	0.000091
H69	H	-1.349752	-0.243299	0.247282
Br70	Br	-1.797804	0.070628	0.623798
H71	H	-1.302253	0.122316	0.000040
Br72	Br	-1.216149	-0.336956	0.623876
H73	H	-0.898693	-0.289892	-0.000034
H74	H	-1.177701	0.424039	0.000042
Br75	Br	-1.119901	0.222434	0.000049
Br76	Br	-1.216131	-0.336968	0.376311
