data_functionalizedCrystal
_audit_creation_method	'MofGen! by Chris Wilmer'
_symmetry_space_group_name_H-M	'P1'
_symmetry_Int_Tables_number	1
_symmetry_cell_setting	triclinic
loop_
_symmetry_equiv_pos_as_xyz
  x,y,z
_cell_length_a	16.109301
_cell_length_b	11.792254
_cell_length_c	15.186229
_cell_angle_alpha	90.012130
_cell_angle_beta	90.005553
_cell_angle_gamma	83.830091
loop_
_atom_site_label
_atom_site_type_symbol
_atom_site_fract_x
_atom_site_fract_y
_atom_site_fract_z
O1	O	1.103826	0.145898	0.073181
O2	O	1.603826	0.645898	0.573181
O3	O	0.861850	0.164053	0.073193
O4	O	1.361850	0.664053	0.573193
O5	O	0.988705	-0.010245	0.073180
O6	O	1.488705	0.489755	0.573180
O7	O	0.976972	0.320197	0.073193
O8	O	1.476972	0.820197	0.573193
O9	O	0.988688	-0.010273	-0.073277
O10	O	1.488688	0.489727	0.426723
O11	O	0.861833	0.164025	-0.073264
O12	O	1.361833	0.664025	0.426736
O13	O	1.103809	0.145870	-0.073277
O14	O	1.603809	0.645870	0.426723
Zn15	Zn	0.982818	0.154943	-0.096524
Zn16	Zn	1.482818	0.654943	0.403476
Zn17	Zn	0.982841	0.154980	0.096440
Zn18	Zn	1.482841	0.654980	0.596440
O19	O	0.976954	0.320169	-0.073264
O20	O	1.476954	0.820169	0.426736
C21	C	0.987957	-0.052543	-0.000048
C22	C	1.487957	0.447457	0.499952
C23	C	0.985745	-0.178537	-0.000047
C24	C	1.485745	0.321463	0.499953
C25	C	0.830863	0.163304	-0.000034
C26	C	1.330863	0.663304	0.499966
C27	C	0.738558	0.161099	-0.000030
C28	C	1.238558	0.661099	0.499970
C29	C	0.983947	-0.280858	-0.000044
C30	C	1.483947	0.219142	0.499956
C31	C	0.981700	-0.409225	-0.000036
C32	C	1.481700	0.090775	0.499964
C33	C	0.430015	0.257316	-0.000041
C34	C	0.930015	0.757316	0.499959
C35	C	0.516745	0.259399	-0.000036
C36	C	1.016745	0.759399	0.499964
C37	C	0.535639	0.052599	-0.000032
C38	C	1.035639	0.552599	0.499968
C39	C	0.448910	0.050518	-0.000031
C40	C	0.948910	0.550518	0.499969
C41	C	0.396100	0.152880	-0.000040
C42	C	0.896100	0.652880	0.499960
C43	C	0.569559	0.157044	-0.000036
C44	C	1.069559	0.657044	0.499964
C45	C	0.663596	0.159300	-0.000030
C46	C	1.163596	0.659300	0.499970
C47	C	0.302058	0.150623	-0.000044
C48	C	0.802058	0.650623	0.499956
C49	C	1.134796	0.146620	-0.000048
C50	C	1.634796	0.646620	0.499952
C51	C	1.227102	0.148825	-0.000047
C52	C	1.727102	0.648825	0.499953
C53	C	0.977702	0.362467	-0.000034
C54	C	1.477702	0.862467	0.499966
C55	C	0.979914	0.488461	-0.000029
C56	C	1.479914	0.988461	0.499971
N57	N	0.982809	0.154917	-0.228216
N58	N	1.482809	0.654917	0.271784
C59	C	0.932101	0.086112	-0.546169
C60	C	1.432101	0.586112	-0.046169
C61	C	0.932094	0.086095	-0.453979
C62	C	1.432094	0.586095	0.046021
C63	C	1.033570	0.223806	-0.453921
C64	C	1.533570	0.723806	0.046079
C65	C	1.033581	0.223815	-0.546109
C66	C	1.533581	0.723815	-0.046109
C67	C	0.982842	0.154970	-0.592231
C68	C	1.482842	0.654970	-0.092231
C69	C	0.982824	0.154944	-0.407853
C70	C	1.482824	0.654944	0.092147
C71	C	0.982817	0.154927	-0.307897
C72	C	1.482817	0.654927	0.192103
C73	C	0.982850	0.154986	-0.692193
C74	C	1.482850	0.654986	-0.192193
N75	N	0.982857	0.154997	0.228133
N76	N	1.482857	0.654997	0.728133
H77	H	0.387020	0.340666	-0.000048
H78	H	0.887020	0.840666	0.499952
H79	H	0.890777	0.030022	-0.416479
H80	H	1.390777	0.530022	0.083521
H81	H	1.074879	0.279859	-0.416358
H82	H	1.574879	0.779859	0.083642
H83	H	1.074905	0.279889	-0.583614
H84	H	1.574905	0.779889	-0.083614
H85	H	0.578647	-0.030740	-0.000027
H86	H	1.078647	0.469260	0.499973
C87	C	0.554049	0.374278	-0.000042
C88	C	1.054049	0.874278	0.499958
H89	H	0.510173	0.434938	-0.000054
H90	H	1.010173	0.934938	0.499946
H91	H	0.587492	0.379409	0.051030
H92	H	1.087492	0.879409	0.551030
H93	H	0.587485	0.379370	-0.051122
H94	H	1.087485	0.879370	0.448878
C95	C	0.411597	-0.064364	-0.000025
C96	C	0.911597	0.435636	0.499975
H97	H	0.352381	-0.050941	-0.000014
H98	H	0.852381	0.449059	0.499986
H99	H	0.429683	-0.106531	-0.051095
H100	H	0.929683	0.393469	0.448905
H101	H	0.429696	-0.106486	0.051057
H102	H	0.929696	0.393514	0.551057
C103	C	0.876291	0.010386	-0.596899
C104	C	1.376291	0.510386	-0.096899
H105	H	0.846075	-0.030631	-0.556259
H106	H	1.346075	0.469369	-0.056259
H107	H	0.838246	0.056890	-0.632857
H108	H	1.338246	0.556890	-0.132857
H109	H	0.910127	-0.041840	-0.632868
H110	H	1.410127	0.458160	-0.132868
