data_functionalizedCrystal
_audit_creation_method	'MofGen! by Chris Wilmer'
_symmetry_space_group_name_H-M	'P1'
_symmetry_Int_Tables_number	1
_symmetry_cell_setting	triclinic
loop_
_symmetry_equiv_pos_as_xyz
  x,y,z
_cell_length_a	6.394984
_cell_length_b	16.992694
_cell_length_c	15.455313
_cell_angle_alpha	92.857794
_cell_angle_beta	92.744371
_cell_angle_gamma	91.418212
loop_
_atom_site_label
_atom_site_type_symbol
_atom_site_fract_x
_atom_site_fract_y
_atom_site_fract_z
O1	O	0.435072	-1.048119	-0.072017
O2	O	0.430202	-0.819786	-0.072043
O3	O	0.129113	-0.937196	-0.072027
O4	O	0.736160	-0.930709	-0.072033
O5	O	0.146255	-0.930481	0.072234
O6	O	0.447344	-0.813072	0.072219
O7	O	0.452214	-1.041404	0.072244
Cu8	Cu	0.451344	-0.926625	0.085404
Cu9	Cu	0.431072	-0.934566	-0.085202
O10	O	0.753302	-0.923995	0.072228
C11	C	0.432511	-0.787155	0.000085
C12	C	0.413829	-0.699927	0.000075
C13	C	1.059651	-0.932548	0.000106
C14	C	0.822760	-0.928640	0.000104
C15	C	0.449904	-1.074036	0.000115
C16	C	0.468586	-1.161264	0.000119
N17	N	0.465602	-0.921045	0.205398
N18	N	0.416798	-0.940151	-0.205197
C19	C	0.594077	-0.651466	0.000074
C20	C	0.576513	-0.569505	0.000086
C21	C	0.378698	-0.536007	0.000093
C22	C	0.198437	-0.584474	0.000097
C23	C	0.216003	-0.666433	0.000091
C24	C	0.305891	-0.291690	0.000117
C25	C	0.288338	-0.209725	0.000120
C26	C	0.666416	-0.194761	0.000111
C27	C	0.683965	-0.276723	0.000100
C28	C	0.503704	-0.325182	0.000108
N29	N	0.360740	-0.452231	0.000103
N30	N	0.521665	-0.408957	0.000105
C31	C	0.337742	-0.970943	0.250799
C32	C	0.348546	-0.966731	0.341607
C33	C	0.487221	-0.912624	0.387011
C34	C	0.615085	-0.862721	0.341604
C35	C	0.604270	-0.866930	0.250799
C36	C	0.533847	-0.894457	0.658590
C37	C	0.544658	-0.890253	0.749402
C38	C	0.278114	-0.994263	0.749398
C39	C	0.267319	-0.998470	0.658591
C40	C	0.395176	-0.948564	0.613192
N41	N	0.498271	-0.908319	0.479831
N42	N	0.384114	-0.952866	0.520374
H43	H	0.755159	-0.678733	0.000068
C44	C	0.114770	-1.057984	0.608643
C45	C	-0.025892	-1.112874	0.658574
C46	C	-0.178434	-1.172390	0.608622
C47	C	-0.190315	-1.177015	0.508740
C48	C	-0.049648	-1.122122	0.458803
C49	C	0.102894	-1.062607	0.508754
H50	H	-0.017101	-1.109452	0.732518
H51	H	-0.282565	-1.213024	0.645589
H52	H	-0.303236	-1.221072	0.471763
H53	H	-0.058439	-1.125544	0.384859
H54	H	0.207024	-1.021972	0.471787
C55	C	0.017729	-0.719744	0.000090
C56	C	-0.131732	-0.711172	0.075004
C57	C	-0.330012	-0.764482	0.075009
C58	C	-0.378831	-0.826364	0.000098
C59	C	-0.229367	-0.834939	-0.074822
C60	C	-0.031087	-0.781629	-0.074826
H61	H	-0.095597	-0.665360	0.130463
H62	H	-0.440655	-0.758134	0.130470
H63	H	-0.525610	-0.865828	0.000101
H64	H	-0.265502	-0.880751	-0.130281
H65	H	0.079556	-0.787977	-0.130288
C66	C	0.767633	-0.803202	0.391545
C67	C	0.779653	-0.798606	0.491427
C68	C	0.932211	-0.739087	0.541365
C69	C	1.072749	-0.684164	0.491420
C70	C	1.060734	-0.688757	0.391532
C71	C	0.908177	-0.748276	0.341594
H72	H	0.675614	-0.839266	0.528405
H73	H	0.941104	-0.735687	0.615309
H74	H	1.185682	-0.640104	0.528387
H75	H	1.164774	-0.648098	0.354554
H76	H	0.899283	-0.751676	0.267650
H77	H	0.657592	-0.846191	0.786367
H78	H	0.127245	-0.182454	0.000125
C79	C	0.137460	-1.049151	0.799338
C80	C	-0.020291	-1.013994	0.861775
C81	C	-0.160959	-1.068883	0.911713
C82	C	-0.143876	-1.158929	0.899214
C83	C	0.013882	-1.194092	0.836774
C84	C	0.154550	-1.139203	0.786836
H85	H	-0.032943	-0.947331	0.871029
H86	H	-0.277742	-1.042853	0.957935
H87	H	-0.248006	-1.199561	0.936181
H88	H	0.026535	-1.260754	0.827519
H89	H	0.271333	-1.165233	0.740614
H90	H	0.637958	-0.853823	0.621633
C91	C	0.185194	-1.030462	0.200859
C92	C	0.012581	-1.001092	0.138445
C93	C	-0.139977	-1.060611	0.088507
C94	C	-0.119922	-1.149500	0.100984
C95	C	0.052699	-1.178875	0.163400
C96	C	0.205257	-1.119356	0.213338
H97	H	-0.002271	-0.935287	0.129206
H98	H	-0.267762	-1.038866	0.042302
H99	H	-0.232854	-1.193560	0.064017
H100	H	0.067551	-1.244679	0.172638
H101	H	0.333042	-1.141101	0.259543
H102	H	0.723291	-0.530052	0.000084
C103	C	0.107600	-0.344985	0.000113
C104	C	-0.041877	-0.336405	0.075022
C105	C	-0.240181	-0.389704	0.075015
C106	C	-0.289009	-0.451581	0.000101
C107	C	-0.139528	-0.460163	-0.074813
C108	C	0.058776	-0.406865	-0.074807
H109	H	-0.005735	-0.290598	0.130483
H110	H	-0.350837	-0.383350	0.130472
H111	H	-0.435806	-0.491036	0.000096
H112	H	-0.175670	-0.505971	-0.130275
H113	H	0.169431	-0.413219	-0.130263
H114	H	0.845045	-0.303991	0.000084
H115	H	0.813173	-0.155297	0.000106
H116	H	0.708384	-0.826297	0.213834
H117	H	0.244431	-1.007361	0.378571
H118	H	0.037373	-0.557193	0.000115
