data_functionalizedCrystal
_audit_creation_method	'MofGen! by Chris Wilmer'
_symmetry_space_group_name_H-M	'P1'
_symmetry_Int_Tables_number	1
_symmetry_cell_setting	triclinic
loop_
_symmetry_equiv_pos_as_xyz
  x,y,z
_cell_length_a	15.538191
_cell_length_b	15.944545
_cell_length_c	14.185569
_cell_angle_alpha	76.842384
_cell_angle_beta	97.875798
_cell_angle_gamma	65.384133
loop_
_atom_site_label
_atom_site_type_symbol
_atom_site_fract_x
_atom_site_fract_y
_atom_site_fract_z
O1	O	1.228534	-0.247249	-0.083418
O2	O	0.954278	-0.150261	-0.083422
O3	O	1.098902	-0.323318	-0.083408
O4	O	1.083911	-0.074191	-0.083432
O5	O	1.141625	-0.374437	0.083431
O6	O	0.997001	-0.201379	0.083417
O7	O	1.271257	-0.298367	0.083421
Cu8	Cu	1.138030	-0.254541	0.098652
Cu9	Cu	1.087505	-0.194087	-0.098654
O10	O	1.126634	-0.125310	0.083407
C11	C	0.940544	-0.165673	-0.000003
C12	C	0.835971	-0.135447	-0.000004
C13	C	0.548173	-0.435734	0.000009
C14	C	0.449907	-0.407310	0.000006
C15	C	0.427467	-0.247435	-0.000009
C16	C	0.525734	-0.275846	-0.000001
C17	C	0.586079	-0.369997	0.000007
C18	C	0.563640	-0.210109	-0.000003
C19	C	0.661897	-0.238518	0.000000
C20	C	0.722248	-0.332663	0.000005
C21	C	0.684336	-0.398405	0.000010
C22	C	0.503291	-0.115957	-0.000018
C23	C	0.541197	-0.050220	-0.000020
C24	C	0.639457	-0.078630	-0.000010
C25	C	0.699808	-0.172776	-0.000005
C26	C	0.677369	-0.012888	-0.000015
C27	C	0.775626	-0.041296	-0.000012
C28	C	0.798065	-0.201184	-0.000002
C29	C	1.119642	-0.379983	0.000012
C30	C	1.117781	-0.472662	0.000015
C31	C	1.022570	-0.714257	-0.000007
C32	C	1.047406	-0.652464	-0.082267
C33	C	1.111134	-0.806272	-0.000013
C34	C	1.089551	-0.702897	0.082223
C35	C	1.114396	-0.642357	0.000002
C36	C	1.135929	-0.745680	-0.082341
C37	C	1.178080	-0.796135	0.082222
C38	C	1.202976	-0.734389	-0.000058
C39	C	1.109252	-0.900698	-0.000023
C40	C	1.116282	-0.547934	0.000005
C41	C	1.284990	-0.282955	-0.000001
C42	C	1.389562	-0.313179	-0.000006
C43	C	1.105892	-0.068645	-0.000016
C44	C	1.107752	0.024037	-0.000025
N45	N	1.173574	-0.297063	0.237427
N46	N	1.051969	-0.151574	-0.237428
C47	C	0.947543	-0.026679	0.605055
C48	C	0.974473	-0.058886	0.710079
C49	C	1.102563	-0.212094	0.710052
C50	C	1.075640	-0.179902	0.605026
C51	C	0.998130	-0.087193	0.552536
C52	C	1.126228	-0.240416	0.552507
C53	C	1.099311	-0.208224	0.447490
C54	C	1.021806	-0.115518	0.394992
C55	C	0.971213	-0.055002	0.447519
C56	C	1.203742	-0.333121	0.604999
C57	C	1.254330	-0.393635	0.552480
C58	C	1.227408	-0.361447	0.447461
C59	C	1.149903	-0.268741	0.394963
C60	C	1.278001	-0.421963	0.394935
C61	C	1.251084	-0.389772	0.289917
C62	C	1.122986	-0.236549	0.289946
H63	H	0.492049	0.026439	-0.000031
C64	C	0.918813	0.007691	0.767847
N65	N	0.876892	0.057837	0.811357
H66	H	1.155477	-0.764551	-0.151963
H67	H	1.279297	-0.742161	-0.000103
C68	C	0.610975	0.090676	-0.000029
N69	N	0.560967	0.168682	-0.000038
H70	H	0.806491	0.012231	-0.000005
H71	H	0.946275	-0.706625	-0.000088
H72	H	1.233260	-0.857790	0.151771
H73	H	1.317442	-0.469118	0.595230
C74	C	0.972817	-0.569176	-0.176219
N75	N	0.916632	-0.506446	-0.246980
H76	H	1.069940	-0.683880	0.151766
H77	H	1.059863	-0.161061	0.247206
C78	C	0.395203	-0.084708	-0.000026
N79	N	0.313792	-0.061173	-0.000032
C80	C	1.187819	-0.314073	0.767804
N81	N	1.252033	-0.390887	0.811301
H82	H	1.292279	-0.439049	0.247156
H83	H	0.733475	-0.475074	0.000023
C84	C	0.992195	-0.080107	0.279469
N85	N	0.969890	-0.053437	0.192457
H86	H	0.908090	0.020487	0.404779
H87	H	0.847204	-0.277853	0.000011
C88	C	0.862239	0.075283	0.547309
N89	N	0.797980	0.152071	0.503815
H90	H	1.225658	-0.359326	0.690511
H91	H	0.802251	-0.355787	-0.000006
C92	C	0.614561	-0.539307	0.000023
N93	N	0.664563	-0.617313	0.000031
H94	H	0.419049	-0.460848	0.000006
C95	C	1.363263	-0.523938	0.452688
N96	N	1.427483	-0.600747	0.496188
H97	H	0.378319	-0.170776	-0.000020
