data_functionalizedCrystal
_audit_creation_method	'MofGen! by Chris Wilmer'
_symmetry_space_group_name_H-M	'P1'
_symmetry_Int_Tables_number	1
_symmetry_cell_setting	triclinic
loop_
_symmetry_equiv_pos_as_xyz
  x,y,z
_cell_length_a	17.019330
_cell_length_b	15.500227
_cell_length_c	9.065218
_cell_angle_alpha	87.127904
_cell_angle_beta	95.793898
_cell_angle_gamma	83.284530
loop_
_atom_site_label
_atom_site_type_symbol
_atom_site_fract_x
_atom_site_fract_y
_atom_site_fract_z
O1	O	-1.055597	0.150595	0.173703
O2	O	-0.722264	0.483928	0.507036
O3	O	-0.388930	0.817262	0.840369
O4	O	-0.825240	0.133432	0.199282
O5	O	-0.491907	0.466766	0.532616
O6	O	-0.158574	0.800099	0.865949
O7	O	-0.945180	0.142367	-0.028312
O8	O	-0.611847	0.475700	0.305022
O9	O	-0.278513	0.809033	0.638355
O10	O	-0.935657	0.141661	0.401297
O11	O	-0.602324	0.474994	0.734630
O12	O	-0.268991	0.808327	1.067963
O13	O	-0.937901	-0.002064	-0.014555
O14	O	-0.604568	0.331269	0.318779
O15	O	-0.271235	0.664602	0.652112
O16	O	-0.817962	-0.010999	0.213039
O17	O	-0.484628	0.322335	0.546373
O18	O	-0.151295	0.655668	0.879706
O19	O	-1.048318	0.006164	0.187460
O20	O	-0.714985	0.339498	0.520793
O21	O	-0.381652	0.672831	0.854126
Cu22	Cu	-0.932476	-0.015605	0.201506
Cu23	Cu	-0.599142	0.317728	0.534839
Cu24	Cu	-0.265809	0.651062	0.868172
Cu25	Cu	-0.941083	0.155201	0.185236
Cu26	Cu	-0.607750	0.488535	0.518570
Cu27	Cu	-0.274417	0.821868	0.851903
O28	O	-0.928379	-0.002770	0.415054
O29	O	-0.595045	0.330563	0.748387
O30	O	-0.261712	0.663896	1.081720
C31	C	-0.792095	0.059018	0.205459
C32	C	-0.458762	0.392352	0.538792
C33	C	-0.125428	0.725685	0.872125
C34	C	-0.704176	0.052468	0.203349
C35	C	-0.370843	0.385801	0.536682
C36	C	-0.037509	0.719135	0.870015
C37	C	-0.206721	0.011472	0.191840
C38	C	0.126612	0.344806	0.525173
C39	C	0.459946	0.678139	0.858507
C40	C	-0.289330	0.017629	0.193822
C41	C	0.044003	0.350962	0.527156
C42	C	0.377336	0.684295	0.860489
C43	C	-0.334604	0.099438	0.187303
C44	C	-0.001270	0.432771	0.520636
C45	C	0.332063	0.766104	0.853970
C46	C	-0.297262	0.175095	0.178816
C47	C	0.036071	0.508428	0.512149
C48	C	0.369404	0.841762	0.845483
C49	C	-0.214654	0.168938	0.176845
C50	C	0.118680	0.502271	0.510178
C51	C	0.452013	0.835604	0.843511
C52	C	-0.584226	0.121968	0.192890
C53	C	-0.250893	0.455301	0.526224
C54	C	0.082441	0.788634	0.859557
C55	C	-0.666840	0.128120	0.194858
C56	C	-0.333507	0.461453	0.528191
C57	C	-0.000174	0.794786	0.861525
C58	C	-0.658903	-0.029347	0.209867
C59	C	-0.325569	0.303986	0.543200
C60	C	0.007764	0.637319	0.876533
C61	C	-0.576293	-0.035498	0.207886
C62	C	-0.242960	0.297836	0.541219
C63	C	0.090373	0.631169	0.874552
C64	C	-0.538959	0.040160	0.199407
C65	C	-0.205625	0.373493	0.532740
C66	C	0.127708	0.706826	0.866073
C67	C	-0.419044	0.105733	0.189324
C68	C	-0.085711	0.439066	0.522658
C69	C	0.247623	0.772399	0.855991
C70	C	-0.454519	0.033864	0.197396
C71	C	-0.121186	0.367197	0.530729
C72	C	0.212148	0.700530	0.864063
N73	N	-0.926427	-0.135740	0.212948
N74	N	-0.593094	0.197593	0.546281
N75	N	-0.259760	0.530926	0.879614
C76	C	-0.977268	-0.177230	0.116543
C77	C	-0.643934	0.156104	0.449877
C78	C	-0.310601	0.489437	0.783210
C79	C	-0.972701	-0.268143	0.125210
C80	C	-0.639367	0.065190	0.458544
C81	C	-0.306034	0.398524	0.791877
C82	C	-0.917296	-0.317565	0.230290
C83	C	-0.583963	0.015769	0.563623
C84	C	-0.250630	0.349102	0.896956
C85	C	-0.866450	-0.276069	0.326698
C86	C	-0.533117	0.057264	0.660032
C87	C	-0.199783	0.390597	0.993365
C88	C	-0.871014	-0.185158	0.318023
C89	C	-0.537680	0.148175	0.651357
C90	C	-0.204347	0.481509	0.984690
C91	C	-0.900856	-0.592256	0.261516
C92	C	-0.567522	-0.258923	0.594850
C93	C	-0.234189	0.074410	0.928183
C94	C	-0.896297	-0.683173	0.270187
C95	C	-0.562964	-0.349840	0.603520
C96	C	-0.229631	-0.016507	0.936854
C97	C	-1.002548	-0.675241	0.068696
C98	C	-0.669214	-0.341907	0.402029
C99	C	-0.335881	-0.008574	0.735363
C100	C	-1.007110	-0.584328	0.060036
C101	C	-0.673776	-0.250995	0.393370
C102	C	-0.340443	0.082339	0.726703
C103	C	-0.956261	-0.542841	0.156440
C104	C	-0.622927	-0.209507	0.489773
C105	C	-0.289594	0.123826	0.823106
C106	C	-0.912628	-0.410492	0.239154
C107	C	-0.579295	-0.077159	0.572488
C108	C	-0.245962	0.256174	0.905821
C109	C	-0.960925	-0.449915	0.147567
C110	C	-0.627592	-0.116582	0.480900
C111	C	-0.294258	0.216752	0.814234
C112	C	-0.081465	0.080577	0.181272
C113	C	0.251869	0.413910	0.514606
C114	C	0.585202	0.747244	0.847939
C115	C	-0.169386	0.087124	0.183349
C116	C	0.163948	0.420457	0.516683
C117	C	0.497281	0.753790	0.850016
C118	C	-0.940626	0.070084	-0.076389
C119	C	-0.607292	0.403418	0.256945
C120	C	-0.273959	0.736751	0.590278
C121	C	-0.937889	0.069885	-0.240139
C122	C	-0.604556	0.403218	0.093194
C123	C	-0.271223	0.736551	0.426528
N124	N	-0.947138	0.275337	0.173783
N125	N	-0.613805	0.608671	0.507116
N126	N	-0.280471	0.942004	0.840449
C127	C	-0.932933	0.069514	0.463131
C128	C	-0.599600	0.402847	0.796464
C129	C	-0.266267	0.736181	1.129797
C130	C	-0.935670	0.069719	0.626880
C131	C	-0.602337	0.403053	0.960214
C132	C	-0.269003	0.736386	1.293547
H133	H	-0.184257	0.230541	0.169935
H134	H	0.149077	0.563875	0.503268
H135	H	0.482410	0.897208	0.836601
H136	H	-0.867518	-0.450739	0.324715
H137	H	-0.534185	-0.117406	0.658048
H138	H	-0.200852	0.215928	0.991381
N139	N	-0.160491	-0.072103	0.198516
N140	N	0.172842	0.261231	0.531849
N141	N	0.506176	0.594564	0.865183
N142	N	-0.160517	-0.124611	0.307753
N143	N	0.172816	0.208722	0.641086
N144	N	0.506149	0.542055	0.974419
H145	H	-0.127870	-0.183639	0.312474
H146	H	0.205464	0.149694	0.645808
H147	H	0.538797	0.483027	0.979141
H148	H	-0.703700	0.194742	0.189561
H149	H	-0.370366	0.528075	0.522894
H150	H	-0.037033	0.861408	0.856228
N151	N	-0.327456	-0.059656	0.202470
N152	N	0.005877	0.273677	0.535803
N153	N	0.339210	0.607010	0.869136
N154	N	-0.287027	-0.132694	0.208260
N155	N	0.046306	0.200639	0.541593
N156	N	0.379640	0.533972	0.874927
H157	H	-0.313953	-0.187282	0.214357
H158	H	0.019381	0.146052	0.547691
H159	H	0.352714	0.479385	0.881024
N160	N	-0.819083	-0.142788	0.416524
N161	N	-0.485750	0.190545	0.749857
N162	N	-0.152416	0.523879	1.083190
N163	N	-0.820632	-0.152778	0.553839
N164	N	-0.487299	0.180555	0.887172
N165	N	-0.153965	0.513889	1.220505
H166	H	-0.783952	-0.122856	0.623407
H167	H	-0.450619	0.210478	0.956740
H168	H	-0.117286	0.543811	1.290074
N169	N	-0.546109	0.199256	0.184240
N170	N	-0.212775	0.532589	0.517573
N171	N	0.120558	0.865922	0.850906
N172	N	-0.586543	0.272292	0.178423
N173	N	-0.253210	0.605625	0.511756
N174	N	0.080124	0.938958	0.845089
H175	H	-0.559621	0.326881	0.172316
H176	H	-0.226288	0.660214	0.505649
H177	H	0.107046	0.993548	0.838982
N178	N	-0.465281	0.189304	0.182632
N179	N	-0.131948	0.522637	0.515966
N180	N	0.201385	0.855970	0.849299
N181	N	-0.431943	0.256849	0.175033
N182	N	-0.098609	0.590183	0.508366
N183	N	0.234724	0.923516	0.841700
H184	H	-0.464599	0.315873	0.170307
H185	H	-0.131266	0.649206	0.503640
H186	H	0.202068	0.982539	0.836973
N187	N	-1.054479	-0.717633	-0.029760
N188	N	-0.721146	-0.384300	0.303573
N189	N	-0.387813	-0.050967	0.636906
N190	N	-1.050401	-0.798804	-0.022006
N191	N	-0.717067	-0.465470	0.311327
N192	N	-0.383734	-0.132137	0.644661
H193	H	-1.087078	-0.828745	-0.091547
H194	H	-0.753745	-0.495411	0.241786
H195	H	-0.420411	-0.162078	0.575119
N196	N	-0.343490	0.258670	0.172171
N197	N	-0.010157	0.592003	0.505505
N198	N	0.323177	0.925336	0.838838
N199	N	-0.330368	0.310214	0.270912
N200	N	0.002966	0.643547	0.604245
N201	N	0.336299	0.976880	0.937579
H202	H	-0.363013	0.369242	0.266217
H203	H	-0.029680	0.702575	0.599550
H204	H	0.303653	1.035908	0.932883
N205	N	-0.408277	-0.049700	0.204086
N206	N	-0.074943	0.283633	0.537420
N207	N	0.258390	0.616966	0.870753
N208	N	-0.354748	-0.071184	0.308652
N209	N	-0.021415	0.262149	0.641985
N210	N	0.311919	0.595482	0.975318
H211	H	-0.322083	-0.130203	0.313375
H212	H	0.011250	0.203131	0.646709
H213	H	0.344584	0.536464	0.980042
H214	H	-1.022387	-0.136996	0.030983
H215	H	-0.689054	0.196337	0.364316
H216	H	-0.355721	0.529671	0.697649
H217	H	-0.821334	-0.316314	0.412252
H218	H	-0.488001	0.017019	0.745585
H219	H	-0.154668	0.350353	1.078918
H220	H	-1.014099	-0.301923	0.046709
H221	H	-0.680765	0.031410	0.380043
H222	H	-0.347432	0.364744	0.713376
H223	H	-1.052224	-0.544090	-0.025528
H224	H	-0.718891	-0.210757	0.307806
H225	H	-0.385558	0.122576	0.641139
H226	H	-0.859454	-0.558484	0.340015
H227	H	-0.526120	-0.225151	0.673348
H228	H	-0.192787	0.108182	1.006681
N229	N	-0.530063	-0.119071	0.214534
N230	N	-0.196730	0.214262	0.547867
N231	N	0.136604	0.547596	0.881201
N232	N	-0.563409	-0.186612	0.222110
N233	N	-0.230076	0.146721	0.555444
N234	N	0.103258	0.480054	0.888777
H235	H	-0.530760	-0.245638	0.226799
H236	H	-0.197426	0.087695	0.560132
H237	H	0.135907	0.421029	0.893465
N238	N	-0.697052	-0.106616	0.218525
N239	N	-0.363719	0.226718	0.551858
N240	N	-0.030386	0.560051	0.885191
N241	N	-0.770810	-0.101112	0.220281
N242	N	-0.437476	0.232221	0.553615
N243	N	-0.104143	0.565555	0.886948
H244	H	-0.797754	-0.155686	0.226399
H245	H	-0.464420	0.177648	0.559733
H246	H	-0.131087	0.510981	0.893066
H247	H	-1.006033	-0.409673	0.062006
H248	H	-0.672699	-0.076340	0.395339
H249	H	-0.339366	0.256993	0.728672
H250	H	-0.851178	-0.723409	0.355761
H251	H	-0.517845	-0.390076	0.689095
H252	H	-0.184511	-0.056742	1.022428
