data_functionalizedCrystal
_audit_creation_method	'MofGen! by Chris Wilmer'
_symmetry_space_group_name_H-M	'P1'
_symmetry_Int_Tables_number	1
_symmetry_cell_setting	triclinic
loop_
_symmetry_equiv_pos_as_xyz
  x,y,z
_cell_length_a	14.560438
_cell_length_b	23.196402
_cell_length_c	23.196402
_cell_angle_alpha	120.000903
_cell_angle_beta	89.999667
_cell_angle_gamma	59.998791
loop_
_atom_site_label
_atom_site_type_symbol
_atom_site_fract_x
_atom_site_fract_y
_atom_site_fract_z
Zr1	Zr	0.884747	0.631013	0.075624
O2	O	0.738093	0.751289	0.167678
O3	O	0.929707	0.510742	0.047407
O4	O	0.929701	0.631018	0.167677
O5	O	0.738100	0.631009	-0.047465
O6	O	1.080842	0.631016	0.167674
O7	O	0.738098	0.631014	0.047408
O8	O	1.080852	0.415865	-0.047467
O9	O	0.738090	0.846160	0.167676
O10	O	1.061673	0.560208	0.035368
O11	O	0.948879	0.560206	-0.035433
O12	O	0.948873	0.701815	0.106170
O13	O	0.836079	0.701813	0.035370
Zr14	Zr	1.125801	0.631003	-0.075692
Zr15	Zr	1.125799	0.631010	0.075619
Zr16	Zr	0.884749	0.631006	-0.075687
Zr17	Zr	0.884742	0.782321	0.075621
Zr18	Zr	1.125806	0.479695	-0.075689
O19	O	1.080841	0.751274	-0.047474
O20	O	1.080838	0.751285	0.167671
O21	O	0.738096	0.751278	-0.047467
O22	O	1.272455	0.510727	-0.167746
O23	O	1.272452	0.510738	0.047400
O24	O	0.929710	0.510731	-0.167739
O25	O	1.272448	0.631007	0.047397
O26	O	1.080847	0.630999	-0.167745
O27	O	0.929706	0.631000	-0.167741
O28	O	1.272450	0.631002	-0.047476
O29	O	0.929694	0.846158	0.167672
O30	O	1.080854	0.415858	-0.167740
O31	O	1.272458	0.415856	-0.167744
O32	O	1.272457	0.415862	-0.047471
O33	O	0.738091	0.846154	0.047404
O34	O	0.929696	0.846151	0.047400
O35	O	1.061675	0.560201	-0.106238
O36	O	1.174469	0.560203	-0.035437
O37	O	1.061669	0.701810	0.035365
O38	O	0.948875	0.701808	-0.035436
C39	C	1.005280	0.441745	-0.000030
C40	C	1.005282	0.377511	-0.000029
C41	C	1.064154	-0.085331	0.036911
C42	C	1.064151	-0.024972	0.036917
C43	C	1.005275	0.005209	-0.000040
C44	C	0.946374	-0.024959	-0.036992
C45	C	0.946370	-0.085311	-0.036991
C46	C	1.013688	0.067233	-0.061947
C47	C	1.013701	0.127580	-0.061949
C48	C	1.005283	0.191357	-0.000040
C49	C	0.996876	0.194772	0.061870
C50	C	0.996871	0.134420	0.061870
C51	C	1.005273	0.070651	-0.000044
C52	C	1.064171	0.286970	0.036920
C53	C	1.064160	0.347333	0.036928
C54	C	0.946391	0.347339	-0.036988
C55	C	0.946395	0.286983	-0.036989
C56	C	1.005291	0.256799	-0.000037
C57	C	0.703754	0.631012	-0.000028
C58	C	0.601421	0.631013	-0.000026
C59	C	0.553337	0.631017	0.052240
C60	C	0.457191	0.631009	0.052230
C61	C	0.457220	0.630997	-0.052313
C62	C	0.553368	0.630999	-0.052305
C63	C	0.553317	0.631027	0.112598
C64	C	0.457172	0.631020	0.112589
C65	C	1.306794	0.631004	-0.000040
C66	C	1.409127	0.631003	-0.000042
C67	C	1.005272	0.631018	0.189234
C68	C	1.005271	0.631021	0.253470
C69	C	1.005268	0.820271	-0.000038
C70	C	1.005266	0.884505	-0.000039
C71	C	0.946420	0.704921	0.753255
C72	C	0.946410	0.704925	0.692902
C73	C	1.005290	0.631009	0.625762
C74	C	1.064162	0.557082	0.618977
C75	C	1.064162	0.557081	0.679330
C76	C	1.103915	0.574379	0.501828
C77	C	1.103919	0.574384	0.441478
C78	C	1.005290	0.631012	0.439613
C79	C	0.906659	0.687648	0.498112
C80	C	0.906658	0.687646	0.558465
C81	C	1.005297	0.631003	0.560316
C82	C	0.946404	0.704937	0.380962
C83	C	0.946391	0.704938	0.320606
C84	C	1.064155	0.557093	0.246681
C85	C	1.064157	0.557095	0.307036
C86	C	1.005285	0.631019	0.374174
C87	C	1.005279	0.631001	0.810700
C88	C	1.005289	0.631005	0.746468
C89	C	1.306800	0.441742	-0.000036
C90	C	1.409135	0.377506	-0.000037
C91	C	1.005283	0.441735	-0.189298
C92	C	1.005286	0.377498	-0.253532
C93	C	1.306802	0.441732	-0.189304
C94	C	1.409138	0.377493	-0.253540
C95	C	0.703746	0.820284	0.189236
C96	C	0.601410	0.884523	0.253473
C97	C	0.703748	0.820274	-0.000032
C98	C	0.601413	0.884510	-0.000031
C99	C	1.005265	0.820281	0.189230
C100	C	1.005263	0.884518	0.253464
C101	C	1.398315	0.347343	0.036929
C102	C	1.494460	0.286996	0.036942
C103	C	1.601425	0.256808	-0.000015
C104	C	1.612243	0.286977	-0.036981
C105	C	1.516099	0.347328	-0.036990
C106	C	1.064165	0.347329	-0.320663
C107	C	1.064164	0.286980	-0.381024
C108	C	1.005288	0.256796	-0.374252
C109	C	0.946402	0.286971	-0.307114
C110	C	0.946397	0.347324	-0.246755
C111	C	1.516084	0.347327	-0.246749
C112	C	1.612249	0.286977	-0.307101
C113	C	1.601465	0.256789	-0.374242
C114	C	1.494509	0.286961	-0.381032
C115	C	1.398346	0.347315	-0.320681
C116	C	0.494464	0.914696	0.246682
C117	C	0.398300	0.975065	0.307033
C118	C	0.409083	1.005256	0.374174
C119	C	0.516039	0.975080	0.380964
C120	C	0.612202	0.914716	0.320613
C121	C	0.612233	0.914679	-0.036990
C122	C	0.516088	0.975043	-0.036987
C123	C	0.409123	1.005233	-0.000028
C124	C	0.398305	0.975061	0.036936
C125	C	0.494449	0.914702	0.036936
C126	C	1.064149	0.914682	0.246670
C127	C	1.064168	0.975032	0.307019
C128	C	1.005294	1.005221	0.374162
C129	C	0.946405	0.975051	0.380955
C130	C	0.946393	0.914698	0.320607
H131	H	0.990018	0.246702	0.112282
F132	F	1.126843	1.007134	0.299775
F133	F	0.284455	1.007198	0.076266
H134	H	1.485630	0.262440	0.067044
F135	F	0.883755	0.783599	0.824706
F136	F	0.883742	1.007193	0.452420
F137	F	0.306727	1.069501	0.438400
F138	F	1.284483	0.379462	0.076268
H139	H	0.536496	0.689577	0.160604
H140	H	0.385864	0.687769	0.164133
F141	F	1.208897	0.514105	0.503804
F142	F	1.726093	0.254839	-0.076313
F143	F	1.005304	0.192563	-0.438499
H144	H	0.592526	0.630985	-0.094869
H145	H	1.112089	0.496909	0.192015
H146	H	0.898436	0.890145	0.326149
H147	H	0.624613	0.574278	0.107395
F148	F	0.883691	-0.117416	-0.076321
H149	H	0.524806	0.999670	0.435638
F150	F	1.726069	0.254874	-0.299860
F151	F	0.883765	0.783601	0.700124
F152	F	0.406071	0.630981	-0.107950
H153	H	1.112124	0.262396	0.067011
F154	F	1.703742	0.192576	0.000000
H155	H	1.679776	0.207645	-0.423378
F156	F	1.126821	0.478405	0.672102
H157	H	0.898461	0.765131	0.435629
H158	H	0.826348	0.733759	0.606093
H159	H	1.524925	0.371879	-0.067096
F160	F	1.483050	0.254825	-0.452495
F161	F	0.284479	1.007168	0.299792
H162	H	0.990022	0.137205	0.112280
F163	F	0.726065	0.882562	-0.076328
F164	F	1.527586	0.379448	-0.175298
H165	H	0.485623	0.890140	0.067031
H166	H	0.898467	0.262387	-0.301611
H167	H	1.020558	0.124789	-0.112362
F168	F	1.126817	0.882564	0.175217
F169	F	1.126837	0.379439	-0.327886
F170	F	0.801683	0.747921	0.496136
F171	F	1.126815	-0.117438	0.076252
F172	F	0.482962	0.882574	0.175230
F173	F	1.126845	0.254874	-0.452470
F174	F	0.479152	0.554487	0.098796
H175	H	0.898445	0.765133	0.326139
F176	F	1.005314	1.069456	0.438385
F177	F	1.126820	0.478421	0.299810
F178	F	1.208889	0.514106	0.379223
H179	H	0.898454	0.371880	-0.192096
F180	F	1.126831	0.379442	0.076263
H181	H	1.311270	0.371868	-0.326220
F182	F	0.726019	0.882605	0.327852
F183	F	1.126823	0.478415	0.547521
H184	H	0.524918	0.999599	-0.067090
F185	F	0.306806	1.069472	-0.000036
H186	H	1.112106	-0.000408	0.067007
H187	H	0.898447	0.262419	-0.067081
F188	F	1.022643	-0.000640	-0.127842
F189	F	0.883721	0.379462	-0.076314
H190	H	0.898435	-0.000381	-0.067081
