data_functionalizedCrystal
_audit_creation_method	'MofGen! by Chris Wilmer'
_symmetry_space_group_name_H-M	'P1'
_symmetry_Int_Tables_number	1
_symmetry_cell_setting	triclinic
loop_
_symmetry_equiv_pos_as_xyz
  x,y,z
_cell_length_a	10.967874
_cell_length_b	11.792254
_cell_length_c	9.482900
_cell_angle_alpha	99.398945
_cell_angle_beta	68.707142
_cell_angle_gamma	84.459369
loop_
_atom_site_label
_atom_site_type_symbol
_atom_site_fract_x
_atom_site_fract_y
_atom_site_fract_z
O1	O	1.746063	0.077825	-0.558321
O2	O	2.246063	0.577825	-0.058321
O3	O	1.367712	0.106876	-0.463539
O4	O	1.867712	0.606876	0.036461
O5	O	1.566059	-0.073133	-0.513217
O6	O	2.066059	0.426867	-0.013217
O7	O	1.547716	0.257834	-0.508643
O8	O	2.047716	0.757834	-0.008643
O9	O	1.525771	-0.036428	-0.261334
O10	O	2.025771	0.463572	0.238666
O11	O	1.327424	0.143582	-0.211656
O12	O	1.827424	0.643582	0.288344
O13	O	1.705775	0.114531	-0.306438
O14	O	2.205775	0.614531	0.193562
Cu15	Cu	1.512921	0.132408	-0.236048
Cu16	Cu	2.012921	0.632408	0.263952
Cu17	Cu	1.560566	0.088999	-0.533929
Cu18	Cu	2.060566	0.588999	-0.033929
O19	O	1.507429	0.294540	-0.256760
O20	O	2.007429	0.794540	0.243240
C21	C	1.299131	0.125888	-0.325463
C22	C	1.799131	0.625888	0.174537
C23	C	1.154803	0.127840	-0.289307
C24	C	1.654803	0.627840	0.210693
C25	C	1.111327	0.109695	-0.403670
C26	C	1.611327	0.609695	0.096330
C27	C	0.962157	0.111712	-0.366304
C28	C	1.462157	0.611712	0.133696
C29	C	1.544759	-0.097032	-0.386987
C30	C	2.044759	0.402968	0.113013
C31	C	1.541300	-0.222926	-0.386122
C32	C	2.041300	0.277074	0.113878
C33	C	1.538491	-0.325166	-0.385423
C34	C	2.038491	0.174834	0.114577
C35	C	1.534979	-0.453434	-0.384556
C36	C	2.034979	0.046566	0.115444
C37	C	1.774357	0.095518	-0.444517
C38	C	2.274357	0.595518	0.055483
C39	C	1.918687	0.093565	-0.480683
C40	C	2.418687	0.593565	0.019317
C41	C	1.528729	0.318437	-0.382994
C42	C	2.028729	0.818437	0.117006
C43	C	1.532189	0.444330	-0.383869
C44	C	2.032189	0.944330	0.116131
N45	N	1.479420	0.162938	-0.026537
N46	N	1.979420	0.662938	0.473463
N47	N	1.594078	0.058459	-0.743442
N48	N	2.094078	0.558459	-0.243442
C49	C	1.550676	0.097998	0.027815
C50	C	2.050676	0.597998	0.527815
C51	C	1.522812	0.123409	0.202211
C52	C	2.022812	0.623409	0.702211
H53	H	1.081588	0.144873	-0.163733
H54	H	1.581588	0.644873	0.336267
Cl55	Cl	1.396760	0.238294	0.329691
Cl56	Cl	1.896760	0.738294	0.829691
H57	H	1.632305	0.023584	-0.054758
H58	H	2.132305	0.523584	0.445242
Cl59	Cl	1.353374	0.277819	0.100946
Cl60	Cl	1.853374	0.777819	0.600946
H61	H	1.675712	-0.015960	0.173987
H62	H	2.175712	0.484040	0.673987
Cl63	Cl	1.031705	0.067289	-0.674576
Cl64	Cl	1.531705	0.567289	-0.174576
H65	H	1.184540	0.092674	-0.529244
H66	H	1.684540	0.592674	-0.029244
H67	H	0.888945	0.128747	-0.240721
H68	H	1.388945	0.628747	0.259279
