data_functionalizedCrystal
_audit_creation_method	'MofGen! by Chris Wilmer'
_symmetry_space_group_name_H-M	'P1'
_symmetry_Int_Tables_number	1
_symmetry_cell_setting	triclinic
loop_
_symmetry_equiv_pos_as_xyz
  x,y,z
_cell_length_a	19.288864
_cell_length_b	19.288865
_cell_length_c	18.366186
_cell_angle_alpha	89.988521
_cell_angle_beta	89.977106
_cell_angle_gamma	83.136245
loop_
_atom_site_label
_atom_site_type_symbol
_atom_site_fract_x
_atom_site_fract_y
_atom_site_fract_z
O1	O	-0.921353	-0.086649	0.060791
O2	O	-0.588019	0.246685	0.394125
O3	O	-0.254686	0.580018	0.727458
O4	O	-0.719092	-0.098337	0.060743
O5	O	-0.385759	0.234996	0.394076
O6	O	-0.052425	0.568329	0.727409
O7	O	-0.826067	0.008637	0.060754
O8	O	-0.492733	0.341971	0.394087
O9	O	-0.159400	0.675304	0.727421
O10	O	-0.814378	-0.193623	0.060780
O11	O	-0.481045	0.139710	0.394113
O12	O	-0.147711	0.473043	0.727447
O13	O	-0.826049	0.008643	-0.060345
O14	O	-0.492715	0.341976	0.272988
O15	O	-0.159382	0.675309	0.606321
O16	O	-0.719074	-0.098332	-0.060357
O17	O	-0.385741	0.235001	0.272977
O18	O	-0.052407	0.568335	0.606310
O19	O	-0.921335	-0.086643	-0.060308
O20	O	-0.588001	0.246690	0.273025
O21	O	-0.254668	0.580023	0.606359
Zn22	Zn	-0.820201	-0.092487	-0.079559
Zn23	Zn	-0.486868	0.240846	0.253774
Zn24	Zn	-0.153535	0.574180	0.587107
Zn25	Zn	-0.820225	-0.092494	0.079994
Zn26	Zn	-0.486892	0.240839	0.413328
Zn27	Zn	-0.153559	0.574173	0.746661
O28	O	-0.814360	-0.193618	-0.060319
O29	O	-0.481027	0.139715	0.273014
O30	O	-0.147693	0.473049	0.606347
C31	C	-0.693207	-0.097959	0.000187
C32	C	-0.359873	0.235375	0.333520
C33	C	-0.026540	0.568708	0.666853
C34	C	-0.616103	-0.096830	0.000167
C35	C	-0.282770	0.236504	0.333501
C36	C	0.050564	0.569837	0.666834
C37	C	-0.947220	-0.087022	0.000250
C38	C	-0.613887	0.246311	0.333583
C39	C	-0.280553	0.579645	0.666916
C40	C	-1.024324	-0.088151	0.000274
C41	C	-0.690990	0.245182	0.333607
C42	C	-0.357657	0.578516	0.666940
C43	C	-0.825682	0.034516	0.000202
C44	C	-0.492348	0.367850	0.333535
C45	C	-0.159015	0.701183	0.666869
C46	C	-0.824553	0.111620	0.000195
C47	C	-0.491219	0.444953	0.333529
C48	C	-0.157886	0.778287	0.666862
C49	C	-0.814745	-0.219497	0.000234
C50	C	-0.481412	0.113836	0.333568
C51	C	-0.148078	0.447169	0.666901
C52	C	-0.815874	-0.296601	0.000246
C53	C	-0.482541	0.036733	0.333579
C54	C	-0.149207	0.370066	0.666912
C55	C	-0.571407	-0.159598	0.000187
C56	C	-0.238073	0.173736	0.333520
C57	C	0.095260	0.507069	0.666854
C58	C	-0.498960	-0.158537	0.000195
C59	C	-0.165626	0.174796	0.333528
C60	C	0.167707	0.508130	0.666862
C61	C	-0.471212	-0.094705	0.000198
C62	C	-0.137879	0.238629	0.333531
C63	C	0.195455	0.571962	0.666865
C64	C	-0.515918	-0.031929	0.000174
C65	C	-0.182585	0.301405	0.333508
C66	C	0.150748	0.634738	0.666841
C67	C	-0.588364	-0.032991	0.000159
C68	C	-0.255030	0.300342	0.333492
C69	C	0.078303	0.633676	0.666826
C70	C	-0.362956	-0.044527	0.042642
C71	C	-0.029623	0.288806	0.375976
C72	C	0.303710	0.622139	0.709309
C73	C	-0.290512	-0.043468	0.042662
C74	C	0.042821	0.289866	0.375995
C75	C	0.376155	0.623199	0.709329
C76	C	-0.247767	-0.091425	0.000241
C77	C	0.085567	0.241908	0.333575
C78	C	0.418900	0.575242	0.666908
C79	C	-0.277473	-0.140454	-0.042189
C80	C	0.055860	0.192879	0.291144
C81	C	0.389194	0.526212	0.624477
C82	C	-0.349918	-0.141517	-0.042205
C83	C	-0.016585	0.191817	0.291129
C84	C	0.316748	0.525150	0.624462
C85	C	-0.392658	-0.093546	0.000214
C86	C	-0.059325	0.239788	0.333547
C87	C	0.274009	0.573121	0.666881
C88	C	-0.124514	-0.153047	0.000269
C89	C	0.208819	0.180286	0.333602
C90	C	0.542152	0.513619	0.666935
C91	C	-0.052066	-0.151984	0.000272
C92	C	0.281267	0.181349	0.333605
C93	C	0.614600	0.514683	0.666939
C94	C	-0.069026	-0.025374	0.000259
C95	C	0.264307	0.307960	0.333592
C96	C	0.597640	0.641293	0.666925
C97	C	-0.141473	-0.026439	0.000248
C98	C	0.191860	0.306894	0.333581
C99	C	0.525194	0.640228	0.666915
C100	C	-0.169212	-0.090278	0.000256
C101	C	0.164121	0.243056	0.333590
C102	C	0.497454	0.576389	0.666923
N103	N	-0.820190	-0.092482	-0.188451
N104	N	-0.486857	0.240852	0.144883
N105	N	-0.153524	0.574185	0.478216
C106	C	-0.887321	0.156316	0.000207
C107	C	-0.553987	0.489650	0.333540
C108	C	-0.220654	0.822983	0.666874
C109	C	-0.886260	0.228763	0.000218
C110	C	-0.552927	0.562097	0.333552
C111	C	-0.219593	0.895430	0.666885
C112	C	-0.822428	0.256511	0.000203
C113	C	-0.489094	0.589844	0.333537
C114	C	-0.155761	0.923178	0.666870
C115	C	-0.759652	0.211805	0.000196
C116	C	-0.426318	0.545138	0.333529
C117	C	-0.092985	0.878471	0.666863
C118	C	-0.760714	0.139359	0.000192
C119	C	-0.427381	0.472693	0.333525
C120	C	-0.094047	0.806026	0.666859
C121	C	-0.772242	0.364800	-0.042227
C122	C	-0.438908	0.698133	0.291106
C123	C	-0.105575	1.031467	0.624439
C124	C	-0.771182	0.437245	-0.042228
C125	C	-0.437849	0.770578	0.291106
C126	C	-0.104515	1.103911	0.624439
C127	C	-0.819148	0.479956	0.000219
C128	C	-0.485815	0.813290	0.333552
C129	C	-0.152481	1.146623	0.666886
C130	C	-0.868186	0.450216	0.042657
C131	C	-0.534852	0.783550	0.375990
C132	C	-0.201519	1.116883	0.709323
C133	C	-0.869248	0.377771	0.042653
C134	C	-0.535915	0.711104	0.375986
C135	C	-0.202582	1.044438	0.709319
C136	C	-0.821269	0.335065	0.000208
C137	C	-0.487935	0.668398	0.333541
C138	C	-0.154602	1.001732	0.666875
C139	C	-0.880770	0.603209	0.000244
C140	C	-0.547437	0.936542	0.333577
C141	C	-0.214104	1.269875	0.666910
C142	C	-0.879707	0.675657	0.000259
C143	C	-0.546374	1.008990	0.333593
C144	C	-0.213040	1.342323	0.666926
C145	C	-0.753097	0.658697	0.000230
C146	C	-0.419763	0.992030	0.333563
C147	C	-0.086430	1.325363	0.666896
C148	C	-0.754162	0.586250	0.000221
C149	C	-0.420829	0.919583	0.333555
C150	C	-0.087495	1.252917	0.666888
C151	C	-0.818001	0.558511	0.000225
C152	C	-0.484667	0.891844	0.333558
C153	C	-0.151334	1.225177	0.666891
C154	C	-0.867574	-0.045137	-0.226546
C155	C	-0.534241	0.288197	0.106787
C156	C	-0.200907	0.621530	0.440121
C157	C	-0.867578	-0.045134	-0.302774
C158	C	-0.534245	0.288200	0.030560
C159	C	-0.200912	0.621533	0.363893
C160	C	-0.820206	-0.092488	-0.340903
C161	C	-0.486872	0.240846	-0.007570
C162	C	-0.153539	0.574179	0.325763
C163	C	-0.772813	-0.139836	-0.302799
C164	C	-0.439480	0.193497	0.030535
C165	C	-0.106146	0.526830	0.363868
C166	C	-0.772805	-0.139834	-0.226572
C167	C	-0.439472	0.193500	0.106761
C168	C	-0.106139	0.526833	0.440094
C169	C	-0.810907	-0.155775	-0.461657
C170	C	-0.477574	0.177558	-0.128324
C171	C	-0.144241	0.510891	0.205010
C172	C	-0.810920	-0.155779	-0.537882
C173	C	-0.477587	0.177554	-0.204548
C174	C	-0.144253	0.510888	0.128785
C175	C	-0.820225	-0.092496	-0.576011
C176	C	-0.486892	0.240837	-0.242677
C177	C	-0.153559	0.574170	0.090656
C178	C	-0.829533	-0.029207	-0.537905
C179	C	-0.496200	0.304127	-0.204572
C180	C	-0.162866	0.637460	0.128761
C181	C	-0.829525	-0.029204	-0.461679
C182	C	-0.496192	0.304129	-0.128346
C183	C	-0.162859	0.637463	0.204988
C184	C	-0.820208	-0.092496	-0.423558
C185	C	-0.486875	0.240838	-0.090225
C186	C	-0.153542	0.574171	0.243109
C187	C	-0.867617	-0.045144	-0.696761
C188	C	-0.534283	0.288190	-0.363428
C189	C	-0.200950	0.621523	-0.030094
C190	C	-0.867616	-0.045140	-0.772990
C191	C	-0.534283	0.288194	-0.439657
C192	C	-0.200949	0.621527	-0.106324
C193	C	-0.772854	-0.139849	-0.773014
C194	C	-0.439521	0.193485	-0.439681
C195	C	-0.106187	0.526818	-0.106347
C196	C	-0.772851	-0.139847	-0.696786
C197	C	-0.439518	0.193487	-0.363453
C198	C	-0.106184	0.526820	-0.030119
C199	C	-0.820236	-0.092495	-0.658664
C200	C	-0.486903	0.240838	-0.325331
C201	C	-0.153569	0.574172	0.008002
N202	N	-0.820242	-0.092493	0.188885
N203	N	-0.486909	0.240840	0.522219
N204	N	-0.153575	0.574173	0.855552
H205	H	-0.593987	-0.211580	0.000195
H206	H	-0.260654	0.121753	0.333529
H207	H	0.072680	0.455087	0.666862
C208	C	-0.800676	-0.225391	-0.419722
C209	C	-0.467343	0.107942	-0.086389
C210	C	-0.134009	0.441275	0.246945
H211	H	-0.795146	-0.263083	-0.453331
H212	H	-0.461813	0.070251	-0.119998
H213	H	-0.128479	0.403584	0.213335
H214	H	-0.760227	-0.226904	-0.390005
H215	H	-0.426894	0.106429	-0.056671
H216	H	-0.093561	0.439763	0.276662
H217	H	-0.840355	-0.229138	-0.389967
H218	H	-0.507021	0.104195	-0.056634
H219	H	-0.173688	0.437529	0.276699
C220	C	-0.691666	0.090191	0.000172
C221	C	-0.358333	0.423525	0.333506
C222	C	-0.025000	0.756858	0.666839
H223	H	-0.653497	0.117090	0.000162
H224	H	-0.320163	0.450423	0.333495
H225	H	0.013170	0.783756	0.666828
H226	H	-0.689455	0.061564	0.042397
H227	H	-0.356122	0.394898	0.375731
H228	H	-0.022789	0.728231	0.709064
H229	H	-0.689445	0.061592	-0.042068
H230	H	-0.356112	0.394925	0.291265
H231	H	-0.022778	0.728259	0.624599
C232	C	-0.002897	-0.221030	0.000294
C233	C	0.330437	0.112303	0.333627
C234	C	0.663770	0.445636	0.666961
H235	H	0.044223	-0.211256	0.000294
H236	H	0.377556	0.122077	0.333627
H237	H	0.710890	0.455410	0.666960
H238	H	-0.011308	-0.247213	0.042528
H239	H	0.322025	0.086121	0.375861
H240	H	0.655359	0.419454	0.709194
H241	H	-0.011263	-0.247216	-0.041938
H242	H	0.322070	0.086118	0.291396
H243	H	0.655404	0.419451	0.624729
H244	H	-0.939303	0.133736	0.000212
H245	H	-0.605970	0.467069	0.333546
H246	H	-0.272636	0.800403	0.666879
C247	C	-0.720744	-0.191937	-0.814947
C248	C	-0.387411	0.141396	-0.481614
C249	C	-0.054078	0.474730	-0.148280
H250	H	-0.727537	-0.185161	-0.865802
H251	H	-0.394204	0.148172	-0.532468
H252	H	-0.060870	0.481505	-0.199135
H253	H	-0.674413	-0.184513	-0.802480
H254	H	-0.341080	0.148821	-0.469147
H255	H	-0.007746	0.482154	-0.135814
H256	H	-0.728144	-0.238278	-0.802439
H257	H	-0.394811	0.095056	-0.469106
H258	H	-0.061477	0.428389	-0.135773
H259	H	-0.906198	-0.006585	-0.665721
H260	H	-0.572865	0.326748	-0.332388
H261	H	-0.239532	0.660082	0.000946
H262	H	-0.266331	-0.003548	0.077215
H263	H	0.067003	0.329785	0.410548
H264	H	0.400336	0.663119	0.743881
H265	H	-0.374102	-0.181436	-0.076756
H266	H	-0.040769	0.151897	0.256578
H267	H	0.292564	0.485231	0.589911
H268	H	-0.734240	-0.178392	-0.333848
H269	H	-0.400907	0.154942	-0.000514
H270	H	-0.067573	0.488275	0.332819
C271	C	-0.800687	-0.225393	-0.579791
C272	C	-0.467354	0.107940	-0.246457
C273	C	-0.134020	0.441273	0.086876
H274	H	-0.795133	-0.263082	-0.546167
H275	H	-0.461799	0.070252	-0.212834
H276	H	-0.128466	0.403585	0.120500
H277	H	-0.840365	-0.229150	-0.609502
H278	H	-0.507031	0.104183	-0.276169
H279	H	-0.173698	0.437516	0.057165
H280	H	-0.760240	-0.226900	-0.609550
H281	H	-0.426906	0.106433	-0.276216
H282	H	-0.093573	0.439766	0.057117
H283	H	-0.046435	0.026600	0.000306
H284	H	0.286898	0.359933	0.333640
H285	H	0.620231	0.693266	0.666973
C286	C	-0.720742	-0.191938	-0.654876
C287	C	-0.387409	0.141395	-0.321542
C288	C	-0.054076	0.474728	0.011791
H289	H	-0.727521	-0.185154	-0.604018
H290	H	-0.394188	0.148180	-0.270684
H291	H	-0.060854	0.481513	0.062649
H292	H	-0.728145	-0.238275	-0.667356
H293	H	-0.394811	0.095059	-0.334022
H294	H	-0.061478	0.428392	-0.000689
H295	H	-0.674408	-0.184515	-0.667390
H296	H	-0.341075	0.148818	-0.334057
H297	H	-0.007741	0.482151	-0.000724
H298	H	-0.932751	0.580622	0.000250
H299	H	-0.599418	0.913956	0.333583
H300	H	-0.266085	1.247289	0.666917
C301	C	-0.920956	0.497187	0.089349
C302	C	-0.587622	0.830520	0.422682
C303	C	-0.254289	1.163854	0.756015
H304	H	-0.950314	0.469100	0.114615
H305	H	-0.616981	0.802434	0.447949
H306	H	-0.283648	1.135767	0.781282
H307	H	-0.896537	0.522225	0.123463
H308	H	-0.563204	0.855558	0.456796
H309	H	-0.229870	1.188891	0.790129
H310	H	-0.948582	0.529211	0.058763
H311	H	-0.615249	0.862544	0.392096
H312	H	-0.281916	1.195877	0.725429
C313	C	-0.409969	0.008224	0.089315
C314	C	-0.076636	0.341557	0.422648
C315	C	0.256697	0.674891	0.755981
H316	H	-0.381902	0.037566	0.114596
H317	H	-0.048569	0.370900	0.447929
H318	H	0.284764	0.704233	0.781263
H319	H	-0.441974	0.035860	0.058726
H320	H	-0.108640	0.369193	0.392059
H321	H	0.224693	0.702527	0.725393
H322	H	-0.435027	-0.016217	0.123428
H323	H	-0.101694	0.317117	0.456761
H324	H	0.231639	0.650450	0.790094
H325	H	-0.493322	0.020044	0.000187
H326	H	-0.159988	0.353377	0.333520
H327	H	0.173345	0.686711	0.666853
H328	H	-0.734219	-0.178388	-0.195554
H329	H	-0.400885	0.154945	0.137779
H330	H	-0.067552	0.488278	0.471112
H331	H	-0.733180	0.330029	-0.076796
H332	H	-0.399847	0.663362	0.256537
H333	H	-0.066514	0.996696	0.589870
C334	C	-0.955307	0.277938	0.000226
C335	C	-0.621974	0.611271	0.333559
C336	C	-0.288640	0.944605	0.666892
H337	H	-0.993478	0.251041	0.000223
H338	H	-0.660145	0.584375	0.333556
H339	H	-0.326811	0.917708	0.666890
H340	H	-0.957535	0.306546	0.042455
H341	H	-0.624202	0.639879	0.375789
H342	H	-0.290868	0.973212	0.709122
H343	H	-0.957509	0.306557	-0.042010
H344	H	-0.624176	0.639890	0.291323
H345	H	-0.290843	0.973223	0.624657
H346	H	-0.930822	0.712049	0.000273
H347	H	-0.597489	1.045382	0.333606
H348	H	-0.264156	1.378715	0.666940
H349	H	-0.909175	0.353560	0.077208
H350	H	-0.575842	0.686893	0.410542
H351	H	-0.242508	1.020226	0.743875
H352	H	-0.624756	0.018124	0.000144
H353	H	-0.291423	0.351457	0.333477
H354	H	0.041910	0.684790	0.666810
C355	C	-0.919688	0.006955	-0.184616
C356	C	-0.586355	0.340289	0.148717
C357	C	-0.253021	0.673622	0.482051
H358	H	-0.947905	0.035157	-0.218226
H359	H	-0.614571	0.368491	0.115107
H360	H	-0.281238	0.701824	0.448440
H361	H	-0.948518	-0.017953	-0.154855
H362	H	-0.615184	0.315380	0.178479
H363	H	-0.281851	0.648713	0.511812
H364	H	-0.894786	0.035811	-0.154905
H365	H	-0.561453	0.369144	0.178428
H366	H	-0.228120	0.702478	0.511761
C367	C	-0.682883	0.689210	0.000216
C368	C	-0.349549	1.022543	0.333549
C369	C	-0.016216	1.355877	0.666882
H370	H	-0.691238	0.738758	0.000217
H371	H	-0.357905	1.072091	0.333550
H372	H	-0.024572	1.405425	0.666883
H373	H	-0.657053	0.673842	0.042439
H374	H	-0.323720	1.007176	0.375772
H375	H	0.009613	1.340509	0.709105
H376	H	-0.657041	0.673865	-0.042027
H377	H	-0.323708	1.007198	0.291307
H378	H	0.009626	1.340531	0.624640
C379	C	-0.685116	0.537082	0.000196
C380	C	-0.351783	0.870415	0.333530
C381	C	-0.018450	1.203749	0.666863
H382	H	-0.646947	0.563981	0.000183
H383	H	-0.313614	0.897315	0.333516
H384	H	0.019720	1.230648	0.666849
H385	H	-0.682903	0.508456	0.042422
H386	H	-0.349570	0.841790	0.375756
H387	H	-0.016236	1.175123	0.709089
H388	H	-0.682896	0.508481	-0.042043
H389	H	-0.349563	0.841815	0.291290
H390	H	-0.016229	1.175148	0.624624
H391	H	-0.707679	0.234401	0.000185
H392	H	-0.374346	0.567735	0.333519
H393	H	-0.041012	0.901068	0.666852
C394	C	-0.449785	-0.227584	0.000227
C395	C	-0.116452	0.105749	0.333561
C396	C	0.216882	0.439083	0.666894
H397	H	-0.476682	-0.265755	0.000236
H398	H	-0.143348	0.067578	0.333570
H399	H	0.189985	0.400912	0.666903
H400	H	-0.421141	-0.229807	-0.041992
H401	H	-0.087808	0.103526	0.291341
H402	H	0.245525	0.436860	0.624675
H403	H	-0.421202	-0.229791	0.042473
H404	H	-0.087869	0.103542	0.375807
H405	H	0.245464	0.436876	0.709140
C406	C	-0.919742	0.006941	-0.814896
C407	C	-0.586409	0.340275	-0.481562
C408	C	-0.253076	0.673608	-0.148229
H409	H	-0.947964	0.035136	-0.781271
H410	H	-0.614631	0.368469	-0.447938
H411	H	-0.281298	0.701802	-0.114605
H412	H	-0.894858	0.035796	-0.844652
H413	H	-0.561524	0.369129	-0.511319
H414	H	-0.228191	0.702463	-0.177985
H415	H	-0.948576	-0.017982	-0.844609
H416	H	-0.615243	0.315352	-0.511276
H417	H	-0.281909	0.648685	-0.177943
H418	H	-0.837110	0.022324	-0.568948
H419	H	-0.503777	0.355658	-0.235615
H420	H	-0.170443	0.688991	0.097718
H421	H	-0.177866	0.024674	0.000236
H422	H	0.155467	0.358007	0.333569
H423	H	0.488801	0.691340	0.666903
H424	H	-0.906165	-0.006578	-0.333797
H425	H	-0.572832	0.326755	-0.000463
H426	H	-0.239499	0.660089	0.332870
C427	C	-0.230462	-0.193214	-0.088850
C428	C	0.102871	0.140119	0.244483
C429	C	0.436204	0.473452	0.577817
H430	H	-0.183062	-0.185558	-0.082771
H431	H	0.150271	0.147776	0.250563
H432	H	0.483604	0.481109	0.583896
H433	H	-0.236189	-0.239342	-0.073926
H434	H	0.097144	0.093991	0.259407
H435	H	0.430478	0.427324	0.592741
H436	H	-0.243125	-0.187282	-0.138642
H437	H	0.090208	0.146051	0.194691
H438	H	0.423541	0.479384	0.528025
C439	C	-0.839752	0.040407	-0.419764
C440	C	-0.506419	0.373740	-0.086430
C441	C	-0.173085	0.707073	0.246903
H442	H	-0.845391	0.078097	-0.453382
H443	H	-0.512057	0.411430	-0.120049
H444	H	-0.178724	0.744764	0.213285
H445	H	-0.880138	0.041875	-0.389924
H446	H	-0.546804	0.375208	-0.056591
H447	H	-0.213471	0.708541	0.276743
H448	H	-0.800023	0.044198	-0.390132
H449	H	-0.466690	0.377532	-0.056799
H450	H	-0.133357	0.710865	0.276534
H451	H	-0.147101	-0.205028	0.000265
H452	H	0.186233	0.128305	0.333598
H453	H	0.519566	0.461638	0.666931
C454	C	-0.717243	0.469956	-0.088903
C455	C	-0.383910	0.803289	0.244431
C456	C	-0.050577	1.136622	0.577764
H457	H	-0.723484	0.519219	-0.082828
H458	H	-0.390151	0.852552	0.250505
H459	H	-0.056818	1.185885	0.583839
H460	H	-0.671467	0.451925	-0.073990
H461	H	-0.338134	0.785258	0.259343
H462	H	-0.004800	1.118591	0.592676
H463	H	-0.723511	0.458911	-0.138691
H464	H	-0.390178	0.792244	0.194642
H465	H	-0.056844	1.125578	0.527975
