data_functionalizedCrystal
_audit_creation_method	'MofGen! by Chris Wilmer'
_symmetry_space_group_name_H-M	'P1'
_symmetry_Int_Tables_number	1
_symmetry_cell_setting	triclinic
loop_
_symmetry_equiv_pos_as_xyz
  x,y,z
_cell_length_a	26.809956
_cell_length_b	14.044220
_cell_length_c	14.044220
_cell_angle_alpha	93.188878
_cell_angle_beta	90.003850
_cell_angle_gamma	89.995344
loop_
_atom_site_label
_atom_site_type_symbol
_atom_site_fract_x
_atom_site_fract_y
_atom_site_fract_z
O1	O	0.041429	-1.277174	-0.230155
O2	O	0.041441	-1.000503	-0.221849
O3	O	0.041430	-1.134686	-0.087666
O4	O	0.041440	-1.142991	-0.364338
O5	O	-0.041529	-1.134660	-0.087686
O6	O	-0.041518	-1.000477	-0.221869
O7	O	-0.041531	-1.277149	-0.230175
Zn8	Zn	-0.054696	-1.138809	-0.226025
Zn9	Zn	0.054606	-1.138843	-0.225999
O10	O	-0.041520	-1.142966	-0.364358
C11	C	-0.000037	-0.964868	-0.218223
C12	C	-0.000032	-0.858725	-0.207379
N13	N	-0.129292	-1.138792	-0.226043
C14	C	-0.000050	-1.131037	-0.052054
C15	C	-0.000050	-1.120193	0.054088
C16	C	-0.473923	-1.198252	-0.166598
C17	C	-0.682801	-1.198273	-0.166585
O18	O	-0.709809	-1.248790	-0.116045
N19	N	-0.708919	-1.138846	-0.225978
C20	C	-0.682815	-1.079405	-0.285374
O21	O	-0.709823	-1.028852	-0.335884
C22	C	-0.473938	-1.079379	-0.285381
C23	C	-0.447822	-1.138817	-0.225991
C24	C	-0.447807	-1.257684	-0.107212
C25	C	-0.395591	-1.257682	-0.107220
C26	C	-0.369490	-1.198248	-0.166613
C27	C	-0.395606	-1.138815	-0.225999
C28	C	-0.447835	-1.019933	-0.344771
C29	C	-0.395613	-1.019931	-0.344766
C30	C	-0.369497	-1.079369	-0.285376
C31	C	-0.317289	-1.079378	-0.285399
N32	N	-0.291171	-1.138805	-0.226006
C33	C	-0.317271	-1.198240	-0.166613
C34	C	-0.792478	-1.079424	-0.285367
C35	C	-0.844697	-1.079431	-0.285367
C36	C	-0.844679	-1.198299	-0.166577
C37	C	-0.792459	-1.198296	-0.166583
C38	C	-0.766360	-1.138851	-0.225974
C39	C	-0.207613	-1.198232	-0.166634
C40	C	-0.155392	-1.198227	-0.166650
C41	C	-0.155415	-1.079356	-0.285436
C42	C	-0.207631	-1.079364	-0.285424
C43	C	-0.233729	-1.138805	-0.226016
O44	O	-0.290249	-1.028881	-0.335905
O45	O	-0.290254	-1.248770	-0.116096
C46	C	-0.526139	-1.198254	-0.166590
C47	C	-0.552255	-1.138822	-0.225976
C48	C	-0.526155	-1.079387	-0.285369
C49	C	-0.604474	-1.138829	-0.225976
C50	C	-0.630574	-1.198264	-0.166582
C51	C	-0.604456	-1.257691	-0.107190
C52	C	-0.552240	-1.257689	-0.107197
C53	C	-0.552273	-1.019960	-0.344762
C54	C	-0.604489	-1.019967	-0.344750
C55	C	-0.630590	-1.079402	-0.285357
N56	N	0.129202	-1.138866	-0.225974
C57	C	-0.000052	-1.312783	-0.233800
C58	C	-0.000053	-1.418926	-0.244645
C59	C	-0.000043	-0.664388	-0.187553
C60	C	-0.000042	-0.613258	-0.264467
C61	C	-0.000048	-0.505122	-0.253435
C62	C	-0.000037	-0.772534	-0.198583
C63	C	-0.000039	-1.146614	-0.399969
C64	C	-0.000036	-1.157459	-0.506112
C65	C	-0.000042	-1.100366	0.248426
C66	C	-0.000044	-1.177281	0.299556
C67	C	-0.000039	-1.166249	0.407692
C68	C	-0.000046	-1.111397	0.140280
H69	H	-0.134131	-1.246632	-0.118288
C70	C	-0.000055	-1.277433	0.248979
N71	N	-0.000067	-1.352864	0.210881
H72	H	-0.374365	-0.971521	-0.393128
C73	C	-0.000044	-1.000222	0.299003
N74	N	-0.000049	-0.924793	0.337108
H75	H	-0.625749	-0.971568	-0.393121
C76	C	-0.000045	-0.613811	-0.087408
N77	N	-0.000044	-0.575706	-0.011979
C78	C	-0.126694	-1.013978	-0.350762
N79	N	-0.105061	-0.964728	-0.399960
H80	H	-0.530980	-1.306089	-0.058836
H81	H	-0.000037	-0.650697	-0.338600
H82	H	-0.374330	-1.306079	-0.058857
C83	C	-0.236314	-1.263622	-0.101284
N84	N	-0.257930	-1.312879	-0.052067
H85	H	-0.771199	-1.246695	-0.118222
C86	C	-0.476509	-1.323065	-0.041861
N87	N	-0.498125	-1.372317	0.007364
C88	C	-0.873419	-1.014052	-0.350708
N89	N	-0.895050	-0.964801	-0.399919
C90	C	-0.873399	-1.263672	-0.101238
N91	N	-0.895034	-1.312902	-0.052022
H92	H	-0.771231	-1.031016	-0.333733
H93	H	-0.228895	-1.030974	-0.333795
C94	C	-0.476551	-0.954538	-0.410098
N95	N	-0.498179	-0.905274	-0.459302
H96	H	-0.531026	-0.971559	-0.393126
H97	H	-0.625716	-1.306089	-0.058833
