data_functionalizedCrystal
_audit_creation_method	'MofGen! by Chris Wilmer'
_symmetry_space_group_name_H-M	'P1'
_symmetry_Int_Tables_number	1
_symmetry_cell_setting	triclinic
loop_
_symmetry_equiv_pos_as_xyz
  x,y,z
_cell_length_a	12.827893
_cell_length_b	13.897447
_cell_length_c	13.897441
_cell_angle_alpha	90.026528
_cell_angle_beta	89.980094
_cell_angle_gamma	89.978644
loop_
_atom_site_label
_atom_site_type_symbol
_atom_site_fract_x
_atom_site_fract_y
_atom_site_fract_z
Zn1	Zn	1.597634	0.383980	-0.545387
Zn2	Zn	1.847634	0.633980	-0.295387
Zn3	Zn	2.097634	0.883980	-0.045387
Zn4	Zn	2.347634	1.133980	0.204613
Zn5	Zn	1.597508	0.545302	-0.384100
Zn6	Zn	1.847508	0.795302	-0.134100
Zn7	Zn	2.097508	1.045302	0.115900
Zn8	Zn	2.347508	1.295302	0.365900
Zn9	Zn	1.422873	0.384023	-0.384108
Zn10	Zn	1.672873	0.634023	-0.134108
Zn11	Zn	1.922873	0.884023	0.115892
Zn12	Zn	2.172873	1.134023	0.365892
Zn13	Zn	1.422843	0.545235	-0.545355
Zn14	Zn	1.672843	0.795235	-0.295355
Zn15	Zn	1.922843	1.045235	-0.045355
Zn16	Zn	2.172843	1.295235	0.204645
O17	O	1.510215	0.464635	-0.464737
O18	O	1.760215	0.714635	-0.214737
O19	O	2.010215	0.964635	0.035263
O20	O	2.260215	1.214635	0.285263
O21	O	1.743853	0.405390	-0.524002
O22	O	1.993853	0.655390	-0.274002
O23	O	2.243853	0.905390	-0.024002
O24	O	2.493853	1.155390	0.225998
O25	O	1.574303	0.523953	-0.249119
O26	O	1.824303	0.773953	0.000881
O27	O	2.074303	1.023953	0.250881
O28	O	2.324303	1.273953	0.500881
O29	O	1.446121	0.249035	-0.405519
O30	O	1.696121	0.499035	-0.155519
O31	O	1.946121	0.749035	0.094481
O32	O	2.196121	0.999035	0.344481
O33	O	1.743761	0.523912	-0.405505
O34	O	1.993761	0.773912	-0.155505
O35	O	2.243761	1.023912	0.094495
O36	O	2.493761	1.273912	0.344495
O37	O	1.574517	0.249004	-0.524010
O38	O	1.824517	0.499004	-0.274010
O39	O	2.074517	0.749004	-0.024010
O40	O	2.324517	0.999004	0.225990
O41	O	1.445999	0.405463	-0.249125
O42	O	1.695999	0.655463	0.000875
O43	O	1.945999	0.905463	0.250875
O44	O	2.195999	1.155463	0.500875
O45	O	1.276633	0.405398	-0.405487
O46	O	1.526633	0.655398	-0.155487
O47	O	1.776633	0.905398	0.094513
O48	O	2.026633	1.155398	0.344513
O49	O	1.446069	0.523799	-0.680341
O50	O	1.696069	0.773799	-0.430341
O51	O	1.946069	1.023799	-0.180341
O52	O	2.196069	1.273799	0.069659
O53	O	1.276611	0.523840	-0.523955
O54	O	1.526611	0.773840	-0.273955
O55	O	1.776611	1.023840	-0.023955
O56	O	2.026611	1.273840	0.226045
O57	O	1.574487	0.405325	-0.680365
O58	O	1.824487	0.655325	-0.430365
O59	O	2.074487	0.905325	-0.180365
O60	O	2.324487	1.155325	0.069635
O61	O	1.574273	0.680275	-0.405474
O62	O	1.824273	0.930275	-0.155474
O63	O	2.074273	1.180275	0.094526
O64	O	2.324273	1.430275	0.344526
O65	O	1.445947	0.680226	-0.523947
O66	O	1.695947	0.930226	-0.273947
O67	O	1.945947	1.180226	-0.023947
O68	O	2.195947	1.430226	0.226053
C69	C	1.238705	0.464617	-0.464719
C70	C	1.488705	0.714617	-0.214719
C71	C	1.738705	0.964617	0.035281
C72	C	1.988705	1.214617	0.285281
C73	C	1.122552	0.464633	-0.464734
C74	C	1.372552	0.714633	-0.214734
C75	C	1.622552	0.964633	0.035266
C76	C	1.872552	1.214633	0.285266
C77	C	1.070812	0.406088	-0.523462
C78	C	1.320812	0.656088	-0.273462
C79	C	1.570812	0.906088	-0.023462
C80	C	1.820812	1.156088	0.226538
C81	C	0.950762	0.406103	-0.523478
C82	C	1.200762	0.656103	-0.273478
C83	C	1.450762	0.906103	-0.023478
C84	C	1.700762	1.156103	0.226522
C85	C	1.510122	0.715249	-0.464727
C86	C	1.760122	0.965249	-0.214727
C87	C	2.010122	1.215249	0.035273
C88	C	2.260122	1.465249	0.285273
C89	C	1.510178	0.822463	-0.464755
C90	C	1.760178	1.072463	-0.214755
C91	C	2.010178	1.322463	0.035245
C92	C	2.260178	1.572463	0.285245
C93	C	1.510226	0.909533	-0.464782
C94	C	1.760226	1.159533	-0.214782
C95	C	2.010226	1.409533	0.035218
C96	C	2.260226	1.659533	0.285218
C97	C	1.510295	1.018765	-0.464812
C98	C	1.760295	1.268765	-0.214812
C99	C	2.010295	1.518765	0.035188
C100	C	2.260295	1.768765	0.285188
C101	C	1.782785	0.464653	-0.464756
C102	C	2.032785	0.714653	-0.214756
C103	C	2.282785	0.964653	0.035244
C104	C	2.532785	1.214653	0.285244
C105	C	1.898938	0.464661	-0.464765
C106	C	2.148938	0.714661	-0.214765
C107	C	2.398938	0.964661	0.035235
C108	C	2.648938	1.214661	0.285235
C109	C	1.510289	0.464550	-0.716331
C110	C	1.760289	0.714550	-0.466331
C111	C	2.010289	0.964550	-0.216331
C112	C	2.260289	1.214550	0.033669
C113	C	1.510320	0.464513	-0.823545
C114	C	1.760320	0.714513	-0.573545
C115	C	2.010320	0.964513	-0.323545
C116	C	2.260320	1.214513	-0.073545
C117	C	1.510329	1.213042	-0.464781
C118	C	1.760329	1.463042	-0.214781
C119	C	2.010329	1.713042	0.035219
C120	C	2.260329	1.963042	0.285219
C121	C	1.510357	1.105828	-0.464831
C122	C	1.760357	1.355828	-0.214831
C123	C	2.010357	1.605828	0.035169
C124	C	2.260357	1.855828	0.285169
C125	C	1.510349	0.464448	-1.019840
C126	C	1.760349	0.714448	-0.769840
C127	C	2.010349	0.964448	-0.519840
C128	C	2.260349	1.214448	-0.269840
C129	C	1.510330	0.464487	-0.910607
C130	C	1.760330	0.714487	-0.660607
C131	C	2.010330	0.964487	-0.410607
C132	C	2.260330	1.214487	-0.160607
C133	C	1.510201	0.464650	-0.214123
C134	C	1.760201	0.714650	0.035877
C135	C	2.010201	0.964650	0.285877
C136	C	2.260201	1.214650	0.535877
C137	C	1.510372	0.464415	-0.106910
C138	C	1.760372	0.714415	0.143090
C139	C	2.010372	0.964415	0.393090
C140	C	2.260372	1.214415	0.643090
H141	H	1.077971	0.514764	-0.414466
H142	H	1.327971	0.764764	-0.164466
H143	H	1.577971	1.014764	0.085534
H144	H	1.827971	1.264764	0.335534
H145	H	0.943426	0.514791	-0.414489
H146	H	1.193426	0.764791	-0.164489
H147	H	1.443426	1.014791	0.085511
H148	H	1.693426	1.264791	0.335511
H149	H	1.115393	0.355952	-0.573724
H150	H	1.365393	0.605952	-0.323724
H151	H	1.615393	0.855952	-0.073724
H152	H	1.865393	1.105952	0.176276
H153	H	0.906267	0.355984	-0.573760
H154	H	1.156267	0.605984	-0.323760
H155	H	1.406267	0.855984	-0.073760
H156	H	1.656267	1.105984	0.176240
