data_functionalizedCrystal
_audit_creation_method	'MofGen! by Chris Wilmer'
_symmetry_space_group_name_H-M	'P1'
_symmetry_Int_Tables_number	1
_symmetry_cell_setting	triclinic
loop_
_symmetry_equiv_pos_as_xyz
  x,y,z
_cell_length_a	19.188930
_cell_length_b	15.944551
_cell_length_c	18.266242
_cell_angle_alpha	89.992703
_cell_angle_beta	89.977082
_cell_angle_gamma	83.321759
loop_
_atom_site_label
_atom_site_type_symbol
_atom_site_fract_x
_atom_site_fract_y
_atom_site_fract_z
O1	O	-0.926420	-0.104867	0.061118
O2	O	-0.723146	-0.118984	0.061068
O3	O	-0.830334	0.010370	0.061088
O4	O	-0.819232	-0.234221	0.061098
O5	O	-0.830316	0.010377	-0.060674
O6	O	-0.723127	-0.118977	-0.060694
O7	O	-0.926402	-0.104861	-0.060644
Zn8	Zn	-0.824762	-0.111918	-0.080001
Zn9	Zn	-0.824786	-0.111927	0.080425
O10	O	-0.819214	-0.234215	-0.060664
C11	C	-0.697124	-0.118524	0.000180
C12	C	-0.619616	-0.117151	0.000161
C13	C	-0.829864	0.041665	0.000206
C14	C	-0.828482	0.134906	0.000206
C15	C	-0.952423	-0.105321	0.000245
C16	C	-1.029932	-0.106693	0.000269
C17	C	-0.574889	-0.193052	0.000176
C18	C	-0.502061	-0.191763	0.000184
C19	C	-0.473965	-0.114568	0.000192
C20	C	-0.518703	-0.038658	0.000173
C21	C	-0.591528	-0.039949	0.000158
N22	N	-0.365839	-0.055565	0.041660
N23	N	-0.296657	-0.054344	0.041676
C24	C	-0.254547	-0.110673	0.000236
N25	N	-0.284230	-0.168283	-0.041210
N26	N	-0.353418	-0.169507	-0.041223
C27	C	-0.394999	-0.113160	0.000208
C28	C	-0.130851	-0.185181	0.000259
C29	C	-0.058023	-0.183888	0.000262
C30	C	-0.074666	-0.030781	0.000259
C31	C	-0.147492	-0.032076	0.000248
C32	C	-0.175580	-0.109278	0.000251
C33	C	-0.819684	-0.265510	0.000219
C34	C	-0.821066	-0.358751	0.000225
N35	N	-0.824751	-0.111912	-0.189488
C36	C	-0.758739	0.349502	0.000199
C37	C	-0.791117	0.410644	-0.059829
C38	C	-0.825983	0.305623	0.000211
C39	C	-0.791150	0.410621	0.060218
C40	C	-0.823563	0.470527	0.000219
C41	C	-0.858378	0.365536	-0.059867
C42	C	-0.858403	0.365507	0.060235
C43	C	-0.890829	0.426631	0.000192
C44	C	-0.827374	0.210626	0.000205
C45	C	-0.822176	0.565522	0.000219
C46	C	-0.872229	-0.054662	-0.227788
C47	C	-0.872234	-0.054658	-0.304433
C48	C	-0.824766	-0.111918	-0.342775
C49	C	-0.777279	-0.169172	-0.304466
C50	C	-0.777271	-0.169169	-0.227822
N51	N	-0.815883	-0.186275	-0.463106
N52	N	-0.815894	-0.186275	-0.535914
C53	C	-0.824786	-0.111930	-0.573698
N54	N	-0.833679	-0.037582	-0.535923
N55	N	-0.833671	-0.037582	-0.463108
C56	C	-0.824769	-0.111928	-0.425882
C57	C	-0.872272	-0.054671	-0.695105
C58	C	-0.872271	-0.054666	-0.771751
C59	C	-0.777320	-0.169188	-0.771782
C60	C	-0.777317	-0.169186	-0.695137
C61	C	-0.824797	-0.111929	-0.656803
N62	N	-0.824803	-0.111926	0.189912
H63	H	-0.597753	-0.255916	0.000180
C64	C	-0.752683	0.437674	-0.128406
N65	N	-0.723731	0.458030	-0.180054
H66	H	-0.021605	-0.245698	0.000270
C67	C	-0.196695	0.051422	0.000240
N68	N	-0.233755	0.114317	0.000233
C69	C	-0.752723	0.437608	0.128776
N70	N	-0.723775	0.457931	0.180411
C71	C	-0.924493	0.008331	-0.813881
N72	N	-0.963824	0.055785	-0.845614
H73	H	-0.886788	0.345655	-0.110671
C74	C	-0.924452	0.008332	-0.185625
N75	N	-0.963784	0.055782	-0.153867
H76	H	-0.153721	-0.248043	0.000251
C77	C	-0.896802	0.338448	0.128817
N78	N	-0.925720	0.318064	0.180479
H79	H	-0.910898	-0.008036	-0.335623
H80	H	-0.702924	0.315986	0.000125
H81	H	-0.738668	-0.215808	-0.803000
H82	H	-0.946693	0.459999	0.000172
H83	H	-0.738629	-0.215794	-0.335688
C84	C	-0.725069	-0.232188	-0.185691
N85	N	-0.685761	-0.279668	-0.153957
H86	H	-0.051791	0.032072	0.000311
H87	H	-0.910931	-0.008046	-0.663892
H88	H	-0.465637	-0.253572	0.000194
H89	H	-0.738658	-0.215808	-0.663951
C90	C	-0.487796	0.046256	0.000183
N91	N	-0.464517	0.110216	0.000188
C92	C	-0.640731	0.043551	0.000146
N93	N	-0.677792	0.106445	0.000140
