data_functionalizedCrystal
_audit_creation_method	'MofGen! by Chris Wilmer'
_symmetry_space_group_name_H-M	'P1'
_symmetry_Int_Tables_number	1
_symmetry_cell_setting	triclinic
loop_
_symmetry_equiv_pos_as_xyz
  x,y,z
_cell_length_a	19.188925
_cell_length_b	19.188930
_cell_length_c	17.766277
_cell_angle_alpha	89.988508
_cell_angle_beta	89.989688
_cell_angle_gamma	83.143665
loop_
_atom_site_label
_atom_site_type_symbol
_atom_site_fract_x
_atom_site_fract_y
_atom_site_fract_z
O1	O	0.926152	0.087151	-0.062619
O2	O	1.259485	0.420484	0.270715
O3	O	1.592819	0.753817	0.604048
O4	O	0.722840	0.098889	-0.062618
O5	O	1.056174	0.432222	0.270715
O6	O	1.389507	0.765555	0.604049
O7	O	0.830363	-0.008636	-0.062604
O8	O	1.163697	0.324697	0.270730
O9	O	1.497030	0.658031	0.604063
O10	O	0.818629	0.194675	-0.062633
O11	O	1.151962	0.528009	0.270700
O12	O	1.485296	0.861342	0.604034
O13	O	0.830344	-0.008642	0.062585
O14	O	1.163678	0.324692	0.395918
O15	O	1.497011	0.658025	0.729251
O16	O	0.722821	0.098883	0.062571
O17	O	1.056155	0.432217	0.395904
O18	O	1.389488	0.765550	0.729237
O19	O	0.926133	0.087145	0.062570
O20	O	1.259466	0.420478	0.395903
O21	O	1.592800	0.753812	0.729236
Cu22	Cu	0.824476	0.093014	0.074001
Cu23	Cu	1.157809	0.426347	0.407334
Cu24	Cu	1.491142	0.759680	0.740668
Cu25	Cu	0.824498	0.093020	-0.074049
Cu26	Cu	1.157831	0.426353	0.259284
Cu27	Cu	1.491164	0.759687	0.592618
O28	O	0.818610	0.194670	0.062555
O29	O	1.151943	0.528003	0.395889
O30	O	1.485277	0.861337	0.729222
C31	C	0.829974	-0.034650	-0.000007
C32	C	1.163307	0.298683	0.333326
C33	C	1.496640	0.632017	0.666659
C34	C	0.828833	-0.112154	-0.000001
C35	C	1.162166	0.221179	0.333333
C36	C	1.495500	0.554512	0.666666
C37	C	0.696820	0.098507	-0.000023
C38	C	1.030153	0.431840	0.333310
C39	C	1.363486	0.765173	0.666643
C40	C	0.619315	0.097367	-0.000022
C41	C	0.952648	0.430701	0.333311
C42	C	1.285982	0.764034	0.666644
C43	C	0.057545	0.152831	-0.000032
C44	C	0.390878	0.486165	0.333301
C45	C	0.724211	0.819498	0.666635
C46	C	0.130368	0.153908	-0.000036
C47	C	0.463701	0.487241	0.333297
C48	C	0.797035	0.820575	0.666630
C49	C	0.175302	0.090816	-0.000026
C50	C	0.508636	0.424149	0.333307
C51	C	0.841969	0.757482	0.666641
C52	C	0.147408	0.026642	-0.000030
C53	C	0.480742	0.359976	0.333303
C54	C	0.814075	0.693309	0.666636
C55	C	0.074586	0.025568	-0.000034
C56	C	0.407920	0.358901	0.333300
C57	C	0.741253	0.692234	0.666633
N58	N	0.295973	0.045138	0.042596
N59	N	0.629306	0.378471	0.375929
N60	N	0.962640	0.711804	0.709262
N61	N	0.365150	0.046163	0.042601
N62	N	0.698484	0.379496	0.375934
N63	N	1.031817	0.712830	0.709267
C64	C	0.394712	0.094050	-0.000017
C65	C	0.728045	0.427383	0.333316
C66	C	1.061378	0.760716	0.666649
N67	N	0.352481	0.140883	-0.042631
N68	N	0.685814	0.474217	0.290702
N69	N	1.019147	0.807550	0.624036
N70	N	0.283297	0.139860	-0.042632
N71	N	0.616630	0.473193	0.290701
N72	N	0.949963	0.806527	0.624034
C73	C	0.254267	0.091974	-0.000023
C74	C	0.587600	0.425307	0.333311
C75	C	0.920933	0.758641	0.666644
C76	C	0.501561	0.159386	-0.000023
C77	C	0.834894	0.492720	0.333311
C78	C	1.168227	0.826053	0.666644
C79	C	0.574385	0.160460	-0.000032
C80	C	0.907719	0.493794	0.333302
C81	C	1.241052	0.827127	0.666635
C82	C	0.591425	0.033193	-0.000018
C83	C	0.924758	0.366526	0.333315
C84	C	1.258091	0.699859	0.666649
C85	C	0.518601	0.032121	-0.000017
C86	C	0.851934	0.365454	0.333316
C87	C	1.185268	0.698787	0.666650
C88	C	0.473673	0.095220	-0.000016
C89	C	0.807006	0.428553	0.333318
C90	C	1.140340	0.761886	0.666651
C91	C	0.891924	-0.157079	0.000003
C92	C	1.225257	0.176254	0.333336
C93	C	1.558591	0.509587	0.666669
C94	C	0.890852	-0.229903	-0.000010
C95	C	1.224186	0.103430	0.333324
C96	C	1.557519	0.436763	0.666657
C97	C	0.826686	-0.257799	-0.000010
C98	C	1.160020	0.075535	0.333324
C99	C	1.493353	0.408868	0.666657
C100	C	0.763587	-0.212864	-0.000017
C101	C	1.096920	0.120470	0.333316
C102	C	1.430254	0.453803	0.666649
C103	C	0.764660	-0.140041	-0.000013
C104	C	1.097994	0.193292	0.333320
C105	C	1.431327	0.526625	0.666654
N106	N	0.777632	-0.365804	0.042594
N107	N	1.110966	-0.032471	0.375928
N108	N	1.444299	0.300862	0.709261
N109	N	0.776617	-0.434983	0.042592
N110	N	1.109950	-0.101650	0.375925
N111	N	1.443284	0.231684	0.709258
C112	C	0.823448	-0.477207	-0.000025
C113	C	1.156781	-0.143874	0.333308
C114	C	1.490115	0.189459	0.666642
N115	N	0.871344	-0.447641	-0.042630
N116	N	1.204677	-0.114307	0.290704
N117	N	1.538010	0.219026	0.624037
N118	N	0.872361	-0.378456	-0.042624
N119	N	1.205695	-0.045123	0.290710
N120	N	1.539028	0.288211	0.624043
C121	C	0.825515	-0.336761	-0.000015
C122	C	1.158848	-0.003428	0.333318
C123	C	1.492182	0.329906	0.666652
C124	C	0.885381	-0.601097	-0.000036
C125	C	1.218715	-0.267763	0.333298
C126	C	1.552048	0.065570	0.666631
C127	C	0.884307	-0.673922	-0.000053
C128	C	1.217640	-0.340588	0.333281
C129	C	1.550974	-0.007255	0.666614
C130	C	0.757040	-0.656880	-0.000053
C131	C	1.090373	-0.323547	0.333281
C132	C	1.423706	0.009786	0.666614
C133	C	0.758116	-0.584057	-0.000044
C134	C	1.091449	-0.250724	0.333290
C135	C	1.424783	0.082610	0.666623
C136	C	0.822289	-0.556170	-0.000032
C137	C	1.155622	-0.222837	0.333302
C138	C	1.488955	0.110497	0.666635
C139	C	0.952154	0.087527	-0.000027
C140	C	1.285487	0.420861	0.333307
C141	C	1.618820	0.754194	0.666640
C142	C	1.029658	0.088666	-0.000033
C143	C	1.362992	0.422000	0.333301
C144	C	1.696325	0.755333	0.666634
C145	C	0.819000	0.220684	-0.000043
C146	C	1.152333	0.554017	0.333291
C147	C	1.485666	0.887350	0.666624
C148	C	0.820140	0.298188	-0.000054
C149	C	1.153474	0.631522	0.333279
C150	C	1.486807	0.964855	0.666613
N151	N	0.824465	0.093009	0.178131
N152	N	1.157798	0.426342	0.511465
N153	N	1.491132	0.759675	0.844798
N154	N	0.824514	0.093020	-0.178179
N155	N	1.157847	0.426353	0.155154
N156	N	1.491181	0.759686	0.488487
C157	C	0.872091	0.045420	0.217524
C158	C	1.205425	0.378753	0.550858
C159	C	1.538758	0.712087	0.884191
C160	C	0.872096	0.045417	0.296326
C161	C	1.205429	0.378750	0.629660
C162	C	1.538762	0.712083	0.962993
C163	C	0.824480	0.093014	0.335732
C164	C	1.157813	0.426348	0.669065
C165	C	1.491146	0.759681	1.002398
C166	C	0.776844	0.140607	0.296329
C167	C	1.110178	0.473940	0.629662
C168	C	1.443511	0.807273	0.962996
C169	C	0.776837	0.140604	0.217529
C170	C	1.110170	0.473937	0.550862
C171	C	1.443504	0.807271	0.884195
C172	C	0.815137	0.156630	0.460561
C173	C	1.148471	0.489964	0.793894
C174	C	1.481804	0.823297	1.127227
C175	C	0.815150	0.156634	0.539359
C176	C	1.148483	0.489967	0.872693
C177	C	1.481816	0.823301	1.206026
C178	C	0.824498	0.093023	0.578778
C179	C	1.157832	0.426356	0.912111
C180	C	1.491165	0.759689	1.245445
C181	C	0.833850	0.029405	0.539388
C182	C	1.167183	0.362738	0.872722
C183	C	1.500516	0.696071	1.206055
C184	C	0.833842	0.029402	0.460588
C185	C	1.167176	0.362735	0.793921
C186	C	1.500509	0.696069	1.127255
C187	C	0.824482	0.093022	0.421177
C188	C	1.157815	0.426356	0.754511
C189	C	1.491149	0.759689	1.087844
C190	C	0.872132	0.045426	0.703617
C191	C	1.205465	0.378760	1.036951
C192	C	1.538799	0.712093	1.370284
C193	C	0.872131	0.045422	0.782420
C194	C	1.205464	0.378756	1.115754
C195	C	1.538798	0.712089	1.449087
C196	C	0.776883	0.140618	0.782422
C197	C	1.110216	0.473952	1.115755
C198	C	1.443550	0.807285	1.449088
C199	C	0.776881	0.140616	0.703620
C200	C	1.110214	0.473950	1.036953
C201	C	1.443547	0.807283	1.370287
C202	C	0.824509	0.093021	0.664222
C203	C	1.157842	0.426355	0.997556
C204	C	1.491175	0.759688	1.330889
H205	H	0.020968	0.204211	-0.000035
H206	H	0.354302	0.537545	0.333299
H207	H	0.687635	0.870878	0.666632
H208	H	0.910912	0.006666	0.814495
H209	H	1.244246	0.339999	1.147828
H210	H	1.577579	0.673333	1.481162
N211	N	0.453099	0.227439	-0.000038
N212	N	0.786432	0.560773	0.333295
N213	N	1.119766	0.894106	0.666629
H214	H	0.402734	0.217023	-0.000035
H215	H	0.736068	0.550356	0.333298
H216	H	1.069401	0.883690	0.666631
H217	H	0.462100	0.255413	0.046366
H218	H	0.795433	0.588747	0.379700
H219	H	1.128766	0.922080	0.713033
H220	H	0.937635	-0.578390	-0.000029
H221	H	1.270968	-0.245057	0.333304
H222	H	1.604301	0.088277	0.666637
N223	N	0.923475	-0.005906	0.338825
N224	N	1.256808	0.327428	0.672158
N225	N	1.590142	0.660761	1.005491
H226	H	0.916253	0.001321	0.394723
H227	H	1.249586	0.334654	0.728056
H228	H	1.582920	0.667988	1.061389
H229	H	0.915572	-0.055422	0.325072
H230	H	1.248905	0.277911	0.658405
H231	H	1.582239	0.611245	0.991739
H232	H	0.597088	0.212713	-0.000037
H233	H	0.930421	0.546046	0.333296
H234	H	1.263755	0.879380	0.666629
N235	N	0.160457	0.223117	-0.000037
N236	N	0.493791	0.556450	0.333296
N237	N	0.827124	0.889783	0.666630
H238	H	0.120945	0.262925	-0.000038
H239	H	0.454279	0.596259	0.333296
H240	H	0.787612	0.929592	0.666629
H241	H	0.190291	0.226323	0.046375
H242	H	0.523624	0.559657	0.379708
H243	H	0.856958	0.892990	0.713041
H244	H	0.738074	0.179360	0.328417
H245	H	1.071407	0.512694	0.661750
H246	H	1.404740	0.846027	0.995084
H247	H	0.942230	-0.266488	-0.000010
H248	H	1.275564	0.066845	0.333323
H249	H	1.608897	0.400178	0.666657
H250	H	0.807539	0.208436	0.571425
H251	H	1.140873	0.541769	0.904758
H252	H	1.474206	0.875102	1.238091
H253	H	0.183999	-0.024728	-0.000024
H254	H	0.517332	0.308606	0.333309
H255	H	0.850665	0.641939	0.666643
N256	N	0.725521	0.191952	0.824915
N257	N	1.058854	0.525285	1.158248
N258	N	1.392188	0.858618	1.491581
H259	H	0.695347	0.222099	0.787998
H260	H	1.028681	0.555433	1.121331
H261	H	1.362014	0.888766	1.454664
H262	H	0.694745	0.165290	0.857620
H263	H	1.028078	0.498624	1.190953
H264	H	1.361412	0.831957	1.524287
N265	N	0.725510	0.191949	0.661133
N266	N	1.058843	0.525282	0.994466
N267	N	1.392177	0.858616	1.327800
H268	H	0.733397	0.241485	0.674831
H269	H	1.066730	0.574818	1.008164
H270	H	1.400063	0.908151	1.341498
H271	H	0.732752	0.184666	0.605248
H272	H	1.066085	0.518000	0.938581
H273	H	1.399419	0.851333	1.271914
N274	N	0.694378	-0.242945	-0.000022
N275	N	1.027711	0.090388	0.333312
N276	N	1.361045	0.423721	0.666645
H277	H	0.703271	-0.295895	-0.000022
H278	H	1.036604	0.037438	0.333312
H279	H	1.369937	0.370771	0.666645
H280	H	0.666770	-0.226505	0.046386
H281	H	1.000104	0.106829	0.379720
H282	H	1.333437	0.440162	0.713053
H283	H	0.495896	-0.020129	-0.000013
H284	H	0.829230	0.313204	0.333321
H285	H	1.162563	0.646537	0.666654
H286	H	0.944179	-0.134379	0.000010
H287	H	1.277512	0.198954	0.333343
H288	H	1.610845	0.532288	0.666676
N289	N	0.690069	-0.535594	-0.000032
N290	N	1.023402	-0.202261	0.333302
N291	N	1.356735	0.131073	0.666635
H292	H	0.687683	-0.504989	-0.046437
H293	H	1.021017	-0.171656	0.286897
H294	H	1.354350	0.161677	0.620230
H295	H	0.649294	-0.564361	-0.000004
H296	H	0.982627	-0.231027	0.333330
H297	H	1.315961	0.102306	0.666663
N298	N	0.044504	-0.043641	-0.000034
N299	N	0.377837	0.289692	0.333300
N300	N	0.711171	0.623025	0.666633
H301	H	0.084017	-0.083449	-0.000030
H302	H	0.417350	0.249885	0.333303
H303	H	0.750684	0.583218	0.666637
H304	H	0.014654	-0.046863	0.046376
H305	H	0.347987	0.286471	0.379709
H306	H	0.681321	0.619804	0.713043
N307	N	0.639879	-0.034859	-0.000015
N308	N	0.973212	0.298475	0.333318
N309	N	1.306546	0.631808	0.666651
H310	H	0.690244	-0.024443	-0.000016
H311	H	1.023577	0.308891	0.333318
H312	H	1.356911	0.642224	0.666651
H313	H	0.630864	-0.062839	0.046395
H314	H	0.964197	0.270494	0.379729
H315	H	1.297531	0.603828	0.713062
H316	H	0.713282	-0.103462	-0.000015
H317	H	1.046616	0.229871	0.333318
H318	H	1.379949	0.563204	0.666651
H319	H	0.738053	0.179357	0.185454
H320	H	1.071386	0.512690	0.518787
H321	H	1.404719	0.846024	0.852121
H322	H	0.807512	0.208434	0.428472
H323	H	1.140846	0.541767	0.761806
H324	H	1.474179	0.875101	1.095139
N325	N	0.952359	-0.722381	-0.000052
N326	N	1.285692	-0.389048	0.333281
N327	N	1.619025	-0.055714	0.666615
H328	H	0.993171	-0.693661	-0.000041
H329	H	1.326505	-0.360328	0.333292
H330	H	1.659838	-0.026994	0.666625
H331	H	0.954672	-0.752978	0.046354
H332	H	1.288005	-0.419644	0.379687
H333	H	1.621338	-0.086311	0.713021
H334	H	0.910871	0.006664	0.185449
H335	H	1.244205	0.339997	0.518783
H336	H	1.577538	0.673330	0.852116
H337	H	0.704794	-0.679592	-0.000057
H338	H	1.038128	-0.346258	0.333277
H339	H	1.371461	-0.012925	0.666610
H340	H	0.841455	-0.022398	0.428520
H341	H	1.174788	0.310936	0.761853
H342	H	1.508121	0.644269	1.095187
H343	H	0.841462	-0.022394	0.571481
H344	H	1.174795	0.310939	0.904814
H345	H	1.508129	0.644273	1.238148
N346	N	0.923497	-0.005907	0.661117
N347	N	1.256830	0.327427	0.994450
N348	N	1.590163	0.660760	1.327784
H349	H	0.953666	-0.036059	0.698033
H350	H	1.286999	0.297274	1.031367
H351	H	1.620333	0.630607	1.364700
H352	H	0.896862	-0.036707	0.628435
H353	H	1.230195	0.296627	0.961769
H354	H	1.563529	0.629960	1.295102
