data_functionalizedCrystal
_audit_creation_method	'MofGen! by Chris Wilmer'
_symmetry_space_group_name_H-M	'P1'
_symmetry_Int_Tables_number	1
_symmetry_cell_setting	triclinic
loop_
_symmetry_equiv_pos_as_xyz
  x,y,z
_cell_length_a	19.121102
_cell_length_b	13.897448
_cell_length_c	13.897441
_cell_angle_alpha	90.030599
_cell_angle_beta	87.539222
_cell_angle_gamma	92.427934
loop_
_atom_site_label
_atom_site_type_symbol
_atom_site_fract_x
_atom_site_fract_y
_atom_site_fract_z
Zn1	Zn	1.073786	0.446992	-0.608246
Zn2	Zn	1.407119	0.780326	-0.274913
Zn3	Zn	1.740452	1.113659	0.058420
Zn4	Zn	1.073708	0.608309	-0.446943
Zn5	Zn	1.407042	0.941643	-0.113610
Zn6	Zn	1.740375	1.274976	0.219723
Zn7	Zn	0.956329	0.440142	-0.440088
Zn8	Zn	1.289663	0.773476	-0.106755
Zn9	Zn	1.622996	1.106809	0.226578
Zn10	Zn	0.956316	0.601354	-0.601323
Zn11	Zn	1.289649	0.934687	-0.267990
Zn12	Zn	1.622983	1.268021	0.065344
O13	O	1.015035	0.524200	-0.524150
O14	O	1.348368	0.857533	-0.190817
O15	O	1.681701	1.190866	0.142516
O16	O	1.172061	0.474169	-0.592615
O17	O	1.505394	0.807502	-0.259282
O18	O	1.838727	1.140836	0.074051
O19	O	1.058111	0.586046	-0.311051
O20	O	1.391444	0.919379	0.022283
O21	O	1.724778	1.252713	0.355616
O22	O	0.971948	0.306072	-0.462423
O23	O	1.305281	0.639405	-0.129090
O24	O	1.638615	0.972738	0.204243
O25	O	1.172004	0.592688	-0.474107
O26	O	1.505337	0.926021	-0.140773
O27	O	1.838670	1.259355	0.192560
O28	O	1.058243	0.311104	-0.585968
O29	O	1.391576	0.644438	-0.252635
O30	O	1.724909	0.977771	0.080698
O31	O	0.971873	0.462494	-0.306014
O32	O	1.305206	0.795828	0.027319
O33	O	1.638540	1.129161	0.360652
O34	O	0.858042	0.455750	-0.455710
O35	O	1.191376	0.789083	-0.122377
O36	O	1.524709	1.122417	0.210957
O37	O	0.971925	0.580833	-0.737225
O38	O	1.305259	0.914167	-0.403891
O39	O	1.638592	1.247500	-0.070558
O40	O	0.858033	0.574191	-0.574169
O41	O	1.191366	0.907525	-0.240835
O42	O	1.524699	1.240858	0.092498
O43	O	1.058230	0.467425	-0.742311
O44	O	1.391563	0.800758	-0.408978
O45	O	1.724896	1.134091	-0.075645
O46	O	1.058098	0.742366	-0.467393
O47	O	1.391432	1.075700	-0.134060
O48	O	1.724765	1.409033	0.199273
O49	O	0.971850	0.737256	-0.580816
O50	O	1.305184	1.070589	-0.247482
O51	O	1.638517	1.403923	0.085851
C52	C	0.832553	0.513473	-0.513445
C53	C	1.165887	0.846807	-0.180111
C54	C	1.499220	1.180140	0.153222
C55	C	0.754487	0.508908	-0.508888
C56	C	1.087820	0.842241	-0.175554
C57	C	1.421153	1.175575	0.157779
C58	C	1.014984	0.774811	-0.524119
C59	C	1.348317	1.108144	-0.190786
C60	C	1.681650	1.441478	0.142547
C61	C	1.015026	0.882027	-0.524142
C62	C	1.348359	1.215361	-0.190809
C63	C	1.681693	1.548694	0.142525
C64	C	1.015085	0.524117	-0.775746
C65	C	1.348418	0.857451	-0.442413
C66	C	1.681751	1.190784	-0.109080
C67	C	1.015106	0.524082	-0.882962
C68	C	1.348439	0.857415	-0.549628
C69	C	1.681773	1.190749	-0.216295
C70	C	0.717824	0.568522	-0.568325
C71	C	1.051158	0.901856	-0.234992
C72	C	1.384491	1.235189	0.098342
C73	C	0.644473	0.564220	-0.564048
C74	C	0.977806	0.897553	-0.230715
C75	C	1.311139	1.230886	0.102619
C76	C	0.607785	0.500307	-0.500328
C77	C	0.941118	0.833640	-0.166995
C78	C	1.274451	1.166974	0.166339
C79	C	0.644452	0.440686	-0.440888
C80	C	0.977786	0.774020	-0.107555
C81	C	1.311119	1.107353	0.225778
C82	C	0.717803	0.444985	-0.445171
C83	C	1.051136	0.778318	-0.111838
C84	C	1.384469	1.111651	0.221496
C85	C	0.386313	0.484235	-0.484321
C86	C	0.719647	0.817568	-0.150988
C87	C	1.052980	1.150901	0.182346
C88	C	0.312958	0.479943	-0.480041
C89	C	0.646291	0.813276	-0.146708
C90	C	0.979625	1.146610	0.186626
C91	C	0.312983	0.603476	-0.603202
C92	C	0.646317	0.936809	-0.269869
C93	C	0.979650	1.270142	0.063464
C94	C	0.386335	0.607772	-0.607475
C95	C	0.719668	0.941106	-0.274142
C96	C	1.053002	1.274439	0.059192
C97	C	0.422996	0.548148	-0.548039
C98	C	0.756330	0.881481	-0.214706
C99	C	1.089663	1.214815	0.118628
C100	C	0.532808	0.495910	-0.495953
C101	C	0.866141	0.829243	-0.162619
C102	C	1.199474	1.162577	0.170714
C103	C	0.497972	0.552541	-0.552420
C104	C	0.831305	0.885874	-0.219087
C105	C	1.164639	1.219208	0.114246
C106	C	1.198229	0.534968	-0.534898
C107	C	1.531562	0.868302	-0.201565
C108	C	1.864896	1.201635	0.131769
C109	C	1.276295	0.539557	-0.539478
C110	C	1.609629	0.872891	-0.206145
C111	C	1.942962	1.206224	0.127189
C112	C	1.015105	0.272611	-0.524203
C113	C	1.348439	0.605944	-0.190870
C114	C	1.681772	0.939277	0.142463
C115	C	1.015135	0.165399	-0.524226
C116	C	1.348469	0.498732	-0.190893
C117	C	1.681802	0.832065	0.142440
C118	C	1.015100	1.078327	-0.524207
C119	C	1.348433	1.411660	-0.190874
C120	C	1.681766	1.744993	0.142460
C121	C	1.015057	0.969092	-0.524174
C122	C	1.348390	1.302425	-0.190840
C123	C	1.681723	1.635758	0.142493
C124	C	1.015125	0.524018	-1.079258
C125	C	1.348458	0.857351	-0.745925
C126	C	1.681792	1.190685	-0.412591
C127	C	1.015112	0.524056	-0.970025
C128	C	1.348446	0.857390	-0.636691
C129	C	1.681779	1.190723	-0.303358
C130	C	1.015026	0.524214	-0.273535
C131	C	1.348359	0.857548	0.059798
C132	C	1.681692	1.190881	0.393131
C133	C	1.015140	0.523986	-0.166329
C134	C	1.348474	0.857319	0.167005
C135	C	1.681807	1.190652	0.500338
H136	H	0.747690	0.620570	-0.620210
H137	H	1.081024	0.953903	-0.286876
H138	H	1.414357	1.287237	0.046457
H139	H	0.614625	0.612765	-0.612447
H140	H	0.947959	0.946098	-0.279114
H141	H	1.281292	1.279432	0.054219
Br142	Br	0.436059	0.403310	-0.403663
Br143	Br	0.769392	0.736643	-0.070329
Br144	Br	1.102725	1.069977	0.263004
Br145	Br	0.436121	0.694520	-0.693950
Br146	Br	0.769454	1.027853	-0.360617
Br147	Br	1.102787	1.361186	-0.027283
Br148	Br	0.263225	0.684394	-0.683857
Br149	Br	0.596559	1.017727	-0.350524
Br150	Br	0.929892	1.351060	-0.017190
H151	H	0.283089	0.427887	-0.428158
H152	H	0.616422	0.761220	-0.094825
H153	H	0.949755	1.094553	0.238508
Br154	Br	0.594663	0.353937	-0.354419
Br155	Br	0.927996	0.687271	-0.021086
Br156	Br	1.261329	1.020604	0.312247
H157	H	0.502928	0.443874	-0.444070
H158	H	0.836261	0.777207	-0.110736
H159	H	1.169595	1.110541	0.222597
H160	H	0.747652	0.396435	-0.396776
H161	H	1.080986	0.729768	-0.063443
H162	H	1.414319	1.063102	0.269891
Br163	Br	0.547764	0.639275	-0.638897
Br164	Br	0.881097	0.972608	-0.305563
Br165	Br	1.214430	1.305941	0.027770
