data_functionalizedCrystal
_audit_creation_method	'MofGen! by Chris Wilmer'
_symmetry_space_group_name_H-M	'P1'
_symmetry_Int_Tables_number	1
_symmetry_cell_setting	triclinic
loop_
_symmetry_equiv_pos_as_xyz
  x,y,z
_cell_length_a	27.732048
_cell_length_b	26.809956
_cell_length_c	27.732048
_cell_angle_alpha	90.000636
_cell_angle_beta	82.642655
_cell_angle_gamma	90.003258
loop_
_atom_site_label
_atom_site_type_symbol
_atom_site_fract_x
_atom_site_fract_y
_atom_site_fract_z
O1	O	0.640931	0.041421	0.057510
O2	O	0.500138	0.041436	0.066256
O3	O	0.574907	0.041419	-0.008514
O4	O	0.566162	0.041439	0.132280
O5	O	0.574893	-0.041541	-0.008502
O6	O	0.500123	-0.041523	0.066267
O7	O	0.640917	-0.041539	0.057522
Zn8	Zn	0.570518	-0.054702	0.061896
Zn9	Zn	0.570536	0.054600	0.061881
O10	O	0.566147	-0.041521	0.132291
C11	C	0.482124	-0.000041	0.066078
C12	C	0.428469	-0.000036	0.065525
N13	N	0.570509	-0.129298	0.061906
C14	C	0.089654	-0.000051	0.106229
C15	C	-0.112006	-0.000056	0.104178
O16	O	-0.143262	-0.000073	0.141398
N17	N	-0.131130	-0.000062	0.059843
C18	C	-0.099835	-0.000069	0.016017
O19	O	-0.120728	-0.000079	-0.021740
C20	C	0.101824	-0.000068	0.018068
C21	C	0.120944	-0.000057	0.062407
C22	C	0.108775	-0.000042	0.150563
C23	C	0.159187	-0.000038	0.151076
C24	C	0.190477	-0.000044	0.107253
C25	C	0.171356	-0.000054	0.062919
C26	C	0.133117	-0.000079	-0.025757
C27	C	0.183535	-0.000080	-0.025240
C28	C	0.202655	-0.000069	0.019098
C29	C	0.253059	-0.000056	0.019609
N30	N	0.272183	-0.000050	0.063944
C31	C	0.240892	-0.000044	0.107766
C32	C	-0.205709	-0.000069	0.014943
C33	C	-0.256124	-0.000068	0.014430
C34	C	-0.268291	-0.000056	0.102591
C35	C	-0.217876	-0.000053	0.103104
C36	C	-0.186585	-0.000063	0.059278
C37	C	0.346761	-0.000036	0.108839
C38	C	0.397178	-0.000030	0.109347
C39	C	0.409341	-0.000044	0.021186
C40	C	0.358929	-0.000048	0.020678
C41	C	0.327639	-0.000045	0.064508
O42	O	0.284343	-0.000045	-0.017592
O43	O	0.261794	-0.000045	0.145518
C44	C	0.039242	-0.000055	0.105716
C45	C	0.020120	-0.000065	0.061382
C46	C	0.051411	-0.000071	0.017560
C47	C	-0.030294	-0.000065	0.060869
C48	C	-0.061585	-0.000059	0.104691
C49	C	-0.042461	-0.000053	0.149026
C50	C	0.007951	-0.000049	0.149539
C51	C	0.032287	-0.000077	-0.026775
C52	C	-0.018125	-0.000080	-0.027284
C53	C	-0.049416	-0.000074	0.016538
C54	C	0.603640	-0.473932	0.028781
C55	C	0.603652	-0.682810	0.028774
O56	O	0.631801	-0.709820	0.000613
N57	N	0.570539	-0.708925	0.061870
C58	C	0.537419	-0.682818	0.094969
O59	O	0.509252	-0.709824	0.123116
C60	C	0.537406	-0.473941	0.094974
C61	C	0.570524	-0.447829	0.061878
C62	C	0.636755	-0.447819	-0.004312
C63	C	0.636754	-0.395603	-0.004308
C64	C	0.603637	-0.369500	0.028789
C65	C	0.570522	-0.395612	0.061882
C66	C	0.504284	-0.447835	0.128070
C67	C	0.504283	-0.395613	0.128067
C68	C	0.537401	-0.369500	0.094972
C69	C	0.537405	-0.317293	0.094983
N70	N	0.570517	-0.291177	0.061887
C71	C	0.603633	-0.317281	0.028790
C72	C	0.537429	-0.792481	0.094965
C73	C	0.537433	-0.844700	0.094964
C74	C	0.603665	-0.844689	0.028768
C75	C	0.603663	-0.792469	0.028772
C76	C	0.570542	-0.766366	0.061868
C77	C	0.603628	-0.207623	0.028801
C78	C	0.603625	-0.155402	0.028809
C79	C	0.537392	-0.155418	0.095003
C80	C	0.537396	-0.207635	0.094997
C81	C	0.570516	-0.233735	0.061892
O82	O	0.509266	-0.290250	0.123126
O83	O	0.631789	-0.290266	0.000640
C84	C	0.603642	-0.526149	0.028777
C85	C	0.570527	-0.552261	0.061870
C86	C	0.537410	-0.526158	0.094968
C87	C	0.570531	-0.604480	0.061870
C88	C	0.603647	-0.630584	0.028773
C89	C	0.636759	-0.604468	-0.004324
C90	C	0.636758	-0.552252	-0.004320
C91	C	0.504298	-0.552273	0.128064
C92	C	0.504303	-0.604489	0.128058
C93	C	0.537419	-0.630593	0.094961
C94	C	0.658931	-0.000060	0.057699
C95	C	0.712586	-0.000062	0.058252
C96	C	0.574716	-0.000062	-0.026515
C97	C	0.574164	-0.000066	-0.080170
N98	N	0.570549	0.129196	0.061867
C99	C	0.614867	-0.000045	-0.418985
C100	C	0.612816	-0.000038	-0.620645
O101	O	0.650037	-0.000021	-0.651900
N102	N	0.568481	-0.000034	-0.639768
C103	C	0.524656	-0.000028	-0.608474
O104	O	0.486899	-0.000019	-0.629367
C105	C	0.526707	-0.000031	-0.406815
C106	C	0.571045	-0.000041	-0.387694
C107	C	0.659202	-0.000054	-0.399864
C108	C	0.659714	-0.000059	-0.349452
C109	C	0.615892	-0.000054	-0.318161
C110	C	0.571557	-0.000045	-0.337282
C111	C	0.482882	-0.000022	-0.375521
C112	C	0.483399	-0.000021	-0.325104
C113	C	0.527737	-0.000031	-0.305983
C114	C	0.528247	-0.000045	-0.255580
N115	N	0.572583	-0.000050	-0.236456
C116	C	0.616405	-0.000054	-0.267747
C117	C	0.523582	-0.000027	-0.714348
C118	C	0.523069	-0.000027	-0.764762
C119	C	0.611230	-0.000036	-0.776930
C120	C	0.611742	-0.000040	-0.726514
C121	C	0.567917	-0.000031	-0.695224
C122	C	0.617477	-0.000064	-0.161878
C123	C	0.617986	-0.000071	-0.111461
C124	C	0.529825	-0.000059	-0.099298
C125	C	0.529316	-0.000055	-0.149710
C126	C	0.573147	-0.000056	-0.180999
O127	O	0.491047	-0.000057	-0.224296
O128	O	0.654156	-0.000053	-0.246844
C129	C	0.614355	-0.000041	-0.469397
C130	C	0.570021	-0.000032	-0.488518
C131	C	0.526198	-0.000027	-0.457228
C132	C	0.569508	-0.000032	-0.538933
C133	C	0.613330	-0.000036	-0.570223
C134	C	0.657665	-0.000041	-0.551100
C135	C	0.658177	-0.000045	-0.500688
C136	C	0.481863	-0.000023	-0.476351
C137	C	0.481355	-0.000019	-0.526764
C138	C	0.525177	-0.000023	-0.558054
C139	C	0.566338	-0.000039	0.150292
C140	C	0.566891	-0.000031	0.203947
H141	H	0.412743	-0.000021	0.145454
C142	C	0.500969	-0.236360	0.131405
C143	C	0.445933	-0.229178	0.130972
C144	C	0.409502	-0.257898	0.167377
C145	C	0.428106	-0.293800	0.204215
C146	C	0.483144	-0.300983	0.204650
C147	C	0.519576	-0.272263	0.168244
H148	H	0.432159	-0.202599	0.103700
H149	H	0.368759	-0.252580	0.167055
H150	H	0.401137	-0.315060	0.231165
H151	H	0.496918	-0.327562	0.231921
H152	H	0.560319	-0.277581	0.168566
H153	H	0.663722	-0.469068	-0.031266
C154	C	0.480543	-0.000042	-0.170743
C155	C	0.468077	0.043048	-0.203717
C156	C	0.419303	0.043069	-0.224744
C157	C	0.382994	-0.000000	-0.212795
C158	C	0.395459	-0.043094	-0.179819
C159	C	0.444234	-0.043115	-0.158793
H160	H	0.494956	0.074934	-0.212563
H161	H	0.410075	0.074970	-0.249155
H162	H	0.346888	0.000016	-0.228360
H163	H	0.368581	-0.074979	-0.170973
H164	H	0.453461	-0.075016	-0.134381
C165	C	0.180212	-0.000035	0.199850
C166	C	0.168247	-0.043113	0.236143
C167	C	0.189266	-0.043114	0.284922
C168	C	0.222251	-0.000037	0.297407
C169	C	0.234217	0.043045	0.261114
C170	C	0.213198	0.043046	0.212335
H171	H	0.143829	-0.075005	0.226901
H172	H	0.180408	-0.075006	0.311788
H173	H	0.237810	-0.000037	0.333516
H174	H	0.258635	0.074936	0.270355
H175	H	0.222056	0.074938	0.185468
H176	H	0.487892	-0.000020	-0.688875
C177	C	0.660514	-0.000046	-0.705484
C178	C	0.673002	0.043032	-0.672503
C179	C	0.721776	0.043028	-0.651476
C180	C	0.758063	-0.000055	-0.663431
C181	C	0.745577	-0.043136	-0.696414
C182	C	0.696802	-0.043132	-0.717441
H183	H	0.646139	0.074927	-0.663652
H184	H	0.731019	0.074919	-0.627060
H185	H	0.794169	-0.000058	-0.647865
H186	H	0.772440	-0.075031	-0.705265
H187	H	0.687559	-0.075024	-0.741857
H188	H	0.209009	-0.000089	-0.060929
H189	H	0.510471	-0.865958	0.121919
C190	C	0.673179	-0.366882	-0.040718
C191	C	0.672776	-0.374067	-0.095758
C192	C	0.709202	-0.345349	-0.132171
C193	C	0.746029	-0.309446	-0.113545
C194	C	0.746433	-0.302259	-0.058502
C195	C	0.710007	-0.330977	-0.022089
H196	H	0.645513	-0.400646	-0.109549
H197	H	0.708903	-0.350669	-0.172918
H198	H	0.772993	-0.288187	-0.140500
H199	H	0.773696	-0.275680	-0.044711
H200	H	0.710306	-0.325657	0.018658
H201	H	0.695819	-0.000065	-0.333889
H202	H	0.446777	-0.000011	-0.391080
H203	H	0.693347	-0.000047	-0.576585
H204	H	0.445246	-0.000015	-0.542327
C205	C	0.665690	-0.000069	-0.196290
C206	C	0.677480	0.043009	-0.232620
C207	C	0.725692	0.043000	-0.267032
C208	C	0.762115	-0.000087	-0.265115
C209	C	0.750327	-0.043168	-0.228785
C210	C	0.702114	-0.043159	-0.194372
H211	H	0.650516	0.074907	-0.234040
H212	H	0.734418	0.074892	-0.293927
H213	H	0.797805	-0.000094	-0.290590
H214	H	0.777290	-0.075067	-0.227364
H215	H	0.693388	-0.075051	-0.167478
H216	H	0.494146	-0.000057	-0.073812
C217	C	0.433654	-0.000022	-0.441937
C218	C	0.421879	0.043053	-0.405601
C219	C	0.373667	0.043051	-0.371189
C220	C	0.337229	-0.000026	-0.373112
C221	C	0.349003	-0.043104	-0.409449
C222	C	0.397216	-0.043102	-0.443861
H223	H	0.448854	0.074945	-0.404176
H224	H	0.364951	0.074941	-0.344290
H225	H	0.301539	-0.000028	-0.347639
H226	H	0.322029	-0.074995	-0.410874
H227	H	0.405932	-0.074991	-0.470760
H228	H	0.057760	-0.000083	-0.062462
H229	H	-0.067947	-0.000046	0.184708
C230	C	0.500963	-0.126699	0.131408
C231	C	0.500961	-0.069260	0.131406
C232	C	0.464528	-0.040540	0.167808
C233	C	0.428099	-0.069259	0.204212
C234	C	0.428100	-0.126701	0.204215
C235	C	0.464532	-0.155421	0.167813
H236	H	0.527929	-0.047998	0.104456
H237	H	0.464528	0.001982	0.167805
H238	H	0.401129	-0.047999	0.231159
H239	H	0.401131	-0.147964	0.231165
H240	H	0.464533	-0.197944	0.167815
H241	H	0.434827	-0.000047	-0.014492
H242	H	0.023514	-0.000042	0.185643
H243	H	0.477317	-0.469089	0.155019
H244	H	0.321291	-0.000035	0.144530
H245	H	-0.033688	-0.000085	-0.063392
H246	H	0.663725	-0.530995	-0.031269
C247	C	0.706951	-0.000051	-0.479660
C248	C	0.743239	-0.043131	-0.491620
C249	C	0.792016	-0.043135	-0.470597
C250	C	0.804504	-0.000059	-0.437614
C251	C	0.768214	0.043025	-0.425652
C252	C	0.719438	0.043029	-0.446675
H253	H	0.733996	-0.075022	-0.516037
H254	H	0.818880	-0.075029	-0.479452
H255	H	0.840611	-0.000061	-0.422051
H256	H	0.777457	0.074916	-0.401235
H257	H	0.692574	0.074922	-0.437820
H258	H	0.083302	-0.000038	0.186251
H259	H	0.510457	-0.771232	0.121917
H260	H	0.477310	-0.374362	0.155018
H261	H	0.630597	-0.228868	0.001843
C262	C	-0.196845	-0.000046	0.151875
C263	C	-0.208805	-0.043119	0.188175
C264	C	-0.187778	-0.043114	0.236949
C265	C	-0.154790	-0.000035	0.249424
C266	C	-0.142828	0.043042	0.213123
C267	C	-0.163856	0.043036	0.164349
H268	H	-0.233226	-0.075012	0.178941
H269	H	-0.196633	-0.075002	0.263821
H270	H	-0.139224	-0.000030	0.285529
H271	H	-0.118407	0.074934	0.222357
H272	H	-0.155000	0.074924	0.137477
C273	C	0.640055	-0.126678	-0.007599
C274	C	0.639657	-0.133856	-0.062641
C275	C	0.676085	-0.105134	-0.099048
C276	C	0.712911	-0.069235	-0.080415
C277	C	0.713311	-0.062055	-0.025370
C278	C	0.676883	-0.090777	0.011037
H279	H	0.612395	-0.160432	-0.076437
H280	H	0.675789	-0.110449	-0.139796
H281	H	0.739877	-0.047973	-0.107366
H282	H	0.740573	-0.035479	-0.011574
H283	H	0.677179	-0.085462	0.051785
C284	C	-0.171294	-0.000076	-0.033270
C285	C	-0.134967	-0.043156	-0.045045
C286	C	-0.100555	-0.043160	-0.093258
C287	C	-0.102471	-0.000084	-0.129696
C288	C	-0.138800	0.042999	-0.117921
C289	C	-0.173212	0.043004	-0.069708
H290	H	-0.133548	-0.075046	-0.018071
H291	H	-0.073663	-0.075053	-0.101974
H292	H	-0.076998	-0.000087	-0.165386
H293	H	-0.140219	0.074890	-0.144895
H294	H	-0.200105	0.074897	-0.060992
C295	C	0.112096	-0.000093	-0.074531
C296	C	0.124054	-0.043181	-0.110813
C297	C	0.103035	-0.043195	-0.159592
C298	C	0.070057	-0.000120	-0.172088
C299	C	0.058097	0.042971	-0.135805
C300	C	0.079116	0.042985	-0.087027
H301	H	0.148468	-0.075069	-0.101563
H302	H	0.111889	-0.075094	-0.186451
H303	H	0.054497	-0.000131	-0.208197
H304	H	0.033683	0.074860	-0.145055
H305	H	0.070262	0.074884	-0.060168
C306	C	0.337890	-0.000058	-0.028092
C307	C	0.349845	-0.043144	-0.064378
C308	C	0.328810	-0.043161	-0.113148
C309	C	0.295821	-0.000091	-0.125633
C310	C	0.283865	0.042998	-0.089346
C311	C	0.304899	0.043015	-0.040576
H312	H	0.374267	-0.075029	-0.055136
H313	H	0.337661	-0.075058	-0.140009
H314	H	0.280250	-0.000104	-0.161735
H315	H	0.259442	0.074883	-0.098588
H316	H	0.296049	0.074912	-0.013715
C317	C	0.673187	-0.633189	-0.040732
C318	C	0.654573	-0.669088	-0.077569
C319	C	0.690996	-0.697811	-0.113977
C320	C	0.746034	-0.690634	-0.113549
C321	C	0.764651	-0.654733	-0.076710
C322	C	0.728228	-0.626010	-0.040302
H323	H	0.613828	-0.674402	-0.077887
H324	H	0.677214	-0.724388	-0.141247
H325	H	0.772997	-0.711897	-0.140500
H326	H	0.805396	-0.649419	-0.076392
H327	H	0.742009	-0.599434	-0.013032
H328	H	-0.293777	-0.000051	0.138273
H329	H	0.630630	-0.771211	0.001822
C330	C	0.640091	-0.873409	-0.007641
C331	C	0.640088	-0.930848	-0.007639
C332	C	0.676509	-0.959571	-0.044050
C333	C	0.712933	-0.930856	-0.080462
C334	C	0.712937	-0.873414	-0.080466
C335	C	0.676517	-0.844691	-0.044055
H336	H	0.613123	-0.952108	0.019317
H337	H	0.676505	-1.002094	-0.044047
H338	H	0.739894	-0.952119	-0.107415
H339	H	0.739902	-0.852154	-0.107422
H340	H	0.676520	-0.802168	-0.044058
C341	C	0.467870	-0.633211	0.164466
C342	C	0.412835	-0.626029	0.164027
C343	C	0.376400	-0.654748	0.200430
C344	C	0.395000	-0.690649	0.237272
C345	C	0.450038	-0.697832	0.237712
C346	C	0.486473	-0.669113	0.201309
H347	H	0.399063	-0.599452	0.136753
H348	H	0.335658	-0.649431	0.200104
H349	H	0.368029	-0.711909	0.264219
H350	H	0.463809	-0.724410	0.264985
H351	H	0.527215	-0.674431	0.201635
H352	H	-0.271687	-0.000069	-0.021674
H353	H	0.477330	-0.531024	0.155015
H354	H	0.694889	-0.000056	-0.425336
H355	H	0.654093	-0.000080	-0.095896
H356	H	0.646911	-0.000040	-0.802415
H357	H	0.486964	-0.000028	-0.780325
H358	H	0.447710	-0.000014	-0.299629
