data_functionalizedCrystal
_audit_creation_method	'MofGen! by Chris Wilmer'
_symmetry_space_group_name_H-M	'P1'
_symmetry_Int_Tables_number	1
_symmetry_cell_setting	triclinic
loop_
_symmetry_equiv_pos_as_xyz
  x,y,z
_cell_length_a	13.635800
_cell_length_b	11.168138
_cell_length_c	11.168152
_cell_angle_alpha	92.019999
_cell_angle_beta	108.508980
_cell_angle_gamma	108.508793
loop_
_atom_site_label
_atom_site_type_symbol
_atom_site_fract_x
_atom_site_fract_y
_atom_site_fract_z
V1	V	-2.054944	-0.174724	-0.393710
O2	O	-2.034735	0.008377	-0.386204
O3	O	-2.043088	-0.346429	-0.391028
O4	O	-2.043090	-0.172045	-0.565416
O5	O	-2.034733	-0.167215	-0.210609
V6	V	-2.293558	-0.152822	-0.371808
O7	O	-2.192476	-0.222767	-0.441753
O8	O	-2.381125	-0.104778	-0.323765
O9	O	-2.193810	0.018883	-0.374491
O10	O	-2.372465	-0.335922	-0.379314
O11	O	-2.372467	-0.160331	-0.554909
O12	O	-2.193809	-0.155501	-0.200103
V13	V	-1.554944	-0.174724	-0.393710
O14	O	-1.534735	0.008377	-0.386204
O15	O	-1.543088	-0.346429	-0.391028
O16	O	-1.543090	-0.172045	-0.565416
O17	O	-1.534733	-0.167215	-0.210609
V18	V	-1.793558	-0.152822	-0.371808
O19	O	-1.692476	-0.222767	-0.441753
O20	O	-1.881125	-0.104778	-0.323765
O21	O	-1.693810	0.018883	-0.374491
O22	O	-1.872465	-0.335922	-0.379314
O23	O	-1.872467	-0.160331	-0.554909
O24	O	-1.693809	-0.155501	-0.200103
C25	C	-1.968192	-0.388287	-0.384819
C26	C	-1.999225	-0.528658	-0.383771
C27	C	-2.132549	-0.742424	-0.388208
C28	C	-2.100478	-0.597344	-0.389292
C29	C	-1.968193	-0.165841	-0.607267
C30	C	-1.999225	-0.164786	-0.747637
C31	C	-2.132548	-0.169216	-0.961402
C32	C	-2.100477	-0.170306	-0.816322
C33	C	-2.100378	0.060735	-0.380695
C34	C	-2.058965	0.201105	-0.381752
C35	C	-1.468192	-0.388287	-0.384819
C36	C	-1.499225	-0.528658	-0.383771
C37	C	-1.573538	-0.753455	-0.492110
C38	C	-1.541465	-0.608374	-0.493196
C39	C	-2.100376	-0.161709	-0.158245
C40	C	-2.058963	-0.162757	-0.017873
C41	C	-1.468193	-0.165841	-0.607267
C42	C	-1.499225	-0.164786	-0.747637
C43	C	-1.600378	0.060735	-0.380695
C44	C	-1.558965	0.201105	-0.381752
C45	C	-1.600376	-0.161709	-0.158245
C46	C	-1.558963	-0.162757	-0.017873
C47	C	-1.600479	-0.170305	-0.816330
C48	C	-1.632554	-0.169216	-0.961410
H49	H	-2.219290	-0.801484	-0.392929
H50	H	-1.972222	-0.739834	-0.377021
H51	H	-1.609765	-0.821959	-0.585790
H52	H	-1.936276	-0.577238	-0.378248
H53	H	-1.522751	-0.730391	-0.288070
H54	H	-1.663419	-0.175829	-0.767731
C55	C	-1.558249	-0.555497	-0.620847
N56	N	-1.570892	-0.515668	-0.716998
C57	C	-1.482446	-0.581526	-0.256116
N58	N	-1.469816	-0.621356	-0.159966
H59	H	-1.719297	-0.173947	-1.020461
C60	C	-1.441780	-0.156377	-0.938111
N61	N	-1.353511	-0.151569	-0.878024
H62	H	-1.436281	-0.159246	-0.796233
C63	C	-1.914165	-0.157264	-0.813256
N64	N	-1.850095	-0.151582	-0.862687
H65	H	-1.972224	-0.158041	-0.958814
C66	C	-2.185519	-0.531708	-0.396762
N67	N	-2.249573	-0.482269	-0.402386
H68	H	-2.163422	-0.175835	-0.767735
C69	C	-2.249734	-0.175594	-1.041184
N70	N	-2.338000	-0.180395	-1.101273
