data_functionalizedCrystal
_audit_creation_method	'MofGen! by Chris Wilmer'
_symmetry_space_group_name_H-M	'P1'
_symmetry_Int_Tables_number	1
_symmetry_cell_setting	triclinic
loop_
_symmetry_equiv_pos_as_xyz
  x,y,z
_cell_length_a	18.101389
_cell_length_b	19.077105
_cell_length_c	19.077068
_cell_angle_alpha	90.115316
_cell_angle_beta	87.722285
_cell_angle_gamma	92.315730
loop_
_atom_site_label
_atom_site_type_symbol
_atom_site_fract_x
_atom_site_fract_y
_atom_site_fract_z
Zn1	Zn	-0.477251	-1.062984	0.323060
Zn2	Zn	-0.143917	-0.729651	0.656393
Zn3	Zn	0.189416	-0.396318	0.989726
Zn4	Zn	-0.358165	-1.058173	0.440549
Zn5	Zn	-0.024832	-0.724839	0.773882
Zn6	Zn	0.308502	-0.391506	1.107215
Zn7	Zn	-0.348262	-0.945478	0.318333
Zn8	Zn	-0.014929	-0.612145	0.651666
Zn9	Zn	0.318404	-0.278811	0.984999
Zn10	Zn	-0.476806	-0.940719	0.435801
Zn11	Zn	-0.143472	-0.607386	0.769135
Zn12	Zn	0.189861	-0.274053	1.102468
O13	O	-0.415121	-1.001839	0.379436
O14	O	-0.081788	-0.668505	0.712769
O15	O	0.251546	-0.335172	1.046102
O16	O	-0.465784	-1.160677	0.342610
O17	O	-0.132451	-0.827344	0.675943
O18	O	0.200883	-0.494011	1.009277
O19	O	-0.253218	-1.043201	0.424345
O20	O	0.080115	-0.709868	0.757679
O21	O	0.413449	-0.376535	1.091012
O22	O	-0.361415	-0.965071	0.220629
O23	O	-0.028082	-0.631737	0.553963
O24	O	0.305252	-0.298404	0.887296
O25	O	-0.378292	-1.157142	0.428929
O26	O	-0.044959	-0.823809	0.762262
O27	O	0.288374	-0.490476	1.095595
O28	O	-0.456182	-1.051402	0.224102
O29	O	-0.122849	-0.718069	0.557435
O30	O	0.210485	-0.384735	0.890769
O31	O	-0.245943	-0.960405	0.334554
O32	O	0.087391	-0.627072	0.667887
O33	O	0.420724	-0.293738	1.001220
O34	O	-0.360983	-0.846515	0.329950
O35	O	-0.027650	-0.513182	0.663283
O36	O	0.305683	-0.179849	0.996617
O37	O	-0.580498	-0.956960	0.420837
O38	O	-0.247165	-0.623627	0.754170
O39	O	0.086168	-0.290293	1.087504
O40	O	-0.455424	-0.843019	0.416254
O41	O	-0.122090	-0.509686	0.749587
O42	O	0.211243	-0.176353	1.082920
O43	O	-0.580825	-1.046788	0.338006
O44	O	-0.247492	-0.713454	0.671340
O45	O	0.085842	-0.380121	1.004673
O46	O	-0.377861	-1.038587	0.538250
O47	O	-0.044528	-0.705253	0.871583
O48	O	0.288806	-0.371920	1.204916
O49	O	-0.465026	-0.952294	0.534762
O50	O	-0.131693	-0.618961	0.868095
O51	O	0.201641	-0.285628	1.201428
C52	C	-0.407081	-0.819271	0.372074
C53	C	-0.073748	-0.485938	0.705408
C54	C	0.259585	-0.152604	1.038741
C55	C	-0.403660	-0.741167	0.368942
C56	C	-0.070327	-0.407834	0.702275
C57	C	0.263007	-0.074501	1.035609
C58	C	-0.422487	-0.994421	0.562002
C59	C	-0.089153	-0.661088	0.895336
C60	C	0.244180	-0.327754	1.228669
C61	C	-0.425665	-0.991312	0.640108
C62	C	-0.092332	-0.657979	0.973441
C63	C	0.241001	-0.324646	1.306774
C64	C	-0.608284	-1.001880	0.379419
C65	C	-0.274951	-0.668547	0.712753
C66	C	0.058383	-0.335213	1.046086
C67	C	-0.690599	-1.001897	0.379413
C68	C	-0.357265	-0.668564	0.712746
C69	C	-0.023932	-0.335231	1.046079
C70	C	-0.989686	-1.001944	0.379283
C71	C	-0.656353	-0.668610	0.712616
C72	C	-0.323020	-0.335277	1.045949
C73	C	-0.958140	-0.945246	0.431217
C74	C	-0.624807	-0.611913	0.764550
C75	C	-0.291473	-0.278580	1.097884
C76	C	-0.872538	-0.945384	0.431474
C77	C	-0.539205	-0.612050	0.764807
C78	C	-0.205872	-0.278717	1.098141
C79	C	-0.841305	-1.001920	0.379347
C80	C	-0.507972	-0.668587	0.712680
C81	C	-0.174639	-0.335253	1.046014
C82	C	-0.876470	-1.075148	0.402427
C83	C	-0.543136	-0.741815	0.735761
C84	C	-0.209803	-0.408481	1.069094
C85	C	-0.962116	-1.074830	0.402771
C86	C	-0.628782	-0.741497	0.736104
C87	C	-0.295449	-0.408163	1.069437
C88	C	-0.954271	-0.986062	0.304173
C89	C	-0.620938	-0.652728	0.637506
C90	C	-0.287605	-0.319395	0.970840
C91	C	-0.868566	-0.984397	0.304536
C92	C	-0.535232	-0.651064	0.637870
C93	C	-0.201899	-0.317730	0.971203
C94	C	-0.757447	-1.001911	0.379382
C95	C	-0.424114	-0.668578	0.712716
C96	C	-0.090780	-0.335245	1.046049
C97	C	-1.073545	-1.001957	0.379249
C98	C	-0.740212	-0.668624	0.712582
C99	C	-0.406878	-0.335291	1.045916
C100	C	-0.222709	-1.001840	0.379403
C101	C	0.110624	-0.668507	0.712736
C102	C	0.443958	-0.335173	1.046069
C103	C	-0.140393	-1.001966	0.379217
C104	C	0.192940	-0.668633	0.712550
C105	C	0.526274	-0.335300	1.045884
C106	C	-0.423193	-1.185119	0.386826
C107	C	-0.089859	-0.851786	0.720160
C108	C	0.243474	-0.518452	1.053493
C109	C	-0.426632	-1.263222	0.389976
C110	C	-0.093299	-0.929889	0.723309
C111	C	0.240034	-0.596555	1.056642
C112	C	-0.451151	-0.702669	0.412472
C113	C	-0.117818	-0.369336	0.745805
C114	C	0.215516	-0.036003	1.079138
C115	C	-0.447940	-0.629283	0.409519
C116	C	-0.114606	-0.295949	0.742853
C117	C	0.218727	0.037384	1.076186
C118	C	-0.397233	-0.594395	0.363040
C119	C	-0.063900	-0.261062	0.696374
C120	C	0.269434	0.072271	1.029707
C121	C	-0.349740	-0.632899	0.319506
C122	C	-0.016407	-0.299565	0.652839
C123	C	0.316927	0.033768	0.986172
C124	C	-0.352956	-0.706284	0.322455
C125	C	-0.019622	-0.372951	0.655788
C126	C	0.313711	-0.039617	0.989122
C127	C	-0.382355	-0.375111	0.349390
C128	C	-0.049021	-0.041777	0.682724
C129	C	0.284312	0.291556	1.016057
C130	C	-0.379141	-0.301720	0.346446
C131	C	-0.045808	0.031613	0.679779
C132	C	0.287525	0.364947	1.013112
C133	C	-0.477342	-0.298109	0.436459
C134	C	-0.144009	0.035224	0.769792
C135	C	0.189325	0.368558	1.103126
C136	C	-0.480550	-0.371496	0.439407
C137	C	-0.147217	-0.038163	0.772741
C138	C	0.186117	0.295171	1.106074
C139	C	-0.433060	-0.409993	0.395870
C140	C	-0.099726	-0.076660	0.729203
C141	C	0.233607	0.256674	1.062537
N142	N	-0.393948	-0.519383	0.360023
N143	N	-0.060614	-0.186049	0.693356
N144	N	0.272719	0.147284	1.026690
N145	N	-0.436349	-0.485004	0.398884
N146	N	-0.103016	-0.151671	0.732218
N147	N	0.230317	0.181662	1.065551
C148	C	-0.407743	-1.009304	0.196157
C149	C	-0.074410	-0.675971	0.529490
C150	C	0.258923	-0.342637	0.862823
C151	C	-0.404600	-1.012485	0.118054
C152	C	-0.071266	-0.679152	0.451388
C153	C	0.262067	-0.345819	0.784721
C154	C	-0.381818	-1.034814	0.678596
C155	C	-0.048484	-0.701481	1.011929
C156	C	0.284849	-0.368148	1.345263
C157	C	-0.384812	-1.031895	0.751984
C158	C	-0.051479	-0.698561	1.085318
C159	C	0.281855	-0.365228	1.418651
C160	C	-0.431651	-0.985468	0.786883
C161	C	-0.098317	-0.652135	1.120216
C162	C	0.235016	-0.318802	1.453550
C163	C	-0.475503	-0.941964	0.748390
C164	C	-0.142170	-0.608631	1.081723
C165	C	0.191163	-0.275298	1.415056
C166	C	-0.472512	-0.944888	0.675003
C167	C	-0.139179	-0.611555	1.008336
C168	C	0.194154	-0.278222	1.341669
C169	C	-0.445461	-0.971905	1.006174
C170	C	-0.112128	-0.638572	1.339507
C171	C	0.221205	-0.305239	1.672841
C172	C	-0.448447	-0.968983	1.079566
C173	C	-0.115114	-0.635650	1.412899
C174	C	0.218219	-0.302317	1.746233
C175	C	-0.357757	-1.058915	1.083156
C176	C	-0.024423	-0.725581	1.416489
C177	C	0.308910	-0.392248	1.749822
C178	C	-0.354767	-1.061831	1.009767
C179	C	-0.021433	-0.728498	1.343100
C180	C	0.311900	-0.395165	1.676434
C181	C	-0.398622	-1.018330	0.971280
C182	C	-0.065289	-0.684997	1.304614
C183	C	0.268045	-0.351663	1.637947
N184	N	-0.434711	-0.982481	0.861898
N185	N	-0.101377	-0.649148	1.195231
N186	N	0.231956	-0.315814	1.528564
N187	N	-0.395565	-1.021321	0.896267
N188	N	-0.062232	-0.687988	1.229600
N189	N	0.271101	-0.354655	1.562934
H190	H	-0.848590	-0.890989	0.416686
H191	H	-0.515257	-0.557656	0.750019
H192	H	-0.181924	-0.224322	1.083353
F193	F	-0.992032	-1.092882	0.474652
F194	F	-0.658699	-0.759549	0.807985
F195	F	-0.325365	-0.426215	1.141319
F196	F	-0.311089	-1.105211	1.124121
F197	F	0.022244	-0.771878	1.457455
F198	F	0.355578	-0.438545	1.790788
H199	H	-0.847074	-1.022917	0.263548
H200	H	-0.513741	-0.689584	0.596881
H201	H	-0.180407	-0.356250	0.930215
F202	F	-0.519184	-0.898589	0.634041
F203	F	-0.185850	-0.565256	0.967374
F204	F	0.147483	-0.231923	1.300708
H205	H	-0.486602	-0.931186	1.107979
H206	H	-0.153269	-0.597853	1.441312
H207	H	0.180064	-0.264519	1.774645
H208	H	-0.316627	-1.099635	0.981354
H209	H	0.016707	-0.766302	1.314688
H210	H	0.350040	-0.432968	1.648021
H211	H	-0.983169	-1.118346	0.366747
H212	H	-0.649835	-0.785012	0.700080
H213	H	-0.316502	-0.451679	1.033414
H214	H	-0.972791	-0.933749	0.283725
H215	H	-0.639457	-0.600416	0.617058
H216	H	-0.306124	-0.267082	0.950391
H217	H	-0.975808	-0.890681	0.416551
H218	H	-0.642475	-0.557348	0.749885
H219	H	-0.309142	-0.224015	1.083218
H220	H	-0.982425	-0.955380	0.486488
H221	H	-0.649092	-0.622047	0.819821
H222	H	-0.315759	-0.288713	1.153154
F223	F	-0.980911	-1.040085	0.253549
F224	F	-0.647578	-0.706752	0.586882
F225	F	-0.314245	-0.373418	0.920216
H226	H	-0.337854	-0.273317	0.308589
H227	H	-0.004521	0.060016	0.641922
H228	H	0.328813	0.393349	0.975255
F229	F	-0.838075	-0.913975	0.281859
F230	F	-0.504742	-0.580642	0.615192
F231	F	-0.171409	-0.247309	0.948525
H232	H	-0.492439	-0.731069	0.450322
H233	H	-0.159106	-0.397736	0.783656
H234	H	0.174227	-0.064402	1.116989
H235	H	-0.854835	-0.955627	0.487086
H236	H	-0.521501	-0.622294	0.820420
H237	H	-0.188168	-0.288961	1.153753
H238	H	-0.521839	-0.399896	0.477257
H239	H	-0.188506	-0.066563	0.810590
H240	H	0.144828	0.266771	1.143924
F241	F	-0.498487	-0.588313	0.455850
F242	F	-0.165153	-0.254980	0.789183
F243	F	0.168180	0.078353	1.122516
H244	H	-0.856405	-1.118397	0.365920
H245	H	-0.523071	-0.785063	0.699253
H246	H	-0.189738	-0.451730	1.032587
H247	H	-0.516007	-0.266757	0.471903
H248	H	-0.182674	0.066576	0.805237
H249	H	0.150660	0.399910	1.138570
F250	F	-0.331960	-1.084224	0.641461
F251	F	0.001373	-0.750890	0.974794
F252	F	0.334706	-0.417557	1.308127
H253	H	-0.857919	-1.089260	0.456855
H254	H	-0.524586	-0.755926	0.790189
H255	H	-0.191252	-0.422593	1.123522
F256	F	-0.331813	-0.416073	0.303052
F257	F	0.001521	-0.082739	0.636385
F258	F	0.334854	0.250594	0.969719
H259	H	-0.308457	-0.604488	0.281658
H260	H	0.024876	-0.271154	0.614992
H261	H	0.358210	0.062179	0.948325
H262	H	-0.314287	-0.737628	0.287005
H263	H	0.019046	-0.404295	0.620338
H264	H	0.352380	-0.070962	0.953671
F265	F	-0.338145	-1.078198	0.792943
F266	F	-0.004812	-0.744864	1.126277
F267	F	0.328522	-0.411531	1.459610
F268	F	-0.492136	-0.925606	0.965223
F269	F	-0.158803	-0.592273	1.298556
F270	F	0.174531	-0.258940	1.631889
H271	H	-0.513644	-0.904166	0.776810
H272	H	-0.180310	-0.570833	1.110143
H273	H	0.153023	-0.237500	1.443477
