data_functionalizedCrystal
_audit_creation_method	'MofGen! by Chris Wilmer'
_symmetry_space_group_name_H-M	'P1'
_symmetry_Int_Tables_number	1
_symmetry_cell_setting	triclinic
loop_
_symmetry_equiv_pos_as_xyz
  x,y,z
_cell_length_a	8.597340
_cell_length_b	8.559649
_cell_length_c	7.681208
_cell_angle_alpha	85.076566
_cell_angle_beta	91.824657
_cell_angle_gamma	102.374957
loop_
_atom_site_label
_atom_site_type_symbol
_atom_site_fract_x
_atom_site_fract_y
_atom_site_fract_z
O1	O	2.035270	-0.254519	0.162374
O2	O	1.583920	-0.265829	0.093890
O3	O	1.849359	-0.028817	0.134167
O4	O	1.769831	-0.491532	0.122097
O5	O	1.816642	-0.058034	0.422073
O6	O	1.551204	-0.295047	0.381796
O7	O	2.002553	-0.283737	0.450280
Zn8	Zn	1.771684	-0.294031	0.461749
Zn9	Zn	1.814789	-0.255535	0.082421
O10	O	1.737114	-0.520749	0.410003
C11	C	1.510314	-0.277596	0.229157
C12	C	1.339737	-0.269106	0.203275
C13	C	1.839028	0.015916	0.279031
C14	C	1.856969	0.192736	0.281744
C15	C	2.076159	-0.271970	0.315009
C16	C	2.246738	-0.280459	0.340880
N17	N	1.742277	-0.320302	0.720633
C18	C	1.747446	-0.565482	0.265135
C19	C	1.729506	-0.742300	0.262411
N20	N	1.844196	-0.229264	0.823537
H21	H	1.297618	-0.296663	0.478496
C22	C	2.128168	-0.138356	0.809279
C23	C	1.984544	-0.103810	0.743186
H24	H	2.214791	-0.060897	0.759651
H25	H	2.135681	-0.242128	0.780299
H26	H	2.131443	-0.135445	0.932712
H27	H	1.981263	-0.106733	0.619753
H28	H	1.977029	-0.000011	0.772154
C29	C	1.146435	-0.377903	-0.011054
C30	C	1.271061	-0.247225	0.017478
H31	H	1.104046	-0.364397	-0.125759
H32	H	1.065248	-0.383872	0.071791
H33	H	1.185501	-0.474065	0.001429
H34	H	1.231993	-0.151064	0.005008
H35	H	1.352263	-0.241240	-0.065391
C36	C	1.464540	0.166356	0.372757
C37	C	1.563656	0.150180	0.237239
H38	H	1.362154	0.099962	0.357217
H39	H	1.455245	0.275048	0.371341
H40	H	1.508992	0.135000	0.481618
H41	H	1.519210	0.181548	0.128377
H42	H	1.572946	0.041465	0.238638
C43	C	2.009102	0.460489	0.304836
C44	C	2.022829	0.300262	0.306909
H45	H	2.111498	0.526869	0.320360
H46	H	1.941863	0.471444	0.396764
H47	H	1.964659	0.491825	0.195961
H48	H	2.067262	0.268923	0.415790
H49	H	2.090093	0.289300	0.214975
H50	H	1.638276	-0.413209	0.780089
