data_functionalizedCrystal
_audit_creation_method	'MofGen! by Chris Wilmer'
_symmetry_space_group_name_H-M	'P1'
_symmetry_Int_Tables_number	1
_symmetry_cell_setting	triclinic
loop_
_symmetry_equiv_pos_as_xyz
  x,y,z
_cell_length_a	10.654550
_cell_length_b	10.540510
_cell_length_c	9.730223
_cell_angle_alpha	90.001116
_cell_angle_beta	89.996251
_cell_angle_gamma	84.499107
loop_
_atom_site_label
_atom_site_type_symbol
_atom_site_fract_x
_atom_site_fract_y
_atom_site_fract_z
O1	O	1.667878	0.178297	-0.114395
O2	O	1.302404	0.195285	-0.114372
O3	O	1.493498	0.002079	-0.114383
O4	O	1.476783	0.371503	-0.114383
O5	O	1.493496	0.002084	0.114197
O6	O	1.302401	0.195290	0.114208
O7	O	1.667876	0.178302	0.114185
Zn8	Zn	1.485138	0.186797	0.150489
Zn9	Zn	1.485141	0.186790	-0.150675
O10	O	1.476781	0.371508	0.114197
C11	C	1.255604	0.194040	-0.000079
C12	C	1.116160	0.190308	-0.000071
C13	C	1.036702	0.304065	-0.000091
C14	C	0.905681	0.300551	-0.000115
C15	C	0.933587	0.069514	-0.000104
C16	C	1.064606	0.073029	-0.000070
C17	C	1.020590	0.437452	-0.000103
C18	C	0.889568	0.433938	-0.000127
C19	C	1.492252	-0.045222	-0.000096
C20	C	1.488525	-0.186170	-0.000104
C21	C	1.621278	-0.403673	0.000411
C22	C	1.625253	-0.257079	-0.000111
C23	C	1.418535	-0.230906	-0.130627
C24	C	1.415528	-0.377666	-0.130729
C25	C	1.412678	-0.377468	0.129209
C26	C	1.419163	-0.231129	0.130927
C27	C	1.714675	0.179547	-0.000111
C28	C	1.854119	0.183279	-0.000128
C29	C	1.478028	0.418809	-0.000094
C30	C	1.481754	0.559757	-0.000095
N31	N	1.485145	0.186800	0.356025
N32	N	1.485144	0.186777	-0.356212
C33	C	1.569784	0.101278	0.427946
C34	C	1.569781	0.101263	0.571829
C35	C	1.400496	0.272303	0.571857
C36	C	1.400494	0.272311	0.427977
C37	C	1.667523	0.002533	0.427931
C38	C	1.667520	0.002518	0.571814
H39	H	0.891596	-0.025971	-0.000125
H40	H	1.049933	0.489622	0.095563
H41	H	0.847849	0.484194	-0.095794
F42	F	1.627599	-0.117997	0.630140
F43	F	1.696806	-0.218740	0.122198
F44	F	1.469091	-0.433036	0.258521
H45	H	1.129297	-0.019603	-0.000034
F46	F	1.310398	0.363319	0.351434
H47	H	1.317878	-0.183481	-0.135475
H48	H	1.764037	0.024268	0.610858
H49	H	1.470091	-0.202534	0.227487
F50	F	1.067216	0.492963	-0.129093
F51	F	0.829877	0.486632	0.128856
F52	F	1.690906	-0.458532	0.122761
H53	H	1.674239	-0.447200	-0.092671
F54	F	1.697246	-0.219973	-0.122629
F55	F	1.478056	-0.430261	-0.258261
H56	H	1.313263	-0.400625	-0.136637
F57	F	1.288686	-0.166952	0.141239
H58	H	1.467143	-0.200069	-0.227769
H59	H	1.310022	-0.399581	0.130095
H60	H	1.331574	0.341923	0.630456
H61	H	1.646056	-0.095042	0.388878
F62	F	1.786709	0.042959	0.369586
