data_functionalizedCrystal
_audit_creation_method	'MofGen! by Chris Wilmer'
_symmetry_space_group_name_H-M	'P1'
_symmetry_Int_Tables_number	1
_symmetry_cell_setting	triclinic
loop_
_symmetry_equiv_pos_as_xyz
  x,y,z
_cell_length_a	14.519709
_cell_length_b	17.038272
_cell_length_c	13.596369
_cell_angle_alpha	89.993837
_cell_angle_beta	90.000291
_cell_angle_gamma	87.395851
loop_
_atom_site_label
_atom_site_type_symbol
_atom_site_fract_x
_atom_site_fract_y
_atom_site_fract_z
O1	O	1.231711	0.102502	-0.081664
O2	O	0.964158	0.114573	-0.081694
O3	O	1.096344	-0.005280	-0.081671
O4	O	1.099525	0.222356	-0.081686
O5	O	1.096330	-0.005286	0.081912
O6	O	0.964143	0.114567	0.081889
O7	O	1.231696	0.102496	0.081919
Zn8	Zn	1.097918	0.108530	0.107877
Zn9	Zn	1.097937	0.108539	-0.107651
O10	O	1.099510	0.222349	0.081897
C11	C	0.929748	0.114008	0.000094
C12	C	0.827237	0.112322	0.000083
C13	C	0.451867	0.106116	0.000128
C14	C	0.556307	0.107839	0.000115
C15	C	0.639549	0.109219	0.000104
C16	C	0.743995	0.110942	0.000093
C17	C	1.093444	-0.034416	0.000120
C18	C	1.084814	-0.121223	0.000119
C19	C	1.164047	-0.171209	0.000129
C20	C	1.155933	-0.252773	0.000118
C21	C	1.068585	-0.284349	0.000105
C22	C	0.989347	-0.234357	0.000092
C23	C	0.997462	-0.152795	0.000096
C24	C	1.039916	-0.530153	0.000089
C25	C	1.031807	-0.611722	0.000088
C26	C	1.198394	-0.630132	0.000112
C27	C	1.206502	-0.548568	0.000122
C28	C	1.127263	-0.498583	0.000104
C29	C	1.060289	-0.367720	0.000098
C30	C	1.135560	-0.415213	0.000104
C31	C	1.266107	0.103062	0.000129
C32	C	1.368617	0.104748	0.000134
C33	C	1.102410	0.251486	0.000103
C34	C	1.111040	0.338292	0.000098
N35	N	1.097911	0.108524	0.254968
N36	N	1.097950	0.108539	-0.254743
C37	C	1.097936	0.108540	0.656259
C38	C	1.097926	0.108538	0.544608
C39	C	1.097924	0.108533	0.455617
C40	C	1.097913	0.108530	0.343959
H41	H	1.235175	-0.145506	0.000145
H42	H	0.989170	-0.393438	0.000089
O43	O	1.232994	-0.301217	0.000179
C44	C	1.399081	-0.310870	0.000159
C45	C	1.311882	-0.255918	0.000114
H46	H	1.462884	-0.274268	0.000086
H47	H	1.399500	-0.349508	0.068633
H48	H	1.399409	-0.349524	-0.068286
H49	H	1.311497	-0.217214	0.068512
H50	H	1.311498	-0.217333	-0.068405
H51	H	1.277629	-0.522865	0.000132
H52	H	1.262906	-0.670838	0.000125
O53	O	0.946882	-0.642266	0.000021
C54	C	0.782506	-0.615403	0.000033
C55	C	0.878619	-0.580707	0.000087
H56	H	0.727289	-0.565650	0.000107
H57	H	0.774501	-0.653095	-0.068444
H58	H	0.774578	-0.653161	0.068474
H59	H	0.886612	-0.542914	-0.068308
H60	H	0.886580	-0.543060	0.068610
H61	H	0.975394	-0.489465	0.000074
O62	O	0.904567	-0.265157	0.000123
C63	C	0.818234	-0.382646	0.000056
C64	C	0.914305	-0.347872	0.000040
H65	H	0.826075	-0.449525	-0.000032
H66	H	0.778731	-0.362130	0.068526
H67	H	0.778768	-0.362017	-0.068393
H68	H	0.953848	-0.368485	0.068442
H69	H	0.953738	-0.368383	-0.068476
O70	O	0.920401	-0.104347	0.000130
C71	C	0.754314	-0.094690	0.000039
C72	C	0.841511	-0.149644	0.000031
H73	H	0.690509	-0.131290	-0.000062
H74	H	0.753872	-0.056062	0.068512
H75	H	0.754012	-0.056025	-0.068406
H76	H	0.841870	-0.188358	0.068430
H77	H	0.841919	-0.188218	-0.068488
H78	H	1.206678	-0.389500	0.000093
