data_functionalizedCrystal
_audit_creation_method	'MofGen! by Chris Wilmer'
_symmetry_space_group_name_H-M	'P1'
_symmetry_Int_Tables_number	1
_symmetry_cell_setting	triclinic
loop_
_symmetry_equiv_pos_as_xyz
  x,y,z
_cell_length_a	18.627243
_cell_length_b	18.627245
_cell_length_c	18.627215
_cell_angle_alpha	90.003145
_cell_angle_beta	120.004078
_cell_angle_gamma	60.000315
loop_
_atom_site_label
_atom_site_type_symbol
_atom_site_fract_x
_atom_site_fract_y
_atom_site_fract_z
O1	O	-0.633241	-0.492484	-0.021357
O2	O	-0.486232	-0.388088	0.021256
O3	O	-0.633240	-0.388087	-0.125754
O4	O	-0.486232	-0.492485	0.125653
O5	O	-0.513838	-0.507489	-0.125753
O6	O	-0.366829	-0.507489	0.021257
O7	O	-0.513839	-0.611886	-0.021356
Cu8	Cu	-0.429432	-0.570590	-0.000050
Cu9	Cu	-0.570639	-0.429384	-0.000050
O10	O	-0.366830	-0.611886	0.125653
C11	C	-0.356043	-0.256979	0.030936
C12	C	-0.406442	-0.162282	0.024836
C13	C	-0.269039	-0.300580	0.031540
C14	C	-0.356038	-0.386983	0.030944
C15	C	-0.406431	-0.431286	0.024853
C16	C	-0.269034	-0.430386	0.031548
C17	C	-0.226043	-0.386979	0.030935
C18	C	-0.137445	-0.431279	0.024836
C19	C	-0.398837	-0.300583	0.031549
C20	C	-0.644031	-0.386983	-0.257051
C21	C	-0.593638	-0.431285	-0.162355
C22	C	-0.601233	-0.430387	-0.300653
C23	C	-0.774023	-0.256978	-0.387049
C24	C	-0.862619	-0.162280	-0.431348
C25	C	-0.731028	-0.300580	-0.430453
C26	C	-0.644025	-0.386980	-0.387050
C27	C	-0.593627	-0.431281	-0.431348
C28	C	-0.731033	-0.300582	-0.300652
C29	C	-0.774048	-0.612982	-0.031065
C30	C	-0.862650	-0.568681	-0.024971
C31	C	-0.731055	-0.699380	-0.031675
C32	C	-0.644042	-0.612985	-0.031059
C33	C	-0.593642	-0.568686	-0.024957
C34	C	-0.601247	-0.699383	-0.031668
C35	C	-0.644047	-0.742983	-0.031065
C36	C	-0.593652	-0.837679	-0.024970
C37	C	-0.731050	-0.569580	-0.031668
O38	O	0.104349	-0.611881	-0.021370
O39	O	-0.104441	-0.507482	0.021239
O40	O	-0.104457	-0.507489	-0.125769
O41	O	0.104365	-0.611875	0.125638
O42	O	-0.104462	-0.388084	-0.125776
O43	O	-0.104445	-0.388078	0.021232
O44	O	0.104345	-0.492477	-0.021377
Cu45	Cu	-0.000051	-0.429375	-0.000073
Cu46	Cu	-0.000046	-0.570584	-0.000065
O47	O	0.104361	-0.492470	0.125631
O48	O	-0.513854	0.125721	-0.021376
O49	O	-0.366845	-0.125678	0.021232
O50	O	-0.513861	0.021315	-0.125775
O51	O	-0.366839	-0.021272	0.125632
O52	O	-0.633257	0.021311	-0.125767
O53	O	-0.486242	-0.125682	0.021240
O54	O	-0.633251	0.125717	-0.021368
Cu55	Cu	-0.570648	0.000017	-0.000063
Cu56	Cu	-0.429448	0.000022	-0.000072
O57	O	-0.486235	-0.021275	0.125640
O58	O	-1.104406	0.125721	-0.492533
O59	O	-0.895621	-0.125680	-0.388147
O60	O	-0.895600	0.021309	-0.388121
O61	O	-1.104428	-0.021268	-0.492560
O62	O	-0.895598	0.021314	-0.507522
O63	O	-0.895619	-0.125675	-0.507549
O64	O	-1.104404	0.125726	-0.611935
Cu65	Cu	-1.000012	0.000026	-0.570644
Cu66	Cu	-1.000014	0.000020	-0.429438
O67	O	-1.104426	-0.021263	-0.611961
O68	O	-0.486211	-0.492488	-0.611936
O69	O	-0.633222	-0.388081	-0.507550
O70	O	-0.486202	-0.388095	-0.507524
O71	O	-0.633231	-0.492474	-0.611962
O72	O	-0.366810	-0.507499	-0.388123
O73	O	-0.513829	-0.507485	-0.388149
O74	O	-0.366818	-0.611892	-0.492535
Cu75	Cu	-0.429422	-0.570591	-0.429440
Cu76	Cu	-0.570618	-0.429382	-0.570645
O77	O	-0.513838	-0.611878	-0.492561
C78	C	-0.226022	-0.742989	0.386957
C79	C	-0.137421	-0.837685	0.431256
C80	C	-0.269014	-0.699389	0.430363
C81	C	-0.356028	-0.612988	0.256955
C82	C	-0.406429	-0.568687	0.162256
C83	C	-0.398822	-0.569585	0.300559
C84	C	-0.356021	-0.612990	0.386959
C85	C	-0.406415	-0.568691	0.431262
C86	C	-0.269021	-0.699387	0.300556
C87	C	-0.356088	-0.256995	-0.387082
C88	C	-0.406490	-0.162299	-0.431386
C89	C	-0.398887	-0.300599	-0.430484
C90	C	-0.226075	-0.386990	-0.257075
C91	C	-0.137466	-0.431287	-0.162375
C92	C	-0.269072	-0.430398	-0.300675
C93	C	-0.356085	-0.386997	-0.387076
C94	C	-0.406484	-0.431300	-0.431374
C95	C	-0.269074	-0.300593	-0.300681
C96	C	0.355989	-0.612964	0.386938
C97	C	0.406389	-0.568662	0.431237
C98	C	0.398791	-0.699362	0.430346
C99	C	0.225978	-0.612970	0.256937
C100	C	0.137369	-0.568673	0.162237
C101	C	0.268977	-0.699367	0.300542
C102	C	0.355991	-0.742966	0.386943
C103	C	0.406392	-0.837662	0.431247
C104	C	0.268976	-0.569563	0.300538
C105	C	-0.774058	0.030962	-0.387065
C106	C	-0.862656	0.024856	-0.431359
C107	C	-0.731067	0.031564	-0.430473
C108	C	-0.644059	0.030986	-0.257070
C109	C	-0.593660	0.024905	-0.162373
C110	C	-0.601265	0.031588	-0.300676
C111	C	-0.644063	0.030966	-0.387073
C112	C	-0.593669	0.024863	-0.431377
C113	C	-0.731063	0.031584	-0.300667
O114	O	-0.633326	0.125701	-0.611986
O115	O	-0.486300	-0.125700	-0.507589
O116	O	-0.633291	0.021288	-0.507570
O117	O	-0.486335	-0.021287	-0.612005
O118	O	-0.513875	0.021292	-0.388171
O119	O	-0.366884	-0.125696	-0.388190
O120	O	-0.513910	0.125705	-0.492587
Cu121	Cu	-0.429493	0.000005	-0.429486
Cu122	Cu	-0.570717	0.000000	-0.570690
O123	O	-0.366919	-0.021282	-0.492606
C124	C	-0.356033	-0.030927	0.386938
C125	C	-0.406426	-0.024826	0.431241
C126	C	-0.269029	-0.031525	0.430338
C127	C	-0.356037	-0.030947	0.256935
C128	C	-0.406436	-0.024866	0.162238
C129	C	-0.269034	-0.031545	0.300532
C130	C	-0.226039	-0.030923	0.386929
C131	C	-0.137442	-0.024816	0.431224
C132	C	-0.398831	-0.031549	0.300540
H133	H	-0.468844	-0.265576	0.032532
O134	O	-0.226243	-0.741177	0.258703
C135	C	-0.297238	-0.745512	0.182916
H136	H	-0.356528	-0.739826	0.190870
H137	H	-0.336148	-0.689265	0.123024
C138	C	-0.169316	-0.840891	0.160519
C139	C	-0.242132	-0.833915	0.170291
H140	H	-0.135325	-0.895420	0.152728
H141	H	-0.121486	-0.837968	0.211576
H142	H	-0.201752	-0.794014	0.110610
H143	H	-0.209693	-0.880786	0.220205
H144	H	-0.289955	-0.836848	0.119242
O145	O	-0.517825	0.032880	-0.259058
C146	C	-0.540546	0.109026	-0.306109
H147	H	-0.607249	0.133577	-0.377457
H148	H	-0.561289	0.162269	-0.275337
C149	C	-0.365316	0.056961	-0.215063
C150	C	-0.447236	0.087111	-0.302696
H151	H	-0.307757	0.043445	-0.212955
H152	H	-0.350008	0.005661	-0.183361
H153	H	-0.382615	0.101335	-0.189430
H154	H	-0.429941	0.042733	-0.328324
H155	H	-0.462539	0.138403	-0.334402
O156	O	-0.517615	-0.515030	-0.258824
C157	C	-0.437447	-0.519883	-0.183028
H158	H	-0.451032	-0.452660	-0.190952
H159	H	-0.433797	-0.540869	-0.123135
C160	C	-0.319768	-0.670207	-0.160704
C161	C	-0.336449	-0.587644	-0.170439
H162	H	-0.257467	-0.712007	-0.152935
H163	H	-0.373780	-0.666939	-0.211767
H164	H	-0.316733	-0.687683	-0.110794
H165	H	-0.339497	-0.570164	-0.220354
H166	H	-0.282436	-0.590910	-0.119384
O167	O	-0.773827	-0.741263	-0.032735
C168	C	-0.702882	-0.817031	0.042600
H169	H	-0.622727	-0.838848	0.068545
H170	H	-0.716834	-0.801519	0.095420
C171	C	-0.813262	-0.864484	-0.013375
C172	C	-0.714814	-0.891284	0.018487
H173	H	-0.820624	-0.910286	-0.028247
H174	H	-0.861062	-0.813436	-0.064128
H175	H	-0.824877	-0.851557	0.030647
H176	H	-0.703205	-0.904200	-0.025539
H177	H	-0.667013	-0.942336	0.069232
O178	O	0.225907	-0.741047	0.258818
C179	C	0.125413	-0.693977	0.234450
H180	H	0.117070	-0.652360	0.278327
H181	H	0.070798	-0.649366	0.162926
C182	C	0.110930	-0.810157	0.191290
C183	C	0.100686	-0.759048	0.245185
H184	H	0.095674	-0.850294	0.197907
H185	H	0.178633	-0.841867	0.207703
H186	H	0.065417	-0.772971	0.131691
H187	H	0.146207	-0.796232	0.304782
H188	H	0.032989	-0.727345	0.228782
O189	O	-0.482455	-0.032570	0.258687
C190	C	-0.562588	0.042734	0.182883
H191	H	-0.548988	0.096363	0.190826
H192	H	-0.566200	0.025379	0.123006
C193	C	-0.680318	0.010122	0.160480
C194	C	-0.663618	0.075993	0.170239
H195	H	-0.742639	0.030636	0.152677
H196	H	-0.626331	-0.040613	0.211548
H197	H	-0.683322	-0.004334	0.110583
H198	H	-0.660602	0.090440	0.220141
H199	H	-0.717608	0.126732	0.119178
O200	O	-0.482312	-0.258930	-0.515224
C201	C	-0.459633	-0.305987	-0.568666
H202	H	-0.374147	-0.347576	-0.535423
H203	H	-0.486510	-0.350623	-0.578637
C204	C	-0.619029	-0.189829	-0.699305
C205	C	-0.514033	-0.240905	-0.658480
H206	H	-0.652588	-0.149685	-0.754709
H207	H	-0.634310	-0.158127	-0.663301
H208	H	-0.641412	-0.227036	-0.707607
H209	H	-0.491650	-0.203700	-0.650170
H210	H	-0.498749	-0.272599	-0.694485
H211	H	-0.233059	-0.032523	0.265518
H212	H	-0.767005	-0.265575	-0.265639
H213	H	-0.233044	-0.032497	0.501328
O214	O	-0.226034	-0.258835	0.032900
C215	C	-0.196912	-0.234557	0.109083
H216	H	-0.243793	-0.229824	0.133563
H217	H	-0.112928	-0.286148	0.162353
C218	C	-0.157642	-0.150551	0.057206
C219	C	-0.215228	-0.144731	0.087269
H220	H	-0.168936	-0.095144	0.043752
H221	H	-0.177258	-0.166910	0.005881
H222	H	-0.087660	-0.193547	0.101602
H223	H	-0.285209	-0.101743	0.042868
H224	H	-0.195625	-0.128362	0.138586
H225	H	-0.233094	-0.265580	-0.265679
O226	O	-0.226268	-0.515037	0.032598
C227	C	-0.297217	-0.519852	-0.042750
H228	H	-0.377370	-0.461514	-0.068694
H229	H	-0.283258	-0.518290	-0.095565
C230	C	-0.186854	-0.677679	0.013200
C231	C	-0.285300	-0.606032	-0.018661
H232	H	-0.179502	-0.730840	0.028057
H233	H	-0.139053	-0.674436	0.063962
H234	H	-0.175234	-0.676366	-0.030818
H235	H	-0.296915	-0.607340	0.025360
H236	H	-0.333104	-0.609278	-0.069415
H237	H	-0.531231	-0.734388	-0.032638
H238	H	-0.767031	-0.498593	-0.032638
O239	O	0.482456	-0.741176	0.514972
C240	C	0.562575	-0.745536	0.519743
H241	H	0.548893	-0.739829	0.452481
H242	H	0.566269	-0.689314	0.540750
C243	C	0.680393	-0.840966	0.670048
C244	C	0.663592	-0.833964	0.587438
H245	H	0.742706	-0.895510	0.711809
H246	H	0.626415	-0.838026	0.666836
H247	H	0.683465	-0.794109	0.687542
H248	H	0.660508	-0.880814	0.569941
H249	H	0.717573	-0.836914	0.590649
H250	H	-0.468836	-0.498597	0.265550
H251	H	-0.233013	-0.734393	0.501359
H252	H	-0.233072	-0.501390	-0.265667
H253	H	0.233038	-0.498597	0.265509
O254	O	-0.774160	0.032838	-0.515200
C255	C	-0.874647	0.108973	-0.568649
H256	H	-0.903870	0.133528	-0.526520
H257	H	-0.876377	0.162220	-0.601142
C258	C	-0.906708	0.056883	-0.691796
C259	C	-0.942604	0.087038	-0.640054
H260	H	-0.948627	0.043354	-0.735845
H261	H	-0.839007	0.005591	-0.655788
H262	H	-0.908151	0.101260	-0.718865
H263	H	-0.941148	0.042657	-0.612978
H264	H	-1.010306	0.138322	-0.676059
H265	H	-0.767004	-0.265565	-0.501438
O266	O	-0.774116	0.032910	-0.258983
C267	C	-0.874623	0.109018	-0.306048
H268	H	-0.882996	0.161257	-0.347667
H269	H	-0.929219	0.092089	-0.350662
C270	C	-0.889065	0.080295	-0.189858
C271	C	-0.899347	0.144459	-0.240969
H272	H	-0.904319	0.102156	-0.149716
H273	H	-0.821353	0.029018	-0.158150
H274	H	-0.934563	0.066194	-0.227045
H275	H	-0.853841	0.158551	-0.203783
H276	H	-0.967052	0.195740	-0.272670
