data_functionalizedCrystal
_audit_creation_method	'MofGen! by Chris Wilmer'
_symmetry_space_group_name_H-M	'P1'
_symmetry_Int_Tables_number	1
_symmetry_cell_setting	triclinic
loop_
_symmetry_equiv_pos_as_xyz
  x,y,z
_cell_length_a	18.050589
_cell_length_b	18.101398
_cell_length_c	18.101389
_cell_angle_alpha	90.006642
_cell_angle_beta	89.982037
_cell_angle_gamma	89.976974
loop_
_atom_site_label
_atom_site_type_symbol
_atom_site_fract_x
_atom_site_fract_y
_atom_site_fract_z
Zn1	Zn	-0.295811	-1.132121	-0.418550
Zn2	Zn	-0.419994	-1.132028	-0.294719
Zn3	Zn	-0.295811	-1.008285	-0.294746
Zn4	Zn	-0.419953	-1.008237	-0.418541
O5	O	-0.357892	-1.070168	-0.356639
O6	O	-0.312302	-1.235742	-0.402117
O7	O	-0.403538	-1.115594	-0.191089
O8	O	-0.191887	-1.024771	-0.311184
O9	O	-0.403538	-1.235673	-0.311138
O10	O	-0.191887	-1.115753	-0.402143
O11	O	-0.312302	-1.024680	-0.191109
O12	O	-0.312262	-0.904646	-0.311175
O13	O	-0.403468	-1.024690	-0.522175
O14	O	-0.403468	-0.904611	-0.402127
O15	O	-0.312262	-1.115707	-0.522182
O16	O	-0.523913	-1.115548	-0.311129
O17	O	-0.523883	-1.024599	-0.402100
C18	C	-0.357861	-0.877757	-0.356653
C19	C	-0.357865	-0.795443	-0.356677
C20	C	-0.357905	-0.496352	-0.356652
C21	C	-0.415567	-0.527680	-0.413593
C22	C	-0.415388	-0.613299	-0.413826
C23	C	-0.357886	-0.644735	-0.356664
C24	C	-0.279666	-0.613676	-0.377987
C25	C	-0.280011	-0.528031	-0.378393
C26	C	-0.377773	-0.527903	-0.278250
C27	C	-0.379491	-0.613553	-0.278667
C28	C	-0.357870	-0.728594	-0.356670
C29	C	-0.357915	-0.412493	-0.356648
C30	C	-0.550845	-1.070078	-0.356627
C31	C	-0.633390	-1.070108	-0.356646
C32	C	-0.832851	-1.020699	-0.406099
C33	C	-0.882283	-1.002649	-0.338526
C34	C	-0.784521	-1.070181	-0.356656
C35	C	-0.882170	-1.088267	-0.424237
C36	C	-0.930506	-1.070250	-0.356671
C37	C	-0.832866	-1.052096	-0.289046
C38	C	-0.832748	-1.137744	-0.374804
C39	C	-0.882158	-1.119720	-0.307183
C40	C	-0.700422	-1.070139	-0.356648
C41	C	-1.014602	-1.070291	-0.356671
C42	C	-0.164187	-1.070278	-0.356667
C43	C	-0.081641	-1.070325	-0.356680
C44	C	-0.357860	-1.070204	-0.549801
C45	C	-0.357847	-1.070220	-0.632115
C46	C	-0.357921	-0.263330	-0.356630
C47	C	-0.357925	-0.345644	-0.356639
C48	C	-0.357789	-1.070247	-0.782824
C49	C	-0.415162	-1.012991	-0.814173
C50	C	-0.414960	-1.012783	-0.899791
C51	C	-0.357733	-1.070275	-0.931206
C52	C	-0.279417	-1.049384	-0.900122
C53	C	-0.279781	-1.048952	-0.814477
C54	C	-0.378036	-1.148545	-0.814379
C55	C	-0.379730	-1.148141	-0.900029
C56	C	-0.357697	-1.070291	-1.015066
C57	C	-0.357820	-1.070229	-0.698964
C58	C	-0.357871	-1.070174	-0.164228
C59	C	-0.357675	-1.070302	-0.081915
H60	H	-0.235539	-0.634039	-0.337806
O61	O	-0.322141	-0.501067	-0.222050
H62	H	-0.336539	-0.523581	-0.166851
O63	O	-0.804298	-1.031781	-0.213328
H64	H	-0.824506	-1.072654	-0.172307
O65	O	-0.398377	-0.499194	-0.490100
H66	H	-0.387105	-0.546520	-0.527449
H67	H	-0.903671	-1.161595	-0.265329
H68	H	-0.810975	-1.194836	-0.390172
H69	H	-0.433835	-0.506293	-0.258873
H70	H	-0.262509	-0.635138	-0.434678
H71	H	-0.434193	-1.167606	-0.792778
H72	H	-0.437368	-1.163897	-0.920343
H73	H	-0.235560	-1.088857	-0.793738
O74	O	-0.911107	-0.927008	-0.318188
H75	H	-0.891365	-0.886002	-0.359301
O76	O	-0.804163	-0.965190	-0.461402
H77	H	-0.824764	-0.979660	-0.517328
H78	H	-0.437049	-0.633861	-0.262586
H79	H	-0.903828	-1.103536	-0.481384
H80	H	-0.340542	-0.634953	-0.233963
O81	O	-0.257086	-0.973156	-0.788017
H82	H	-0.245960	-0.937153	-0.836393
O83	O	-0.221178	-0.500590	-0.325844
H84	H	-0.247413	-0.466527	-0.282061
O85	O	-0.397605	-0.936573	-0.785685
H86	H	-0.341017	-0.920601	-0.803586
H87	H	-0.473025	-1.025824	-0.920809
O88	O	-0.397149	-0.935948	-0.926954
H89	H	-0.388640	-0.898797	-0.878916
H90	H	-0.473424	-1.025870	-0.793578
H91	H	-0.235484	-1.089817	-0.920469
O92	O	-0.397960	-0.640458	-0.490768
H93	H	-0.440653	-0.619807	-0.529762
H94	H	-0.261975	-0.992796	-0.921580
O95	O	-0.257692	-0.501576	-0.454311
H96	H	-0.246758	-0.549954	-0.490390
H97	H	-0.336246	-1.191200	-0.794109
O98	O	-0.328410	-1.207651	-0.928339
H99	H	-0.331289	-1.209609	-0.989557
O100	O	-0.492220	-0.641122	-0.396129
H101	H	-0.531743	-0.620557	-0.438356
O102	O	-0.492655	-0.500374	-0.396106
H103	H	-0.490697	-0.464178	-0.346646
