data_functionalizedCrystal
_audit_creation_method	'MofGen! by Chris Wilmer'
_symmetry_space_group_name_H-M	'P1'
_symmetry_Int_Tables_number	1
_symmetry_cell_setting	triclinic
loop_
_symmetry_equiv_pos_as_xyz
  x,y,z
_cell_length_a	10.654541
_cell_length_b	14.185328
_cell_length_c	10.654545
_cell_angle_alpha	75.342116
_cell_angle_beta	95.515322
_cell_angle_gamma	104.659771
loop_
_atom_site_label
_atom_site_type_symbol
_atom_site_fract_x
_atom_site_fract_y
_atom_site_fract_z
O1	O	1.693472	0.083384	-0.202009
O2	O	1.327996	0.083393	-0.218821
O3	O	1.519136	0.083388	-0.027676
O4	O	1.502332	0.083389	-0.393155
O5	O	1.467842	-0.083454	0.023603
O6	O	1.276702	-0.083449	-0.167543
O7	O	1.642178	-0.083457	-0.150731
Cu8	Cu	1.454756	-0.098687	-0.154455
Cu9	Cu	1.515417	0.098622	-0.215097
O10	O	1.451038	-0.083452	-0.341876
C11	C	1.255551	-0.000027	-0.191949
C12	C	1.116108	-0.000024	-0.188259
N13	N	1.412100	-0.237464	-0.111801
C14	C	1.088143	-0.000010	-0.416828
C15	C	1.008652	0.000001	-0.529374
C16	C	0.877635	0.000002	-0.525899
C17	C	0.826105	-0.000011	-0.409864
C18	C	0.905595	-0.000022	-0.297317
C19	C	1.036615	-0.000020	-0.300806
C20	C	0.933558	-0.000043	-0.068749
C21	C	1.064579	-0.000037	-0.072224
C22	C	0.882029	-0.000056	0.047286
C23	C	0.961522	-0.000060	0.159833
C24	C	1.092547	-0.000059	0.156352
C25	C	1.144069	-0.000048	0.040322
C26	C	1.683308	-0.605077	-0.383092
C27	C	1.651025	-0.710103	-0.350763
C28	C	1.497384	-0.710085	-0.197016
C29	C	1.529649	-0.605057	-0.229336
C30	C	1.622613	-0.552561	-0.322374
C31	C	1.468954	-0.552541	-0.168618
C32	C	1.501222	-0.447522	-0.200931
C33	C	1.594185	-0.395019	-0.293962
C34	C	1.654881	-0.447542	-0.354687
C35	C	1.375998	-0.605039	-0.075574
C36	C	1.315303	-0.552523	-0.014855
C37	C	1.347564	-0.447502	-0.047175
C38	C	1.440527	-0.394999	-0.140206
C39	C	1.286868	-0.394979	0.013550
C40	C	1.319136	-0.289960	-0.018763
C41	C	1.472795	-0.289980	-0.172519
C42	C	1.714624	-0.000035	-0.177604
C43	C	1.854068	-0.000032	-0.181296
C44	C	1.492255	-0.000031	0.044761
C45	C	1.488565	-0.000025	0.184202
N46	N	1.558084	0.237399	-0.257741
C47	C	1.477919	-0.000031	-0.414314
C48	C	1.481612	-0.000031	-0.553757
C49	C	1.544502	0.181871	0.128305
C50	C	1.570740	0.272818	0.165867
C51	C	1.567272	0.272819	0.296885
C52	C	1.537558	0.181863	0.390348
C53	C	1.511319	0.090916	0.352786
C54	C	1.514795	0.090924	0.221762
C55	C	1.455373	-0.090978	0.408681
C56	C	1.458850	-0.090982	0.277665
C57	C	1.425659	-0.181934	0.502144
C58	C	1.399429	-0.272884	0.464584
C59	C	1.402901	-0.272881	0.333557
C60	C	1.432612	-0.181929	0.240103
H61	H	1.050622	0.000009	-0.623847
N62	N	1.367393	-0.370977	0.565383
H63	H	1.286991	-0.375028	0.611484
H64	H	1.442496	-0.374968	0.630409
N65	N	0.684785	-0.000034	-0.406121
H66	H	0.666735	0.061812	-0.469158
H67	H	0.664286	-0.000083	-0.315502
H68	H	1.700457	-0.752857	-0.400216
N69	N	1.186619	-0.451611	0.113905
H70	H	1.112232	-0.495206	0.073213
H71	H	1.153165	-0.402346	0.147439
H72	H	0.775344	-0.000061	0.050109
H73	H	1.620459	-0.309505	-0.320268
N74	N	0.905941	-0.000089	0.284977
H75	H	0.810878	-0.000097	0.270104
H76	H	0.953949	0.061757	0.315281
N77	N	1.573070	-0.233351	-0.272863
H78	H	1.584300	-0.158854	-0.284113
H79	H	1.543404	-0.251722	-0.358326
N80	N	1.178269	-0.000080	0.277752
H81	H	1.180590	0.061761	0.309325
H82	H	1.269044	-0.000116	0.257861
N83	N	1.783559	-0.548444	-0.483458
H84	H	1.817111	-0.597646	-0.517031
H85	H	1.857874	-0.504854	-0.442684
N86	N	1.374600	-0.370973	0.293038
H87	H	1.284052	-0.410725	0.318551
H88	H	1.439555	-0.410664	0.337578
H89	H	1.435447	-0.181918	0.133418
N90	N	1.215035	-0.609156	0.085482
H91	H	1.129489	-0.590892	0.055928
H92	H	1.244742	-0.590838	0.170968
N93	N	1.253680	-0.233313	0.046729
H94	H	1.288237	-0.158818	0.012146
H95	H	1.272077	-0.251654	0.143482
H96	H	1.194830	0.000011	-0.419676
H97	H	1.547343	0.181879	0.021622
N98	N	1.285381	-0.000043	0.036568
H99	H	1.305958	-0.000034	-0.054014
H100	H	1.303320	-0.061900	0.099660
H101	H	1.588626	0.346877	0.327464
H102	H	1.594931	0.346873	0.089756
N103	N	1.397126	-0.766707	-0.096665
H104	H	1.385894	-0.841206	-0.085405
H105	H	1.311640	-0.748364	-0.126281
N106	N	1.533834	0.181861	0.531663
H107	H	1.554970	0.253277	0.541277
H108	H	1.599734	0.146101	0.583593
N109	N	1.755132	-0.390909	-0.455053
H110	H	1.788684	-0.440112	-0.488625
H111	H	1.829447	-0.347319	-0.414279
H112	H	1.422830	-0.181927	0.608823
N113	N	1.341454	-0.718306	-0.039907
H114	H	1.245931	-0.743928	-0.059094
H115	H	1.361457	-0.742873	0.055664
H116	H	0.812910	0.000003	-0.617542
