data_functionalizedCrystal
_audit_creation_method	'MofGen! by Chris Wilmer'
_symmetry_space_group_name_H-M	'P1'
_symmetry_Int_Tables_number	1
_symmetry_cell_setting	triclinic
loop_
_symmetry_equiv_pos_as_xyz
  x,y,z
_cell_length_a	29.839131
_cell_length_b	18.050591
_cell_length_c	18.050582
_cell_angle_alpha	90.023995
_cell_angle_beta	89.974523
_cell_angle_gamma	89.965498
loop_
_atom_site_label
_atom_site_type_symbol
_atom_site_fract_x
_atom_site_fract_y
_atom_site_fract_z
Zn1	Zn	-0.178965	-1.135224	-0.420077
Zn2	Zn	-0.254087	-1.135106	-0.295881
Zn3	Zn	-0.178963	-1.011044	-0.295882
Zn4	Zn	-0.254059	-1.010963	-0.420010
O5	O	-0.216518	-1.073084	-0.357962
O6	O	-0.188942	-1.239133	-0.403630
O7	O	-0.244132	-1.118634	-0.191956
O8	O	-0.116096	-1.027600	-0.312385
O9	O	-0.244134	-1.239047	-0.312384
O10	O	-0.116097	-1.118835	-0.403631
O11	O	-0.188939	-1.027485	-0.191957
O12	O	-0.188912	-0.907108	-0.312320
O13	O	-0.244087	-1.027462	-0.523943
O14	O	-0.244085	-0.907049	-0.403516
O15	O	-0.188916	-1.118756	-0.523993
O16	O	-0.316950	-1.118555	-0.312318
O17	O	-0.316930	-1.027348	-0.403515
C18	C	-0.216496	-0.880132	-0.357911
C19	C	-0.216497	-0.797586	-0.357907
C20	C	-0.333241	-1.072950	-0.357926
C21	C	-0.383175	-1.072961	-0.357935
C22	C	-0.186453	-0.598146	-0.308418
C23	C	-0.227427	-0.548711	-0.290135
C24	C	-0.216506	-0.646456	-0.357932
C25	C	-0.175542	-0.548810	-0.376204
C26	C	-0.216511	-0.500471	-0.357955
C27	C	-0.257501	-0.598108	-0.339615
C28	C	-0.205589	-0.598211	-0.425715
C29	C	-0.246591	-0.548798	-0.407459
C30	C	-0.216502	-0.730554	-0.357917
C31	C	-0.216519	-0.416374	-0.357971
C32	C	-0.692817	-1.120663	-0.310546
C33	C	-0.880490	-1.120754	-0.310574
O34	O	-0.904753	-1.161206	-0.270254
N35	N	-0.903960	-1.073238	-0.358018
C36	C	-0.880510	-1.025700	-0.405462
O37	O	-0.904780	-0.985292	-0.445822
C38	C	-0.692838	-1.025612	-0.405436
C39	C	-0.669370	-1.073126	-0.357984
C40	C	-0.669348	-1.168173	-0.263098
C41	C	-0.622433	-1.168147	-0.263088
C42	C	-0.598986	-1.120610	-0.310526
C43	C	-0.622454	-1.073100	-0.357974
C44	C	-0.669388	-0.978078	-0.452883
C45	C	-0.622467	-0.978062	-0.452874
C46	C	-0.598999	-1.025575	-0.405422
C47	C	-0.552092	-1.025537	-0.405403
N48	N	-0.528621	-1.073053	-0.357959
C49	C	-0.552068	-1.120589	-0.310521
C50	C	-0.979041	-1.025748	-0.405471
C51	C	-1.025959	-1.025769	-0.405477
C52	C	-1.025935	-1.120824	-0.310590
C53	C	-0.979016	-1.120799	-0.310581
C54	C	-0.955570	-1.073264	-0.358027
C55	C	-0.453542	-1.120530	-0.310504
C56	C	-0.406623	-1.120497	-0.310496
C57	C	-0.406650	-1.025445	-0.405386
C58	C	-0.453566	-1.025474	-0.405391
C59	C	-0.477011	-1.073023	-0.357947
O60	O	-0.527800	-0.985113	-0.445708
O61	O	-0.527790	-1.161002	-0.270178
C62	C	-0.739732	-1.120689	-0.310555
C63	C	-0.763201	-1.073178	-0.358003
C64	C	-0.739753	-1.025642	-0.405442
C65	C	-0.810118	-1.073199	-0.358009
C66	C	-0.833565	-1.120736	-0.310570
C67	C	-0.810095	-1.168252	-0.263126
C68	C	-0.763179	-1.168225	-0.263117
C69	C	-0.763224	-0.978126	-0.452886
C70	C	-0.810140	-0.978155	-0.452891
C71	C	-0.833587	-1.025692	-0.405452
C72	C	-0.099340	-1.073239	-0.358016
C73	C	-0.049406	-1.073305	-0.358038
C74	C	-0.216499	-1.073113	-0.551668
C75	C	-0.216490	-1.073126	-0.634214
C76	C	-0.216534	-0.266790	-0.358001
C77	C	-0.216521	-0.349336	-0.357983
C78	C	-0.246451	-1.023518	-0.833638
C79	C	-0.257438	-1.091269	-0.883039
C80	C	-0.216456	-1.073162	-0.785344
C81	C	-0.205457	-1.005449	-0.883025
C82	C	-0.216423	-1.073192	-0.931330
C83	C	-0.227464	-1.140949	-0.833658
C84	C	-0.175463	-1.055083	-0.833640
C85	C	-0.186434	-1.122881	-0.883019
C86	C	-0.216475	-1.073145	-0.701246
C87	C	-0.216404	-1.073218	-1.015426
C88	C	-0.216506	-1.073098	-0.165010
C89	C	-0.216388	-1.073230	-0.082465
H90	H	-0.236666	-0.526970	-0.232822
C91	C	-0.152526	-1.178885	-0.911641
C92	C	-0.109806	-1.160383	-0.885483
C93	C	-0.078561	-1.211966	-0.911823
H94	H	-0.152461	-1.178357	-0.964262
H95	H	-0.160373	-1.226958	-0.894619
H96	H	-0.101962	-1.112323	-0.902509
H97	H	-0.109856	-1.160917	-0.832865
H98	H	-0.086408	-1.260038	-0.894801
H99	H	-0.078501	-1.211433	-0.964444
H100	H	-0.049573	-1.199423	-0.894073
H101	H	-0.744075	-1.206916	-0.224477
H102	H	-0.387552	-0.986739	-0.444007
C103	C	-0.239821	-1.217398	-0.804914
C104	C	-0.208527	-1.269274	-0.830503
C105	C	-0.219893	-1.339702	-0.804029
H106	H	-0.268823	-1.230433	-0.822222
H107	H	-0.239750	-1.216950	-0.752283
H108	H	-0.208602	-1.269725	-0.883123
H109	H	-0.179522	-1.256264	-0.813196
H110	H	-0.219822	-1.339254	-0.751398
H111	H	-0.248896	-1.352729	-0.821339
H112	H	-0.198660	-1.374907	-0.821381
H113	H	-0.292091	-1.106579	-0.904737
C114	C	-0.303744	-0.626812	-0.319070
C115	C	-0.335140	-0.601239	-0.370713
C116	C	-0.377740	-0.627675	-0.351815
H117	H	-0.311611	-0.609468	-0.271103
H118	H	-0.303478	-0.679444	-0.319199
H119	H	-0.335407	-0.548619	-0.370576
H120	H	-0.327288	-0.618582	-0.418684
H121	H	-0.377475	-0.680307	-0.351944
H122	H	-0.385602	-0.610329	-0.303847
H123	H	-0.399047	-0.610333	-0.386855
H124	H	-0.140821	-1.039754	-0.811925
H125	H	-0.603328	-1.206838	-0.224450
C126	C	-0.381062	-1.172007	-0.259003
C127	C	-0.334954	-1.161800	-0.269129
C128	C	-0.311396	-1.209230	-0.221702
H129	H	-0.388666	-1.221932	-0.269881
H130	H	-0.388750	-1.161167	-0.209079
H131	H	-0.327269	-1.172645	-0.319041
H132	H	-0.327337	-1.111885	-0.258246
H133	H	-0.319084	-1.198390	-0.171778
H134	H	-0.319004	-1.259152	-0.232584
H135	H	-0.280110	-1.202306	-0.228561
C136	C	-0.478911	-1.172178	-0.258909
C137	C	-0.448309	-1.213760	-0.217345
C138	C	-0.471662	-1.261334	-0.169799
H139	H	-0.497188	-1.204599	-0.287267
H140	H	-0.497230	-1.143817	-0.226482
H141	H	-0.429998	-1.242119	-0.249769
H142	H	-0.430030	-1.181359	-0.188973
H143	H	-0.489980	-1.232973	-0.137371
H144	H	-0.489938	-1.293750	-0.198162
H145	H	-0.450902	-1.289548	-0.141587
H146	H	-0.271851	-0.981575	-0.811956
H147	H	-0.140901	-0.527115	-0.391624
H148	H	-0.959954	-0.987037	-0.444108
C149	C	-0.193192	-0.627335	-0.502045
C150	C	-0.154584	-0.671127	-0.496716
C151	C	-0.143148	-0.697978	-0.567013
H152	H	-0.187654	-0.586875	-0.534405
H153	H	-0.217161	-0.656318	-0.520982
H154	H	-0.130620	-0.642145	-0.477789
H155	H	-0.160111	-0.711598	-0.464370
H156	H	-0.167117	-0.726961	-0.585950
H157	H	-0.137613	-0.657514	-0.599367
H158	H	-0.116954	-0.727699	-0.563406
C159	C	-0.597068	-0.926494	-0.504509
C160	C	-0.608458	-0.942617	-0.578005
C161	C	-0.585074	-0.895123	-0.625589
H162	H	-0.565757	-0.933235	-0.497813
H163	H	-0.604799	-0.876593	-0.493637
H164	H	-0.600724	-0.992505	-0.588873
H165	H	-0.639765	-0.935871	-0.584725
H166	H	-0.592804	-0.845222	-0.614717
H167	H	-0.553764	-0.901868	-0.618886
H168	H	-0.592802	-0.906051	-0.675461
C169	C	-0.694719	-1.219815	-0.211504
C170	C	-0.664115	-1.261398	-0.169944
C171	C	-0.687467	-1.308970	-0.122393
H172	H	-0.712999	-1.252235	-0.239857
H173	H	-0.713035	-1.191452	-0.179074
H174	H	-0.645807	-1.289759	-0.202369
H175	H	-0.645835	-1.228998	-0.141575
H176	H	-0.705783	-1.280607	-0.089963
H177	H	-0.705745	-1.341385	-0.150752
H178	H	-0.666706	-1.337185	-0.094184
C179	C	-0.953620	-1.172470	-0.259036
C180	C	-0.984202	-1.214112	-0.217507
C181	C	-0.960825	-1.261728	-0.170022
H182	H	-0.935340	-1.144160	-0.226578
H183	H	-0.935302	-1.204845	-0.287459
H184	H	-1.002512	-1.181741	-0.189086
H185	H	-1.002482	-1.242437	-0.249945
H186	H	-0.942508	-1.294103	-0.198445
H187	H	-0.942546	-1.233412	-0.137569
H188	H	-0.981572	-1.289992	-0.141844
C189	C	-0.835574	-1.219977	-0.211757
C190	C	-0.862452	-1.267568	-0.253889
C191	C	-0.885924	-1.315243	-0.206606
H192	H	-0.853946	-1.191706	-0.179349
H193	H	-0.814889	-1.248319	-0.183519
H194	H	-0.883134	-1.239230	-0.282115
H195	H	-0.844091	-1.295856	-0.286296
H196	H	-0.865239	-1.343585	-0.178367
H197	H	-0.904293	-1.286966	-0.174200
H198	H	-0.904160	-1.347544	-0.235185
H199	H	-0.196167	-0.948172	-0.904711
C200	C	-1.051478	-1.172462	-0.259219
C201	C	-1.097589	-1.162341	-0.269423
C202	C	-1.121135	-1.209927	-0.222151
H203	H	-1.043885	-1.161728	-0.209257
H204	H	-1.043770	-1.222348	-0.270204
H205	H	-1.105293	-1.112467	-0.258434
H206	H	-1.105195	-1.173080	-0.319375
H207	H	-1.113427	-1.259813	-0.233135
H208	H	-1.113538	-1.199190	-0.172191
H209	H	-1.152423	-1.203072	-0.229072
C210	C	-1.051354	-0.974147	-0.457072
C211	C	-1.020772	-0.932531	-0.498627
C212	C	-1.044148	-0.884979	-0.546177
H213	H	-1.069685	-0.941748	-0.428718
H214	H	-1.069621	-1.002526	-0.489506
H215	H	-1.002513	-0.904155	-0.466198
H216	H	-1.002440	-0.964911	-0.526997
H217	H	-1.062415	-0.913358	-0.578610
H218	H	-1.062479	-0.852584	-0.517816
H219	H	-1.023402	-0.856742	-0.574382
H220	H	-0.688488	-0.939383	-0.491521
C221	C	-0.478967	-0.973859	-0.456989
C222	C	-0.448389	-0.932235	-0.498542
C223	C	-0.471768	-0.884692	-0.546096
H224	H	-0.497303	-0.941464	-0.428638
H225	H	-0.497230	-1.002245	-0.489423
H226	H	-0.430134	-0.903851	-0.466112
H227	H	-0.430052	-0.964611	-0.526908
H228	H	-0.490031	-0.913078	-0.578530
H229	H	-0.490104	-0.852302	-0.517739
H230	H	-0.451024	-0.856450	-0.574301
H231	H	-0.161067	-0.619814	-0.266503
C232	C	-0.835592	-0.926657	-0.504540
C233	C	-0.824147	-0.942795	-0.578030
C234	C	-0.847588	-0.895384	-0.625633
H235	H	-0.827954	-0.876734	-0.493718
H236	H	-0.866898	-0.933482	-0.497809
H237	H	-0.792849	-0.935964	-0.584757
H238	H	-0.831787	-0.992710	-0.588875
H239	H	-0.878894	-0.902209	-0.618903
H240	H	-0.839947	-0.845464	-0.614805
H241	H	-0.839829	-0.906332	-0.675502
C242	C	-0.280486	-0.520186	-0.463413
C243	C	-0.269322	-0.546391	-0.534071
C244	C	-0.300540	-0.520057	-0.585629
H245	H	-0.280158	-0.467565	-0.463505
H246	H	-0.309564	-0.537181	-0.450369
H247	H	-0.240251	-0.529393	-0.547111
H248	H	-0.269653	-0.599009	-0.534003
H249	H	-0.329619	-0.537051	-0.572585
H250	H	-0.300210	-0.467437	-0.585714
H251	H	-0.292972	-0.537839	-0.633575
C252	C	-0.737749	-0.926631	-0.504483
C253	C	-0.710781	-0.968623	-0.552144
C254	C	-0.687313	-0.921204	-0.599692
H255	H	-0.719439	-0.894264	-0.476122
H256	H	-0.758436	-0.898353	-0.532779
H257	H	-0.690095	-0.996888	-0.523851
H258	H	-0.729079	-1.000988	-0.580522
H259	H	-0.708001	-0.892927	-0.627989
H260	H	-0.669006	-0.888840	-0.571326
H261	H	-0.669016	-0.949689	-0.632041
