data_functionalizedCrystal
_audit_creation_method	'MofGen! by Chris Wilmer'
_symmetry_space_group_name_H-M	'P1'
_symmetry_Int_Tables_number	1
_symmetry_cell_setting	triclinic
loop_
_symmetry_equiv_pos_as_xyz
  x,y,z
_cell_length_a	15.995343
_cell_length_b	15.995292
_cell_length_c	16.176319
_cell_angle_alpha	90.009615
_cell_angle_beta	90.000580
_cell_angle_gamma	83.478900
loop_
_atom_site_label
_atom_site_type_symbol
_atom_site_fract_x
_atom_site_fract_y
_atom_site_fract_z
O1	O	1.110968	0.107885	-0.068658
O2	O	0.867189	0.121219	-0.068677
O3	O	0.995767	-0.007339	-0.068668
O4	O	0.982389	0.236443	-0.068666
O5	O	0.995755	-0.007316	0.068825
O6	O	0.867176	0.121243	0.068816
O7	O	1.110955	0.107908	0.068836
Cu8	Cu	0.989065	0.114578	0.081380
Cu9	Cu	0.989079	0.114550	-0.081221
O10	O	0.982377	0.236467	0.068827
C11	C	0.835988	0.120681	0.000067
C12	C	0.743037	0.119032	0.000060
C13	C	0.995217	-0.038523	0.000077
C14	C	0.993584	-0.131476	0.000070
C15	C	0.572852	0.116038	0.000071
C16	C	0.549525	0.023238	0.000070
C17	C	0.452848	0.021493	0.000387
C18	C	0.405292	0.113089	0.000081
C19	C	0.434367	0.159764	0.078440
C20	C	0.531159	0.160864	0.078501
C21	C	0.531084	0.162197	-0.077860
C22	C	0.434590	0.158771	-0.078885
C23	C	0.310595	0.111428	0.000089
C24	C	0.667549	0.117702	0.000068
C25	C	0.987583	-0.469214	0.000077
C26	C	1.080388	-0.445904	0.000392
C27	C	1.082152	-0.349229	0.000079
C28	C	0.990561	-0.301658	0.000074
C29	C	0.944170	-0.330771	-0.078442
C30	C	0.943053	-0.427562	-0.078505
C31	C	0.941144	-0.427392	0.077850
C32	C	0.944583	-0.330900	0.078885
C33	C	0.992239	-0.206962	0.000070
C34	C	0.985902	-0.563910	0.000076
C35	C	1.142156	0.108447	0.000090
C36	C	1.235107	0.110096	0.000092
C37	C	0.982927	0.267650	0.000080
C38	C	0.984560	0.360603	0.000081
N39	N	0.989061	0.114596	0.195745
N40	N	0.989090	0.114525	-0.195587
C41	C	0.938320	0.063718	0.761131
C42	C	0.938318	0.063725	0.674584
C43	C	0.989083	0.114543	0.631321
C44	C	1.039859	0.165351	0.674609
C45	C	1.039864	0.165339	0.761155
C46	C	1.039838	0.165398	0.325581
C47	C	1.039827	0.165408	0.239030
C48	C	0.938292	0.063784	0.239010
C49	C	0.938298	0.063772	0.325555
C50	C	0.989077	0.114577	0.368836
C51	C	0.989079	0.114568	0.462681
C52	C	0.989077	0.114557	0.537478
H53	H	0.577545	-0.012741	-0.056114
H54	H	0.433841	-0.015043	-0.055773
N55	N	1.125253	-0.481024	0.071029
N56	N	1.089358	-0.523646	0.121964
H57	H	1.121044	-0.548457	0.171853
N58	N	1.127745	-0.325343	0.070672
N59	N	1.192255	-0.288985	0.061265
H60	H	1.224461	-0.272118	0.111121
H61	H	1.081185	0.206767	0.360810
N62	N	0.857703	-0.445842	-0.082982
N63	N	0.827891	-0.486813	-0.026513
H64	H	0.767615	-0.499725	-0.029679
H65	H	1.115965	-0.474933	-0.055595
N66	N	1.091717	0.217249	0.630407
N67	N	1.091705	0.217253	0.553136
H68	H	1.128330	0.253908	0.521918
H69	H	0.414277	0.127758	0.136976
H70	H	0.970365	-0.455472	0.137365
H71	H	1.118709	-0.330835	-0.056298
H72	H	0.872832	-0.441381	0.078376
H73	H	1.081207	0.206711	0.796394
N74	N	0.886455	0.011851	0.369747
N75	N	0.919172	-0.043498	0.418022
H76	H	0.882560	-0.080171	0.449232
H77	H	0.578512	-0.012136	0.056178
N78	N	0.549446	0.246227	0.082707
N79	N	0.624131	0.262246	0.083505
H80	H	0.637045	0.322532	0.086481
N81	N	0.886440	0.011853	0.630362
N82	N	0.831081	0.044545	0.582082
H83	H	0.794438	0.007912	0.550846
N84	N	0.393306	0.242644	-0.085131
N85	N	0.435654	0.303687	-0.085552
H86	H	0.406515	0.362932	-0.089965
H87	H	0.975191	-0.454389	-0.137194
N88	N	0.984601	-0.305617	-0.151735
N89	N	1.047571	-0.266259	-0.146347
H90	H	1.076131	-0.248495	-0.198109
H91	H	0.978362	-0.312325	0.136971
H92	H	0.434414	-0.014853	0.056886
N93	N	0.564756	0.120815	0.152266
N94	N	0.516693	0.092247	0.203342
H95	H	0.540416	0.063960	0.255441
H96	H	0.402507	0.227177	0.081135
H97	H	0.416044	0.124780	-0.136856
N98	N	0.859620	-0.290791	-0.082102
N99	N	0.832546	-0.240273	-0.026751
H100	H	0.772832	-0.212035	-0.029333
N101	N	0.860730	-0.289500	0.084817
N102	N	0.808901	-0.297875	0.028428
H103	H	0.749683	-0.268620	0.032610
N104	N	0.566620	0.125498	-0.152386
N105	N	0.623167	0.064868	-0.148967
H106	H	0.648287	0.038959	-0.201597
N107	N	0.886450	0.011822	0.805320
N108	N	0.808421	0.021808	0.795658
H109	H	0.771786	-0.014845	0.826865
H110	H	1.081168	0.206792	0.203807
N111	N	0.886444	0.011877	0.194779
N112	N	0.919157	-0.043458	0.146471
H113	H	0.882541	-0.080114	0.115231
N114	N	0.548644	0.247885	-0.078797
N115	N	0.591719	0.274940	-0.022379
H116	H	0.604123	0.335456	-0.023032
