data_functionalizedCrystal
_audit_creation_method	'MofGen! by Chris Wilmer'
_symmetry_space_group_name_H-M	'P1'
_symmetry_Int_Tables_number	1
_symmetry_cell_setting	triclinic
loop_
_symmetry_equiv_pos_as_xyz
  x,y,z
_cell_length_a	15.944551
_cell_length_b	15.944551
_cell_length_c	15.021413
_cell_angle_alpha	90.003065
_cell_angle_beta	89.997174
_cell_angle_gamma	83.498738
loop_
_atom_site_label
_atom_site_type_symbol
_atom_site_fract_x
_atom_site_fract_y
_atom_site_fract_z
O1	O	1.114529	0.108321	-0.073941
O2	O	1.614529	0.608321	0.426059
O3	O	0.869979	0.121677	-0.073964
O4	O	1.369979	0.621677	0.426036
O5	O	0.998932	-0.007276	-0.073944
O6	O	1.498932	0.492724	0.426056
O7	O	0.985576	0.237274	-0.073961
O8	O	1.485576	0.737274	0.426039
O9	O	0.998912	-0.007257	0.074121
O10	O	1.498912	0.492743	0.574121
O11	O	0.869959	0.121695	0.074101
O12	O	1.369959	0.621695	0.574101
O13	O	1.114508	0.108339	0.074123
O14	O	1.614508	0.608339	0.574123
Zn15	Zn	0.992230	0.115020	0.097620
Zn16	Zn	1.492230	0.615020	0.597620
Zn17	Zn	0.992257	0.114996	-0.097461
Zn18	Zn	1.492257	0.614996	0.402539
O19	O	0.985555	0.237292	0.074103
O20	O	1.485555	0.737292	0.574103
C21	C	0.838675	0.121132	0.000066
C22	C	1.338675	0.621132	0.500066
C23	C	0.745429	0.119470	0.000057
C24	C	1.245429	0.619470	0.500057
C25	C	0.998367	-0.038561	0.000089
C26	C	1.498367	0.461439	0.500089
C27	C	0.996705	-0.131807	0.000089
C28	C	1.496705	0.368193	0.500089
C29	C	0.530572	0.035565	0.000081
C30	C	1.030572	0.535565	0.500081
C31	C	0.469562	0.074518	-0.072926
C32	C	0.969562	0.574518	0.427074
C33	C	0.574703	0.116462	0.000068
C34	C	1.074703	0.616462	0.500068
C35	C	0.469564	0.074556	0.073054
C36	C	0.969564	0.574556	0.573054
C37	C	0.409790	0.113551	0.000083
C38	C	0.909790	0.613551	0.500083
C39	C	0.514921	0.155438	-0.072998
C40	C	1.014921	0.655438	0.427002
C41	C	0.514930	0.155464	0.073047
C42	C	1.014930	0.655464	0.573047
C43	C	0.453937	0.194476	0.000023
C44	C	0.953937	0.694476	0.500023
C45	C	0.669705	0.118137	0.000059
C46	C	1.169705	0.618137	0.500059
C47	C	0.314789	0.111883	0.000085
C48	C	0.814789	0.611883	0.500085
C49	C	0.912801	-0.346663	0.000069
C50	C	1.412801	0.153337	0.500069
C51	C	0.951753	-0.407672	0.073077
C52	C	1.451753	0.092328	0.573077
C53	C	0.993698	-0.302533	0.000082
C54	C	1.493698	0.197467	0.500082
C55	C	0.951792	-0.407673	-0.072903
C56	C	1.451792	0.092327	0.427097
C57	C	0.990787	-0.467445	0.000071
C58	C	1.490787	0.032555	0.500071
C59	C	1.032672	-0.362313	0.073150
C60	C	1.532672	0.137687	0.573150
C61	C	1.032700	-0.362308	-0.072895
C62	C	1.532700	0.137692	0.427105
C63	C	1.071711	-0.423298	0.000131
C64	C	1.571711	0.076702	0.500131
C65	C	0.995372	-0.207530	0.000089
C66	C	1.495372	0.292470	0.500089
C67	C	0.989119	-0.562446	0.000070
C68	C	1.489119	-0.062446	0.500070
C69	C	1.145813	0.108885	0.000092
C70	C	1.645813	0.608885	0.500092
C71	C	1.239059	0.110547	0.000094
C72	C	1.739059	0.610547	0.500094
C73	C	0.986120	0.268577	0.000069
C74	C	1.486120	0.768577	0.500069
C75	C	0.987782	0.361823	0.000063
C76	C	1.487782	0.861823	0.500063
N77	N	0.992218	0.115036	0.230758
N78	N	1.492218	0.615036	0.730758
N79	N	0.992276	0.114973	-0.230598
N80	N	1.492276	0.614973	0.269402
C81	C	0.932581	0.174636	0.470432
C82	C	1.432581	0.674636	0.970432
C83	C	1.008481	0.190943	0.529772
C84	C	1.508481	0.690943	1.029772
C85	C	0.992239	0.115015	0.412365
C86	C	1.492239	0.615015	0.912365
C87	C	0.916360	0.098727	0.529766
C88	C	1.416360	0.598727	1.029766
C89	C	0.992253	0.114997	0.587789
C90	C	1.492253	0.614997	1.087789
C91	C	1.068178	0.131360	0.470398
C92	C	1.568178	0.631360	0.970398
C93	C	0.976006	0.039111	0.470387
C94	C	1.476006	0.539111	0.970387
C95	C	1.051962	0.055386	0.529701
C96	C	1.551962	0.555386	1.029701
C97	C	0.992230	0.115028	0.311307
C98	C	1.492230	0.615028	0.811307
C99	C	0.992271	0.114984	0.688844
C100	C	1.492271	0.614984	1.188844
H101	H	0.449461	0.040295	-0.134642
H102	H	0.949461	0.540295	0.365358
H103	H	1.138919	-0.456457	0.000178
H104	H	1.638919	0.043543	0.500178
C105	C	0.541925	0.201633	-0.156459
C106	C	1.041925	0.701633	0.343541
H107	H	0.601417	0.202385	-0.155966
H108	H	1.101417	0.702385	0.344034
H109	H	0.514988	0.257910	-0.156652
H110	H	1.014988	0.757910	0.343348
H111	H	0.526042	0.173093	-0.208249
H112	H	1.026042	0.673093	0.291751
H113	H	1.066851	-0.342314	0.134941
H114	H	1.566851	0.157686	0.634941
C115	C	0.822095	-0.301661	0.000156
C116	C	1.322095	0.198339	0.500156
H117	H	0.793480	-0.317077	0.052091
H118	H	1.293480	0.182923	0.552091
H119	H	0.793075	-0.317839	-0.051181
H120	H	1.293075	0.182161	0.448819
H121	H	0.823775	-0.242295	-0.000367
H122	H	1.323775	0.257705	0.499633
C123	C	0.829669	0.080117	0.564996
C124	C	1.329669	0.580117	1.064996
H125	H	0.836341	0.030048	0.599786
H126	H	1.336341	0.530048	1.099786
H127	H	0.793228	0.072851	0.516254
H128	H	1.293228	0.572851	1.016254
H129	H	0.805960	0.125975	0.600698
H130	H	1.305960	0.625975	1.100698
C131	C	1.078893	-0.335114	-0.156270
C132	C	1.578893	0.164886	0.343730
H133	H	1.050075	-0.350463	-0.208096
H134	H	1.550075	0.149537	0.291904
H135	H	1.135028	-0.362409	-0.156790
H136	H	1.635028	0.137591	0.343210
H137	H	1.080053	-0.275681	-0.155371
H138	H	1.580053	0.224319	0.344629
C139	C	0.905568	-0.434816	-0.156284
C140	C	1.405568	0.065184	0.343716
H141	H	0.849124	-0.408299	-0.156194
H142	H	1.349124	0.091701	0.343806
H143	H	0.905290	-0.494360	-0.155979
H144	H	1.405290	0.005640	0.344021
H145	H	0.933766	-0.418514	-0.208122
H146	H	1.433766	0.081486	0.291878
H147	H	1.132368	0.145206	0.444430
H148	H	1.632368	0.645206	0.944430
C149	C	0.957409	-0.047562	0.435112
C150	C	1.457409	0.452438	0.935112
H151	H	0.903439	-0.059044	0.455402
H152	H	1.403439	0.440956	0.955402
H153	H	0.999241	-0.090033	0.456286
H154	H	1.499241	0.409967	0.956286
H155	H	0.958052	-0.047073	0.371875
H156	H	1.458052	0.452927	0.871875
C157	C	0.864500	0.242798	0.435263
C158	C	1.364500	0.742798	0.935263
H159	H	0.876182	0.296690	0.455597
H160	H	1.376182	0.796690	0.955597
H161	H	0.810699	0.231766	0.456461
H162	H	1.310699	0.731766	0.956461
H163	H	0.864634	0.242001	0.372026
H164	H	1.364634	0.742001	0.872026
H165	H	0.563905	-0.031573	-0.000005
H166	H	1.063905	0.468427	0.499995
C167	C	1.027042	0.277642	0.565024
C168	C	1.527042	0.777642	1.065024
H169	H	0.984598	0.319950	0.544738
H170	H	1.484598	0.819950	1.044738
H171	H	1.080541	0.289622	0.543827
H172	H	1.580541	0.789622	1.043827
H173	H	1.027417	0.276845	0.628261
H174	H	1.527417	0.776845	1.128261
C175	C	1.120190	-0.012745	0.564641
C176	C	1.620190	0.487255	1.064641
H177	H	1.094400	-0.052464	0.599449
H178	H	1.594400	0.447536	1.099449
H179	H	1.159340	0.013003	0.600249
H180	H	1.659340	0.513003	1.100249
H181	H	1.148915	-0.040816	0.515771
H182	H	1.648915	0.459184	1.015771
H183	H	0.535052	0.189659	0.134767
H184	H	1.035052	0.689659	0.634767
C185	C	0.409134	0.285261	-0.000037
C186	C	0.909134	0.785261	0.499963
H187	H	0.424652	0.313852	-0.051944
H188	H	0.924652	0.813852	0.448056
H189	H	0.425354	0.314217	0.051328
H190	H	0.925354	0.814217	0.551328
H191	H	0.349749	0.283719	0.000449
H192	H	0.849749	0.783719	0.500449
H193	H	0.449470	0.040332	0.134773
H194	H	0.949470	0.540332	0.634773
H195	H	0.917528	-0.427772	0.134794
H196	H	1.417528	0.072228	0.634794
