data_functionalizedCrystal
_audit_creation_method	'MofGen! by Chris Wilmer'
_symmetry_space_group_name_H-M	'P1'
_symmetry_Int_Tables_number	1
_symmetry_cell_setting	triclinic
loop_
_symmetry_equiv_pos_as_xyz
  x,y,z
_cell_length_a	12.759401
_cell_length_b	21.295420
_cell_length_c	21.295417
_cell_angle_alpha	89.996580
_cell_angle_beta	89.970434
_cell_angle_gamma	90.014655
loop_
_atom_site_label
_atom_site_type_symbol
_atom_site_fract_x
_atom_site_fract_y
_atom_site_fract_z
Zn1	Zn	1.606110	0.355888	0.250744
Zn2	Zn	1.605979	0.250619	0.355968
Zn3	Zn	1.430427	0.250637	0.250720
Zn4	Zn	1.430360	0.355855	0.355982
O5	O	1.518219	0.303250	0.303354
O6	O	1.753114	0.341930	0.264706
O7	O	1.582664	0.162532	0.341992
O8	O	1.453814	0.264619	0.162634
O9	O	1.753017	0.264590	0.342014
O10	O	1.582888	0.341947	0.162651
O11	O	1.453687	0.162545	0.264666
O12	O	1.283397	0.264588	0.264679
O13	O	1.453701	0.443949	0.342037
O14	O	1.283348	0.341892	0.342015
O15	O	1.582824	0.443973	0.264719
O16	O	1.582600	0.264559	0.444060
O17	O	1.453574	0.341875	0.444070
C18	C	1.245252	0.303239	0.303346
C19	C	1.128475	0.303249	0.303358
C20	C	0.963944	0.343589	0.263174
C21	C	1.073668	0.343582	0.263173
C22	C	1.073552	0.262924	0.343553
C23	C	0.963830	0.262935	0.343557
C24	C	0.964012	0.390155	0.216765
C25	C	1.073736	0.390148	0.216764
C26	C	1.518270	0.467440	0.303382
C27	C	1.518292	0.537408	0.303395
C28	C	1.585516	0.570288	0.263142
C29	C	1.585500	0.636031	0.263131
C30	C	1.518271	0.668891	0.303385
C31	C	1.451034	0.636003	0.343641
C32	C	1.451044	0.570262	0.343646
N33	N	1.510146	0.772110	0.358479
N34	N	1.510143	0.834561	0.358473
C35	C	1.518234	0.866965	0.303372
N36	N	1.526349	0.834559	0.248276
N37	N	1.526358	0.772102	0.248283
C38	C	1.518251	0.740176	0.303384
C39	C	1.585444	0.971131	0.263104
C40	C	1.585421	1.036875	0.263093
C41	C	1.450960	1.036846	0.343608
C42	C	1.450978	0.971103	0.343614
C43	C	1.518225	0.938250	0.303363
C44	C	1.792252	0.303261	0.303361
C45	C	1.909029	0.303266	0.303364
C46	C	1.518173	1.139698	0.303344
C47	C	1.518190	1.069730	0.303346
C48	C	1.518094	0.303225	0.466905
C49	C	1.518137	0.303236	0.536873
C50	C	1.585645	0.263116	1.036305
C51	C	1.585606	0.263099	0.970563
C52	C	1.518358	0.303314	0.937713
C53	C	1.451126	0.343538	0.970611
C54	C	1.451159	0.343549	1.036352
N55	N	1.510188	0.358394	0.834484
N56	N	1.510162	0.358381	0.772033
C57	C	1.518252	0.303281	0.739638
N58	N	1.526388	0.248193	0.772054
N59	N	1.526420	0.248207	0.834511
C60	C	1.518314	0.303306	0.866427
C61	C	1.585433	0.263039	0.635462
C62	C	1.585386	0.263021	0.569719
C63	C	1.450911	0.343465	0.569768
C64	C	1.450952	0.343478	0.635510
C65	C	1.518218	0.303265	0.668354
C66	C	1.518370	0.303297	1.139163
C67	C	1.518426	0.303337	1.069195
H68	H	1.103543	0.377169	0.167988
O69	O	1.385506	1.068733	0.382644
C70	C	1.206768	1.088788	0.413222
C71	C	1.280777	1.052643	0.368966
H72	H	1.122081	1.075783	0.402188
H73	H	1.218219	1.141431	0.406299
H74	H	1.225228	1.075877	0.463978
H75	H	1.262363	1.065502	0.318193
H76	H	1.269312	1.000009	0.375944
H77	H	0.930002	0.372778	0.170425
O78	O	1.650669	0.538315	0.223992
C79	C	1.664844	0.464154	0.138953
C80	C	1.590952	0.500309	0.183271
H81	H	1.616591	0.433428	0.106010
H82	H	1.719759	0.433335	0.167799
H83	H	1.712892	0.498974	0.110210
H84	H	1.542836	0.465535	0.212024
H85	H	1.536106	0.531138	0.154388
O86	O	1.650907	0.667882	0.224010
C87	C	1.784244	0.660978	0.144135
C88	C	1.710242	0.624831	0.188416
H89	H	1.832220	0.626187	0.115336
H90	H	1.839211	0.691749	0.173011
H91	H	1.736022	0.691765	0.111242
H92	H	1.758378	0.594010	0.221318
H93	H	1.655272	0.594099	0.159501
H94	H	0.919122	0.230105	0.376290
O95	O	1.114192	0.445408	0.237674
C96	C	1.077816	0.549220	0.277059
C97	C	1.031858	0.486681	0.253374
H98	H	1.011271	0.582602	0.289771
H99	H	1.128113	0.571195	0.238633
H100	H	1.128100	0.540143	0.320352
H101	H	0.981527	0.495704	0.210092
H102	H	0.981621	0.464725	0.291837
O103	O	1.126905	0.223834	0.382623
C104	C	1.250661	0.215210	0.467621
C105	C	1.190327	0.259551	0.423403
H106	H	1.301936	0.244070	0.500611
H107	H	1.302105	0.182352	0.438698
H108	H	1.192542	0.186376	0.496317
H109	H	1.248371	0.288425	0.394697
H110	H	1.138868	0.292367	0.452362
H111	H	0.934260	0.438889	0.229905
H112	H	1.396218	0.376232	0.662290
O113	O	1.385881	0.667948	0.382813
C114	C	1.371656	0.742195	0.467774
C115	C	1.445568	0.706047	0.423462
H116	H	1.419883	0.773017	0.500641
H117	H	1.323628	0.707426	0.496592
H118	H	1.316724	0.772936	0.438857
H119	H	1.500564	0.675305	0.452329
H120	H	1.493522	0.740849	0.394641
O121	O	1.385714	0.538416	0.382813
C122	C	1.252308	0.545325	0.462647
C123	C	1.326254	0.581469	0.418330
H124	H	1.204200	0.580117	0.491364
H125	H	1.300474	0.514578	0.495608
H126	H	1.197453	0.514513	0.433739
H127	H	1.381125	0.612315	0.447187
H128	H	1.278024	0.612176	0.385367
O129	O	1.385794	0.939189	0.382811
C130	C	1.334648	0.919096	0.489886
C131	C	1.408559	0.955265	0.445568
H132	H	1.353012	0.932090	0.540634
H133	H	1.346203	0.866457	0.483031
H134	H	1.249948	0.931998	0.478794
H135	H	1.493287	0.942415	0.456633
H136	H	1.396912	1.007895	0.452431
O137	O	1.650789	0.939310	0.223942
C138	C	1.784191	0.946276	0.144107
C139	C	1.710226	0.982388	0.188416
H140	H	1.832280	0.981089	0.115381
H141	H	1.736042	0.915502	0.111153
H142	H	1.839063	0.915494	0.173022
H143	H	1.655339	1.013204	0.159551
H144	H	1.758440	1.013123	0.221372
H145	H	1.640161	1.063644	0.230310
H146	H	1.640415	0.230370	1.063042
H147	H	1.640346	0.230345	0.943779
H148	H	1.396421	0.376304	1.063131
H149	H	1.396370	0.376281	0.943861
O150	O	1.650796	0.223915	0.667273
C151	C	1.784211	0.144149	0.660288
C152	C	1.710224	0.188415	0.624186
H153	H	1.832294	0.115446	0.625467
H154	H	1.736079	0.111173	0.691083
H155	H	1.839088	0.173097	0.691047
H156	H	1.655333	0.159519	0.593393
H157	H	1.758422	0.221393	0.593431
O158	O	1.650536	0.223879	0.537740
C159	C	1.664739	0.138907	0.463506
C160	C	1.590837	0.183186	0.499693
H161	H	1.616503	0.106003	0.432726
H162	H	1.712800	0.110125	0.498248
H163	H	1.719641	0.167847	0.432719
H164	H	1.535871	0.154294	0.530481
H165	H	1.542850	0.211969	0.464917
H166	H	1.396153	0.376206	0.543022
