data_functionalizedCrystal
_audit_creation_method	'MofGen! by Chris Wilmer'
_symmetry_space_group_name_H-M	'P1'
_symmetry_Int_Tables_number	1
_symmetry_cell_setting	triclinic
loop_
_symmetry_equiv_pos_as_xyz
  x,y,z
_cell_length_a	25.639243
_cell_length_b	12.759400
_cell_length_c	12.759393
_cell_angle_alpha	89.968436
_cell_angle_beta	89.975751
_cell_angle_gamma	90.017409
loop_
_atom_site_label
_atom_site_type_symbol
_atom_site_fract_x
_atom_site_fract_y
_atom_site_fract_z
Zn1	Zn	0.799355	-0.418128	-0.594143
Zn2	Zn	0.799303	-0.593847	-0.418463
Zn3	Zn	0.711919	-0.418191	-0.418464
Zn4	Zn	0.711913	-0.593774	-0.594087
O5	O	0.755622	-0.505985	-0.506289
O6	O	0.872513	-0.441442	-0.570861
O7	O	0.787691	-0.570602	-0.271442
O8	O	0.723542	-0.271161	-0.441793
O9	O	0.872475	-0.570542	-0.441790
O10	O	0.787781	-0.271115	-0.570863
O11	O	0.723491	-0.441549	-0.271443
O12	O	0.638753	-0.441478	-0.441738
O13	O	0.723532	-0.570417	-0.741115
O14	O	0.638749	-0.570478	-0.570767
O15	O	0.787775	-0.441371	-0.741156
O16	O	0.787686	-0.740858	-0.441736
O17	O	0.723481	-0.740804	-0.570766
C18	C	0.619780	-0.505978	-0.506247
C19	C	0.561666	-0.506000	-0.506255
C20	C	0.755591	-0.778952	-0.506267
C21	C	0.755626	-0.895729	-0.506293
C22	C	0.789094	-0.950584	-0.439181
C23	C	0.789126	-1.060308	-0.439214
C24	C	0.722217	-1.060312	-0.573472
C25	C	0.722188	-0.950590	-0.573444
C26	C	0.827722	-0.950582	-0.361665
C27	C	0.827754	-1.060306	-0.361697
C28	C	0.201317	-0.438868	-0.573609
C29	C	0.146713	-0.438867	-0.573615
O30	O	0.118489	-0.381770	-0.630830
N31	N	0.119383	-0.505982	-0.506318
C32	C	0.146661	-0.573094	-0.439002
O33	O	0.118401	-0.630179	-0.381761
C34	C	0.201264	-0.573089	-0.438991
C35	C	0.228591	-0.505977	-0.506300
C36	C	0.228644	-0.371761	-0.640911
C37	C	0.283245	-0.371764	-0.640906
C38	C	0.310518	-0.438873	-0.573598
C39	C	0.283191	-0.505980	-0.506295
C40	C	0.228541	-0.640195	-0.371671
C41	C	0.283148	-0.640183	-0.371666
C42	C	0.310474	-0.573072	-0.438975
C43	C	0.365066	-0.573092	-0.438982
N44	N	0.392395	-0.505977	-0.506279
C45	C	0.365122	-0.438868	-0.573587
C46	C	0.031990	-0.573099	-0.439029
C47	C	-0.022612	-0.573110	-0.439045
C48	C	-0.022556	-0.438881	-0.573656
C49	C	0.032047	-0.438876	-0.573645
C50	C	0.059320	-0.505984	-0.506327
C51	C	0.479787	-0.438879	-0.573571
C52	C	0.534392	-0.438891	-0.573563
C53	C	0.534331	-0.573115	-0.438948
C54	C	0.479731	-0.573108	-0.438959
C55	C	0.452460	-0.505981	-0.506275
O56	O	0.393325	-0.630157	-0.381793
O57	O	0.393388	-0.381782	-0.630809
C58	C	0.891995	-0.505993	-0.506332
C59	C	0.950109	-0.505996	-0.506350
C60	C	0.755659	-0.505879	-0.780323
C61	C	0.755675	-0.505834	-0.897099
C62	C	0.755668	-0.231951	-0.506334
C63	C	0.755687	-0.115175	-0.506353
C64	C	0.789131	-0.438633	-0.951984
C65	C	0.789143	-0.438595	-1.061709
C66	C	0.722242	-0.572968	-1.061653
C67	C	0.722227	-0.572999	-0.951931
C68	C	0.827757	-0.361057	-0.952018
C69	C	0.827770	-0.361019	-1.061742
C70	C	0.755616	-0.506015	-0.233322
C71	C	0.755702	-0.505764	-0.116546
H72	H	0.694940	-0.905928	-0.628101
H73	H	0.868264	-0.382808	-1.091528
C74	C	0.450278	-0.365967	-0.646777
C75	C	0.485906	-0.307228	-0.705731
C76	C	0.458742	-0.240068	-0.773194
H77	H	0.428972	-0.320042	-0.606798
H78	H	0.428995	-0.406188	-0.692547
H79	H	0.507180	-0.267009	-0.659967
H80	H	0.507213	-0.353125	-0.745731
H81	H	0.437459	-0.280289	-0.818964
H82	H	0.437436	-0.194150	-0.733207
H83	H	0.482911	-0.200212	-0.813209
H84	H	0.694994	-1.104993	-0.628146
H85	H	0.868203	-0.920721	-0.383524
C86	C	0.198950	-0.713226	-0.298642
C87	C	0.212238	-0.817201	-0.321310
C88	C	0.184997	-0.884508	-0.254041
H89	H	0.162514	-0.703773	-0.308204
H90	H	0.207901	-0.697816	-0.228066
H91	H	0.203283	-0.832606	-0.391870
H92	H	0.248669	-0.826687	-0.311742
H93	H	0.193948	-0.869098	-0.183464
H94	H	0.148562	-0.875046	-0.263608
H95	H	0.194012	-0.955061	-0.269405
C96	C	0.450029	-0.646104	-0.366064
C97	C	0.418690	-0.713527	-0.425433
C98	C	0.391331	-0.780787	-0.358310
H99	H	0.428684	-0.605978	-0.320335
H100	H	0.474077	-0.686137	-0.325996
H101	H	0.394645	-0.673498	-0.465483
H102	H	0.440022	-0.753676	-0.471159
H103	H	0.415379	-0.820820	-0.318243
H104	H	0.369989	-0.740652	-0.312585
H105	H	0.370068	-0.826547	-0.398583
H106	H	0.813228	-0.916636	-0.284336
C107	C	0.813414	-0.252541	-0.912267
C108	C	0.854344	-0.212956	-0.851396
C109	C	0.841152	-0.112993	-0.814772
H110	H	0.782701	-0.256846	-0.870828
H111	H	0.807425	-0.207268	-0.970161
H112	H	0.860327	-0.258217	-0.793511
H113	H	0.885062	-0.208625	-0.892813
H114	H	0.835163	-0.067720	-0.872666
H115	H	0.810438	-0.117308	-0.773338
H116	H	0.868922	-0.086118	-0.773476
C117	C	0.564044	-0.645855	-0.365909
C118	C	0.617711	-0.631461	-0.380295
C119	C	0.645099	-0.698434	-0.313014
H120	H	0.555156	-0.716511	-0.381087
H121	H	0.555111	-0.630379	-0.295324
H122	H	0.626639	-0.646944	-0.450864
H123	H	0.626614	-0.560819	-0.365110
H124	H	0.636167	-0.682958	-0.242429
H125	H	0.636207	-0.769086	-0.328197
H126	H	0.681515	-0.688670	-0.322759
C127	C	-0.052146	-0.366140	-0.646906
C128	C	-0.038856	-0.389147	-0.750820
C129	C	-0.066110	-0.322173	-0.818322
H130	H	-0.043215	-0.295493	-0.631786
H131	H	-0.088584	-0.375765	-0.637336
H132	H	-0.002427	-0.379512	-0.760384
H133	H	-0.047789	-0.459781	-0.765972
H134	H	-0.102548	-0.331799	-0.808753
H135	H	-0.057177	-0.251531	-0.803193
H136	H	-0.057101	-0.337780	-0.888835
C137	C	0.685874	-0.646057	-0.892529
C138	C	0.656595	-0.704883	-0.964036
C139	C	0.623102	-0.772201	-0.909354
H140	H	0.663052	-0.605979	-0.849732
H141	H	0.705841	-0.691914	-0.849737
H142	H	0.636629	-0.659032	-1.006810
H143	H	0.679403	-0.744982	-1.006835
H144	H	0.643069	-0.818058	-0.866562
H145	H	0.600283	-0.732114	-0.866559
H146	H	0.603235	-0.812129	-0.957863
H147	H	0.866225	-1.094247	-0.390917
H148	H	0.695009	-0.627649	-1.106310
H149	H	0.866212	-0.390222	-0.917989
H150	H	0.813281	-0.283711	-1.095787
H151	H	0.816937	-1.090170	-0.280314
H152	H	0.556639	-0.384239	-0.628377
H153	H	0.054192	-0.627755	-0.384213
C154	C	0.312815	-0.298770	-0.714013
C155	C	0.277234	-0.239983	-0.772928
C156	C	0.304450	-0.172712	-0.840273
H157	H	0.334126	-0.338880	-0.759819
H158	H	0.334098	-0.252887	-0.673917
H159	H	0.255959	-0.285860	-0.813020
H160	H	0.255922	-0.199851	-0.727149
H161	H	0.325734	-0.126829	-0.800178
H162	H	0.325760	-0.212830	-0.886073
H163	H	0.280313	-0.132810	-0.880248
H164	H	0.206444	-0.317107	-0.695722
C165	C	0.312784	-0.712876	-0.298447
C166	C	0.344115	-0.653313	-0.231186
C167	C	0.371416	-0.720241	-0.163717
H168	H	0.334129	-0.758725	-0.338429
H169	H	0.288701	-0.752822	-0.258306
H170	H	0.368195	-0.613385	-0.271322
H171	H	0.322783	-0.607466	-0.191180
H172	H	0.347334	-0.760187	-0.123576
H173	H	0.392759	-0.766087	-0.203708
H174	H	0.392674	-0.679837	-0.118066
C175	C	0.061742	-0.366182	-0.646848
C176	C	0.093090	-0.425740	-0.714099
C177	C	0.120444	-0.358807	-0.781557
H178	H	0.083079	-0.320331	-0.606857
H179	H	0.037690	-0.326238	-0.686996
H180	H	0.117139	-0.465666	-0.673955
H181	H	0.071766	-0.471589	-0.754112
H182	H	0.096393	-0.318864	-0.821706
H183	H	0.141779	-0.312960	-0.741559
H184	H	0.141714	-0.399208	-0.827202
H185	H	-0.044857	-0.627770	-0.384247
