data_functionalizedCrystal
_audit_creation_method	'MofGen! by Chris Wilmer'
_symmetry_space_group_name_H-M	'P1'
_symmetry_Int_Tables_number	1
_symmetry_cell_setting	triclinic
loop_
_symmetry_equiv_pos_as_xyz
  x,y,z
_cell_length_a	8.559649
_cell_length_b	13.339070
_cell_length_c	7.088929
_cell_angle_alpha	82.086468
_cell_angle_beta	95.325015
_cell_angle_gamma	92.703979
loop_
_atom_site_label
_atom_site_type_symbol
_atom_site_fract_x
_atom_site_fract_y
_atom_site_fract_z
O1	O	2.094022	-0.021893	-0.158958
O2	O	1.651208	0.028612	-0.158966
O3	O	1.821795	-0.139956	-0.158957
O4	O	1.923436	0.146675	-0.158966
O5	O	1.844572	-0.162529	0.159019
O6	O	1.673985	0.006039	0.159011
O7	O	2.116799	-0.044466	0.159019
Cu8	Cu	1.897472	-0.021275	0.188048
Cu9	Cu	1.870536	0.005420	-0.187995
O10	O	1.946213	0.124102	0.159010
C11	C	1.604764	0.021153	0.000021
C12	C	1.432434	0.032546	0.000018
C13	C	1.816014	-0.187598	0.000028
C14	C	1.764836	-0.295923	0.000020
C15	C	2.162764	-0.691632	0.000028
C16	C	2.210854	-0.589856	0.000047
C17	C	2.099354	-0.516368	0.000039
C18	C	1.939755	-0.544665	0.000014
C19	C	1.891662	-0.646451	0.000011
C20	C	1.828251	-0.471188	0.000022
C21	C	1.668653	-0.499485	-0.000003
C22	C	1.620567	-0.601262	-0.000008
C23	C	1.732068	-0.674750	-0.000001
C24	C	1.876345	-0.369402	0.000026
C25	C	1.605242	-0.324221	0.000008
C26	C	1.557152	-0.425997	-0.000011
C27	C	2.163243	-0.037007	0.000027
C28	C	2.335572	-0.048399	0.000018
C29	C	1.951993	0.171744	0.000020
C30	C	2.003170	0.280070	0.000017
N31	N	1.916429	-0.040052	0.452537
N32	N	1.851588	0.024189	-0.452484
H33	H	1.384481	-0.126415	0.000011
H34	H	1.383518	0.110568	0.000005
C35	C	2.007230	-0.129990	0.562829
H36	H	2.045866	-0.168259	0.474679
H37	H	1.939106	-0.171842	0.640936
H38	H	2.092762	-0.105346	0.640896
H39	H	1.427204	-0.449051	-0.000030
H40	H	2.006290	-0.346373	0.000047
H41	H	1.784385	0.090762	0.465866
H42	H	2.138518	-0.433499	0.000055
C43	C	2.285394	-0.772466	0.000043
H44	H	2.233890	-0.837133	0.000029
H45	H	2.356910	-0.772942	0.110932
H46	H	2.341028	-0.757199	-0.110853
C47	C	1.679173	-0.786705	-0.000010
H48	H	1.768440	-0.826415	0.000003
H49	H	1.610289	-0.793515	-0.110895
H50	H	1.626182	-0.809262	0.110890
C51	C	1.445018	-0.632393	-0.000024
H52	H	1.432348	-0.703535	-0.000011
H53	H	1.389265	-0.598557	-0.110913
H54	H	1.405145	-0.614305	0.110872
C55	C	1.482582	-0.243394	-0.000016
H56	H	1.534080	-0.178723	-0.000033
H57	H	1.426940	-0.258658	0.110862
H58	H	1.411073	-0.242920	-0.110923
H59	H	2.340799	-0.566825	0.000070
