data_functionalizedCrystal
_audit_creation_method	'MofGen! by Chris Wilmer'
_symmetry_space_group_name_H-M	'P1'
_symmetry_Int_Tables_number	1
_symmetry_cell_setting	triclinic
loop_
_symmetry_equiv_pos_as_xyz
  x,y,z
_cell_length_a	6.394989
_cell_length_b	8.597340
_cell_length_c	7.088929
_cell_angle_alpha	103.954719
_cell_angle_beta	96.401883
_cell_angle_gamma	94.092678
loop_
_atom_site_label
_atom_site_type_symbol
_atom_site_fract_x
_atom_site_fract_y
_atom_site_fract_z
O1	O	-0.286851	2.107138	0.188135
O2	O	-0.320947	1.643141	0.111698
O3	O	0.000177	1.881726	0.151000
O4	O	-0.607975	1.868554	0.148833
O5	O	0.043189	1.913608	0.474227
O6	O	-0.277935	1.675024	0.434925
O7	O	-0.243839	2.139021	0.511362
Cu8	Cu	-0.256960	1.909933	0.502657
Cu9	Cu	-0.307826	1.872229	0.120403
O10	O	-0.564963	1.900436	0.472060
C11	C	-0.298176	1.599594	0.263512
C12	C	-0.294380	1.422336	0.234311
N13	N	-0.221182	1.936464	0.771515
C14	C	0.099499	1.895062	0.312177
C15	C	0.335719	1.887102	0.310864
C16	C	-0.266611	2.182568	0.359544
C17	C	-0.270409	2.359824	0.388733
N18	N	-0.343588	1.845710	-0.148453
H19	H	-0.252775	1.441914	0.543288
H20	H	-0.094340	2.030539	0.868668
H21	H	-0.312000	1.340238	0.079746
Cl22	Cl	-0.539437	1.700489	0.701572
