data_functionalizedCrystal
_audit_creation_method	'MofGen! by Chris Wilmer'
_symmetry_space_group_name_H-M	'P1'
_symmetry_Int_Tables_number	1
_symmetry_cell_setting	triclinic
loop_
_symmetry_equiv_pos_as_xyz
  x,y,z
_cell_length_a	10.723022
_cell_length_b	19.188924
_cell_length_c	9.198806
_cell_angle_alpha	89.994752
_cell_angle_beta	89.996352
_cell_angle_gamma	83.804595
loop_
_atom_site_label
_atom_site_type_symbol
_atom_site_fract_x
_atom_site_fract_y
_atom_site_fract_z
O1	O	1.655152	0.097917	-0.120890
O2	O	1.291804	0.107291	-0.120896
O3	O	1.483968	0.001016	-0.120876
O4	O	1.462988	0.204192	-0.120911
O5	O	1.483953	0.001016	0.120909
O6	O	1.291789	0.107291	0.120889
O7	O	1.655137	0.097917	0.120895
Cu8	Cu	1.473462	0.102604	0.142969
Cu9	Cu	1.473480	0.102604	-0.142970
O10	O	1.462973	0.204192	0.120874
C11	C	1.245311	0.106609	-0.000004
C12	C	1.106799	0.104569	-0.000006
C13	C	0.887428	0.161924	-0.000018
C14	C	1.030587	0.164035	-0.000017
C15	C	1.483283	-0.024999	0.000018
C16	C	1.481247	-0.102517	0.000022
C17	C	1.480306	-0.138922	-0.131776
C18	C	1.478376	-0.211757	-0.131787
C19	C	1.477413	-0.248187	0.000007
C20	C	1.478347	-0.211773	0.131822
C21	C	1.480265	-0.138938	0.131829
N22	N	1.545403	-0.367408	0.098099
N23	N	1.543585	-0.436599	0.098083
C24	C	1.471633	-0.467633	-0.000007
N25	N	1.401584	-0.426865	-0.098103
N26	N	1.403409	-0.357669	-0.098091
C27	C	1.475333	-0.327164	0.000014
C28	C	1.468597	-0.583014	-0.131825
C29	C	1.466659	-0.655851	-0.131831
C30	C	1.466643	-0.655865	0.131781
C31	C	1.468568	-0.583030	0.131783
C32	C	1.469551	-0.546609	-0.000024
C33	C	1.701630	0.098599	-0.000001
C34	C	1.840142	0.100639	-0.000009
C35	C	1.463659	0.230207	-0.000023
C36	C	1.465694	0.307725	-0.000036
N37	N	1.473458	0.102603	0.344083
N38	N	1.473493	0.102599	-0.344084
C39	C	1.554146	0.057785	0.416288
C40	C	1.554166	0.057782	0.583700
H41	H	1.066088	0.052094	-0.000036
H42	H	0.905643	0.049733	-0.000008
Cl43	Cl	1.481532	-0.093140	-0.297476
H44	H	1.404413	0.140975	0.593832
H45	H	1.623251	0.019414	0.645794
H46	H	1.469390	-0.553359	-0.239151
H47	H	1.481026	-0.109297	0.239158
H48	H	1.469345	-0.553389	0.239107
H49	H	0.821927	0.212830	-0.000036
Cl50	Cl	1.366814	0.161842	0.439982
H51	H	1.623209	0.019412	0.354169
H52	H	1.071307	0.216506	-0.000017
H53	H	1.465886	-0.685490	-0.239161
H54	H	1.465849	-0.685524	0.239090
H55	H	1.477601	-0.241404	-0.239115
H56	H	1.477559	-0.241438	0.239129
