data_functionalizedCrystal
_audit_creation_method	'MofGen! by Chris Wilmer'
_symmetry_space_group_name_H-M	'P1'
_symmetry_Int_Tables_number	1
_symmetry_cell_setting	triclinic
loop_
_symmetry_equiv_pos_as_xyz
  x,y,z
_cell_length_a	17.699104
_cell_length_b	17.699083
_cell_length_c	9.130313
_cell_angle_alpha	90.009359
_cell_angle_beta	90.000041
_cell_angle_gamma	83.287266
loop_
_atom_site_label
_atom_site_type_symbol
_atom_site_fract_x
_atom_site_fract_y
_atom_site_fract_z
O1	O	1.004059	0.095791	0.121832
O2	O	1.504059	0.595791	0.621832
O3	O	0.783683	0.108227	0.121829
O4	O	1.283683	0.608227	0.621829
O5	O	0.900097	-0.008180	0.121817
O6	O	1.400097	0.491820	0.621817
O7	O	0.887645	0.212198	0.121843
O8	O	1.387645	0.712198	0.621843
O9	O	0.900100	-0.008193	-0.121781
O10	O	1.400100	0.491807	0.378219
O11	O	0.783686	0.108214	-0.121770
O12	O	1.283686	0.608214	0.378230
O13	O	1.004062	0.095778	-0.121767
O14	O	1.504062	0.595778	0.378233
Cu15	Cu	0.893874	0.101995	-0.144011
Cu16	Cu	1.393874	0.601995	0.355989
Cu17	Cu	0.893871	0.102010	0.144073
Cu18	Cu	1.393871	0.602010	0.644073
O19	O	0.887648	0.212185	-0.121756
O20	O	1.387648	0.712185	0.378244
C21	C	0.755488	0.107772	0.000029
C22	C	1.255488	0.607772	0.500029
C23	C	0.671471	0.106427	0.000027
C24	C	1.171471	0.606427	0.500027
C25	C	0.146600	0.167171	0.000050
C26	C	0.646600	0.667171	0.500050
C27	C	0.225543	0.168430	0.000054
C28	C	0.725543	0.668430	0.500054
C29	C	0.274161	0.100095	0.000046
C30	C	0.774161	0.600095	0.500046
C31	C	0.243831	0.030496	0.000048
C32	C	0.743831	0.530496	0.500048
C33	C	0.164889	0.029238	0.000054
C34	C	0.664889	0.529238	0.500054
C35	C	0.562197	0.035569	0.000025
C36	C	1.062197	0.535569	0.500025
C37	C	0.641144	0.036833	0.000014
C38	C	1.141144	0.536833	0.500014
C39	C	0.622852	0.174762	0.000025
C40	C	1.122852	0.674762	0.500025
C41	C	0.543909	0.173503	0.000031
C42	C	1.043909	0.673503	0.500031
C43	C	0.513587	0.103905	0.000041
C44	C	1.013587	0.603905	0.500041
C45	C	0.427987	0.102541	0.000039
C46	C	0.927987	0.602541	0.500039
C47	C	0.359759	0.101459	0.000037
C48	C	0.859759	0.601459	0.500037
C49	C	0.899653	-0.036383	0.000018
C50	C	1.399653	0.463617	0.500018
C51	C	0.898314	-0.120402	0.000017
C52	C	1.398314	0.379598	0.500017
C53	C	0.966647	-0.169017	0.000016
C54	C	1.466647	0.330983	0.500016
C55	C	0.965385	-0.247961	0.000029
C56	C	1.465385	0.252039	0.500029
C57	C	0.895789	-0.278287	0.000033
C58	C	1.395789	0.221713	0.500033
C59	C	0.827451	-0.229665	0.000038
C60	C	1.327451	0.270335	0.500038
C61	C	0.828714	-0.150723	0.000036
C62	C	1.328714	0.349277	0.500036
C63	C	0.822356	-0.548028	0.000050
C64	C	1.322356	-0.048028	0.500050
C65	C	0.821098	-0.626976	0.000048
C66	C	1.321098	-0.126976	0.500048
C67	C	0.959026	-0.645266	0.000043
C68	C	1.459026	-0.145266	0.500043
C69	C	0.960289	-0.566324	0.000041
C70	C	1.460289	-0.066324	0.500041
C71	C	0.891952	-0.517709	0.000054
C72	C	1.391952	-0.017709	0.500054
C73	C	0.893321	-0.432110	0.000043
C74	C	1.393321	0.067890	0.500043
C75	C	0.894419	-0.363885	0.000033
C76	C	1.394419	0.136115	0.500033
C77	C	1.032258	0.096233	0.000036
C78	C	1.532258	0.596233	0.500036
C79	C	1.116275	0.097578	0.000047
C80	C	1.616275	0.597578	0.500047
N81	N	0.893882	0.101983	-0.346634
N82	N	1.393882	0.601983	0.153366
C83	C	0.888093	0.240388	0.000047
C84	C	1.388093	0.740388	0.500047
C85	C	0.889431	0.324406	0.000057
C86	C	1.389431	0.824406	0.500057
N87	N	0.893869	0.102016	0.346695
N88	N	1.393869	0.602016	0.846695
C89	C	0.848154	0.056062	0.423331
C90	C	1.348154	0.556062	0.923331
C91	C	0.848162	0.056044	0.576668
C92	C	1.348162	0.556044	1.076668
C93	C	0.939603	0.147938	0.576720
C94	C	1.439603	0.647938	1.076720
C95	C	0.939598	0.147952	0.423386
C96	C	1.439598	0.647952	0.923386
H97	H	0.647550	0.231432	0.000023
H98	H	1.147550	0.731432	0.500023
H99	H	1.016961	-0.541638	0.000031
H100	H	1.516961	-0.041638	0.500031
C101	C	0.989901	0.198467	0.661077
C102	C	1.489901	0.698467	1.161077
H103	H	1.017133	0.225831	0.593471
H104	H	1.517133	0.725831	1.093471
H105	H	0.958769	0.233282	0.720922
H106	H	1.458769	0.733282	1.220922
H107	H	1.024844	0.167455	0.720865
H108	H	1.524844	0.667455	1.220865
H109	H	0.250230	0.225100	0.000069
H110	H	0.750230	0.725100	0.500069
C111	C	0.989885	0.198506	0.339081
C112	C	1.489885	0.698506	0.839081
H113	H	1.017112	0.225870	0.406714
H114	H	1.517112	0.725870	0.906714
H115	H	1.024822	0.167513	0.279241
H116	H	1.524822	0.667513	0.779241
H117	H	0.958739	0.233332	0.279293
H118	H	1.458739	0.733332	0.779293
H119	H	0.283422	-0.025143	0.000050
H120	H	0.783422	0.474857	0.500050
C121	C	1.043203	-0.135666	0.000012
C122	C	1.543203	0.364334	0.500012
H123	H	1.083718	-0.175929	0.000027
H124	H	1.583718	0.324071	0.500027
H125	H	1.046566	-0.105258	-0.084936
H126	H	1.546566	0.394742	0.415064
H127	H	1.046561	-0.105244	0.084972
H128	H	1.546561	0.394756	0.584972
C129	C	1.040549	-0.301438	0.000043
C130	C	1.540549	0.198562	0.500043
H131	H	1.029831	-0.352797	0.000068
H132	H	1.529831	0.147203	0.500068
H133	H	1.069098	-0.292274	-0.084903
H134	H	1.569098	0.207726	0.415097
H135	H	1.069085	-0.292244	0.085004
H136	H	1.569085	0.207756	0.585004
C137	C	0.093127	0.242341	0.000067
C138	C	0.593127	0.742341	0.500067
H139	H	0.122497	0.283968	0.000085
H140	H	0.622497	0.783968	0.500085
H141	H	0.061947	0.244718	-0.084875
H142	H	0.561947	0.744718	0.415125
H143	H	0.061956	0.244718	0.085032
H144	H	0.561956	0.744718	0.585032
C145	C	0.131531	-0.047315	0.000047
C146	C	0.631531	0.452685	0.500047
H147	H	0.171791	-0.087833	0.000029
H148	H	0.671791	0.412167	0.500029
H149	H	0.101117	-0.050667	0.084998
H150	H	0.601117	0.449333	0.584998
H151	H	0.101115	-0.050678	-0.084909
H152	H	0.601115	0.449322	0.415091
H153	H	0.504328	0.229149	0.000030
H154	H	1.004328	0.729149	0.500030
H155	H	0.810919	0.018657	0.360894
H156	H	1.310919	0.518657	0.860894
C157	C	0.694623	-0.038339	0.000025
C158	C	1.194623	0.461661	0.500025
H159	H	0.665258	-0.079970	0.000049
H160	H	1.165258	0.420030	0.500049
H161	H	0.725799	-0.040726	-0.084924
H162	H	1.225799	0.459274	0.415076
H163	H	0.725797	-0.040700	0.084984
H164	H	1.225797	0.459300	0.584984
H165	H	0.537518	-0.021102	0.000029
H166	H	1.037518	0.478898	0.500029
H167	H	0.770785	-0.254362	0.000050
H168	H	1.270785	0.245638	0.500050
H169	H	1.014670	-0.684858	0.000040
H170	H	1.514670	-0.184858	0.500040
C171	C	0.744539	-0.660333	0.000071
C172	C	1.244539	-0.160333	0.500071
H173	H	0.704020	-0.620074	0.000095
H174	H	1.204020	-0.120074	0.500095
H175	H	0.741175	-0.690756	-0.084874
H176	H	1.241175	-0.190756	0.415126
H177	H	0.741189	-0.690741	0.085033
H178	H	1.241189	-0.190741	0.585033
C179	C	0.747188	-0.494562	0.000039
C180	C	1.247188	0.005438	0.500039
H181	H	0.705560	-0.523931	0.000021
H182	H	1.205560	-0.023931	0.500021
H183	H	0.744804	-0.463376	0.084983
H184	H	1.244804	0.036624	0.584983
H185	H	0.744817	-0.463397	-0.084924
H186	H	1.244817	0.036603	0.415076
H187	H	0.773070	-0.111140	0.000037
H188	H	1.273070	0.388860	0.500037
C189	C	0.797857	0.005516	0.660967
C190	C	1.297857	0.505516	1.160967
H191	H	0.804408	0.012084	0.763272
H192	H	1.304408	0.512084	1.263272
H193	H	0.746037	0.019565	0.635837
H194	H	1.246037	0.519565	1.135837
H195	H	0.812098	-0.046277	0.635815
H196	H	1.312098	0.453723	1.135815
