data_functionalizedCrystal
_audit_creation_method	'MofGen! by Chris Wilmer'
_symmetry_space_group_name_H-M	'P1'
_symmetry_Int_Tables_number	1
_symmetry_cell_setting	triclinic
loop_
_symmetry_equiv_pos_as_xyz
  x,y,z
_cell_length_a	17.000383
_cell_length_b	17.038272
_cell_length_c	7.088929
_cell_angle_alpha	96.674532
_cell_angle_beta	84.295322
_cell_angle_gamma	83.355929
loop_
_atom_site_label
_atom_site_type_symbol
_atom_site_fract_x
_atom_site_fract_y
_atom_site_fract_z
O1	O	1.050402	0.036618	0.159120
O2	O	0.820584	0.064860	0.159096
O3	O	0.934128	-0.062983	0.159092
O4	O	0.936858	0.164462	0.159123
O5	O	0.949299	-0.080105	-0.158883
O6	O	0.835755	0.047739	-0.158880
O7	O	1.065574	0.019497	-0.158856
Cu8	Cu	0.952050	0.032055	-0.187902
Cu9	Cu	0.934108	0.052302	0.188141
O10	O	0.952030	0.147341	-0.158853
C11	C	0.798619	0.057816	0.000104
C12	C	0.710566	0.062326	0.000095
C13	C	0.212318	0.091454	0.000170
C14	C	0.295053	0.087210	0.000168
C15	C	0.341061	0.013542	0.000144
C16	C	0.304328	-0.055884	0.000141
C17	C	0.221593	-0.051639	0.000156
C18	C	0.591098	-0.002855	0.000108
C19	C	0.673839	-0.007096	0.000086
C20	C	0.664558	0.135999	0.000117
C21	C	0.581823	0.140237	0.000121
C22	C	0.545096	0.070811	0.000128
C23	C	0.425630	0.009202	0.000135
C24	C	0.460528	0.075153	0.000150
C25	C	0.939229	-0.100502	0.000104
C26	C	0.931816	-0.186787	0.000104
C27	C	0.999874	-0.241562	0.000109
C28	C	0.992903	-0.322634	0.000127
C29	C	0.917875	-0.348931	0.000125
C30	C	0.849811	-0.294149	0.000126
C31	C	0.856782	-0.213078	0.000122
C32	C	0.893248	-0.593001	0.000149
C33	C	0.886282	-0.674080	0.000147
C34	C	1.029375	-0.702559	0.000151
C35	C	1.036340	-0.621485	0.000136
C36	C	0.968276	-0.566710	0.000147
C37	C	0.910748	-0.431800	0.000137
C38	C	0.975403	-0.483842	0.000149
C39	C	1.087538	0.026541	0.000139
C40	C	1.175590	0.022032	0.000161
C41	C	0.946928	0.184860	0.000139
C42	C	0.954340	0.271146	0.000152
N43	N	0.964675	0.017813	-0.452390
N44	N	0.921488	0.066538	0.452630
H45	H	0.341794	-0.115865	0.000132
H46	H	1.036489	-0.462426	0.000192
Br47	Br	0.398087	0.175128	0.000202
Br48	Br	0.488077	-0.090773	0.000087
Br49	Br	1.085273	-0.396970	0.000134
H50	H	0.876730	0.117031	-0.465723
Br51	Br	1.138166	-0.585800	0.000199
Br52	Br	1.039293	-0.066343	-0.588477
Br53	Br	1.101705	-0.205884	0.000084
Br54	Br	0.171748	-0.145857	0.000152
H55	H	0.324951	0.143741	0.000193
Br56	Br	0.714404	0.230215	0.000119
Br57	Br	0.736279	-0.107080	0.000050
Br58	Br	1.121742	-0.776899	0.000137
H59	H	0.174864	0.151441	0.000175
H60	H	0.849659	-0.453220	0.000132
H61	H	0.544368	0.200226	0.000147
Br62	Br	0.784452	-0.709768	0.000125
Br63	Br	0.800874	-0.518673	0.000176
H64	H	0.561206	-0.059387	0.000108
Br65	Br	0.747983	-0.329835	0.000156
H66	H	0.801362	-0.168480	0.000118
