data_functionalizedCrystal
_audit_creation_method	'MofGen! by Chris Wilmer'
_symmetry_space_group_name_H-M	'P1'
_symmetry_Int_Tables_number	1
_symmetry_cell_setting	triclinic
loop_
_symmetry_equiv_pos_as_xyz
  x,y,z
_cell_length_a	6.817900
_cell_length_b	10.943632
_cell_length_c	10.943624
_cell_angle_alpha	91.771060
_cell_angle_beta	108.838799
_cell_angle_gamma	108.838880
loop_
_atom_site_label
_atom_site_type_symbol
_atom_site_fract_x
_atom_site_fract_y
_atom_site_fract_z
V1	V	-4.115495	-0.178596	-0.402520
O2	O	-4.073204	0.008617	-0.394890
O3	O	-4.093445	-0.354159	-0.399737
O4	O	-4.093458	-0.175834	-0.578087
O5	O	-4.073192	-0.170943	-0.215305
V6	V	-4.592293	-0.156205	-0.380131
O7	O	-4.391506	-0.227713	-0.451632
O8	O	-4.766479	-0.107088	-0.331020
O9	O	-4.391136	0.019358	-0.382915
O10	O	-4.751980	-0.343418	-0.387762
O11	O	-4.751993	-0.163858	-0.567347
O12	O	-4.391123	-0.158967	-0.204564
C13	C	-3.944003	-0.396958	-0.393379
C14	C	-4.007438	-0.540484	-0.392273
C15	C	-3.944018	-0.169484	-0.620881
C16	C	-4.007457	-0.168388	-0.764408
C17	C	-3.852284	-0.617637	-0.384920
C18	C	-3.931120	-0.690292	-0.280695
C19	C	-4.041658	-0.723567	-0.494542
C20	C	-4.085393	-0.611235	-0.287974
C21	C	-4.195950	-0.644516	-0.501916
C22	C	-4.274895	-0.717134	-0.397670
C23	C	-3.852287	-0.161001	-0.841556
C24	C	-4.041646	-0.270645	-0.947527
C25	C	-3.931164	-0.056801	-0.914178
C26	C	-4.196026	-0.278134	-0.868502
C27	C	-4.085465	-0.064194	-0.835129
C28	C	-4.274960	-0.173869	-0.941070
C29	C	-4.203920	0.062151	-0.389269
C30	C	-4.119726	0.205675	-0.390383
C31	C	-4.203905	-0.165321	-0.161764
C32	C	-4.119703	-0.166411	-0.018236
H33	H	-3.672971	-0.574154	-0.379408
H34	H	-3.819816	0.036718	-0.934956
O35	O	-4.343313	-0.617010	-0.625842
H36	H	-4.518355	-0.658695	-0.631931
H37	H	-4.023738	-0.772480	-0.581812
H38	H	-3.819813	-0.711058	-0.187152
O39	O	-4.017984	-0.386241	-1.012371
H40	H	-3.957178	-0.444141	-0.937184
O41	O	-3.614915	-0.153978	-0.783983
H42	H	-3.596722	-0.239846	-0.829426
H43	H	-4.454274	-0.179336	-0.984314
O44	O	-4.109001	-0.546662	-0.172206
H45	H	-4.061258	-0.439856	-0.173884
H46	H	-4.307409	-0.371779	-0.847941
O47	O	-4.109011	0.051414	-0.770244
H48	H	-3.998216	0.143132	-0.787897
H49	H	-4.454151	-0.760358	-0.403023
