data_functionalizedCrystal
_audit_creation_method	'MofGen! by Chris Wilmer'
_symmetry_space_group_name_H-M	'P1'
_symmetry_Int_Tables_number	1
_symmetry_cell_setting	triclinic
loop_
_symmetry_equiv_pos_as_xyz
  x,y,z
_cell_length_a	19.077312
_cell_length_b	19.077114
_cell_length_c	11.169409
_cell_angle_alpha	92.261111
_cell_angle_beta	87.724224
_cell_angle_gamma	90.057731
loop_
_atom_site_label
_atom_site_type_symbol
_atom_site_fract_x
_atom_site_fract_y
_atom_site_fract_z
Zn1	Zn	1.062971	0.322785	0.627834
Zn2	Zn	1.058147	0.440311	0.435511
Zn3	Zn	0.945459	0.318112	0.434893
Zn4	Zn	0.940708	0.435541	0.643869
O5	O	1.001821	0.379187	0.535527
O6	O	1.160658	0.342327	0.595870
O7	O	1.043168	0.424142	0.267484
O8	O	0.965054	0.220402	0.453518
O9	O	1.157114	0.428673	0.454571
O10	O	1.051390	0.223835	0.595271
O11	O	0.960377	0.334363	0.267030
O12	O	0.846501	0.329737	0.469066
O13	O	0.956957	0.420543	0.809687
O14	O	0.843011	0.416012	0.622600
O15	O	1.046783	0.337702	0.797906
O16	O	1.038561	0.538008	0.470120
O17	O	0.952280	0.534504	0.623199
C18	C	0.819261	0.371850	0.547507
C19	C	0.741160	0.368728	0.552662
C20	C	0.301736	0.346281	0.589641
C21	C	0.375120	0.349227	0.584792
C22	C	0.409960	0.395582	0.508671
C23	C	0.371413	0.438999	0.437403
C24	C	0.298031	0.436056	0.442260
C25	C	0.629231	0.409202	0.486250
C26	C	0.702618	0.412140	0.481397
C27	C	0.706320	0.322369	0.628788
C28	C	0.632936	0.319427	0.633632
C29	C	0.594396	0.362846	0.562369
N30	N	0.484970	0.398594	0.503710
N31	N	0.519387	0.359838	0.567338
C32	C	0.994401	0.561753	0.548492
C33	C	0.991290	0.639857	0.554074
C34	C	1.034786	0.678354	0.477057
C35	C	1.031865	0.751742	0.482314
C36	C	0.985444	0.786631	0.564583
C37	C	0.941946	0.748130	0.641608
C38	C	0.944871	0.674743	0.636356
C39	C	0.971877	1.005919	0.588836
C40	C	0.968954	1.079311	0.594080
C41	C	1.058874	1.082918	0.434788
C42	C	1.061792	1.009530	0.429538
C43	C	1.018297	0.971035	0.506567
N44	N	0.982455	0.861645	0.569956
N45	N	1.021290	0.896022	0.501199
C46	C	1.185094	0.386554	0.523501
C47	C	1.263194	0.389693	0.518376
C48	C	1.001878	0.379112	0.848561
C49	C	1.001903	0.379079	0.981957
C50	C	1.009284	1.195910	0.522553
C51	C	1.012449	1.117807	0.517064
C52	C	1.001807	0.379214	0.223705
C53	C	1.001927	0.379054	0.090287
H54	H	0.730983	0.449891	0.419408
C55	C	0.632954	0.498219	0.340057
C56	C	0.586873	0.456918	0.407903
H57	H	0.606800	0.527674	0.291680
H58	H	0.660497	0.526283	0.392285
H59	H	0.662808	0.468708	0.290179
H60	H	0.557023	0.486430	0.457789
H61	H	0.559318	0.428852	0.355669
C62	C	0.730365	0.289195	0.828193
C63	C	0.748685	0.274651	0.707129
H64	H	0.756517	0.259733	0.876561
H65	H	0.740481	0.336897	0.848164
H66	H	0.681674	0.280807	0.841961
H67	H	0.797375	0.283045	0.693359
H68	H	0.738574	0.226939	0.687151
C69	C	0.550864	0.306473	0.799877
C70	C	0.594644	0.268476	0.717317
H71	H	0.527222	0.275015	0.851534
H72	H	0.578263	0.338263	0.845969
H73	H	0.517408	0.331901	0.758114
H74	H	0.628103	0.243052	0.759079
H75	H	0.567243	0.236673	0.671219
H76	H	0.399786	0.476745	0.375429
C77	C	1.074892	0.927476	0.261559
C78	C	1.112822	0.971186	0.339104
H79	H	1.106396	0.903810	0.205721
H80	H	1.049415	0.894046	0.306673
H81	H	1.043149	0.954934	0.219678
H82	H	1.144562	0.943727	0.380992
H83	H	1.138311	1.004621	0.293985
H84	H	0.931160	1.107716	0.661094
H85	H	0.266651	0.471408	0.384231
H86	H	0.273375	0.308529	0.651619
C87	C	0.938472	0.981895	0.792644
C88	C	0.924055	0.963617	0.673492
H89	H	0.908940	0.955781	0.844905
H90	H	0.986149	0.971704	0.806318
H91	H	0.930091	1.030597	0.807520
H92	H	0.932440	0.914915	0.658614
H93	H	0.876366	0.973803	0.659813
H94	H	1.072584	0.649951	0.410060
C95	C	1.121029	0.747935	0.324321
C96	C	1.079673	0.794057	0.397648
H97	H	1.150542	0.774060	0.272045
H98	H	1.149035	0.720342	0.372830
H99	H	1.091557	0.718132	0.278342
H100	H	1.109146	0.823857	0.443634
H101	H	1.051665	0.821662	0.349134
H102	H	1.094286	1.114268	0.372077
C103	C	0.489253	0.313884	0.642806
C104	C	0.417486	0.301509	0.663129
H105	H	0.515406	0.284427	0.691179
H106	H	0.501670	0.304025	0.560679
H107	H	0.499355	0.361593	0.662797
H108	H	0.407383	0.253801	0.643130
H109	H	0.405064	0.311363	0.745274
H110	H	0.904152	0.776543	0.708598
H111	H	0.909453	0.643400	0.699072
