data_functionalizedCrystal
_audit_creation_method	'MofGen! by Chris Wilmer'
_symmetry_space_group_name_H-M	'P1'
_symmetry_Int_Tables_number	1
_symmetry_cell_setting	triclinic
loop_
_symmetry_equiv_pos_as_xyz
  x,y,z
_cell_length_a	15.944545
_cell_length_b	15.021413
_cell_length_c	10.723023
_cell_angle_alpha	90.004758
_cell_angle_beta	96.018140
_cell_angle_gamma	90.004532
loop_
_atom_site_label
_atom_site_type_symbol
_atom_site_fract_x
_atom_site_fract_y
_atom_site_fract_z
O1	O	1.115453	0.073973	-0.160881
O2	O	1.365453	0.323973	0.089119
O3	O	1.615453	0.573973	0.339119
O4	O	1.865453	0.823973	0.589119
O5	O	0.871016	0.073987	-0.180730
O6	O	1.121016	0.323987	0.069270
O7	O	1.371016	0.573987	0.319270
O8	O	1.621016	0.823987	0.569270
O9	O	0.998873	0.073976	0.010842
O10	O	1.248873	0.323976	0.260842
O11	O	1.498873	0.573976	0.510842
O12	O	1.748873	0.823976	0.760842
O13	O	0.987596	0.073985	-0.352453
O14	O	1.237596	0.323985	-0.102453
O15	O	1.487596	0.573985	0.147547
O16	O	1.737596	0.823985	0.397547
O17	O	0.998853	-0.074089	0.010815
O18	O	1.248853	0.175911	0.260815
O19	O	1.498853	0.425911	0.510815
O20	O	1.748853	0.675911	0.760815
O21	O	0.870996	-0.074077	-0.180758
O22	O	1.120996	0.175923	0.069242
O23	O	1.370996	0.425923	0.319242
O24	O	1.620996	0.675923	0.569242
O25	O	1.115432	-0.074091	-0.160908
O26	O	1.365432	0.175909	0.089092
O27	O	1.615432	0.425909	0.339092
O28	O	1.865432	0.675909	0.589092
Zn29	Zn	0.993211	-0.097592	-0.170837
Zn30	Zn	1.243211	0.152408	0.079163
Zn31	Zn	1.493211	0.402408	0.329163
Zn32	Zn	1.743211	0.652408	0.579163
Zn33	Zn	0.993238	0.097489	-0.170801
Zn34	Zn	1.243238	0.347489	0.079199
Zn35	Zn	1.493238	0.597489	0.329199
Zn36	Zn	1.743238	0.847489	0.579199
O37	O	0.987575	-0.074079	-0.352480
O38	O	1.237575	0.175921	-0.102480
O39	O	1.487575	0.425921	0.147520
O40	O	1.737575	0.675921	0.397520
C41	C	0.839707	-0.000043	-0.179921
C42	C	1.089707	0.249957	0.070079
C43	C	1.339707	0.499957	0.320079
C44	C	1.589707	0.749957	0.570079
C45	C	0.746447	-0.000038	-0.177455
C46	C	0.996447	0.249962	0.072545
C47	C	1.246447	0.499962	0.322545
C48	C	1.496447	0.749962	0.572545
C49	C	0.475092	-0.000050	-0.051340
C50	C	0.725092	0.249950	0.198660
C51	C	0.975092	0.499950	0.448660
C52	C	1.225092	0.749950	0.698660
C53	C	0.526012	-0.073054	-0.112156
C54	C	0.776012	0.176946	0.137844
C55	C	1.026012	0.426946	0.387844
C56	C	1.276012	0.676946	0.637844
C57	C	0.410752	-0.000053	-0.168660
C58	C	0.660752	0.249947	0.081340
C59	C	0.910752	0.499947	0.331340
C60	C	1.160752	0.749947	0.581340
C61	C	0.526013	0.072925	-0.112160
C62	C	0.776013	0.322925	0.137840
C63	C	1.026013	0.572925	0.387840
C64	C	1.276013	0.822925	0.637840
C65	C	0.575691	-0.000044	-0.172975
C66	C	0.825691	0.249956	0.077025
C67	C	1.075691	0.499956	0.327025
C68	C	1.325691	0.749956	0.577025
C69	C	0.460444	-0.073117	-0.229444
C70	C	0.710444	0.176883	0.020556
C71	C	0.960444	0.426883	0.270556
C72	C	1.210444	0.676883	0.520556
C73	C	0.460441	0.072928	-0.229432
C74	C	0.710441	0.322928	0.020568
C75	C	0.960441	0.572928	0.270568
C76	C	1.210441	0.822928	0.520568
C77	C	0.511328	-0.000094	-0.290334
C78	C	0.761328	0.249906	-0.040334
C79	C	1.011328	0.499906	0.209666
C80	C	1.261328	0.749906	0.459666
C81	C	0.315736	-0.000059	-0.166170
C82	C	0.565736	0.249941	0.083830
C83	C	0.815736	0.499941	0.333830
C84	C	1.065736	0.749941	0.583830
C85	C	0.670704	-0.000044	-0.175473
C86	C	0.920704	0.249956	0.074527
C87	C	1.170704	0.499956	0.324527
C88	C	1.420704	0.749956	0.574527
N89	N	0.993199	-0.230730	-0.170861
N90	N	1.243199	0.019270	0.079139
N91	N	1.493199	0.269270	0.329139
N92	N	1.743199	0.519270	0.579139
C93	C	0.934068	-0.470408	-0.259402
C94	C	1.184068	-0.220408	-0.009402
C95	C	1.434068	0.029592	0.240598
C96	C	1.684068	0.279592	0.490598
C97	C	1.010107	-0.529746	-0.283625
C98	C	1.260107	-0.279746	-0.033625
C99	C	1.510107	-0.029746	0.216375
C100	C	1.760107	0.220254	0.466375
C101	C	0.993220	-0.412337	-0.170830
C102	C	1.243220	-0.162337	0.079170
C103	C	1.493220	0.087663	0.329170
C104	C	1.743220	0.337663	0.579170
C105	C	0.917201	-0.529740	-0.146635
C106	C	1.167201	-0.279740	0.103365
C107	C	1.417201	-0.029740	0.353365
C108	C	1.667201	0.220260	0.603365
C109	C	0.993234	-0.587761	-0.170803
C110	C	1.243234	-0.337761	0.079197
C111	C	1.493234	-0.087761	0.329197
C112	C	1.743234	0.162239	0.579197
C113	C	1.069298	-0.470369	-0.195109
C114	C	1.319298	-0.220369	0.054891
C115	C	1.569298	0.029631	0.304891
C116	C	1.819298	0.279631	0.554891
C117	C	0.976342	-0.470358	-0.058070
C118	C	1.226342	-0.220358	0.191930
C119	C	1.476342	0.029642	0.441930
C120	C	1.726342	0.279642	0.691930
C121	C	1.052435	-0.529669	-0.082244
C122	C	1.302435	-0.279669	0.167756
C123	C	1.552435	-0.029669	0.417756
C124	C	1.802435	0.220331	0.667756
C125	C	0.993211	-0.311280	-0.170849
C126	C	1.243211	-0.061280	0.079151
C127	C	1.493211	0.188720	0.329151
C128	C	1.743211	0.438720	0.579151
C129	C	0.993252	-0.688816	-0.170783
C130	C	1.243252	-0.438816	0.079217
C131	C	1.493252	-0.188816	0.329217
C132	C	1.743252	0.061184	0.579217
C133	C	1.146741	-0.000059	-0.161717
C134	C	1.396741	0.249941	0.088283
C135	C	1.646741	0.499941	0.338283
C136	C	1.896741	0.749941	0.588283
C137	C	1.240002	-0.000058	-0.164183
C138	C	1.490002	0.249942	0.085817
C139	C	1.740002	0.499942	0.335817
C140	C	1.990002	0.749942	0.585817
C141	C	0.998042	-0.000056	0.057318
C142	C	1.248042	0.249944	0.307318
C143	C	1.498042	0.499944	0.557318
C144	C	1.748042	0.749944	0.807318
C145	C	0.995587	-0.000053	0.195841
C146	C	1.245587	0.249947	0.445841
C147	C	1.495587	0.499947	0.695841
C148	C	1.745587	0.749947	0.945841
N149	N	0.993256	0.230626	-0.170767
N150	N	1.243256	0.480626	0.079233
N151	N	1.493256	0.730626	0.329233
N152	N	1.743256	0.980626	0.579233
C153	C	0.994482	-0.076754	0.257591
C154	C	1.244482	0.173246	0.507591
C155	C	1.494482	0.423246	0.757591
C156	C	1.744482	0.673246	1.007591
C157	C	0.991945	-0.076753	0.400762
C158	C	1.241945	0.173247	0.650762
C159	C	1.491945	0.423247	0.900762
C160	C	1.741945	0.673247	1.150762
C161	C	0.988406	-0.000048	0.601044
C162	C	1.238406	0.249952	0.851044
C163	C	1.488406	0.499952	1.101044
C164	C	1.738406	0.749952	1.351044
C165	C	0.990861	-0.000051	0.462521
C166	C	1.240861	0.249949	0.712521
C167	C	1.490861	0.499949	0.962521
C168	C	1.740861	0.749949	1.212521
H169	H	0.431786	0.134652	-0.278924
H170	H	0.681786	0.384652	-0.028924
H171	H	0.931786	0.634652	0.221076
H172	H	1.181786	0.884652	0.471076
H173	H	0.995419	-0.142420	0.204465
H174	H	1.245419	0.107580	0.454465
H175	H	1.495419	0.357580	0.704465
H176	H	1.745419	0.607580	0.954465
F177	F	0.957636	-0.436233	0.066517
F178	F	1.207636	-0.186233	0.316517
F179	F	1.457636	0.063767	0.566517
F180	F	1.707636	0.313767	0.816517
F181	F	0.833167	-0.563830	-0.119900
F182	F	1.083167	-0.313830	0.130100
F183	F	1.333167	-0.063830	0.380100
F184	F	1.583167	0.186170	0.630100
F185	F	0.990697	-0.162587	0.470166
F186	F	1.240697	0.087413	0.720166
F187	F	1.490697	0.337413	0.970166
F188	F	1.740697	0.587413	1.220166
H189	H	0.994659	0.065613	0.248969
H190	H	1.244659	0.315613	0.498969
H191	H	1.494659	0.565613	0.748969
H192	H	1.744659	0.815613	0.998969
F193	F	0.532332	-0.000141	-0.422499
F194	F	0.782332	0.249859	-0.172499
F195	F	1.032332	0.499859	0.077501
F196	F	1.282332	0.749859	0.327501
H197	H	1.102519	-0.555526	-0.007325
H198	H	1.352519	-0.305526	0.242675
H199	H	1.602519	-0.055526	0.492675
H200	H	1.852519	0.194474	0.742675
H201	H	0.458861	-0.000124	0.049697
H202	H	0.708861	0.249876	0.299697
H203	H	0.958861	0.499876	0.549697
H204	H	1.208861	0.749876	0.799697
H205	H	0.554655	0.134641	-0.062582
H206	H	0.804655	0.384641	0.187418
H207	H	1.054655	0.634641	0.437418
H208	H	1.304655	0.884641	0.687418
F209	F	0.992097	0.085787	0.393122
F210	F	1.242097	0.335787	0.643122
F211	F	1.492097	0.585787	0.893122
F212	F	1.742097	0.835787	1.143122
H213	H	0.554651	-0.134776	-0.062620
H214	H	0.804651	0.115224	0.187380
H215	H	1.054651	0.365224	0.437380
H216	H	1.304651	0.615224	0.687380
H217	H	0.884097	-0.444388	-0.334366
H218	H	1.134097	-0.194388	-0.084366
H219	H	1.384097	0.055612	0.165634
H220	H	1.634097	0.305612	0.415634
F221	F	1.028785	-0.563843	-0.408249
F222	F	1.278785	-0.313843	-0.158249
F223	F	1.528785	-0.063843	0.091751
F224	F	1.778785	0.186157	0.341751
F225	F	0.423150	-0.153876	-0.294173
F226	F	0.673150	0.096124	-0.044173
F227	F	0.923150	0.346124	0.205827
F228	F	1.173150	0.596124	0.455827
H229	H	1.133606	-0.444399	-0.215675
H230	H	1.383606	-0.194399	0.034325
H231	H	1.633606	0.055601	0.284325
H232	H	1.883606	0.305601	0.534325
