data_functionalizedCrystal
_audit_creation_method	'MofGen! by Chris Wilmer'
_symmetry_space_group_name_H-M	'P1'
_symmetry_Int_Tables_number	1
_symmetry_cell_setting	triclinic
loop_
_symmetry_equiv_pos_as_xyz
  x,y,z
_cell_length_a	10.686220
_cell_length_b	13.032721
_cell_length_c	10.685314
_cell_angle_alpha	79.097664
_cell_angle_beta	81.642441
_cell_angle_gamma	100.973619
loop_
_atom_site_label
_atom_site_type_symbol
_atom_site_fract_x
_atom_site_fract_y
_atom_site_fract_z
Zn1	Zn	1.829100	-0.339305	0.625333
Zn2	Zn	2.329100	0.160695	1.125333
Zn3	Zn	1.818030	-0.503049	0.440282
Zn4	Zn	2.318030	-0.003049	0.940282
Zn5	Zn	1.633096	-0.339393	0.429383
Zn6	Zn	2.133096	0.160607	0.929383
Zn7	Zn	1.584700	-0.532617	0.673628
Zn8	Zn	2.084700	-0.032617	1.173628
O9	O	1.716232	-0.428591	0.542157
O10	O	2.216232	0.071409	1.042157
O11	O	2.007309	-0.348615	0.585136
O12	O	2.507309	0.151385	1.085136
O13	O	1.809118	-0.469002	0.259174
O14	O	2.309118	0.030998	0.759174
O15	O	1.683983	-0.189989	0.430603
O16	O	2.183983	0.310011	0.930603
O17	O	1.999176	-0.468916	0.449179
O18	O	2.499176	0.031084	0.949179
O19	O	1.827986	-0.189925	0.574567
O20	O	2.327986	0.310075	1.074567
O21	O	1.673248	-0.348765	0.251167
O22	O	2.173248	0.151235	0.751167
O23	O	1.446998	-0.377436	0.477433
O24	O	1.946998	0.122564	0.977433
O25	O	1.601500	-0.519311	0.846884
O26	O	2.101500	-0.019311	1.346884
O27	O	1.411443	-0.519397	0.656879
O28	O	1.911443	-0.019397	1.156879
O29	O	1.781060	-0.377286	0.811402
O30	O	2.281060	0.122714	1.311402
O31	O	1.762191	-0.656363	0.496009
O32	O	2.262191	-0.156363	0.996009
O33	O	1.590765	-0.678087	0.667447
O34	O	2.090765	-0.178087	1.167447
C35	C	1.382632	-0.451635	0.571215
C36	C	1.882632	0.048365	1.071215
C37	C	1.239910	-0.461522	0.583681
C38	C	1.739910	0.038478	1.083681
C39	C	1.670058	-0.705960	0.588176
C40	C	2.170058	-0.205960	1.088176
C41	C	1.650418	-0.824615	0.607897
C42	C	2.150418	-0.324615	1.107897
C43	C	1.726545	-0.866731	0.531916
C44	C	2.226545	-0.366731	1.031916
C45	C	1.706248	-0.989366	0.552296
C46	C	2.206248	-0.489366	1.052296
C47	C	2.051134	-0.405458	0.512986
C48	C	2.551134	0.094542	1.012986
C49	C	2.193849	-0.395599	0.500555
C50	C	2.693849	0.104401	1.000555
C51	C	1.687116	-0.451587	0.877030
C52	C	2.187116	0.048413	1.377030
C53	C	1.674709	-0.461387	1.019733
C54	C	2.174709	0.038613	1.519733
C55	C	1.762618	-0.150138	0.495982
C56	C	2.262618	0.349862	0.995982
C57	C	1.782385	-0.031478	0.476306
C58	C	2.282385	0.468522	0.976306
C59	C	1.745320	-0.405602	0.208567
C60	C	2.245320	0.094398	0.708567
C61	C	1.758026	-0.395485	0.065793
C62	C	2.258026	0.104515	0.565793
H63	H	1.263601	-0.331598	0.419850
H64	H	1.763601	0.168402	0.919850
H65	H	1.570223	-0.879348	0.688038
H66	H	2.070223	-0.379348	1.188038
H67	H	1.170149	-0.525533	0.664384
H68	H	1.670149	-0.025533	1.164384
H69	H	1.806751	-0.812000	0.451783
H70	H	2.306751	-0.312000	0.951783
H71	H	1.626047	-1.044096	0.632444
H72	H	2.126047	-0.544096	1.132444
N73	N	1.567636	-0.546050	1.112096
N74	N	2.067636	-0.046050	1.612096
H75	H	1.573650	-0.541284	1.204365
H76	H	2.073650	-0.041284	1.704365
H77	H	1.576913	-0.619331	1.099634
H78	H	2.076913	-0.119331	1.599634
N79	N	1.865097	-0.310810	0.973423
N80	N	2.365097	0.189190	1.473423
H81	H	1.859086	-0.315574	0.881153
H82	H	2.359086	0.184426	1.381153
H83	H	1.952014	-0.322695	0.991566
H84	H	2.452014	0.177305	1.491566
N85	N	1.888634	-0.958991	0.370151
N86	N	2.388634	-0.458991	0.870151
H87	H	1.873564	-0.973451	0.283330
H88	H	2.373564	-0.473451	0.783330
H89	H	1.975398	-0.973338	0.385481
H90	H	2.475398	-0.473338	0.885481
