data_functionalizedCrystal
_audit_creation_method	'MofGen! by Chris Wilmer'
_symmetry_space_group_name_H-M	'P1'
_symmetry_Int_Tables_number	1
_symmetry_cell_setting	triclinic
loop_
_symmetry_equiv_pos_as_xyz
  x,y,z
_cell_length_a	8.597340
_cell_length_b	14.853559
_cell_length_c	7.681481
_cell_angle_alpha	84.252160
_cell_angle_beta	103.474906
_cell_angle_gamma	84.487308
loop_
_atom_site_label
_atom_site_type_symbol
_atom_site_fract_x
_atom_site_fract_y
_atom_site_fract_z
O1	O	2.100116	0.124676	0.172206
O2	O	1.636087	0.139041	0.101801
O3	O	1.880504	0.000619	0.138887
O4	O	1.855699	0.263098	0.135120
O5	O	1.910587	-0.016457	0.436309
O6	O	1.666170	0.121965	0.399224
O7	O	2.130200	0.107600	0.469628
Zn8	Zn	1.902962	0.112071	0.481648
Zn9	Zn	1.863325	0.134570	0.089781
O10	O	1.885783	0.246022	0.432542
C11	C	1.591744	0.129912	0.241502
C12	C	1.414796	0.128139	0.214655
C13	C	1.894424	-0.041507	0.287425
C14	C	1.891062	-0.141588	0.286905
C15	C	1.860407	-0.555444	0.122617
C16	C	1.893205	-0.574056	0.446878
C17	C	1.896376	-0.480025	0.447361
C18	C	1.881560	-0.423699	0.285468
C19	C	1.863573	-0.461404	0.123093
C20	C	1.914347	-0.442312	0.609730
C21	C	1.917517	-0.348275	0.610219
C22	C	1.902712	-0.291948	0.448326
C23	C	1.884726	-0.329659	0.285945
C24	C	1.869909	-0.273333	0.124053
C25	C	1.851935	-0.311042	-0.038328
C26	C	1.848768	-0.405077	-0.038799
C27	C	1.905878	-0.197914	0.448797
C28	C	1.873075	-0.179293	0.124530
C29	C	2.174543	0.116730	0.329923
C30	C	2.351490	0.118504	0.356759
C31	C	1.871863	0.288148	0.284001
C32	C	1.875223	0.388230	0.284509
N33	N	1.930024	0.096716	0.749089
N34	N	1.836275	0.149918	-0.177657
H35	H	1.861017	-0.133438	-0.007303
O36	O	1.722298	0.214748	0.715158
C37	C	1.797046	0.276498	0.619876
H38	H	1.918819	0.242123	0.610890
H39	H	1.717344	0.298292	0.478081
H40	H	1.815416	0.339011	0.693605
H41	H	1.432664	0.111604	0.498966
H42	H	2.025741	0.042417	0.838817
H43	H	1.905257	-0.619921	0.578681
O44	O	1.842652	-0.592102	-0.035100
C45	C	1.701928	-0.635742	-0.065952
H46	H	1.615788	-0.605537	0.011571
H47	H	1.641076	-0.625158	-0.216374
H48	H	1.735126	-0.711818	-0.018004
H49	H	1.839860	-0.265169	-0.170142
H50	H	1.834132	-0.435789	-0.171001
O51	O	1.317856	0.136523	0.045017
C52	C	1.202801	0.214128	0.018156
H53	H	1.249805	0.263891	0.115814
H54	H	1.180256	0.248534	-0.126457
H55	H	1.085309	0.192714	0.043386
H56	H	1.926400	-0.488178	0.741532
H57	H	1.932159	-0.317581	0.742440
H58	H	1.920477	-0.167212	0.581000
