data_functionalizedCrystal
_audit_creation_method	'MofGen! by Chris Wilmer'
_symmetry_space_group_name_H-M	'P1'
_symmetry_Int_Tables_number	1
_symmetry_cell_setting	triclinic
loop_
_symmetry_equiv_pos_as_xyz
  x,y,z
_cell_length_a	6.817900
_cell_length_b	11.452831
_cell_length_c	10.992410
_cell_angle_alpha	80.873933
_cell_angle_beta	108.764651
_cell_angle_gamma	108.696887
loop_
_atom_site_label
_atom_site_type_symbol
_atom_site_fract_x
_atom_site_fract_y
_atom_site_fract_z
V1	V	-4.093434	-0.168913	-0.362830
O2	O	-4.073376	0.008117	-0.394782
O3	O	-4.050555	-0.334925	-0.322975
O4	O	-4.071346	-0.166314	-0.538123
O5	O	-4.052442	-0.161661	-0.178144
V6	V	-4.572937	-0.147738	-0.345280
O7	O	-4.363510	-0.215361	-0.401326
O8	O	-4.753057	-0.101289	-0.306783
O9	O	-4.392608	0.018275	-0.385135
O10	O	-4.710391	-0.324767	-0.313327
O11	O	-4.731325	-0.154989	-0.529965
O12	O	-4.371818	-0.150336	-0.169987
C13	C	-3.896048	-0.375395	-0.307607
C14	C	-3.942452	-0.511113	-0.276190
C15	C	-4.066855	-0.728463	-0.337823
C16	C	-4.018896	-0.588193	-0.370303
C17	C	-3.922567	-0.160314	-0.582049
C18	C	-3.985828	-0.159288	-0.725107
C19	C	-3.854103	-0.149941	-0.922320
C20	C	-3.788359	-0.151514	-0.773485
C21	C	-4.169011	-0.279663	-0.775299
C22	C	-4.233455	-0.278598	-0.924103
C23	C	-4.139944	-0.045509	-0.938183
C24	C	-4.069305	-0.044939	-0.789297
C25	C	-4.210457	0.058739	-0.400497
C26	C	-4.143293	0.194455	-0.431923
C27	C	-4.183938	-0.156340	-0.126053
C28	C	-4.099915	-0.157360	0.017005
H29	H	-4.173219	-0.767691	-0.536530
O30	O	-3.906346	-0.556189	-0.151356
C31	C	-3.685863	-0.508576	-0.084508
H32	H	-3.586405	-0.479501	-0.155818
H33	H	-3.629558	-0.582631	-0.011985
H34	H	-3.663338	-0.425097	-0.031665
H35	H	-4.036909	-0.766316	-0.233216
H36	H	-3.937025	0.044109	-0.756848
O37	O	-3.708405	-0.248781	-0.721992
C38	C	-3.835868	-0.327960	-0.646419
H39	H	-3.923231	-0.273970	-0.614505
H40	H	-3.727588	-0.366910	-0.558070
H41	H	-3.959851	-0.407026	-0.705569
H42	H	-4.048827	-0.550345	-0.474917
H43	H	-3.650569	-0.064959	-0.739495
H44	H	-3.747638	-0.062791	-0.960633
H45	H	-3.819262	-0.230307	-0.952345
O46	O	-4.239126	-0.043403	-0.750872
C47	C	-4.410122	-0.151974	-0.786046
H48	H	-4.392489	-0.191479	-0.869561
H49	H	-4.571056	-0.129490	-0.816636
H50	H	-4.405094	-0.222745	-0.700387
H51	H	-4.207457	-0.363289	-0.951440
O52	O	-4.102187	-0.380998	-0.721974
C53	C	-4.241530	-0.456394	-0.651295
H54	H	-4.325559	-0.398155	-0.622678
H55	H	-4.143634	-0.499133	-0.560985
H56	H	-4.368070	-0.532862	-0.713067
H57	H	-4.318389	-0.049884	-0.978045
H58	H	-4.414167	-0.289065	-0.964395
H59	H	-4.318150	-0.289698	-0.744252
O60	O	-4.030393	0.063439	-0.986902
C61	C	-3.915905	0.040215	-1.062369
H62	H	-3.887218	-0.054178	-1.031084
H63	H	-3.753735	0.114479	-1.048954
H64	H	-4.014178	0.041564	-1.168090
