data_functionalizedCrystal
_audit_creation_method	'MofGen! by Chris Wilmer'
_symmetry_space_group_name_H-M	'P1'
_symmetry_Int_Tables_number	1
_symmetry_cell_setting	triclinic
loop_
_symmetry_equiv_pos_as_xyz
  x,y,z
_cell_length_a	14.395555
_cell_length_b	23.096457
_cell_length_c	14.395555
_cell_angle_alpha	89.999554
_cell_angle_beta	60.002398
_cell_angle_gamma	59.996513
loop_
_atom_site_label
_atom_site_type_symbol
_atom_site_fract_x
_atom_site_fract_y
_atom_site_fract_z
Zr1	Zr	1.016824	0.557736	-0.121932
O2	O	1.210621	0.465280	-0.270255
O3	O	0.823022	0.586083	-0.076462
O4	O	1.016817	0.586077	-0.270257
O5	O	1.016833	0.465286	0.076408
O6	O	1.016816	0.681359	-0.270260
O7	O	1.016826	0.465286	-0.076460
O8	O	0.670152	0.681369	0.076404
O9	O	1.363497	0.465275	-0.270256
O10	O	0.902736	0.669275	-0.057073
O11	O	0.902742	0.598167	0.057012
O12	O	1.130911	0.598160	-0.171156
O13	O	1.130916	0.527052	-0.057071
Zr14	Zr	1.016834	0.709698	0.121869
Zr15	Zr	1.016823	0.709699	-0.121937
Zr16	Zr	1.016835	0.557735	0.121874
Zr17	Zr	1.260643	0.557727	-0.121934
Zr18	Zr	0.773015	0.709706	0.121871
O19	O	1.210635	0.681350	0.076398
O20	O	1.210620	0.681352	-0.270262
O21	O	1.210637	0.465279	0.076405
O22	O	0.823036	0.802153	0.270191
O23	O	0.823020	0.802155	-0.076469
O24	O	0.823038	0.586082	0.270198
O25	O	1.016824	0.802148	-0.076471
O26	O	1.016841	0.681356	0.270193
O27	O	1.016841	0.586075	0.270196
O28	O	1.016831	0.802147	0.076396
O29	O	1.363496	0.586065	-0.270260
O30	O	0.670161	0.681368	0.270197
O31	O	0.670160	0.802158	0.270193
O32	O	0.670152	0.802159	0.076400
O33	O	1.363506	0.465274	-0.076463
O34	O	1.363505	0.586064	-0.076467
O35	O	0.902747	0.669274	0.171093
O36	O	0.902741	0.740382	0.057007
O37	O	1.130915	0.669267	-0.057076
O38	O	1.130921	0.598159	0.057010
C39	C	0.711848	0.633727	-0.000029
C40	C	0.608341	0.633731	-0.000027
C41	C	0.547759	0.672496	-0.062242
C42	C	0.409655	0.700593	0.045024
C43	C	0.562010	0.605637	-0.107282
C44	C	0.471537	0.661868	0.107302
C45	C	0.623966	0.566875	-0.045082
C46	C	0.485871	0.594956	0.062249
C47	C	1.016830	0.443634	-0.000025
C48	C	1.016830	0.379122	-0.000023
C49	C	1.016815	0.633718	-0.304995
C50	C	1.016810	0.633719	-0.408497
C51	C	1.321809	0.633706	-0.000035
C52	C	1.425317	0.633703	-0.000036
C53	C	1.016846	-0.081393	0.084168
C54	C	1.016837	-0.020774	0.084177
C55	C	1.016835	0.009538	-0.000039
C56	C	1.016808	-0.020762	-0.084255
C57	C	1.016804	-0.081376	-0.084255
N58	N	1.091208	0.081530	-0.099910
N59	N	1.091215	0.139109	-0.099906
C60	C	1.016844	0.192165	-0.000042
N61	N	0.942483	0.185460	0.099823
N62	N	0.942483	0.127873	0.099818
C63	C	1.016839	0.075264	-0.000048
C64	C	1.016852	0.288191	0.084183
C65	C	1.016835	0.348813	0.084193
C66	C	1.016819	0.348820	-0.084248
C67	C	1.016823	0.288203	-0.084249
C68	C	1.016846	0.257890	-0.000034
C69	C	1.016827	0.823799	-0.000038
C70	C	1.016827	0.888311	-0.000040
C71	C	0.892400	0.672497	-0.406883
C72	C	0.954593	0.605633	-0.499903
C73	C	0.954622	0.700566	-0.499905
C74	C	1.079004	0.566815	-0.500154
C75	C	1.079015	0.661797	-0.500142
C76	C	1.141300	0.594893	-0.593180
C77	C	1.016842	0.633715	0.304932
C78	C	1.016847	0.633715	0.408434
C79	C	0.711847	0.823810	-0.000035
C80	C	0.608339	0.888325	-0.000036
C81	C	0.711862	0.633726	0.304935
C82	C	0.608359	0.633729	0.408438
C83	C	0.711861	0.823808	0.304929
C84	C	0.608357	0.888324	0.408429
C85	C	1.321797	0.443625	-0.304992
C86	C	1.425300	0.379110	-0.408493
C87	C	1.321810	0.443624	-0.000029
C88	C	1.425319	0.379108	-0.000027
C89	C	1.321795	0.633708	-0.304998
C90	C	1.425298	0.633704	-0.408501
C91	C	0.559728	0.881506	-0.059596
C92	C	0.462485	0.942119	-0.059619
C93	C	0.413847	1.009552	-0.000076
C94	C	0.462468	1.016370	0.059485
C95	C	0.559716	0.955757	0.059502
C96	C	0.559748	0.955745	0.397483
C97	C	0.462509	1.016369	0.494724
C98	C	0.413875	1.009572	0.602910
C99	C	0.462493	0.942143	0.613854
C100	C	0.559737	0.881520	0.516614
C101	C	1.473921	0.311689	-0.397546
C102	C	1.571190	0.251064	-0.494787
C103	C	1.619830	0.257862	-0.602973
C104	C	1.571205	0.325290	-0.613917
C105	C	1.473944	0.385913	-0.516678
C106	C	1.473940	0.385928	0.059522
C107	C	1.571210	0.325314	0.059519
C108	C	1.619850	0.257882	-0.000028
C109	C	1.571225	0.251063	-0.059585
C110	C	1.473964	0.311676	-0.059587
C111	C	0.547772	0.594959	0.406826
C112	C	0.409669	0.661827	0.499842
C113	C	0.562008	0.566889	0.499851
C114	C	0.471556	0.700637	0.500092
C115	C	0.623970	0.605650	0.500086
C116	C	0.485876	0.672559	0.593121
H117	H	0.434151	0.685680	0.198046
N118	N	1.421510	0.304312	-0.123800
H119	H	1.352509	0.352938	-0.114772
H120	H	1.495782	0.277503	-0.207079
H121	H	0.574854	0.562221	0.327068
H122	H	0.422881	0.936619	0.701952
H123	H	0.334660	1.058901	-0.000098
N124	N	1.016824	0.255520	-0.175090
H125	H	1.097821	0.205126	-0.219343
H126	H	0.935771	0.255667	-0.138267
H127	H	1.131547	0.510255	-0.499331
H128	H	0.787202	0.705235	-0.327123
H129	H	0.458846	0.562169	0.114932
H130	H	0.599327	0.826604	-0.108097
N131	N	0.884955	0.574169	-0.501157
H132	H	0.930995	0.523958	-0.500676
H133	H	0.790977	0.603546	-0.431671
H134	H	0.574838	0.705329	-0.114764
N135	N	1.623644	0.332686	0.123751
H136	H	1.721262	0.309203	0.069128
H137	H	1.577961	0.384618	0.161464
H138	H	0.318045	0.685588	0.500769
N139	N	0.308965	1.074963	0.707782
H140	H	0.285518	1.060432	0.777984
H141	H	0.342884	1.104113	0.707719
N142	N	0.612144	0.808801	0.528422
H143	H	0.709770	0.781980	0.490735
H144	H	0.566476	0.813757	0.611734
N145	N	1.421478	0.304351	-0.280865
H146	H	1.323856	0.327842	-0.237860
H147	H	1.467146	0.252424	-0.288794
H148	H	0.599332	0.961293	0.309401
N149	N	0.422032	0.775557	0.499010
H150	H	0.492699	0.775088	0.428613
H151	H	0.341453	0.796807	0.498833
H152	H	0.318026	0.757121	0.083133
N153	N	0.450080	0.716050	0.698599
H154	H	0.415172	0.766518	0.699347
H155	H	0.380507	0.715427	0.768327
H156	H	0.902021	0.757102	-0.500806
H157	H	1.434344	0.440830	0.108020
H158	H	0.599205	0.581890	-0.197983
H159	H	1.246586	0.562052	-0.672808
N160	N	1.421498	0.458627	-0.528508
H161	H	1.323877	0.485427	-0.490828
H162	H	1.438497	0.485390	-0.490838
H163	H	0.422910	0.936554	-0.108121
N164	N	1.623621	0.178342	-0.482979
H165	H	1.663950	0.172667	-0.440000
H166	H	1.549355	0.172716	-0.440059
N167	N	1.016878	0.011903	0.174997
H168	H	1.016881	0.054900	0.162214
H169	H	0.935887	0.026555	0.252281
H170	H	0.422934	1.071267	0.485793
N171	N	1.724754	0.192509	-0.000019
H172	H	1.748165	0.207068	0.046747
H173	H	1.690838	0.163361	0.033851
N174	N	0.409981	1.089104	0.123722
H175	H	0.455522	1.084235	0.161464
H176	H	0.426897	1.115873	0.069043
H177	H	1.610844	0.196151	-0.108066
H178	H	1.699025	0.208493	-0.682143
N179	N	1.623671	0.332617	-0.730606
H180	H	1.692657	0.283978	-0.790537
H181	H	1.549401	0.359415	-0.739624
H182	H	1.016788	-0.106043	-0.152829
N183	N	1.016829	0.381492	0.175043
H184	H	1.097832	0.345699	0.171361
H185	H	1.016765	0.424501	0.162232
H186	H	0.599283	0.961320	0.108009
H187	H	0.715627	0.581872	0.499100
N188	N	1.016861	-0.114085	0.175001
H189	H	1.016869	-0.085689	0.228350
H190	H	0.935856	-0.113984	0.219172
H191	H	0.599183	0.510359	0.500769
H192	H	0.715617	0.510359	-0.083216
N193	N	1.016806	0.011927	-0.175090
H194	H	1.016819	0.054921	-0.162316
H195	H	1.097803	-0.023915	-0.252366
N196	N	1.148613	0.693276	-0.498853
H197	H	1.101523	0.743800	-0.497800
H198	H	1.148814	0.692560	-0.428804
H199	H	1.016865	0.263511	0.152759
H200	H	1.016809	0.373502	-0.152815
