data_functionalizedCrystal
_audit_creation_method	'MofGen! by Chris Wilmer'
_symmetry_space_group_name_H-M	'P1'
_symmetry_Int_Tables_number	1
_symmetry_cell_setting	triclinic
loop_
_symmetry_equiv_pos_as_xyz
  x,y,z
_cell_length_a	14.519709
_cell_length_b	10.268362
_cell_length_c	14.519709
_cell_angle_alpha	89.993769
_cell_angle_beta	96.319855
_cell_angle_gamma	89.998968
loop_
_atom_site_label
_atom_site_type_symbol
_atom_site_fract_x
_atom_site_fract_y
_atom_site_fract_z
O1	O	-1.223868	-0.108133	0.120892
O2	O	-0.890534	0.225200	0.454225
O3	O	-0.557201	0.558533	0.787559
O4	O	-0.955391	-0.108174	0.135128
O5	O	-0.622057	0.225160	0.468462
O6	O	-0.288724	0.558493	0.801795
O7	O	-1.096747	-0.108141	-0.006228
O8	O	-0.763414	0.225193	0.327105
O9	O	-0.430081	0.558526	0.660438
O10	O	-1.082511	-0.108166	0.262249
O11	O	-0.749177	0.225167	0.595582
O12	O	-0.415844	0.558500	0.928915
O13	O	-1.096735	0.108460	-0.006234
O14	O	-0.763402	0.441793	0.327099
O15	O	-0.430068	0.775127	0.660433
O16	O	-0.955378	0.108427	0.135123
O17	O	-0.622045	0.441760	0.468456
O18	O	-0.288712	0.775094	0.801789
O19	O	-1.223855	0.108467	0.120886
O20	O	-0.890522	0.441800	0.454219
O21	O	-0.557189	0.775134	0.787553
Cu22	Cu	-1.089616	0.128224	0.128004
Cu23	Cu	-0.756282	0.461558	0.461337
Cu24	Cu	-0.422949	0.794891	0.794671
Cu25	Cu	-1.089630	-0.127931	0.128011
Cu26	Cu	-0.756297	0.205402	0.461344
Cu27	Cu	-0.422964	0.538736	0.794677
O28	O	-1.082498	0.108434	0.262243
O29	O	-0.749165	0.441768	0.595576
O30	O	-0.415832	0.775101	0.928909
C31	C	-0.921025	0.000122	0.134462
C32	C	-0.587691	0.333455	0.467795
C33	C	-0.254358	0.666788	0.801129
C34	C	-0.818643	0.000107	0.132474
C35	C	-0.485310	0.333440	0.465807
C36	C	-0.151977	0.666773	0.799141
C37	C	-1.258221	0.000169	0.121553
C38	C	-0.924888	0.333502	0.454886
C39	C	-0.591554	0.666836	0.788219
C40	C	-1.360602	0.000175	0.123541
C41	C	-1.027269	0.333509	0.456874
C42	C	-0.693936	0.666842	0.790207
N43	N	-1.089612	0.308390	0.127998
N44	N	-0.756279	0.641724	0.461332
N45	N	-0.422945	0.975057	0.794665
C46	C	-0.443748	0.000167	0.125154
C47	C	-0.110414	0.333500	0.458488
C48	C	0.222919	0.666833	0.791821
C49	C	-0.548056	0.000150	0.127187
C50	C	-0.214722	0.333483	0.460520
C51	C	0.118611	0.666816	0.793854
C52	C	-0.631192	0.000135	0.128814
C53	C	-0.297859	0.333469	0.462147
C54	C	0.035474	0.666802	0.795481
C55	C	-0.735507	0.000121	0.130847
C56	C	-0.402173	0.333454	0.464180
C57	C	-0.068840	0.666787	0.797514
C58	C	-1.096078	0.000160	-0.040591
C59	C	-0.762744	0.333493	0.292742
C60	C	-0.429411	0.666826	0.626076
C61	C	-1.094090	0.000160	-0.142972
C62	C	-0.760756	0.333493	0.190361
C63	C	-0.427423	0.666827	0.523694
N64	N	-1.089641	-0.308097	0.128009
N65	N	-0.756308	0.025237	0.461342
N66	N	-0.422974	0.358570	0.794675
C67	C	-1.089626	0.574061	0.128009
C68	C	-0.756292	0.907394	0.461342
C69	C	-0.422959	1.240728	0.794676
C70	C	-1.089615	0.426223	0.128006
C71	C	-0.756282	0.759556	0.461339
C72	C	-0.422948	1.092890	0.794672
C73	C	-1.086770	0.000125	-0.517868
C74	C	-0.753437	0.333458	-0.184535
C75	C	-0.420103	0.666792	0.148799
C76	C	-1.088803	0.000135	-0.413560
C77	C	-0.755469	0.333469	-0.080227
C78	C	-0.422136	0.666802	0.253107
C79	C	-1.090430	0.000144	-0.330423
C80	C	-0.757096	0.333477	0.002910
C81	C	-0.423763	0.666811	0.336243
C82	C	-1.092463	0.000152	-0.226109
C83	C	-0.759129	0.333485	0.107224
C84	C	-0.425796	0.666818	0.440558
C85	C	-1.083168	0.000131	0.296605
C86	C	-0.749835	0.333464	0.629939
C87	C	-0.416501	0.666798	0.963272
C88	C	-1.085156	0.000122	0.398987
C89	C	-0.751823	0.333455	0.732320
C90	C	-0.418490	0.666789	1.065653
