data_functionalizedCrystal
_audit_creation_method	'MofGen! by Chris Wilmer'
_symmetry_space_group_name_H-M	'P1'
_symmetry_Int_Tables_number	1
_symmetry_cell_setting	triclinic
loop_
_symmetry_equiv_pos_as_xyz
  x,y,z
_cell_length_a	21.295420
_cell_length_b	21.295416
_cell_length_c	21.295411
_cell_angle_alpha	89.980829
_cell_angle_beta	90.024693
_cell_angle_gamma	89.971418
loop_
_atom_site_label
_atom_site_type_symbol
_atom_site_fract_x
_atom_site_fract_y
_atom_site_fract_z
Zn1	Zn	0.962356	0.250710	0.355924
Zn2	Zn	0.962259	0.355962	0.250654
Zn3	Zn	0.857079	0.250708	0.250669
Zn4	Zn	0.857049	0.355942	0.355886
O5	O	0.909686	0.303331	0.303283
O6	O	1.050433	0.264682	0.341970
O7	O	0.948279	0.342007	0.162567
O8	O	0.871098	0.162619	0.264654
O9	O	1.050361	0.342010	0.264629
O10	O	0.948444	0.162621	0.341984
O11	O	0.871004	0.264677	0.162578
O12	O	0.768986	0.264658	0.264617
O13	O	0.871046	0.341976	0.443980
O14	O	0.768964	0.341973	0.341919
O15	O	0.948415	0.264662	0.444009
O16	O	0.948249	0.444049	0.264591
O17	O	0.870952	0.444034	0.341904
C18	C	0.746134	0.303314	0.303265
C19	C	0.676166	0.303321	0.303273
C20	C	0.176713	0.343663	0.343496
C21	C	0.242456	0.343663	0.343489
C22	C	0.275327	0.303345	0.303303
C23	C	0.242450	0.263035	0.263110
C24	C	0.176709	0.263040	0.263113
N25	N	0.378567	0.248227	0.298568
N26	N	0.441019	0.248224	0.298569
C27	C	0.473401	0.303327	0.303290
N28	N	0.440973	0.358435	0.308023
N29	N	0.378516	0.358438	0.308025
C30	C	0.346612	0.303335	0.303295
C31	C	0.577556	0.343638	0.343471
C32	C	0.643300	0.343639	0.343460
C33	C	0.643293	0.263005	0.263083
C34	C	0.577550	0.263010	0.263091
C35	C	0.544686	0.303325	0.303288
C36	C	0.909604	0.466882	0.303256
C37	C	0.909626	0.536850	0.303265
C38	C	0.949911	0.569704	0.263051
C39	C	0.949941	0.635446	0.263068
C40	C	0.909674	0.668333	0.303292
C41	C	0.869387	0.635472	0.343514
C42	C	0.869363	0.569730	0.343501
N43	N	0.854608	0.771598	0.308090
N44	N	0.854632	0.834049	0.308099
C45	C	0.909746	0.866408	0.303337
N46	N	0.964834	0.833955	0.298553
N47	N	0.964809	0.771498	0.298540
C48	C	0.909696	0.739618	0.303312
C49	C	0.950066	0.970546	0.263139
C50	C	0.950096	1.036290	0.263160
C51	C	0.869537	1.036314	0.343604
C52	C	0.869512	0.970572	0.343586
C53	C	0.909776	0.937692	0.303350
C54	C	1.073876	0.303348	0.303302
C55	C	1.143844	0.303356	0.303310
C56	C	0.909738	0.303317	0.467474
C57	C	0.909760	0.303312	0.537442
C58	C	0.909786	1.139140	0.303336
C59	C	0.909831	1.069172	0.303386
C60	C	0.909670	0.303298	0.139732
C61	C	0.909770	0.303127	0.069764
C62	C	0.950044	0.263053	0.570324
C63	C	0.950044	0.263025	0.636067
C64	C	0.909765	0.303268	0.668925
C65	C	0.869473	0.343530	0.636034
C66	C	0.869471	0.343552	0.570293
N67	N	0.904909	0.358336	0.772142
N68	N	0.904915	0.358314	0.834594
C69	C	0.909769	0.303204	0.866999
N70	N	0.914630	0.248117	0.834594
N71	N	0.914627	0.248141	0.772137
C72	C	0.909763	0.303249	0.740210
C73	C	0.950055	0.262913	0.971167
C74	C	0.950049	0.262884	1.036911
C75	C	0.869482	0.343395	1.036877
C76	C	0.869484	0.343417	0.971135
C77	C	0.909774	0.303177	0.938284
H78	H	0.670056	0.230180	0.230361
O79	O	0.830273	0.382575	0.538321
C80	C	0.789648	0.346748	0.500261
H81	H	0.785788	0.297161	0.520069
H82	H	0.741190	0.369511	0.499494
H83	H	0.809114	0.344600	0.450446
H84	H	0.149959	0.376493	0.376225
O85	O	0.274296	0.382836	0.382591
C86	C	0.231192	0.418431	0.418057
H87	H	0.184338	0.392659	0.420280
H88	H	0.250208	0.425205	0.467643
H89	H	0.224174	0.466212	0.394930
O90	O	0.989126	0.667404	0.224082
C91	C	1.029772	0.705402	0.259949
H92	H	1.033658	0.685560	0.309524
H93	H	1.078218	0.706136	0.237205
H94	H	1.010310	0.755235	0.262119
H95	H	0.269218	0.230208	0.230389
H96	H	0.836558	0.542981	0.376249
O97	O	0.989237	0.938699	0.224039
C98	C	1.024793	0.981798	0.188539
H99	H	1.026982	1.028643	0.214338
H100	H	1.074385	0.962761	0.181862
H101	H	1.001766	0.988841	0.140712
O102	O	0.830359	0.667484	0.382619
C103	C	0.866193	0.705448	0.423326
H104	H	0.913912	0.715268	0.401169
H105	H	0.840565	0.751695	0.431747
H106	H	0.873079	0.680082	0.469977
O107	O	0.989056	0.537694	0.224059
C108	C	1.029693	0.499626	0.259929
H109	H	1.007466	0.489771	0.307612
H110	H	1.038125	0.453402	0.234288
H111	H	1.076349	0.524919	0.266892
O112	O	0.989099	0.223793	0.939180
C113	C	0.953285	0.183136	0.901145
H114	H	0.905565	0.205335	0.891278
H115	H	0.978931	0.174725	0.854925
H116	H	0.946399	0.136474	0.926473
O117	O	0.989350	1.068205	0.224213
C118	C	1.029996	1.106147	0.260140
H119	H	1.033776	1.086302	0.309723
H120	H	1.078477	1.106809	0.237471
H121	H	1.010602	1.156008	0.262277
O122	O	0.830445	1.068350	0.382622
C123	C	0.839118	1.133420	0.374026
H124	H	0.859759	1.142410	0.325466
H125	H	0.791975	1.158446	0.378262
H126	H	0.872632	1.152024	0.411398
O127	O	0.830439	0.382691	0.667977
C128	C	0.866255	0.423331	0.706027
H129	H	0.915830	0.427231	0.686233
H130	H	0.843458	0.471773	0.706762
H131	H	0.868438	0.403854	0.755853
H132	H	0.149947	0.230215	0.230389
O133	O	0.830314	0.938752	0.382664
C134	C	0.794790	0.981873	0.418183
H135	H	0.792642	1.028752	0.392408
H136	H	0.745182	0.962918	0.424845
H137	H	0.817819	0.988817	0.466016
H138	H	0.550788	0.230185	0.230370
H139	H	0.982851	0.230285	0.543581
O140	O	0.545724	0.382857	0.382536
C141	C	0.588836	0.418425	0.418015
H142	H	0.635683	0.420573	0.392220
H143	H	0.569819	0.468030	0.424653
H144	H	0.595869	0.395435	0.465860
O145	O	0.989242	0.223754	1.068758
C146	C	1.024789	0.188234	1.025662
H147	H	1.026951	0.214035	0.978801
H148	H	1.074391	0.181522	1.044678
H149	H	1.001771	0.140423	1.018659
H150	H	0.982846	0.230238	0.662845
O151	O	0.830448	0.382559	1.068812
C152	C	0.866265	0.423197	1.106863
H153	H	0.915842	0.427090	1.087073
H154	H	0.843474	0.471641	1.107594
H155	H	0.868443	0.403722	1.156690
O156	O	0.830335	0.382588	0.939286
C157	C	0.794770	0.418090	0.982382
H158	H	0.820555	0.420260	1.029254
H159	H	0.788022	0.467692	0.963383
H160	H	0.746977	0.395029	0.989356
H161	H	0.670060	0.376467	0.376182
