data_functionalizedCrystal
_audit_creation_method	'MofGen! by Chris Wilmer'
_symmetry_space_group_name_H-M	'P1'
_symmetry_Int_Tables_number	1
_symmetry_cell_setting	triclinic
loop_
_symmetry_equiv_pos_as_xyz
  x,y,z
_cell_length_a	14.853567
_cell_length_b	14.044220
_cell_length_c	13.330367
_cell_angle_alpha	89.994700
_cell_angle_beta	89.995418
_cell_angle_gamma	88.411904
loop_
_atom_site_label
_atom_site_type_symbol
_atom_site_fract_x
_atom_site_fract_y
_atom_site_fract_z
O1	O	1.206175	0.123767	-0.083357
O2	O	0.944883	0.138510	-0.083374
O3	O	1.071607	-0.006851	-0.083356
O4	O	1.079451	0.269128	-0.083375
O5	O	1.071587	-0.006854	0.083491
O6	O	0.944863	0.138507	0.083473
O7	O	1.206154	0.123764	0.083490
Cu8	Cu	1.075507	0.131135	0.098716
Cu9	Cu	1.075531	0.131139	-0.098600
O10	O	1.079431	0.269125	0.083472
C11	C	0.911231	0.137841	0.000047
C12	C	0.810989	0.135839	0.000041
C13	C	0.390944	0.041029	0.000070
C14	C	0.383345	0.213721	0.000057
C15	C	0.477528	0.215604	0.000054
C16	C	0.528423	0.130197	0.000057
C17	C	0.485135	0.042908	0.000064
C18	C	0.520822	0.302891	0.000037
C19	C	0.615011	0.304777	0.000032
C20	C	0.665908	0.219369	0.000043
C21	C	0.622615	0.132077	0.000051
C22	C	0.673510	0.046670	0.000054
C23	C	0.630218	-0.040623	0.000069
C24	C	0.536032	-0.042499	0.000074
C25	C	0.760094	0.221246	0.000038
C26	C	0.767702	0.048550	0.000048
C27	C	1.068163	-0.042172	0.000068
C28	C	1.057921	-0.147411	0.000069
C29	C	1.039197	-0.340097	0.000053
C30	C	1.111836	-0.397635	0.000055
C31	C	1.101418	-0.504852	0.000046
C32	C	1.049614	-0.232870	0.000062
C33	C	1.239806	0.124433	0.000067
C34	C	1.340048	0.126435	0.000067
C35	C	1.082874	0.304446	0.000046
C36	C	1.093116	0.409685	0.000039
N37	N	1.075496	0.131132	0.237498
N38	N	1.075548	0.131135	-0.237381
C39	C	1.019413	0.195480	0.710112
C40	C	1.131672	0.066791	0.710097
C41	C	1.131662	0.066788	0.605078
C42	C	1.075527	0.131133	0.552572
C43	C	1.019403	0.195481	0.605084
C44	C	1.187792	0.002448	0.552558
C45	C	1.187785	0.002443	0.447534
C46	C	1.131644	0.066784	0.395025
C47	C	1.075517	0.131134	0.447544
C48	C	1.019382	0.195479	0.395038
C49	C	0.963249	0.259825	0.447555
C50	C	0.963262	0.259822	0.552576
C51	C	1.131631	0.066787	0.290004
C52	C	1.019372	0.195480	0.290010
H53	H	0.809134	-0.021000	0.000054
H54	H	0.973708	0.247867	0.752874
H55	H	0.341900	0.283255	0.000046
C56	C	1.205116	-0.355773	0.000124
C57	C	1.197042	-0.256209	0.000158
C58	C	1.282948	-0.217610	0.000238
H59	H	1.237035	-0.376410	-0.058039
H60	H	1.236943	-0.376482	0.058335
H61	H	1.165228	-0.235509	-0.058047
H62	H	1.165139	-0.235546	0.058317
H63	H	1.314775	-0.238318	0.058450
H64	H	1.314860	-0.238254	-0.057925
H65	H	1.277482	-0.150052	0.000271
C66	C	0.945792	-0.381643	0.000205
C67	C	0.899068	-0.350910	0.086034
C68	C	0.813018	-0.389164	0.086205
H69	H	0.950979	-0.449208	0.000254
H70	H	0.913919	-0.360859	-0.057946
H71	H	0.930933	-0.371700	0.144171
H72	H	0.893856	-0.283350	0.086004
H73	H	0.781145	-0.368379	0.028053
H74	H	0.818214	-0.456728	0.086251
H75	H	0.781302	-0.368310	0.144433
H76	H	1.233490	-0.049952	0.404781
C77	C	1.192550	-0.003222	0.766978
C78	C	1.170442	-0.096404	0.741430
C79	C	1.226507	-0.160931	0.793806
H80	H	1.184567	0.005864	0.837061
H81	H	1.253568	0.007120	0.749738
H82	H	1.109439	-0.106742	0.758676
H83	H	1.178430	-0.105521	0.671356
H84	H	1.287525	-0.150589	0.776565
H85	H	1.218520	-0.151836	0.863886
H86	H	1.211520	-0.224161	0.776471
H87	H	0.671670	-0.110161	0.000065
C88	C	0.662050	0.399524	-0.000196
C89	C	0.715882	0.405658	-0.086054
C90	C	0.759216	0.492932	-0.086309
H91	H	0.698703	0.403954	0.057914
H92	H	0.618269	0.450142	-0.000257
H93	H	0.759657	0.355055	-0.085985
H94	H	0.679250	0.401246	-0.144179
H95	H	0.715435	0.543549	-0.086370
H96	H	0.795864	0.497354	-0.028194
H97	H	0.795739	0.497109	-0.144567
H98	H	0.355691	-0.030044	0.000086
H99	H	0.973656	0.247874	0.247266
C100	C	1.192601	-0.003171	0.233167
C101	C	1.241752	-0.059532	0.301628
C102	C	1.297919	-0.124001	0.249308
H103	H	1.232943	0.030895	0.192180
H104	H	1.157011	-0.042753	0.192233
H105	H	1.277338	-0.019956	0.342545
H106	H	1.201433	-0.093620	0.342618
H107	H	1.262329	-0.163583	0.208375
H108	H	1.338255	-0.089927	0.208323
H109	H	1.331268	-0.162256	0.295751
H110	H	0.917548	0.312219	0.404792
H111	H	0.917562	0.312211	0.595342
H112	H	1.233500	-0.049936	0.595312
C113	C	0.489146	-0.137335	-0.000079
C114	C	0.514372	-0.188976	-0.085904
C115	C	0.471203	-0.276345	-0.086077
H116	H	0.425756	-0.126353	-0.000133
H117	H	0.506157	-0.172563	0.058075
H118	H	0.497355	-0.153756	-0.144043
H119	H	0.577755	-0.199983	-0.085868
H120	H	0.488214	-0.311574	-0.027923
H121	H	0.407814	-0.265354	-0.086129
H122	H	0.488318	-0.311399	-0.144303
H123	H	0.479377	0.372424	0.000024
H124	H	0.795338	0.292318	0.000027
