data_functionalizedCrystal
_audit_creation_method	'MofGen! by Chris Wilmer'
_symmetry_space_group_name_H-M	'P1'
_symmetry_Int_Tables_number	1
_symmetry_cell_setting	triclinic
loop_
_symmetry_equiv_pos_as_xyz
  x,y,z
_cell_length_a	12.594517
_cell_length_b	18.050589
_cell_length_c	12.594509
_cell_angle_alpha	90.027696
_cell_angle_beta	90.021327
_cell_angle_gamma	90.028021
loop_
_atom_site_label
_atom_site_type_symbol
_atom_site_fract_x
_atom_site_fract_y
_atom_site_fract_z
Zn1	Zn	1.627177	-0.295641	0.601864
Zn2	Zn	1.627030	-0.419845	0.423887
Zn3	Zn	1.449181	-0.295673	0.423893
Zn4	Zn	1.449125	-0.419793	0.601817
O5	O	1.538128	-0.357738	0.512865
O6	O	1.776103	-0.312125	0.578272
O7	O	1.603400	-0.403408	0.274942
O8	O	1.472877	-0.191744	0.447523
O9	O	1.775995	-0.403377	0.447513
O10	O	1.603650	-0.191721	0.578278
O11	O	1.472735	-0.312179	0.274946
O12	O	1.300228	-0.312129	0.447478
O13	O	1.472782	-0.403289	0.750769
O14	O	1.300187	-0.403320	0.578198
O15	O	1.603596	-0.312075	0.750804
O16	O	1.603346	-0.523763	0.447468
O17	O	1.472640	-0.523725	0.578192
C18	C	1.261587	-0.357723	0.512834
C19	C	1.143282	-0.357735	0.512846
C20	C	1.074020	-0.308068	0.441883
C21	C	1.003188	-0.375810	0.415704
C22	C	1.003314	-0.290026	0.539043
C23	C	1.074008	-0.425512	0.486616
C24	C	1.074141	-0.339682	0.610001
C25	C	1.003341	-0.407471	0.583858
C26	C	1.538000	-0.550690	0.512848
C27	C	1.538042	-0.633236	0.512876
C28	C	1.467034	-0.832693	0.583939
C29	C	1.441086	-0.882138	0.486814
C30	C	1.538147	-0.784366	0.512889
C31	C	1.564147	-0.882003	0.610026
C32	C	1.538246	-0.930351	0.512911
C33	C	1.512147	-0.832724	0.415713
C34	C	1.635254	-0.832585	0.538990
C35	C	1.609343	-0.882007	0.441799
C36	C	1.538087	-0.700268	0.512878
C37	C	1.538306	-1.014448	0.512912
C38	C	1.815749	-0.357753	0.512897
C39	C	1.934055	-0.357760	0.512911
C40	C	1.538200	-0.357673	0.790486
C41	C	1.538230	-0.357645	0.908792
C42	C	1.538286	-0.164032	0.512906
C43	C	1.538354	-0.081487	0.512924
C44	C	1.538119	-0.357749	0.236324
C45	C	1.538294	-0.357568	0.118019
C46	C	1.467103	-0.407228	0.978026
C47	C	1.564218	-0.425374	1.048817
C48	C	1.441191	-0.339455	1.048800
C49	C	1.635396	-0.375826	0.978024
C50	C	1.512303	-0.289876	0.978001
C51	C	1.609485	-0.307996	1.048760
H52	H	1.105054	-0.266108	0.381797
C53	C	1.694798	-0.522193	1.053564
C54	C	1.593870	-0.502692	1.090827
H55	H	1.713093	-0.569927	1.079495
H56	H	1.745400	-0.486991	1.077776
H57	H	1.694341	-0.522896	0.978146
H58	H	1.594329	-0.501983	1.166245
H59	H	1.543255	-0.537902	1.066620
H60	H	0.972025	-0.391096	0.333570
H61	H	1.407000	-0.449224	0.946969
H62	H	1.717511	-0.391245	0.947065
H63	H	1.105330	-0.324376	0.692110
C64	C	1.331832	-0.318253	1.201939
C65	C	1.330373	-0.318723	1.090771
H66	H	1.263414	-0.305463	1.227845
H67	H	1.382291	-0.282951	1.226148
H68	H	1.350763	-0.366032	1.227214
H69	H	1.311449	-0.270942	1.065495
H70	H	1.279898	-0.354027	1.066552
H71	H	0.972205	-0.232762	0.561137
C72	C	1.226919	-0.502125	0.456797
C73	C	1.115745	-0.502849	0.456604
H74	H	1.252684	-0.549868	0.438261
H75	H	1.251795	-0.489217	0.525567
H76	H	1.251673	-0.466808	0.406678
H77	H	1.090990	-0.538163	0.506729
H78	H	1.090859	-0.515767	0.387824
C79	C	0.997575	-0.535083	0.637254
C80	C	0.961695	-0.464247	0.664906
H81	H	0.971855	-0.570135	0.687284
H82	H	1.072985	-0.535661	0.637261
H83	H	0.972200	-0.547499	0.568469
H84	H	0.987076	-0.451829	0.733689
H85	H	0.886269	-0.463667	0.664911
C86	C	1.284149	-0.828471	0.637347
C87	C	1.385738	-0.803452	0.664933
H88	H	1.233960	-0.810413	0.687343
H89	H	1.283183	-0.881087	0.637468
H90	H	1.266401	-0.810869	0.568526
H91	H	1.403489	-0.821058	0.733752
H92	H	1.386707	-0.750825	0.664824
C93	C	1.331782	-0.989091	0.456405
C94	C	1.330288	-0.911527	0.457012
H95	H	1.263379	-1.007231	0.438006
H96	H	1.350700	-1.006683	0.524909
H97	H	1.382269	-1.005963	0.405874
H98	H	1.279805	-0.894655	0.507549
H99	H	1.311356	-0.893929	0.388498
H100	H	1.669732	-0.266032	1.079622
C101	C	1.380875	-0.193679	0.971622
C102	C	1.482614	-0.212578	0.935961
H103	H	1.362537	-0.145960	0.945659
H104	H	1.380047	-0.193195	1.047030
H105	H	1.331041	-0.229059	0.946346
H106	H	1.532450	-0.177200	0.961244
H107	H	1.483450	-0.213056	0.860537
H108	H	1.669523	-0.903524	0.381655
C109	C	1.482545	-0.726060	0.305806
C110	C	1.482375	-0.803630	0.304799
H111	H	1.464155	-0.708100	0.237336
H112	H	1.551270	-0.708685	0.324444
H113	H	1.432310	-0.708789	0.356312
H114	H	1.532616	-0.820901	0.254298
H115	H	1.413640	-0.821012	0.286148
C116	C	1.773043	-0.828001	0.670621
C117	C	1.746023	-0.803172	0.568827
H118	H	1.841424	-0.809836	0.689050
H119	H	1.773729	-0.880614	0.671481
H120	H	1.722307	-0.810377	0.720369
H121	H	1.796755	-0.820800	0.519077
H122	H	1.745345	-0.750547	0.567959
H123	H	1.586099	-0.903649	0.692164
