data_functionalizedCrystal
_audit_creation_method	'MofGen! by Chris Wilmer'
_symmetry_space_group_name_H-M	'P1'
_symmetry_Int_Tables_number	1
_symmetry_cell_setting	triclinic
loop_
_symmetry_equiv_pos_as_xyz
  x,y,z
_cell_length_a	16.959455
_cell_length_b	21.295417
_cell_length_c	16.959447
_cell_angle_alpha	89.964725
_cell_angle_beta	89.983056
_cell_angle_gamma	90.027454
loop_
_atom_site_label
_atom_site_type_symbol
_atom_site_fract_x
_atom_site_fract_y
_atom_site_fract_z
Zn1	Zn	1.208347	-0.250648	-0.446882
Zn2	Zn	1.708347	0.249352	0.053118
Zn3	Zn	1.208239	-0.355924	-0.314692
Zn4	Zn	1.708239	0.144076	0.185308
Zn5	Zn	1.076169	-0.250667	-0.314719
Zn6	Zn	1.576169	0.249333	0.185281
Zn7	Zn	1.076116	-0.355877	-0.446831
Zn8	Zn	1.576116	0.144123	0.053169
O9	O	1.142218	-0.303279	-0.380781
O10	O	1.642218	0.196721	0.119219
O11	O	1.318943	-0.264624	-0.429357
O12	O	1.818943	0.235376	0.070643
O13	O	1.190697	-0.341990	-0.204085
O14	O	1.690697	0.158010	0.295915
O15	O	1.093770	-0.162575	-0.332284
O16	O	1.593770	0.337425	0.167716
O17	O	1.318864	-0.341971	-0.332237
O18	O	1.818864	0.158029	0.167763
O19	O	1.190881	-0.162561	-0.429383
O20	O	1.690881	0.337439	0.070617
O21	O	1.093666	-0.264658	-0.204105
O22	O	1.593666	0.235342	0.295895
O23	O	0.965551	-0.264612	-0.332234
O24	O	1.465551	0.235388	0.167766
O25	O	1.093679	-0.341890	-0.557448
O26	O	1.593679	0.158110	-0.057448
O27	O	0.965512	-0.341910	-0.429296
O28	O	1.465512	0.158090	0.070704
O29	O	1.190829	-0.264578	-0.557486
O30	O	1.690829	0.235422	-0.057486
O31	O	1.190645	-0.444008	-0.332188
O32	O	1.690645	0.055992	0.167812
O33	O	1.093575	-0.443973	-0.429269
O34	O	1.593575	0.056027	0.070731
C35	C	0.936852	-0.303258	-0.380763
C36	C	1.436852	0.196742	0.119237
C37	C	0.848995	-0.303265	-0.380774
C38	C	1.348995	0.196735	0.119226
C39	C	0.477515	-0.262998	-0.330347
C40	C	0.977515	0.237002	0.169653
C41	C	0.477523	-0.343613	-0.431261
C42	C	0.977523	0.156387	0.068739
C43	C	0.560069	-0.343604	-0.431256
C44	C	1.060069	0.156396	0.068744
C45	C	0.601342	-0.303292	-0.380795
C46	C	1.101342	0.196708	0.119205
C47	C	0.560069	-0.262989	-0.330339
C48	C	1.060069	0.237011	0.169661
C49	C	0.601349	-0.383910	-0.481705
C50	C	1.101349	0.116090	0.018295
C51	C	0.683900	-0.383903	-0.481702
C52	C	1.183900	0.116097	0.018298
C53	C	0.725174	-0.343588	-0.431244
C54	C	1.225174	0.156412	0.068756
C55	C	0.683896	-0.303283	-0.380787
C56	C	1.183896	0.196717	0.119213
C57	C	0.725168	-0.262971	-0.330326
C58	C	1.225168	0.237029	0.169674
C59	C	0.683892	-0.222662	-0.279871
C60	C	1.183892	0.277338	0.220129
C61	C	0.601343	-0.222673	-0.279881
C62	C	1.101343	0.277327	0.220119
C63	C	0.807722	-0.343577	-0.431235
C64	C	1.307722	0.156423	0.068765
C65	C	0.807722	-0.262962	-0.330318
C66	C	1.307722	0.237038	0.169682
C67	C	1.142114	-0.466831	-0.380737
C68	C	1.642114	0.033169	0.119263
C69	C	1.142142	-0.536799	-0.380745
C70	C	1.642142	-0.036799	0.119255
C71	C	1.192732	-0.569663	-0.330246
C72	C	1.692732	-0.069663	0.169754
C73	C	1.192769	-0.635405	-0.330264
C74	C	1.692769	-0.135405	0.169736
C75	C	1.142202	-0.668281	-0.380772
C76	C	1.642202	-0.168281	0.119228
C77	C	1.091609	-0.635410	-0.431281
C78	C	1.591609	-0.135410	0.068719
C79	C	1.091579	-0.569668	-0.431267
C80	C	1.591579	-0.069668	0.068733
N81	N	1.073056	-0.771544	-0.386792
N82	N	1.573056	-0.271544	0.113208
N83	N	1.073086	-0.833995	-0.386800
N84	N	1.573086	-0.333995	0.113200
C85	C	1.142291	-0.866356	-0.380818
C86	C	1.642291	-0.366356	0.119182
N87	N	1.211465	-0.833906	-0.374811
N88	N	1.711465	-0.333906	0.125189
N89	N	1.211433	-0.771449	-0.374798
N90	N	1.711433	-0.271449	0.125202
C91	C	1.142229	-0.739567	-0.380793
C92	C	1.642229	-0.239567	0.119207
C93	C	1.192925	-0.970505	-0.330335
C94	C	1.692925	-0.470505	0.169665
C95	C	1.192963	-1.036249	-0.330359
C96	C	1.692963	-0.536249	0.169641
C97	C	1.091796	-1.036252	-0.431371
C98	C	1.591796	-0.536252	0.068629
C99	C	1.091765	-0.970510	-0.431352
C100	C	1.591765	-0.470510	0.068648
C101	C	1.142328	-0.937640	-0.380830
C102	C	1.642328	-0.437640	0.119170
C103	C	1.348386	-0.303300	-0.380800
C104	C	1.848386	0.196700	0.119200
C105	C	1.436243	-0.303310	-0.380808
C106	C	1.936243	0.196690	0.119192
C107	C	1.142260	-0.303227	-0.586949
C108	C	1.642260	0.196773	-0.086949
C109	C	1.142278	-0.303205	-0.674806
C110	C	1.642278	0.196795	-0.174806
C111	C	1.142343	-0.139089	-0.380842
C112	C	1.642343	0.360911	0.119158
C113	C	1.142397	-0.069121	-0.380868
C114	C	1.642397	0.430879	0.119132
C115	C	1.091828	-0.262875	-1.046299
C116	C	1.591828	0.237125	-0.546299
C117	C	1.192868	-0.343401	-1.046265
C118	C	1.692868	0.156599	-0.546265
C119	C	1.192854	-0.343416	-0.963719
C120	C	1.692854	0.156584	-0.463719
C121	C	1.142326	-0.303160	-0.922459
C122	C	1.642326	0.196840	-0.422459
C123	C	1.091811	-0.262890	-0.963745
C124	C	1.591811	0.237110	-0.463745
C125	C	1.243362	-0.383690	-0.922427
C126	C	1.743362	0.116310	-0.422427
C127	C	1.243349	-0.383707	-0.839876
C128	C	1.743349	0.116293	-0.339876
C129	C	1.192825	-0.343448	-0.798615
C130	C	1.692825	0.156552	-0.298615
C131	C	1.142309	-0.303175	-0.839906
C132	C	1.642309	0.196825	-0.339906
C133	C	1.091781	-0.262919	-0.798645
C134	C	1.591781	0.237081	-0.298645
C135	C	1.041268	-0.222643	-0.839935
C136	C	1.541268	0.277357	-0.339935
C137	C	1.041287	-0.222630	-0.922483
C138	C	1.541287	0.277370	-0.422483
C139	C	1.192806	-0.343460	-0.716066
C140	C	1.692806	0.156540	-0.216066
C141	C	1.091764	-0.262934	-0.716092
C142	C	1.591764	0.237066	-0.216092
C143	C	1.142221	-0.303286	-0.175415
C144	C	1.642221	0.196714	0.324585
C145	C	1.142356	-0.303131	-0.087559
C146	C	1.642356	0.196869	0.412441
H147	H	0.443914	-0.376436	-0.472339
H148	H	0.943914	0.123564	0.027661
C149	C	0.853123	-0.387913	-0.486731
C150	C	1.353123	0.112087	0.013269
N151	N	0.887318	-0.421309	-0.528536
N152	N	1.387318	0.078691	-0.028536
C153	C	1.036178	-0.218648	-0.670712
C154	C	1.536178	0.281352	-0.170712
N155	N	0.994309	-0.185293	-0.636533
N156	N	1.494309	0.314707	-0.136533
H157	H	1.000125	-0.189869	-0.806330
H158	H	1.500125	0.310131	-0.306330
C159	C	1.035934	-0.533517	-0.486832
C160	C	1.535934	-0.033517	0.013168
N161	N	0.994025	-0.506287	-0.528687
N162	N	1.494025	-0.006287	-0.028687
H163	H	1.284490	-0.416472	-0.956027
H164	H	1.784490	0.083528	-0.456027
H165	H	1.284479	-0.416503	-0.806265
H166	H	1.784479	0.083497	-0.306265
H167	H	1.233938	-0.376248	-0.682452
H168	H	1.733938	0.123752	-0.182452
H169	H	1.000161	-0.189840	-0.956109
H170	H	1.500161	0.310160	-0.456109
H171	H	0.567738	-0.416735	-0.522782
H172	H	1.067738	0.083265	-0.022782
C173	C	1.248556	-0.934347	-0.274772
C174	C	1.748556	-0.434347	0.225228
N175	N	1.290461	-0.907114	-0.232925
N176	N	1.790461	-0.407114	0.267075
H177	H	1.234164	-1.063006	-0.289238
H178	H	1.734164	-0.563006	0.210762
C179	C	0.555933	-0.178340	-0.224383
C180	C	1.055933	0.321660	0.275617
N181	N	0.521727	-0.144950	-0.182581
N182	N	1.021727	0.355050	0.317419
H183	H	1.233905	-0.542902	-0.289110
H184	H	1.733905	-0.042902	0.210890
H185	H	0.717500	-0.416725	-0.522785
H186	H	1.217500	0.083275	-0.022785
H187	H	0.443904	-0.230177	-0.289270
H188	H	0.943904	0.269823	0.210730
H189	H	1.050628	-1.063019	-0.472499
H190	H	1.550628	-0.563019	0.027501
C191	C	1.248419	-0.671563	-0.274705
C192	C	1.748419	-0.171563	0.225295
N193	N	1.290333	-0.698795	-0.232856
N194	N	1.790333	-0.198795	0.267144
H195	H	1.050704	-0.230081	-1.079920
H196	H	1.550704	0.269919	-0.579920
H197	H	1.050439	-0.662182	-0.472406
H198	H	1.550439	-0.162182	0.027594
H199	H	1.050567	-0.943750	-0.472469
H200	H	1.550567	-0.443750	0.027531
H201	H	1.233999	-0.376181	-1.079864
H202	H	1.733999	0.123819	-0.579864
H203	H	0.717507	-0.189843	-0.238783
H204	H	1.217507	0.310157	0.261217
C205	C	0.853115	-0.218614	-0.274805
C206	C	1.353115	0.281386	0.225195
N207	N	0.887305	-0.185212	-0.232992
N208	N	1.387305	0.314788	0.267008
