data_functionalizedCrystal
_audit_creation_method	'MofGen! by Chris Wilmer'
_symmetry_space_group_name_H-M	'P1'
_symmetry_Int_Tables_number	1
_symmetry_cell_setting	triclinic
loop_
_symmetry_equiv_pos_as_xyz
  x,y,z
_cell_length_a	9.016244
_cell_length_b	14.853567
_cell_length_c	14.853567
_cell_angle_alpha	96.365070
_cell_angle_beta	89.998439
_cell_angle_gamma	89.995630
loop_
_atom_site_label
_atom_site_type_symbol
_atom_site_fract_x
_atom_site_fract_y
_atom_site_fract_z
O1	O	0.123225	-1.196369	0.117700
O2	O	0.623225	-0.696369	0.617700
O3	O	0.123249	-0.933909	0.131722
O4	O	0.623249	-0.433909	0.631722
O5	O	0.123241	-1.072150	-0.006519
O6	O	0.623241	-0.572150	0.493481
O7	O	0.123233	-1.058128	0.255941
O8	O	0.623233	-0.558128	0.755941
O9	O	-0.123440	-1.072130	-0.006515
O10	O	0.376560	-0.572130	0.493485
O11	O	-0.123432	-0.933889	0.131725
O12	O	0.376568	-0.433889	0.631725
O13	O	-0.123456	-1.196349	0.117704
O14	O	0.376544	-0.696349	0.617704
Cu15	Cu	-0.145968	-1.065117	0.124715
Cu16	Cu	0.354032	-0.565117	0.624715
Cu17	Cu	0.145761	-1.065141	0.124711
Cu18	Cu	0.645761	-0.565141	0.624711
O19	O	-0.123447	-1.058108	0.255944
O20	O	0.376553	-0.558108	0.755944
C21	C	-0.000088	-0.900311	0.131088
C22	C	0.499912	-0.400311	0.631088
C23	C	-0.000078	-0.800227	0.129184
C24	C	0.499922	-0.300227	0.629184
N25	N	-0.351154	-1.065107	0.124717
N26	N	0.148846	-0.565107	0.624717
C27	C	-0.000095	-1.071504	-0.040106
C28	C	0.499905	-0.571504	0.459894
C29	C	-0.000082	-1.069601	-0.140189
C30	C	0.499918	-0.569601	0.359811
C31	C	-0.586182	-0.990934	0.198422
C32	C	-0.086182	-0.490934	0.698422
C33	C	-0.414291	-0.991095	0.198694
C34	C	0.085709	-0.491095	0.698694
C35	C	-0.413502	-1.159203	0.145382
C36	C	0.086498	-0.659203	0.645382
C37	C	-0.585446	-1.158797	0.145903
C38	C	-0.085446	-0.658797	0.645903
C39	C	-0.585692	-1.046122	0.030100
C40	C	-0.085692	-0.546122	0.530100
C41	C	-0.413738	-1.043954	0.030731
C42	C	0.086262	-0.543954	0.530731
N43	N	0.350947	-1.065158	0.124702
N44	N	0.850947	-0.565158	0.624702
C45	C	-0.000115	-1.229947	0.118337
C46	C	0.499885	-0.729947	0.618337
C47	C	-0.000115	-1.330031	0.120241
C48	C	0.499885	-0.830031	0.620241
C49	C	-0.000109	-0.387693	0.039019
C50	C	0.499891	0.112307	0.539019
C51	C	-0.000112	-0.366412	0.203251
C52	C	0.499888	0.133588	0.703251
C53	C	-0.000108	-0.460446	0.205042
C54	C	0.499892	0.039554	0.705042
C55	C	-0.000101	-0.518108	0.123819
C56	C	0.499899	-0.018108	0.623819
C57	C	-0.000100	-0.481736	0.040806
C58	C	0.499900	0.018264	0.540806
C59	C	-0.000094	-0.496825	0.288053
C60	C	0.499906	0.003175	0.788053
C61	C	-0.000088	-0.590864	0.289846
C62	C	0.499912	-0.090864	0.789846
C63	C	-0.000092	-0.648528	0.208623
C64	C	0.499908	-0.148528	0.708623
C65	C	-0.000092	-0.612150	0.125607
C66	C	0.499908	-0.112150	0.625607
C67	C	-0.000086	-0.669812	0.044384
C68	C	0.499914	-0.169812	0.544384
C69	C	-0.000097	-0.633437	-0.038633
C70	C	0.499903	-0.133437	0.461367
C71	C	-0.000104	-0.539399	-0.040417
C72	C	0.499896	-0.039399	0.459583
C73	C	-0.000085	-0.742565	0.210407
C74	C	0.499915	-0.242565	0.710407
C75	C	-0.000077	-0.763855	0.046172
C76	C	0.499923	-0.263855	0.546172
C77	C	-0.000102	-0.979435	-0.552723
C78	C	0.499898	-0.479435	-0.052723
C79	C	-0.000117	-1.143668	-0.574004
C80	C	0.499883	-0.643668	-0.074004
C81	C	-0.000108	-1.145458	-0.479971
C82	C	0.499892	-0.645458	0.020029
C83	C	-0.000099	-1.064235	-0.422309
C84	C	0.499901	-0.564235	0.077691
C85	C	-0.000098	-0.981223	-0.458680
C86	C	0.499902	-0.481223	0.041320
C87	C	-0.000124	-1.228469	-0.443591
C88	C	0.499876	-0.728469	0.056409
C89	C	-0.000117	-1.230262	-0.349552
C90	C	0.499883	-0.730262	0.150448
C91	C	-0.000097	-1.149039	-0.291889
C92	C	0.499903	-0.649039	0.208111
C93	C	-0.000095	-1.066023	-0.328266
C94	C	0.499905	-0.566023	0.171734
C95	C	-0.000085	-0.984800	-0.270604
C96	C	0.499915	-0.484800	0.229396
C97	C	-0.000072	-0.901783	-0.306979
C98	C	0.499928	-0.401783	0.193021
C99	C	-0.000078	-0.899999	-0.401017
C100	C	0.499922	-0.399999	0.098983
C101	C	-0.000091	-1.150823	-0.197851
C102	C	0.499909	-0.650823	0.302149
C103	C	-0.000081	-0.986588	-0.176561
C104	C	0.499919	-0.486588	0.323439
C105	C	-0.000108	-1.058754	0.289531
C106	C	0.499892	-0.558754	0.789531
C107	C	-0.000111	-1.060657	0.389615
C108	C	0.499889	-0.560657	0.889615
H109	H	-0.372140	-0.921156	0.186364
H110	H	0.127860	-0.421156	0.686364
Br111	Br	-0.000063	-0.866774	-0.602086
Br112	Br	0.499937	-0.366774	-0.102086
Br113	Br	-0.658042	-0.934222	-0.002957
Br114	Br	-0.158042	-0.434222	0.497043
Br115	Br	-0.342137	-1.128192	-0.065005
Br116	Br	0.157863	-0.628192	0.434995
Br117	Br	-0.000114	-0.490027	-0.153073
Br118	Br	0.499886	0.009973	0.346927
Br119	Br	-0.000071	-0.418568	0.398276
Br120	Br	0.499929	0.081432	0.898276
H121	H	-0.000123	-0.358072	-0.028572
H122	H	0.499877	0.141928	0.471428
Br123	Br	-0.000162	-1.253893	-0.652259
Br124	Br	0.499838	-0.753893	-0.152259
H125	H	-0.000146	-1.294596	-0.490546
H126	H	0.499854	-0.794596	0.009454
Br127	Br	-0.345346	-1.253464	0.058279
Br128	Br	0.154654	-0.753464	0.558279
Br129	Br	-0.000078	-0.791557	-0.228714
Br130	Br	0.499922	-0.291557	0.271286
Br131	Br	-0.655117	-0.873986	0.178190
Br132	Br	-0.155117	-0.373986	0.678190
Br133	Br	-0.000112	-1.342925	-0.300193
Br134	Br	0.499888	-0.842925	0.199807
H135	H	-0.000105	-0.319459	0.269379
H136	H	0.499895	0.180541	0.769379
H137	H	-0.000067	-0.920445	-0.129618
H138	H	0.499933	-0.420445	0.370382
H139	H	-0.000112	-1.218414	-0.168238
H140	H	0.499888	-0.718414	0.331762
Br141	Br	-0.658144	-1.010945	0.314774
Br142	Br	-0.158144	-0.510945	0.814774
Br143	Br	-0.000050	-0.787343	-0.450389
Br144	Br	0.499950	-0.287343	0.049611
H145	H	-0.000079	-0.620472	0.357443
H146	H	0.499921	-0.120472	0.857443
H147	H	-0.000078	-0.772178	0.277998
H148	H	0.499922	-0.272178	0.777998
H149	H	-0.372989	-0.974736	0.015051
H150	H	0.127011	-0.474736	0.515051
Br151	Br	-0.653450	-1.136335	-0.061340
Br152	Br	-0.153450	-0.636335	0.438660
Br153	Br	-0.000086	-0.842104	-0.064065
Br154	Br	0.499914	-0.342104	0.435935
Br155	Br	-0.652279	-1.186727	0.260900
Br156	Br	-0.152279	-0.686727	0.760900
Br157	Br	-0.345702	-1.011325	0.315714
Br158	Br	0.154298	-0.511325	0.815714
H159	H	-0.627032	-1.215760	0.094332
H160	H	-0.127032	-0.715760	0.594332
Br161	Br	-0.000071	-0.711703	-0.148859
Br162	Br	0.499929	-0.211703	0.351141
H163	H	-0.370428	-1.176352	0.213594
H164	H	0.129572	-0.676352	0.713594
