data_functionalizedCrystal
_audit_creation_method	'MofGen! by Chris Wilmer'
_symmetry_space_group_name_H-M	'P1'
_symmetry_Int_Tables_number	1
_symmetry_cell_setting	triclinic
loop_
_symmetry_equiv_pos_as_xyz
  x,y,z
_cell_length_a	23.532355
_cell_length_b	8.559649
_cell_length_c	7.681481
_cell_angle_alpha	94.930900
_cell_angle_beta	84.310125
_cell_angle_gamma	76.303068
loop_
_atom_site_label
_atom_site_type_symbol
_atom_site_fract_x
_atom_site_fract_y
_atom_site_fract_z
O1	O	-0.741153	-0.208919	-0.146266
O2	O	-0.574108	-0.237095	-0.146303
O3	O	-0.672347	0.009837	-0.146279
O4	O	-0.642913	-0.455850	-0.146289
O5	O	-0.684442	0.040299	0.146582
O6	O	-0.586203	-0.206633	0.146558
O7	O	-0.753247	-0.178457	0.146595
Zn8	Zn	-0.671645	-0.187709	0.193074
Zn9	Zn	-0.655710	-0.227843	-0.192782
O10	O	-0.655008	-0.425389	0.146571
C11	C	-0.558968	-0.221160	0.000123
C12	C	-0.495837	-0.219045	0.000108
C13	C	-0.216387	-0.226387	-0.159513
C14	C	-0.275703	-0.228392	-0.159519
O15	O	-0.300781	-0.243494	-0.295283
N16	N	-0.311959	-0.212800	0.000119
C17	C	-0.288898	-0.195185	0.159774
O18	O	-0.325184	-0.182106	0.295558
C19	C	-0.229584	-0.193170	0.159778
C20	C	-0.193329	-0.208779	0.000129
C21	C	-0.180132	-0.241994	-0.319149
C22	C	-0.120820	-0.239992	-0.319142
C23	C	-0.097762	-0.222384	-0.159500
C24	C	-0.134017	-0.206778	0.000136
C25	C	-0.206525	-0.175544	0.319431
C26	C	-0.147207	-0.173528	0.319421
C27	C	-0.110952	-0.189138	0.159772
C28	C	-0.051647	-0.187168	0.159784
N29	N	-0.015391	-0.202760	0.000146
C30	C	-0.038448	-0.220368	-0.159496
C31	C	-0.413461	-0.199417	0.159754
C32	C	-0.472773	-0.201445	0.159751
C33	C	-0.459574	-0.234648	-0.159542
C34	C	-0.400260	-0.232632	-0.159538
C35	C	-0.377205	-0.215010	0.000115
C36	C	0.086111	-0.216165	-0.159471
C37	C	0.145429	-0.214169	-0.159450
C38	C	0.132224	-0.180957	0.159842
C39	C	0.072912	-0.182962	0.159823
C40	C	0.049857	-0.200562	0.000152
O41	O	-0.026529	-0.172065	0.295479
O42	O	-0.002158	-0.233424	-0.295258
C43	C	0.231614	-0.194405	0.000172
C44	C	0.168486	-0.196560	0.000192
C45	C	-0.680625	0.084634	0.000148
C46	C	-0.687264	0.262122	0.000140
C47	C	-0.646730	-0.500186	0.000140
C48	C	-0.640091	-0.677675	0.000137
N49	N	-0.682525	-0.160317	0.456411
N50	N	-0.644836	-0.255222	-0.456119
H51	H	0.043394	-0.170283	0.289822
H52	H	-0.732734	0.346376	0.000164
C53	C	-0.592857	-0.386083	0.442281
N54	N	-0.553705	-0.484648	0.365744
C55	C	-0.484950	-0.254002	-0.335153
N56	N	-0.504066	-0.268576	-0.467415
H57	H	-0.502286	-0.188760	0.289754
C58	C	-0.360386	-0.249787	-0.335162
N59	N	-0.330356	-0.262701	-0.467450
H60	H	-0.721003	-0.063452	0.531626
C61	C	-0.121850	-0.154151	0.495057
N62	N	-0.102751	-0.139563	0.627346
C63	C	-0.388104	-0.180067	0.335397
N64	N	-0.369007	-0.165498	0.467691
H65	H	0.067348	-0.230499	-0.289490
C66	C	0.185305	-0.231329	-0.335083
N67	N	0.215338	-0.244247	-0.467367
H68	H	0.151009	-0.166627	0.289819
C69	C	-0.080950	-0.257130	-0.494770
N70	N	-0.050924	-0.270026	-0.627063
H71	H	-0.594624	0.238082	0.000132
H72	H	-0.236035	-0.162828	0.449434
C73	C	-0.205486	-0.261363	-0.494784
N74	N	-0.224576	-0.275963	-0.627084
