data_functionalizedCrystal
_audit_creation_method	'MofGen! by Chris Wilmer'
_symmetry_space_group_name_H-M	'P1'
_symmetry_Int_Tables_number	1
_symmetry_cell_setting	triclinic
loop_
_symmetry_equiv_pos_as_xyz
  x,y,z
_cell_length_a	21.295419
_cell_length_b	21.295417
_cell_length_c	13.897441
_cell_angle_alpha	89.965596
_cell_angle_beta	89.980254
_cell_angle_gamma	90.044503
loop_
_atom_site_label
_atom_site_type_symbol
_atom_site_fract_x
_atom_site_fract_y
_atom_site_fract_z
Zn1	Zn	0.962329	-0.250347	-0.545379
Zn2	Zn	1.462329	0.249653	-0.045379
Zn3	Zn	0.962242	-0.355624	-0.384067
Zn4	Zn	1.462242	0.144376	0.115933
Zn5	Zn	0.857061	-0.250400	-0.384094
Zn6	Zn	1.357061	0.249600	0.115906
Zn7	Zn	0.857023	-0.355609	-0.545316
Zn8	Zn	1.357023	0.144391	-0.045316
O9	O	0.909664	-0.302995	-0.464714
O10	O	1.409664	0.197005	0.035286
O11	O	1.050407	-0.264296	-0.523995
O12	O	1.550407	0.235704	-0.023995
O13	O	0.948269	-0.341694	-0.249089
O14	O	1.448269	0.158306	0.250911
O15	O	0.871078	-0.162303	-0.405526
O16	O	1.371078	0.337697	0.094474
O17	O	1.050343	-0.341643	-0.405480
O18	O	1.550343	0.158357	0.094520
O19	O	0.948418	-0.162264	-0.524022
O20	O	1.448418	0.337736	-0.024022
O21	O	0.870993	-0.264386	-0.249109
O22	O	1.370993	0.235614	0.250891
O23	O	0.768967	-0.264372	-0.405466
O24	O	1.268967	0.235628	0.094534
O25	O	0.871013	-0.341617	-0.680306
O26	O	1.371013	0.158383	-0.180306
O27	O	0.768939	-0.341669	-0.523915
O28	O	1.268939	0.158331	-0.023915
O29	O	0.948381	-0.264282	-0.680352
O30	O	1.448381	0.235718	-0.180352
O31	O	0.948232	-0.443711	-0.405419
O32	O	1.448232	0.056289	0.094581
O33	O	0.870928	-0.443700	-0.523889
O34	O	1.370928	0.056300	-0.023889
C35	C	0.746112	-0.303025	-0.464687
C36	C	1.246112	0.196975	0.035313
C37	C	0.676144	-0.303053	-0.464698
C38	C	1.176144	0.196947	0.035302
C39	C	0.643333	-0.262844	-0.526505
C40	C	1.143333	0.237156	-0.026505
C41	C	0.577591	-0.262828	-0.526508
C42	C	1.077591	0.237172	-0.026508
C43	C	0.544662	-0.303030	-0.464716
C44	C	1.044662	0.196970	0.035284
C45	C	0.577480	-0.343242	-0.402898
C46	C	1.077480	0.156758	0.097102
C47	C	0.643222	-0.343253	-0.402889
C48	C	1.143222	0.156747	0.097111
N49	N	0.441388	-0.358109	-0.457179
N50	N	0.941388	0.141891	0.042821
N51	N	0.378936	-0.358096	-0.457193
N52	N	0.878936	0.141904	0.042807
C53	C	0.346587	-0.302998	-0.464737
C54	C	0.846587	0.197002	0.035263
N55	N	0.379049	-0.247911	-0.472286
N56	N	0.879049	0.252089	0.027714
N57	N	0.441506	-0.247924	-0.472277
N58	N	0.941506	0.252076	0.027723
C59	C	0.473376	-0.303022	-0.464718
C60	C	0.973376	0.196978	0.035282
C61	C	0.242491	-0.262768	-0.526551
C62	C	0.742491	0.237232	-0.026551
C63	C	0.176747	-0.262750	-0.526548
C64	C	0.676747	0.237250	-0.026548
C65	C	0.176638	-0.343170	-0.402942
C66	C	0.676638	0.156830	0.097058
C67	C	0.242380	-0.343182	-0.402940
C68	C	0.742380	0.156818	0.097060
C69	C	0.275303	-0.302982	-0.464750
C70	C	0.775303	0.197018	0.035250
C71	C	0.909584	-0.466546	-0.464665
C72	C	1.409584	0.033454	0.035335
C73	C	0.909607	-0.536515	-0.464677
C74	C	1.409607	-0.036515	0.035323
C75	C	0.949855	-0.569304	-0.526421
C76	C	1.449855	-0.069304	-0.026421
C77	C	0.949877	-0.635046	-0.526445
C78	C	1.449877	-0.135046	-0.026445
C79	C	0.909658	-0.667997	-0.464707
C80	C	1.409658	-0.167997	0.035293
C81	C	0.869402	-0.635200	-0.402958
C82	C	1.369402	-0.135200	0.097042
C83	C	0.869377	-0.569459	-0.402943
C84	C	1.369377	-0.069459	0.097057
N85	N	0.904903	-0.771264	-0.380290
N86	N	1.404903	-0.271264	0.119710
N87	N	0.904931	-0.833715	-0.380307
N88	N	1.404931	-0.333715	0.119693
C89	C	0.909732	-0.866072	-0.464751
C90	C	1.409732	-0.366072	0.035249
N91	N	0.914515	-0.833617	-0.549178
N92	N	1.414515	-0.333617	-0.049178
N93	N	0.914491	-0.771160	-0.549160
N94	N	1.414491	-0.271160	-0.049160
C95	C	0.909681	-0.739282	-0.464717
C96	C	1.409681	-0.239282	0.035283
C97	C	0.950006	-0.970146	-0.526526
C98	C	1.450006	-0.470146	-0.026526
C99	C	0.950024	-1.035890	-0.526552
C100	C	1.450024	-0.535890	-0.026552
C101	C	0.869552	-1.036042	-0.403056
C102	C	1.369552	-0.536042	0.096944
C103	C	0.869531	-0.970300	-0.403039
C104	C	1.369531	-0.470300	0.096961
C105	C	0.909761	-0.937356	-0.464773
C106	C	1.409761	-0.437356	0.035227
C107	C	1.073854	-0.302965	-0.464742
C108	C	1.573854	0.197035	0.035258
C109	C	1.143822	-0.302952	-0.464754
C110	C	1.643822	0.197048	0.035246
C111	C	0.909703	-0.302942	-0.716307
C112	C	1.409703	0.197058	-0.216307
C113	C	0.909719	-0.302919	-0.823521
C114	C	1.409719	0.197081	-0.323521
C115	C	0.909762	-0.138804	-0.464784
C116	C	1.409762	0.361196	0.035216
C117	C	0.909803	-0.068836	-0.464814
C118	C	1.409803	0.431164	0.035186
C119	C	0.909732	-0.302902	-0.910591
C120	C	1.409732	0.197098	-0.410591
C121	C	0.909750	-0.302873	-1.019824
C122	C	1.409750	0.197127	-0.519824
C123	C	0.909662	-0.303002	-0.214100
C124	C	1.409662	0.196998	0.285900
C125	C	0.909767	-0.302847	-0.106886
C126	C	1.409767	0.197153	0.393114
H127	H	0.550665	-0.375975	-0.352585
H128	H	1.050665	0.124025	0.147415
H129	H	0.982647	-0.661748	-0.576736
H130	H	1.482647	-0.161748	-0.076736
H131	H	0.982762	-0.943322	-0.576797
H132	H	1.482762	-0.443322	-0.076797
H133	H	0.269095	-0.375927	-0.352615
H134	H	0.769095	0.124073	0.147385
N135	N	0.991147	-1.069374	-0.589627
N136	N	1.491147	-0.569374	-0.089627
N137	N	1.049232	-1.061966	-0.583300
N138	N	1.549232	-0.561966	-0.083300
H139	H	1.078277	-1.085614	-0.627848
H140	H	1.578277	-0.585614	-0.127848
H141	H	0.550871	-0.230082	-0.576837
H142	H	1.050871	0.269918	-0.076837
H143	H	0.669936	-0.375997	-0.352557
H144	H	1.169936	0.124003	0.147443
H145	H	0.150034	-0.230003	-0.576876
H146	H	0.650034	0.269997	-0.076876
N147	N	0.828319	-0.668865	-0.339906
N148	N	1.328319	-0.168865	0.160094
N149	N	0.828348	-0.727562	-0.339927
N150	N	1.328348	-0.227562	0.160073
H151	H	0.799329	-0.751338	-0.295398
H152	H	1.299329	-0.251338	0.204602
N153	N	0.276115	-0.221699	-0.589684
N154	N	0.776115	0.278301	-0.089684
N155	N	0.246808	-0.185793	-0.644857
N156	N	0.746808	0.314207	-0.144857
H157	H	0.270554	-0.156786	-0.689444
H158	H	0.770554	0.343214	-0.189444
H159	H	0.149828	-0.375903	-0.352629
H160	H	0.649828	0.124097	0.147371
N161	N	0.990951	-0.535663	-0.589485
N162	N	1.490951	-0.035663	-0.089485
N163	N	1.026884	-0.564952	-0.644612
N164	N	1.526884	-0.064952	-0.144612
H165	H	1.055909	-0.541193	-0.689153
H166	H	1.555909	-0.041193	-0.189153
N167	N	0.676959	-0.221766	-0.589618
N168	N	1.176959	0.278234	-0.089618
N169	N	0.713667	-0.181628	-0.555786
N170	N	1.213667	0.318372	-0.055786
H171	H	0.737416	-0.152614	-0.600357
H172	H	1.237416	0.347386	-0.100357
N173	N	0.828260	-0.535955	-0.339882
N174	N	1.328260	-0.035955	0.160118
N175	N	0.788123	-0.499300	-0.373763
N176	N	1.288123	0.000700	0.126237
H177	H	0.759082	-0.475637	-0.329227
H178	H	1.259082	0.024363	0.170773
H179	H	0.836801	-1.062870	-0.352794
H180	H	1.336801	-0.562870	0.147206
H181	H	0.836760	-0.943601	-0.352757
H182	H	1.336760	-0.443601	0.147243
