data_functionalizedCrystal
_audit_creation_method	'MofGen! by Chris Wilmer'
_symmetry_space_group_name_H-M	'P1'
_symmetry_Int_Tables_number	1
_symmetry_cell_setting	triclinic
loop_
_symmetry_equiv_pos_as_xyz
  x,y,z
_cell_length_a	14.908571
_cell_length_b	13.897448
_cell_length_c	14.908308
_cell_angle_alpha	86.730337
_cell_angle_beta	90.175053
_cell_angle_gamma	93.284087
loop_
_atom_site_label
_atom_site_type_symbol
_atom_site_fract_x
_atom_site_fract_y
_atom_site_fract_z
Zn1	Zn	1.345301	0.503381	-0.587603
Zn2	Zn	1.353883	0.655952	-0.437249
Zn3	Zn	1.203616	0.484854	-0.428600
Zn4	Zn	1.194911	0.654806	-0.578901
O5	O	1.274428	0.574749	-0.508088
O6	O	1.472266	0.531854	-0.574919
O7	O	1.341185	0.625982	-0.310277
O8	O	1.222463	0.352335	-0.449714
O9	O	1.478571	0.643947	-0.464455
O10	O	1.326558	0.365947	-0.566532
O11	O	1.230784	0.500277	-0.303922
O12	O	1.076636	0.499165	-0.441276
O13	O	1.207626	0.641994	-0.705880
O14	O	1.070240	0.624029	-0.551701
O15	O	1.318117	0.530742	-0.712273
O16	O	1.332744	0.790777	-0.456018
O17	O	1.215948	0.789936	-0.560088
C18	C	1.040812	0.559463	-0.494606
C19	C	0.940869	0.552948	-0.488860
C20	C	1.274356	0.825357	-0.508068
C21	C	1.274405	0.932576	-0.508095
C22	C	0.746463	0.670908	-0.592894
C23	C	0.652558	0.664790	-0.587498
C24	C	0.659150	0.534590	-0.472677
C25	C	0.753056	0.540708	-0.478073
C26	C	0.796709	0.608871	-0.538183
C27	C	0.890617	0.614993	-0.543573
C28	C	0.897208	0.484788	-0.428758
C29	C	0.803302	0.478670	-0.423362
C30	C	1.274490	1.128880	-0.508164
C31	C	1.274440	1.019643	-0.508128
C32	C	1.508956	0.590095	-0.521623
C33	C	1.608898	0.596634	-0.527391
C34	C	1.274516	1.323164	-0.508139
C35	C	1.274532	1.215954	-0.508187
C36	C	1.260943	0.588307	-0.742614
C37	C	1.255197	0.594085	-0.842555
C38	C	1.359450	0.489073	-1.037013
C39	C	1.354054	0.494499	-1.130917
C40	C	1.239003	0.610355	-1.124267
C41	C	1.244400	0.604930	-1.030363
C42	C	1.304626	0.544288	-0.986740
C43	C	1.310027	0.538868	-0.892835
C44	C	1.194972	0.654719	-0.886187
C45	C	1.189576	0.660145	-0.980090
C46	C	1.287912	0.561177	-0.274477
C47	C	1.293833	0.555139	-0.174547
H48	H	0.782006	0.726414	-0.641832
H49	H	0.938128	0.434274	-0.384206
C50	C	1.173674	0.676334	-1.171534
C51	C	1.194511	0.771734	-1.149809
C52	C	1.134341	0.832536	-1.193328
H53	H	1.178258	0.671774	-1.234669
H54	H	1.114135	0.657434	-1.152642
H55	H	1.254035	0.790629	-1.168706
H56	H	1.189921	0.776325	-1.086682
H57	H	1.074802	0.813635	-1.174437
H58	H	1.138930	0.827967	-1.256461
H59	H	1.148465	0.897269	-1.178587
H60	H	1.359067	0.489491	-0.857318
C61	C	1.413534	0.434385	-1.185381
C62	C	1.395314	0.336353	-1.161404
C63	C	1.450100	0.280945	-1.211548
H64	H	1.401755	0.446172	-1.247572
H65	H	1.474845	0.451504	-1.173454
H66	H	1.334018	0.319241	-1.173337
H67	H	1.407099	0.324537	-1.099221
H68	H	1.511410	0.298063	-1.199621
H69	H	1.438316	0.292739	-1.273736
H70	H	1.437751	0.214424	-1.195280
C71	C	1.424701	0.423172	-0.989520
C72	C	1.376916	0.354918	-0.932662
C73	C	1.436997	0.294203	-0.888889
H74	H	1.456611	0.390970	-1.032808
H75	H	1.465956	0.460491	-0.955091
H76	H	1.335677	0.317603	-0.967089
H77	H	1.345008	0.387092	-0.889358
H78	H	1.478252	0.331522	-0.854460
H79	H	1.468905	0.262008	-0.932183
H80	H	1.404585	0.247891	-0.850300
H81	H	1.140539	0.709516	-1.015621
C82	C	0.598164	0.732264	-0.646943
C83	C	0.656498	0.793277	-0.700722
C84	C	0.606423	0.855455	-0.755490
H85	H	0.559284	0.695420	-0.684151
H86	H	0.563515	0.769914	-0.610401
H87	H	0.691132	0.755632	-0.737261
H88	H	0.695378	0.830142	-0.663538
H89	H	0.571774	0.893105	-0.718948
H90	H	0.567545	0.818603	-0.792692
H91	H	0.645995	0.896866	-0.791979
C92	C	1.135488	0.714560	-0.831443
C93	C	1.153089	0.696818	-0.739867
C94	C	1.098306	0.751918	-0.689410
H95	H	1.147692	0.781146	-0.847475
H96	H	1.074176	0.697371	-0.843293
H97	H	1.214386	0.714013	-0.728022
H98	H	1.140880	0.630243	-0.723808
H99	H	1.036994	0.734729	-0.701261
H100	H	1.110515	0.818501	-0.705450
H101	H	1.110235	0.739881	-0.627271
H102	H	0.926157	0.670495	-0.592516
H103	H	0.623591	0.479090	-0.423745
C104	C	0.755739	0.404762	-0.358131
C105	C	0.662746	0.412693	-0.365101
C106	C	0.618905	0.344632	-0.305015
H107	H	0.770278	0.341695	-0.372211
H108	H	0.774532	0.416295	-0.298556
H109	H	0.643960	0.401153	-0.424664
H110	H	0.648180	0.475745	-0.351013
H111	H	0.637698	0.356165	-0.245440
H112	H	0.633451	0.281570	-0.319101
H113	H	0.555806	0.350010	-0.309731
