data_functionalizedCrystal
_audit_creation_method	'MofGen! by Chris Wilmer'
_symmetry_space_group_name_H-M	'P1'
_symmetry_Int_Tables_number	1
_symmetry_cell_setting	triclinic
loop_
_symmetry_equiv_pos_as_xyz
  x,y,z
_cell_length_a	12.827893
_cell_length_b	12.827892
_cell_length_c	12.827885
_cell_angle_alpha	90.029786
_cell_angle_beta	90.021189
_cell_angle_gamma	90.013601
loop_
_atom_site_label
_atom_site_type_symbol
_atom_site_fract_x
_atom_site_fract_y
_atom_site_fract_z
Zn1	Zn	-1.597670	0.416032	-0.590902
Zn2	Zn	-1.097670	0.916032	-0.090902
Zn3	Zn	-1.597564	0.590810	-0.416162
Zn4	Zn	-1.097564	1.090810	0.083838
Zn5	Zn	-1.422911	0.416078	-0.416170
Zn6	Zn	-0.922911	0.916078	0.083830
Zn7	Zn	-1.422896	0.590727	-0.590857
Zn8	Zn	-0.922896	1.090727	-0.090857
O9	O	-1.510260	0.503412	-0.503523
O10	O	-1.010260	1.003412	-0.003523
O11	O	-1.743892	0.439233	-0.567738
O12	O	-1.243892	0.939233	-0.067738
O13	O	-1.574358	0.567685	-0.269927
O14	O	-1.074358	1.067685	0.230073
O15	O	-1.446144	0.269836	-0.439371
O16	O	-0.946144	0.769836	0.060629
O17	O	-1.743814	0.567641	-0.439358
O18	O	-1.243814	1.067641	0.060642
O19	O	-1.574538	0.269802	-0.567746
O20	O	-1.074538	0.769802	-0.067746
O21	O	-1.446041	0.439310	-0.269933
O22	O	-0.946041	0.939310	0.230067
O23	O	-1.276673	0.439230	-0.439327
O24	O	-0.776673	0.939230	0.060673
O25	O	-1.446118	0.567499	-0.737099
O26	O	-0.946118	1.067499	-0.237099
O27	O	-1.276662	0.567543	-0.567668
O28	O	-0.776662	1.067543	-0.067668
O29	O	-1.574524	0.439152	-0.737132
O30	O	-1.074524	0.939152	-0.237132
O31	O	-1.574343	0.737035	-0.439314
O32	O	-1.074343	1.237035	0.060686
O33	O	-1.446016	0.736974	-0.567661
O34	O	-0.946016	1.236974	-0.067661
C35	C	-1.238750	0.503383	-0.503494
C36	C	-0.738750	1.003383	-0.003494
C37	C	-1.122597	0.503396	-0.503506
C38	C	-0.622597	1.003396	-0.003506
C39	C	-1.070851	0.439967	-0.567130
C40	C	-0.570851	0.939967	-0.067130
C41	C	-0.950800	0.439979	-0.567144
C42	C	-0.450800	0.939979	-0.067144
C43	C	-1.510195	0.774922	-0.503504
C44	C	-1.010195	1.274922	-0.003504
C45	C	-1.510262	0.891075	-0.503531
C46	C	-1.010262	1.391075	-0.003531
C47	C	-0.782830	0.503432	-0.503544
C48	C	-0.282830	1.003432	-0.003544
C49	C	-0.898983	0.503419	-0.503532
C50	C	-0.398983	1.003419	-0.003532
C51	C	-1.510331	0.503311	-0.776093
C52	C	-1.010331	1.003311	-0.276093
C53	C	-1.510362	0.503269	-0.892246
C54	C	-1.010362	1.003269	-0.392246
C55	C	-1.510354	0.230841	-0.503564
C56	C	-1.010354	0.730841	-0.003564
C57	C	-1.510394	0.114688	-0.503582
C58	C	-1.010394	0.614688	-0.003582
C59	C	-1.573838	0.942855	-0.440092
C60	C	-1.073838	1.442855	0.059908
C61	C	-1.573910	1.062905	-0.440118
C62	C	-1.073910	1.562905	0.059882
C63	C	-1.573907	0.439746	-0.944048
C64	C	-1.073907	0.939746	-0.444048
C65	C	-1.573940	0.439700	-1.064098
C66	C	-1.073940	0.939700	-0.564098
C67	C	-1.510249	0.503436	-0.232013
C68	C	-1.010249	1.003436	0.267987
C69	C	-1.510422	0.503185	-0.115860
C70	C	-1.010422	1.003185	0.384140
H71	H	-0.906300	0.385678	-0.621619
H72	H	-0.406300	0.885678	-0.121619
O73	O	-1.438221	0.950073	-0.575495
O74	O	-0.938221	1.450073	-0.075495
H75	H	-1.485034	0.999732	-0.628668
H76	H	-0.985034	1.499732	-0.128668
H77	H	-1.628220	0.898312	-0.385762
H78	H	-1.128220	1.398312	0.114238
O79	O	-1.438332	0.575223	-1.056880
O80	O	-0.938332	1.075223	-0.556880
H81	H	-1.485101	0.628375	-1.007139
H82	H	-0.985101	1.128375	-0.507139
H83	H	-1.628336	1.107435	-0.385802
H84	H	-1.128336	1.607435	0.114198
O85	O	-1.438274	1.055725	-0.575524
O86	O	-0.938274	1.555725	-0.075524
H87	H	-1.456132	1.076543	-0.657583
H88	H	-0.956132	1.576543	-0.157583
H89	H	-1.628348	0.385320	-1.108646
H90	H	-1.128348	0.885320	-0.608646
H91	H	-1.628283	0.385392	-0.899520
H92	H	-1.128283	0.885392	-0.399520
O93	O	-1.129884	0.368010	-0.639267
O94	O	-0.629884	0.868010	-0.139267
H95	H	-1.109030	0.386004	-0.721275
H96	H	-0.609030	0.886004	-0.221275
H97	H	-0.943477	0.557732	-0.449064
H98	H	-0.443477	1.057732	0.050936
O99	O	-1.438317	0.575258	-0.951218
O100	O	-0.938317	1.075258	-0.451218
H101	H	-1.456177	0.657306	-0.930318
H102	H	-0.956177	1.157306	-0.430318
H103	H	-1.078022	0.557707	-0.449044
H104	H	-0.578022	1.057707	0.050956
