data_functionalizedCrystal
_audit_creation_method	'MofGen! by Chris Wilmer'
_symmetry_space_group_name_H-M	'P1'
_symmetry_Int_Tables_number	1
_symmetry_cell_setting	triclinic
loop_
_symmetry_equiv_pos_as_xyz
  x,y,z
_cell_length_a	17.077404
_cell_length_b	29.839131
_cell_length_c	17.077396
_cell_angle_alpha	89.968087
_cell_angle_beta	89.980499
_cell_angle_gamma	90.041645
loop_
_atom_site_label
_atom_site_type_symbol
_atom_site_fract_x
_atom_site_fract_y
_atom_site_fract_z
Zn1	Zn	1.199954	-0.178851	-0.443824
Zn2	Zn	1.199818	-0.253981	-0.312550
Zn3	Zn	1.068685	-0.178866	-0.312572
Zn4	Zn	1.068611	-0.253955	-0.443774
O5	O	1.134267	-0.216413	-0.378180
O6	O	1.309782	-0.188821	-0.426422
O7	O	1.182398	-0.244035	-0.202706
O8	O	1.086186	-0.115997	-0.330013
O9	O	1.309683	-0.244020	-0.329976
O10	O	1.182628	-0.115986	-0.426443
O11	O	1.086055	-0.188848	-0.202722
O12	O	0.958829	-0.188822	-0.329964
O13	O	1.086059	-0.243974	-0.553627
O14	O	0.958774	-0.243989	-0.426358
O15	O	1.182556	-0.188796	-0.553664
O16	O	1.182325	-0.316845	-0.329927
O17	O	1.085928	-0.316825	-0.426336
C18	C	0.930319	-0.216405	-0.378158
C19	C	0.843069	-0.216412	-0.378168
C20	C	0.802071	-0.245181	-0.428279
C21	C	0.720091	-0.245182	-0.428292
C22	C	0.679110	-0.216416	-0.378188
C23	C	0.720114	-0.187644	-0.328074
C24	C	0.802093	-0.187641	-0.328066
C25	C	0.549244	-0.187653	-0.328093
C26	C	0.467259	-0.187657	-0.328100
C27	C	0.467242	-0.245194	-0.428319
C28	C	0.549221	-0.245191	-0.428311
C29	C	0.590219	-0.216420	-0.378196
C30	C	1.134125	-0.333136	-0.378141
C31	C	1.134136	-0.383070	-0.378151
C32	C	1.184552	-0.692711	-0.328053
C33	C	1.184649	-0.880384	-0.328083
O34	O	1.227402	-0.904647	-0.285459
N35	N	1.134430	-0.903855	-0.378239
C36	C	1.084186	-0.880405	-0.428394
O37	O	1.041479	-0.904675	-0.471061
C38	C	1.084094	-0.692733	-0.428367
C39	C	1.134311	-0.669264	-0.378203
C40	C	1.234766	-0.669242	-0.277893
C41	C	1.234738	-0.622327	-0.277883
C42	C	1.184497	-0.598880	-0.328033
C43	C	1.134283	-0.622349	-0.378193
C44	C	1.033855	-0.669284	-0.478526
C45	C	1.033837	-0.622363	-0.478516
C46	C	1.084055	-0.598894	-0.428352
C47	C	1.084014	-0.551987	-0.428332
N48	N	1.134233	-0.528516	-0.378177
C49	C	1.184475	-0.551962	-0.328027
C50	C	1.084237	-0.978936	-0.428404
C51	C	1.084259	-1.025854	-0.428410
C52	C	1.184723	-1.025829	-0.328100
C53	C	1.184697	-0.978911	-0.328090
C54	C	1.134457	-0.955465	-0.378248
C55	C	1.184412	-0.453437	-0.328009
C56	C	1.184378	-0.406517	-0.328001
C57	C	1.083917	-0.406545	-0.428314
C58	C	1.083948	-0.453461	-0.428319
C59	C	1.134202	-0.476905	-0.378164
O60	O	1.041290	-0.527695	-0.470941
O61	O	1.227188	-0.527685	-0.285378
C62	C	1.184580	-0.739627	-0.328063
C63	C	1.134366	-0.763095	-0.378223
C64	C	1.084125	-0.739649	-0.428373
C65	C	1.134388	-0.810013	-0.378229
C66	C	1.184630	-0.833460	-0.328079
C67	C	1.234849	-0.809989	-0.277923
C68	C	1.234822	-0.763073	-0.277913
C69	C	1.033905	-0.763120	-0.478529
C70	C	1.033937	-0.810035	-0.478534
C71	C	1.084178	-0.833482	-0.428384
C72	C	1.339011	-0.216422	-0.378202
C73	C	1.426261	-0.216425	-0.378212
C74	C	1.134314	-0.216380	-0.582924
C75	C	1.134335	-0.216366	-0.670174
C76	C	1.134431	-0.099235	-0.378236
C77	C	1.134500	-0.049300	-0.378260
C78	C	1.184582	-0.187632	-0.711185
C79	C	1.184592	-0.187617	-0.793165
C80	C	1.134357	-0.216339	-0.834134
C81	C	1.084104	-0.245074	-0.793117
C82	C	1.084091	-0.245086	-0.711138
C83	C	1.084135	-0.245047	-0.963987
C84	C	1.084149	-0.245035	-1.045972
C85	C	1.184636	-0.187578	-1.046014
C86	C	1.184624	-0.187590	-0.964035
C87	C	1.134371	-0.216326	-0.923025
C88	C	1.134265	-0.216414	-0.174232
C89	C	1.134397	-0.216301	-0.086983
H90	H	0.582622	-0.164220	-0.287291
O91	O	1.233305	-0.159661	-0.924159
C92	C	1.243901	-0.098991	-0.831691
C93	C	1.188689	-0.130606	-0.876783
H94	H	1.207850	-0.075487	-0.793389
H95	H	1.284906	-0.119589	-0.793246
H96	H	1.279825	-0.078471	-0.875107
H97	H	1.152713	-0.151133	-0.833424
H98	H	1.147735	-0.109982	-0.915239
H99	H	0.835472	-0.164213	-0.287265
H100	H	0.686714	-0.268609	-0.469097
O101	O	0.427376	-0.159676	-0.279557
C102	C	0.334955	-0.098979	-0.269265
C103	C	0.380051	-0.130655	-0.324318
H104	H	0.296695	-0.075501	-0.305432
H105	H	0.296468	-0.119531	-0.228150
H106	H	0.378368	-0.078433	-0.233449
H107	H	0.336695	-0.151207	-0.360184
H108	H	0.418550	-0.110077	-0.365381
O109	O	1.035199	-0.272938	-0.671267
C110	C	0.929221	-0.278998	-0.578660
C111	C	0.984534	-0.247405	-0.623774
H112	H	0.888256	-0.258367	-0.540239
H113	H	0.893266	-0.299515	-0.621991
H114	H	0.965236	-0.302506	-0.540310
H115	H	0.948580	-0.223869	-0.662126
H116	H	1.020492	-0.226918	-0.580401
O117	O	0.680270	-0.159764	-0.279323
C118	C	0.587635	-0.153642	-0.173407
C119	C	0.632721	-0.185268	-0.228557
H120	H	0.549167	-0.174249	-0.132359
H121	H	0.630984	-0.133085	-0.137532
H122	H	0.549332	-0.130172	-0.209546
H123	H	0.671024	-0.208765	-0.192478
H124	H	0.589329	-0.205793	-0.264434
O125	O	1.283414	-0.599514	-0.229074
C126	C	1.294037	-0.546564	-0.123115
C127	C	1.238816	-0.572375	-0.178330
H128	H	1.258003	-0.524608	-0.082086
H129	H	1.329933	-0.571369	-0.087224
H130	H	1.335070	-0.524582	-0.159204
H131	H	1.197736	-0.594357	-0.142302
H132	H	1.202976	-0.547546	-0.214224
O133	O	0.985051	-0.692004	-0.527334
C134	C	0.885383	-0.687056	-0.626806
C135	C	0.940629	-0.661271	-0.571579
H136	H	0.849442	-0.662219	-0.662581
H137	H	0.921373	-0.708971	-0.667943
H138	H	0.844395	-0.709073	-0.590732
H139	H	0.981628	-0.639230	-0.607590
H140	H	0.904591	-0.639384	-0.530440
H141	H	0.993037	-0.829139	-0.519383
H142	H	1.225552	-0.164179	-1.079409
O143	O	0.589068	-0.273180	-0.476868
C144	C	0.681607	-0.333815	-0.487227
C145	C	0.636514	-0.302154	-0.432143
H146	H	0.719991	-0.357242	-0.451089
H147	H	0.638262	-0.354412	-0.523036
H148	H	0.719993	-0.313204	-0.528345
H149	H	0.598127	-0.322730	-0.390977
H150	H	0.679902	-0.281556	-0.396388
O151	O	1.233450	-1.048603	-0.279295
C152	C	1.271720	-1.063021	-0.145841
C153	C	1.216474	-1.037198	-0.200999
H154	H	1.258026	-1.053802	-0.082529
H155	H	1.263082	-1.100586	-0.154430
H156	H	1.334998	-1.053767	-0.159742
H157	H	1.153175	-1.046414	-0.187133
H158	H	1.225180	-0.999639	-0.192400
H159	H	0.433857	-0.268619	-0.469126
O160	O	1.283703	-0.692020	-0.229309
C161	C	1.389773	-0.744899	-0.218909
C162	C	1.334386	-0.719139	-0.274013
H163	H	1.430754	-0.766838	-0.255029
H164	H	1.425708	-0.720062	-0.183111
H165	H	1.353818	-0.766893	-0.177780
H166	H	1.370281	-0.697145	-0.315189
H167	H	1.298448	-0.744000	-0.309756
O168	O	1.035192	-0.272927	-0.832875
C169	C	0.901643	-0.294744	-0.857886
C170	C	0.956944	-0.263164	-0.812829
H171	H	0.838369	-0.286869	-0.841683
H172	H	0.910215	-0.289801	-0.923533
H173	H	0.915416	-0.330969	-0.841757
H174	H	0.943206	-0.226927	-0.828892
H175	H	0.948362	-0.268147	-0.747193
H176	H	1.225271	-0.387410	-0.287148
H177	H	1.225336	-0.472520	-0.287169
H178	H	1.275756	-0.829087	-0.237087
O179	O	1.035447	-1.048579	-0.477208
C180	C	0.935769	-1.043638	-0.576671
C181	C	0.991019	-1.017849	-0.521454
H182	H	0.899823	-1.018804	-0.612447
H183	H	0.971755	-1.065555	-0.617808
H184	H	0.894786	-1.065653	-0.540589
H185	H	1.032013	-0.995809	-0.557473
H186	H	0.954984	-0.995960	-0.480315
O187	O	1.233369	-0.956095	-0.279281
C188	C	1.243977	-0.903138	-0.173331
C189	C	1.188763	-0.928954	-0.228546
H190	H	1.207936	-0.881182	-0.132309
H191	H	1.279871	-0.927940	-0.137432
H192	H	1.285010	-0.881158	-0.209420
H193	H	1.147682	-0.950935	-0.192518
H194	H	1.152923	-0.904128	-0.264448
H195	H	1.043323	-0.959849	-0.469250
H196	H	0.992926	-0.603275	-0.519363
H197	H	1.043059	-0.472570	-0.469170
H198	H	1.043008	-0.387448	-0.469143
O199	O	1.233298	-0.159667	-0.671428
C200	C	1.271533	-0.083253	-0.646435
C201	C	1.216303	-0.114875	-0.691490
H202	H	1.257823	-0.047033	-0.662651
H203	H	1.262894	-0.088157	-0.580787
H204	H	1.334815	-0.091165	-0.662554
H205	H	1.153000	-0.106983	-0.675437
H206	H	1.225010	-0.109966	-0.757126
O207	O	1.283568	-0.740329	-0.229077
C208	C	1.321719	-0.725993	-0.095581
C209	C	1.266472	-0.751782	-0.150801
H210	H	1.307905	-0.735236	-0.032282
H211	H	1.385021	-0.735188	-0.109364
H212	H	1.313094	-0.688433	-0.104220
H213	H	1.275027	-0.789348	-0.142192
H214	H	1.203189	-0.742549	-0.137003
O215	O	1.233434	-0.159766	-0.833095
C216	C	1.339453	-0.153707	-0.925655
C217	C	1.284181	-0.185302	-0.880495
H218	H	1.380506	-0.174340	-0.963977
H219	H	1.303485	-0.130217	-0.964087
H220	H	1.375323	-0.133169	-0.882284
H221	H	1.248299	-0.205869	-0.923810
H222	H	1.320193	-0.208762	-0.842052
H223	H	0.992994	-0.744033	-0.519368
H224	H	0.835432	-0.268607	-0.469077
H225	H	1.043242	-0.268422	-1.079326
O226	O	1.035417	-0.273029	-0.924177
C227	C	0.997211	-0.349454	-0.899074
C228	C	1.052431	-0.317813	-0.944199
H229	H	1.010937	-0.385668	-0.915258
H230	H	1.005844	-0.344567	-0.833437
H231	H	0.933927	-0.341547	-0.915163
H232	H	1.115737	-0.325701	-0.928176
H233	H	1.043731	-0.322706	-1.009824
