data_functionalizedCrystal
_audit_creation_method	'MofGen! by Chris Wilmer'
_symmetry_space_group_name_H-M	'P1'
_symmetry_Int_Tables_number	1
_symmetry_cell_setting	triclinic
loop_
_symmetry_equiv_pos_as_xyz
  x,y,z
_cell_length_a	17.699083
_cell_length_b	10.540535
_cell_length_c	16.176319
_cell_angle_alpha	89.991877
_cell_angle_beta	89.998611
_cell_angle_gamma	83.903329
loop_
_atom_site_label
_atom_site_type_symbol
_atom_site_fract_x
_atom_site_fract_y
_atom_site_fract_z
O1	O	1.005121	0.160521	-0.068633
O2	O	0.784878	0.181405	-0.068660
O3	O	0.900026	-0.013836	-0.068638
O4	O	0.889973	0.355762	-0.068656
O5	O	0.900010	-0.013848	0.068855
O6	O	0.784862	0.181393	0.068833
O7	O	1.005105	0.160509	0.068860
Cu8	Cu	0.894982	0.170949	0.081401
Cu9	Cu	0.895001	0.170964	-0.081201
O10	O	0.889957	0.355749	0.068837
C11	C	0.756668	0.180650	0.000083
C12	C	0.672636	0.178406	0.000073
C13	C	0.899265	-0.061131	0.000109
C14	C	0.897011	-0.202038	0.000110
C15	C	0.624759	0.293008	0.000067
C16	C	0.545802	0.290891	0.000078
C17	C	0.514723	0.174170	0.000088
C18	C	0.562606	0.059559	0.000096
C19	C	0.641562	0.061677	0.000091
C20	C	0.244188	0.051014	0.000117
C21	C	0.165226	0.048904	0.000119
C22	C	0.148427	0.280227	0.000104
C23	C	0.227383	0.282346	0.000099
C24	C	0.275259	0.167735	0.000111
C25	C	0.360873	0.170032	0.000101
C26	C	0.429110	0.171872	0.000092
C27	C	0.812939	-0.237171	0.000094
C28	C	0.810568	-0.383729	-0.000233
C29	C	0.935398	-0.412058	-0.078267
C30	C	0.937187	-0.265326	-0.078317
C31	C	0.938392	-0.265500	0.078044
C32	C	0.934503	-0.411776	0.079058
C33	C	1.033315	0.161263	0.000115
C34	C	1.117347	0.163508	0.000120
C35	C	0.890718	0.403045	0.000089
C36	C	0.892972	0.543952	0.000082
N37	N	0.894974	0.170938	0.195766
N38	N	0.895015	0.170965	-0.195566
C39	C	0.945977	0.084521	0.239040
C40	C	0.945981	0.084520	0.325587
C41	C	0.894985	0.170943	0.368858
C42	C	0.843976	0.257364	0.325578
C43	C	0.843969	0.257358	0.239033
C44	C	0.844002	0.257388	0.674606
C45	C	0.844015	0.257390	0.761158
C46	C	0.946014	0.084549	0.761161
C47	C	0.946007	0.084543	0.674615
C48	C	0.894996	0.170960	0.631343
C49	C	0.894992	0.170959	0.537499
C50	C	0.894992	0.170951	0.462701
H51	H	0.650056	0.388055	0.000058
F52	F	0.767433	-0.420119	-0.074095
F53	F	0.789698	0.349338	0.371631
H54	H	0.906303	-0.442413	-0.136810
F55	F	0.529528	-0.064664	0.000112
F56	F	0.789734	0.349376	0.807209
F57	F	0.789715	0.349361	0.628559
H58	H	0.252682	0.377391	0.000087
H59	H	0.802436	0.327727	0.203800
H60	H	0.908548	-0.224617	-0.137117
F61	F	1.017744	-0.236691	-0.082647
F62	F	1.000263	-0.007457	0.371643
F63	F	1.000286	-0.007435	0.628566
F64	F	0.494850	0.412867	0.000069
F65	F	1.019241	-0.237979	0.079049
H66	H	0.996071	-0.460524	-0.080953
H67	H	0.912151	-0.222575	0.137454
F68	F	0.132152	-0.075332	0.000130
F69	F	0.097468	0.402207	0.000094
H70	H	0.987507	0.014151	0.203814
H71	H	0.283159	-0.042309	0.000127
F72	F	0.692516	-0.060298	0.000100
H73	H	0.777381	-0.412471	0.055914
F74	F	0.770728	-0.181555	0.073524
H75	H	0.781202	-0.193121	-0.056018
F76	F	0.894149	-0.448440	0.154824
F77	F	1.013132	-0.477251	0.085538
F78	F	1.000303	-0.007428	0.807221
