data_functionalizedCrystal
_audit_creation_method	'MofGen! by Chris Wilmer'
_symmetry_space_group_name_H-M	'P1'
_symmetry_Int_Tables_number	1
_symmetry_cell_setting	triclinic
loop_
_symmetry_equiv_pos_as_xyz
  x,y,z
_cell_length_a	13.339070
_cell_length_b	9.565339
_cell_length_c	10.489741
_cell_angle_alpha	89.999484
_cell_angle_beta	100.084234
_cell_angle_gamma	90.005153
loop_
_atom_site_label
_atom_site_type_symbol
_atom_site_fract_x
_atom_site_fract_y
_atom_site_fract_z
O1	O	1.346952	0.116308	0.641082
O2	O	1.051812	0.116300	0.556935
O3	O	1.206098	0.116296	0.415710
O4	O	1.192667	0.116312	0.782307
O5	O	1.206086	-0.116224	0.415718
O6	O	1.051800	-0.116220	0.556943
O7	O	1.346940	-0.116212	0.641090
Zn8	Zn	1.199368	-0.153134	0.599018
Zn9	Zn	1.199384	0.153222	0.599007
O10	O	1.192654	-0.116208	0.782315
C11	C	1.014013	0.000039	0.542725
C12	C	0.901403	0.000036	0.500356
N13	N	1.199365	-0.362213	0.599027
C14	C	0.539010	0.000072	0.829794
C15	C	0.644813	0.000080	0.869605
C16	C	0.708965	0.000068	0.777296
C17	C	0.667305	0.000050	0.645169
C18	C	0.561492	0.000054	0.605353
C19	C	0.731447	0.000050	0.552856
C20	C	0.689787	0.000032	0.420729
C21	C	0.583984	0.000034	0.380920
C22	C	0.519832	0.000046	0.473229
C23	C	0.837260	0.000046	0.592672
C24	C	0.859742	0.000028	0.368231
C25	C	0.753940	0.000020	0.328420
C26	C	1.127991	-0.453414	0.664301
C27	C	1.219823	-0.546589	0.721550
C28	C	1.107572	-0.546593	0.541802
C29	C	1.291244	-0.453337	0.656349
C30	C	1.178932	-0.453332	0.476530
C31	C	1.270830	-0.546465	0.533753
C32	C	1.384739	0.000052	0.655300
C33	C	1.497350	0.000064	0.697669
C34	C	1.205078	0.000037	0.367835
C35	C	1.202043	0.000039	0.225166
N36	N	1.199396	0.362301	0.598991
C37	C	1.103875	0.000047	0.123419
C38	C	1.150242	-0.114597	0.047176
C39	C	1.150278	0.114650	0.047202
C40	C	1.248450	-0.114699	0.150803
C41	C	1.248472	0.114651	0.150833
C42	C	1.294911	-0.000020	0.074642
C43	C	1.193675	0.000054	0.830190
C44	C	1.196710	0.000061	0.972859
H45	H	0.871170	0.000055	0.700250
H46	H	0.795114	0.000078	0.809719
H47	H	1.161600	-0.412337	0.372970
H48	H	0.486768	0.000094	0.904937
H49	H	1.289946	-0.211729	0.195846
H50	H	1.108733	0.211581	0.002010
H51	H	1.289979	0.211581	0.196082
H52	H	1.108700	-0.211521	0.001948
H53	H	0.678725	0.000105	0.977183
H54	H	1.375696	-0.000082	0.052875
H55	H	1.023162	-0.000071	0.145438
H56	H	0.433677	0.000039	0.440820
H57	H	0.550068	0.000035	0.273333
H58	H	0.720005	0.000017	0.220839
H59	H	1.331269	-0.587065	0.478556
H60	H	0.911976	0.000024	0.293065
H61	H	1.067688	-0.412558	0.719591
H62	H	1.237127	-0.587552	0.825131
H63	H	1.368902	-0.412545	0.704854
H64	H	1.029932	-0.587560	0.493420
