data_functionalizedCrystal
_audit_creation_method	'MofGen! by Chris Wilmer'
_symmetry_space_group_name_H-M	'P1'
_symmetry_Int_Tables_number	1
_symmetry_cell_setting	triclinic
loop_
_symmetry_equiv_pos_as_xyz
  x,y,z
_cell_length_a	11.169417
_cell_length_b	25.639240
_cell_length_c	25.639233
_cell_angle_alpha	89.974071
_cell_angle_beta	89.990259
_cell_angle_gamma	90.034008
loop_
_atom_site_label
_atom_site_type_symbol
_atom_site_fract_x
_atom_site_fract_y
_atom_site_fract_z
Zn1	Zn	1.834660	-0.208197	-0.295543
Zn2	Zn	1.834505	-0.295616	-0.208096
Zn3	Zn	1.633980	-0.208198	-0.208126
Zn4	Zn	1.633874	-0.295605	-0.295505
O5	O	1.734255	-0.251904	-0.251818
O6	O	2.002589	-0.219797	-0.283946
O7	O	1.807884	-0.284025	-0.134935
O8	O	1.660709	-0.135033	-0.219750
O9	O	2.002475	-0.284023	-0.219700
O10	O	1.808148	-0.135032	-0.283975
O11	O	1.660559	-0.219799	-0.134957
O12	O	1.466016	-0.219789	-0.219714
O13	O	1.660530	-0.284005	-0.368675
O14	O	1.465939	-0.284006	-0.283911
O15	O	1.808046	-0.219787	-0.368703
O16	O	1.807782	-0.368780	-0.219663
O17	O	1.660380	-0.368772	-0.283882
C18	C	1.422430	-0.251897	-0.251812
C19	C	1.289030	-0.251907	-0.251821
C20	C	1.734085	-0.387747	-0.251777
C21	C	1.734122	-0.445861	-0.251777
C22	C	1.811064	-0.806185	-0.285320
C23	C	1.811099	-0.860789	-0.285330
O24	O	1.876316	-0.888993	-0.313808
N25	N	1.734421	-0.888143	-0.251868
C26	C	1.657694	-0.860890	-0.218397
O27	O	1.592475	-0.889171	-0.189936
C28	C	1.657653	-0.806287	-0.218389
C29	C	1.734345	-0.778935	-0.251850
C30	C	1.887749	-0.778834	-0.318778
C31	C	1.887715	-0.724233	-0.318767
C32	C	1.810996	-0.696984	-0.285297
C33	C	1.734311	-0.724335	-0.251838
C34	C	1.580921	-0.779034	-0.184921
C35	C	1.580886	-0.724427	-0.184916
C36	C	1.657578	-0.697076	-0.218377
C37	C	1.657558	-0.642485	-0.218357
N38	N	1.734236	-0.615131	-0.251819
C39	C	1.810955	-0.642380	-0.285289
C40	C	1.657783	-0.975560	-0.218416
C41	C	1.657829	-1.030163	-0.218420
C42	C	1.811233	-1.030058	-0.285355
C43	C	1.811193	-0.975455	-0.285347
C44	C	1.734462	-0.948207	-0.251878
C45	C	1.810878	-0.527715	-0.285262
C46	C	1.810841	-0.473110	-0.285246
C47	C	1.657433	-0.473219	-0.218314
C48	C	1.657474	-0.527820	-0.218328
C49	C	1.734201	-0.555067	-0.251806
O50	O	1.592371	-0.614247	-0.189896
O51	O	1.876151	-0.614093	-0.313750
C52	C	2.047297	-0.251911	-0.251824
C53	C	2.180697	-0.251915	-0.251827
C54	C	1.734293	-0.251895	-0.388191
C55	C	1.734310	-0.251891	-0.446305
C56	C	1.734457	-0.115531	-0.251870
C57	C	1.734544	-0.057417	-0.251892
C58	C	1.811219	-0.218353	-0.806688
C59	C	1.811234	-0.218339	-0.861292
O60	O	1.876527	-0.189885	-0.889546
N61	N	1.734442	-0.251768	-0.888587
C62	C	1.657622	-0.285211	-0.861275
O63	O	1.592306	-0.313644	-0.889506
C64	C	1.657602	-0.285222	-0.806672
C65	C	1.734407	-0.251794	-0.779380
C66	C	1.888017	-0.184927	-0.779396
C67	C	1.888003	-0.184942	-0.724795
C68	C	1.811192	-0.218384	-0.697487
C69	C	1.734394	-0.251809	-0.724779
C70	C	1.580777	-0.318662	-0.779361
C71	C	1.580763	-0.318670	-0.724754
C72	C	1.657568	-0.285242	-0.697461
C73	C	1.657569	-0.285266	-0.642870
N74	N	1.734360	-0.251836	-0.615575
C75	C	1.811172	-0.218395	-0.642883
C76	C	1.657668	-0.285184	-0.975946
C77	C	1.657694	-0.285175	-1.030548
C78	C	1.811304	-0.218302	-1.030562
C79	C	1.811284	-0.218314	-0.975958
C80	C	1.734460	-0.251754	-0.948651
C81	C	1.811138	-0.218430	-0.528218
C82	C	1.811121	-0.218450	-0.473613
C83	C	1.657507	-0.285321	-0.473604
C84	C	1.657528	-0.285303	-0.528205
C85	C	1.734347	-0.251854	-0.555511
O86	O	1.592305	-0.313703	-0.614582
O87	O	1.876466	-0.189962	-0.614646
C88	C	1.734285	-0.251875	-0.115975
C89	C	1.734501	-0.251732	-0.057861
H90	H	1.873348	-0.549893	-0.312527
H91	H	1.595035	-0.550090	-0.191077
H92	H	1.594998	-0.312528	-0.550427
O93	O	1.583215	-0.317638	-1.057138
C94	C	1.515104	-0.347245	-1.141244
C95	C	1.599536	-0.310463	-1.111200
H96	H	1.528252	-0.341449	-1.184959
H97	H	1.536128	-0.389416	-1.130535
H98	H	1.418351	-0.338073	-1.130475
H99	H	1.696317	-0.319587	-1.121953
H100	H	1.578408	-0.268302	-1.121912
O101	O	1.583087	-0.949151	-0.185922
C102	C	1.378959	-0.932527	-0.160477
C103	C	1.463417	-0.962473	-0.197299
H104	H	1.282187	-0.943279	-0.169669
H105	H	1.400018	-0.943294	-0.118320
H106	H	1.392152	-0.888804	-0.166205
H107	H	1.450271	-1.006204	-0.191617
H108	H	1.442337	-0.951663	-0.239442
O109	O	1.962702	-0.152534	-0.698257
C110	C	2.124646	-0.145477	-0.636575
C111	C	2.040162	-0.182248	-0.666605
H112	H	2.187277	-0.169486	-0.610968
H113	H	2.179626	-0.121575	-0.665449
H114	H	2.069512	-0.118140	-0.611048
H115	H	2.095204	-0.209617	-0.692132
H116	H	1.985178	-0.206113	-0.637703
H117	H	1.594973	-0.451024	-0.191062
O118	O	1.506307	-0.698040	-0.152355
C119	C	1.354085	-0.703912	-0.085997
C120	C	1.438502	-0.733858	-0.122837
H121	H	1.299225	-0.732858	-0.062130
H122	H	1.409145	-0.678358	-0.058635
H123	H	1.291329	-0.678343	-0.109984
H124	H	1.501276	-0.759455	-0.098892
H125	H	1.383368	-0.759379	-0.150200
O126	O	1.885769	-0.185925	-0.447183
C127	C	2.038181	-0.119617	-0.452969
C128	C	1.953690	-0.156415	-0.482963
H129	H	2.093134	-0.095756	-0.481884
H130	H	1.983173	-0.092248	-0.427423
H131	H	2.100846	-0.143637	-0.427388
H132	H	1.891007	-0.132437	-0.508572
H133	H	2.008772	-0.183785	-0.508476
H134	H	1.950566	-0.157692	-0.801624
H135	H	1.950222	-0.801014	-0.346036
H136	H	1.518234	-0.345883	-0.801573
O137	O	1.885719	-0.948969	-0.317904
C138	C	2.037925	-0.954643	-0.384274
C139	C	1.953566	-0.984699	-0.347435
H140	H	2.092819	-0.983518	-0.408151
H141	H	1.982818	-0.929103	-0.411626
H142	H	2.100652	-0.929052	-0.360285
H143	H	1.890822	-1.010319	-0.371381
H144	H	2.008748	-1.010207	-0.320082
O145	O	1.583276	-1.056785	-0.185986
C146	C	1.421219	-1.118465	-0.178903
C147	C	1.505605	-1.088361	-0.215691
H148	H	1.358383	-1.143993	-0.202905
H149	H	1.476303	-1.144062	-0.151595
H150	H	1.366441	-1.089593	-0.154971
H151	H	1.560400	-1.117195	-0.239657
H152	H	1.450452	-1.062756	-0.242965
O153	O	1.885923	-0.185790	-0.949530
C154	C	2.038338	-0.119484	-0.955321
C155	C	1.953849	-0.156284	-0.985312
H156	H	2.093296	-0.095627	-0.984238
H157	H	1.983328	-0.092111	-0.929780
H158	H	2.100999	-0.143501	-0.929736
H159	H	1.891171	-0.132309	-1.010926
H160	H	2.008933	-0.183658	-1.010820
H161	H	1.873700	-1.052255	-0.312609
H162	H	1.518470	-0.801294	-0.157673
O163	O	1.582932	-0.317754	-0.446991
C164	C	1.514884	-0.347420	-0.362859
C165	C	1.599390	-0.310659	-0.392935
H166	H	1.528179	-0.341705	-0.319149
H167	H	1.418100	-0.338229	-0.373554
H168	H	1.535874	-0.389574	-0.373613
H169	H	1.578508	-0.268493	-0.382196
H170	H	1.696149	-0.319895	-0.382237
H171	H	1.873688	-0.191190	-0.550444
H172	H	1.873845	-0.191071	-1.052806
O173	O	1.583015	-0.317727	-0.949502
C174	C	1.430626	-0.384040	-0.955263
C175	C	1.515125	-0.347220	-0.985271
H176	H	1.375697	-0.407886	-0.984170
H177	H	1.485625	-0.411421	-0.929711
H178	H	1.367938	-0.360038	-0.929688
H179	H	1.577830	-0.371179	-1.010875
H180	H	1.460051	-0.319837	-1.010791
H181	H	1.950160	-0.701967	-0.346015
O182	O	1.506277	-0.351234	-0.698249
C183	C	1.447856	-0.440176	-0.681550
C184	C	1.532292	-0.403355	-0.711590
H185	H	1.468843	-0.482322	-0.692333
H186	H	1.461046	-0.434492	-0.637829
H187	H	1.351101	-0.430966	-0.692275
H188	H	1.629080	-0.412542	-0.700908
H189	H	1.518998	-0.409046	-0.755303
O190	O	1.885378	-0.446622	-0.317803
C191	C	2.037585	-0.452292	-0.384172
C192	C	1.953221	-0.482351	-0.347338
H193	H	2.092476	-0.481165	-0.408053
H194	H	1.982482	-0.426745	-0.411521
H195	H	2.100315	-0.426705	-0.360180
H196	H	1.890474	-0.507965	-0.371289
H197	H	2.008398	-0.507864	-0.319988
