data_functionalizedCrystal
_audit_creation_method	'MofGen! by Chris Wilmer'
_symmetry_space_group_name_H-M	'P1'
_symmetry_Int_Tables_number	1
_symmetry_cell_setting	triclinic
loop_
_symmetry_equiv_pos_as_xyz
  x,y,z
_cell_length_a	19.288867
_cell_length_b	17.699083
_cell_length_c	17.766277
_cell_angle_alpha	89.992740
_cell_angle_beta	89.992126
_cell_angle_gamma	83.210042
loop_
_atom_site_label
_atom_site_type_symbol
_atom_site_fract_x
_atom_site_fract_y
_atom_site_fract_z
O1	O	0.921464	0.094425	-0.062569
O2	O	0.719219	0.107160	-0.062577
O3	O	0.826055	-0.009405	-0.062566
O4	O	0.814627	0.210989	-0.062580
O5	O	0.826036	-0.009411	0.062622
O6	O	0.719200	0.107154	0.062612
O7	O	0.921445	0.094419	0.062619
Cu8	Cu	0.820321	0.100786	0.074046
Cu9	Cu	0.820343	0.100793	-0.074004
O10	O	0.814609	0.210983	0.062609
C11	C	0.693332	0.106747	0.000017
C12	C	0.616227	0.105516	0.000014
C13	C	0.060662	0.096653	-0.068217
C14	C	0.133111	0.097805	-0.068220
C15	C	0.169330	0.098382	0.000020
C16	C	0.133096	0.097786	0.068268
C17	C	0.060650	0.096627	0.068269
C18	C	0.278704	0.144545	0.052298
C19	C	0.351148	0.145709	0.052294
C20	C	0.392779	0.101955	0.000020
C21	C	0.361956	0.057045	-0.052263
C22	C	0.289509	0.055886	-0.052262
C23	C	0.247886	0.099638	0.000027
C24	C	0.507562	0.103794	-0.068227
C25	C	0.580013	0.104941	-0.068227
C26	C	0.579996	0.104930	0.068263
C27	C	0.507548	0.103775	0.068261
C28	C	0.471335	0.103210	0.000014
C29	C	0.825636	-0.037604	0.000028
C30	C	0.824408	-0.121621	0.000028
C31	C	0.887119	-0.170329	0.000032
C32	C	0.885960	-0.249271	0.000025
C33	C	0.822090	-0.279503	0.000020
C34	C	0.759375	-0.230788	0.000015
C35	C	0.760534	-0.151848	0.000016
C36	C	0.754699	-0.549144	0.000008
C37	C	0.753544	-0.628091	0.000009
C38	C	0.880125	-0.646568	0.000017
C39	C	0.881284	-0.567628	0.000019
C40	C	0.818569	-0.518920	0.000009
C41	C	0.819826	-0.433322	0.000015
C42	C	0.820833	-0.365099	0.000020
C43	C	0.947331	0.094832	0.000024
C44	C	1.024436	0.096062	0.000022
C45	C	0.815027	0.239183	0.000013
C46	C	0.816256	0.323199	0.000007
N47	N	0.820310	0.100780	0.178176
N48	N	0.820359	0.100792	-0.178134
C49	C	0.867633	0.049191	0.217568
C50	C	0.867637	0.049187	0.296370
C51	C	0.820325	0.100786	0.335777
C52	C	0.772993	0.152380	0.296376
C53	C	0.772986	0.152377	0.217576
C54	C	0.811108	0.169748	0.460611
C55	C	0.811120	0.169752	0.539409
C56	C	0.820343	0.100795	0.578823
C57	C	0.829570	0.031832	0.539429
C58	C	0.829562	0.031829	0.460629
C59	C	0.820327	0.100795	0.421223
C60	C	0.867673	0.049198	0.703661
C61	C	0.867672	0.049193	0.782464
C62	C	0.773032	0.152392	0.782469
C63	C	0.773030	0.152390	0.703667
C64	C	0.820354	0.100794	0.664268
H65	H	0.244814	0.180172	0.094874
H66	H	0.937026	-0.288927	0.000029
H67	H	0.709468	-0.112189	0.000013
F68	F	0.949263	-0.535458	0.000023
H69	H	0.031155	0.096149	0.123839
F70	F	0.406256	0.010477	-0.107904
F71	F	0.469020	0.103189	-0.140860
H72	H	0.376237	0.182296	0.094850
H73	H	0.703632	-0.509495	0.000001
H74	H	0.939129	-0.145722	0.000040
F75	F	0.618540	0.105533	0.140890
H76	H	0.162591	0.098254	0.123830
F77	F	0.946873	-0.698413	0.000025
F78	F	0.685562	-0.660263	0.000003
F79	F	0.839375	-0.041565	0.418705
H80	H	0.837080	-0.024319	0.571518
H81	H	0.803585	0.225904	0.428526
H82	H	0.707370	-0.255408	0.000006
F83	F	0.918036	-0.005719	0.661729
F84	F	0.918007	-0.005725	0.338300
H85	H	0.906165	0.007176	0.185492
F86	F	0.722617	0.207288	0.175650
F87	F	0.022126	0.096048	-0.140852
H88	H	0.906206	0.007179	0.814537
H89	H	0.264416	0.019318	-0.094831
F90	F	0.722675	0.207303	0.824405
H91	H	0.734498	0.194403	0.671592
H92	H	0.162610	0.098291	-0.123790
H93	H	0.803612	0.225906	0.571478
H94	H	0.609507	0.105416	-0.123797
F95	F	0.468991	0.103156	0.140892
H96	H	0.734470	0.194392	0.328465
