data_functionalizedCrystal
_audit_creation_method	'MofGen! by Chris Wilmer'
_symmetry_space_group_name_H-M	'P1'
_symmetry_Int_Tables_number	1
_symmetry_cell_setting	triclinic
loop_
_symmetry_equiv_pos_as_xyz
  x,y,z
_cell_length_a	6.817900
_cell_length_b	10.912975
_cell_length_c	10.992421
_cell_angle_alpha	87.733671
_cell_angle_beta	108.764763
_cell_angle_gamma	72.503682
loop_
_atom_site_label
_atom_site_type_symbol
_atom_site_fract_x
_atom_site_fract_y
_atom_site_fract_z
V1	V	-4.099216	0.400566	-0.177688
O2	O	-4.057629	0.392959	0.008613
O3	O	-4.076898	0.397809	-0.352397
O4	O	-4.070252	0.575274	-0.174922
O5	O	-4.064322	0.214265	-0.170091
V6	V	-4.576946	0.378285	-0.155408
O7	O	-4.373182	0.449441	-0.226561
O8	O	-4.753177	0.329410	-0.106535
O9	O	-4.376057	0.381042	0.019301
O10	O	-4.735930	0.385892	-0.341710
O11	O	-4.729237	0.564586	-0.163006
O12	O	-4.382704	0.203576	-0.158174
C13	C	-3.927615	0.391485	-0.394989
C14	C	-3.990784	0.390395	-0.537816
C15	C	-3.858778	0.381609	-0.733105
C16	C	-3.792673	0.382233	-0.584460
C17	C	-4.065890	0.270582	-0.576473
C18	C	-4.130173	0.269313	-0.725016
C19	C	-4.252462	0.514923	-0.763554
C20	C	-4.183310	0.517523	-0.615040
C21	C	-4.197162	0.160985	-0.164501
C22	C	-4.118624	0.018159	-0.165600
C23	C	-4.213003	-0.192936	-0.158865
C24	C	-4.295206	-0.044298	-0.158256
C25	C	-4.069733	-0.012672	-0.293096
C26	C	-3.989353	-0.161320	-0.294240
C27	C	-3.819066	-0.199490	-0.048949
C28	C	-3.903621	-0.051269	-0.046084
C29	C	-3.919136	0.617859	-0.168600
C30	C	-3.976911	0.760684	-0.167494
C31	C	-4.188683	0.387362	0.061886
C32	C	-4.104753	0.388460	0.204712
H33	H	-4.242721	0.605583	-0.813054
H34	H	-4.332590	0.530904	-0.584830
C35	C	-3.763055	-0.200903	-0.309828
H36	H	-3.712435	-0.291936	-0.310620
H37	H	-3.775227	-0.156067	-0.389177
H38	H	-3.661881	-0.179141	-0.239281
H39	H	-3.928832	0.176466	-0.522252
H40	H	-4.105456	-0.184446	-0.383897
H41	H	-4.130984	0.606166	-0.591127
C42	C	-4.368203	0.269028	-0.780255
H43	H	-4.409066	0.268251	-0.871328
H44	H	-4.378834	0.193948	-0.739757
H45	H	-4.463558	0.344717	-0.763769
C46	C	-4.495100	0.523412	-0.819094
H47	H	-4.506438	0.450293	-0.861428
H48	H	-4.551378	0.524356	-0.750390
H49	H	-4.577165	0.600816	-0.879760
H50	H	-4.455582	0.001916	-0.243461
H51	H	-4.335971	-0.024660	-0.066612
C52	C	-3.819560	0.496535	-0.795797
H53	H	-3.952837	0.549724	-0.860464
H54	H	-3.769883	0.546339	-0.731086
H55	H	-3.711784	0.464438	-0.834548
H56	H	-3.936139	-0.033067	0.048162
H57	H	-4.211470	0.271964	-0.546237
H58	H	-4.214629	-0.245525	-0.067696
H59	H	-3.940369	0.029189	-0.303113
H60	H	-4.332512	-0.219761	-0.243973
H61	H	-4.223453	0.036085	-0.381875
H62	H	-3.746408	0.290408	-0.753681
C63	C	-3.720791	0.005109	-0.043291
H64	H	-3.773419	0.072020	-0.115304
H65	H	-3.678450	0.039851	0.035166
H66	H	-3.597712	-0.061767	-0.048044
H67	H	-4.022942	0.174184	-0.742548
C68	C	-3.586648	-0.239316	-0.055859
H69	H	-3.585701	-0.280021	-0.130581
H70	H	-3.544866	-0.164272	-0.061143
H71	H	-3.485995	-0.298261	0.019881
H72	H	-3.801358	-0.254043	0.046673
H73	H	-3.647417	0.290957	-0.532034
C74	C	-3.711135	0.497873	-0.549624
H75	H	-3.718197	0.544888	-0.626399
H76	H	-3.801184	0.553456	-0.510085
H77	H	-3.563682	0.466608	-0.490913
