data_functionalizedCrystal
_audit_creation_method	'MofGen! by Chris Wilmer'
_symmetry_space_group_name_H-M	'P1'
_symmetry_Int_Tables_number	1
_symmetry_cell_setting	triclinic
loop_
_symmetry_equiv_pos_as_xyz
  x,y,z
_cell_length_a	12.645331
_cell_length_b	19.121063
_cell_length_c	12.645323
_cell_angle_alpha	87.591876
_cell_angle_beta	90.022676
_cell_angle_gamma	92.467980
loop_
_atom_site_label
_atom_site_type_symbol
_atom_site_fract_x
_atom_site_fract_y
_atom_site_fract_z
Zn1	Zn	1.602654	-0.279627	0.617388
Zn2	Zn	1.594942	-0.397086	0.447665
Zn3	Zn	1.425367	-0.279651	0.440134
Zn4	Zn	1.417760	-0.397040	0.624877
O5	O	1.510181	-0.338351	0.532516
O6	O	1.749978	-0.295217	0.594892
O7	O	1.572404	-0.381537	0.298321
O8	O	1.455295	-0.181363	0.457361
O9	O	1.744312	-0.381514	0.470197
O10	O	1.585547	-0.181346	0.587589
O11	O	1.447818	-0.295258	0.292788
O12	O	1.276011	-0.295213	0.464623
O13	O	1.442330	-0.381436	0.772230
O14	O	1.270422	-0.381459	0.600353
O15	O	1.578171	-0.295173	0.766727
O16	O	1.565027	-0.495364	0.477459
O17	O	1.434852	-0.495330	0.607656
C18	C	1.234752	-0.338334	0.532485
C19	C	1.116921	-0.338344	0.532497
C20	C	0.952854	-0.283838	0.447545
C21	C	1.075405	-0.283979	0.447195
C22	C	1.067618	-0.412331	0.506730
C23	C	0.945039	-0.412033	0.506155
C24	C	0.950986	-0.319567	0.643576
C25	C	1.073698	-0.317914	0.642847
C26	C	1.498306	-0.520831	0.544210
C27	C	1.493323	-0.598897	0.549248
C28	C	1.558810	-0.635567	0.483885
C29	C	1.554130	-0.708918	0.488629
C30	C	1.483957	-0.745598	0.558733
C31	C	1.418467	-0.708923	0.624104
C32	C	1.423154	-0.635573	0.619364
C33	C	1.466419	-0.967067	0.576438
C34	C	1.461736	-1.040422	0.581171
C35	C	1.597400	-1.040412	0.445697
C36	C	1.602076	-0.967061	0.440959
C37	C	1.536590	-0.930392	0.506334
C38	C	1.479169	-0.820575	0.563582
C39	C	1.541384	-0.855417	0.501489
C40	C	1.786685	-0.338368	0.532549
C41	C	1.904514	-0.338375	0.532563
C42	C	1.510262	-0.338296	0.809018
C43	C	1.510297	-0.338273	0.926847
C44	C	1.522130	-0.155158	0.520800
C45	C	1.527222	-0.077092	0.515807
C46	C	1.510164	-0.338354	0.257087
C47	C	1.510347	-0.338179	0.139246
C48	C	1.424603	-0.392285	1.097856
C49	C	1.424801	-0.392553	0.975313
C50	C	1.620698	-0.358362	0.972656
C51	C	1.620225	-0.358700	1.095276
C52	C	1.486666	-0.263871	1.089271
C53	C	1.484145	-0.264317	0.966693
H54	H	0.912678	-0.454044	0.565636
N55	N	1.111152	-0.299570	0.343879
N56	N	1.170567	-0.256467	0.292855
H57	H	1.195814	-0.267479	0.219883
N58	N	1.630475	-0.598103	0.412257
N59	N	1.622964	-0.606349	0.314964
H60	H	1.673580	-0.579892	0.264374
H61	H	1.641782	-0.412113	0.945416
N62	N	1.673722	-0.929600	0.369310
N63	N	1.639030	-0.888743	0.299076
H64	H	1.689619	-0.862291	0.248454
H65	H	1.598523	-0.825550	0.444415
N66	N	1.387758	-0.240891	1.126569
N67	N	1.373805	-0.233800	1.223318
H68	H	1.303948	-0.217576	1.249662
H69	H	1.422032	-0.850448	0.620658
N70	N	1.382250	-0.245319	0.928968
N71	N	1.329034	-0.286056	0.872939
H72	H	1.257070	-0.272641	0.846290
H73	H	0.919439	-0.359290	0.706863
N74	N	1.557248	-0.211076	0.924855
N75	N	1.630143	-0.226843	0.864726
H76	H	1.681781	-0.189244	0.835178
N77	N	1.646110	-0.426838	1.135569
N78	N	1.725917	-0.434050	1.192702
H79	H	1.744198	-0.482174	1.221158
N80	N	1.356260	-0.598124	0.686145
N81	N	1.293611	-0.630881	0.748736
H82	H	1.246369	-0.604434	0.795908
N83	N	1.104763	-0.432679	0.406223
N84	N	1.167525	-0.392818	0.353404
H85	H	1.193759	-0.407185	0.282418
H86	H	1.650716	-1.070275	0.392474
H87	H	1.342785	-0.379982	0.944405
N88	N	0.920336	-0.214802	0.466820
N89	N	0.869152	-0.181784	0.398046
H90	H	0.846179	-0.133026	0.411655
N91	N	1.390037	-1.077881	0.652782
N92	N	1.331569	-1.045134	0.711141
H93	H	1.280930	-1.071588	0.761710
H94	H	0.923516	-0.266557	0.667927
N95	N	0.907818	-0.432045	0.404520
N96	N	0.972378	-0.446133	0.334506
H97	H	0.946097	-0.460266	0.262723
N98	N	1.321398	-0.376658	1.133824
N99	N	1.309829	-0.325465	1.190387
H100	H	1.236938	-0.314427	1.215799
H101	H	1.413096	-0.937218	0.629667
N102	N	1.117636	-0.215150	0.466728
N103	N	1.176338	-0.183218	0.399592
H104	H	1.206165	-0.134605	0.413377
N105	N	0.913140	-0.299256	0.344831
N106	N	0.849389	-0.350236	0.333971
H107	H	0.821338	-0.361129	0.261430
H108	H	1.361335	-0.738794	0.681188
H109	H	1.101976	-0.354739	0.709195
H110	H	1.607456	-0.738771	0.435402
N111	N	1.443524	-0.460957	1.140938
N112	N	1.519882	-0.470224	1.201991
H113	H	1.533248	-0.518722	1.232421
H114	H	1.440044	-0.447641	0.949534
H115	H	1.094090	-0.454052	0.566917
N116	N	1.114623	-0.249609	0.667318
N117	N	1.175402	-0.216062	0.603781
H118	H	1.204311	-0.167821	0.621060
H119	H	1.686020	-0.321003	1.122535
H120	H	1.686088	-0.320200	0.941072
N121	N	1.565090	-0.213307	1.122425
N122	N	1.638141	-0.231822	1.182590
H123	H	1.693532	-0.196117	1.206011
