data_functionalizedCrystal
_audit_creation_method	'MofGen! by Chris Wilmer'
_symmetry_space_group_name_H-M	'P1'
_symmetry_Int_Tables_number	1
_symmetry_cell_setting	triclinic
loop_
_symmetry_equiv_pos_as_xyz
  x,y,z
_cell_length_a	13.032831
_cell_length_b	21.395363
_cell_length_c	21.395355
_cell_angle_alpha	89.996048
_cell_angle_beta	82.805728
_cell_angle_gamma	82.808442
loop_
_atom_site_label
_atom_site_type_symbol
_atom_site_fract_x
_atom_site_fract_y
_atom_site_fract_z
Zn1	Zn	1.597924	-0.371391	-0.475804
Zn2	Zn	1.931258	-0.038058	-0.142471
Zn3	Zn	2.264591	0.295276	0.190862
Zn4	Zn	1.597849	-0.476145	-0.371048
Zn5	Zn	1.931182	-0.142812	-0.037714
Zn6	Zn	2.264515	0.190522	0.295619
Zn7	Zn	1.423142	-0.358060	-0.357754
Zn8	Zn	1.756475	-0.024726	-0.024420
Zn9	Zn	2.089809	0.308607	0.308913
Zn10	Zn	1.423178	-0.462806	-0.462509
Zn11	Zn	1.756511	-0.129473	-0.129176
Zn12	Zn	2.089844	0.203861	0.204158
O13	O	1.510523	-0.417101	-0.416779
O14	O	1.843856	-0.083767	-0.083445
O15	O	2.177190	0.249566	0.249888
O16	O	1.744162	-0.396448	-0.473036
O17	O	2.077495	-0.063115	-0.139703
O18	O	2.410828	0.270218	0.193631
O19	O	1.574627	-0.460484	-0.281603
O20	O	1.907960	-0.127151	0.051731
O21	O	2.241294	0.206183	0.385064
O22	O	1.446344	-0.272152	-0.373414
O23	O	1.779677	0.061182	-0.040080
O24	O	2.113011	0.394515	0.293253
O25	O	1.744106	-0.473411	-0.396072
O26	O	2.077439	-0.140077	-0.062738
O27	O	2.410773	0.193256	0.270595
O28	O	1.574756	-0.281946	-0.460145
O29	O	1.908089	0.051387	-0.126812
O30	O	2.241422	0.384721	0.206522
O31	O	1.446271	-0.373727	-0.271836
O32	O	1.779604	-0.040394	0.061498
O33	O	2.112937	0.292939	0.394831
O34	O	1.276899	-0.360793	-0.360522
O35	O	1.610233	-0.027460	-0.027188
O36	O	1.943566	0.305874	0.306145
O37	O	1.446405	-0.450676	-0.551954
O38	O	1.779738	-0.117343	-0.218621
O39	O	2.113071	0.215990	0.114713
O40	O	1.276926	-0.437750	-0.437485
O41	O	1.610259	-0.104416	-0.104152
O42	O	1.943592	0.228917	0.229182
O43	O	1.574790	-0.383514	-0.561722
O44	O	1.908124	-0.050181	-0.228389
O45	O	2.241457	0.283152	0.104945
O46	O	1.574662	-0.562052	-0.383180
O47	O	1.907995	-0.228719	-0.049846
O48	O	2.241328	0.104614	0.283487
O49	O	1.446331	-0.552252	-0.450376
O50	O	1.779665	-0.218919	-0.117043
O51	O	2.112998	0.114415	0.216291
C52	C	1.238992	-0.396378	-0.396118
C53	C	1.572325	-0.063044	-0.062785
C54	C	1.905659	0.270289	0.270548
C55	C	1.122830	-0.387528	-0.387295
C56	C	1.456163	-0.054194	-0.053961
C57	C	1.789497	0.279139	0.279372
C58	C	1.510554	-0.253680	-0.416780
C59	C	1.843887	0.079654	-0.083446
C60	C	2.177221	0.412987	0.249887
C61	C	1.510567	-0.184039	-0.416780
C62	C	1.843901	0.149294	-0.083447
C63	C	2.177234	0.482627	0.249887
C64	C	1.510521	-0.579888	-0.416793
C65	C	1.843854	-0.246555	-0.083460
C66	C	2.177187	0.086779	0.249873
C67	C	1.510615	-0.649536	-0.416828
C68	C	1.843948	-0.316203	-0.083495
C69	C	2.177282	0.017130	0.249839
C70	C	1.071082	-0.421720	-0.421384
C71	C	1.404415	-0.088386	-0.088050
C72	C	1.737748	0.244947	0.245283
C73	C	0.951022	-0.412573	-0.412265
C74	C	1.284355	-0.079240	-0.078932
C75	C	1.617689	0.254093	0.254402
C76	C	1.783114	-0.437905	-0.437520
C77	C	2.116448	-0.104571	-0.104187
C78	C	2.449781	0.228762	0.229147
C79	C	1.899277	-0.446770	-0.446359
C80	C	2.232610	-0.113437	-0.113025
C81	C	2.565943	0.219897	0.220308
C82	C	1.510610	-0.417094	-0.580209
C83	C	1.843943	-0.083761	-0.246875
C84	C	2.177277	0.249572	0.086458
C85	C	1.510647	-0.417092	-0.649853
C86	C	1.843980	-0.083759	-0.316519
C87	C	2.177314	0.249575	0.016814
C88	C	1.443722	-0.146227	-0.371625
C89	C	1.777056	0.187107	-0.038292
C90	C	2.110389	0.520440	0.295041
C91	C	1.443721	-0.080791	-0.371633
C92	C	1.777055	0.252542	-0.038299
C93	C	2.110388	0.585875	0.295034
C94	C	1.510584	-0.053172	-0.416789
C95	C	1.843917	0.280161	-0.083456
C96	C	2.177250	0.613494	0.249877
C97	C	1.577433	-0.090993	-0.461952
C98	C	1.910767	0.242340	-0.128619
C99	C	2.244100	0.575674	0.204714
C100	C	1.577425	-0.156427	-0.461947
C101	C	1.910758	0.176907	-0.128614
C102	C	2.244092	0.510240	0.204719
C103	C	1.604757	0.043310	-0.428907
C104	C	1.938091	0.376643	-0.095574
C105	C	2.271424	0.709977	0.237760
C106	C	1.604767	0.108742	-0.428907
C107	C	1.938101	0.442075	-0.095574
C108	C	2.271434	0.775409	0.237759
C109	C	1.510608	0.148647	-0.416808
C110	C	1.843941	0.481980	-0.083474
C111	C	2.177275	0.815313	0.249859
C112	C	1.416436	0.123111	-0.404694
C113	C	1.749770	0.456444	-0.071361
C114	C	2.083103	0.789778	0.261972
C115	C	1.416428	0.057678	-0.404690
C116	C	1.749761	0.391011	-0.071356
C117	C	2.083095	0.724344	0.261977
C118	C	1.510599	0.017779	-0.416800
C119	C	1.843933	0.351112	-0.083467
C120	C	2.177266	0.684446	0.249867
C121	C	1.443756	0.257412	-0.371659
C122	C	1.777090	0.590746	-0.038325
C123	C	2.110423	0.924079	0.295008
C124	C	1.443753	0.322849	-0.371670
C125	C	1.777087	0.656182	-0.038337
C126	C	2.110420	0.989516	0.294996
C127	C	1.577475	0.312645	-0.461987
C128	C	1.910808	0.645979	-0.128654
C129	C	2.244141	0.979312	0.204680
C130	C	1.577468	0.247210	-0.461978
C131	C	1.910802	0.580544	-0.128645
C132	C	2.244135	0.913877	0.204689
C133	C	1.510610	0.219598	-0.416811
C134	C	1.843944	0.552931	-0.083477
C135	C	2.177277	0.886264	0.249856
C136	C	1.577494	-0.382119	-0.687653
C137	C	1.910828	-0.048785	-0.354319
C138	C	2.244161	0.284548	-0.020986
C139	C	1.577493	-0.382092	-0.753088
C140	C	1.910826	-0.048758	-0.419755
C141	C	2.244160	0.284575	-0.086421
C142	C	1.510655	-0.417050	-0.780722
C143	C	1.843988	-0.083716	-0.447388
C144	C	2.177322	0.249617	-0.114055
C145	C	1.443794	-0.452025	-0.742913
C146	C	1.777128	-0.118692	-0.409579
C147	C	2.110461	0.214642	-0.076246
C148	C	1.443790	-0.452046	-0.677478
C149	C	1.777124	-0.118713	-0.344145
C150	C	2.110457	0.214621	-0.010811
C151	C	1.502402	-0.472836	-0.883774
C152	C	1.835735	-0.139502	-0.550441
C153	C	2.169069	0.193831	-0.217107
C154	C	1.502413	-0.472816	-0.949208
C155	C	1.835747	-0.139483	-0.615875
C156	C	2.169080	0.193850	-0.282541
C157	C	1.510661	-0.416984	-0.982543
C158	C	1.843995	-0.083651	-0.649210
C159	C	2.177328	0.249683	-0.315876
C160	C	1.518920	-0.361171	-0.950438
C161	C	1.852253	-0.027838	-0.617104
C162	C	2.185587	0.305495	-0.283771
C163	C	1.518916	-0.361192	-0.885003
C164	C	1.852249	-0.027859	-0.551670
C165	C	2.185583	0.305474	-0.218337
C166	C	1.510651	-0.417031	-0.851674
C167	C	1.843985	-0.083697	-0.518340
C168	C	2.177318	0.249636	-0.185007
C169	C	1.577511	-0.381978	-1.091296
C170	C	1.910844	-0.048645	-0.757963
C171	C	2.244178	0.284688	-0.424629
C172	C	1.577502	-0.381950	-1.156732
C173	C	1.910835	-0.048616	-0.823399
C174	C	2.244169	0.284717	-0.490065
C175	C	1.443809	-0.451889	-1.146555
C176	C	1.777143	-0.118556	-0.813222
C177	C	2.110476	0.214778	-0.479889
C178	C	1.443812	-0.451912	-1.081120
C179	C	1.777146	-0.118578	-0.747787
C180	C	2.110479	0.214755	-0.414454
C181	C	1.510669	-0.416958	-1.053495
C182	C	1.844002	-0.083624	-0.720162
C183	C	2.177336	0.249709	-0.386828
C184	C	1.510497	-0.417066	-0.253989
C185	C	1.843830	-0.083733	0.079344
C186	C	2.177163	0.249601	0.412678
C187	C	1.510662	-0.416907	-0.184361
C188	C	1.843996	-0.083574	0.148973
C189	C	2.177329	0.249759	0.482306
H190	H	1.115662	-0.457762	-0.457322
H191	H	1.448995	-0.124428	-0.123988
H192	H	1.782329	0.208905	0.209345
Br193	Br	0.973562	-0.506840	-0.506272
Br194	Br	1.306895	-0.173506	-0.172939
Br195	Br	1.640228	0.159827	0.160395
H196	H	1.631926	-0.353608	-0.783871
H197	H	1.965259	-0.020275	-0.450537
H198	H	2.298593	0.313058	-0.117204
H199	H	1.078250	-0.351481	-0.351361
H200	H	1.411583	-0.018147	-0.018028
H201	H	1.744916	0.315186	0.315305
H202	H	1.525638	-0.315708	-0.977578
H203	H	1.858971	0.017626	-0.644244
H204	H	2.192305	0.350959	-0.310911
H205	H	0.906446	-0.376524	-0.376329
H206	H	1.239779	-0.043191	-0.042996
H207	H	1.573113	0.290143	0.290338
H208	H	1.389280	-0.168704	-0.334847
H209	H	1.722613	0.164629	-0.001514
H210	H	2.055947	0.497962	0.331819
Br211	Br	1.668189	0.195890	-0.523264
Br212	Br	2.001522	0.529223	-0.189931
Br213	Br	2.334856	0.862556	0.143402
H214	H	1.631933	-0.353655	-0.665165
H215	H	1.965266	-0.020322	-0.331831
H216	H	2.298599	0.313011	0.001502
Br217	Br	1.353002	-0.029464	-0.310345
Br218	Br	1.686335	0.303869	0.022989
Br219	Br	2.019668	0.637203	0.356322
Br220	Br	1.288630	0.023023	-0.388255
Br221	Br	1.621964	0.356356	-0.054922
Br222	Br	1.955297	0.689690	0.278412
Br223	Br	1.353021	0.219934	-0.310363
Br224	Br	1.686354	0.553267	0.022970
Br225	Br	2.019688	0.886601	0.356304
Br226	Br	1.353060	-0.499512	-0.626174
Br227	Br	1.686393	-0.166179	-0.292841
Br228	Br	2.019727	0.167154	0.040493
H229	H	1.339764	0.155601	-0.394841
H230	H	1.673097	0.488935	-0.061507
H231	H	2.006430	0.822268	0.271826
H232	H	1.389314	0.353638	-0.334902
H233	H	1.722648	0.686971	-0.001568
H234	H	2.055981	1.020304	0.331765
Br235	Br	1.668212	0.350121	-0.523276
Br236	Br	2.001546	0.683455	-0.189942
Br237	Br	2.334879	1.016788	0.143391
Br238	Br	1.732570	0.143391	-0.445343
Br239	Br	2.065903	0.476724	-0.112009
Br240	Br	2.399237	0.810058	0.221324
H241	H	1.681437	0.010824	-0.438768
H242	H	2.014771	0.344157	-0.105435
H243	H	2.348104	0.677491	0.227898
H244	H	1.495695	-0.518263	-0.975343
H245	H	1.829028	-0.184929	-0.642010
H246	H	2.162362	0.148404	-0.308677
Br247	Br	1.353085	-0.499325	-1.184050
Br248	Br	1.686419	-0.165991	-0.850716
Br249	Br	2.019752	0.167342	-0.517383
H250	H	1.631872	-0.068502	-0.498721
H251	H	1.965205	0.264831	-0.165387
H252	H	2.298539	0.598164	0.167946
H253	H	1.525638	-0.315748	-0.858866
H254	H	1.858971	0.017586	-0.525532
H255	H	2.192304	0.350919	-0.192199
H256	H	1.631943	-0.353513	-1.068802
H257	H	1.965277	-0.020179	-0.735468
H258	H	2.298610	0.313154	-0.402135
H259	H	1.631858	-0.187214	-0.498720
H260	H	1.965191	0.146119	-0.165387
H261	H	2.298524	0.479453	0.167947
H262	H	1.631936	-0.353466	-1.187508
H263	H	1.965269	-0.020133	-0.854175
H264	H	2.298602	0.313200	-0.520841
Br265	Br	1.353087	-0.499379	-1.029816
Br266	Br	1.686421	-0.166046	-0.696483
Br267	Br	2.019754	0.167287	-0.363150
H268	H	1.495406	-0.518268	-0.856617
H269	H	1.828739	-0.184934	-0.523284
H270	H	2.162072	0.148399	-0.189950
Br271	Br	1.353078	-0.499464	-0.780413
Br272	Br	1.686411	-0.166130	-0.447079
Br273	Br	2.019744	0.167203	-0.113746
