data_functionalizedCrystal
_audit_creation_method	'MofGen! by Chris Wilmer'
_symmetry_space_group_name_H-M	'P1'
_symmetry_Int_Tables_number	1
_symmetry_cell_setting	triclinic
loop_
_symmetry_equiv_pos_as_xyz
  x,y,z
_cell_length_a	23.532407
_cell_length_b	26.809956
_cell_length_c	23.532357
_cell_angle_alpha	90.001214
_cell_angle_beta	82.838485
_cell_angle_gamma	90.003435
loop_
_atom_site_label
_atom_site_type_symbol
_atom_site_fract_x
_atom_site_fract_y
_atom_site_fract_z
O1	O	0.755252	0.041423	0.069128
O2	O	1.255252	0.541423	0.569128
O3	O	0.589386	0.041439	0.079132
O4	O	1.089386	0.541439	0.579132
O5	O	0.677336	0.041420	-0.008804
O6	O	1.177336	0.541420	0.491196
O7	O	0.667303	0.041442	0.157064
O8	O	1.167303	0.541442	0.657064
O9	O	0.677319	-0.041539	-0.008790
O10	O	1.177319	0.458461	0.491210
O11	O	0.589370	-0.041520	0.079145
O12	O	1.089370	0.458480	0.579145
O13	O	0.755235	-0.041536	0.069142
O14	O	1.255235	0.458464	0.569142
Zn15	Zn	0.672300	-0.054700	0.074146
Zn16	Zn	1.172300	0.445300	0.574146
Zn17	Zn	0.672322	0.054603	0.074128
Zn18	Zn	1.172322	0.554603	0.574128
O19	O	0.667286	-0.041517	0.157077
O20	O	1.167286	0.458483	0.657077
C21	C	0.568162	-0.000039	0.078884
C22	C	1.068162	0.499961	0.578884
C23	C	0.504945	-0.000034	0.078118
C24	C	1.004945	0.499966	0.578118
N25	N	0.672289	-0.129296	0.074157
N26	N	1.172289	0.370704	0.574157
C27	C	0.105834	-0.000050	0.125353
C28	C	0.605834	0.499950	0.625353
C29	C	0.046434	-0.000053	0.124641
C30	C	0.546434	0.499947	0.624641
O31	O	0.009681	-0.000066	0.168428
O32	O	0.509681	0.499934	0.668428
N33	N	0.023817	-0.000059	0.072364
N34	N	0.523817	0.499941	0.572364
C35	C	0.060604	-0.000067	0.020794
C36	C	0.560604	0.499933	0.520794
O37	O	0.035912	-0.000073	-0.023737
O38	O	0.535912	0.499927	0.476263
C39	C	0.120003	-0.000067	0.021506
C40	C	0.620003	0.499933	0.521506
C41	C	0.142616	-0.000056	0.073787
C42	C	0.642616	0.499944	0.573787
C43	C	0.128448	-0.000040	0.177629
C44	C	0.628448	0.499960	0.677629
C45	C	0.187844	-0.000036	0.178341
C46	C	0.687844	0.499964	0.678341
C47	C	0.224626	-0.000042	0.126775
C48	C	0.724626	0.499958	0.626775
C49	C	0.202012	-0.000052	0.074498
C50	C	0.702012	0.499948	0.574498
C51	C	0.156788	-0.000079	-0.030063
C52	C	0.656788	0.499921	0.469937
C53	C	0.216191	-0.000080	-0.029346
C54	C	0.716191	0.499920	0.470654
C55	C	0.238804	-0.000069	0.022935
C56	C	0.738804	0.499931	0.522935
C57	C	0.298190	-0.000055	0.023644
C58	C	0.798190	0.499945	0.523644
N59	N	0.320807	-0.000049	0.075922
N60	N	0.820807	0.499951	0.575922
C61	C	0.284025	-0.000042	0.127487
C62	C	0.784025	0.499958	0.627487
C63	C	-0.064139	-0.000067	0.019303
C64	C	0.435861	0.499933	0.519303
C65	C	-0.123536	-0.000063	0.018590
C66	C	0.376464	0.499937	0.518590
C67	C	-0.137702	-0.000050	0.122437
C68	C	0.362298	0.499950	0.622437
C69	C	-0.078303	-0.000051	0.123149
C70	C	0.421697	0.499949	0.623149
C71	C	-0.041522	-0.000061	0.071580
C72	C	0.458478	0.499939	0.571580
C73	C	0.408761	-0.000033	0.128977
C74	C	0.908761	0.499967	0.628977
C75	C	0.468163	-0.000027	0.129684
C76	C	0.968163	0.499973	0.629684
C77	C	0.482324	-0.000043	0.025837
C78	C	0.982324	0.499957	0.525837
C79	C	0.422927	-0.000046	0.025130
C80	C	0.922927	0.499954	0.525130
C81	C	0.386147	-0.000043	0.076704
C82	C	0.886147	0.499957	0.576704
O83	O	0.334977	-0.000044	-0.020120
O84	O	0.834977	0.499956	0.479880
O85	O	0.308725	-0.000043	0.172011
O86	O	0.808725	0.499957	0.672011
C87	C	0.711261	-0.473930	0.035200
C88	C	1.211261	0.026070	0.535200
C89	C	0.711274	-0.682808	0.035191
C90	C	1.211274	-0.182808	0.535191
O91	O	0.744386	-0.709818	0.002071
O92	O	1.244386	-0.209818	0.502071
N93	N	0.672325	-0.708923	0.074115
N94	N	1.172325	-0.208923	0.574115
C95	C	0.633367	-0.682815	0.113042
C96	C	1.133367	-0.182815	0.613042
O97	O	0.600235	-0.709821	0.146146
O98	O	1.100235	-0.209821	0.646146
C99	C	0.633351	-0.473939	0.113048
C100	C	1.133351	0.026061	0.613048
C101	C	0.672307	-0.447826	0.074125
C102	C	1.172307	0.052174	0.574125
C103	C	0.750213	-0.447817	-0.003721
C104	C	1.250213	0.052183	0.496279
C105	C	0.750211	-0.395601	-0.003716
C106	C	1.250211	0.104399	0.496284
C107	C	0.711257	-0.369497	0.035209
C108	C	1.211257	0.130503	0.535209
C109	C	0.672305	-0.395610	0.074129
C110	C	1.172305	0.104390	0.574129
C111	C	0.594391	-0.447832	0.151972
C112	C	1.094391	0.052168	0.651972
C113	C	0.594390	-0.395610	0.151969
C114	C	1.094390	0.104390	0.651969
C115	C	0.633345	-0.369497	0.113046
C116	C	1.133345	0.130503	0.613046
C117	C	0.633350	-0.317290	0.113059
C118	C	1.133350	0.182710	0.613059
N119	N	0.672299	-0.291175	0.074135
N120	N	1.172299	0.208825	0.574135
C121	C	0.711253	-0.317278	0.035210
C122	C	1.211253	0.182722	0.535210
C123	C	0.633379	-0.792479	0.113037
C124	C	1.133379	-0.292479	0.613037
C125	C	0.633383	-0.844698	0.113037
C126	C	1.133383	-0.344698	0.613037
C127	C	0.711290	-0.844686	0.035185
C128	C	1.211290	-0.344686	0.535185
C129	C	0.711288	-0.792466	0.035188
C130	C	1.211288	-0.292466	0.535188
C131	C	0.672328	-0.766364	0.074113
C132	C	1.172328	-0.266364	0.574113
C133	C	0.711246	-0.207620	0.035223
C134	C	1.211246	0.292380	0.535223
C135	C	0.711243	-0.155400	0.035232
C136	C	1.211243	0.344600	0.535232
C137	C	0.633335	-0.155415	0.113082
C138	C	1.133335	0.344585	0.613082
C139	C	0.633340	-0.207632	0.113075
C140	C	1.133340	0.292368	0.613075
C141	C	0.672298	-0.233733	0.074140
C142	C	1.172298	0.266267	0.574140
O143	O	0.600251	-0.290247	0.146157
O144	O	1.100251	0.209753	0.646157
O145	O	0.744372	-0.290264	0.002103
O146	O	1.244372	0.209736	0.502103
C147	C	0.711262	-0.526146	0.035195
C148	C	1.211262	-0.026146	0.535195
C149	C	0.672310	-0.552259	0.074116
C150	C	1.172310	-0.052259	0.574116
C151	C	0.633356	-0.526155	0.113041
C152	C	1.133356	-0.026155	0.613041
C153	C	0.672315	-0.604478	0.074115
C154	C	1.172315	-0.104478	0.574115
C155	C	0.711268	-0.630582	0.035190
C156	C	1.211268	-0.130582	0.535190
C157	C	0.750218	-0.604466	-0.003734
C158	C	1.250218	-0.104466	0.496266
C159	C	0.750216	-0.552250	-0.003730
C160	C	1.250216	-0.052250	0.496270
C161	C	0.594407	-0.552270	0.151965
C162	C	1.094407	-0.052270	0.651965
C163	C	0.594413	-0.604487	0.151958
C164	C	1.094413	-0.104487	0.651958
C165	C	0.633366	-0.630590	0.113033
C166	C	1.133366	-0.130590	0.613033
C167	C	0.776459	-0.000057	0.069390
C168	C	1.276459	0.499943	0.569390
C169	C	0.839676	-0.000059	0.070156
C170	C	1.339676	0.499941	0.570156
C171	C	0.677076	-0.000061	-0.030013
C172	C	1.177076	0.499939	0.469987
C173	C	0.676322	-0.000065	-0.093232
C174	C	1.176322	0.499935	0.406768
N175	N	0.672337	0.129199	0.074112
N176	N	1.172337	0.629199	0.574112
C177	C	0.671594	0.045183	-0.485251
C178	C	1.171594	0.545183	0.014749
C179	C	0.670877	0.045186	-0.544650
C180	C	1.170877	0.545186	-0.044650
O181	O	0.670494	0.083645	-0.575373
O182	O	1.170494	0.583645	-0.075373
N183	N	0.670512	-0.000035	-0.574354
N184	N	1.170512	0.499965	-0.074354
C185	C	0.670859	-0.045261	-0.544654
C186	C	1.170859	0.454739	-0.044654
O187	O	0.670482	-0.083724	-0.575374
O188	O	1.170482	0.416276	-0.075374
C189	C	0.671572	-0.045263	-0.485256
C190	C	1.171572	0.454737	0.014744
C191	C	0.671943	-0.000040	-0.455556
C192	C	1.171943	0.499960	0.044444
C193	C	0.671964	0.090403	-0.455550
C194	C	1.171964	0.590403	0.044450
C195	C	0.672682	0.090400	-0.396155
C196	C	1.172682	0.590400	0.103845
C197	C	0.673031	0.045177	-0.366460
C198	C	1.173031	0.545177	0.133540
C199	C	0.672661	-0.000043	-0.396160
C200	C	1.172661	0.499957	0.103840
C201	C	0.671915	-0.090489	-0.455557
C202	C	1.171915	0.409511	0.044443
C203	C	0.672627	-0.090487	-0.396154
C204	C	1.172627	0.409513	0.103846
C205	C	0.672998	-0.045264	-0.366454
C206	C	1.172998	0.454736	0.133546
C207	C	0.673727	-0.045269	-0.307070
C208	C	1.173727	0.454731	0.192930
N209	N	0.674092	-0.000048	-0.277366
N210	N	1.174092	0.499952	0.222634
C211	C	0.673744	0.045174	-0.307061
C212	C	1.173744	0.545174	0.192939
C213	C	0.669360	-0.045252	-0.669396
C214	C	1.169360	0.454748	-0.169396
C215	C	0.668651	-0.045250	-0.728794
C216	C	1.168651	0.454750	-0.228794
C217	C	0.668668	0.045196	-0.728786
C218	C	1.168668	0.545196	-0.228786
C219	C	0.669381	0.045194	-0.669387
C220	C	1.169381	0.545194	-0.169387
C221	C	0.669725	-0.000032	-0.639692
C222	C	1.169725	0.499968	-0.139692
C223	C	0.675253	0.045164	-0.182327
C224	C	1.175253	0.545164	0.317673
C225	C	0.675973	0.045157	-0.122927
C226	C	1.175973	0.545157	0.377073
C227	C	0.675953	-0.045289	-0.122940
C228	C	1.175953	0.454711	0.377060
C229	C	0.675236	-0.045282	-0.182336
C230	C	1.175236	0.454718	0.317664
C231	C	0.674883	-0.000052	-0.212027
C232	C	1.174883	0.499948	0.287973
O233	O	0.674108	-0.083708	-0.276310
O234	O	1.174108	0.416292	0.223690
O235	O	0.674113	0.083631	-0.276333
O236	O	1.174113	0.583631	0.223667
C237	C	0.667545	-0.000035	0.178287
C238	C	1.167545	0.499965	0.678287
C239	C	0.668300	-0.000027	0.241506
C240	C	1.168300	0.499973	0.741506
H241	H	0.486571	-0.000018	0.172259
H242	H	0.986571	0.499982	0.672259
O243	O	0.373119	-0.000005	0.179128
O244	O	0.873119	0.499995	0.679128
C245	C	0.365353	-0.000012	0.282204
C246	C	0.865353	0.499988	0.782204
C247	C	0.405782	-0.000037	0.225452
C248	C	0.905782	0.499963	0.725452
H249	H	0.391745	-0.000048	0.319672
H250	H	0.891745	0.499952	0.819672
H251	H	0.337203	0.034715	0.284502
H252	H	0.837203	0.534715	0.784502
H253	H	0.337176	-0.034722	0.284450
H254	H	0.837176	0.465278	0.784450
H255	H	0.433996	0.034650	0.223168
H256	H	0.933996	0.534650	0.723168
H257	H	0.433894	-0.034787	0.223177
H258	H	0.933894	0.465213	0.723177
H259	H	0.742967	-0.134140	0.003537
H260	H	1.242967	0.365860	0.503537
O261	O	0.749105	-0.869993	-0.002708
O262	O	1.249105	-0.369993	0.497292
C263	C	0.783019	-0.886001	-0.101913
C264	C	1.283019	-0.386001	0.398087
C265	C	0.740178	-0.857298	-0.059061
C266	C	1.240178	-0.357298	0.440939
H267	H	0.775808	-0.875756	-0.147483
H268	H	1.275808	-0.375756	0.352517
H269	H	0.828603	-0.875724	-0.094778
H270	H	1.328603	-0.375724	0.405222
H271	H	0.776333	-0.927805	-0.095194
H272	H	1.276333	-0.427805	0.404806
H273	H	0.746811	-0.815488	-0.065754
H274	H	1.246811	-0.315488	0.434246
H275	H	0.694609	-0.867617	-0.066206
H276	H	1.194609	-0.367617	0.433794
O277	O	0.556622	-0.370199	0.189806
O278	O	1.056622	0.129801	0.689806
C279	C	0.544033	-0.311274	0.267682
C280	C	1.044033	0.188726	0.767682
C281	C	0.586864	-0.340009	0.224854
C282	C	1.086864	0.159991	0.724854
H283	H	0.568466	-0.286867	0.296038
H284	H	1.068466	0.213133	0.796038
H285	H	0.515734	-0.286794	0.243270
H286	H	1.015734	0.213206	0.743270
H287	H	0.516183	-0.338920	0.295473
H288	H	1.016183	0.161080	0.795473
H289	H	0.614751	-0.312399	0.197053
H290	H	1.114751	0.187601	0.697053
H291	H	0.615122	-0.364497	0.249302
H292	H	1.115122	0.135503	0.749302
H293	H	0.246136	-0.000089	-0.071341
H294	H	0.746136	0.499911	0.428659
H295	H	0.669642	-0.082083	-0.645223
H296	H	1.169642	0.417917	-0.145223
H297	H	0.668383	0.082019	-0.752974
H298	H	1.168383	0.582019	-0.252974
H299	H	0.601668	-0.865955	0.144737
H300	H	1.101668	-0.365955	0.644737
O301	O	0.401052	-0.000072	-0.025705
O302	O	0.901052	0.499928	0.474295
C303	C	0.421379	-0.000051	-0.128632
C304	C	0.921379	0.499949	0.371368
C305	C	0.446223	-0.000029	-0.071102
C306	C	0.946223	0.499971	0.428898
H307	H	0.457887	-0.000006	-0.165350
H308	H	0.957887	0.499994	0.334650
H309	H	0.393948	-0.034781	-0.131597
H310	H	0.893948	0.465219	0.368403
H311	H	0.393902	0.034656	-0.131534
H312	H	0.893902	0.534656	0.368466
H313	H	0.473725	-0.034712	-0.068160
H314	H	0.973725	0.465288	0.431840
H315	H	0.473622	0.034724	-0.068161
H316	H	0.973622	0.534724	0.431839
O317	O	0.787940	-0.526870	-0.041640
O318	O	1.287940	-0.026870	0.458360
C319	C	0.800387	-0.468063	-0.119638
C320	C	1.300387	0.031937	0.380362
C321	C	0.757626	-0.496737	-0.076676
C322	C	1.257626	0.003263	0.423324
H323	H	0.775895	-0.443702	-0.147985
H324	H	1.275895	0.056298	0.352015
H325	H	0.828749	-0.443543	-0.095339
H326	H	1.328749	0.056457	0.404661
H327	H	0.828179	-0.495749	-0.147424
H328	H	1.328179	0.004251	0.352576
H329	H	0.729796	-0.469087	-0.048880
H330	H	1.229796	0.030913	0.451120
H331	H	0.729304	-0.521265	-0.101011
H332	H	1.229304	-0.021265	0.398989
H333	H	0.742969	-0.228866	0.003518
H334	H	1.242969	0.271134	0.503518
O335	O	0.518118	0.000016	-0.024214
O336	O	1.018118	0.500016	0.475786
C337	C	0.593394	0.042996	-0.083695
C338	C	1.093394	0.542996	0.416305
C339	C	0.552896	0.042991	-0.026987
C340	C	1.052896	0.542991	0.473013
H341	H	0.621514	0.077742	-0.085961
H342	H	1.121514	0.577742	0.414039
H343	H	0.621593	0.008301	-0.085951
H344	H	1.121593	0.508301	0.414049
H345	H	0.567022	0.042963	-0.121178
H346	H	1.067022	0.542963	0.378822
H347	H	0.579223	0.043041	0.010528
H348	H	1.079223	0.543041	0.510528
H349	H	0.524696	0.077683	-0.024782
H350	H	1.024696	0.577683	0.475218
H351	H	0.781930	-0.374343	-0.035412
H352	H	1.281930	0.125657	0.464588
O353	O	0.788080	-0.473225	-0.041456
O354	O	1.288080	0.026775	0.458544
C355	C	0.865969	-0.532135	-0.053977
C356	C	1.365969	-0.032135	0.446023
C357	C	0.823100	-0.503407	-0.011180
C358	C	1.323100	-0.003407	0.488820
H359	H	0.894302	-0.556536	-0.029515
H360	H	1.394302	-0.056536	0.470485
H361	H	0.841591	-0.556621	-0.082304
H362	H	1.341591	-0.056621	0.417696
H363	H	0.893777	-0.504485	-0.081801
H364	H	1.393777	-0.004485	0.418199
H365	H	0.795280	-0.531022	0.016682
H366	H	1.295280	-0.031022	0.516682
H367	H	0.847513	-0.478913	0.017107
H368	H	1.347513	0.021087	0.517107
H369	H	0.206249	-0.000026	0.220913
H370	H	0.706249	0.499974	0.720913
O371	O	0.671703	0.134304	-0.484464
O372	O	1.171703	0.634304	0.015536
C373	C	0.720283	0.186816	-0.558220
C374	C	1.220283	0.686816	-0.058220
C375	C	0.720635	0.137071	-0.525535
C376	C	1.220635	0.637071	-0.025535
H377	H	0.759846	0.189074	-0.591424
H378	H	1.259846	0.689074	-0.091424
H379	H	0.680115	0.189099	-0.580632
H380	H	1.180115	0.689099	-0.080632
H381	H	0.720641	0.219121	-0.526765
H382	H	1.220641	0.719121	-0.026765
H383	H	0.720297	0.104737	-0.556951
H384	H	1.220297	0.604737	-0.056951
H385	H	0.760799	0.134832	-0.503113
H386	H	1.260799	0.634832	-0.003113
O387	O	0.092803	-0.000010	0.227777
O388	O	0.592803	0.499990	0.727777
C389	C	0.085042	-0.000017	0.330853
C390	C	0.585042	0.499983	0.830853
C391	C	0.125468	-0.000045	0.274099
C392	C	0.625468	0.499955	0.774099
H393	H	0.111435	-0.000056	0.368319
H394	H	0.611435	0.499944	0.868319
H395	H	0.056894	0.034711	0.333152
H396	H	0.556894	0.534711	0.833152
H397	H	0.056861	-0.034725	0.333100
H398	H	0.556861	0.465275	0.833100
H399	H	0.153685	0.034640	0.271814
H400	H	0.653685	0.534640	0.771814
H401	H	0.153577	-0.034796	0.271823
H402	H	0.653577	0.465204	0.771823
O403	O	0.749033	-0.767063	-0.002677
O404	O	1.249033	-0.267063	0.497323
C405	C	0.761558	-0.708185	-0.080602
C406	C	1.261558	-0.208185	0.419398
C407	C	0.718759	-0.736901	-0.037720
C408	C	1.218759	-0.236901	0.462280
H409	H	0.737098	-0.683800	-0.108953
H410	H	1.237098	-0.183800	0.391047
H411	H	0.789880	-0.683684	-0.056235
H412	H	1.289880	-0.183684	0.443765
H413	H	0.789387	-0.735844	-0.108390
H414	H	1.289387	-0.235844	0.391610
H415	H	0.690892	-0.709278	-0.009920
H416	H	1.190892	-0.209278	0.490080
H417	H	0.690477	-0.761410	-0.062122
H418	H	1.190477	-0.261410	0.437878
H419	H	0.601652	-0.771229	0.144736
H420	H	1.101652	-0.271229	0.644736
O421	O	-0.056434	-0.000065	0.173985
O422	O	0.443566	0.499935	0.673985
C423	C	-0.076770	-0.000020	0.276911
C424	C	0.423230	0.499980	0.776911
C425	C	-0.101609	-0.000014	0.219378
C426	C	0.398391	0.499986	0.719378
H427	H	-0.113282	0.000032	0.313626
H428	H	0.386718	0.500032	0.813626
H429	H	-0.049342	-0.034747	0.279889
H430	H	0.450658	0.465253	0.779889
H431	H	-0.049291	0.034689	0.279806
H432	H	0.450709	0.534689	0.779806
H433	H	-0.129113	-0.034700	0.216444
H434	H	0.370887	0.465300	0.716444
H435	H	-0.129004	0.034736	0.216424
H436	H	0.370996	0.534736	0.716424
O437	O	0.595579	-0.233021	0.150943
O438	O	1.095579	0.266979	0.650943
C439	C	0.582986	-0.292003	0.228761
C440	C	1.082986	0.207997	0.728761
C441	C	0.625818	-0.263279	0.185920
C442	C	1.125818	0.236721	0.685920
H443	H	0.607417	-0.316482	0.257042
H444	H	1.107417	0.183518	0.757042
H445	H	0.555155	-0.264394	0.256623
H446	H	1.055155	0.235606	0.756623
H447	H	0.554669	-0.316426	0.204301
H448	H	1.054669	0.183574	0.704301
H449	H	0.654173	-0.238856	0.210334
H450	H	1.154173	0.261144	0.710334
H451	H	0.653609	-0.290915	0.158058
H452	H	1.153609	0.209085	0.658058
H453	H	0.674963	0.081996	-0.206495
H454	H	1.174963	0.581996	0.293505
H455	H	0.668358	-0.082076	-0.752972
H456	H	1.168358	0.417924	-0.252972
H457	H	0.676276	0.081985	-0.098748
H458	H	1.176276	0.581985	0.401252
H459	H	-0.141942	-0.000064	-0.023982
H460	H	0.358058	0.499936	0.476018
H461	H	-0.167662	-0.000047	0.164425
H462	H	0.332338	0.499953	0.664425
H463	H	0.562670	-0.469086	0.183666
H464	H	1.062670	0.030914	0.683666
O465	O	0.595552	-0.130075	0.150969
O466	O	1.095552	0.369925	0.650969
C467	C	0.561565	-0.114111	0.250167
C468	C	1.061565	0.385889	0.750167
C469	C	0.604397	-0.142833	0.207327
C470	C	1.104397	0.357167	0.707327
H471	H	0.568693	-0.124423	0.295741
H472	H	1.068693	0.375577	0.795741
H473	H	0.568257	-0.072298	0.243527
H474	H	1.068257	0.427702	0.743527
H475	H	0.516002	-0.124373	0.242942
H476	H	1.016002	0.375627	0.742942
H477	H	0.649977	-0.132612	0.214526
H478	H	1.149977	0.367388	0.714526
H479	H	0.597655	-0.184638	0.213977
H480	H	1.097655	0.315362	0.713977
O481	O	-0.028492	-0.000047	-0.030848
O482	O	0.471508	0.499953	0.469152
C483	C	-0.020722	-0.000084	-0.133924
C484	C	0.479278	0.499916	0.366076
C485	C	-0.061153	-0.000095	-0.077173
C486	C	0.438847	0.499905	0.422827
H487	H	-0.047113	-0.000133	-0.171392
H488	H	0.452887	0.499867	0.328608
H489	H	0.007432	0.034643	-0.136233
H490	H	0.507432	0.534643	0.363767
H491	H	0.007451	-0.034794	-0.136157
H492	H	0.507451	0.465206	0.363843
H493	H	-0.089362	0.034591	-0.074902
H494	H	0.410638	0.534591	0.425098
H495	H	-0.089268	-0.034845	-0.074887
H496	H	0.410732	0.465155	0.425113
O497	O	0.787978	-0.629852	-0.041603
O498	O	1.287978	-0.129852	0.458397
C499	C	0.800544	-0.688838	-0.119420
C500	C	1.300544	-0.188838	0.380580
C501	C	0.757725	-0.660107	-0.076575
C502	C	1.257725	-0.160107	0.423425
H503	H	0.776101	-0.713314	-0.147698
H504	H	1.276101	-0.213314	0.352302
H505	H	0.828380	-0.661233	-0.147286
H506	H	1.328380	-0.161233	0.352714
H507	H	0.828857	-0.713263	-0.094964
H508	H	1.328857	-0.213263	0.405036
H509	H	0.729375	-0.635681	-0.100985
H510	H	1.229375	-0.135681	0.399015
H511	H	0.729929	-0.687739	-0.048710
H512	H	1.229929	-0.187739	0.451290
O513	O	0.556513	-0.629772	0.189793
O514	O	1.056513	-0.129772	0.689793
C515	C	0.479256	-0.624257	0.267026
C516	C	0.979256	-0.124257	0.767026
C517	C	0.522139	-0.595562	0.224206
C518	C	1.022139	-0.095562	0.724206
H519	H	0.451461	-0.596611	0.294868
H520	H	0.951461	-0.096611	0.794868
H521	H	0.450912	-0.648689	0.242606
H522	H	0.950912	-0.148689	0.742606
H523	H	0.503680	-0.648720	0.295330
H524	H	1.003680	-0.148720	0.795330
H525	H	0.497762	-0.571072	0.195891
H526	H	0.997762	-0.071072	0.695891
H527	H	0.550483	-0.571162	0.248662
H528	H	1.050483	-0.071162	0.748662
H529	H	0.562686	-0.531021	0.183662
H530	H	1.062686	-0.031021	0.683662
H531	H	0.672982	0.127225	-0.371978
H532	H	1.172982	0.627225	0.128022
H533	H	0.138388	-0.000088	-0.072635
H534	H	0.638388	0.499912	0.427365
O535	O	0.669711	0.089168	-0.640623
O536	O	1.169711	0.589168	-0.140623
C537	C	0.669688	0.178878	-0.646905
C538	C	1.169688	0.678878	-0.146905
C539	C	0.669303	0.129112	-0.679545
C540	C	1.169303	0.629112	-0.179545
H541	H	0.669371	0.211186	-0.678360
H542	H	1.169371	0.711186	-0.178360
H543	H	0.630150	0.181180	-0.613672
H544	H	1.130150	0.681180	-0.113672
H545	H	0.709875	0.181110	-0.624517
H546	H	1.209875	0.681110	-0.124517
H547	H	0.629144	0.126847	-0.701967
H548	H	1.129144	0.626847	-0.201967
H549	H	0.708868	0.126831	-0.712745
H550	H	1.208868	0.626831	-0.212745
O551	O	0.676382	-0.089232	-0.094131
O552	O	1.176382	0.410768	0.405869
C553	C	0.725879	-0.166570	-0.082709
C554	C	1.225879	0.333430	0.417291
C555	C	0.725484	-0.116817	-0.115372
C556	C	1.225484	0.383183	0.384628
H557	H	0.765569	-0.188892	-0.099878
H558	H	1.265569	0.311108	0.400122
H559	H	0.726486	-0.158835	-0.035151
H560	H	1.226486	0.341165	0.464849
H561	H	0.685847	-0.188833	-0.088945
H562	H	1.185847	0.311167	0.411055
H563	H	0.765509	-0.094529	-0.109184
H564	H	1.265509	0.405471	0.390816
H565	H	0.724848	-0.124587	-0.162918
H566	H	1.224848	0.375413	0.337082
O567	O	0.671527	-0.134464	-0.484306
O568	O	1.171527	0.365536	0.015694
C569	C	0.671603	-0.224174	-0.478022
C570	C	1.171603	0.275826	0.021978
C571	C	0.672032	-0.174405	-0.445393
C572	C	1.172032	0.325595	0.054607
H573	H	0.672024	-0.256479	-0.446577
H574	H	1.172024	0.243521	0.053423
H575	H	0.631395	-0.226464	-0.500370
H576	H	1.131395	0.273536	-0.000370
H577	H	0.711118	-0.226421	-0.511288
H578	H	1.211118	0.273579	-0.011288
H579	H	0.632544	-0.172124	-0.412100
H580	H	1.132544	0.327876	0.087900
H581	H	0.712266	-0.172136	-0.423085
H582	H	1.212266	0.327864	0.076915
H583	H	0.672899	-0.127317	-0.371978
H584	H	1.172899	0.372683	0.128022
H585	H	0.674939	-0.082107	-0.206520
H586	H	1.174939	0.417893	0.293480
