data_functionalizedCrystal
_audit_creation_method	'MofGen! by Chris Wilmer'
_symmetry_space_group_name_H-M	'P1'
_symmetry_Int_Tables_number	1
_symmetry_cell_setting	triclinic
loop_
_symmetry_equiv_pos_as_xyz
  x,y,z
_cell_length_a	11.169417
_cell_length_b	19.077068
_cell_length_c	11.169409
_cell_angle_alpha	87.740848
_cell_angle_beta	90.020564
_cell_angle_gamma	92.327792
loop_
_atom_site_label
_atom_site_type_symbol
_atom_site_fract_x
_atom_site_fract_y
_atom_site_fract_z
Zn1	Zn	1.815639	-0.280127	0.697665
Zn2	Zn	1.807401	-0.397847	0.505018
Zn3	Zn	1.614919	-0.280170	0.497002
Zn4	Zn	1.606812	-0.397789	0.705659
O5	O	1.711193	-0.338983	0.601336
O6	O	1.982495	-0.295749	0.672119
O7	O	1.781813	-0.382278	0.336008
O8	O	1.648385	-0.181673	0.516921
O9	O	1.976443	-0.382237	0.530582
O10	O	1.795853	-0.181642	0.664347
O11	O	1.640398	-0.295821	0.330119
O12	O	1.445894	-0.295766	0.524672
O13	O	1.634567	-0.382139	0.872546
O14	O	1.439938	-0.382181	0.677971
O15	O	1.787992	-0.295693	0.866673
O16	O	1.773952	-0.496330	0.538333
O17	O	1.626580	-0.496288	0.685743
C18	C	1.399369	-0.338972	0.601320
C19	C	1.265968	-0.338985	0.601343
C20	C	1.698525	-0.521846	0.613802
C21	C	1.693216	-0.600076	0.619175
C22	C	1.767510	-0.636827	0.545014
C23	C	1.762523	-0.710332	0.550075
C24	C	1.683235	-0.747084	0.629291
C25	C	1.608938	-0.710328	0.703460
C26	C	1.613932	-0.636825	0.698404
C27	C	1.660072	-0.966917	0.652640
C28	C	1.655081	-1.040426	0.657687
C29	C	1.808668	-1.040424	0.504303
C30	C	1.813650	-0.966919	0.499250
C31	C	1.739357	-0.930169	0.573423
N32	N	1.678134	-0.822218	0.634463
N33	N	1.744466	-0.855037	0.568256
C34	C	2.024234	-0.338994	0.601353
C35	C	2.157634	-0.338999	0.601360
C36	C	1.711294	-0.338905	0.914373
C37	C	1.711337	-0.338872	1.047771
C38	C	1.723942	-0.155406	0.588848
C39	C	1.729375	-0.077176	0.583526
C40	C	1.711164	-0.339010	0.289513
C41	C	1.711367	-0.338845	0.156103
H42	H	1.832069	-0.606907	0.480503
Cl43	Cl	1.913347	-0.920721	0.399676
Cl44	Cl	1.520533	-0.590623	0.791643
H45	H	1.823020	-0.740251	0.489685
Cl46	Cl	1.566672	-0.920727	0.745884
H47	H	1.869155	-1.070353	0.443917
Cl48	Cl	1.555383	-1.086628	0.757265
H49	H	1.544386	-0.740258	0.767964
