data_functionalizedCrystal
_audit_creation_method	'MofGen! by Chris Wilmer'
_symmetry_space_group_name_H-M	'P1'
_symmetry_Int_Tables_number	1
_symmetry_cell_setting	triclinic
loop_
_symmetry_equiv_pos_as_xyz
  x,y,z
_cell_length_a	19.077068
_cell_length_b	19.077241
_cell_length_c	19.076919
_cell_angle_alpha	90.113904
_cell_angle_beta	94.470751
_cell_angle_gamma	85.292229
loop_
_atom_site_label
_atom_site_type_symbol
_atom_site_fract_x
_atom_site_fract_y
_atom_site_fract_z
Zn1	Zn	-0.256332	-1.047582	-0.450414
Zn2	Zn	-0.369488	-1.047495	-0.337255
Zn3	Zn	-0.255959	-0.934813	-0.328177
Zn4	Zn	-0.378906	-0.924921	-0.450353
O5	O	-0.315171	-0.988703	-0.391550
O6	O	-0.267556	-1.146062	-0.439228
O7	O	-0.350331	-1.036651	-0.237563
O8	O	-0.157199	-0.953949	-0.340619
O9	O	-0.350692	-1.145999	-0.356091
O10	O	-0.157472	-1.036800	-0.430426
O11	O	-0.266922	-0.953864	-0.230893
O12	O	-0.276054	-0.835009	-0.340559
O13	O	-0.366744	-0.937089	-0.548849
O14	O	-0.366383	-0.827742	-0.430321
O15	O	-0.276689	-1.027207	-0.548894
O16	O	-0.469548	-1.027059	-0.356031
O17	O	-0.476467	-0.937004	-0.439123
C18	C	-0.322201	-0.805838	-0.384449
C19	C	-0.325226	-0.727606	-0.381428
C20	C	-0.283437	-0.690880	-0.423366
C21	C	-0.286276	-0.617373	-0.420521
C22	C	-0.330907	-0.580593	-0.375743
C23	C	-0.372697	-0.617324	-0.333801
C24	C	-0.369855	-0.690829	-0.336642
C25	C	-0.344039	-0.360751	-0.362593
C26	C	-0.346880	-0.287240	-0.359757
C27	C	-0.260457	-0.287295	-0.446477
C28	C	-0.257622	-0.360802	-0.449317
C29	C	-0.299409	-0.397526	-0.407372
N30	N	-0.333811	-0.505457	-0.372836
N31	N	-0.296501	-0.472661	-0.410276
C32	C	-0.498628	-0.980967	-0.398572
C33	C	-0.577110	-0.977721	-0.401602
C34	C	-0.610355	-1.023116	-0.359802
C35	C	-0.684097	-1.020067	-0.362657
C36	C	-0.724593	-0.971619	-0.407307
C37	C	-0.691343	-0.926222	-0.449111
C38	C	-0.617602	-0.929275	-0.446260
C39	C	-0.945524	-0.957461	-0.420472
C40	C	-1.019270	-0.954410	-0.423319
C41	C	-1.012019	-1.048256	-0.336865
C42	C	-0.938277	-1.051302	-0.334015
C43	C	-0.905033	-1.005907	-0.375821
N44	N	-0.799970	-0.968500	-0.410224
N45	N	-0.829658	-1.009030	-0.372908
C46	C	-0.130999	-0.996487	-0.384516
C47	C	-0.052515	-0.999805	-0.381519
C48	C	-0.322808	-0.981054	-0.575122
C49	C	-0.326063	-0.977795	-0.653350
C50	C	-0.308111	-0.172283	-0.398673
C51	C	-0.305092	-0.250515	-0.401694
C52	C	-0.280707	-1.023181	-0.690126
C53	C	-0.283762	-1.020110	-0.763629
C54	C	-0.332177	-0.971656	-0.800354
C55	C	-0.377535	-0.926265	-0.763573
C56	C	-0.374476	-0.929333	-0.690071
C57	C	-0.346352	-0.957446	-1.020178
C58	C	-0.349409	-0.954382	-1.093685
C59	C	-0.255635	-1.048227	-1.093736
C60	C	-0.252583	-1.051294	-1.020233
C61	C	-0.297938	-1.005900	-0.983458
N62	N	-0.335303	-0.968517	-0.875486
N63	N	-0.294808	-1.009036	-0.908327
C64	C	-0.307512	-0.996364	-0.208691
C65	C	-0.304053	-0.999769	-0.130461
H66	H	-0.221281	-0.390743	-0.485783
Cl67	Cl	-1.070178	-0.893490	-0.479445
Cl68	Cl	-0.742252	-0.865320	-0.505248
H69	H	-0.252248	-0.587474	-0.454673
Cl70	Cl	-0.403010	-0.241001	-0.303476
Cl71	Cl	-0.207926	-0.241123	-0.499202
H72	H	-0.246830	-1.057070	-0.793569
Cl73	Cl	-0.410275	-0.893460	-1.139853
Cl74	Cl	-0.191716	-1.112211	-0.974069
Cl75	Cl	-0.198618	-1.105287	-1.139971
Cl76	Cl	-0.575808	-0.872207	-0.498813
H77	H	-0.411403	-0.892368	-0.660129
H78	H	-0.241284	-1.062640	-0.660230
H79	H	-0.378066	-0.390643	-0.328439
H80	H	-0.383293	-0.920493	-0.990245
Cl81	Cl	-0.428802	-0.571086	-0.277503
Cl82	Cl	-0.438398	-0.865348	-0.809742
Cl83	Cl	-0.559453	-1.084021	-0.303663
Cl84	Cl	-0.422392	-0.736999	-0.283918
H85	H	-0.247095	-0.720821	-0.459831
Cl86	Cl	-0.887373	-1.112220	-0.277891
H87	H	-1.039094	-1.085214	-0.302829
Cl88	Cl	-0.725888	-1.077140	-0.310109
H89	H	-0.918463	-0.920497	-0.454512
