data_functionalizedCrystal
_audit_creation_method	'MofGen! by Chris Wilmer'
_symmetry_space_group_name_H-M	'P1'
_symmetry_Int_Tables_number	1
_symmetry_cell_setting	triclinic
loop_
_symmetry_equiv_pos_as_xyz
  x,y,z
_cell_length_a	19.188905
_cell_length_b	10.654554
_cell_length_c	9.130313
_cell_angle_alpha	89.997363
_cell_angle_beta	89.992651
_cell_angle_gamma	83.810699
loop_
_atom_site_label
_atom_site_type_symbol
_atom_site_fract_x
_atom_site_fract_y
_atom_site_fract_z
O1	O	0.927178	0.156624	-0.122045
O2	O	0.724003	0.177762	-0.121996
O3	O	0.830260	-0.015645	-0.122007
O4	O	0.820920	0.350032	-0.122034
O5	O	0.830259	-0.015640	0.121592
O6	O	0.724001	0.177767	0.121603
O7	O	0.927176	0.156629	0.121553
Cu8	Cu	0.825589	0.167199	0.143821
Cu9	Cu	0.825590	0.167193	-0.144263
O10	O	0.820919	0.350037	0.121564
C11	C	0.829573	-0.062426	-0.000207
C12	C	0.827519	-0.201825	-0.000204
C13	C	0.697986	0.177085	-0.000190
C14	C	0.620467	0.175046	-0.000171
C15	C	0.761095	-0.382971	-0.000220
C16	C	0.763024	-0.251990	-0.000202
C17	C	0.890089	-0.282648	-0.000239
C18	C	0.888159	-0.413626	-0.000268
C19	C	0.687734	-0.365269	-0.000192
C20	C	0.689663	-0.234289	-0.000174
C21	C	0.584070	0.174064	-0.132960
C22	C	0.511234	0.172134	-0.132978
C23	C	0.474799	0.171161	-0.000199
C24	C	0.511205	0.172151	0.132608
C25	C	0.584039	0.174093	0.132622
N26	N	0.365290	0.096650	0.098621
N27	N	0.296101	0.094802	0.098598
C28	C	0.255354	0.165311	-0.000234
N29	N	0.286411	0.237722	-0.099066
N30	N	0.355607	0.239565	-0.099047
C31	C	0.395823	0.169056	-0.000200
C32	C	0.139979	0.162238	-0.133052
C33	C	0.067141	0.160316	-0.133065
C34	C	0.067115	0.160320	0.132525
C35	C	0.139951	0.162255	0.132534
C36	C	0.176379	0.163208	-0.000259
C37	C	0.953193	0.157306	-0.000256
C38	C	1.030712	0.159345	-0.000285
C39	C	0.821606	0.396817	-0.000239
C40	C	0.823660	0.536217	-0.000251
N41	N	0.825593	0.167202	0.346443
N42	N	0.825592	0.167179	-0.346886
C43	C	0.872656	0.081590	0.423090
C44	C	0.872654	0.081575	0.576427
C45	C	0.778524	0.252795	0.576456
C46	C	0.778523	0.252803	0.423122
C47	C	0.927003	-0.017259	0.423075
C48	C	0.927001	-0.017274	0.576412
H49	H	0.939106	-0.479420	-0.000310
F50	F	0.958730	-0.229255	-0.000259
F51	F	0.650234	-0.402825	-0.133433
H52	H	0.613673	0.174894	0.240759
H53	H	0.740200	0.322489	0.638905
H54	H	0.915082	-0.113537	0.381465
F55	F	0.653538	-0.178964	0.133094
H56	H	0.169640	0.163027	-0.241180
H57	H	0.980654	0.003100	0.618013
F58	F	0.993255	0.021322	0.360885
F59	F	0.660692	-0.173980	-0.137635
H60	H	0.910038	-0.108135	0.623970
H61	H	0.664367	-0.400423	0.104979
F62	F	0.728425	0.343907	0.341549
F63	F	0.622835	0.175083	-0.274291
H64	H	0.481593	0.171336	-0.241115
F65	F	0.028343	0.159295	0.273840
H66	H	0.169587	0.163046	0.240665
F67	F	0.472428	0.171122	0.273921
F68	F	0.028404	0.159280	-0.274406
