data_functionalizedCrystal
_audit_creation_method	'MofGen! by Chris Wilmer'
_symmetry_space_group_name_H-M	'P1'
_symmetry_Int_Tables_number	1
_symmetry_cell_setting	triclinic
loop_
_symmetry_equiv_pos_as_xyz
  x,y,z
_cell_length_a	14.560438
_cell_length_b	14.560438
_cell_length_c	14.560438
_cell_angle_alpha	89.998600
_cell_angle_beta	60.000069
_cell_angle_gamma	59.999378
loop_
_atom_site_label
_atom_site_type_symbol
_atom_site_fract_x
_atom_site_fract_y
_atom_site_fract_z
Zr1	Zr	1.005281	0.884760	-0.120524
O2	O	1.196884	0.738113	-0.267167
O3	O	0.813680	0.929715	-0.075573
O4	O	1.005284	0.929715	-0.267174
O5	O	1.005277	0.738113	0.075575
O6	O	1.005285	1.080854	-0.267177
O7	O	1.005280	0.738113	-0.075566
O8	O	0.662540	1.080854	0.075562
O9	O	1.348022	0.738113	-0.267164
O10	O	0.892488	1.061681	-0.056401
O11	O	0.892486	0.948888	0.056396
O12	O	1.118075	0.948888	-0.169189
O13	O	1.118072	0.836095	-0.056393
Zr14	Zr	1.005278	1.125810	0.120523
Zr15	Zr	1.005282	1.125809	-0.120529
Zr16	Zr	1.005277	0.884760	0.120528
Zr17	Zr	1.246329	0.884760	-0.120520
Zr18	Zr	0.764230	1.125809	0.120519
O19	O	1.196879	1.080855	0.075572
O20	O	1.196885	1.080854	-0.267173
O21	O	1.196878	0.738113	0.075579
O22	O	0.813675	1.272457	0.267165
O23	O	0.813681	1.272456	-0.075580
O24	O	0.813674	0.929715	0.267172
O25	O	1.005282	1.272457	-0.075576
O26	O	1.005275	1.080855	0.267173
O27	O	1.005274	0.929716	0.267176
O28	O	1.005279	1.272457	0.075565
O29	O	1.348023	0.929716	-0.267167
O30	O	0.662536	1.080854	0.267166
O31	O	0.662537	1.272456	0.267163
O32	O	0.662541	1.272456	0.075558
O33	O	1.348018	0.738114	-0.075559
O34	O	1.348019	0.929716	-0.075563
O35	O	0.892484	1.061682	0.169188
O36	O	0.892487	1.174475	0.056391
O37	O	1.118073	1.061682	-0.056397
O38	O	1.118071	0.948888	0.056400
C39	C	0.703766	1.005284	-0.000006
C40	C	0.601435	1.005284	-0.000008
C41	C	1.005278	0.703769	0.000005
C42	C	1.005278	0.601437	0.000007
C43	C	1.005285	1.005284	-0.301520
C44	C	1.005287	1.005284	-0.403853
C45	C	0.553360	1.064159	-0.058887
C46	C	0.457201	1.064163	-0.058877
C47	C	0.457203	0.946409	0.058893
C48	C	0.553354	0.946412	0.058889
C49	C	0.272278	1.188411	-0.076097
C50	C	0.224216	1.247273	-0.134995
C51	C	0.308946	1.245730	-0.240508
C52	C	0.441759	1.185304	-0.287149
C53	C	0.489825	1.126433	-0.228258
C54	C	0.405074	1.128000	-0.122725
C55	C	0.738286	0.822160	0.076097
C56	C	0.786360	0.763282	0.134982
C57	C	0.701637	0.764815	0.240495
C58	C	0.568835	0.825220	0.287129
C59	C	0.520761	0.884098	0.228244
C60	C	0.605489	0.882568	0.122732
C61	C	1.306793	1.005285	0.000005
C62	C	1.409124	1.005286	0.000007
C63	C	1.005280	0.457198	0.083262
C64	C	1.005273	0.553353	0.083272
C65	C	1.005275	0.553367	-0.083267
C66	C	1.005273	0.457218	-0.083272
C67	C	1.005281	1.306801	-0.000006
C68	C	1.005281	1.409133	-0.000008
C69	C	1.005288	1.088548	-0.451931
C70	C	1.005276	1.088551	-0.548077
C71	C	1.005267	0.922017	-0.548062
C72	C	1.005269	0.922020	-0.451913
C73	C	1.005274	1.005285	0.301519
C74	C	1.005272	1.005285	0.403852
C75	C	0.703767	1.306800	-0.000012
C76	C	0.601437	1.409132	-0.000016
C77	C	0.703760	1.005285	0.301513
C78	C	0.601428	1.005285	0.403844
C79	C	0.703762	1.306801	0.301508
C80	C	0.601429	1.409133	0.403837
C81	C	1.306797	0.703769	-0.301509
C82	C	1.409130	0.601437	-0.403838
C83	C	1.306792	0.703769	0.000011
C84	C	1.409122	0.601438	0.000015
C85	C	1.306799	1.005285	-0.301515
C86	C	1.409131	1.005285	-0.403846
C87	C	0.553360	1.398334	-0.058892
C88	C	0.457217	1.494489	-0.058899
C89	C	0.457233	1.612238	0.058854
C90	C	0.553380	1.516084	0.058854
C91	C	0.553349	1.064161	0.510796
C92	C	0.457205	1.064148	0.606943
C93	C	0.457224	0.946381	0.489173
C94	C	0.553372	0.946388	0.393028
C95	C	0.553353	1.516085	0.393035
C96	C	0.457209	1.612233	0.489188
C97	C	0.457224	1.494462	0.606941
C98	C	0.553372	1.398316	0.510789
H99	H	0.592503	1.112098	-0.106843
H100	H	0.592480	1.524898	0.305953
H101	H	0.592496	1.311253	-0.106839
H102	H	0.418084	0.898432	0.480380
H103	H	1.005299	1.156348	-0.412801
H104	H	0.499849	0.826463	0.373043
H105	H	1.005270	0.418083	-0.151082
C106	C	0.404330	1.482607	-0.123656
H107	H	0.446717	1.405139	-0.158707
H108	H	0.420091	1.517663	-0.179377
H109	H	0.313547	1.517673	-0.072826
H110	H	0.418069	1.699316	0.480386
C111	C	0.404345	1.482572	0.724585
H112	H	0.340186	1.555150	0.780304
H113	H	0.473368	1.442621	0.733023
H114	H	0.366831	1.442622	0.733012
H115	H	0.592477	1.112113	0.519609
C116	C	1.005278	0.404308	0.174850
H117	H	1.005289	0.340154	0.162918
H118	H	0.929946	0.457729	0.246729
H119	H	1.080619	0.382393	0.171394
C120	C	0.404283	0.881687	0.123709
H121	H	0.446667	0.846645	0.158796
H122	H	0.420013	0.825962	0.072926
H123	H	0.313504	0.932546	0.179424
H124	H	1.005271	0.592526	-0.151060
H125	H	1.005270	0.592486	0.151079
C126	C	0.404356	1.729882	0.123618
H127	H	0.340198	1.785603	0.115196
H128	H	0.473380	1.738318	0.094545
H129	H	0.366841	1.738309	0.201082
H130	H	1.005275	1.156353	-0.587218
C131	C	0.606258	1.280662	0.522670
H132	H	0.563855	1.287989	0.600136
H133	H	0.697035	1.240708	0.487606
H134	H	0.590489	1.240711	0.487608
H135	H	1.005264	0.854215	-0.412763
C136	C	0.374667	0.950606	0.279572
H137	H	0.331084	0.943113	0.350860
H138	H	0.362483	0.921996	0.231096
H139	H	0.340297	1.027770	0.288454
C140	C	0.606266	1.527962	0.123624
H141	H	0.563863	1.605428	0.158698
H142	H	0.697042	1.492896	0.072803
H143	H	0.590495	1.492900	0.179344
C144	C	0.256061	1.310561	-0.305247
H145	H	0.164827	1.346796	-0.262344
H146	H	0.296470	1.259588	-0.375382
H147	H	0.274231	1.365343	-0.317917
H148	H	1.005256	0.854224	-0.587203
H149	H	0.418065	1.112089	0.694025
H150	H	0.510746	1.184040	-0.373075
C151	C	0.635899	1.059979	-0.279545
H152	H	0.679482	1.067492	-0.350821
H153	H	0.670325	0.982814	-0.288419
H154	H	0.648007	1.088659	-0.231035
C155	C	0.179064	1.190156	0.039996
H156	H	0.226702	1.146467	0.068406
H157	H	0.137618	1.159632	0.032950
H158	H	0.115369	1.265465	0.090268
H159	H	0.592522	0.898439	0.305937
H160	H	0.116073	1.296473	-0.097010
H161	H	0.740796	0.716857	0.288431
H162	H	0.807284	0.820906	-0.009823
H163	H	0.894501	0.714087	0.096998
