data_functionalizedCrystal
_audit_creation_method	'MofGen! by Chris Wilmer'
_symmetry_space_group_name_H-M	'P1'
_symmetry_Int_Tables_number	1
_symmetry_cell_setting	triclinic
loop_
_symmetry_equiv_pos_as_xyz
  x,y,z
_cell_length_a	19.805407
_cell_length_b	19.077068
_cell_length_c	19.805399
_cell_angle_alpha	87.730571
_cell_angle_beta	90.019573
_cell_angle_gamma	92.327086
loop_
_atom_site_label
_atom_site_type_symbol
_atom_site_fract_x
_atom_site_fract_y
_atom_site_fract_z
Zn1	Zn	1.023904	-0.280218	0.393534
Zn2	Zn	1.523904	0.219782	0.893534
Zn3	Zn	1.019269	-0.397917	0.284888
Zn4	Zn	1.519269	0.102083	0.784888
Zn5	Zn	0.910718	-0.280237	0.280359
Zn6	Zn	1.410718	0.219763	0.780359
Zn7	Zn	0.906134	-0.397880	0.398033
Zn8	Zn	1.406134	0.102120	0.898033
O9	O	0.965006	-0.339063	0.339204
O10	O	1.465006	0.160937	0.839204
O11	O	1.118005	-0.295839	0.379134
O12	O	1.618005	0.204161	0.879134
O13	O	1.004848	-0.382330	0.189571
O14	O	1.504848	0.117670	0.689571
O15	O	0.929590	-0.181744	0.291594
O16	O	1.429590	0.318256	0.791594
O17	O	1.114600	-0.382312	0.299312
O18	O	1.614600	0.117688	0.799312
O19	O	1.012748	-0.181729	0.374743
O20	O	1.512748	0.318271	0.874743
O21	O	0.925096	-0.295872	0.186244
O22	O	1.425096	0.204128	0.686244
O23	O	0.815394	-0.295835	0.295957
O24	O	1.315394	0.204165	0.795957
O25	O	0.921778	-0.382248	0.492152
O26	O	1.421778	0.117752	0.992152
O27	O	0.812026	-0.382267	0.382411
O28	O	1.312026	0.117733	0.882411
O29	O	1.008303	-0.295802	0.488846
O30	O	1.508303	0.204198	0.988846
O31	O	1.000404	-0.496403	0.303675
O32	O	1.500404	0.003597	0.803675
O33	O	0.917284	-0.496376	0.386802
O34	O	1.417284	0.003624	0.886802
C35	C	0.789151	-0.339050	0.339181
C36	C	1.289151	0.160950	0.839181
C37	C	0.713918	-0.339061	0.339188
C38	C	1.213918	0.160939	0.839188
C39	C	0.676836	-0.384133	0.384138
C40	C	1.176836	0.115867	0.884138
C41	C	0.606147	-0.384135	0.384147
C42	C	1.106147	0.115865	0.884147
C43	C	0.572543	-0.339066	0.339204
C44	C	1.072543	0.160934	0.839204
C45	C	0.609630	-0.293989	0.294252
C46	C	1.109630	0.206011	0.794252
C47	C	0.680318	-0.293985	0.294246
C48	C	1.180318	0.206015	0.794246
C49	C	0.324556	-0.294004	0.294275
C50	C	0.824556	0.205996	0.794275
C51	C	0.253864	-0.294014	0.294283
C52	C	0.753864	0.205986	0.794283
C53	C	0.250386	-0.384154	0.384176
C54	C	0.750386	0.115846	0.884176
C55	C	0.321073	-0.384150	0.384170
C56	C	0.821073	0.115850	0.884170
C57	C	0.358155	-0.339070	0.339221
C58	C	0.858155	0.160930	0.839221
C59	C	0.434804	-0.339069	0.339212
C60	C	0.934804	0.160931	0.839212
C61	C	0.495895	-0.339071	0.339209
C62	C	0.995895	0.160929	0.839209
C63	C	0.957862	-0.521927	0.346233
C64	C	1.457862	-0.021927	0.846233
C65	C	0.954867	-0.600157	0.349263
C66	C	1.454867	-0.100157	0.849263
C67	C	0.996770	-0.636901	0.307443
C68	C	1.496770	-0.136901	0.807443
C69	C	0.993957	-0.710406	0.310296
C70	C	1.493957	-0.210406	0.810296
C71	C	0.949238	-0.747167	0.354968
C72	C	1.449238	-0.247167	0.854968
C73	C	0.907333	-0.710418	0.396793
C74	C	1.407333	-0.210418	0.896793
C75	C	0.910150	-0.636914	0.393942
C76	C	1.410150	-0.136914	0.893942
C77	C	0.936174	-0.967002	0.368135
C78	C	1.436174	-0.467002	0.868135
C79	C	0.933359	-1.040511	0.370981
C80	C	1.433359	-0.540511	0.870981
C81	C	1.019984	-1.040494	0.284485
C82	C	1.519984	-0.540494	0.784485
C83	C	1.022794	-0.966989	0.281635
C84	C	1.522794	-0.466989	0.781635
C85	C	0.980892	-0.930246	0.323463
C86	C	1.480892	-0.430246	0.823463
N87	N	0.946361	-0.822301	0.357884
N88	N	1.446361	-0.322301	0.857884
N89	N	0.983773	-0.855113	0.320549
N90	N	1.483773	-0.355113	0.820549
C91	C	1.141548	-0.339077	0.339226
C92	C	1.641548	0.160923	0.839226
C93	C	1.216780	-0.339083	0.339236
C94	C	1.716780	0.160917	0.839236
C95	C	0.965046	-0.339019	0.515745
C96	C	1.465046	0.160981	1.015745
C97	C	0.965063	-0.339000	0.590976
C98	C	1.465063	0.161000	1.090976
C99	C	0.972197	-0.155485	0.332161
C100	C	1.472197	0.344515	0.832161
C101	C	0.975262	-0.077255	0.329160
C102	C	1.475262	0.422745	0.829160
C103	C	0.965008	-0.339056	0.163347
C104	C	1.465008	0.160944	0.663347
C105	C	0.965130	-0.338877	0.088109
C106	C	1.465130	0.161123	0.588109
C107	C	1.010118	-0.293985	0.624600
C108	C	1.510118	0.206015	1.124600
C109	C	1.010125	-0.293965	0.695288
C110	C	1.510125	0.206035	1.195288
C111	C	0.965081	-0.338963	0.732350
C112	C	1.465081	0.161037	1.232350
C113	C	0.920022	-0.383980	0.698721
C114	C	1.420022	0.116020	1.198721
C115	C	0.920011	-0.383996	0.628035
C116	C	1.420011	0.116004	1.128035
C117	C	0.920062	-0.383914	0.983792
C118	C	1.420062	0.116086	1.483792
C119	C	0.920078	-0.383896	1.054484
C120	C	1.420078	0.116104	1.554484
C121	C	1.010177	-0.293883	1.051045
C122	C	1.510177	0.206117	1.551045
C123	C	1.010166	-0.293899	0.980358
C124	C	1.510166	0.206101	1.480358
C125	C	0.965104	-0.338913	0.946736
C126	C	1.465104	0.161087	1.446736
C127	C	0.965096	-0.338934	0.870088
C128	C	1.465096	0.161066	1.370088
C129	C	0.965093	-0.338947	0.808997
C130	C	1.465093	0.161053	1.308997
H131	H	0.348430	-0.420852	0.420766
H132	H	0.848430	0.079148	0.920766
H133	H	1.046815	-0.257311	0.722661
H134	H	1.546815	0.242689	1.222661
H135	H	0.575957	-0.420838	0.420749
H136	H	1.075957	0.079162	0.920749
H137	H	0.902054	-0.937092	0.402191
H138	H	1.402054	-0.437092	0.902191
C139	C	0.209595	-0.433735	0.433626
C140	C	0.709595	0.066265	0.933626
H141	H	0.162683	-0.427280	0.427201
H142	H	0.662683	0.072720	0.927201
H143	H	0.219329	-0.481010	0.425462
H144	H	0.719329	0.018990	0.925462
H145	H	0.221602	-0.423492	0.478727
H146	H	0.721602	0.076508	0.978727
C147	C	1.059666	-0.244489	0.583834
C148	C	1.559666	0.255511	1.083834
H149	H	1.053213	-0.250948	0.536920
H150	H	1.553213	0.249052	1.036920
H151	H	1.051616	-0.197196	0.593603
H152	H	1.551616	0.302804	1.093603
H153	H	1.104743	-0.254795	0.595824
H154	H	1.604743	0.245205	1.095824
C155	C	0.365341	-0.244423	0.244832
C156	C	0.865341	0.255577	0.744832
H157	H	0.412253	-0.250866	0.251268
H158	H	0.912253	0.249134	0.751268
H159	H	0.353337	-0.254661	0.199733
H160	H	0.853337	0.245339	0.699733
H161	H	0.355602	-0.197147	0.253002
H162	H	0.855602	0.302853	0.753002
C163	C	1.059740	-0.244363	1.088032
C164	C	1.559740	0.255637	1.588032
H165	H	1.053293	-0.250791	1.135438
H166	H	1.553293	0.249209	1.635438
H167	H	1.104810	-0.254673	1.076851
H168	H	1.604810	0.245327	1.576851
H169	H	1.051683	-0.197073	1.074629
H170	H	1.551683	0.302927	1.574629
H171	H	0.883380	-0.420577	0.956426
H172	H	1.383380	0.079423	1.456426
H173	H	0.883316	-0.420644	0.600659
H174	H	1.383316	0.079356	1.100659
H175	H	0.704191	-0.420836	0.420734
H176	H	1.204191	0.079164	0.920734
C177	C	1.040047	-0.750822	0.264290
C178	C	1.540047	-0.250822	0.764290
H179	H	1.067077	-0.718401	0.237271
H180	H	1.567077	-0.218401	0.737271
H181	H	1.068429	-0.779452	0.291316
H182	H	1.568429	-0.279452	0.791316
H183	H	1.013066	-0.779538	0.235888
H184	H	1.513066	-0.279538	0.735888
C185	C	1.059712	-0.244402	0.939590
C186	C	1.559712	0.255598	1.439590
H187	H	1.053256	-0.250863	0.892676
H188	H	1.553256	0.249137	1.392676
H189	H	1.051660	-0.197109	0.949359
H190	H	1.551660	0.302891	1.449359
H191	H	1.104790	-0.254707	0.951577
H192	H	1.604790	0.245293	1.451577
C193	C	0.216900	-0.244431	0.244848
C194	C	0.716900	0.255569	0.744848
H195	H	0.249108	-0.217576	0.218082
H196	H	0.749108	0.282424	0.718082
H197	H	0.188263	-0.271312	0.216348
H198	H	0.688263	0.228688	0.716348
H199	H	0.190532	-0.213804	0.269623
H200	H	0.690532	0.286196	0.769623
C201	C	0.870522	-0.433391	1.095252
C202	C	1.370522	0.066609	1.595252
H203	H	0.843678	-0.460197	1.065104
H204	H	1.343678	0.039803	1.565104
H205	H	0.895214	-0.464055	1.124008
H206	H	1.395214	0.035945	1.624008
H207	H	0.842093	-0.406448	1.121787
H208	H	1.342093	0.093552	1.621787
H209	H	0.582264	-0.257290	0.257661
H210	H	1.082264	0.242710	0.757661
C211	C	0.884165	-1.080950	0.420119
C212	C	1.384165	-0.580950	0.920119
H213	H	0.888484	-1.129988	0.415818
H214	H	1.388484	-0.629988	0.915818
H215	H	0.894505	-1.068870	0.465139
H216	H	1.394505	-0.568870	0.965139
H217	H	0.839152	-1.068947	0.409701
H218	H	1.339152	-0.568947	0.909701
H219	H	0.883343	-0.420615	0.728903
H220	H	1.383343	0.079385	1.228903
C221	C	0.721109	-0.244404	0.244803
C222	C	1.221109	0.255596	0.744803
H223	H	0.690972	-0.217566	0.218034
H224	H	1.190972	0.282434	0.718034
H225	H	0.749889	-0.213773	0.269566
H226	H	1.249889	0.286227	0.769566
H227	H	0.747623	-0.271286	0.216297
H228	H	1.247623	0.228714	0.716297
H229	H	1.059207	-0.937060	0.245260
H230	H	1.559207	-0.437060	0.745260
C231	C	1.045963	-0.596471	0.258305
C232	C	1.545963	-0.096471	0.758305
H233	H	1.070520	-0.628884	0.233812
H234	H	1.570520	-0.128884	0.733812
H235	H	1.021189	-0.567838	0.227677
H236	H	1.521189	-0.067838	0.727677
H237	H	1.076541	-0.567755	0.283116
H238	H	1.576541	-0.067755	0.783116
H239	H	0.870925	-0.740354	0.433168
H240	H	1.370925	-0.240354	0.933168
C241	C	1.066077	-1.080912	0.238484
C242	C	1.566077	-0.580912	0.738484
H243	H	1.058000	-1.129953	0.246582
H244	H	1.558000	-0.629953	0.746582
H245	H	1.056661	-1.068906	0.192532
H246	H	1.556661	-0.568906	0.692532
H247	H	1.112013	-1.068819	0.247970
H248	H	1.612013	-0.568819	0.747970
H249	H	0.876029	-0.606998	0.427998
H250	H	1.376029	-0.106998	0.927998
