data_functionalizedCrystal
_audit_creation_method	'MofGen! by Chris Wilmer'
_symmetry_space_group_name_H-M	'P1'
_symmetry_Int_Tables_number	1
_symmetry_cell_setting	triclinic
loop_
_symmetry_equiv_pos_as_xyz
  x,y,z
_cell_length_a	17.699097
_cell_length_b	11.792254
_cell_length_c	16.776229
_cell_angle_alpha	89.993192
_cell_angle_beta	89.989262
_cell_angle_gamma	83.743514
loop_
_atom_site_label
_atom_site_type_symbol
_atom_site_fract_x
_atom_site_fract_y
_atom_site_fract_z
O1	O	1.004842	0.143598	-0.066355
O2	O	1.504842	0.643598	0.433645
O3	O	0.784565	0.162255	-0.066342
O4	O	1.284565	0.662255	0.433658
O5	O	0.900044	-0.012307	-0.066343
O6	O	1.400044	0.487693	0.433657
O7	O	0.889363	0.318159	-0.066354
O8	O	1.389363	0.818159	0.433646
O9	O	0.900028	-0.012318	0.066233
O10	O	1.400028	0.487682	0.566233
O11	O	0.784549	0.162244	0.066235
O12	O	1.284549	0.662244	0.566235
O13	O	1.004826	0.143587	0.066222
O14	O	1.504826	0.643587	0.566222
Zn15	Zn	0.894685	0.152914	0.087278
Zn16	Zn	1.394685	0.652914	0.587278
Zn17	Zn	0.894706	0.152928	-0.087398
Zn18	Zn	1.394706	0.652928	0.412602
O19	O	0.889347	0.318149	0.066223
O20	O	1.389347	0.818149	0.566223
C21	C	0.756357	0.161578	-0.000052
C22	C	1.256357	0.661578	0.499948
C23	C	0.672328	0.159565	-0.000047
C24	C	1.172328	0.659565	0.499953
C25	C	0.156552	0.147231	-0.072346
C26	C	0.656552	0.647231	0.427654
C27	C	0.235507	0.149115	-0.072342
C28	C	0.735507	0.649115	0.427658
C29	C	0.274969	0.150053	-0.000072
C30	C	0.774969	0.650053	0.499928
C31	C	0.235474	0.149095	0.072200
C32	C	0.735474	0.649095	0.572200
C33	C	0.156522	0.147203	0.072195
C34	C	0.656522	0.647203	0.572195
C35	C	0.553879	0.156724	0.072221
C36	C	1.053879	0.656724	0.572221
C37	C	0.632837	0.158619	0.072220
C38	C	1.132837	0.658619	0.572220
C39	C	0.632864	0.158635	-0.072317
C40	C	1.132864	0.658635	0.427683
C41	C	0.553912	0.156743	-0.072322
C42	C	1.053912	0.656743	0.427678
C43	C	0.514424	0.155780	-0.000051
C44	C	1.014424	0.655780	0.499949
C45	C	0.428813	0.153735	-0.000056
C46	C	0.928813	0.653735	0.499944
C47	C	0.360578	0.152106	-0.000066
C48	C	0.860578	0.652106	0.499934
C49	C	0.899363	-0.054595	-0.000055
C50	C	1.399363	0.445405	0.499945
C51	C	0.897349	-0.180584	-0.000056
C52	C	1.397349	0.319416	0.499944
C53	C	0.895713	-0.282901	-0.000058
C54	C	1.395713	0.217099	0.499942
C55	C	0.893667	-0.411263	-0.000066
C56	C	1.393667	0.088737	0.499934
C57	C	1.033035	0.144263	-0.000070
C58	C	1.533035	0.644263	0.499930
C59	C	1.117063	0.146277	-0.000080
C60	C	1.617063	0.646277	0.499920
C61	C	0.890028	0.360437	-0.000067
C62	C	1.390028	0.860437	0.499933
C63	C	0.892042	0.486426	-0.000072
C64	C	1.392042	0.986426	0.499928
N65	N	0.894677	0.152904	0.206489
N66	N	1.394677	0.652904	0.706489
N67	N	0.894720	0.152929	-0.206609
N68	N	1.394720	0.652929	0.293391
C69	C	0.945827	0.075639	0.248205
C70	C	1.445827	0.575639	0.748205
C71	C	0.945831	0.075638	0.331658
C72	C	1.445831	0.575638	0.831658
C73	C	0.894689	0.152908	0.373392
C74	C	1.394689	0.652908	0.873392
C75	C	0.843533	0.230176	0.331669
C76	C	1.343533	0.730176	0.831669
C77	C	0.843526	0.230171	0.248219
C78	C	1.343526	0.730171	0.748219
C79	C	0.843561	0.230198	0.668216
C80	C	1.343561	0.730198	1.168216
C81	C	0.843573	0.230200	0.751673
C82	C	1.343573	0.730200	1.251673
C83	C	0.945866	0.075666	0.751655
C84	C	1.445866	0.575666	1.251655
C85	C	0.945859	0.075661	0.668205
C86	C	1.445859	0.575661	1.168205
C87	C	0.894701	0.152924	0.626490
C88	C	1.394701	0.652924	1.126490
C89	C	0.894696	0.152923	0.536001
C90	C	1.394696	0.652923	1.036001
C91	C	0.894696	0.152916	0.463878
C92	C	1.394696	0.652916	0.963878
H93	H	0.521785	0.155985	-0.131172
H94	H	1.021785	0.655985	0.368828
H95	H	0.801873	0.293086	0.214254
H96	H	1.301873	0.793086	0.714254
H97	H	0.987476	0.012722	0.214231
H98	H	1.487476	0.512722	0.714231
C99	C	0.278943	0.150149	-0.151841
C100	C	0.778943	0.650149	0.348159
N101	N	0.311659	0.150921	-0.211722
N102	N	0.811659	0.650921	0.288278
C103	C	0.113151	0.146197	-0.151851
C104	C	0.613151	0.646197	0.348149
N105	N	0.080464	0.145413	-0.211737
N106	N	0.580464	0.645413	0.288263
H107	H	0.801924	0.293124	0.785651
H108	H	1.301924	0.793124	1.285651
H109	H	0.665024	0.159415	-0.131163
H110	H	1.165024	0.659415	0.368837
C111	C	0.676245	0.159641	0.151727
C112	C	1.176245	0.659641	0.651727
N113	N	0.708940	0.160409	0.211609
N114	N	1.208940	0.660409	0.711609
H115	H	0.987519	0.012750	0.785629
H116	H	1.487519	0.512750	1.285629
H117	H	0.801888	0.293087	0.365654
H118	H	1.301888	0.793087	0.865654
C119	C	0.510451	0.155698	0.151721
C120	C	1.010451	0.655698	0.651721
N121	N	0.477737	0.154938	0.211605
N122	N	0.977737	0.654938	0.711605
H123	H	0.801908	0.293111	0.634258
H124	H	1.301908	0.793111	1.134258
C125	C	1.002118	-0.009344	0.622302
C126	C	1.502118	0.490656	1.122302
N127	N	1.044491	-0.073376	0.587729
N128	N	1.544491	0.426624	1.087729
C129	C	0.278882	0.150174	0.151699
C130	C	0.778882	0.650174	0.651699
N131	N	0.311574	0.151010	0.211579
N132	N	0.811574	0.651010	0.711579
H133	H	0.124370	0.146438	0.131042
H134	H	0.624370	0.646438	0.631042
C135	C	1.002082	-0.009386	0.377542
C136	C	1.502082	0.490614	0.877542
N137	N	1.044446	-0.073441	0.412102
N138	N	1.544446	0.426559	0.912102
