data_functionalizedCrystal
_audit_creation_method	'MofGen! by Chris Wilmer'
_symmetry_space_group_name_H-M	'P1'
_symmetry_Int_Tables_number	1
_symmetry_cell_setting	triclinic
loop_
_symmetry_equiv_pos_as_xyz
  x,y,z
_cell_length_a	15.297475
_cell_length_b	29.839131
_cell_length_c	15.296721
_cell_angle_alpha	80.362342
_cell_angle_beta	88.382971
_cell_angle_gamma	80.343089
loop_
_atom_site_label
_atom_site_type_symbol
_atom_site_fract_x
_atom_site_fract_y
_atom_site_fract_z
Zn1	Zn	1.253184	-0.349615	0.726506
Zn2	Zn	1.278406	-0.414300	0.580004
Zn3	Zn	1.132077	-0.324379	0.554753
Zn4	Zn	1.106635	-0.409884	0.701134
O5	O	1.192575	-0.374544	0.640599
O6	O	1.379100	-0.370605	0.728258
O7	O	1.280198	-0.393658	0.454082
O8	O	1.148234	-0.264872	0.577587
O9	O	1.397630	-0.418128	0.620624
O10	O	1.237211	-0.283413	0.703773
O11	O	1.172691	-0.327594	0.435530
O12	O	1.006132	-0.323312	0.552985
O13	O	1.104872	-0.410603	0.827072
O14	O	0.987439	-0.386132	0.660530
O15	O	1.212541	-0.366324	0.845712
O16	O	1.255528	-0.476569	0.596022
O17	O	1.129328	-0.473325	0.685015
C18	C	0.965004	-0.351505	0.601265
C19	C	0.867645	-0.341661	0.584458
C20	C	0.554435	-0.444905	0.760721
C21	C	0.645909	-0.454158	0.776509
C22	C	0.701347	-0.426034	0.728498
C23	C	0.665303	-0.388657	0.664695
C24	C	0.573820	-0.379406	0.648901
C25	C	0.720733	-0.360535	0.616678
C26	C	0.684688	-0.323158	0.552875
C27	C	0.593214	-0.313908	0.537084
C28	C	0.537776	-0.342032	0.585095
C29	C	0.812215	-0.369786	0.632473
C30	C	0.831601	-0.304286	0.520652
C31	C	0.740126	-0.295034	0.504864
C32	C	1.192425	-0.491248	0.640528
C33	C	1.192435	-0.541184	0.640541
C34	C	1.258375	-0.852537	0.594360
C35	C	1.258477	-1.040224	0.594412
O36	O	1.314422	-1.065927	0.555092
N37	N	1.192745	-1.062010	0.640697
C38	C	1.126987	-1.036871	0.686976
O39	O	1.071086	-1.059709	0.726352
C40	C	1.126889	-0.849187	0.686928
C41	C	1.192620	-0.827402	0.640633
C42	C	1.324101	-0.830753	0.548070
C43	C	1.324072	-0.783834	0.548053
C44	C	1.258317	-0.758699	0.594326
C45	C	1.192591	-0.780483	0.640616
C46	C	1.061135	-0.824050	0.733211
C47	C	1.061118	-0.777126	0.733197
C48	C	1.126848	-0.755342	0.686902
C49	C	1.126807	-0.708428	0.686873
N50	N	1.192538	-0.686643	0.640589
C51	C	1.258293	-0.711778	0.594315
C52	C	1.127042	-1.135408	0.686996
C53	C	1.127065	-1.182329	0.687007
C54	C	1.258557	-1.185679	0.594445
C55	C	1.258529	-1.138756	0.594429
C56	C	1.192773	-1.113623	0.640712
C57	C	1.258227	-0.613244	0.594283
C58	C	1.258190	-0.566320	0.594268
C59	C	1.126702	-0.562975	0.686833
C60	C	1.126736	-0.609894	0.686846
C61	C	1.192506	-0.635028	0.640569
O62	O	1.070897	-0.682698	0.726181
O63	O	1.314198	-0.688934	0.554961
C64	C	1.258404	-0.899457	0.594376
C65	C	1.192678	-0.921241	0.640666
C66	C	1.126923	-0.896106	0.686940
C67	C	1.192701	-0.968162	0.640677
C68	C	1.258456	-0.993297	0.594404
C69	C	1.324188	-0.971511	0.548120
C70	C	1.324159	-0.924592	0.548103
C71	C	1.061191	-0.917892	0.733224
C72	C	1.061225	-0.964811	0.733236
C73	C	1.126980	-0.989946	0.686963
C74	C	1.421035	-0.397674	0.680088
C75	C	1.518390	-0.407531	0.696915
C76	C	1.153055	-0.390786	0.869062
C77	C	1.136213	-0.397707	0.966420
C78	C	1.192747	-0.257389	0.640693
C79	C	1.192820	-0.207464	0.640734
C80	C	1.231992	-0.358339	0.413033
C81	C	1.249003	-0.351309	0.315706
C82	C	1.072240	-0.424011	1.002450
C83	C	1.056418	-0.430517	1.093922
C84	C	1.104563	-0.410715	1.149372
C85	C	1.168533	-0.384407	1.113342
C86	C	1.184361	-0.377904	1.021861
C87	C	1.216684	-0.364608	1.168784
C88	C	1.280654	-0.338300	1.132753
C89	C	1.296479	-0.331798	1.041282
C90	C	1.248335	-0.351600	0.985831
C91	C	1.200855	-0.371111	1.260264
C92	C	1.312977	-0.325004	1.279676
C93	C	1.328799	-0.318499	1.188204
H94	H	0.710765	-0.264601	0.452915
O95	O	0.558064	-0.277646	0.475078
C96	C	0.425735	-0.234381	0.401161
C97	C	0.465423	-0.275460	0.471411
H98	H	0.350828	-0.232595	0.398186
H99	H	0.455879	-0.239023	0.333592
H100	H	0.441121	-0.201092	0.419742
H101	H	0.450051	-0.308769	0.452914
H102	H	0.435278	-0.270778	0.538961
H103	H	0.876739	-0.281386	0.481557
O104	O	1.391046	-0.292988	1.153316
C105	C	1.544922	-0.284296	1.151049
C106	C	1.474515	-0.313223	1.190646
H107	H	1.612425	-0.300651	1.181199
H108	H	1.526554	-0.247800	1.166433
H109	H	1.547913	-0.283039	1.076142
H110	H	1.471487	-0.314517	1.265558
H111	H	1.492910	-0.349704	1.175192
O112	O	1.322133	-0.545235	0.549283
C113	C	1.452525	-0.553511	0.457431
C114	C	1.380177	-0.577447	0.508353
H115	H	1.499461	-0.579541	0.424310
H116	H	1.491383	-0.539019	0.505551
H117	H	1.420245	-0.524240	0.404680
H118	H	1.412384	-0.606736	0.561104
H119	H	1.341325	-0.591906	0.460177
O120	O	1.358628	-0.306216	1.006421
C121	C	1.468204	-0.261194	1.035338
C122	C	1.397833	-0.290145	1.074929
H123	H	1.499934	-0.248201	1.090709
H124	H	1.435475	-0.230568	0.985609
H125	H	1.521347	-0.283411	1.000382
H126	H	1.344669	-0.267966	1.109930
H127	H	1.430626	-0.320775	1.124612
H128	H	0.775829	-0.433569	0.741357
H129	H	0.841554	-0.400218	0.684422
H130	H	0.675250	-0.484591	0.828455
H131	H	1.352181	-0.308881	1.324824
H132	H	1.311785	-0.633703	0.556603
H133	H	0.463289	-0.334500	0.572245
O134	O	1.063138	-1.203489	0.731829
C135	C	0.942905	-1.245405	0.723113
C136	C	1.015249	-1.221450	0.672232
H137	H	0.904179	-1.259942	0.674953
H138	H	0.895849	-1.219390	0.756157
H139	H	0.975180	-1.274650	0.775918
H140	H	0.983051	-1.192208	0.619385
H141	H	1.062298	-1.247494	0.639249
O142	O	1.388018	-0.762753	0.503079
C143	C	1.518421	-0.771041	0.411244
C144	C	1.446058	-0.794969	0.462154
H145	H	1.565353	-0.797075	0.378128
H146	H	1.557280	-0.756554	0.459372
H147	H	1.486155	-0.741767	0.358490
H148	H	1.478250	-0.824261	0.514908
H149	H	1.407205	-0.809424	0.413972
H150	H	1.377651	-0.851214	0.510389
H151	H	1.312053	-1.121023	0.556733
H152	H	0.509290	-0.467802	0.799799
H153	H	1.091676	-0.416013	1.223853
H154	H	1.312097	-1.206152	0.556767
O155	O	1.063069	-1.111059	0.731964
C156	C	0.932674	-1.112705	0.823804
C157	C	1.005062	-1.140331	0.772904
H158	H	0.885767	-1.136362	0.856933
H159	H	0.893791	-1.083286	0.775667
H160	H	0.964918	-1.098019	0.876547
H161	H	0.972891	-1.155048	0.720161
H162	H	1.043938	-1.169726	0.821096
O163	O	0.997243	-0.845138	0.778264
C164	C	0.866803	-0.836839	0.870045
C165	C	0.939124	-0.812904	0.819072
H166	H	0.819784	-0.810787	0.903036
H167	H	0.899011	-0.866087	0.922883
H168	H	0.828039	-0.851361	0.821893
H169	H	0.977912	-0.798354	0.867155
H170	H	0.906862	-0.783679	0.766222
O171	O	0.997350	-0.752710	0.778271
C172	C	0.964991	-0.706900	0.894417
C173	C	1.037295	-0.734546	0.843461
H174	H	0.997261	-0.692199	0.947121
H175	H	0.918025	-0.730518	0.927571
H176	H	0.926157	-0.677489	0.846229
H177	H	1.076194	-0.763958	0.891590
H178	H	1.084201	-0.710897	0.810293
H179	H	1.073163	-0.542502	0.724506
O180	O	1.062997	-0.631123	0.731871
C181	C	1.030697	-0.691265	0.848128
C182	C	1.102966	-0.667275	0.797186
H183	H	1.062983	-0.720493	0.900958
H184	H	0.991915	-0.705811	0.800027
H185	H	0.983679	-0.665226	0.881151
H186	H	1.150043	-0.693287	0.764160
H187	H	1.141682	-0.652720	0.845327
O188	O	1.388101	-0.903511	0.503123
C189	C	1.518493	-0.911796	0.411274
C190	C	1.446138	-0.935726	0.462195
H191	H	1.565424	-0.937829	0.378154
H192	H	1.557356	-0.897307	0.459394
H193	H	1.486220	-0.882524	0.358521
H194	H	1.478338	-0.965016	0.514947
H195	H	1.407282	-0.950183	0.414019
H196	H	1.377726	-0.991984	0.510439
O197	O	0.997440	-0.985967	0.778352
C198	C	0.929021	-1.006555	0.919949
C199	C	1.001299	-0.982592	0.868961
H200	H	0.932105	-1.003826	0.993213
H201	H	0.940318	-1.044422	0.912099
H202	H	0.861083	-0.989129	0.892262
H203	H	1.069267	-0.999980	0.896614
H204	H	0.989924	-0.944725	0.876810
O205	O	1.138775	-0.396723	1.295168
C206	C	1.091328	-0.470818	1.315778
C207	C	1.161692	-0.441861	1.276190
H208	H	1.109840	-0.507321	1.300466
H209	H	1.023815	-0.454534	1.285565
H210	H	1.088266	-0.472042	1.390675
H211	H	1.164834	-0.440627	1.201295
H212	H	1.229169	-0.458156	1.306472
H213	H	1.007646	-0.897430	0.770907
H214	H	1.033052	-0.440134	0.957295
O215	O	0.994220	-0.456064	1.128770
C216	C	0.884718	-0.501131	1.099863
C217	C	0.955122	-0.472200	1.060279
H218	H	0.853101	-0.514193	1.044510
H219	H	0.831487	-0.478931	1.134755
H220	H	0.917497	-0.531718	1.149648
H221	H	0.922423	-0.441611	1.010459
H222	H	1.008347	-0.494433	1.025442
H223	H	1.261208	-0.346301	0.911345
