data_functionalizedCrystal
_audit_creation_method	'MofGen! by Chris Wilmer'
_symmetry_space_group_name_H-M	'P1'
_symmetry_Int_Tables_number	1
_symmetry_cell_setting	triclinic
loop_
_symmetry_equiv_pos_as_xyz
  x,y,z
_cell_length_a	14.971482
_cell_length_b	16.974885
_cell_length_c	15.455322
_cell_angle_alpha	96.310867
_cell_angle_beta	87.315739
_cell_angle_gamma	83.503967
loop_
_atom_site_label
_atom_site_type_symbol
_atom_site_fract_x
_atom_site_fract_y
_atom_site_fract_z
O1	O	1.190238	0.099907	-0.065109
O2	O	1.690238	0.599907	0.434891
O3	O	0.929761	0.112291	-0.064245
O4	O	1.429761	0.612291	0.435755
O5	O	1.067701	-0.009384	-0.072774
O6	O	1.567701	0.490616	0.427226
O7	O	1.052298	0.221582	-0.056580
O8	O	1.552298	0.721582	0.443420
O9	O	1.059812	-0.002454	0.071974
O10	O	1.559812	0.497546	0.571974
O11	O	0.921872	0.119221	0.080503
O12	O	1.421872	0.619221	0.580503
O13	O	1.182349	0.106837	0.079638
O14	O	1.682349	0.606837	0.579638
Cu15	Cu	1.051390	0.113661	0.093287
Cu16	Cu	1.551390	0.613661	0.593287
Cu17	Cu	1.060720	0.105466	-0.077894
Cu18	Cu	1.560720	0.605466	0.422106
O19	O	1.044409	0.228511	0.088168
O20	O	1.544409	0.728511	0.588168
C21	C	0.892495	0.115202	0.008090
C22	C	1.392495	0.615202	0.508090
C23	C	0.793208	0.113544	0.007972
C24	C	1.293208	0.613544	0.507972
C25	C	0.742268	0.116541	0.086820
C26	C	1.242268	0.616541	0.586820
C27	C	0.648979	0.114970	0.086711
C28	C	1.148979	0.614970	0.586711
C29	C	0.606631	0.110409	0.007753
C30	C	1.106631	0.610409	0.507753
C31	C	0.657579	0.107409	-0.071101
C32	C	1.157579	0.607409	0.428899
C33	C	0.750867	0.108974	-0.070992
C34	C	1.250867	0.608974	0.429008
C35	C	0.463137	0.104150	-0.071324
C36	C	0.963137	0.604150	0.428676
C37	C	0.369842	0.102586	-0.071434
C38	C	0.869842	0.602586	0.428566
C39	C	0.361250	0.110146	0.086378
C40	C	0.861250	0.610146	0.586378
C41	C	0.454537	0.111710	0.086488
C42	C	0.954537	0.611710	0.586488
C43	C	0.505478	0.108713	0.007633
C44	C	1.005478	0.608713	0.507633
C45	C	1.063317	-0.035477	-0.002475
C46	C	1.563317	0.464523	0.497525
C47	C	1.061997	-0.123550	-0.008656
C48	C	1.561997	0.376450	0.491344
C49	C	1.057074	-0.161157	0.067339
C50	C	1.557074	0.338843	0.567339
C51	C	1.055840	-0.243912	0.061523
C52	C	1.555840	0.256088	0.561523
C53	C	1.059522	-0.289058	-0.020287
C54	C	1.559522	0.210942	0.479713
C55	C	1.064448	-0.251446	-0.096287
C56	C	1.564448	0.248554	0.403713
C57	C	1.065688	-0.168693	-0.090471
C58	C	1.565688	0.331307	0.409529
C59	C	1.056279	-0.536958	-0.046142
C60	C	1.556279	-0.036958	0.453858
C61	C	1.055036	-0.619716	-0.051953
C62	C	1.555036	-0.119716	0.448047
C63	C	1.046430	-0.612176	0.105859
C64	C	1.546430	-0.112176	0.605859
C65	C	1.047666	-0.529422	0.111667
C66	C	1.547666	-0.029422	0.611667
C67	C	1.052596	-0.491817	0.035667
C68	C	1.552596	0.008183	0.535667
N69	N	1.058258	-0.373647	-0.026233
N70	N	1.558258	0.126353	0.473767
N71	N	1.053866	-0.407231	0.041614
N72	N	1.553866	0.092769	0.541614
C73	C	1.219615	0.103925	0.007302
C74	C	1.719615	0.603925	0.507302
C75	C	1.318902	0.105583	0.007414
C76	C	1.818902	0.605583	0.507414
C77	C	1.048793	0.254604	0.017866
C78	C	1.548793	0.754604	0.517866
C79	C	1.050114	0.342677	0.024042
C80	C	1.550114	0.842677	0.524042
N81	N	1.044835	0.119425	0.213687
N82	N	1.544835	0.619425	0.713687
C83	C	1.103456	0.067753	0.255459
C84	C	1.603456	0.567753	0.755459
C85	C	1.098507	0.072119	0.346573
C86	C	1.598507	0.572119	0.846573
C87	C	1.034940	0.128162	0.395914
C88	C	1.534940	0.628162	0.895914
C89	C	0.976312	0.179836	0.354136
C90	C	1.476312	0.679836	0.854136
C91	C	0.981258	0.175466	0.263023
C92	C	1.481258	0.675466	0.763023
C93	C	1.013593	0.147005	0.668816
C94	C	1.513593	0.647005	1.168816
C95	C	1.008653	0.151373	0.759935
C96	C	1.508653	0.651373	1.259935
C97	C	1.130848	0.043654	0.752366
C98	C	1.630848	0.543654	1.252366
C99	C	1.135792	0.039291	0.661252
C100	C	1.635792	0.539291	1.161252
C101	C	1.077161	0.090963	0.619482
C102	C	1.577161	0.590963	1.119482
N103	N	1.029881	0.132628	0.489047
N104	N	1.529881	0.632628	0.989047
N105	N	1.082216	0.086493	0.526350
N106	N	1.582216	0.586493	1.026350
N107	N	1.067275	0.099700	0.801707
N108	N	1.567275	0.599700	1.301707
H109	H	0.504610	0.101709	-0.135536
H110	H	1.004610	0.601709	0.364464
H111	H	1.155223	0.022120	0.215291
H112	H	1.655223	0.522120	0.715291
H113	H	1.054061	-0.124403	0.133958
H114	H	1.554061	0.375597	0.633958
H115	H	0.924549	0.225465	0.394314
H116	H	1.424549	0.725465	0.894314
H117	H	0.607510	0.117397	0.150916
H118	H	1.107510	0.617397	0.650916
Br119	Br	1.222065	-0.036764	0.594288
Br120	Br	1.722065	0.463236	1.094288
Br121	Br	1.210413	-0.026470	0.809057
Br122	Br	1.710413	0.473530	1.309057
H123	H	1.042418	-0.642803	0.167733
H124	H	1.542418	-0.142803	0.667733
Br125	Br	1.049160	-0.294947	0.164664
Br126	Br	1.549160	0.205053	0.664664
Br127	Br	1.062968	-0.485934	-0.149286
Br128	Br	1.562968	0.014066	0.350714
Br129	Br	0.922379	0.227442	0.826893
Br130	Br	1.422379	0.727442	1.326893
Br131	Br	0.600113	0.101184	-0.178263
Br132	Br	1.100113	0.601184	0.321737
Br133	Br	0.934027	0.217130	0.612132
Br134	Br	1.434027	0.717130	1.112132
Br135	Br	1.042639	-0.468153	0.222700
Br136	Br	1.542639	0.031847	0.722700
Br137	Br	0.799729	0.122740	0.193984
Br138	Br	1.299729	0.622740	0.693984
Br139	Br	1.069460	-0.312717	-0.207317
Br140	Br	1.569460	0.187283	0.292683
H141	H	0.933521	0.217542	0.229013
H142	H	1.433521	0.717542	0.729013
Br143	Br	1.072377	-0.117656	-0.193611
Br144	Br	1.572377	0.382344	0.306389
Br145	Br	1.060024	-0.680985	-0.162989
Br146	Br	1.560024	-0.180985	0.337011
Br147	Br	0.312370	0.096396	-0.178592
Br148	Br	0.812370	0.596396	0.321408
Br149	Br	1.178063	0.001988	0.403266
Br150	Br	1.678063	0.501988	0.903266
H151	H	0.489013	0.115430	0.150783
H152	H	0.989013	0.615430	0.650783
H153	H	0.319769	0.112587	0.150585
H154	H	0.819769	0.612587	0.650585
Br155	Br	0.820002	0.104900	-0.178005
Br156	Br	1.320002	0.604900	0.321995
