data_functionalizedCrystal
_audit_creation_method	'MofGen! by Chris Wilmer'
_symmetry_space_group_name_H-M	'P1'
_symmetry_Int_Tables_number	1
_symmetry_cell_setting	triclinic
loop_
_symmetry_equiv_pos_as_xyz
  x,y,z
_cell_length_a	13.033293
_cell_length_b	18.050590
_cell_length_c	13.034356
_cell_angle_alpha	82.786790
_cell_angle_beta	76.646206
_cell_angle_gamma	97.187921
loop_
_atom_site_label
_atom_site_type_symbol
_atom_site_fract_x
_atom_site_fract_y
_atom_site_fract_z
Zn1	Zn	1.700360	-0.069437	-0.807217
Zn2	Zn	1.677668	-0.211727	-0.629570
Zn3	Zn	1.500144	-0.105599	-0.607006
Zn4	Zn	1.522683	-0.211657	-0.784552
O5	O	1.600214	-0.149605	-0.707086
O6	O	1.846003	-0.073208	-0.802580
O7	O	1.635190	-0.212812	-0.477927
O8	O	1.526767	0.003132	-0.633608
O9	O	1.829332	-0.177747	-0.672063
O10	O	1.673865	0.029700	-0.780702
O11	O	1.504763	-0.134841	-0.461350
O12	O	1.354480	-0.134773	-0.611629
O13	O	1.565181	-0.177628	-0.936208
O14	O	1.371039	-0.212693	-0.742071
O15	O	1.695720	-0.073140	-0.952860
O16	O	1.657045	-0.315652	-0.650085
O17	O	1.543178	-0.315601	-0.763950
C18	C	1.324216	-0.177650	-0.671943
C19	C	1.206146	-0.189663	-0.656934
C20	C	1.161768	-0.143354	-0.714919
C21	C	1.039737	-0.155769	-0.699408
C22	C	1.600127	-0.342570	-0.707033
C23	C	1.600191	-0.425108	-0.707059
C24	C	1.662272	-0.624534	-0.645257
C25	C	1.700544	-0.661359	-0.745505
C26	C	1.600257	-0.576228	-0.707109
C27	C	1.562099	-0.686469	-0.606918
C28	C	1.600321	-0.722203	-0.707149
C29	C	1.638585	-0.611955	-0.807414
C30	C	1.500086	-0.637071	-0.668756
C31	C	1.538329	-0.673871	-0.769066
C32	C	1.600222	-0.492135	-0.707085
C33	C	1.600357	-0.806293	-0.707184
C34	C	1.877289	-0.121451	-0.742367
C35	C	1.995362	-0.109454	-0.757402
C36	C	1.635496	-0.121342	-0.984155
C37	C	1.650531	-0.109298	-1.102225
C38	C	1.600333	0.044118	-0.707166
C39	C	1.600384	0.126672	-0.707200
C40	C	1.608183	-0.143184	-1.268657
C41	C	1.592641	-0.155633	-1.146625
C42	C	1.565130	-0.177698	-0.431103
C43	C	1.550300	-0.189512	-0.313060
H44	H	1.714745	-0.602855	-0.593015
H45	H	0.987390	-0.204609	-0.638275
C46	C	1.690670	-0.077149	-1.339337
H47	H	1.690289	-0.077442	-1.412084
H48	H	1.759746	-0.082598	-1.330292
H49	H	1.672850	-0.030662	-1.319248
C50	C	1.467808	-0.255544	-1.242379
H51	H	1.468178	-0.255245	-1.169631
H52	H	1.485611	-0.302032	-1.262465
H53	H	1.398730	-0.250084	-1.251424
C54	C	1.135441	-0.255640	-0.574353
H55	H	1.179107	-0.283081	-0.539979
H56	H	1.097325	-0.288277	-0.609440
H57	H	1.086280	-0.236262	-0.522674
C58	C	1.232478	-0.077378	-0.797500
H59	H	1.305221	-0.077693	-0.797097
H60	H	1.212397	-0.030866	-0.779799
H61	H	1.223449	-0.082883	-0.866561
C62	C	1.815016	-0.676336	-0.789358
H63	H	1.858969	-0.659461	-0.745320
H64	H	1.842573	-0.649781	-0.860121
H65	H	1.814128	-0.729014	-0.789662
C66	C	1.733039	-0.043269	-1.172902
H67	H	1.732664	-0.043562	-1.245649
H68	H	1.802108	-0.048730	-1.163847
H69	H	1.715234	0.003225	-1.152821
C70	C	1.510144	-0.221668	-1.075947
H71	H	1.510514	-0.221369	-1.003199
H72	H	1.527947	-0.268156	-1.096033
H73	H	1.441066	-0.216207	-1.084992
H74	H	1.670812	-0.579735	-0.892222
C75	C	1.066067	-0.043477	-0.839991
H76	H	1.138812	-0.043790	-0.839591
H77	H	1.045988	0.003037	-0.822294
H78	H	1.057035	-0.048985	-0.909051
H79	H	1.529799	-0.718781	-0.522171
C80	C	1.467529	-0.702957	-0.839833
H81	H	1.411122	-0.740850	-0.797791
H82	H	1.509308	-0.723748	-0.895591
H83	H	1.438465	-0.662213	-0.869764
C84	C	1.385640	-0.622070	-0.624869
H85	H	1.358601	-0.647865	-0.553622
H86	H	1.341341	-0.639790	-0.668092
H87	H	1.386378	-0.569295	-0.625790
