data_functionalizedCrystal
_audit_creation_method	'MofGen! by Chris Wilmer'
_symmetry_space_group_name_H-M	'P1'
_symmetry_Int_Tables_number	1
_symmetry_cell_setting	triclinic
loop_
_symmetry_equiv_pos_as_xyz
  x,y,z
_cell_length_a	16.109302
_cell_length_b	12.784890
_cell_length_c	14.586319
_cell_angle_alpha	89.996491
_cell_angle_beta	89.994552
_cell_angle_gamma	78.284169
loop_
_atom_site_label
_atom_site_type_symbol
_atom_site_fract_x
_atom_site_fract_y
_atom_site_fract_z
O1	O	1.093281	0.136628	-0.076280
O2	O	1.593281	0.636628	0.423720
O3	O	0.849994	0.153630	-0.076273
O4	O	1.349994	0.653630	0.423727
O5	O	0.989442	-0.009605	-0.076272
O6	O	1.489442	0.490395	0.423728
O7	O	0.953834	0.299863	-0.076280
O8	O	1.453834	0.799863	0.423720
O9	O	0.989433	-0.009607	0.076209
O10	O	1.489433	0.490393	0.576209
O11	O	0.849985	0.153628	0.076208
O12	O	1.349985	0.653628	0.576208
O13	O	1.093273	0.136626	0.076201
O14	O	1.593273	0.636626	0.576201
Cu15	Cu	0.971628	0.145127	0.090127
Cu16	Cu	1.471628	0.645127	0.590127
Cu17	Cu	0.971638	0.145130	-0.090199
Cu18	Cu	1.471638	0.645130	0.409801
O19	O	0.953825	0.299861	0.076200
O20	O	1.453825	0.799861	0.576200
C21	C	0.819064	0.152940	-0.000031
C22	C	1.319064	0.652940	0.499969
C23	C	0.726918	0.150875	-0.000028
C24	C	1.226918	0.650875	0.499972
C25	C	0.514916	0.146098	0.083080
C26	C	1.014916	0.646098	0.583080
C27	C	0.428337	0.144147	0.083077
C28	C	0.928337	0.644147	0.583077
C29	C	0.428357	0.144155	-0.083166
C30	C	0.928357	0.644155	0.416834
C31	C	0.514936	0.146099	-0.083162
C32	C	1.014936	0.646099	0.416838
C33	C	0.558212	0.147076	-0.000036
C34	C	1.058212	0.647076	0.499964
C35	C	0.385054	0.143180	-0.000044
C36	C	0.885054	0.643180	0.499956
C37	C	0.291181	0.141064	-0.000048
C38	C	0.791181	0.641064	0.499952
C39	C	0.652092	0.149191	-0.000032
C40	C	1.152092	0.649191	0.499968
C41	C	0.991753	-0.049206	-0.000033
C42	C	1.491753	0.450794	0.499967
C43	C	0.998644	-0.167203	-0.000035
C44	C	1.498644	0.332797	0.499965
C45	C	1.085005	-0.346209	-0.000039
C46	C	1.585005	0.153791	0.499961
C47	C	1.078536	-0.235341	-0.000037
C48	C	1.578536	0.264659	0.499963
C49	C	0.925216	-0.209938	-0.000032
C50	C	1.425216	0.290062	0.499968
C51	C	0.931685	-0.320805	-0.000034
C52	C	1.431685	0.179195	0.499966
C53	C	1.011582	-0.388937	-0.000039
C54	C	1.511582	0.111063	0.499961
C55	C	1.018051	-0.499806	-0.000048
C56	C	1.518051	0.000194	0.499952
C57	C	0.864731	-0.474401	-0.000036
C58	C	1.364731	0.025599	0.499964
C59	C	0.858262	-0.363533	-0.000034
C60	C	1.358262	0.136467	0.499966
C61	C	1.124202	0.137316	-0.000043
C62	C	1.624202	0.637316	0.499957
C63	C	1.216349	0.139381	-0.000051
C64	C	1.716349	0.639381	0.499949
C65	C	0.951513	0.339462	-0.000041
C66	C	1.451513	0.839462	0.499959
C67	C	0.944622	0.457459	-0.000045
C68	C	1.444622	0.957459	0.499955
N69	N	0.971627	0.145124	0.216959
N70	N	1.471627	0.645124	0.716959
N71	N	0.971647	0.145124	-0.217031
N72	N	1.471647	0.645124	0.282969
C73	C	1.033391	0.072868	0.451966
C74	C	1.533391	0.572868	0.951966
C75	C	1.033394	0.072865	0.547947
C76	C	1.533394	0.572865	1.047947
C77	C	0.909876	0.217383	0.547956
C78	C	1.409876	0.717383	1.047956
C79	C	0.909870	0.217380	0.451976
C80	C	1.409870	0.717380	0.951976
C81	C	0.971633	0.145124	0.403984
C82	C	1.471633	0.645124	0.903984
C83	C	0.971641	0.145124	0.595944
C84	C	1.471641	0.645124	1.095944
C85	C	0.971643	0.145122	0.700012
C86	C	1.471643	0.645122	1.200012
C87	C	0.971630	0.145124	0.299910
C88	C	1.471630	0.645124	0.799910
H89	H	1.083107	-0.555278	-0.000057
H90	H	1.583107	-0.055278	0.499943
H91	H	0.859591	0.276215	0.587041
H92	H	1.359591	0.776215	1.087041
O93	O	0.386178	0.143259	-0.163828
O94	O	0.886178	0.643259	0.336172
C95	C	0.252817	0.140210	-0.237513
C96	C	0.752817	0.640210	0.262487
C97	C	0.300475	0.141243	-0.146096
C98	C	0.800475	0.641243	0.353904
H99	H	0.183522	0.138557	-0.223208
H100	H	0.683522	0.638557	0.276792
H101	H	0.256797	0.214953	-0.278513
H102	H	0.756797	0.714953	0.221487
H103	H	0.282875	0.066271	-0.278502
H104	H	0.782875	0.566271	0.221498
H105	H	0.270451	0.215132	-0.105033
H106	H	0.770451	0.715132	0.394967
H107	H	0.296500	0.066451	-0.105166
H108	H	0.796500	0.566451	0.394834
H109	H	0.550189	0.146892	-0.150849
H110	H	1.050189	0.646892	0.349151
O111	O	1.162678	-0.412246	-0.000011
O112	O	1.662678	0.087754	0.499989
C113	C	1.314068	-0.425747	-0.000091
C114	C	1.814068	0.074253	0.499909
C115	C	1.226156	-0.350840	-0.000099
C116	C	1.726156	0.149160	0.499901
H117	H	1.365414	-0.376131	-0.000182
H118	H	1.865414	0.123869	0.499818
H119	H	1.320989	-0.478275	0.063734
H120	H	1.820989	0.021725	0.563734
H121	H	1.320879	-0.478300	-0.063892
H122	H	1.820879	0.021700	0.436108
H123	H	1.219285	-0.298220	0.063658
H124	H	1.719285	0.201780	0.563658
H125	H	1.219274	-0.298384	-0.063967
H126	H	1.719274	0.201616	0.436033
H127	H	1.138324	-0.200557	-0.000035
H128	H	1.638324	0.299443	0.499965
H129	H	0.860168	-0.154446	-0.000022
H130	H	1.360168	0.345554	0.499978
H131	H	1.083681	0.014031	0.412892
H132	H	1.583681	0.514031	0.912892
O133	O	0.386399	0.143251	0.163898
O134	O	0.886399	0.643251	0.663898
C135	C	0.395533	0.143389	0.328788
C136	C	0.895533	0.643389	0.828788
C137	C	0.443125	0.144433	0.237321
C138	C	0.943125	0.644433	0.737321
H139	H	0.441378	0.144322	0.388174
H140	H	0.941378	0.644322	0.888174
H141	H	0.342030	0.216836	0.333005
H142	H	0.842030	0.716836	0.833005
H143	H	0.367960	0.068151	0.332895
H144	H	0.867960	0.568151	0.832895
H145	H	0.470750	0.219622	0.233153
H146	H	0.970750	0.719622	0.733153
H147	H	0.496583	0.070936	0.233143
H148	H	0.996583	0.570936	0.733143
O149	O	1.093281	0.002573	0.594597
O150	O	1.593281	0.502573	1.094597
C151	C	1.121484	-0.142546	0.703004
C152	C	1.621484	0.357454	1.203004
C153	C	1.053574	-0.063013	0.650215
C154	C	1.553574	0.436987	1.150215
H155	H	1.089405	-0.195578	0.747999
H156	H	1.589405	0.304422	1.247999
H157	H	1.165617	-0.194265	0.652254
H158	H	1.665617	0.305735	1.152254
H159	H	1.159709	-0.096617	0.747890
H160	H	1.659709	0.403383	1.247890
H161	H	1.015287	-0.108856	0.605328
H162	H	1.515287	0.391144	1.105328
H163	H	1.009499	-0.011295	0.701015
H164	H	1.509499	0.488705	1.201015
H165	H	0.859575	0.276220	0.412907
H166	H	1.359575	0.776220	0.912907
H167	H	0.804945	-0.509201	-0.000039
H168	H	1.304945	-0.009201	0.499961
O169	O	0.557074	0.146896	0.163766
O170	O	1.057074	0.646896	0.663766
C171	C	0.670855	0.057015	0.260272
C172	C	1.170855	0.557015	0.760272
C173	C	0.623201	0.055997	0.168852
C174	C	1.123201	0.555997	0.668852
H175	H	0.724316	-0.016480	0.264422
H176	H	1.224316	0.483520	0.764422
H177	H	0.698468	0.132217	0.264449
H178	H	1.198468	0.632217	0.764449
H179	H	0.625010	0.056029	0.319661
H180	H	1.125010	0.556029	0.819661
H181	H	0.668992	0.056944	0.109411
H182	H	1.168992	0.556944	0.609411
H183	H	0.595573	-0.019199	0.164755
H184	H	1.095573	0.480801	0.664755
H185	H	0.793212	-0.308046	-0.000027
H186	H	1.293212	0.191954	0.499973
