data_functionalizedCrystal
_audit_creation_method	'MofGen! by Chris Wilmer'
_symmetry_space_group_name_H-M	'P1'
_symmetry_Int_Tables_number	1
_symmetry_cell_setting	triclinic
loop_
_symmetry_equiv_pos_as_xyz
  x,y,z
_cell_length_a	19.077260
_cell_length_b	19.077236
_cell_length_c	19.077271
_cell_angle_alpha	90.102669
_cell_angle_beta	94.499739
_cell_angle_gamma	85.317177
loop_
_atom_site_label
_atom_site_type_symbol
_atom_site_fract_x
_atom_site_fract_y
_atom_site_fract_z
Zn1	Zn	0.256430	1.047611	0.450455
Zn2	Zn	0.369553	1.047597	0.337325
Zn3	Zn	0.256026	0.934866	0.328221
Zn4	Zn	0.379003	0.925005	0.450427
O5	O	0.315253	0.988769	0.391607
O6	O	0.267649	1.146098	0.439270
O7	O	0.350369	1.036764	0.237628
O8	O	0.157271	0.953954	0.340637
O9	O	0.350760	1.146088	0.356153
O10	O	0.157568	1.036787	0.430443
O11	O	0.266962	0.953941	0.230939
O12	O	0.276126	0.835068	0.340610
O13	O	0.366867	0.937147	0.548921
O14	O	0.366476	0.827823	0.430395
O15	O	0.276813	1.027226	0.548941
O16	O	0.469615	1.027202	0.356126
O17	O	0.476558	0.937134	0.439222
C18	C	0.322283	0.805908	0.384512
C19	C	0.325309	0.727678	0.381494
C20	C	0.131083	0.996472	0.384528
C21	C	0.052601	0.999755	0.381511
C22	C	0.283533	0.690926	0.423422
C23	C	0.286372	0.617420	0.420580
C24	C	0.330991	0.580669	0.375813
C25	C	0.372768	0.617427	0.333881
C26	C	0.369925	0.690931	0.336719
C27	C	0.344122	0.360835	0.362672
C28	C	0.346964	0.287326	0.359838
C29	C	0.260567	0.287325	0.446537
C30	C	0.257731	0.360830	0.449375
C31	C	0.299505	0.397582	0.407439
N32	N	0.333895	0.505535	0.372909
N33	N	0.296596	0.472715	0.410340
C34	C	0.019347	0.954402	0.423354
C35	C	-0.054396	0.957489	0.420521
C36	C	-0.094883	1.005924	0.375840
C37	C	-0.061623	1.051282	0.333994
C38	C	0.012118	1.048198	0.336832
C39	C	-0.315813	1.020178	0.362717
C40	C	-0.389559	1.023256	0.359881
C41	C	-0.382326	0.929464	0.446409
C42	C	-0.308584	0.926382	0.449240
C43	C	-0.275331	0.971741	0.407397
N44	N	-0.170259	1.009079	0.372941
N45	N	-0.199956	0.968590	0.410300
C46	C	0.498706	0.981115	0.398675
C47	C	0.577187	0.977904	0.401725
C48	C	0.322939	0.981088	0.575182
C49	C	0.326215	0.977815	0.653411
C50	C	0.308196	1.172344	0.398730
C51	C	0.305188	1.250573	0.401766
C52	C	0.280870	1.023173	0.690175
C53	C	0.283945	1.020089	0.763679
C54	C	0.332370	0.971650	0.800417
C55	C	0.377717	0.926286	0.763648
C56	C	0.374638	0.929367	0.690146
C57	C	0.346604	0.957402	1.020246
C58	C	0.349681	0.954326	1.093754
C59	C	0.255908	1.048129	1.093779
C60	C	0.252836	1.051209	1.020275
C61	C	0.298180	1.005843	0.983512
N62	N	0.335516	0.968497	0.875550
N63	N	0.295030	1.008992	0.908380
C64	C	0.307612	0.996414	1.208746
C65	C	0.304336	0.999685	1.130517
H66	H	0.247202	0.720843	0.459878
C67	C	0.396484	0.907508	0.979813
H68	H	0.387713	0.916272	0.930775
H69	H	0.444034	0.915320	0.994083
H70	H	0.388469	0.860145	0.989626
C71	C	0.430984	0.873002	0.804056
H72	H	0.457545	0.846425	0.771631
H73	H	0.461916	0.897436	0.834957
H74	H	0.406350	0.842262	0.830499
H75	H	0.389116	0.914878	1.123664
H76	H	0.221400	0.390748	0.485831
H77	H	0.378139	0.390750	0.328526
H78	H	0.403942	0.720854	0.302576
H79	H	0.383301	0.257405	0.323383
H80	H	0.241439	1.062621	0.660267
C81	C	0.234068	1.069987	0.804116
H82	H	0.204794	1.099284	0.771709
H83	H	0.205536	1.043153	0.830561
H84	H	0.261108	1.098322	0.835019
C85	C	-0.279241	1.070049	0.316671
H86	H	-0.229524	1.061279	0.324757
H87	H	-0.292917	1.062216	0.268523
H88	H	-0.292708	1.117420	0.328330
C89	C	0.214616	0.246900	0.492660
H90	H	0.187640	0.279316	0.519731
H91	H	0.183792	0.220625	0.463496
H92	H	0.244070	0.215827	0.523221
C93	C	0.199569	1.104493	0.979867
H94	H	0.172999	1.131063	1.012290
H95	H	0.224202	1.135229	0.953425
H96	H	0.168634	1.080056	0.948964
C97	C	0.424534	0.879489	0.649707
H98	H	0.453825	0.850208	0.682114
H99	H	0.397516	0.851150	0.618795
H100	H	0.453061	0.906346	0.623271
H101	H	-0.094592	1.090723	0.297617
C102	C	0.240420	0.576995	0.466703
H103	H	0.213447	0.609410	0.493777
H104	H	0.209595	0.550724	0.437537
H105	H	0.269874	0.545919	0.497261
H106	H	0.052306	0.914961	0.459739
C107	C	0.421848	0.577002	0.284639
H108	H	0.417565	0.527961	0.288958
H109	H	0.408998	0.591449	0.237431
H110	H	0.469270	0.586650	0.297162
C111	C	-0.090972	0.907593	0.466540
H112	H	-0.056299	0.878297	0.493548
H113	H	-0.119493	0.934426	0.497148
H114	H	-0.119683	0.879258	0.437308
H115	H	-0.275624	0.886932	0.485615
C116	C	0.048697	1.098083	0.290801
H117	H	0.014025	1.127367	0.263779
H118	H	0.077411	1.126419	0.320020
H119	H	0.077215	1.071236	0.260195
H120	H	-0.409407	0.892535	0.480476
H121	H	0.218990	1.085062	1.123719
H122	H	-0.422521	1.062701	0.323494
