data_functionalizedCrystal
_audit_creation_method	'MofGen! by Chris Wilmer'
_symmetry_space_group_name_H-M	'P1'
_symmetry_Int_Tables_number	1
_symmetry_cell_setting	triclinic
loop_
_symmetry_equiv_pos_as_xyz
  x,y,z
_cell_length_a	16.974867
_cell_length_b	16.992695
_cell_length_c	12.996460
_cell_angle_alpha	90.006597
_cell_angle_beta	86.355417
_cell_angle_gamma	92.977729
loop_
_atom_site_label
_atom_site_type_symbol
_atom_site_fract_x
_atom_site_fract_y
_atom_site_fract_z
O1	O	-1.055448	0.099893	0.002234
O2	O	-0.826049	0.112628	-0.016846
O3	O	-0.939829	-0.007882	-0.007391
O4	O	-0.941668	0.220402	-0.007221
O5	O	-0.939813	-0.007874	0.163741
O6	O	-0.826033	0.112636	0.154286
O7	O	-1.055431	0.099901	0.173367
Cu8	Cu	-0.940731	0.106269	0.179452
Cu9	Cu	-0.940750	0.106259	-0.022932
O10	O	-0.941652	0.220410	0.163912
C11	C	-0.796552	0.112148	0.066267
C12	C	-0.708685	0.110699	0.058958
C13	C	-0.214090	0.102514	0.007730
C14	C	-0.296650	0.103876	0.014612
C15	C	-0.337913	0.104567	0.111338
C16	C	-0.296612	0.103888	0.201188
C17	C	-0.214054	0.102520	0.194306
C18	C	-0.584826	0.108652	0.141925
C19	C	-0.667390	0.110022	0.148801
C20	C	-0.667422	0.110009	-0.037776
C21	C	-0.584862	0.108646	-0.044650
C22	C	-0.543568	0.107963	0.045200
N23	N	-0.422303	0.105961	0.118374
N24	N	-0.459180	0.106563	0.038163
C25	C	-0.937455	-0.037088	0.077973
C26	C	-0.930395	-0.124124	0.077373
N27	N	-0.940723	0.106275	0.321799
C28	C	-0.084928	0.100382	0.090256
C29	C	-0.172795	0.101837	0.097574
C30	C	-0.944026	0.249616	0.078545
C31	C	-0.951085	0.336652	0.079139
C32	C	-0.882971	0.386968	0.073473
C33	C	-0.889609	0.468747	0.074012
C34	C	-0.964362	0.500209	0.080224
C35	C	-1.032481	0.449886	0.085888
C36	C	-1.025843	0.368109	0.085341
C37	C	-0.991876	0.743776	0.082490
C38	C	-0.998509	0.825560	0.083039
C39	C	-0.855636	0.844415	0.071161
C40	C	-0.849004	0.762635	0.070621
C41	C	-0.917124	0.712320	0.076279
N42	N	-0.971148	0.583800	0.080779
N43	N	-0.910336	0.628730	0.075717
C44	C	-0.940726	0.106277	0.414905
C45	C	-0.940733	0.106273	0.531711
C46	C	-0.940742	0.106265	0.624810
C47	C	-0.940749	0.106261	0.741623
N48	N	-0.940758	0.106253	0.834722
H49	H	-0.701052	0.110564	-0.110927
H50	H	-0.788132	0.737026	0.065550
O51	O	-1.065351	0.689522	0.088605
H52	H	-1.065762	0.651809	0.018884
H53	H	-0.834142	0.509712	0.069395
O54	O	-1.113111	0.483814	0.092588
H55	H	-1.106285	0.549132	0.092028
H56	H	-0.180499	0.101956	-0.071035
H57	H	-1.059385	0.851172	0.088099
O58	O	-1.099308	0.313833	0.091462
H59	H	-1.152404	0.349447	0.095886
H60	H	-0.800177	0.885390	0.066553
H61	H	-0.330270	0.104422	-0.058548
O62	O	-0.540362	0.107900	-0.148980
H63	H	-0.476016	0.106844	-0.138671
H64	H	-0.700984	0.110591	0.227571
H65	H	-0.180432	0.101978	0.267466
H66	H	-0.330216	0.104446	0.279945
O67	O	-0.540290	0.107929	0.238830
H68	H	-0.582855	0.108651	0.307242
H69	H	-0.822099	0.361359	0.068426
