data_functionalizedCrystal
_audit_creation_method	'MofGen! by Chris Wilmer'
_symmetry_space_group_name_H-M	'P1'
_symmetry_Int_Tables_number	1
_symmetry_cell_setting	triclinic
loop_
_symmetry_equiv_pos_as_xyz
  x,y,z
_cell_length_a	11.169417
_cell_length_b	19.120786
_cell_length_c	11.169409
_cell_angle_alpha	92.479283
_cell_angle_beta	90.019824
_cell_angle_gamma	92.466141
loop_
_atom_site_label
_atom_site_type_symbol
_atom_site_fract_x
_atom_site_fract_y
_atom_site_fract_z
Zn1	Zn	1.814456	-0.279559	0.658103
Zn2	Zn	1.805728	-0.397041	0.448830
Zn3	Zn	1.613739	-0.279602	0.457434
Zn4	Zn	1.605136	-0.396983	0.649479
O5	O	1.709765	-0.338296	0.553462
O6	O	1.981248	-0.295149	0.630351
O7	O	1.780208	-0.381504	0.282019
O8	O	1.647618	-0.181305	0.491263
O9	O	1.974835	-0.381462	0.476599
O10	O	1.795084	-0.181274	0.638694
O11	O	1.639154	-0.295222	0.288340
O12	O	1.444649	-0.295167	0.482901
O13	O	1.632956	-0.381365	0.818576
O14	O	1.438328	-0.381407	0.623996
O15	O	1.786742	-0.295094	0.824912
O16	O	1.771866	-0.495324	0.468237
O17	O	1.624492	-0.495282	0.615653
C18	C	1.397941	-0.338286	0.553447
C19	C	1.264540	-0.338298	0.553468
C20	C	1.696331	-0.520789	0.540102
C21	C	1.690694	-0.598860	0.534427
C22	C	1.764766	-0.635461	0.608582
C23	C	1.759465	-0.708817	0.603251
C24	C	1.680096	-0.745571	0.523759
C25	C	1.606016	-0.708965	0.449601
C26	C	1.611312	-0.635610	0.454938
C27	C	1.660261	-0.967059	0.503806
C28	C	1.654973	-1.040419	0.498471
C29	C	1.808420	-1.040266	0.652125
C30	C	1.813715	-0.966910	0.657450
C31	C	1.739630	-0.930310	0.583296
C32	C	1.674678	-0.820553	0.518306
C33	C	1.745043	-0.855330	0.588756
C34	C	2.022806	-0.338307	0.553477
C35	C	2.156206	-0.338312	0.553484
C36	C	1.709863	-0.338218	0.866510
C37	C	1.709904	-0.338185	0.999913
C38	C	1.723284	-0.155091	0.566900
C39	C	1.729045	-0.077020	0.572627
C40	C	1.709740	-0.338323	0.241635
C41	C	1.709945	-0.338159	0.108248
H42	H	1.829402	-0.605541	0.673308
C43	C	1.578737	-0.926808	0.422261
N44	N	1.517319	-0.896489	0.360848
H45	H	1.550993	-0.605810	0.394554
C46	C	1.889900	-1.080532	0.733696
N47	N	1.951269	-1.110861	0.795144
H48	H	1.819791	-0.738615	0.663627
C49	C	1.901048	-0.926487	0.744876
N50	N	1.966840	-0.896040	0.810716
C51	C	1.518782	-0.749396	0.362085
N52	N	1.453106	-0.779849	0.296136
C53	C	1.567652	-1.080846	0.411024
N54	N	1.501886	-1.111296	0.345162
C55	C	1.832349	-0.814899	0.676193
N56	N	1.898112	-0.784440	0.742046
H57	H	1.610059	-0.850486	0.453579
