data_functionalizedCrystal
_audit_creation_method	'MofGen! by Chris Wilmer'
_symmetry_space_group_name_H-M	'P1'
_symmetry_Int_Tables_number	1
_symmetry_cell_setting	triclinic
loop_
_symmetry_equiv_pos_as_xyz
  x,y,z
_cell_length_a	17.077404
_cell_length_b	10.686285
_cell_length_c	17.077395
_cell_angle_alpha	85.609671
_cell_angle_beta	89.985498
_cell_angle_gamma	85.629649
loop_
_atom_site_label
_atom_site_type_symbol
_atom_site_fract_x
_atom_site_fract_y
_atom_site_fract_z
Zn1	Zn	1.224091	-0.502431	-0.419906
Zn2	Zn	1.234114	-0.713447	-0.278597
Zn3	Zn	1.092833	-0.502463	-0.288655
Zn4	Zn	1.102894	-0.713368	-0.409827
O5	O	1.163483	-0.607927	-0.349246
O6	O	1.335268	-0.530443	-0.401170
O7	O	1.215357	-0.685505	-0.170082
O8	O	1.101839	-0.325883	-0.314493
O9	O	1.342632	-0.685475	-0.297350
O10	O	1.198273	-0.325860	-0.410923
O11	O	1.111558	-0.530496	-0.177472
O12	O	0.984320	-0.530420	-0.304720
O13	O	1.118987	-0.685341	-0.521013
O14	O	0.991712	-0.685371	-0.393744
O15	O	1.208030	-0.530367	-0.528418
O16	O	1.225113	-0.890012	-0.287577
O17	O	1.128706	-0.889954	-0.383991
C18	C	0.959533	-0.607891	-0.349230
C19	C	0.872284	-0.607907	-0.349241
C20	C	0.827467	-0.527325	-0.403369
C21	C	0.745487	-0.527333	-0.403372
C22	C	0.708326	-0.607930	-0.349250
C23	C	0.753149	-0.688515	-0.295116
C24	C	0.835127	-0.688500	-0.295110
C25	C	0.582280	-0.688544	-0.295134
C26	C	0.500296	-0.688562	-0.295141
C27	C	0.492640	-0.527377	-0.403397
C28	C	0.574618	-0.527362	-0.403390
C29	C	0.619436	-0.607949	-0.349257
C30	C	1.179110	-0.935767	-0.333616
C31	C	1.185868	-1.076019	-0.326956
C32	C	1.368229	-0.607964	-0.349262
C33	C	1.455479	-0.607980	-0.349269
C34	C	1.163512	-0.607842	-0.553995
C35	C	1.163525	-0.607805	-0.641246
C36	C	1.147816	-0.278807	-0.364954
C37	C	1.141139	-0.138556	-0.371648
C38	C	1.209968	-0.526939	-1.020926
C39	C	1.209954	-0.526983	-0.938943
C40	C	1.163584	-0.607686	-0.894101
C41	C	1.117230	-0.688359	-0.931244
C42	C	1.117249	-0.688320	-1.013225
C43	C	1.117193	-0.688432	-0.760371
C44	C	1.117173	-0.688469	-0.678384
C45	C	1.209899	-0.527095	-0.686089
C46	C	1.209917	-0.527056	-0.768070
C47	C	1.163562	-0.607727	-0.805208
C48	C	1.163494	-0.607922	-0.145299
C49	C	1.163617	-0.607603	-0.058064
H50	H	0.871616	-0.754117	-0.251032
H51	H	0.722885	-0.754133	-0.251045
F52	F	1.067881	-0.774252	-0.883517
H53	H	0.709000	-0.461718	-0.447451
H54	H	1.097677	-1.084801	-0.415008
H55	H	1.229328	-1.129781	-0.283588
H56	H	1.247641	-0.461406	-0.655847
F57	F	0.614167	-0.441591	-0.460999
H58	H	1.079506	-0.754006	-1.043462
F59	F	1.259315	-0.441030	-1.068644
F60	F	0.444942	-0.441607	-0.461008
H61	H	1.079449	-0.754127	-0.790606
H62	H	0.470042	-0.754192	-0.251070
F63	F	1.259289	-0.441130	-0.899422
H64	H	1.079395	-0.754155	-0.641877
F65	F	0.867010	-0.441546	-0.460978
F66	F	0.629977	-0.774320	-0.237522
H67	H	1.247673	-0.461335	-0.804579
