data_functionalizedCrystal
_audit_creation_method	'MofGen! by Chris Wilmer'
_symmetry_space_group_name_H-M	'P1'
_symmetry_Int_Tables_number	1
_symmetry_cell_setting	triclinic
loop_
_symmetry_equiv_pos_as_xyz
  x,y,z
_cell_length_a	15.944556
_cell_length_b	10.654550
_cell_length_c	9.130313
_cell_angle_alpha	90.008279
_cell_angle_beta	90.014444
_cell_angle_gamma	83.993135
loop_
_atom_site_label
_atom_site_type_symbol
_atom_site_fract_x
_atom_site_fract_y
_atom_site_fract_z
O1	O	-0.117974	-1.666320	-0.121962
O2	O	-0.129214	-1.300696	-0.121942
O3	O	-0.001377	-1.493488	-0.121900
O4	O	-0.245810	-1.473528	-0.122004
O5	O	-0.001378	-1.493470	0.121699
O6	O	-0.129214	-1.300678	0.121657
O7	O	-0.117974	-1.666301	0.121637
Cu8	Cu	-0.123594	-1.483488	0.143889
Cu9	Cu	-0.123594	-1.483510	-0.144194
O10	O	-0.245811	-1.473509	0.121595
C11	C	-0.128389	-1.253900	-0.000139
C12	C	-0.125920	-1.114488	-0.000129
C13	C	0.029921	-1.492649	-0.000090
C14	C	0.123181	-1.490160	-0.000058
C15	C	0.394547	-1.363218	-0.000001
C16	C	0.343608	-1.424423	-0.120128
C17	C	0.458875	-1.481286	-0.000002
C18	C	0.343635	-1.424437	0.120042
C19	C	0.293937	-1.485640	-0.000027
C20	C	0.409164	-1.542459	-0.120227
C21	C	0.409194	-1.542455	0.120050
C22	C	0.358287	-1.603747	-0.000105
C23	C	0.553891	-1.478774	0.000011
C24	C	0.198924	-1.488161	-0.000051
C25	C	-0.118799	-1.713098	-0.000169
C26	C	-0.121268	-1.852509	-0.000188
C27	C	0.722889	-1.474332	-0.000146
C28	C	0.629625	-1.476769	0.000031
N29	N	-0.123595	-1.483482	0.346512
C30	C	-0.201188	-1.034031	-0.000183
C31	C	-0.198863	-0.903041	-0.000207
C32	C	-0.045995	-0.932977	-0.000130
C33	C	-0.048321	-1.063965	-0.000096
C34	C	-0.278787	-1.084555	-0.000216
C35	C	-0.354061	-1.004096	-0.000272
C36	C	-0.351736	-0.873106	-0.000296
C37	C	-0.274137	-0.822573	-0.000265
N38	N	-0.123587	-1.483526	-0.346817
C39	C	-0.180176	-1.398102	0.423183
C40	C	-0.180174	-1.398127	0.576520
C41	C	-0.067003	-1.568914	0.576502
C42	C	-0.067010	-1.568895	0.423168
C43	C	-0.236761	-1.312690	0.346527
C44	C	-0.293345	-1.227302	0.423198
C45	C	-0.293344	-1.227327	0.576535
C46	C	-0.236758	-1.312738	0.653201
H47	H	0.410788	-1.261532	-0.000108
H48	H	0.017183	-0.891822	-0.000130
Br49	Br	0.053831	-1.173165	-0.000014
H50	H	-0.236765	-1.312659	0.221673
Br51	Br	0.295919	-1.341285	0.289267
H52	H	-0.339421	-1.157770	0.360769
Br53	Br	-0.370144	-1.111461	0.680588
Br54	Br	-0.236768	-1.312780	0.861303
H55	H	-0.417240	-1.045249	-0.000284
H56	H	-0.280689	-1.191212	-0.000203
Br57	Br	0.295869	-1.341335	-0.289387
H58	H	-0.413028	-0.807599	-0.000326
Br59	Br	0.009789	-1.684821	0.680546
Br60	Br	-0.270983	-0.644798	-0.000270
H61	H	0.437682	-1.592292	-0.221876
Br62	Br	0.331480	-1.773358	-0.000230
Br63	Br	0.456968	-1.625481	0.289311
Br64	Br	0.009776	-1.684778	0.319110
