data_functionalizedCrystal
_audit_creation_method	'MofGen! by Chris Wilmer'
_symmetry_space_group_name_H-M	'P1'
_symmetry_Int_Tables_number	1
_symmetry_cell_setting	triclinic
loop_
_symmetry_equiv_pos_as_xyz
  x,y,z
_cell_length_a	21.883469
_cell_length_b	21.882911
_cell_length_c	21.879399
_cell_angle_alpha	60.006540
_cell_angle_beta	60.013207
_cell_angle_gamma	59.992231
loop_
_atom_site_label
_atom_site_type_symbol
_atom_site_fract_x
_atom_site_fract_y
_atom_site_fract_z
O1	O	0.084645	-0.892842	0.746620
O2	O	0.584645	-0.392842	1.246620
O3	O	0.031867	-0.695139	0.601571
O4	O	0.531867	-0.195139	1.101571
O5	O	0.157054	-0.820237	0.601476
O6	O	0.657054	-0.320237	1.101476
O7	O	-0.040542	-0.767744	0.746716
O8	O	0.459458	-0.267744	1.246716
O9	O	0.198586	-0.778715	0.642912
O10	O	0.698586	-0.278715	1.142912
O11	O	0.073399	-0.653617	0.643007
O12	O	0.573399	-0.153617	1.143007
O13	O	0.126177	-0.851320	0.788056
O14	O	0.626177	-0.351320	1.288056
Cu15	Cu	0.103580	-0.748677	0.719315
Cu16	Cu	0.603580	-0.248677	1.219315
Cu17	Cu	0.054464	-0.797782	0.670313
Cu18	Cu	0.554464	-0.297782	1.170313
O19	O	0.000990	-0.726222	0.788151
O20	O	0.500990	-0.226222	1.288151
N21	N	0.138128	-0.714145	0.753785
N22	N	0.638128	-0.214145	1.253785
N23	N	0.019923	-0.832320	0.635843
N24	N	0.519923	-0.332320	1.135843
C25	C	0.190018	-0.547369	0.805644
C26	C	0.690018	-0.047369	1.305644
C27	C	0.190029	-0.662289	0.805630
C28	C	0.690029	-0.162289	1.305630
C29	C	0.218780	-0.633565	0.834353
C30	C	0.718780	-0.133565	1.334353
C31	C	0.344122	-0.611968	0.768360
C32	C	0.844122	-0.111968	1.268360
C33	C	0.422474	-0.638085	0.742222
C34	C	0.922474	-0.138085	1.242222
C35	C	0.422504	-0.764859	0.790561
C36	C	0.922504	-0.264859	1.290561
C37	C	0.344154	-0.738739	0.816702
C38	C	0.844154	-0.238739	1.316702
C39	C	0.208899	-0.508180	0.728617
C40	C	0.708899	-0.008180	1.228617
C41	C	0.182748	-0.429822	0.702522
C42	C	0.682748	0.070178	1.202522
C43	C	0.118843	-0.429847	0.830485
C44	C	0.618843	0.070153	1.330485
C45	C	0.144993	-0.508205	0.856580
C46	C	0.644993	-0.008205	1.356580
C47	C	0.112994	-0.643364	0.824587
C48	C	0.612994	-0.143364	1.324587
C49	C	0.086865	-0.669476	0.798467
C50	C	0.586865	-0.169476	1.298467
C51	C	0.214799	-0.733437	0.734451
C52	C	0.714799	-0.233437	1.234451
C53	C	0.240932	-0.707325	0.760562
C54	C	0.740932	-0.207325	1.260562
C55	C	0.113084	-0.643389	0.959747
C56	C	0.613084	-0.143389	1.459747
C57	C	0.087018	-0.669524	1.038102
C58	C	0.587018	-0.169524	1.538102
C59	C	0.214996	-0.733501	1.038048
C60	C	0.714996	-0.233501	1.538048
C61	C	0.241061	-0.707367	0.959690
C62	C	0.741061	-0.207367	1.459690
C63	C	0.190103	-0.662308	0.920542
C64	C	0.690103	-0.162308	1.420542
C65	C	0.304966	-0.662293	0.805598
C66	C	0.804966	-0.162293	1.305598
C67	C	-0.117460	-0.854702	0.612901
C68	C	0.382540	-0.354702	1.112901
C69	C	-0.002405	-0.854864	0.498145
C70	C	0.497595	-0.354864	0.998145
C71	C	-0.002621	-0.969735	0.613108
C72	C	0.497379	-0.469735	1.113108
C73	C	-0.002603	-0.854858	0.613180
C74	C	0.497397	-0.354858	1.113180
C75	C	-0.031272	-0.883541	0.584334
C76	C	0.468728	-0.383541	1.084334
N77	N	0.460550	-0.714150	0.753681
N78	N	0.960550	-0.214150	1.253681
O79	O	0.699805	-0.721060	0.574973
O80	O	1.199805	-0.221060	1.074973
O81	O	0.700047	-0.866553	0.772482
O82	O	1.200047	-0.366553	1.272482
O83	O	0.699952	-0.866219	0.647213
O84	O	1.199952	-0.366219	1.147213
O85	O	0.699900	-0.721394	0.700242
O86	O	1.199900	-0.221394	1.200242
O87	O	0.575478	-0.824800	0.688791
O88	O	1.075478	-0.324800	1.188791
O89	O	0.575573	-0.825134	0.814060
O90	O	1.075573	-0.325134	1.314060
O91	O	0.575331	-0.679641	0.616551
O92	O	1.075331	-0.179641	1.116551
Cu93	Cu	0.564087	-0.748606	0.719102
Cu94	Cu	1.064087	-0.248606	1.219102
Cu95	Cu	0.711292	-0.797588	0.669931
Cu96	Cu	1.211292	-0.297588	1.169931
O97	O	0.575426	-0.679975	0.741820
O98	O	1.075426	-0.179975	1.241820
N99	N	0.814828	-0.832044	0.635345
N100	N	1.314828	-0.332044	1.135345
N101	N	0.138106	-0.391772	0.753815
N102	N	0.638106	0.108228	1.253815
O103	O	-0.040520	-0.152377	0.746758
O104	O	0.459480	0.347623	1.246758
O105	O	0.156993	-0.152371	0.601281
O106	O	0.656993	0.347629	1.101281
O107	O	0.031698	-0.152390	0.601639
O108	O	0.531698	0.347610	1.101639
O109	O	0.084775	-0.152358	0.746401
O110	O	0.584775	0.347642	1.246401
O111	O	0.073234	-0.276876	0.643130
O112	O	0.573234	0.223124	1.143130
O113	O	0.198529	-0.276856	0.642772
O114	O	0.698529	0.223144	1.142772
O115	O	0.001015	-0.276863	0.788249
O116	O	0.501015	0.223137	1.288249
Cu117	Cu	0.103564	-0.288226	0.719299
Cu118	Cu	0.603564	0.211774	1.219299
Cu119	Cu	0.054444	-0.141007	0.670231
Cu120	Cu	0.554444	0.358993	1.170231
O121	O	0.126310	-0.276844	0.787892
O122	O	0.626310	0.223156	1.287892
N123	N	0.019892	-0.037461	0.635717
N124	N	0.519892	0.462539	1.135717
N125	N	0.138332	-0.714192	1.076133
N126	N	0.638332	-0.214192	1.576133
O127	O	0.131293	-0.892804	1.315506
O128	O	0.631293	-0.392804	1.815506
O129	O	-0.014162	-0.695219	1.315533
O130	O	0.485838	-0.195219	1.815533
O131	O	-0.013826	-0.820490	1.315480
O132	O	0.486174	-0.320490	1.815480
O133	O	0.130957	-0.767533	1.315559
O134	O	0.630957	-0.267533	1.815559
O135	O	0.027651	-0.778981	1.191001
O136	O	0.527651	-0.278981	1.691001
O137	O	0.027314	-0.653710	1.191054
O138	O	0.527314	-0.153710	1.691054
O139	O	0.172770	-0.851295	1.191026
O140	O	0.672770	-0.351295	1.691026
Cu141	Cu	0.103829	-0.748713	1.179674
Cu142	Cu	0.603829	-0.248713	1.679674
Cu143	Cu	0.054778	-0.797802	1.326885
Cu144	Cu	0.554778	-0.297802	1.826885
O145	O	0.172434	-0.726024	1.191079
O146	O	0.672434	-0.226024	1.691079
N147	N	0.020275	-0.832331	1.430426
N148	N	0.520275	-0.332331	1.930426
C149	C	0.047687	-0.649466	0.602306
C150	C	0.547687	-0.149466	1.102306
C151	C	0.202716	-0.804385	0.602188
C152	C	0.702716	-0.304385	1.102188
C153	C	0.110357	-0.896993	0.787321
C154	C	0.610357	-0.396993	1.287321
C155	C	-0.044672	-0.742074	0.787439
C156	C	0.455328	-0.242074	1.287439
C157	C	0.637839	-0.865879	0.818154
C158	C	1.137839	-0.365879	1.318154
C159	C	0.637724	-0.865466	0.663023
C160	C	1.137724	-0.365466	1.163023
C161	C	0.637536	-0.680313	0.570880
C162	C	1.137536	-0.180313	1.070880
C163	C	0.637655	-0.680728	0.726010
C164	C	1.137655	-0.180728	1.226010
C165	C	0.202592	-0.214459	0.601942
C166	C	0.702592	0.285541	1.101942
C167	C	0.047481	-0.214636	0.602435
C168	C	0.547481	0.285364	1.102435
C169	C	-0.044635	-0.214620	0.787537
C170	C	0.455365	0.285380	1.287537
C171	C	0.110528	-0.214598	0.787096
C172	C	0.610528	0.285402	1.287096
C173	C	-0.013455	-0.649572	1.253296
C174	C	0.486545	-0.149572	1.753296
C175	C	-0.013030	-0.804697	1.253206
C176	C	0.486970	-0.304697	1.753206
C177	C	0.172063	-0.896942	1.253263
C178	C	0.672063	-0.396942	1.753263
C179	C	0.171648	-0.741808	1.253325
C180	C	0.671648	-0.241808	1.753325
H181	H	0.024299	-0.654107	1.070013
H182	H	0.524299	-0.154107	1.570013
C183	C	-0.074453	-0.819972	1.253101
C184	C	0.425547	-0.319972	1.753101
N185	N	-0.120716	-0.831478	1.253021
N186	N	0.379284	-0.331478	1.753021
H187	H	0.637457	-0.634634	0.514159
H188	H	1.137457	-0.134634	1.014159
H189	H	0.217133	-0.730478	1.253340
H190	H	0.717133	-0.230478	1.753340
H191	H	0.637644	-0.635235	0.737357
H192	H	1.137644	-0.135235	1.237357
H193	H	-0.101428	-0.730886	0.833046
H194	H	0.398572	-0.230886	1.333046
C195	C	-0.075149	-0.572909	1.253303
C196	C	0.424851	-0.072909	1.753303
N197	N	-0.121617	-0.515166	1.253309
N198	N	0.378383	-0.015166	1.753309
C199	C	-0.121281	-0.214578	0.849225
C200	C	0.378719	0.285422	1.349225
N201	N	-0.179016	-0.214530	0.895683
N202	N	0.320984	0.285470	1.395683
H203	H	0.121632	-0.953785	0.832877
H204	H	0.621632	-0.453785	1.332877
C205	C	0.637751	-0.926932	0.647693
C206	C	1.137751	-0.426932	1.147693
N207	N	0.637770	-0.973227	0.636146
N208	N	1.137770	-0.473227	1.136146
C209	C	0.032136	-0.214664	0.541000
C210	C	0.532136	0.285336	1.041000
N211	N	0.020581	-0.214692	0.494730
N212	N	0.520581	0.285308	0.994730
C213	C	0.233713	-0.973649	1.253388
C214	C	0.733713	-0.473649	1.753388
N215	N	0.280131	-1.031442	1.253531
N216	N	0.780131	-0.531442	1.753531
H217	H	0.121892	-0.214588	0.832572
H218	H	0.621892	0.285412	1.332572
C219	C	0.057021	-0.593817	0.916687
C220	C	0.557021	-0.093817	1.416687
N221	N	0.014797	-0.556481	0.884255
N222	N	0.514797	-0.056481	1.384255
C223	C	0.325790	-0.728185	0.916570
C224	C	0.825790	-0.228185	1.416570
N225	N	0.389608	-0.743865	0.884094
N226	N	0.889608	-0.243865	1.384094
C227	C	0.271057	-0.783050	1.081101
C228	C	0.771057	-0.283050	1.581101
N229	N	0.313285	-0.820373	1.113530
N230	N	0.813285	-0.320373	1.613530
H231	H	0.259199	-0.214112	0.556156
H232	H	0.759199	0.285888	1.056156
H233	H	0.259468	-0.815577	0.556577
H234	H	0.759468	-0.315577	1.056577
C235	C	0.270799	-0.782981	0.684881
C236	C	0.770799	-0.282981	1.184881
N237	N	0.312981	-0.820296	0.647542
N238	N	0.812981	-0.320296	1.147542
C239	C	0.002123	-0.648659	0.819316
C240	C	0.502123	-0.148659	1.319316
N241	N	-0.061705	-0.632979	0.835020
N242	N	0.438295	-0.132979	1.335020
H243	H	0.303660	-0.722726	0.745118
H244	H	0.803660	-0.222726	1.245118
C245	C	0.301083	-0.794105	0.857662
C246	C	0.801083	-0.294105	1.357662
N247	N	0.268643	-0.835808	0.888514
N248	N	0.768643	-0.335808	1.388514
C249	C	0.465614	-0.848954	0.802768
C250	C	0.965614	-0.348954	1.302768
N251	N	0.498083	-0.912293	0.811964
N252	N	0.998083	-0.412293	1.311964
C253	C	0.637928	-0.927587	0.894788
C254	C	1.137928	-0.427587	1.394788
N255	N	0.637997	-0.974066	0.952508
N256	N	1.137997	-0.474066	1.452508
C257	C	0.465545	-0.582723	0.701255
C258	C	0.965545	-0.082723	1.201255
N259	N	0.497988	-0.541022	0.670396
N260	N	0.997988	-0.041022	1.170396
H261	H	0.312222	-0.549720	0.759316
H262	H	0.812222	-0.049720	1.259316
C263	C	0.203518	-0.386711	0.617784
C264	C	0.703518	0.113289	1.117784
N265	N	0.219164	-0.354242	0.553960
N266	N	0.719164	0.145758	1.053960
C267	C	0.258422	-0.551259	0.672586
C268	C	0.758422	-0.051259	1.172586
N269	N	0.295723	-0.583705	0.630380
N270	N	0.795723	-0.083705	1.130380
H271	H	0.082193	-0.397958	0.871963
H272	H	0.582193	0.102042	1.371963
C273	C	0.124224	-0.551316	0.941319
C274	C	0.624224	-0.051316	1.441319
N275	N	0.108580	-0.583785	1.005143
N276	N	0.608580	-0.083785	1.505143
H277	H	0.071542	-0.606694	0.861281
H278	H	0.571542	-0.106694	1.361281
H279	H	0.036413	-0.592673	0.556752
H280	H	0.536413	-0.092673	1.056752
