data_functionalizedCrystal
_audit_creation_method	'MofGen! by Chris Wilmer'
_symmetry_space_group_name_H-M	'P1'
_symmetry_Int_Tables_number	1
_symmetry_cell_setting	triclinic
loop_
_symmetry_equiv_pos_as_xyz
  x,y,z
_cell_length_a	18.215407
_cell_length_b	16.625545
_cell_length_c	18.215399
_cell_angle_alpha	89.975452
_cell_angle_beta	90.017368
_cell_angle_gamma	89.975606
loop_
_atom_site_label
_atom_site_type_symbol
_atom_site_fract_x
_atom_site_fract_y
_atom_site_fract_z
Zn1	Zn	1.125061	0.321065	0.416085
Zn2	Zn	1.375061	0.571065	0.666085
Zn3	Zn	1.625061	0.821065	0.916085
Zn4	Zn	1.875061	1.071065	1.166085
Zn5	Zn	1.124965	0.455905	0.293026
Zn6	Zn	1.374965	0.705905	0.543026
Zn7	Zn	1.624965	0.955905	0.793026
Zn8	Zn	1.874965	1.205905	1.043026
Zn9	Zn	1.001994	0.321084	0.293038
Zn10	Zn	1.251994	0.571084	0.543038
Zn11	Zn	1.501994	0.821084	0.793038
Zn12	Zn	1.751994	1.071084	1.043038
Zn13	Zn	1.001955	0.455853	0.416056
Zn14	Zn	1.251955	0.705853	0.666056
Zn15	Zn	1.501955	0.955853	0.916056
Zn16	Zn	1.751955	1.205853	1.166056
O17	O	1.063494	0.388477	0.354551
O18	O	1.313494	0.638477	0.604551
O19	O	1.563494	0.888477	0.854551
O20	O	1.813494	1.138477	1.104551
O21	O	1.228033	0.338965	0.399768
O22	O	1.478033	0.588965	0.649768
O23	O	1.728033	0.838965	0.899768
O24	O	1.978033	1.088965	1.149768
O25	O	1.108629	0.438051	0.190043
O26	O	1.358629	0.688051	0.440043
O27	O	1.608629	0.938051	0.690043
O28	O	1.858629	1.188051	0.940043
O29	O	1.018375	0.208249	0.309377
O30	O	1.268375	0.458249	0.559377
O31	O	1.518375	0.708249	0.809377
O32	O	1.768375	0.958249	1.059377
O33	O	1.227962	0.438032	0.309357
O34	O	1.477962	0.688032	0.559357
O35	O	1.727962	0.938032	0.809357
O36	O	1.977962	1.188032	1.059357
O37	O	1.108793	0.208235	0.399779
O38	O	1.358793	0.458235	0.649779
O39	O	1.608793	0.708235	0.899779
O40	O	1.858793	0.958235	1.149779
O41	O	1.018282	0.338998	0.190052
O42	O	1.268282	0.588998	0.440052
O43	O	1.518282	0.838998	0.690052
O44	O	1.768282	1.088998	0.940052
O45	O	0.899005	0.338948	0.309349
O46	O	1.149005	0.588948	0.559349
O47	O	1.399005	0.838948	0.809349
O48	O	1.649005	1.088948	1.059349
O49	O	1.018310	0.437943	0.519044
O50	O	1.268310	0.687943	0.769044
O51	O	1.518310	0.937943	1.019044
O52	O	1.768310	1.187943	1.269044
O53	O	0.898976	0.437962	0.399730
O54	O	1.148976	0.687962	0.649730
O55	O	1.398976	0.937962	0.899730
O56	O	1.648976	1.187962	1.149730
O57	O	1.108755	0.338915	0.519065
O58	O	1.358755	0.588915	0.769065
O59	O	1.608755	0.838915	1.019065
O60	O	1.858755	1.088915	1.269065
O61	O	1.108591	0.568731	0.309329
O62	O	1.358591	0.818731	0.559329
O63	O	1.608591	1.068731	0.809329
O64	O	1.858591	1.318731	1.059329
O65	O	1.018217	0.568693	0.399719
O66	O	1.268217	0.818693	0.649719
O67	O	1.518217	1.068693	0.899719
O68	O	1.768217	1.318693	1.149719
C69	C	0.872288	0.388452	0.354538
C70	C	1.122288	0.638452	0.604538
C71	C	1.372288	0.888452	0.854538
C72	C	1.622288	1.138452	1.104538
C73	C	0.790489	0.388461	0.354550
C74	C	1.040489	0.638461	0.604550
C75	C	1.290489	0.888461	0.854550
C76	C	1.540489	1.138461	1.104550
C77	C	0.602331	0.336983	0.401701
C78	C	0.852331	0.586983	0.651701
C79	C	1.102331	0.836983	0.901701
C80	C	1.352331	1.086983	1.151701
C81	C	0.525472	0.336990	0.401704
C82	C	0.775472	0.586990	0.651704
C83	C	1.025472	0.836990	0.901704
C84	C	1.275472	1.086990	1.151704
C85	C	0.525409	0.439993	0.307414
C86	C	0.775409	0.689993	0.557414
C87	C	1.025409	0.939993	0.807414
C88	C	1.275409	1.189993	1.057414
C89	C	0.602267	0.439982	0.307408
C90	C	0.852267	0.689982	0.557408
C91	C	1.102267	0.939982	0.807408
C92	C	1.352267	1.189982	1.057408
C93	C	0.640725	0.388478	0.354556
C94	C	0.890725	0.638478	0.604556
C95	C	1.140725	0.888478	0.854556
C96	C	1.390725	1.138478	1.104556
C97	C	0.487009	0.388496	0.354564
C98	C	0.737009	0.638496	0.604564
C99	C	0.987009	0.888496	0.854564
C100	C	1.237009	1.138496	1.104564
C101	C	0.403676	0.388504	0.354567
C102	C	0.653676	0.638504	0.604567
C103	C	0.903676	0.888504	0.854567
C104	C	1.153676	1.138504	1.104567
C105	C	0.724064	0.388469	0.354553
C106	C	0.974064	0.638469	0.604553
C107	C	1.224064	0.888469	0.854553
C108	C	1.474064	1.138469	1.104553
C109	C	1.063409	0.597968	0.354536
C110	C	1.313409	0.847968	0.604536
C111	C	1.563409	1.097968	0.854536
C112	C	1.813409	1.347968	1.104536
C113	C	1.063441	0.687589	0.354554
C114	C	1.313441	0.937589	0.604554
C115	C	1.563441	1.187589	0.854554
C116	C	1.813441	1.437589	1.104554
C117	C	1.063467	0.760371	0.354571
C118	C	1.313467	1.010371	0.604571
C119	C	1.563467	1.260371	0.854571
C120	C	1.813467	1.510371	1.104571
C121	C	1.063508	0.851680	0.354591
C122	C	1.313508	1.101680	0.604591
C123	C	1.563508	1.351680	0.854591
C124	C	1.813508	1.601680	1.104591
C125	C	1.063545	0.924456	0.354603
C126	C	1.313545	1.174456	0.604603
C127	C	1.563545	1.424456	0.854603
C128	C	1.813545	1.674456	1.104603
C129	C	1.063585	1.015770	0.354621
C130	C	1.313585	1.265770	0.604621
C131	C	1.563585	1.515770	0.854621
C132	C	1.813585	1.765770	1.104621
C133	C	1.255447	0.388502	0.354564
C134	C	1.505447	0.638502	0.604564
C135	C	1.755447	0.888502	0.854564
C136	C	2.005447	1.138502	1.104564
C137	C	1.337246	0.388513	0.354570
C138	C	1.587246	0.638513	0.604570
C139	C	1.837246	0.888513	0.854570
C140	C	2.087246	1.138513	1.104570
C141	C	1.063539	0.388421	0.546504
C142	C	1.313539	0.638421	0.796504
C143	C	1.563539	0.888421	1.046504
C144	C	1.813539	1.138421	1.296504
C145	C	1.063558	0.388398	0.628303
C146	C	1.313558	0.638398	0.878303
C147	C	1.563558	0.888398	1.128303
C148	C	1.813558	1.138398	1.378303
C149	C	1.063593	1.178168	0.354592
C150	C	1.313593	1.428168	0.604592
C151	C	1.563593	1.678168	0.854592
C152	C	1.813593	1.928168	1.104592
C153	C	1.063622	1.088547	0.354633
C154	C	1.313622	1.338547	0.604633
C155	C	1.563622	1.588547	0.854633
C156	C	1.813622	1.838547	1.104633
C157	C	1.063492	0.388474	0.163345
C158	C	1.313492	0.638474	0.413345
C159	C	1.563492	0.888474	0.663345
C160	C	1.813492	1.138474	0.913345
C161	C	1.063615	0.388271	0.081546
C162	C	1.313615	0.638271	0.331546
C163	C	1.563615	0.888271	0.581546
C164	C	1.813615	1.138271	0.831546
C165	C	1.110670	0.336785	0.816509
C166	C	1.360670	0.586785	1.066509
C167	C	1.610670	0.836785	1.316509
C168	C	1.860670	1.086785	1.566509
C169	C	1.110679	0.336762	0.893368
C170	C	1.360679	0.586762	1.143368
C171	C	1.610679	0.836762	1.393368
C172	C	1.860679	1.086762	1.643368
C173	C	1.016498	0.439885	0.893335
C174	C	1.266498	0.689885	1.143335
C175	C	1.516498	0.939885	1.393335
C176	C	1.766498	1.189885	1.643335
C177	C	1.016486	0.439904	0.816477
C178	C	1.266486	0.689904	1.066477
C179	C	1.516486	0.939904	1.316477
C180	C	1.766486	1.189904	1.566477
C181	C	1.063576	0.388355	0.778067
C182	C	1.313576	0.638355	1.028067
C183	C	1.563576	0.888355	1.278067
C184	C	1.813576	1.138355	1.528067
C185	C	1.063597	0.388313	0.931783
C186	C	1.313597	0.638313	1.181783
C187	C	1.563597	0.888313	1.431783
C188	C	1.813597	1.138313	1.681783
C189	C	1.063606	0.388288	1.015116
C190	C	1.313606	0.638288	1.265116
C191	C	1.563606	0.888288	1.515116
C192	C	1.813606	1.138288	1.765116
C193	C	1.063566	0.388379	0.694728
C194	C	1.313566	0.638379	0.944728
C195	C	1.563566	0.888379	1.194728
C196	C	1.813566	1.138379	1.444728
H197	H	0.633641	0.295043	0.440090
H198	H	0.883641	0.545043	0.690090
H199	H	1.133641	0.795043	0.940090
H200	H	1.383641	1.045043	1.190090
O201	O	0.639601	0.489893	0.261532
O202	O	0.889601	0.739893	0.511532
O203	O	1.139601	0.989893	0.761532
O204	O	1.389601	1.239893	1.011532
C205	C	0.684067	0.443914	0.214080
C206	C	0.934067	0.693914	0.464080
C207	C	1.184067	0.943914	0.714080
C208	C	1.434067	1.193914	0.964080
H209	H	0.660917	0.380408	0.209632
H210	H	0.910917	0.630408	0.459632
H211	H	1.160917	0.880408	0.709632
H212	H	1.410917	1.130408	0.959632
H213	H	0.684914	0.472999	0.157400
H214	H	0.934914	0.722999	0.407400
H215	H	1.184914	0.972999	0.657400
H216	H	1.434914	1.222999	0.907400
H217	H	0.742324	0.441155	0.236837
H218	H	0.992324	0.691155	0.486837
H219	H	1.242324	0.941155	0.736837
H220	H	1.492324	1.191155	0.986837
O221	O	1.156327	0.286591	0.779231
O222	O	1.406327	0.536591	1.029231
O223	O	1.656327	0.786591	1.279231
O224	O	1.906327	1.036591	1.529231
C225	C	1.140291	0.206226	0.798041
C226	C	1.390291	0.456226	1.048041
C227	C	1.640291	0.706226	1.298041
C228	C	1.890291	0.956226	1.548041
H229	H	1.081503	0.202149	0.819159
H230	H	1.331503	0.452149	1.069159
H231	H	1.581503	0.702149	1.319159
H232	H	1.831503	0.952149	1.569159
H233	H	1.146641	0.166401	0.747507
H234	H	1.396641	0.416401	0.997507
H235	H	1.646641	0.666401	1.247507
H236	H	1.896641	0.916401	1.497507
H237	H	1.179761	0.185142	0.842665
H238	H	1.429761	0.435142	1.092665
H239	H	1.679761	0.685142	1.342665
H240	H	1.929761	0.935142	1.592665
O241	O	0.970799	0.490074	0.930568
O242	O	1.220799	0.740074	1.180568
O243	O	1.470799	0.990074	1.430568
O244	O	1.720799	1.240074	1.680568
C245	C	0.986855	0.570442	0.911788
C246	C	1.236855	0.820442	1.161788
C247	C	1.486855	1.070442	1.411788
C248	C	1.736855	1.320442	1.661788
H249	H	1.015134	0.572129	0.855987
H250	H	1.265134	0.822129	1.105987
H251	H	1.515134	1.072129	1.355987
H252	H	1.765134	1.322129	1.605987
H253	H	0.933725	0.606594	0.909145
H254	H	1.183725	0.856594	1.159145
H255	H	1.433725	1.106594	1.409145
H256	H	1.683725	1.356594	1.659145
H257	H	1.024687	0.597592	0.955043
H258	H	1.274687	0.847592	1.205043
H259	H	1.524687	1.097592	1.455043
H260	H	1.774687	1.347592	1.705043
H261	H	1.149026	0.294767	0.924665
H262	H	1.399026	0.544767	1.174665
H263	H	1.649026	0.794767	1.424665
H264	H	1.899026	1.044767	1.674665
H265	H	0.978132	0.481898	0.785176
H266	H	1.228132	0.731898	1.035176
H267	H	1.478132	0.981898	1.285176
H268	H	1.728132	1.231898	1.535176
H269	H	0.494214	0.295057	0.440093
H270	H	0.744214	0.545057	0.690093
H271	H	0.994214	0.795057	0.940093
H272	H	1.244214	1.045057	1.190093
H273	H	0.494087	0.481927	0.269028
H274	H	0.744087	0.731927	0.519028
H275	H	0.994087	0.981927	0.769028
H276	H	1.244087	1.231927	1.019028
