data_functionalizedCrystal
_audit_creation_method	'MofGen! by Chris Wilmer'
_symmetry_space_group_name_H-M	'P1'
_symmetry_Int_Tables_number	1
_symmetry_cell_setting	triclinic
loop_
_symmetry_equiv_pos_as_xyz
  x,y,z
_cell_length_a	19.805399
_cell_length_b	21.395362
_cell_length_c	21.395361
_cell_angle_alpha	89.953415
_cell_angle_beta	89.967690
_cell_angle_gamma	90.035332
loop_
_atom_site_label
_atom_site_type_symbol
_atom_site_fract_x
_atom_site_fract_y
_atom_site_fract_z
Zn1	Zn	-0.383037	-0.957806	-0.249179
Zn2	Zn	0.116963	-0.457806	0.250821
Zn3	Zn	-0.269842	-0.957724	-0.353958
Zn4	Zn	0.230158	-0.457724	0.146042
Zn5	Zn	-0.269825	-0.853037	-0.249228
Zn6	Zn	0.230175	-0.353037	0.250772
Zn7	Zn	-0.382953	-0.852990	-0.353952
Zn8	Zn	0.117047	-0.352990	0.146048
O9	O	-0.326414	-0.905390	-0.301579
O10	O	0.173586	-0.405390	0.198421
O11	O	-0.368064	-1.045473	-0.263060
O12	O	0.131936	-0.545473	0.236940
O13	O	-0.175124	-0.943823	-0.340089
O14	O	0.324876	-0.443823	0.159911
O15	O	-0.284871	-0.866989	-0.161543
O16	O	0.215129	-0.366989	0.338457
O17	O	-0.284900	-1.045413	-0.340042
O18	O	0.215100	-0.545413	0.159958
O19	O	-0.368048	-0.943962	-0.161507
O20	O	0.131952	-0.443962	0.338493
O21	O	-0.175111	-0.866909	-0.263144
O22	O	0.324889	-0.366909	0.236856
O23	O	-0.284789	-0.765353	-0.263137
O24	O	0.215211	-0.265353	0.236863
O25	O	-0.477681	-0.866909	-0.340030
O26	O	0.022319	-0.366909	0.159970
O27	O	-0.367904	-0.765319	-0.340077
O28	O	0.132096	-0.265319	0.159923
O29	O	-0.477743	-0.943917	-0.263054
O30	O	0.022257	-0.443917	0.236946
O31	O	-0.284819	-0.943778	-0.441635
O32	O	0.215181	-0.443778	0.058365
O33	O	-0.367920	-0.866830	-0.441630
O34	O	0.132080	-0.366830	0.058370
C35	C	-0.326336	-0.742602	-0.301612
C36	C	0.173664	-0.242602	0.198388
C37	C	-0.326318	-0.672961	-0.301642
C38	C	0.173682	-0.172961	0.198358
C39	C	-0.326377	-0.905307	-0.464367
C40	C	0.173623	-0.405307	0.035633
C41	C	-0.326383	-0.905329	-0.534008
C42	C	0.173617	-0.405329	-0.034008
C43	C	-0.502957	-0.905417	-0.301536
C44	C	-0.002957	-0.405417	0.198464
C45	C	-0.578189	-0.905429	-0.301517
C46	C	-0.078189	-0.405429	0.198483
C47	C	-0.613526	-0.865391	-0.261448
C48	C	-0.113526	-0.365391	0.238552
C49	C	-0.684215	-0.865400	-0.261436
C50	C	-0.184215	-0.365400	0.238564
C51	C	-0.719565	-0.905450	-0.301490
C52	C	-0.219565	-0.405450	0.198510
C53	C	-0.684223	-0.945489	-0.341564
C54	C	-0.184223	-0.445489	0.158436
C55	C	-0.613536	-0.945477	-0.341578
C56	C	-0.113536	-0.445477	0.158422
C57	C	-0.969296	-0.945539	-0.341505
C58	C	-0.469296	-0.445539	0.158495
C59	C	-1.039989	-0.945549	-0.341486
C60	C	-0.539989	-0.445549	0.158514
C61	C	-1.039976	-0.865462	-0.261362
C62	C	-0.539976	-0.365462	0.238638
C63	C	-0.969288	-0.865450	-0.261377
C64	C	-0.469288	-0.365450	0.238623
C65	C	-0.933952	-0.905486	-0.301453
C66	C	-0.433952	-0.405486	0.198547
C67	C	-0.857304	-0.905476	-0.301466
C68	C	-0.357304	-0.405476	0.198534
C69	C	-0.796212	-0.905464	-0.301474
C70	C	-0.296212	-0.405464	0.198526
C71	C	-0.150558	-0.905398	-0.301577
C72	C	0.349442	-0.405398	0.198423
C73	C	-0.075327	-0.905508	-0.301419
C74	C	0.424673	-0.405508	0.198581
C75	C	-0.326494	-1.068813	-0.301546
C76	C	0.173506	-0.568813	0.198454
C77	C	-0.326527	-1.138454	-0.301532
C78	C	0.173473	-0.638454	0.198468
C79	C	-0.369531	-0.640246	-0.341757
C80	C	0.130469	-0.140246	0.158243
C81	C	-0.369561	-0.574811	-0.341742
C82	C	0.130439	-0.074811	0.158258
C83	C	-0.326367	-0.542092	-0.301617
C84	C	0.173633	-0.042092	0.198383
C85	C	-0.283151	-0.574815	-0.261494
C86	C	0.216849	-0.074815	0.238506
C87	C	-0.283127	-0.640249	-0.261506
C88	C	0.216873	-0.140249	0.238494
C89	C	-0.265434	-0.438376	-0.296581
C90	C	0.234566	0.061624	0.203419
C91	C	-0.265456	-0.372943	-0.296573
C92	C	0.234544	0.127057	0.203427
C93	C	-0.326441	-0.340272	-0.301576
C94	C	0.173559	0.159728	0.198424
C95	C	-0.387405	-0.373041	-0.306601
C96	C	0.112595	0.126959	0.193399
C97	C	-0.387381	-0.438475	-0.306613
C98	C	0.112619	0.061525	0.193387
C99	C	-0.326388	-0.471140	-0.301600
C100	C	0.173612	0.028860	0.198400
C101	C	-0.369690	-0.236605	-0.341678
C102	C	0.130310	0.263395	0.158322
C103	C	-0.369722	-0.171168	-0.341658
C104	C	0.130278	0.328832	0.158342
C105	C	-0.283305	-0.171173	-0.261413
C106	C	0.216695	0.328827	0.238587
C107	C	-0.283280	-0.236609	-0.261430
C108	C	0.216720	0.263391	0.238570
C109	C	-0.326472	-0.269320	-0.301565
C110	C	0.173528	0.230680	0.198435
C111	C	-0.283157	-0.945431	-0.566703
C112	C	0.216843	-0.445431	-0.066703
C113	C	-0.283172	-0.945460	-0.632138
C114	C	0.216828	-0.445460	-0.132138
C115	C	-0.326407	-0.905376	-0.664876
C116	C	0.173593	-0.405376	-0.164876
C117	C	-0.369642	-0.865271	-0.632173
C118	C	0.130358	-0.365271	-0.132173
C119	C	-0.369630	-0.865247	-0.566739
C120	C	0.130370	-0.365247	-0.066739
C121	C	-0.331690	-0.848960	-0.768606
C122	C	0.168310	-0.348960	-0.268606
C123	C	-0.331697	-0.848983	-0.834039
C124	C	0.168303	-0.348983	-0.334039
C125	C	-0.326446	-0.905449	-0.866697
C126	C	0.173554	-0.405449	-0.366697
C127	C	-0.321175	-0.961894	-0.833914
C128	C	0.178825	-0.461894	-0.333914
C129	C	-0.321163	-0.961870	-0.768480
C130	C	0.178837	-0.461870	-0.268480
C131	C	-0.326424	-0.905397	-0.735829
C132	C	0.173576	-0.405397	-0.235829
C133	C	-0.283234	-0.945586	-0.970344
C134	C	0.216766	-0.445586	-0.470344
C135	C	-0.283254	-0.945616	-1.035781
C136	C	0.216746	-0.445616	-0.535781
C137	C	-0.369720	-0.865421	-1.035815
C138	C	0.130280	-0.365421	-0.535815
C139	C	-0.369704	-0.865397	-0.970380
C140	C	0.130296	-0.365397	-0.470380
C141	C	-0.326457	-0.905478	-0.937648
C142	C	0.173543	-0.405478	-0.437648
C143	C	-0.326467	-0.905490	-0.138156
C144	C	0.173533	-0.405490	0.361844
C145	C	-0.326490	-0.905532	-0.068514
C146	C	0.173510	-0.405532	0.431486
H147	H	-0.712983	-0.832795	-0.228810
H148	H	-0.212983	-0.332795	0.271190
C149	C	-0.378978	-0.097500	-0.425929
C150	C	0.121022	0.402500	0.074071
C151	C	-0.417225	-0.135202	-0.385755
C152	C	0.082775	0.364798	0.114245
H153	H	-0.408306	-0.075293	-0.453149
H154	H	0.091694	0.424707	0.046851
H155	H	-0.349435	-0.122975	-0.449863
H156	H	0.150565	0.377025	0.050137
H157	H	-0.353262	-0.068655	-0.402017
H158	H	0.146738	0.431345	0.097983
H159	H	-0.442936	-0.164050	-0.409666
H160	H	0.057064	0.335950	0.090334
H161	H	-0.446780	-0.109725	-0.361819
H162	H	0.053220	0.390275	0.138181
H163	H	-0.404702	-0.666876	-0.374438
H164	H	0.095298	-0.166876	0.125562
H165	H	-1.068769	-0.978164	-0.374105
H166	H	-0.568769	-0.478164	0.125895
C167	C	-0.280264	-0.778799	-0.695137
C168	C	0.219736	-0.278799	-0.195137
C169	C	-0.337463	-0.786886	-0.732714
C170	C	0.162537	-0.286886	-0.232714
H171	H	-0.283833	-0.740480	-0.672979
H172	H	0.216167	-0.240480	-0.172979
H173	H	-0.241041	-0.778018	-0.720691
H174	H	0.258959	-0.278018	-0.220691
H175	H	-0.277135	-0.812412	-0.666250
H176	H	0.222865	-0.312412	-0.166250
H177	H	-0.340590	-0.753275	-0.761605
H178	H	0.159410	-0.253275	-0.261605
H179	H	-0.376697	-0.787662	-0.707158
H180	H	0.123303	-0.287662	-0.207158
C181	C	-0.168720	-0.256685	-0.230783
C182	C	0.331280	0.243315	0.269217
C183	C	-0.235772	-0.272573	-0.217339
C184	C	0.264228	0.227427	0.282661
H185	H	-0.139391	-0.278892	-0.203563
H186	H	0.360609	0.221108	0.296437
H187	H	-0.162558	-0.213039	-0.225030
H188	H	0.337442	0.286961	0.274970
H189	H	-0.158736	-0.267361	-0.272872
H190	H	0.341264	0.232639	0.227128
H191	H	-0.245758	-0.261893	-0.175251
H192	H	0.254242	0.238107	0.324749
H193	H	-0.241937	-0.316230	-0.223087
H194	H	0.258063	0.183770	0.276913
C195	C	-0.505164	-0.829812	-0.225888
C196	C	-0.005164	-0.329812	0.274112
C197	C	-0.574672	-0.821368	-0.217418
C198	C	-0.074672	-0.321368	0.282582
H199	H	-0.481180	-0.802634	-0.198703
H200	H	0.018820	-0.302634	0.301297
H201	H	-0.493563	-0.820613	-0.267985
H202	H	0.006437	-0.320613	0.232015
H203	H	-0.493610	-0.871915	-0.216711
H204	H	0.006390	-0.371915	0.283289
H205	H	-0.586228	-0.779266	-0.226600
H206	H	-0.086228	-0.279266	0.273400
H207	H	-0.586278	-0.830562	-0.175311
H208	H	-0.086278	-0.330562	0.324689
C209	C	-0.244940	-0.070873	-0.225794
C210	C	0.255060	0.429127	0.274206
C211	C	-0.235803	-0.135217	-0.217326
C212	C	0.264197	0.364783	0.282674
H213	H	-0.215604	-0.048675	-0.198582
H214	H	0.284396	0.451325	0.301418
H215	H	-0.290427	-0.060194	-0.216656
H216	H	0.209573	0.439806	0.283344
H217	H	-0.234973	-0.060115	-0.267886
H218	H	0.265027	0.439885	0.232114
H219	H	-0.245775	-0.145976	-0.175235
H220	H	0.254225	0.354024	0.324765
H221	H	-0.190306	-0.145901	-0.226459
H222	H	0.309694	0.354099	0.273541
C223	C	-0.706022	-1.051567	-0.372062
C224	C	-0.206022	-0.551567	0.127938
C225	C	-0.723077	-0.989513	-0.385593
C226	C	-0.223077	-0.489513	0.114407
H227	H	-0.730006	-1.078746	-0.399247
H228	H	-0.230006	-0.578746	0.100753
H229	H	-0.717628	-1.060761	-0.329966
H230	H	-0.217628	-0.560761	0.170034
H231	H	-0.658864	-1.057281	-0.377808
H232	H	-0.158864	-0.557281	0.122192
H233	H	-0.770234	-0.983798	-0.379843
H234	H	-0.270234	-0.483798	0.120157
H235	H	-0.711475	-0.980316	-0.427700
H236	H	-0.211475	-0.480316	0.072300
H237	H	-0.404845	-0.832635	-0.658833
H238	H	0.095155	-0.332635	-0.158833
C239	C	-0.976378	-0.786279	-0.182179
C240	C	-0.476378	-0.286279	0.317821
C241	C	-0.930432	-0.821424	-0.217351
C242	C	-0.430432	-0.321424	0.282649
H243	H	-0.952389	-0.759096	-0.155003
H244	H	-0.452389	-0.259096	0.344997
H245	H	-1.003967	-0.813596	-0.158200
H246	H	-0.503967	-0.313596	0.341800
H247	H	-1.003930	-0.762304	-0.209484
H248	H	-0.503930	-0.262304	0.290516
H249	H	-0.902883	-0.845403	-0.190046
H250	H	-0.402883	-0.345403	0.309954
H251	H	-0.902832	-0.794104	-0.241331
H252	H	-0.402832	-0.294104	0.258669
H253	H	-0.215816	-0.346267	-0.292485
H254	H	0.284184	0.153733	0.207515
C255	C	-0.484198	-0.834650	-0.546551
C256	C	0.015802	-0.334650	-0.046551
C257	C	-0.417145	-0.821160	-0.530798
C258	C	0.082855	-0.321160	-0.030798
H259	H	-0.513530	-0.807429	-0.524363
H260	H	-0.013530	-0.307429	-0.024363
H261	H	-0.494153	-0.876732	-0.535766
H262	H	0.005847	-0.376732	-0.035766
H263	H	-0.490386	-0.828927	-0.590207
H264	H	0.009614	-0.328927	-0.090207
H265	H	-0.410956	-0.826888	-0.487142
H266	H	0.089044	-0.326888	0.012858
H267	H	-0.407187	-0.779068	-0.541578
H268	H	0.092813	-0.279068	-0.041578
H269	H	-0.404753	-0.548169	-0.374409
H270	H	0.095247	-0.048169	0.125591
C271	C	-0.402553	-0.759313	-1.056060
C272	C	0.097447	-0.259313	-0.556060
C273	C	-0.417247	-0.821360	-1.071792
C274	C	0.082753	-0.321360	-0.571792
H275	H	-0.431900	-0.732114	-1.078271
H276	H	0.068100	-0.232114	-0.578271
H277	H	-0.357072	-0.750179	-1.066830
H278	H	0.142928	-0.250179	-0.566830
H279	H	-0.408732	-0.753566	-1.012409
H280	H	0.091268	-0.253566	-0.512409
H281	H	-0.411063	-0.827109	-1.115443
H282	H	0.088937	-0.327109	-0.615443
H283	H	-0.462739	-0.830498	-1.061026
H284	H	0.037261	-0.330498	-0.561026
H285	H	-0.940534	-0.978132	-0.374144
H286	H	-0.440534	-0.478132	0.125856
C287	C	-0.591751	-0.975924	-0.447671
C288	C	-0.091751	-0.475924	0.052329
C289	C	-0.574690	-0.989486	-0.385624
C290	C	-0.074690	-0.489486	0.114376
H291	H	-0.567772	-1.003096	-0.474864
H292	H	-0.067772	-0.503096	0.025136
H293	H	-0.580142	-0.933823	-0.456844
H294	H	-0.080142	-0.433823	0.043156
H295	H	-0.638909	-0.981667	-0.453386
H296	H	-0.138909	-0.481667	0.046614
H297	H	-0.527532	-0.983739	-0.379908
H298	H	-0.027532	-0.483739	0.120092
H299	H	-0.586294	-1.031597	-0.376448
H300	H	-0.086294	-0.531597	0.123552
C301	C	-0.507927	-0.432008	-0.316514
C302	C	-0.007927	0.067992	0.183486
C303	C	-0.454389	-0.474496	-0.312126
C304	C	0.045611	0.025504	0.187874
H305	H	-0.549295	-0.454247	-0.319911
H306	H	-0.049295	0.045753	0.180089
H307	H	-0.501920	-0.406448	-0.352409
H308	H	-0.001920	0.093552	0.147591
H309	H	-0.508880	-0.406520	-0.280190
H310	H	-0.008880	0.093480	0.219810
H311	H	-0.453432	-0.499981	-0.348452
H312	H	0.046568	0.000019	0.151548
H313	H	-0.460398	-0.500066	-0.276227
H314	H	0.039602	-0.000066	0.223773
H315	H	-1.068755	-0.832860	-0.228733
H316	H	-0.568755	-0.332860	0.271267
H317	H	-0.437065	-0.346441	-0.310674
H318	H	0.062935	0.153559	0.189326
C319	C	-0.484266	-0.834793	-0.950195
C320	C	0.015734	-0.334793	-0.450195
C321	C	-0.417214	-0.821307	-0.934439
C322	C	0.082786	-0.321307	-0.434439
H323	H	-0.513597	-0.807569	-0.928009
H324	H	-0.013597	-0.307569	-0.428009
H325	H	-0.494224	-0.876874	-0.939410
H326	H	0.005776	-0.376874	-0.439410
H327	H	-0.490452	-0.829070	-0.993851
H328	H	0.009548	-0.329070	-0.493851
H329	H	-0.411027	-0.827034	-0.890783
H330	H	0.088973	-0.327034	-0.390783
H331	H	-0.407252	-0.779215	-0.945220
H332	H	0.092748	-0.279215	-0.445220
C333	C	-0.455120	-0.230029	-0.420986
C334	C	0.044880	0.269971	0.079014
C335	C	-0.417175	-0.272566	-0.385785
C336	C	0.082825	0.227434	0.114215
H337	H	-0.484438	-0.252231	-0.448212
H338	H	0.015562	0.247769	0.051788
H339	H	-0.425595	-0.204459	-0.444914
H340	H	0.074405	0.295541	0.055086
H341	H	-0.481070	-0.204557	-0.393704
H342	H	0.018930	0.295443	0.106296
H343	H	-0.391220	-0.298036	-0.413067
H344	H	0.108780	0.201964	0.086933
H345	H	-0.446704	-0.298148	-0.361855
H346	H	0.053296	0.201852	0.138145
H347	H	-0.215769	-0.464972	-0.292503
H348	H	0.284231	0.035028	0.207497
H349	H	-0.247983	-0.548171	-0.228823
H350	H	0.252017	-0.048171	0.271177
H351	H	-0.247944	-0.978069	-0.540055
H352	H	0.252056	-0.478069	-0.040055
C353	C	-0.197709	-0.633680	-0.182189
C354	C	0.302291	-0.133680	0.317811
C355	C	-0.235618	-0.676213	-0.217413
C356	C	0.264382	-0.176213	0.282587
H357	H	-0.168375	-0.655885	-0.154972
H358	H	0.331625	-0.155885	0.345028
H359	H	-0.227257	-0.608213	-0.158251
H360	H	0.272743	-0.108213	0.341749
H361	H	-0.171777	-0.608104	-0.209457
H362	H	0.328223	-0.108104	0.290543
H363	H	-0.261554	-0.701786	-0.190144
H364	H	0.238446	-0.201786	0.309856
H365	H	-0.206067	-0.701690	-0.241352
H366	H	0.293933	-0.201690	0.258648
C367	C	-0.197688	-1.024713	-0.625539
C368	C	0.302312	-0.524713	-0.125539
C369	C	-0.235649	-0.989539	-0.668087
C370	C	0.264351	-0.489539	-0.168087
H371	H	-0.168346	-1.051921	-0.647732
H372	H	0.331654	-0.551921	-0.147732
H373	H	-0.227201	-1.048658	-0.599973
H374	H	0.272799	-0.548658	-0.099973
H375	H	-0.171762	-0.997413	-0.600063
H376	H	0.328238	-0.497413	-0.100063
H377	H	-0.261579	-1.016839	-0.693560
H378	H	0.238421	-0.516839	-0.193560
H379	H	-0.206131	-0.965592	-0.693663
H380	H	0.293869	-0.465592	-0.193663
C381	C	-0.254682	-1.053483	-0.748266
C382	C	0.245318	-0.553483	-0.248266
C383	C	-0.315377	-1.023913	-0.732446
C384	C	0.184623	-0.523913	-0.232446
H385	H	-0.251116	-1.091787	-0.726022
H386	H	0.248884	-0.591787	-0.226022
H387	H	-0.217831	-1.027149	-0.737595
H388	H	0.282169	-0.527149	-0.237595
H389	H	-0.253944	-1.061576	-0.791910
H390	H	0.246056	-0.561576	-0.291910
H391	H	-0.316113	-1.015815	-0.688802
H392	H	0.183887	-0.515815	-0.188802
H393	H	-0.352238	-1.050253	-0.743113
H394	H	0.147762	-0.550253	-0.243113
C395	C	-0.372621	-1.032057	-0.907363
C396	C	0.127379	-0.532057	-0.407363
C397	C	-0.315413	-1.023972	-0.869798
C398	C	0.184587	-0.523972	-0.369798
H399	H	-0.369065	-1.070382	-0.929513
H400	H	0.130935	-0.570382	-0.429513
H401	H	-0.375753	-0.998453	-0.936251
H402	H	0.124247	-0.498453	-0.436251
H403	H	-0.411843	-1.032829	-0.881797
H404	H	0.088157	-0.532829	-0.381797
H405	H	-0.276191	-1.023195	-0.895364
H406	H	0.223809	-0.523195	-0.395364
H407	H	-0.312274	-1.057584	-0.840906
H408	H	0.187726	-0.557584	-0.340906
C409	C	-0.168658	-0.976169	-0.950242
C410	C	0.331342	-0.476169	-0.450242
C411	C	-0.235703	-0.989646	-0.934360
C412	C	0.264297	-0.489646	-0.434360
H413	H	-0.139316	-1.003373	-0.928030
H414	H	0.360684	-0.503373	-0.428030
H415	H	-0.158698	-0.934078	-0.939575
H416	H	0.341302	-0.434078	-0.439575
H417	H	-0.162489	-0.981928	-0.993893
H418	H	0.337511	-0.481928	-0.493893
H419	H	-0.241873	-0.983882	-0.890710
H420	H	0.258127	-0.483882	-0.390710
H421	H	-0.245667	-1.031747	-0.945023
H422	H	0.254333	-0.531747	-0.445023
C423	C	-0.250453	-1.051749	-1.055743
C424	C	0.249547	-0.551749	-0.555743
C425	C	-0.235737	-0.989731	-1.071687
C426	C	0.264263	-0.489731	-0.571687
H427	H	-0.221115	-1.078991	-1.077898
H428	H	0.278885	-0.578991	-0.577898
H429	H	-0.295937	-1.060887	-1.066438
H430	H	0.204063	-0.560887	-0.566438
H431	H	-0.244276	-1.057431	-1.012080
H432	H	0.255724	-0.557431	-0.512080
H433	H	-0.241919	-0.984048	-1.115349
H434	H	0.258081	-0.484048	-0.615349
H435	H	-0.190242	-0.980590	-1.060997
H436	H	0.309758	-0.480590	-0.560997
C437	C	-0.342110	-0.737374	-0.827590
C438	C	0.157890	-0.237374	-0.327590
C439	C	-0.337491	-0.786940	-0.870071
C440	C	0.162509	-0.286940	-0.370071
H441	H	-0.345691	-0.699072	-0.849835
H442	H	0.154309	-0.199072	-0.349835
H443	H	-0.302874	-0.736573	-0.802096
H444	H	0.197126	-0.236573	-0.302096
H445	H	-0.380906	-0.742860	-0.802036
H446	H	0.119094	-0.242860	-0.302036
H447	H	-0.298692	-0.781457	-0.895622
H448	H	0.201308	-0.281457	-0.395622
H449	H	-0.376732	-0.787741	-0.895576
H450	H	0.123268	-0.287741	-0.395576
