data_functionalizedCrystal
_audit_creation_method	'MofGen! by Chris Wilmer'
_symmetry_space_group_name_H-M	'P1'
_symmetry_Int_Tables_number	1
_symmetry_cell_setting	triclinic
loop_
_symmetry_equiv_pos_as_xyz
  x,y,z
_cell_length_a	9.065215
_cell_length_b	16.992695
_cell_length_c	7.540329
_cell_angle_alpha	89.996072
_cell_angle_beta	89.997574
_cell_angle_gamma	87.841460
loop_
_atom_site_label
_atom_site_type_symbol
_atom_site_fract_x
_atom_site_fract_y
_atom_site_fract_z
O1	O	1.971075	0.115055	-0.147464
O2	O	2.471075	0.615055	0.352536
O3	O	1.542665	0.124495	-0.147472
O4	O	2.042665	0.624495	0.352528
O5	O	1.755153	0.005620	-0.147454
O6	O	2.255153	0.505620	0.352546
O7	O	1.758588	0.233930	-0.147482
O8	O	2.258588	0.733930	0.352518
O9	O	1.755139	0.005618	0.147511
O10	O	2.255139	0.505618	0.647511
O11	O	1.542652	0.124494	0.147493
O12	O	2.042652	0.624494	0.647493
O13	O	1.971061	0.115053	0.147501
O14	O	2.471061	0.615053	0.647501
Cu15	Cu	1.756855	0.119773	0.174429
Cu16	Cu	2.256855	0.619773	0.674429
Cu17	Cu	1.756871	0.119775	-0.174401
Cu18	Cu	2.256871	0.619775	0.325599
O19	O	1.758574	0.233928	0.147483
O20	O	2.258574	0.733928	0.647483
C21	C	1.487588	0.123588	0.000009
C22	C	1.987588	0.623588	0.500009
C23	C	1.323493	0.120876	0.000006
C24	C	1.823493	0.620876	0.500006
C25	C	1.750727	-0.023625	0.000028
C26	C	2.250727	0.476375	0.500028
C27	C	1.737544	-0.110762	0.000027
C28	C	2.237544	0.389238	0.500027
C29	C	1.864750	-0.160100	0.000031
C30	C	2.364750	0.339900	0.500031
C31	C	1.852353	-0.241975	0.000014
C32	C	2.352353	0.258025	0.500014
C33	C	1.712749	-0.274510	0.000006
C34	C	2.212749	0.225490	0.500006
C35	C	1.585534	-0.225166	-0.000004
C36	C	2.085534	0.274834	0.499996
C37	C	1.597932	-0.143293	0.000001
C38	C	2.097932	0.356707	0.500001
C39	C	1.661366	-0.518472	-0.000020
C40	C	2.161366	-0.018472	0.499980
C41	C	1.648977	-0.600352	-0.000019
C42	C	2.148977	-0.100352	0.499981
C43	C	1.915798	-0.617155	-0.000004
C44	C	2.415798	-0.117155	0.499996
C45	C	1.928183	-0.535280	0.000011
C46	C	2.428183	-0.035280	0.500011
C47	C	1.800968	-0.485943	-0.000008
C48	C	2.300968	0.014057	0.499992
N49	N	1.700075	-0.358199	-0.000006
N50	N	2.200075	0.141801	0.499994
N51	N	1.813644	-0.402256	-0.000008
N52	N	2.313644	0.097744	0.499992
C53	C	2.026139	0.115961	0.000015
C54	C	2.526139	0.615961	0.500015
C55	C	2.190234	0.118672	0.000006
C56	C	2.690234	0.618672	0.500006
C57	C	1.762999	0.263173	-0.000003
C58	C	2.262999	0.763173	0.499997
C59	C	1.776183	0.350311	-0.000014
C60	C	2.276183	0.850311	0.499986
N61	N	1.756855	0.119771	0.419778
N62	N	2.256855	0.619771	0.919778
N63	N	1.756883	0.119771	-0.419749
N64	N	2.256883	0.619771	0.080251
H65	H	1.955938	-0.282143	0.000022
H66	H	2.455938	0.217857	0.500022
H67	H	2.019369	-0.657334	0.000008
H68	H	2.519369	-0.157334	0.500008
O69	O	1.434956	-0.260252	-0.000019
O70	O	1.934956	0.239748	0.499981
H71	H	1.373357	-0.240503	0.120195
H72	H	1.873357	0.259497	0.620195
O73	O	1.498398	-0.635448	-0.000048
O74	O	1.998398	-0.135448	0.499952
H75	H	1.412019	-0.587387	-0.000081
H76	H	1.912019	-0.087387	0.499919
H77	H	1.557777	-0.478311	-0.000035
H78	H	2.057777	0.021689	0.499965
H79	H	2.041863	-0.508796	0.000019
H80	H	2.541863	-0.008796	0.500019
O81	O	1.460729	-0.090075	0.000019
O82	O	1.960729	0.409925	0.500019
H83	H	1.394375	-0.101759	-0.120196
H84	H	1.894375	0.398241	0.379804
O85	O	2.015323	-0.125009	0.000024
O86	O	2.515323	0.374991	0.500024
H87	H	2.101693	-0.173075	0.000001
H88	H	2.601693	0.326925	0.500001
