data_functionalizedCrystal
_audit_creation_method	'MofGen! by Chris Wilmer'
_symmetry_space_group_name_H-M	'P1'
_symmetry_Int_Tables_number	1
_symmetry_cell_setting	triclinic
loop_
_symmetry_equiv_pos_as_xyz
  x,y,z
_cell_length_a	17.077404
_cell_length_b	21.295417
_cell_length_c	17.077396
_cell_angle_alpha	89.966808
_cell_angle_beta	89.980499
_cell_angle_gamma	90.030732
loop_
_atom_site_label
_atom_site_type_symbol
_atom_site_fract_x
_atom_site_fract_y
_atom_site_fract_z
Zn1	Zn	1.200013	-0.250605	-0.443817
Zn2	Zn	1.533346	0.082728	-0.110484
Zn3	Zn	1.866680	0.416061	0.222850
Zn4	Zn	1.199903	-0.355878	-0.312540
Zn5	Zn	1.533236	-0.022545	0.020793
Zn6	Zn	1.866569	0.310788	0.354126
Zn7	Zn	1.068745	-0.250628	-0.312565
Zn8	Zn	1.402078	0.082706	0.020768
Zn9	Zn	1.735412	0.416039	0.354102
Zn10	Zn	1.068695	-0.355841	-0.443764
Zn11	Zn	1.402029	-0.022508	-0.110430
Zn12	Zn	1.735362	0.310826	0.222903
O13	O	1.134339	-0.303238	-0.378171
O14	O	1.467672	0.030095	-0.044838
O15	O	1.801006	0.363429	0.288495
O16	O	1.309845	-0.264577	-0.426415
O17	O	1.643179	0.068757	-0.093081
O18	O	1.976512	0.402090	0.240252
O19	O	1.182479	-0.341942	-0.202697
O20	O	1.515812	-0.008608	0.130637
O21	O	1.849145	0.324725	0.463970
O22	O	1.086225	-0.162535	-0.330008
O23	O	1.419558	0.170798	0.003325
O24	O	1.752891	0.504131	0.336658
O25	O	1.309764	-0.341920	-0.329966
O26	O	1.643098	-0.008587	0.003367
O27	O	1.976431	0.324746	0.336700
O28	O	1.182667	-0.162519	-0.426439
O29	O	1.516000	0.170814	-0.093105
O30	O	1.849334	0.504148	0.240228
O31	O	1.086118	-0.264614	-0.202715
O32	O	1.419451	0.068719	0.130619
O33	O	1.752784	0.402052	0.463952
O34	O	0.958891	-0.264578	-0.329957
O35	O	1.292225	0.068755	0.003376
O36	O	1.625558	0.402089	0.336710
O37	O	1.086140	-0.341857	-0.553618
O38	O	1.419474	-0.008523	-0.220285
O39	O	1.752807	0.324810	0.113049
O40	O	0.958855	-0.341878	-0.426348
O41	O	1.292188	-0.008545	-0.093015
O42	O	1.625522	0.324789	0.240319
O43	O	1.182619	-0.264540	-0.553657
O44	O	1.515952	0.068793	-0.220324
O45	O	1.849286	0.402126	0.113010
O46	O	1.182431	-0.443963	-0.329915
O47	O	1.515764	-0.110630	0.003419
O48	O	1.849098	0.222704	0.336752
O49	O	1.086033	-0.443935	-0.426324
O50	O	1.419367	-0.110602	-0.092991
O51	O	1.752700	0.222731	0.240343
C52	C	0.930391	-0.303227	-0.378150
C53	C	1.263724	0.030107	-0.044816
C54	C	1.597058	0.363440	0.288517
C55	C	0.843141	-0.303237	-0.378159
C56	C	1.176475	0.030096	-0.044826
C57	C	1.509808	0.363430	0.288507
C58	C	1.134236	-0.466790	-0.378128
C59	C	1.467569	-0.133456	-0.044795
C60	C	1.800903	0.199877	0.288539
C61	C	1.134264	-0.536758	-0.378136
C62	C	1.467597	-0.203425	-0.044802
C63	C	1.800931	0.129909	0.288531
C64	C	0.802153	-0.343548	-0.428270
C65	C	1.135486	-0.010215	-0.094936
C66	C	1.468819	0.323119	0.238397
C67	C	0.720172	-0.343549	-0.428282
C68	C	1.053506	-0.010216	-0.094949
C69	C	1.386839	0.323117	0.238385
C70	C	0.679182	-0.303242	-0.378180
C71	C	1.012515	0.030091	-0.044846
C72	C	1.345849	0.363424	0.288487
C73	C	0.720176	-0.262927	-0.328067
C74	C	1.053510	0.070406	0.005266
C75	C	1.386843	0.403739	0.338600
C76	C	0.802155	-0.262923	-0.328059
C77	C	1.135489	0.070410	0.005274
C78	C	1.468822	0.403744	0.338608
C79	C	0.549306	-0.262940	-0.328086
C80	C	0.882640	0.070394	0.005247
C81	C	1.215973	0.403727	0.338581
C82	C	0.467322	-0.262944	-0.328093
C83	C	0.800655	0.070389	0.005241
C84	C	1.133988	0.403722	0.338574
C85	C	0.467323	-0.343566	-0.428309
C86	C	0.800657	-0.010232	-0.094976
C87	C	1.133990	0.323101	0.238358
C88	C	0.549302	-0.343562	-0.428301
C89	C	0.882636	-0.010228	-0.094968
C90	C	1.215969	0.323105	0.238366
C91	C	0.590291	-0.303247	-0.378187
C92	C	0.923624	0.030086	-0.044854
C93	C	1.256958	0.363420	0.288480
C94	C	1.184503	-0.569618	-0.327987
C95	C	1.517836	-0.236285	0.005347
C96	C	1.851169	0.097049	0.338680
C97	C	1.184539	-0.635360	-0.328004
C98	C	1.517873	-0.302027	0.005329
C99	C	1.851206	0.031306	0.338662
C100	C	1.134323	-0.668240	-0.378163
C101	C	1.467657	-0.334907	-0.044829
C102	C	1.800990	-0.001574	0.288504
C103	C	1.084081	-0.635372	-0.428321
C104	C	1.417415	-0.302039	-0.094988
C105	C	1.750748	0.031294	0.238345
C106	C	1.084051	-0.569631	-0.428308
C107	C	1.417385	-0.236298	-0.094975
C108	C	1.750718	0.097036	0.238359
N109	N	1.065655	-0.771506	-0.384140
N110	N	1.398988	-0.438173	-0.050806
N111	N	1.732321	-0.104840	0.282527
N112	N	1.065685	-0.833958	-0.384148
N113	N	1.399019	-0.500624	-0.050815
N114	N	1.732352	-0.167291	0.282519
C115	C	1.134411	-0.866315	-0.378208
C116	C	1.467745	-0.532982	-0.044874
C117	C	1.801078	-0.199648	0.288459
N118	N	1.203107	-0.833862	-0.372244
N119	N	1.536441	-0.500528	-0.038910
N120	N	1.869774	-0.167195	0.294423
N121	N	1.203076	-0.771405	-0.372231
N122	N	1.536409	-0.438071	-0.038898
N123	N	1.869743	-0.104738	0.294435
C124	C	1.134351	-0.739526	-0.378183
C125	C	1.467684	-0.406192	-0.044850
C126	C	1.801017	-0.072859	0.288483
C127	C	1.184694	-0.970461	-0.328075
C128	C	1.518028	-0.637127	0.005258
C129	C	1.851361	-0.303794	0.338591
C130	C	1.184732	-1.036204	-0.328098
C131	C	1.518066	-0.702871	0.005235
C132	C	1.851399	-0.369538	0.338568
C133	C	1.084267	-1.036215	-0.428411
C134	C	1.417600	-0.702882	-0.095078
C135	C	1.750934	-0.369548	0.238255
C136	C	1.084236	-0.970473	-0.428392
C137	C	1.417569	-0.637139	-0.095059
C138	C	1.750903	-0.303806	0.238274
C139	C	1.134449	-0.937599	-0.378220
C140	C	1.467782	-0.604266	-0.044887
C141	C	1.801115	-0.270933	0.288447
C142	C	1.339083	-0.303250	-0.378194
C143	C	1.672417	0.030083	-0.044860
C144	C	2.005750	0.363417	0.288473
C145	C	1.426333	-0.303255	-0.378203
C146	C	1.759666	0.030078	-0.044870
C147	C	2.093000	0.363412	0.288464
C148	C	1.134386	-0.303192	-0.582916
C149	C	1.467720	0.030142	-0.249583
C150	C	1.801053	0.363475	0.083751
C151	C	1.134407	-0.303172	-0.670166
C152	C	1.467740	0.030161	-0.336832
C153	C	1.801073	0.363495	-0.003499
C154	C	1.134464	-0.139048	-0.378232
C155	C	1.467797	0.194285	-0.044899
C156	C	1.801130	0.527619	0.288434
C157	C	1.134517	-0.069080	-0.378258
C158	C	1.467850	0.264254	-0.044925
C159	C	1.801183	0.597587	0.288408
C160	C	1.184645	-0.262910	-0.711177
C161	C	1.517978	0.070423	-0.377844
C162	C	1.851312	0.403757	-0.044511
C163	C	1.184654	-0.262889	-0.793158
C164	C	1.517988	0.070444	-0.459825
C165	C	1.851321	0.403778	-0.126491
C166	C	1.134429	-0.303134	-0.834125
C167	C	1.467762	0.030200	-0.500792
C168	C	1.801096	0.363533	-0.167459
C169	C	1.084185	-0.343397	-0.793108
C170	C	1.417519	-0.010064	-0.459774
C171	C	1.750852	0.323269	-0.126441
C172	C	1.084172	-0.343415	-0.711129
C173	C	1.417506	-0.010081	-0.377795
C174	C	1.750839	0.323252	-0.044462
C175	C	1.084217	-0.343360	-0.963978
C176	C	1.417550	-0.010026	-0.630645
C177	C	1.750884	0.323307	-0.297311
C178	C	1.084231	-0.343343	-1.045963
C179	C	1.417564	-0.010010	-0.712629
C180	C	1.750897	0.323323	-0.379296
C181	C	1.184699	-0.262834	-1.046007
C182	C	1.518032	0.070499	-0.712674
C183	C	1.851365	0.403833	-0.379340
C184	C	1.184686	-0.262851	-0.964028
C185	C	1.518019	0.070482	-0.630695
C186	C	1.851353	0.403815	-0.297361
C187	C	1.134443	-0.303116	-0.923016
C188	C	1.467776	0.030217	-0.589683
C189	C	1.801110	0.363551	-0.256350
C190	C	1.134337	-0.303239	-0.174224
C191	C	1.467670	0.030094	0.159110
C192	C	1.801004	0.363428	0.492443
C193	C	1.134469	-0.303081	-0.086974
C194	C	1.467802	0.030252	0.246359
C195	C	1.801135	0.363585	0.579692
H196	H	0.835521	-0.376372	-0.469066
H197	H	1.168855	-0.043039	-0.135733
H198	H	1.502188	0.290294	0.197600
Cl199	Cl	1.021011	-0.394030	-0.659571
Cl200	Cl	1.354344	-0.060697	-0.326237
Cl201	Cl	1.687677	0.272637	0.007096
Cl202	Cl	0.415792	-0.212275	-0.265102
Cl203	Cl	0.749125	0.121058	0.068231
Cl204	Cl	1.082458	0.454392	0.401564
Cl205	Cl	0.853684	-0.212243	-0.265062
Cl206	Cl	1.187017	0.121090	0.068271
Cl207	Cl	1.520351	0.454424	0.401604
Cl208	Cl	1.247817	-0.929131	-0.265003
Cl209	Cl	1.581150	-0.595798	0.068331
Cl210	Cl	1.914483	-0.262465	0.401664
Cl211	Cl	0.415795	-0.394238	-0.491320
Cl212	Cl	0.749129	-0.060905	-0.157987
Cl213	Cl	1.082462	0.272429	0.175346
H214	H	0.582677	-0.230106	-0.287285
H215	H	0.916010	0.103228	0.046048
H216	H	1.249343	0.436561	0.379382
Cl217	Cl	0.668647	-0.394228	-0.491281
Cl218	Cl	1.001981	-0.060895	-0.157948
Cl219	Cl	1.335314	0.272439	0.175386
H220	H	0.582674	-0.376386	-0.469094
H221	H	0.916008	-0.043053	-0.135761
H222	H	1.249341	0.290280	0.197572
H223	H	1.225390	-0.542854	-0.287136
H224	H	1.558724	-0.209521	0.046198
H225	H	1.892057	0.123812	0.379531
Cl226	Cl	1.247862	-0.212216	-1.097564
Cl227	Cl	1.581196	0.121117	-0.764231
Cl228	Cl	1.914529	0.454450	-0.430898
Cl229	Cl	1.247700	-0.676679	-0.264954
Cl230	Cl	1.581033	-0.343346	0.068380
Cl231	Cl	1.914367	-0.010012	0.401713
Cl232	Cl	1.247902	-1.077515	-0.265054
Cl233	Cl	1.581235	-0.744181	0.068280
Cl234	Cl	1.914568	-0.410848	0.401613
Cl235	Cl	1.021143	-1.077544	-0.491474
Cl236	Cl	1.354476	-0.744210	-0.158141
Cl237	Cl	1.687810	-0.410877	0.175193
Cl238	Cl	1.021071	-0.929160	-0.491437
Cl239	Cl	1.354405	-0.595827	-0.158104
Cl240	Cl	1.687738	-0.262494	0.175230
Cl241	Cl	0.668645	-0.212251	-0.265086
Cl242	Cl	1.001979	0.121082	0.068247
Cl243	Cl	1.335312	0.454415	0.401581
H244	H	1.043196	-0.662147	-0.469162
H245	H	1.376530	-0.328814	-0.135829
H246	H	1.709863	0.004519	0.197505
H247	H	1.043140	-0.542876	-0.469146
H248	H	1.376474	-0.209543	-0.135813
H249	H	1.709807	0.123791	0.197521
H250	H	1.225547	-0.230140	-0.677828
H251	H	1.558880	0.103193	-0.344495
H252	H	1.892213	0.436527	-0.011161
H253	H	1.225565	-0.230105	-0.826546
H254	H	1.558899	0.103228	-0.493213
H255	H	1.892232	0.436561	-0.159880
H256	H	1.225588	-0.230084	-0.930675
H257	H	1.558922	0.103249	-0.597342
H258	H	1.892255	0.436583	-0.264008
H259	H	1.043331	-0.376113	-1.079316
H260	H	1.376664	-0.042779	-0.745983
H261	H	1.709998	0.290554	-0.412649
H262	H	1.043291	-0.376138	-0.930589
H263	H	1.376625	-0.042804	-0.597255
H264	H	1.709958	0.290529	-0.263922
Cl265	Cl	1.021041	-0.393989	-0.844610
Cl266	Cl	1.354375	-0.060655	-0.511276
Cl267	Cl	1.687708	0.272678	-0.177943
