data_functionalizedCrystal
_audit_creation_method	'MofGen! by Chris Wilmer'
_symmetry_space_group_name_H-M	'P1'
_symmetry_Int_Tables_number	1
_symmetry_cell_setting	triclinic
loop_
_symmetry_equiv_pos_as_xyz
  x,y,z
_cell_length_a	17.699077
_cell_length_b	11.792254
_cell_length_c	16.776229
_cell_angle_alpha	89.993192
_cell_angle_beta	89.993415
_cell_angle_gamma	83.739587
loop_
_atom_site_label
_atom_site_type_symbol
_atom_site_fract_x
_atom_site_fract_y
_atom_site_fract_z
O1	O	1.004851	0.143494	-0.066278
O2	O	1.504851	0.643494	0.433722
O3	O	0.784572	0.162174	-0.066282
O4	O	1.284572	0.662174	0.433718
O5	O	0.900052	-0.012400	-0.066274
O6	O	1.400052	0.487600	0.433726
O7	O	0.889370	0.318067	-0.066286
O8	O	1.389370	0.818067	0.433714
O9	O	0.900036	-0.012411	0.066302
O10	O	1.400036	0.487589	0.566302
O11	O	0.784556	0.162163	0.066295
O12	O	1.284556	0.662163	0.566295
O13	O	1.004835	0.143483	0.066299
O14	O	1.504835	0.643483	0.566299
Zn15	Zn	0.894693	0.152821	0.087346
Zn16	Zn	1.394693	0.652821	0.587346
Zn17	Zn	0.894714	0.152835	-0.087329
Zn18	Zn	1.394714	0.652835	0.412671
O19	O	0.889355	0.318057	0.066291
O20	O	1.389355	0.818057	0.566291
C21	C	0.756363	0.161500	0.000006
C22	C	1.256363	0.661500	0.500006
C23	C	0.672334	0.159496	0.000004
C24	C	1.172334	0.659496	0.500004
C25	C	0.632853	0.158545	0.072273
C26	C	1.132853	0.658545	0.572273
C27	C	0.553901	0.156644	0.072274
C28	C	1.053901	0.656644	0.572274
C29	C	0.514429	0.155700	0.000005
C30	C	1.014429	0.655700	0.500005
C31	C	0.553916	0.156648	-0.072268
C32	C	1.053916	0.656648	0.427732
C33	C	0.632868	0.158541	-0.072269
C34	C	1.132868	0.658541	0.427731
C35	C	0.235512	0.149010	-0.072270
C36	C	0.735512	0.649010	0.427730
C37	C	0.156554	0.147120	-0.072264
C38	C	0.656554	0.647120	0.427736
C39	C	0.156544	0.147112	0.072273
C40	C	0.656544	0.647112	0.572273
C41	C	0.235496	0.149006	0.072272
C42	C	0.735496	0.649006	0.572272
C43	C	0.274977	0.149947	-0.000001
C44	C	0.774977	0.649947	0.499999
C45	C	0.360586	0.152007	-0.000001
C46	C	0.860586	0.652007	0.499999
C47	C	0.428821	0.153649	0.000005
C48	C	0.928821	0.653649	0.500005
C49	C	0.899371	-0.054688	0.000014
C50	C	1.399371	0.445312	0.500014
C51	C	0.897357	-0.180677	0.000013
C52	C	1.397357	0.319323	0.500013
C53	C	0.895721	-0.282994	0.000010
C54	C	1.395721	0.217006	0.500010
C55	C	0.893675	-0.411356	0.000003
C56	C	1.393675	0.088644	0.500003
C57	C	1.033043	0.144156	0.000009
C58	C	1.533043	0.644156	0.500009
C59	C	1.117072	0.146161	0.000005
C60	C	1.617072	0.646161	0.500005
C61	C	0.890036	0.360345	0.000001
C62	C	1.390036	0.860345	0.500001
C63	C	0.892050	0.486333	-0.000003
C64	C	1.392050	0.986333	0.499997
N65	N	0.894685	0.152811	0.206557
N66	N	1.394685	0.652811	0.706557
N67	N	0.894728	0.152837	-0.206541
N68	N	1.394728	0.652837	0.293459
C69	C	0.945835	0.075541	0.248278
C70	C	1.445835	0.575541	0.748278
C71	C	0.945839	0.075540	0.331730
C72	C	1.445839	0.575540	0.831730
C73	C	0.894696	0.152815	0.373460
C74	C	1.394696	0.652815	0.873460
C75	C	0.843540	0.230089	0.331734
C76	C	1.343540	0.730089	0.831734
C77	C	0.843533	0.230083	0.248283
C78	C	1.343533	0.730083	0.748283
C79	C	0.843568	0.230111	0.668281
C80	C	1.343568	0.730111	1.168281
C81	C	0.843581	0.230113	0.751737
C82	C	1.343581	0.730113	1.251737
C83	C	0.945874	0.075568	0.751728
C84	C	1.445874	0.575568	1.251728
C85	C	0.945867	0.075563	0.668277
C86	C	1.445867	0.575563	1.168277
C87	C	0.894709	0.152831	0.626558
C88	C	1.394709	0.652831	1.126558
C89	C	0.894704	0.152830	0.536070
C90	C	1.394704	0.652830	1.036070
C91	C	0.894704	0.152823	0.463947
C92	C	1.394704	0.652823	0.963947
H93	H	0.665012	0.159317	-0.131117
H94	H	1.165012	0.659317	0.368883
H95	H	0.987485	0.012620	0.214306
H96	H	1.487485	0.512620	0.714306
O97	O	0.788365	0.313415	0.203271
O98	O	1.288365	0.813415	0.703271
H99	H	0.798370	0.401881	0.219260
H100	H	1.298370	0.901881	0.719260
O101	O	1.001022	-0.007779	0.376732
O102	O	1.501022	0.492221	0.876732
H103	H	1.036594	-0.061497	0.333694
H104	H	1.536594	0.438503	0.833694
O105	O	0.511358	0.155596	0.150245
O106	O	1.011358	0.655596	0.650245
H107	H	0.532983	0.078629	0.184878
H108	H	1.032983	0.578629	0.684878
H109	H	0.267648	0.149772	-0.131119
H110	H	0.767648	0.649772	0.368881
O111	O	0.113990	0.146068	-0.150219
O112	O	0.613990	0.646068	0.349781
H113	H	0.122721	0.223741	-0.184896
H114	H	0.622721	0.723741	0.315104
O115	O	0.278069	0.150049	0.150218
O116	O	0.778069	0.650049	0.650218
H117	H	0.237350	0.149068	0.200472
H118	H	0.737350	0.649068	0.700472
O119	O	1.001023	-0.007789	0.623266
O120	O	1.501023	0.492211	1.123266
H121	H	1.036587	-0.061530	0.666297
H122	H	1.536587	0.438470	1.166297
H123	H	0.664984	0.159322	0.131122
H124	H	1.164984	0.659322	0.631122
H125	H	0.987528	0.012648	0.785704
H126	H	1.487528	0.512648	1.285704
H127	H	0.801931	0.293041	0.785713
H128	H	1.301931	0.793041	1.285713
H129	H	0.801914	0.293028	0.634320
H130	H	1.301914	0.793028	1.134320
H131	H	0.801895	0.293004	0.365715
H132	H	1.301895	0.793004	0.865715
O133	O	0.114081	0.146220	0.150307
O134	O	0.614081	0.646220	0.650307
H135	H	0.122919	0.223968	0.184835
H136	H	0.622919	0.723968	0.684835
O137	O	0.511349	0.155635	-0.150219
O138	O	1.011349	0.655635	0.349781
H139	H	0.449814	0.154172	-0.138079
H140	H	0.949814	0.654172	0.361921
