data_functionalizedCrystal
_audit_creation_method	'MofGen! by Chris Wilmer'
_symmetry_space_group_name_H-M	'P1'
_symmetry_Int_Tables_number	1
_symmetry_cell_setting	triclinic
loop_
_symmetry_equiv_pos_as_xyz
  x,y,z
_cell_length_a	29.839134
_cell_length_b	29.839131
_cell_length_c	29.839125
_cell_angle_alpha	90.017709
_cell_angle_beta	90.012189
_cell_angle_gamma	90.021992
loop_
_atom_site_label
_atom_site_type_symbol
_atom_site_fract_x
_atom_site_fract_y
_atom_site_fract_z
Zn1	Zn	0.686719	-0.179149	0.254008
Zn2	Zn	0.686652	-0.254261	0.178878
Zn3	Zn	0.611602	-0.179121	0.178890
Zn4	Zn	0.611550	-0.254227	0.253979
O5	O	0.649131	-0.216690	0.216439
O6	O	0.749578	-0.189139	0.244048
O7	O	0.676690	-0.244296	0.116012
O8	O	0.621617	-0.116257	0.188872
O9	O	0.749528	-0.244324	0.188851
O10	O	0.676805	-0.116278	0.244060
O11	O	0.621551	-0.189090	0.116021
O12	O	0.548728	-0.189058	0.188844
O13	O	0.621528	-0.244266	0.316850
O14	O	0.548690	-0.244238	0.244011
O15	O	0.676755	-0.189106	0.316871
O16	O	0.676639	-0.317124	0.188823
O17	O	0.621462	-0.317099	0.243999
C18	C	0.532408	-0.216641	0.216426
C19	C	0.482474	-0.216632	0.216431
C20	C	0.649050	-0.333412	0.216416
C21	C	0.649056	-0.383347	0.216422
C22	C	0.125909	-0.188015	0.245237
C23	C	0.313582	-0.187979	0.245226
O24	O	0.337865	-0.163591	0.269715
N25	N	0.337029	-0.216661	0.216442
C26	C	0.313555	-0.245357	0.187660
O27	O	0.337804	-0.269755	0.163181
C28	C	0.125883	-0.245395	0.187673
C29	C	0.102438	-0.216707	0.216456
C30	C	0.102464	-0.159330	0.274017
C31	C	0.055548	-0.159338	0.274018
C32	C	0.032078	-0.188030	0.245238
C33	C	0.055522	-0.216715	0.216457
C34	C	0.102409	-0.274092	0.158894
C35	C	0.055488	-0.274100	0.158901
C36	C	0.032044	-0.245412	0.187684
C37	C	-0.014864	-0.245415	0.187677
N38	N	-0.038311	-0.216732	0.216461
C39	C	-0.014840	-0.188040	0.245242
C40	C	0.412085	-0.245334	0.187655
C41	C	0.459003	-0.245324	0.187651
C42	C	0.459027	-0.187947	0.245218
C43	C	0.412108	-0.187955	0.245219
C44	C	0.388638	-0.216652	0.216439
C45	C	-0.113366	-0.188058	0.245240
C46	C	-0.160286	-0.188067	0.245237
C47	C	-0.160305	-0.245445	0.187672
C48	C	-0.113390	-0.245435	0.187674
C49	C	-0.089921	-0.216740	0.216461
O50	O	-0.039176	-0.269794	0.163204
O51	O	-0.039098	-0.163652	0.269725
C52	C	0.172824	-0.188007	0.245236
C53	C	0.196269	-0.216692	0.216455
C54	C	0.172798	-0.245384	0.187675
C55	C	0.243187	-0.216682	0.216451
C56	C	0.266657	-0.187990	0.245231
C57	C	0.243210	-0.159308	0.274016
C58	C	0.196295	-0.159315	0.274016
C59	C	0.196245	-0.274067	0.158891
C60	C	0.243161	-0.274056	0.158892
C61	C	0.266631	-0.245364	0.187672
C62	C	0.677914	-0.692990	0.187750
C63	C	0.677969	-0.880663	0.187767
O64	O	0.702440	-0.904928	0.163373
N65	N	0.649224	-0.904132	0.216472
C66	C	0.620465	-0.880679	0.245177
O67	O	0.596020	-0.904946	0.269596
C68	C	0.620412	-0.693007	0.245162
C69	C	0.649156	-0.669541	0.216452
C70	C	0.706655	-0.669524	0.159043
C71	C	0.706640	-0.622609	0.159037
C72	C	0.677882	-0.599159	0.187738
C73	C	0.649140	-0.622625	0.216446
C74	C	0.591656	-0.669555	0.273868
C75	C	0.591646	-0.622634	0.273863
C76	C	0.620390	-0.599168	0.245153
C77	C	0.620367	-0.552260	0.245141
N78	N	0.649112	-0.528792	0.216437
C79	C	0.677869	-0.552242	0.187735
C80	C	0.620494	-0.979209	0.245183
C81	C	0.620507	-1.026127	0.245186
C82	C	0.678012	-1.026109	0.187777
C83	C	0.677996	-0.979190	0.187772
C84	C	0.649239	-0.955741	0.216478
C85	C	0.677834	-0.453716	0.187725
C86	C	0.677814	-0.406796	0.187720
C87	C	0.620311	-0.406819	0.245131
C88	C	0.620329	-0.453734	0.245134
C89	C	0.649094	-0.477182	0.216429
O90	O	0.595912	-0.527966	0.269527
O91	O	0.702318	-0.527966	0.163327
C92	C	0.677930	-0.739906	0.187756
C93	C	0.649188	-0.763372	0.216463
C94	C	0.620430	-0.739922	0.245165
C95	C	0.649200	-0.810289	0.216467
C96	C	0.677958	-0.833739	0.187765
C97	C	0.706703	-0.810271	0.159060
C98	C	0.706687	-0.763355	0.159054
C99	C	0.591685	-0.763390	0.273870
C100	C	0.591703	-0.810306	0.273873
C101	C	0.620461	-0.833755	0.245171
C102	C	0.766309	-0.216738	0.216451
C103	C	0.816244	-0.216759	0.216457
C104	C	0.649143	-0.216686	0.333617
C105	C	0.649148	-0.216684	0.383551
C106	C	0.649225	-0.099511	0.216471
C107	C	0.649264	-0.049577	0.216484
C108	C	0.649145	-0.216661	0.099716
C109	C	0.649227	-0.216536	0.049782
C110	C	0.677935	-0.187887	0.693209
C111	C	0.677957	-0.187849	0.880882
O112	O	0.702399	-0.163407	0.905159
N113	N	0.649208	-0.216564	0.904337
C114	C	0.620449	-0.245288	0.880870
O115	O	0.595993	-0.269708	0.905126
C116	C	0.620424	-0.245324	0.693198
C117	C	0.649179	-0.216610	0.669746
C118	C	0.706687	-0.159175	0.669757
C119	C	0.706683	-0.159187	0.622841
C120	C	0.677927	-0.187910	0.599378
C121	C	0.649175	-0.216622	0.622830
C122	C	0.591663	-0.274045	0.669732
C123	C	0.591659	-0.274051	0.622811
C124	C	0.620414	-0.245337	0.599359
C125	C	0.620415	-0.245356	0.552451
N126	N	0.649164	-0.216642	0.528997
C127	C	0.677920	-0.187918	0.552460
C128	C	0.620464	-0.245268	0.979401
C129	C	0.620471	-0.245260	1.026319
C130	C	0.677979	-0.187820	1.026327
C131	C	0.677974	-0.187830	0.979409
C132	C	0.649213	-0.216553	0.955946
C133	C	0.677910	-0.187945	0.453934
C134	C	0.677904	-0.187961	0.407015
C135	C	0.620395	-0.245399	0.407010
C136	C	0.620401	-0.245385	0.453926
C137	C	0.649160	-0.216655	0.477386
O138	O	0.595982	-0.269782	0.528146
O139	O	0.702365	-0.163495	0.528196
C140	C	0.677939	-0.187875	0.740124
C141	C	0.649187	-0.216587	0.763577
C142	C	0.620431	-0.245310	0.740113
C143	C	0.649194	-0.216579	0.810494
C144	C	0.677950	-0.187856	0.833958
C145	C	0.706699	-0.159141	0.810503
C146	C	0.706695	-0.159152	0.763588
C147	C	0.591682	-0.274025	0.763568
C148	C	0.591689	-0.274011	0.810483
C149	C	0.620445	-0.245288	0.833947
H150	H	-0.179372	-0.164704	0.268675
C151	C	0.709608	-0.156221	1.052143
C152	C	0.705975	-0.105149	1.045701
C153	C	0.737599	-0.073549	1.071519
C154	C	0.772856	-0.093021	1.103779
C155	C	0.776491	-0.144095	1.110222
C156	C	0.744867	-0.175695	1.084404
H157	H	0.679874	-0.090732	1.021819
H158	H	0.734908	-0.035740	1.066749
H159	H	0.796267	-0.069629	1.122891
H160	H	0.802592	-0.158512	1.134104
H161	H	0.747558	-0.213504	1.089174
C162	C	0.029672	-0.305666	0.127240
C163	C	0.036113	-0.301924	0.076175
C164	C	0.010297	-0.333489	0.044514
C165	C	-0.021959	-0.368795	0.063918
C166	C	-0.028402	-0.372538	0.114986
C167	C	-0.002586	-0.340974	0.146647
H168	H	0.059993	-0.275787	0.061809
H169	H	0.015067	-0.330718	0.006711
H170	H	-0.041070	-0.392161	0.040481
H171	H	-0.052282	-0.398675	0.129352
H172	H	-0.007356	-0.343745	0.184451
C173	C	0.386271	-0.276899	0.155991
C174	C	0.354017	-0.312211	0.175390
C175	C	0.328205	-0.343774	0.143725
C176	C	0.334647	-0.340025	0.092661
C177	C	0.366902	-0.304712	0.073259
C178	C	0.392714	-0.273149	0.104924
H179	H	0.349247	-0.314987	0.213194
H180	H	0.304328	-0.369915	0.158088
H181	H	0.315539	-0.363390	0.069220
H182	H	0.371672	-0.301936	0.035456
H183	H	0.416592	-0.247008	0.090562
H184	H	0.701321	-0.164578	0.387922
C185	C	0.128278	-0.127766	0.305678
C186	C	0.160531	-0.092456	0.286275
C187	C	0.186341	-0.060887	0.317935
C188	C	0.179899	-0.064628	0.369000
C189	C	0.147644	-0.099939	0.388407
C190	C	0.121834	-0.131508	0.356746
H191	H	0.165301	-0.089686	0.248471
H192	H	0.210218	-0.034748	0.303569
H193	H	0.199005	-0.041259	0.392438
H194	H	0.142874	-0.102709	0.426211
H195	H	0.097957	-0.157648	0.371112
C196	C	0.560046	-0.305617	0.737758
C197	C	0.579475	-0.340904	0.705500
C198	C	0.547837	-0.372498	0.679691
C199	C	0.496770	-0.368804	0.686140
C200	C	0.477338	-0.333516	0.718400
C201	C	0.508976	-0.301923	0.744209
H202	H	0.617281	-0.343640	0.700725
H203	H	0.562223	-0.398621	0.655810
H204	H	0.473350	-0.392192	0.667034
H205	H	0.439533	-0.330781	0.723175
H206	H	0.494591	-0.275800	0.768090
C207	C	0.738323	-0.127564	0.737794
C208	C	0.773579	-0.147046	0.705542
C209	C	0.805207	-0.115454	0.679751
C210	C	0.801579	-0.064381	0.686213
C211	C	0.766322	-0.044896	0.718466
C212	C	0.734693	-0.076487	0.744256
H213	H	0.776266	-0.184856	0.700757
H214	H	0.831307	-0.129879	0.655875
H215	H	0.824992	-0.040995	0.667121
H216	H	0.763635	-0.007086	0.723250
H217	H	0.708593	-0.062063	0.768132
C218	C	0.560048	-0.737599	0.305441
C219	C	0.579472	-0.705316	0.340730
C220	C	0.547830	-0.679526	0.372301
C221	C	0.496764	-0.686019	0.368584
C222	C	0.477337	-0.718304	0.333293
C223	C	0.508979	-0.744094	0.301722
H224	H	0.617276	-0.700507	0.343483
H225	H	0.562212	-0.655626	0.398426
H226	H	0.473341	-0.666928	0.391954
H227	H	0.439533	-0.723113	0.330540
H228	H	0.494598	-0.767994	0.275597
C229	C	0.588771	-0.276996	0.381190
C230	C	0.553518	-0.257520	0.348928
C231	C	0.521895	-0.289117	0.323104
C232	C	0.525524	-0.340190	0.329544
C233	C	0.560778	-0.359668	0.361808
C234	C	0.592402	-0.328071	0.387631
H235	H	0.550830	-0.219711	0.344159
H236	H	0.495797	-0.274698	0.299220
H237	H	0.502115	-0.363579	0.310428
H238	H	0.563466	-0.397477	0.366576
H239	H	0.618499	-0.342491	0.411515
H240	H	0.393023	-0.164594	0.268656
H241	H	0.730093	-0.744253	0.135676
C242	C	0.560081	-0.836115	0.305456
C243	C	0.524830	-0.868403	0.285968
C244	C	0.493212	-0.894209	0.317554
C245	C	0.496845	-0.887727	0.368627
C246	C	0.532097	-0.855438	0.388117
C247	C	0.563715	-0.829631	0.356532
H248	H	0.522139	-0.873202	0.248159
H249	H	0.467116	-0.918112	0.303126
H250	H	0.473439	-0.906831	0.392008
H251	H	0.534788	-0.850638	0.425927
H252	H	0.589811	-0.805728	0.370960
H253	H	0.568247	-0.688653	0.297245
C254	C	0.484850	-0.156389	0.276881
C255	C	0.536458	-0.156386	0.276877
C256	C	0.562283	-0.124834	0.308543
C257	C	0.536501	-0.093285	0.340212
C258	C	0.484891	-0.093287	0.340217
C259	C	0.459065	-0.124839	0.308552
H260	H	0.555546	-0.179741	0.253432
H261	H	0.600489	-0.124832	0.308538
H262	H	0.555619	-0.069928	0.363653
H263	H	0.465802	-0.069932	0.363662
H264	H	0.420859	-0.124840	0.308556
H265	H	0.177210	-0.135955	0.297454
H266	H	0.262328	-0.135943	0.297448
C267	C	0.484789	-0.276877	0.155986
C268	C	0.458966	-0.308439	0.124332
C269	C	0.484750	-0.339996	0.092669
C270	C	0.536357	-0.339991	0.092659
C271	C	0.562184	-0.308429	0.124314
C272	C	0.536400	-0.276872	0.155978
H273	H	0.420760	-0.308443	0.124338
H274	H	0.465631	-0.363360	0.069235
H275	H	0.555444	-0.363351	0.069219
H276	H	0.600390	-0.308424	0.124308
H277	H	0.555519	-0.253507	0.179411
H278	H	0.177140	-0.297432	0.135454
C279	C	0.560024	-0.305649	0.597002
C280	C	0.508956	-0.301960	0.603447
C281	C	0.477322	-0.333558	0.577638
C282	C	0.496757	-0.368845	0.545383
C283	C	0.547828	-0.372535	0.538936
C284	C	0.579461	-0.340937	0.564745
H285	H	0.494567	-0.275837	0.627326
H286	H	0.439516	-0.330825	0.582411
H287	H	0.473340	-0.392236	0.526277
H288	H	0.562217	-0.398658	0.515057
H289	H	0.617267	-0.343669	0.559972
H290	H	0.121490	-0.297452	0.135456
H291	H	0.701326	-0.164549	0.473031
C292	C	0.709435	-0.380985	0.156139
C293	C	0.705809	-0.387464	0.105065
C294	C	0.737430	-0.361655	0.073485
C295	C	0.772677	-0.329366	0.092979
C296	C	0.776305	-0.322886	0.144055
C297	C	0.744684	-0.348695	0.175635
H298	H	0.679716	-0.411367	0.090632
H299	H	0.734745	-0.366452	0.035675
H300	H	0.796085	-0.310261	0.069601
H301	H	0.802398	-0.298982	0.158488
H302	H	0.747370	-0.343897	0.213445
H303	H	0.596991	-0.268770	0.473021
C304	C	0.738338	-0.836071	0.127489
C305	C	0.718905	-0.868358	0.092208
C306	C	0.750540	-0.894161	0.060640
C307	C	0.801608	-0.887677	0.064354
C308	C	0.821043	-0.855389	0.099637
C309	C	0.789408	-0.829586	0.131204
H310	H	0.681100	-0.873159	0.089457
H311	H	0.736153	-0.918063	0.034522
H312	H	0.825026	-0.906778	0.040986
H313	H	0.858848	-0.850588	0.102388
H314	H	0.803795	-0.805684	0.157323
C315	C	0.709472	-0.479503	0.156147
C316	C	0.705834	-0.473071	0.105073
C317	C	0.737468	-0.498858	0.073493
C318	C	0.772742	-0.531079	0.092988
C319	C	0.776381	-0.537513	0.144065
C320	C	0.744746	-0.511725	0.175645
H321	H	0.679721	-0.449218	0.090639
H322	H	0.734774	-0.494095	0.035682
H323	H	0.796160	-0.550168	0.069611
H324	H	0.802494	-0.561366	0.158499
H325	H	0.747441	-0.516489	0.213456
H326	H	0.730115	-0.135755	0.829615
C327	C	0.738292	-0.695313	0.127466
C328	C	0.734655	-0.688875	0.076392
C329	C	0.766291	-0.714659	0.044811
C330	C	0.801563	-0.746881	0.064303
C331	C	0.805202	-0.753321	0.115380
C332	C	0.773566	-0.727537	0.146961
H333	H	0.708542	-0.665020	0.061961
H334	H	0.763597	-0.709892	0.007000
H335	H	0.824982	-0.765968	0.040925
H336	H	0.831314	-0.777175	0.129811
H337	H	0.776259	-0.732304	0.184772
C338	C	-0.087555	-0.156491	0.276903
C339	C	-0.093999	-0.160229	0.327968
C340	C	-0.068188	-0.128660	0.359628
C341	C	-0.035932	-0.093353	0.340223
C342	C	-0.029487	-0.089613	0.289156
C343	C	-0.055298	-0.121183	0.257496
H344	H	-0.117878	-0.186366	0.342335
H345	H	-0.072959	-0.131428	0.397432
H346	H	-0.016825	-0.069983	0.363660
H347	H	-0.005608	-0.063476	0.274789
H348	H	-0.050526	-0.118414	0.219692
H349	H	0.597061	-0.268646	1.045409
C350	C	0.560054	-0.305599	0.836275
C351	C	0.579483	-0.340876	0.868531
C352	C	0.547845	-0.372459	0.894320
C353	C	0.496777	-0.368765	0.887853
C354	C	0.477345	-0.333486	0.855596
C355	C	0.508984	-0.301903	0.829807
H356	H	0.617288	-0.343613	0.873319
H357	H	0.562230	-0.398575	0.918198
H358	H	0.473357	-0.392144	0.906944
H359	H	0.439540	-0.330749	0.850808
H360	H	0.494599	-0.275787	0.805929
H361	H	0.262245	-0.297416	0.135449
C362	C	0.738310	-0.127596	0.597049
C363	C	0.734679	-0.076523	0.603514
C364	C	0.766306	-0.044929	0.577726
C365	C	0.801565	-0.064407	0.545474
C366	C	0.805197	-0.115482	0.539008
C367	C	0.773569	-0.147077	0.564796
H368	H	0.708577	-0.062102	0.627390
H369	H	0.763617	-0.007119	0.582513
H370	H	0.824977	-0.041019	0.526385
H371	H	0.831298	-0.129904	0.515132
H372	H	0.776258	-0.184887	0.560009
H373	H	-0.094300	-0.268791	0.164232
H374	H	-0.179424	-0.268804	0.164238
H375	H	0.730104	-0.135783	0.688855
H376	H	0.036464	-0.135980	0.297458
H377	H	0.730046	-0.603506	0.135660
H378	H	0.701402	-0.960087	0.164394
H379	H	0.701427	-1.045209	0.164407
C380	C	0.709602	-0.156243	0.953614
C381	C	0.744855	-0.175726	0.921359
C382	C	0.776483	-0.144136	0.895567
C383	C	0.772858	-0.093062	0.902029
C384	C	0.737603	-0.073576	0.934285
C385	C	0.705975	-0.105166	0.960077
H386	H	0.747540	-0.213536	0.916574
H387	H	0.802581	-0.158561	0.871689
H388	H	0.796271	-0.069677	0.882936
H389	H	0.734918	-0.035766	0.939070
H390	H	0.679877	-0.090741	0.983955
H391	H	0.597097	-1.045229	0.268560
H392	H	0.597044	-0.268660	0.960302
C393	C	0.560010	-0.596840	0.305439
C394	C	0.508943	-0.603331	0.301727
C395	C	0.477307	-0.577538	0.333301
C396	C	0.496737	-0.545255	0.368587
C397	C	0.547806	-0.538763	0.372301
C398	C	0.579443	-0.564556	0.340726
H399	H	0.494558	-0.627230	0.275604
H400	H	0.439502	-0.582344	0.330552
H401	H	0.473318	-0.526162	0.391960
H402	H	0.562192	-0.514864	0.398423
H403	H	0.617248	-0.559750	0.343476
H404	H	0.597076	-0.960121	0.268559
H405	H	0.596925	-0.472841	0.268513
H406	H	0.568248	-0.297427	0.688819
H407	H	0.596895	-0.387719	0.268498
