data_functionalizedCrystal
_audit_creation_method	'MofGen! by Chris Wilmer'
_symmetry_space_group_name_H-M	'P1'
_symmetry_Int_Tables_number	1
_symmetry_cell_setting	triclinic
loop_
_symmetry_equiv_pos_as_xyz
  x,y,z
_cell_length_a	12.837943
_cell_length_b	12.837942
_cell_length_c	11.295483
_cell_angle_alpha	94.530417
_cell_angle_beta	85.461227
_cell_angle_gamma	94.828940
loop_
_atom_site_label
_atom_site_type_symbol
_atom_site_fract_x
_atom_site_fract_y
_atom_site_fract_z
O1	O	-1.408689	-0.265788	0.099003
O2	O	-1.105556	-0.252345	0.099010
O3	O	-1.250401	-0.107500	0.098999
O4	O	-1.263845	-0.410633	0.099013
O5	O	-1.237676	-0.120201	-0.099051
O6	O	-1.092832	-0.265045	-0.099040
O7	O	-1.395965	-0.278489	-0.099047
Cu8	Cu	-1.243237	-0.272927	-0.117127
Cu9	Cu	-1.258285	-0.257907	0.117090
O10	O	-1.251121	-0.423333	-0.099037
C11	C	-1.060125	-0.254153	-0.000014
C12	C	-0.943710	-0.240609	-0.000012
C13	C	-1.239497	-0.074781	-0.000025
C14	C	-1.225953	0.041634	-0.000023
C15	C	-1.441396	-0.276680	-0.000021
C16	C	-1.557812	-0.290224	-0.000015
C17	C	-0.718835	-0.403439	-0.000021
C18	C	-0.609453	-0.390717	-0.000020
C19	C	-0.615561	-0.202446	-0.000016
C20	C	-0.724943	-0.215167	-0.000017
C21	C	-0.776576	-0.315667	-0.000018
C22	C	-0.885961	-0.328387	-0.000011
C23	C	-0.892066	-0.140117	-0.000016
C24	C	-0.782684	-0.127396	-0.000015
C25	C	-1.262024	-0.456052	-0.000010
C26	C	-1.275569	-0.572467	-0.000004
N27	N	-1.232661	-0.283491	-0.281863
C28	C	-1.388784	0.266509	-0.000002
C29	C	-1.376062	0.375892	0.000000
C30	C	-1.187791	0.369784	-0.000008
C31	C	-1.200512	0.260402	-0.000010
C32	C	-1.301011	0.208768	-0.000009
C33	C	-1.313731	0.099383	-0.000020
C34	C	-1.125461	0.093278	-0.000019
C35	C	-1.112740	0.202660	-0.000017
C36	C	-1.344996	-0.171231	-0.531161
C37	C	-1.337012	-0.179223	-0.655824
C38	C	-1.208702	-0.307459	-0.655854
C39	C	-1.216687	-0.299467	-0.531191
C40	C	-1.284837	-0.231353	-0.468849
C41	C	-1.292826	-0.223367	-0.344183
C42	C	-1.164512	-0.351597	-0.344216
C43	C	-1.156528	-0.359589	-0.468879
N44	N	-1.268868	-0.247335	0.281825
H45	H	-0.760876	-0.485269	-0.000020
C46	C	-1.477517	0.508960	0.101821
C47	C	-1.472545	0.439361	0.000008
H48	H	-1.537089	0.548137	0.101829
H49	H	-1.415855	0.555365	0.101810
H50	H	-1.482998	0.470574	0.170876
H51	H	-1.467057	0.477747	-0.069047
H52	H	-1.534223	0.392950	0.000009
C53	C	-1.471029	-0.045284	-0.543647
C54	C	-1.419906	-0.096365	-0.462626
H55	H	-1.517271	0.000940	-0.501334
H56	H	-1.509872	-0.095717	-0.592256
H57	H	-1.420611	-0.006416	-0.592284
H58	H	-1.470324	-0.135239	-0.413994
H59	H	-1.381061	-0.045925	-0.413996
H60	H	-0.939091	-0.068646	-0.000006
C61	C	-1.031081	-0.353367	-0.694297
C62	C	-1.133784	-0.382308	-0.724405
H63	H	-0.984828	-0.399570	-0.736627
H64	H	-1.027230	-0.357234	-0.611148
H65	H	-1.011528	-0.283672	-0.714718
H66	H	-1.153340	-0.452001	-0.703975
H67	H	-1.137639	-0.378452	-0.807573
C68	C	-0.747669	0.030476	-0.101814
C69	C	-0.725923	-0.016930	-0.000009
H70	H	-0.712624	0.098672	-0.101808
H71	H	-0.821069	0.035460	-0.101804
H72	H	-0.724046	-0.010547	-0.170874
H73	H	-0.749554	0.024089	0.069051
H74	H	-0.652508	-0.021908	-0.000009
H75	H	-0.573495	-0.120630	-0.000114
H76	H	-1.105969	0.411844	0.000004
C77	C	-0.868933	-0.513206	-0.000030
C78	C	-0.942720	-0.438854	-0.000019
H79	H	-0.903973	-0.581405	-0.000045
H80	H	-0.830836	-0.499908	0.069031
H81	H	-0.821958	-0.508741	-0.069098
H82	H	-0.989691	-0.443314	0.069054
H83	H	-0.980834	-0.452157	-0.069088
H84	H	-1.470613	0.224468	-0.000013
C85	C	-0.978912	-0.405524	-0.507311
C86	C	-1.081618	-0.434453	-0.537418
H87	H	-0.932667	-0.451741	-0.549630
H88	H	-0.975065	-0.409380	-0.424160
H89	H	-0.959347	-0.335836	-0.527746
H90	H	-1.101187	-0.504140	-0.516975
H91	H	-1.085469	-0.430608	-0.620588
H92	H	-1.115530	-0.400555	-0.293468
H93	H	-1.030916	0.244716	-0.000013
C94	C	-0.577111	-0.540743	0.101797
C95	C	-0.545981	-0.487197	-0.000014
H96	H	-0.537920	-0.600303	0.101802
H97	H	-0.649636	-0.562698	0.101785
H98	H	-0.564872	-0.495542	0.170853
H99	H	-0.558228	-0.532395	-0.069070
H100	H	-0.473440	-0.465243	-0.000012
H101	H	-1.348320	-0.167908	-0.293425
C102	C	-0.938079	0.098231	-0.000039
C103	C	-1.028971	0.029807	-0.000033
H104	H	-0.878513	0.059044	-0.000059
H105	H	-0.941463	0.145438	0.069027
H106	H	-0.932611	0.136604	-0.069102
H107	H	-1.034443	-0.008561	0.069036
H108	H	-1.025587	-0.017419	-0.069105
C109	C	-1.498551	0.116412	0.000012
C110	C	-1.424198	0.042625	-0.000006
H111	H	-1.566750	0.081373	0.000032
H112	H	-1.485247	0.154519	-0.069050
H113	H	-1.494091	0.163378	0.069079
H114	H	-1.428653	-0.004336	-0.069079
H115	H	-1.437507	0.004501	0.069062
H116	H	-1.385998	-0.130265	-0.706555
