data_functionalizedCrystal
_audit_creation_method	'MofGen! by Chris Wilmer'
_symmetry_space_group_name_H-M	'P1'
_symmetry_Int_Tables_number	1
_symmetry_cell_setting	triclinic
loop_
_symmetry_equiv_pos_as_xyz
  x,y,z
_cell_length_a	21.295418
_cell_length_b	18.050582
_cell_length_c	18.050589
_cell_angle_alpha	90.018205
_cell_angle_beta	90.044036
_cell_angle_gamma	90.034107
loop_
_atom_site_label
_atom_site_type_symbol
_atom_site_fract_x
_atom_site_fract_y
_atom_site_fract_z
Zn1	Zn	0.962306	0.420315	-0.295393
Zn2	Zn	1.462306	0.920315	0.204607
Zn3	Zn	0.962230	0.296135	-0.419576
Zn4	Zn	1.462230	0.796135	0.080424
Zn5	Zn	0.857047	0.296098	-0.295439
Zn6	Zn	1.357047	0.796098	0.204561
Zn7	Zn	0.857003	0.420242	-0.419580
Zn8	Zn	1.357003	0.920242	0.080420
O9	O	0.909646	0.358197	-0.357497
O10	O	1.409646	0.858197	0.142503
O11	O	1.050385	0.403889	-0.311846
O12	O	1.550385	0.903889	0.188154
O13	O	0.948264	0.192205	-0.403127
O14	O	1.448264	0.692205	0.096873
O15	O	0.871060	0.312591	-0.191508
O16	O	1.371060	0.812591	0.308492
O17	O	1.050330	0.312654	-0.403083
O18	O	1.550330	0.812654	0.096917
O19	O	0.948393	0.403853	-0.191475
O20	O	1.448393	0.903853	0.308525
O21	O	0.870986	0.192178	-0.311924
O22	O	1.370986	0.692178	0.188076
O23	O	0.768952	0.312520	-0.311927
O24	O	1.268952	0.812520	0.188073
O25	O	0.870985	0.524176	-0.403089
O26	O	1.370985	1.024176	0.096911
O27	O	0.768919	0.403727	-0.403133
O28	O	1.268919	0.903727	0.096867
O29	O	0.948350	0.524230	-0.311849
O30	O	1.448350	1.024230	0.188151
O31	O	0.948221	0.312582	-0.523502
O32	O	1.448221	0.812582	-0.023502
O33	O	0.870911	0.403763	-0.523504
O34	O	1.370911	0.903763	-0.023504
C35	C	0.746095	0.358112	-0.357536
C36	C	1.246095	0.858112	0.142464
C37	C	0.676127	0.358093	-0.357571
C38	C	1.176127	0.858093	0.142429
C39	C	0.909570	0.358185	-0.550449
C40	C	1.409570	0.858185	-0.050449
C41	C	0.909596	0.358205	-0.632995
C42	C	1.409596	0.858205	-0.132995
C43	C	0.909671	0.551903	-0.357464
C44	C	1.409671	1.051903	0.142536
C45	C	0.909682	0.634449	-0.357450
C46	C	1.409682	1.134449	0.142550
C47	C	0.643260	0.405514	-0.405125
C48	C	1.143260	0.905514	0.094875
C49	C	0.577517	0.405547	-0.405106
C50	C	1.077517	0.905547	0.094894
C51	C	0.544644	0.358146	-0.357542
C52	C	1.044644	0.858146	0.142458
C53	C	0.577519	0.310722	-0.309979
C54	C	1.077519	0.810722	0.190021
C55	C	0.643260	0.310695	-0.309993
C56	C	1.143260	0.810695	0.190007
N57	N	0.441377	0.293191	-0.351735
N58	N	0.941377	0.793191	0.148265
N59	N	0.378926	0.293218	-0.351726
N60	N	0.878926	0.793218	0.148274
C61	C	0.346570	0.358225	-0.357495
C62	C	0.846570	0.858225	0.142505
N63	N	0.379024	0.423205	-0.363288
N64	N	0.879024	0.923205	0.136712
N65	N	0.441481	0.423177	-0.363301
N66	N	0.941481	0.923177	0.136699
C67	C	0.473359	0.358170	-0.357521
C68	C	0.973359	0.858170	0.142479
C69	C	0.242417	0.405686	-0.405031
C70	C	0.742417	0.905686	0.094969
C71	C	0.176673	0.405721	-0.405008
C72	C	0.676673	0.905721	0.094992
C73	C	0.176677	0.310889	-0.309884
C74	C	0.676677	0.810889	0.190116
C75	C	0.242419	0.310861	-0.309904
C76	C	0.742419	0.810861	0.190096
C77	C	0.275285	0.358259	-0.357481
C78	C	0.775285	0.858259	0.142519
C79	C	1.073837	0.358284	-0.357459
C80	C	1.573837	0.858284	0.142541
C81	C	1.143805	0.358320	-0.357442
C82	C	1.643805	0.858320	0.142558
C83	C	0.909658	0.165245	-0.357476
C84	C	1.409658	0.665245	0.142524
C85	C	0.909770	0.082700	-0.357281
C86	C	1.409770	0.582700	0.142719
C87	C	0.867642	0.833870	-0.406999
C88	C	1.367642	1.333870	0.093001
C89	C	0.925074	0.883286	-0.425133
C90	C	1.425074	1.383286	0.074867
C91	C	0.909713	0.785579	-0.357394
C92	C	1.409713	1.285579	0.142606
C93	C	0.852313	0.883246	-0.339238
C94	C	1.352313	1.383246	0.160762
C95	C	0.909738	0.931565	-0.357340
C96	C	1.409738	1.431565	0.142660
C97	C	0.967174	0.833908	-0.375564
C98	C	1.467174	1.333908	0.124436
C99	C	0.894375	0.833863	-0.289637
C100	C	1.394375	1.333863	0.210363
C101	C	0.951846	0.883256	-0.307746
C102	C	1.451846	1.383256	0.192254
C103	C	0.909697	0.701481	-0.357426
C104	C	1.409697	1.201481	0.142574
C105	C	0.909759	1.015661	-0.357307
C106	C	1.409759	1.515661	0.142693
C107	C	0.867596	0.407771	-0.832474
C108	C	1.367596	0.907771	-0.332474
C109	C	0.852255	0.339998	-0.881913
C110	C	1.352255	0.839998	-0.381913
C111	C	0.909657	0.358214	-0.784125
C112	C	1.409657	0.858214	-0.284125
C113	C	0.925029	0.425995	-0.881768
C114	C	1.425029	0.925995	-0.381768
C115	C	0.909716	0.358230	-0.930111
C116	C	1.409716	0.858230	-0.430111
C117	C	0.894287	0.290405	-0.832477
C118	C	1.394287	0.790405	-0.332477
C119	C	0.967087	0.376448	-0.832328
C120	C	1.467087	0.876448	-0.332328
C121	C	0.951768	0.308628	-0.881745
C122	C	1.451768	0.808628	-0.381745
C123	C	0.909622	0.358206	-0.700027
C124	C	1.409622	0.858206	-0.200027
C125	C	0.909751	0.358230	-1.014207
C126	C	1.409751	0.858230	-0.514207
C127	C	0.909740	0.358226	-0.163792
C128	C	1.409740	0.858226	0.336208
C129	C	0.909780	0.358238	-0.081246
C130	C	1.409780	0.858238	0.418754
H131	H	0.670015	0.444110	-0.443865
H132	H	1.170015	0.944110	0.056135
C133	C	0.999854	0.251956	-0.910794
C134	C	1.499854	0.751956	-0.410794
N135	N	1.036069	0.209268	-0.932677
N136	N	1.536069	0.709268	-0.432677
C137	C	0.541358	0.258581	-0.257658
C138	C	1.041358	0.758581	0.242342
N139	N	0.514121	0.219308	-0.218247
N140	N	1.014121	0.719308	0.281753
H141	H	0.881370	0.812138	-0.232376
H142	H	1.381370	1.312138	0.267624
H143	H	0.149912	0.272298	-0.271153
H144	H	0.649912	0.772298	0.228847
C145	C	1.032785	0.804754	-0.396374
C146	C	1.532785	1.304754	0.103626
N147	N	1.082201	0.782793	-0.412052
N148	N	1.582201	1.282793	0.087948
H149	H	0.938006	0.483311	-0.903420
H150	H	1.438006	0.983311	-0.403420
C151	C	0.278572	0.457833	-0.457358
C152	C	0.778572	0.957833	0.042642
N153	N	0.305802	0.497111	-0.496770
N154	N	0.805802	0.997111	0.003230
H155	H	0.269180	0.272242	-0.271184
H156	H	0.769180	0.772242	0.228816
C157	C	0.679415	0.258522	-0.257682
C158	C	1.179415	0.758522	0.242318
N159	N	0.706648	0.219223	-0.218282
N160	N	1.206648	0.719223	0.281718
C161	C	0.819633	0.804558	-0.463745
C162	C	1.319633	1.304558	0.036255
N163	N	0.783478	0.782475	-0.506489
N164	N	1.283478	1.282475	-0.006489
H165	H	1.015615	0.391889	-0.810534
H166	H	1.515615	0.891889	-0.310534
C167	C	0.942618	0.912617	-0.502511
C168	C	1.442618	1.412617	-0.002511
N169	N	0.955829	0.934708	-0.560794
N170	N	1.455829	1.434708	-0.060794
C171	C	0.999978	0.912368	-0.251043
C172	C	1.499978	1.412368	0.248957
N173	N	1.036233	0.934296	-0.208337
N174	N	1.536233	1.434296	0.291663
C175	C	0.786678	0.319166	-0.911337
C176	C	1.286678	0.819166	-0.411337
N177	N	0.737284	0.303480	-0.933496
N178	N	1.237284	0.803480	-0.433496
H179	H	0.149914	0.444341	-0.443730
H180	H	0.649914	0.944341	0.056270
C181	C	0.819472	0.464305	-0.803238
C182	C	1.319472	0.964305	-0.303238
N183	N	0.783224	0.506881	-0.781215
N184	N	1.283224	1.006881	-0.281215
C185	C	0.786720	0.912522	-0.318519
C186	C	1.286720	1.412522	0.181481
N187	N	0.737314	0.934569	-0.302919
N188	N	1.237314	1.434569	0.197081
C189	C	0.541356	0.457714	-0.457424
C190	C	1.041356	0.957714	0.042576
N191	N	0.514121	0.497004	-0.496831
N192	N	1.014121	0.997004	0.003169
C193	C	0.876675	0.212953	-0.803350
C194	C	1.376675	0.712953	-0.303350
N195	N	0.863408	0.154618	-0.781410
N196	N	1.363408	0.654618	-0.281410
