data_functionalizedCrystal
_audit_creation_method	'MofGen! by Chris Wilmer'
_symmetry_space_group_name_H-M	'P1'
_symmetry_Int_Tables_number	1
_symmetry_cell_setting	triclinic
loop_
_symmetry_equiv_pos_as_xyz
  x,y,z
_cell_length_a	19.077236
_cell_length_b	19.077068
_cell_length_c	12.759393
_cell_angle_alpha	92.261232
_cell_angle_beta	87.676977
_cell_angle_gamma	94.708605
loop_
_atom_site_label
_atom_site_type_symbol
_atom_site_fract_x
_atom_site_fract_y
_atom_site_fract_z
Zn1	Zn	1.066478	-0.237398	-0.672330
Zn2	Zn	1.061644	-0.355307	-0.503410
Zn3	Zn	0.948581	-0.242162	-0.489862
Zn4	Zn	0.943814	-0.359977	-0.672242
O5	O	1.005129	-0.298711	-0.584461
O6	O	1.164489	-0.249091	-0.655629
O7	O	1.046618	-0.340338	-0.354592
O8	O	0.968238	-0.142878	-0.508434
O9	O	1.160937	-0.335719	-0.531524
O10	O	1.054857	-0.139378	-0.642492
O11	O	0.963551	-0.257210	-0.344639
O12	O	0.849296	-0.261738	-0.508349
O13	O	0.960114	-0.343678	-0.819274
O14	O	0.845794	-0.348297	-0.642343
O15	O	1.050234	-0.253619	-0.819339
O16	O	1.041995	-0.454579	-0.531439
O17	O	0.955426	-0.458010	-0.655479
C18	C	0.821966	-0.306042	-0.573867
C19	C	0.743607	-0.309195	-0.569361
C20	C	0.708641	-0.265645	-0.631965
C21	C	0.635014	-0.268604	-0.627722
C22	C	0.596356	-0.315117	-0.560879
C23	C	0.631327	-0.358668	-0.498267
C24	C	0.704952	-0.355705	-0.502506
C25	C	0.375962	-0.328805	-0.541257
C26	C	0.302332	-0.331766	-0.537025
C27	C	0.306025	-0.241701	-0.666479
C28	C	0.379651	-0.238745	-0.670716
C29	C	0.414616	-0.282293	-0.608101
N30	N	0.521098	-0.318144	-0.556542
N31	N	0.489873	-0.279262	-0.612432
C32	C	0.997688	-0.481873	-0.594944
C33	C	0.994569	-0.560227	-0.599467
C34	C	1.038211	-0.595227	-0.537068
C35	C	1.035281	-0.668850	-0.541329
C36	C	0.988707	-0.707471	-0.607984
C37	C	0.945063	-0.672466	-0.670389
C38	C	0.947996	-0.598845	-0.666133
C39	C	0.975100	-0.927849	-0.627637
C40	C	0.972168	-1.001476	-0.631886
C41	C	1.062388	-0.997855	-0.502827
C42	C	1.065314	-0.924232	-0.498572
C43	C	1.021674	-0.889233	-0.560982
N44	N	0.985710	-0.782725	-0.612338
N45	N	1.024674	-0.813980	-0.556632
C46	C	1.189008	-0.291352	-0.595097
C47	C	1.267366	-0.288217	-0.599630
C48	C	1.005181	-0.298638	-0.858493
C49	C	1.005204	-0.298607	-0.975269
C50	C	1.012618	-0.114834	-0.573962
C51	C	1.015810	-0.036476	-0.569487
C52	C	1.052136	-0.251709	-1.030167
C53	C	1.052154	-0.251683	-1.139891
C54	C	0.958305	-0.345459	-1.139810
C55	C	0.958284	-0.345481	-1.030088
C56	C	1.106321	-0.197570	-1.030214
C57	C	1.106338	-0.197544	-1.139938
C58	C	1.005120	-0.298731	-0.311494
C59	C	1.005242	-0.298558	-0.194715
H60	H	0.606548	-0.233143	-0.678703
H61	H	1.076134	-0.563787	-0.482786
H62	H	0.404422	-0.364266	-0.490272
H63	H	1.093919	-0.143561	-0.996483
H64	H	1.160348	-0.209977	-1.173709
C65	C	0.743414	-0.403614	-0.433638
N66	N	0.772383	-0.439700	-0.381763
C67	C	0.906695	-0.397016	-1.200120
N68	N	0.867822	-0.435851	-1.245545
C69	C	1.082812	-0.128510	-1.180398
N70	N	1.065100	-0.076512	-1.210874
C71	C	0.927129	-0.889359	-0.696345
N72	N	0.891009	-0.860365	-0.748121
H73	H	0.934250	-1.032919	-0.686183
C74	C	0.422171	-0.187571	-0.744239
N75	N	0.454196	-0.149025	-0.799616
C76	C	0.751159	-0.214476	-0.705498
N77	N	0.783182	-0.175932	-0.760881
C78	C	1.175307	-0.221182	-0.989790
N79	N	1.227270	-0.238963	-0.959342
C80	C	1.116532	-0.881755	-0.425219
N81	N	1.155102	-0.849761	-0.369955
C82	C	0.267558	-0.193789	-0.735332
N83	N	0.238584	-0.157694	-0.787188
H84	H	0.270858	-0.369646	-0.482593
H85	H	0.599845	-0.396536	-0.443837
H86	H	1.070818	-0.697344	-0.490517
H87	H	1.097919	-1.026359	-0.452018
H88	H	0.912460	-0.570348	-0.716946
H89	H	0.907144	-0.703917	-0.724666
C90	C	0.906645	-0.397062	-0.969703
N91	N	0.867747	-0.435913	-0.924222
