data_functionalizedCrystal
_audit_creation_method	'MofGen! by Chris Wilmer'
_symmetry_space_group_name_H-M	'P1'
_symmetry_Int_Tables_number	1
_symmetry_cell_setting	triclinic
loop_
_symmetry_equiv_pos_as_xyz
  x,y,z
_cell_length_a	15.944493
_cell_length_b	27.731996
_cell_length_c	14.421503
_cell_angle_alpha	89.998301
_cell_angle_beta	89.992936
_cell_angle_gamma	83.048216
loop_
_atom_site_label
_atom_site_type_symbol
_atom_site_fract_x
_atom_site_fract_y
_atom_site_fract_z
O1	O	1.113726	0.062202	-0.077112
O2	O	1.613726	0.562202	0.422888
O3	O	0.869066	0.069917	-0.077118
O4	O	1.369066	0.569917	0.422882
O5	O	0.999017	-0.004307	-0.077095
O6	O	1.499017	0.495693	0.422905
O7	O	0.983775	0.136426	-0.077135
O8	O	1.483775	0.636426	0.422865
O9	O	0.998996	-0.004296	0.077129
O10	O	1.498996	0.495704	0.577129
O11	O	0.869045	0.069928	0.077106
O12	O	1.369045	0.569928	0.577106
O13	O	1.113704	0.062213	0.077112
O14	O	1.613704	0.562213	0.577112
Cu15	Cu	0.991373	0.066072	0.091190
Cu16	Cu	1.491373	0.566072	0.591190
Cu17	Cu	0.991398	0.066059	-0.091197
Cu18	Cu	1.491398	0.566059	0.408803
O19	O	0.983753	0.136437	0.077088
O20	O	1.483753	0.636437	0.577088
C21	C	0.837765	0.069607	-0.000007
C22	C	1.337765	0.569607	0.499993
C23	C	0.744529	0.068662	-0.000008
C24	C	1.244529	0.568662	0.499992
C25	C	0.508183	0.112352	-0.000021
C26	C	1.008183	0.612352	0.499979
C27	C	0.457930	0.088797	0.076030
C28	C	0.957930	0.588797	0.576030
C29	C	0.573831	0.066910	-0.000006
C30	C	1.073831	0.566910	0.499994
C31	C	0.457956	0.088776	-0.076022
C32	C	0.957956	0.588776	0.423978
C33	C	0.408944	0.065222	-0.000008
C34	C	0.908944	0.565222	0.499992
C35	C	0.524806	0.043368	0.076108
C36	C	1.024806	0.543368	0.576108
C37	C	0.524835	0.043353	-0.076013
C38	C	1.024835	0.543353	0.423987
C39	C	0.474616	0.019764	0.000057
C40	C	0.974616	0.519764	0.500057
C41	C	0.668818	0.067884	-0.000004
C42	C	1.168818	0.567884	0.499996
C43	C	0.313960	0.064244	-0.000003
C44	C	0.813960	0.564244	0.499997
C45	C	0.998694	-0.022310	0.000020
C46	C	1.498694	0.477690	0.500020
C47	C	0.997750	-0.075970	0.000030
C48	C	1.497750	0.424030	0.500030
C49	C	0.991828	-0.408718	-0.084083
C50	C	1.491828	0.091282	0.415917
C51	C	0.988247	-0.610391	-0.084099
C52	C	1.488247	-0.110391	0.415901
O53	O	0.987758	-0.636469	-0.155596
O54	O	1.487758	-0.136469	0.344404
N55	N	0.987790	-0.635604	-0.000033
N56	N	1.487790	-0.135604	0.499967
C57	C	0.988224	-0.610395	0.084044
C58	C	1.488224	-0.110395	0.584044
O59	O	0.987745	-0.636467	0.155547
O60	O	1.487745	-0.136467	0.655547
C61	C	0.991799	-0.408722	0.084059
C62	C	1.491799	0.091278	0.584059
C63	C	0.992264	-0.383512	-0.000013
C64	C	1.492264	0.116488	0.499987
C65	C	0.992293	-0.383508	-0.168148
C66	C	1.492293	0.116492	0.331852
C67	C	0.993192	-0.333093	-0.168143
C68	C	1.493192	0.166907	0.331857
C69	C	0.993628	-0.307888	-0.084073
C70	C	1.493628	0.192112	0.415927
C71	C	0.993164	-0.333098	-0.000008
C72	C	1.493164	0.166902	0.499992
C73	C	0.992226	-0.383514	0.168134
C74	C	1.492226	0.116486	0.668134
C75	C	0.993118	-0.333092	0.168131
C76	C	1.493118	0.166908	0.668131
C77	C	0.993583	-0.307883	0.084059
C78	C	1.493583	0.192117	0.584059
C79	C	0.994500	-0.257477	0.084067
C80	C	1.494500	0.242523	0.584067
N81	N	0.994956	-0.232264	0.000001
N82	N	1.494956	0.267736	0.500001
C83	C	0.994521	-0.257470	-0.084069
C84	C	1.494521	0.242530	0.415931
C85	C	0.986348	-0.716276	0.084030
C86	C	1.486348	-0.216276	0.584030
C87	C	0.985456	-0.766694	0.084026
C88	C	1.485456	-0.266694	0.584026
C89	C	0.985478	-0.766687	-0.084117
C90	C	1.485478	-0.266687	0.415883
C91	C	0.986376	-0.716268	-0.084113
C92	C	1.486376	-0.216268	0.415887
C93	C	0.986805	-0.691063	-0.000037
C94	C	1.486805	-0.191063	0.499963
C95	C	0.996411	-0.151595	-0.084053
C96	C	1.496411	0.348405	0.415947
C97	C	0.997315	-0.101175	-0.084040
C98	C	1.497315	0.398825	0.415960
C99	C	0.997288	-0.101187	0.084102
C100	C	1.497288	0.398813	0.584102
C101	C	0.996389	-0.151602	0.084091
C102	C	1.496389	0.348398	0.584091
C103	C	0.995948	-0.176805	0.000006
C104	C	1.495948	0.323195	0.500006
O105	O	0.994980	-0.231368	0.155526
O106	O	1.494980	0.268632	0.655526
O107	O	0.994981	-0.231387	-0.155562
O108	O	1.494981	0.268613	0.344438
C109	C	0.990928	-0.459133	-0.084088
C110	C	1.490928	0.040867	0.415912
C111	C	0.990464	-0.484342	-0.000023
C112	C	1.490464	0.015658	0.499977
C113	C	0.990900	-0.459137	0.084047
C114	C	1.490900	0.040863	0.584047
C115	C	0.989572	-0.534761	-0.000026
C116	C	1.489572	-0.034761	0.499974
C117	C	0.989136	-0.559966	-0.084096
C118	C	1.489136	-0.059966	0.415904
C119	C	0.989593	-0.534753	-0.168163
C120	C	1.489593	-0.034753	0.331837
C121	C	0.990493	-0.484338	-0.168158
C122	C	1.490493	0.015662	0.331842
C123	C	0.990444	-0.484350	0.168114
C124	C	1.490444	0.015650	0.668114
C125	C	0.989545	-0.534765	0.168102
C126	C	1.489545	-0.034765	0.668102
C127	C	0.989109	-0.559970	0.084032
C128	C	1.489109	-0.059970	0.584032
C129	C	1.145006	0.062523	-0.000002
C130	C	1.645006	0.562523	0.499998
C131	C	1.238242	0.063468	-0.000006
C132	C	1.738242	0.563468	0.499994
C133	C	0.984077	0.154440	-0.000029
C134	C	1.484077	0.654440	0.499971
C135	C	0.985020	0.208100	-0.000044
C136	C	1.485020	0.708100	0.499956
N137	N	0.991361	0.066080	0.219472
N138	N	1.491361	0.566080	0.719472
N139	N	0.991417	0.066046	-0.219478
N140	N	1.491417	0.566046	0.280522
C141	C	0.931261	0.100386	0.469115
C142	C	1.431261	0.600386	0.969115
C143	C	1.007037	0.109762	0.530916
C144	C	1.507037	0.609762	1.030916
C145	C	0.991381	0.066069	0.408633
C146	C	1.491381	0.566069	0.908633
C147	C	0.915624	0.056705	0.530926
C148	C	1.415624	0.556705	1.030926
C149	C	0.991394	0.066059	0.591355
C150	C	1.491394	0.566059	1.091355
C151	C	1.067196	0.075466	0.469074
C152	C	1.567196	0.575466	0.969074
C153	C	0.975733	0.022390	0.469078
C154	C	1.475733	0.522390	0.969078
C155	C	1.051565	0.031747	0.530851
C156	C	1.551565	0.531747	1.030851
C157	C	0.991373	0.066076	0.303372
C158	C	1.491373	0.566076	0.803372
C159	C	0.991412	0.066051	0.696613
C160	C	1.491412	0.566051	1.196613
H161	H	0.554048	0.024172	-0.140299
H162	H	1.054048	0.524172	0.359701
H163	H	0.428769	0.107971	-0.140308
H164	H	0.928769	0.607971	0.359692
Cl165	Cl	0.984888	-0.798382	0.189721
Cl166	Cl	1.484888	-0.298382	0.689721
H167	H	0.428727	0.107993	0.140313
H168	H	0.928727	0.607993	0.640313
H169	H	0.997695	-0.080652	-0.152505
H170	H	1.497695	0.419348	0.347495
Cl171	Cl	0.569692	0.013765	0.175476
Cl172	Cl	1.069692	0.513765	0.675476
Cl173	Cl	0.451538	-0.040713	0.000142
Cl174	Cl	0.951538	0.459287	0.500142
H175	H	0.996048	-0.172108	-0.152523
H176	H	1.496048	0.327892	0.347477
H177	H	0.993568	-0.312571	-0.236603
H178	H	1.493568	0.187429	0.263397
H179	H	0.880470	0.129431	0.442008
H180	H	1.380470	0.629431	0.942008
Cl181	Cl	1.027493	0.166783	0.572854
Cl182	Cl	1.527493	0.666783	1.072854
Cl183	Cl	0.991746	-0.415185	-0.273851
Cl184	Cl	1.491746	0.084815	0.226149
H185	H	1.131281	0.083426	0.442019
H186	H	1.631281	0.583426	0.942019
H187	H	1.102467	0.002720	0.557788
H188	H	1.602467	0.502720	1.057788
Cl189	Cl	0.986883	-0.684597	0.189736
Cl190	Cl	1.486883	-0.184597	0.689736
H191	H	0.991849	-0.404031	0.236595
H192	H	1.491849	0.095969	0.736595
Cl193	Cl	0.986958	-0.684581	-0.189807
Cl194	Cl	1.486958	-0.184581	0.310193
H195	H	0.993455	-0.312572	0.236597
H196	H	1.493455	0.187428	0.736597
H197	H	0.985124	-0.787217	-0.152570
H198	H	1.485124	-0.287217	0.347430
Cl199	Cl	0.995821	-0.183297	0.189782
Cl200	Cl	1.495821	0.316703	0.689782
Cl201	Cl	0.955243	-0.034615	0.427104
Cl202	Cl	1.455243	0.465385	0.927104
H203	H	0.997647	-0.080656	0.152550
H204	H	1.497647	0.419344	0.652550
H205	H	0.851553	0.048789	0.558097
H206	H	1.351553	0.548789	1.058097
H207	H	0.990871	-0.463816	-0.236618
H208	H	1.490871	0.036184	0.263382
Cl209	Cl	0.990985	-0.452671	0.273813
Cl210	Cl	1.490985	0.047329	0.773813
Cl211	Cl	0.989049	-0.566449	-0.273850
Cl212	Cl	1.489049	-0.066449	0.226150
H213	H	0.523283	0.151495	0.000039
H214	H	1.023283	0.651495	0.500039
H215	H	0.989172	-0.555287	0.236568
H216	H	1.489172	-0.055287	0.736568
