data_functionalizedCrystal
_audit_creation_method	'MofGen! by Chris Wilmer'
_symmetry_space_group_name_H-M	'P1'
_symmetry_Int_Tables_number	1
_symmetry_cell_setting	triclinic
loop_
_symmetry_equiv_pos_as_xyz
  x,y,z
_cell_length_a	10.654550
_cell_length_b	19.288865
_cell_length_c	9.130313
_cell_angle_alpha	89.990258
_cell_angle_beta	89.999724
_cell_angle_gamma	83.810589
loop_
_atom_site_label
_atom_site_type_symbol
_atom_site_fract_x
_atom_site_fract_y
_atom_site_fract_z
O1	O	1.665751	0.097555	-0.121709
O2	O	1.300074	0.106849	-0.121738
O3	O	1.493479	0.001141	-0.121693
O4	O	1.472346	0.203263	-0.121753
O5	O	1.493466	0.001138	0.121905
O6	O	1.300061	0.106846	0.121861
O7	O	1.665738	0.097552	0.121890
Cu8	Cu	1.482898	0.102198	0.144118
Cu9	Cu	1.482914	0.102202	-0.143966
O10	O	1.472333	0.203260	0.121846
C11	C	1.253284	0.106165	0.000059
C12	C	1.113884	0.104123	0.000049
C13	C	1.492792	-0.024742	0.000110
C14	C	1.490751	-0.101859	0.000123
C15	C	1.033066	0.166363	0.000035
C16	C	0.902087	0.164440	0.000061
C17	C	0.932756	0.038033	0.000109
C18	C	1.063733	0.039956	0.000094
C19	C	1.604232	-0.145812	0.000139
C20	C	1.602315	-0.218272	0.000116
C21	C	1.486909	-0.246775	0.000106
C22	C	1.373413	-0.202812	0.000081
C23	C	1.375334	-0.130354	0.000090
C24	C	1.396183	-0.355657	0.085426
C25	C	1.394266	-0.428114	0.085426
C26	C	1.480980	-0.470259	0.000073
C27	C	1.569631	-0.439940	-0.085263
C28	C	1.571552	-0.367482	-0.085254
C29	C	1.484814	-0.325343	0.000095
C30	C	1.592390	-0.592782	0.000061
C31	C	1.590467	-0.665243	0.000029
C32	C	1.361562	-0.649781	0.000009
C33	C	1.363488	-0.577322	0.000027
C34	C	1.478905	-0.548827	0.000060
C35	C	1.712528	0.098236	0.000090
C36	C	1.851928	0.100277	0.000091
C37	C	1.473020	0.229142	0.000039
C38	C	1.475061	0.306259	0.000016
N39	N	1.482896	0.102195	0.346741
N40	N	1.482925	0.102200	-0.346588
C41	C	1.568565	0.055408	0.423412
C42	C	1.568577	0.055408	0.576749
C43	C	1.397248	0.148990	0.576729
C44	C	1.397231	0.148986	0.423395
H45	H	1.073895	0.218611	0.000009
H46	H	1.129539	-0.010730	0.000109
H47	H	1.282921	-0.094566	0.000077
H48	H	1.698214	-0.122616	0.000161
F49	F	0.816079	0.230684	0.000048
H50	H	0.891906	-0.014209	0.000154
F51	F	1.238738	-0.680112	-0.000009
F52	F	1.242704	-0.530542	0.000016
F53	F	1.659753	0.005609	0.658343
H54	H	1.694728	-0.254065	0.000123
H55	H	1.638317	0.017307	0.361003
F56	F	1.665892	-0.335215	-0.176078
F57	F	1.661924	-0.484788	-0.176112
H58	H	1.327464	0.187086	0.360965
F59	F	1.306084	0.198786	0.658321
F60	F	1.711257	-0.712022	0.000036
F61	F	1.715225	-0.562453	0.000103
H62	H	1.325567	-0.321348	0.154939
F63	F	1.299922	-0.460376	0.176253
H64	H	1.279449	-0.226024	0.000070
