data_functionalizedCrystal
_audit_creation_method	'MofGen! by Chris Wilmer'
_symmetry_space_group_name_H-M	'P1'
_symmetry_Int_Tables_number	1
_symmetry_cell_setting	triclinic
loop_
_symmetry_equiv_pos_as_xyz
  x,y,z
_cell_length_a	12.759401
_cell_length_b	21.295417
_cell_length_c	12.759393
_cell_angle_alpha	90.039170
_cell_angle_beta	90.019097
_cell_angle_gamma	90.030490
loop_
_atom_site_label
_atom_site_type_symbol
_atom_site_fract_x
_atom_site_fract_y
_atom_site_fract_z
Zn1	Zn	1.606140	-0.250572	0.593943
Zn2	Zn	1.605986	-0.355856	0.418239
Zn3	Zn	1.430442	-0.250605	0.418280
Zn4	Zn	1.430382	-0.355808	0.593879
O5	O	1.518237	-0.303210	0.506085
O6	O	1.753141	-0.264545	0.570645
O7	O	1.582660	-0.341929	0.271224
O8	O	1.453838	-0.162511	0.441626
O9	O	1.753027	-0.341897	0.441556
O10	O	1.582923	-0.162487	0.570684
O11	O	1.453689	-0.264601	0.271254
O12	O	1.283413	-0.264554	0.441564
O13	O	1.453736	-0.341814	0.740909
O14	O	1.283369	-0.341846	0.570576
O15	O	1.582865	-0.264498	0.740955
O16	O	1.582602	-0.443939	0.441495
O17	O	1.453587	-0.443904	0.570536
C18	C	1.245270	-0.303198	0.506068
C19	C	1.128493	-0.303208	0.506086
C20	C	1.518100	-0.466762	0.506027
C21	C	1.518137	-0.536730	0.506037
C22	C	0.963961	-0.263012	0.573415
C23	C	1.073685	-0.263003	0.573406
C24	C	1.073573	-0.343429	0.438779
C25	C	0.963850	-0.343440	0.438794
C26	C	0.909158	-0.222800	0.640732
C27	C	0.964071	-0.182580	0.708040
C28	C	1.073795	-0.182571	0.708031
C29	C	1.128606	-0.222782	0.640713
C30	C	1.585375	-0.569594	0.438914
C31	C	1.585424	-0.635337	0.438938
C32	C	1.518217	-0.668213	0.506074
C33	C	1.450974	-0.635340	0.573210
C34	C	1.450934	-0.569599	0.573192
N35	N	1.426309	-0.771478	0.514077
N36	N	1.426350	-0.833929	0.514088
C37	C	1.518334	-0.866287	0.506134
N38	N	1.610278	-0.833835	0.498147
N39	N	1.610236	-0.771377	0.498131
C40	C	1.518253	-0.739498	0.506101
C41	C	1.585631	-0.970437	0.439033
C42	C	1.585682	-1.036181	0.439064
C43	C	1.451223	-1.036183	0.573330
C44	C	1.451181	-0.970440	0.573305
C45	C	1.518384	-0.937572	0.506150
C46	C	1.792271	-0.303223	0.506103
C47	C	1.909047	-0.303228	0.506111
C48	C	1.518311	-0.303147	0.780119
C49	C	1.518342	-0.303120	0.896896
C50	C	1.518404	-0.139020	0.506167
C51	C	1.518475	-0.069052	0.506201
C52	C	1.518225	-0.303228	0.233118
C53	C	1.518397	-0.303078	0.116342
C54	C	1.585589	-0.262858	0.951784
C55	C	1.585614	-0.262835	1.061508
C56	C	1.451143	-0.343342	1.061446
C57	C	1.451113	-0.343361	0.951724
C58	C	1.652818	-0.222616	0.896955
C59	C	1.720071	-0.182351	0.951843
C60	C	1.720096	-0.182329	1.061568
C61	C	1.652868	-0.222571	1.116403
H62	H	0.919437	-0.149845	0.762854
C63	C	1.652898	-0.222546	1.237098
H64	H	1.702580	-0.192806	1.261936
H65	H	1.585118	-0.211654	1.261925
H66	H	1.671039	-0.263168	1.261891
H67	H	1.640442	-1.062938	0.384406
C68	C	1.134202	-0.138338	0.782071
H69	H	1.207398	-0.144094	0.772432
H70	H	1.116242	-0.096033	0.766829
H71	H	1.116242	-0.147606	0.852638
C72	C	1.377046	-0.671500	0.647055
H73	H	1.386691	-0.715361	0.637445
H74	H	1.392376	-0.660684	0.717657
H75	H	1.306454	-0.660771	0.631608
H76	H	1.217950	-0.222768	0.640703
C77	C	1.794067	-0.138039	1.121942
H78	H	1.834104	-0.114081	1.073570
H79	H	1.753924	-0.110599	1.164760
H80	H	1.839831	-0.162120	1.164731
C81	C	1.133862	-0.387652	0.364727
H82	H	1.207073	-0.381880	0.374350
H83	H	1.115866	-0.429960	0.379969
H84	H	1.115851	-0.378385	0.294165
H85	H	1.640181	-0.662100	0.384278
H86	H	1.396339	-0.376136	0.907033
H87	H	0.819815	-0.222800	0.640742
H88	H	1.396180	-0.542840	0.627853
H89	H	1.652807	-0.222632	0.807612
C90	C	1.659561	-0.934279	0.365179
H91	H	1.699626	-0.963270	0.325217
H92	H	1.619383	-0.908679	0.319357
H93	H	1.705301	-0.908588	0.405410
C94	C	1.377211	-0.387611	1.121763
H95	H	1.386868	-0.381837	1.194971
H96	H	1.306623	-0.378401	1.103788
H97	H	1.392550	-0.429911	1.103752
H98	H	1.396425	-0.943680	0.627958
H99	H	1.774798	-0.149584	0.907189
H100	H	0.919139	-0.376189	0.383991
C101	C	1.377301	-1.072338	0.647183
H102	H	1.386951	-1.116199	0.637579
H103	H	1.392633	-1.061517	0.717783
H104	H	1.306707	-1.061612	0.631738
H105	H	1.640098	-0.542835	0.384236
