data_functionalizedCrystal
_audit_creation_method	'MofGen! by Chris Wilmer'
_symmetry_space_group_name_H-M	'P1'
_symmetry_Int_Tables_number	1
_symmetry_cell_setting	triclinic
loop_
_symmetry_equiv_pos_as_xyz
  x,y,z
_cell_length_a	18.215407
_cell_length_b	12.645330
_cell_length_c	18.215399
_cell_angle_alpha	89.976970
_cell_angle_beta	89.980167
_cell_angle_gamma	90.018140
loop_
_atom_site_label
_atom_site_type_symbol
_atom_site_fract_x
_atom_site_fract_y
_atom_site_fract_z
Zn1	Zn	1.125109	-0.422038	-0.416141
Zn2	Zn	1.125033	-0.599320	-0.293085
Zn3	Zn	1.002041	-0.422072	-0.293088
Zn4	Zn	1.002023	-0.599261	-0.416110
O5	O	1.063551	-0.510673	-0.354606
O6	O	1.228083	-0.445565	-0.399829
O7	O	1.108693	-0.575847	-0.190101
O8	O	1.018406	-0.273720	-0.309426
O9	O	1.228027	-0.575813	-0.309421
O10	O	1.108823	-0.273695	-0.399832
O11	O	1.018332	-0.445624	-0.190104
O12	O	0.899055	-0.445566	-0.309396
O13	O	1.018374	-0.575713	-0.519099
O14	O	0.899041	-0.575746	-0.399780
O15	O	1.108805	-0.445507	-0.519121
O16	O	1.108675	-0.747659	-0.309391
O17	O	1.018300	-0.747616	-0.399777
C18	C	0.872345	-0.510654	-0.354585
C19	C	0.790546	-0.510672	-0.354594
C20	C	0.602364	-0.578563	-0.401597
C21	C	0.525506	-0.578567	-0.401606
C22	C	0.525490	-0.442801	-0.307631
C23	C	0.602348	-0.442793	-0.307626
C24	C	0.640783	-0.510680	-0.354608
C25	C	0.487067	-0.510692	-0.354622
C26	C	0.403733	-0.510695	-0.354632
C27	C	0.724122	-0.510676	-0.354600
C28	C	1.063498	-0.786102	-0.354596
C29	C	1.063542	-0.903932	-0.354616
C30	C	1.006922	-1.071513	-0.411653
C31	C	1.006632	-0.948954	-0.411470
C32	C	1.042549	-0.948523	-0.277058
C33	C	1.042203	-1.071122	-0.277404
C34	C	1.141502	-1.071022	-0.374509
C35	C	1.141024	-0.948415	-0.376205
C36	C	1.255504	-0.510692	-0.354628
C37	C	1.337303	-0.510700	-0.354637
C38	C	1.063596	-0.510600	-0.546559
C39	C	1.063615	-0.510568	-0.628358
C40	C	1.063625	-0.234167	-0.354633
C41	C	1.063657	-0.116337	-0.354644
C42	C	1.110720	-0.442707	-0.816565
C43	C	1.110728	-0.442676	-0.893424
C44	C	1.016563	-0.578266	-0.893389
C45	C	1.016551	-0.578290	-0.816532
C46	C	1.063634	-0.510513	-0.778122
C47	C	1.063654	-0.510457	-0.931838
C48	C	1.063663	-0.510424	-1.015172
C49	C	1.063624	-0.510544	-0.694783
C50	C	1.063549	-0.510669	-0.163400
C51	C	1.063672	-0.510401	-0.081602
H52	H	0.494229	-0.633842	-0.439871
H53	H	1.149055	-0.387515	-0.785294
C54	C	0.501785	-0.390935	-0.183077
C55	C	0.483240	-0.368189	-0.255986
H56	H	0.475704	-0.344867	-0.151194
H57	H	0.489170	-0.462135	-0.172231
H58	H	0.553058	-0.381209	-0.176359
H59	H	0.431967	-0.377921	-0.262706
H60	H	0.495849	-0.296971	-0.266836
H61	H	1.149069	-0.387460	-0.924721
C62	C	0.688750	-0.427878	-0.208647
C63	C	0.644585	-0.368173	-0.255972
H64	H	0.714829	-0.381808	-0.176765
H65	H	0.658748	-0.474005	-0.180445
H66	H	0.722635	-0.468299	-0.236639
H67	H	0.610696	-0.327757	-0.227981
H68	H	0.674590	-0.322027	-0.284177
C69	C	1.232990	-1.168857	-0.440762
C70	C	1.167355	-1.112659	-0.449560
H71	H	1.248941	-1.194568	-0.487097
H72	H	1.269412	-1.123429	-0.420823
H73	H	1.225125	-1.226700	-0.408408
H74	H	1.175222	-1.054811	-0.481910
H75	H	1.130925	-1.158090	-0.469509
H76	H	0.948921	-0.919719	-0.398309
H77	H	0.978203	-0.633505	-0.785230
H78	H	0.978232	-0.633450	-0.924672
H79	H	1.019935	-1.100928	-0.469351
C80	C	0.594657	-0.712750	-0.494496
C81	C	0.644613	-0.653172	-0.453247
H82	H	0.620739	-0.758803	-0.526387
H83	H	0.564663	-0.753247	-0.462389
H84	H	0.564697	-0.666600	-0.522696
H85	H	0.674570	-0.699321	-0.425043
H86	H	0.674620	-0.612671	-0.485358
C87	C	0.920104	-1.022635	-0.240904
C88	C	0.965383	-1.109862	-0.254694
H89	H	0.872676	-1.046550	-0.226890
H90	H	0.940583	-0.981437	-0.202426
H91	H	0.916336	-0.980770	-0.284051
H92	H	0.969156	-1.151723	-0.211546
H93	H	0.944899	-1.151077	-0.293176
H94	H	1.019766	-0.918802	-0.468979
H95	H	1.082562	-0.919362	-0.233421
H96	H	0.949572	-1.102414	-0.398661
H97	H	1.081734	-1.100776	-0.233479
H98	H	0.986237	-0.917912	-0.259925
H99	H	1.156855	-0.919267	-0.433284
H100	H	1.185520	-0.917762	-0.337706
H101	H	1.183771	-1.100007	-0.332986
