data_functionalizedCrystal
_audit_creation_method	'MofGen! by Chris Wilmer'
_symmetry_space_group_name_H-M	'P1'
_symmetry_Int_Tables_number	1
_symmetry_cell_setting	triclinic
loop_
_symmetry_equiv_pos_as_xyz
  x,y,z
_cell_length_a	10.686685
_cell_length_b	19.121379
_cell_length_c	10.686551
_cell_angle_alpha	91.779008
_cell_angle_beta	89.638883
_cell_angle_gamma	92.108598
loop_
_atom_site_label
_atom_site_type_symbol
_atom_site_fract_x
_atom_site_fract_y
_atom_site_fract_z
Zn1	Zn	-0.366274	-1.117455	-0.656247
Zn2	Zn	0.133726	-0.617455	-0.156247
Zn3	Zn	-0.592063	-1.118752	-0.462491
Zn4	Zn	-0.092063	-0.618752	0.037509
Zn5	Zn	-0.391218	-0.992543	-0.456719
Zn6	Zn	0.108782	-0.492543	0.043281
Zn7	Zn	-0.583497	-1.010335	-0.681064
Zn8	Zn	-0.083497	-0.510335	-0.181064
O9	O	-0.483263	-1.059771	-0.564130
O10	O	0.016737	-0.559771	-0.064130
O11	O	-0.389372	-1.215276	-0.622574
O12	O	0.110628	-0.715276	-0.122574
O13	O	-0.579444	-1.095107	-0.286749
O14	O	-0.079444	-0.595107	0.213251
O15	O	-0.212947	-1.001123	-0.470385
O16	O	0.287053	-0.501123	0.029615
O17	O	-0.555258	-1.216229	-0.480223
O18	O	-0.055258	-0.716229	0.019777
O19	O	-0.194621	-1.092896	-0.616977
O20	O	0.305379	-0.592896	-0.116977
O21	O	-0.431884	-1.002381	-0.282508
O22	O	0.068116	-0.502381	0.217492
O23	O	-0.423578	-0.897254	-0.494450
O24	O	0.076422	-0.397254	0.005550
O25	O	-0.540658	-1.031448	-0.852749
O26	O	-0.040658	-0.531448	-0.352749
O27	O	-0.564845	-0.910326	-0.659275
O28	O	-0.064845	-0.410326	-0.159275
O29	O	-0.381066	-1.110148	-0.834516
O30	O	0.118934	-0.610148	-0.334516
O31	O	-0.765889	-1.112360	-0.504287
O32	O	-0.265889	-0.612360	-0.004287
O33	O	-0.759596	-1.032706	-0.664872
O34	O	-0.259596	-0.532706	-0.164872
C35	C	-0.495989	-0.878471	-0.578930
C36	C	0.004011	-0.378471	-0.078930
C37	C	-0.501461	-0.800913	-0.585293
C38	C	-0.001461	-0.300913	-0.085293
C39	C	-0.808105	-1.074625	-0.587925
C40	C	-0.308105	-0.574625	-0.087925
C41	C	-0.947066	-1.081044	-0.598141
C42	C	-0.447066	-0.581044	-0.098141
C43	C	-0.430351	-0.757648	-0.502589
C44	C	0.069649	-0.257648	-0.002589
C45	C	-0.435504	-0.684775	-0.508568
C46	C	0.064496	-0.184775	-0.008568
C47	C	-0.511760	-0.655166	-0.597258
C48	C	-0.011760	-0.155166	-0.097258
C49	C	-0.582879	-0.698436	-0.679966
C50	C	-0.082879	-0.198436	-0.179966
C51	C	-0.577732	-0.771308	-0.673980
C52	C	-0.077732	-0.271308	-0.173980
C53	C	-0.530992	-0.435480	-0.619614
C54	C	-0.030992	0.064520	-0.119614
C55	C	-0.536130	-0.362601	-0.625596
C56	C	-0.036130	0.137399	-0.125596
C57	C	-0.388756	-0.348945	-0.454197
C58	C	0.111244	0.151055	0.045803
C59	C	-0.383611	-0.421820	-0.448223
C60	C	0.116389	0.078180	0.051777
C61	C	-0.454734	-0.465083	-0.530927
C62	C	0.045266	0.034917	-0.030927
C63	C	-0.517026	-0.580677	-0.603375
C64	C	-0.017026	-0.080677	-0.103375
C65	C	-0.449475	-0.539570	-0.524803
C66	C	0.050525	-0.039570	-0.024803
C67	C	-0.157149	-1.044880	-0.540269
C68	C	0.342851	-0.544880	-0.040269
C69	C	-0.018179	-1.038534	-0.530101
C70	C	0.481821	-0.538534	-0.030101
C71	C	-0.457124	-1.072638	-0.890270
C72	C	0.042876	-0.572638	-0.390270
C73	C	-0.445985	-1.078122	-1.029252
C74	C	0.054015	-0.578122	-0.529252
C75	C	-0.470482	-0.241779	-0.549261
C76	C	0.029518	0.258221	-0.049261
C77	C	-0.465020	-0.319337	-0.542893
C78	C	0.034980	0.180663	-0.042893
C79	C	-0.509208	-1.046990	-0.239249
C80	C	-0.009208	-0.546990	0.260751
C81	C	-0.519985	-1.041626	-0.100232
C82	C	-0.019985	-0.541626	0.399768
H83	H	-0.368245	-0.781750	-0.430377
H84	H	0.131755	-0.281750	0.069623
Br85	Br	-0.639797	-0.982560	-1.024307
Br86	Br	-0.139797	-0.482560	-0.524307
H87	H	-0.374109	-1.113567	-1.074814
H88	H	0.125891	-0.613567	-0.574814
H89	H	-0.387392	-0.563681	-0.452588
H90	H	0.112608	-0.063681	0.047412
Br91	Br	-0.338988	-0.626061	-0.396326
Br92	Br	0.161012	-0.126061	0.103674
Br93	Br	-0.942471	-0.969692	-0.419978
Br94	Br	-0.442471	-0.469692	0.080022
H95	H	-0.321524	-0.445921	-0.375994
H96	H	0.178476	0.054079	0.124006
H97	H	-0.588905	-0.470696	-0.686957
H98	H	-0.088905	0.029304	-0.186957
H99	H	-0.598226	-0.338497	-0.697826
H100	H	-0.098226	0.161503	-0.197826
Br101	Br	-0.292239	-0.290228	-0.341962
Br102	Br	0.207761	0.209772	0.158038
Br103	Br	-0.674251	-0.830026	-0.786217
Br104	Br	-0.174251	-0.330026	-0.286217
Br105	Br	-0.686396	-0.658254	-0.800311
Br106	Br	-0.186396	-0.158254	-0.300311
H107	H	-0.579113	-0.556562	-0.675587
H108	H	-0.079113	-0.056562	-0.175587
H109	H	-0.992498	-1.122355	-0.664202
H110	H	-0.492498	-0.622355	-0.164202
