data_functionalizedCrystal
_audit_creation_method	'MofGen! by Chris Wilmer'
_symmetry_space_group_name_H-M	'P1'
_symmetry_Int_Tables_number	1
_symmetry_cell_setting	triclinic
loop_
_symmetry_equiv_pos_as_xyz
  x,y,z
_cell_length_a	27.732048
_cell_length_b	19.188930
_cell_length_c	17.666332
_cell_angle_alpha	90.011603
_cell_angle_beta	90.003861
_cell_angle_gamma	82.893719
loop_
_atom_site_label
_atom_site_type_symbol
_atom_site_fract_x
_atom_site_fract_y
_atom_site_fract_z
O1	O	-0.641184	-0.083079	-0.062859
O2	O	-0.307851	0.250254	0.270474
O3	O	0.025482	0.583588	0.603808
O4	O	-0.500430	-0.095711	-0.062883
O5	O	-0.167096	0.237622	0.270450
O6	O	0.166237	0.570956	0.603783
O7	O	-0.574869	0.012286	-0.062856
O8	O	-0.241536	0.345620	0.270478
O9	O	0.091798	0.678953	0.603811
O10	O	-0.566745	-0.191077	-0.062887
O11	O	-0.233412	0.142257	0.270447
O12	O	0.099922	0.475590	0.603780
O13	O	-0.574856	0.012292	0.063041
O14	O	-0.241523	0.345625	0.396374
O15	O	0.091811	0.678959	0.729708
O16	O	-0.500417	-0.095706	0.063014
O17	O	-0.167083	0.237628	0.396347
O18	O	0.166250	0.570961	0.729680
O19	O	-0.641171	-0.083074	0.063038
O20	O	-0.307838	0.250260	0.396371
O21	O	0.025495	0.583593	0.729704
Cu22	Cu	-0.570793	-0.089389	0.074521
Cu23	Cu	-0.237459	0.243944	0.407854
Cu24	Cu	0.095874	0.577278	0.741188
Cu25	Cu	-0.570808	-0.089396	-0.074367
Cu26	Cu	-0.237475	0.243938	0.258967
Cu27	Cu	0.095858	0.577271	0.592300
O28	O	-0.566732	-0.191071	0.063010
O29	O	-0.233399	0.142262	0.396343
O30	O	0.099935	0.475596	0.729677
C31	C	-0.482415	-0.095443	0.000062
C32	C	-0.149082	0.237890	0.333396
C33	C	0.184251	0.571223	0.666729
C34	C	-0.428758	-0.094645	0.000054
C35	C	-0.095425	0.238689	0.333387
C36	C	0.237909	0.572022	0.666720
C37	C	-0.659186	-0.083341	0.000090
C38	C	-0.325852	0.249992	0.333424
C39	C	0.007481	0.583325	0.666757
C40	C	-0.712843	-0.084140	0.000094
C41	C	-0.379510	0.249193	0.333427
C42	C	-0.046176	0.582527	0.666761
C43	C	-0.574599	0.038299	0.000095
C44	C	-0.241266	0.371632	0.333428
C45	C	0.092067	0.704965	0.666762
C46	C	-0.573810	0.115798	0.000101
C47	C	-0.240476	0.449131	0.333435
C48	C	0.092857	0.782465	0.666768
C49	C	-0.090123	-0.153438	0.000078
C50	C	0.243211	0.179896	0.333411
C51	C	0.576544	0.513229	0.666744
C52	C	0.111546	-0.150475	0.000085
C53	C	0.444879	0.182858	0.333418
C54	C	0.778213	0.516192	0.666751
O55	O	0.142637	-0.204237	0.000109
O56	O	0.475971	0.129096	0.333443
O57	O	0.809304	0.462430	0.666776
N58	N	0.130866	-0.086437	0.000093
N59	N	0.464199	0.246896	0.333427
N60	N	0.797532	0.580230	0.666760
C61	C	0.099764	-0.023135	0.000105
C62	C	0.433098	0.310198	0.333438
C63	C	0.766431	0.643532	0.666771
O64	O	0.120824	0.031401	0.000120
O65	O	0.454158	0.364735	0.333453
O66	O	0.787491	0.698068	0.666787
C67	C	-0.101903	-0.026098	0.000103
C68	C	0.231430	0.307235	0.333436
C69	C	0.564763	0.640568	0.666770
C70	C	-0.121220	-0.090140	0.000087
C71	C	0.212114	0.243193	0.333420
C72	C	0.545447	0.576526	0.666754
C73	C	-0.109440	-0.217475	0.000062
C74	C	0.223894	0.115859	0.333396
C75	C	0.557227	0.449192	0.666729
C76	C	-0.159854	-0.218215	0.000056
C77	C	0.173479	0.115119	0.333390
C78	C	0.506813	0.448452	0.666723
C79	C	-0.190951	-0.154917	0.000066
C80	C	0.142382	0.178416	0.333399
C81	C	0.475716	0.511749	0.666732
C82	C	-0.171634	-0.090880	0.000081
C83	C	0.161699	0.242453	0.333414
C84	C	0.495033	0.575786	0.666748
C85	C	-0.133003	0.037203	0.000120
C86	C	0.200330	0.370536	0.333453
C87	C	0.533663	0.703870	0.666787
C88	C	-0.183423	0.036457	0.000121
C89	C	0.149910	0.369790	0.333455
C90	C	0.483244	0.703123	0.666788
C91	C	-0.202740	-0.027586	0.000105
C92	C	0.130594	0.305748	0.333439
C93	C	0.463927	0.639081	0.666772
C94	C	-0.253145	-0.028323	0.000084
C95	C	0.080188	0.305010	0.333418
C96	C	0.413521	0.638343	0.666751
N97	N	-0.272465	-0.092361	0.000076
N98	N	0.060868	0.240972	0.333409
N99	N	0.394202	0.574305	0.666743
C100	C	-0.241368	-0.155658	0.000067
C101	C	0.091966	0.177675	0.333400
C102	C	0.425299	0.511008	0.666733
C103	C	0.205643	-0.021584	0.000104
C104	C	0.538977	0.311750	0.333438
C105	C	0.872310	0.645083	0.666771
C106	C	0.256060	-0.020843	0.000103
C107	C	0.589393	0.312491	0.333437
C108	C	0.922727	0.645824	0.666770
C109	C	0.267838	-0.148183	0.000085
C110	C	0.601171	0.185150	0.333418
C111	C	0.934505	0.518483	0.666751
C112	C	0.217420	-0.148923	0.000080
C113	C	0.550754	0.184410	0.333414
C114	C	0.884087	0.517743	0.666747
C115	C	0.186324	-0.085622	0.000096
C116	C	0.519657	0.247711	0.333429
C117	C	0.852990	0.581045	0.666763
C118	C	-0.347242	-0.157208	0.000054
C119	C	-0.013908	0.176126	0.333387
C120	C	0.319425	0.509459	0.666720
C121	C	-0.397661	-0.157942	0.000044
C122	C	-0.064328	0.175391	0.333378
C123	C	0.269006	0.508725	0.666711
C124	C	-0.409435	-0.030602	0.000067
C125	C	-0.076101	0.302731	0.333400
C126	C	0.257232	0.636065	0.666734
C127	C	-0.359020	-0.029867	0.000072
C128	C	-0.025687	0.303466	0.333405
C129	C	0.307647	0.636800	0.666739
C130	C	-0.327924	-0.093176	0.000068
C131	C	0.005409	0.240158	0.333401
C132	C	0.338743	0.573491	0.666735
O133	O	-0.284265	0.025410	0.000068
O134	O	0.049068	0.358743	0.333402
O135	O	0.382402	0.692076	0.666735
O136	O	-0.262437	-0.210187	0.000068
O137	O	0.070896	0.123147	0.333402
O138	O	0.404230	0.456480	0.666735
C139	C	-0.039708	-0.152698	0.000084
C140	C	0.293625	0.180636	0.333417
C141	C	0.626958	0.513969	0.666750
C142	C	-0.020391	-0.088661	0.000099
C143	C	0.312942	0.244673	0.333432
C144	C	0.646275	0.578006	0.666765
C145	C	-0.051489	-0.025363	0.000108
C146	C	0.281845	0.307970	0.333441
C147	C	0.615178	0.641303	0.666775
C148	C	0.030025	-0.087920	0.000098
C149	C	0.363359	0.245414	0.333431
C150	C	0.696692	0.578747	0.666765
C151	C	0.061122	-0.151217	0.000089
C152	C	0.394456	0.182117	0.333422
C153	C	0.727789	0.515450	0.666755
C154	C	0.041803	-0.215255	0.000080
C155	C	0.375136	0.118079	0.333413
C156	C	0.708470	0.451412	0.666747
C157	C	-0.008611	-0.215995	0.000074
C158	C	0.324722	0.117339	0.333408
C159	C	0.658055	0.450672	0.666741
C160	C	-0.032169	0.038675	0.000116
C161	C	0.301164	0.372008	0.333450
C162	C	0.634498	0.705341	0.666783
C163	C	0.018246	0.039409	0.000122
C164	C	0.351579	0.372743	0.333455
C165	C	0.684912	0.706076	0.666788
C166	C	0.049343	-0.023888	0.000112
C167	C	0.382676	0.309446	0.333446
C168	C	0.716010	0.642779	0.666779
C169	C	-0.567002	-0.217083	0.000058
C170	C	-0.233668	0.116250	0.333391
C171	C	0.099665	0.449583	0.666725
C172	C	-0.567791	-0.294583	0.000047
C173	C	-0.234458	0.038751	0.333380
C174	C	0.098875	0.372084	0.666713
N175	N	-0.570786	-0.089384	0.179240
N176	N	-0.237452	0.243949	0.512574
N177	N	0.095881	0.577283	0.845907
C178	C	-0.617488	0.161001	0.000112
C179	C	-0.284155	0.494334	0.333446
C180	C	0.049179	0.827667	0.666779
C181	C	-0.616746	0.233820	0.000100
C182	C	-0.283413	0.567153	0.333433
C183	C	0.049920	0.900486	0.666767
C184	C	-0.572323	0.261433	0.000092
C185	C	-0.238990	0.594766	0.333425
C186	C	0.094343	0.928100	0.666759
C187	C	-0.528639	0.216220	0.000077
C188	C	-0.195306	0.549554	0.333410
C189	C	0.138028	0.882887	0.666743
C190	C	-0.529382	0.143403	0.000081
C191	C	-0.196049	0.476736	0.333415
C192	C	0.137285	0.810070	0.666748
N193	N	-0.538363	0.369223	0.042931
N194	N	-0.205029	0.702556	0.376264
N195	N	0.128304	1.035890	0.709598
N196	N	-0.537660	0.438397	0.042928
N197	N	-0.204326	0.771731	0.376262
N198	N	0.129007	1.105064	0.709595
C199	C	-0.570081	0.480827	0.000076
C200	C	-0.236748	0.814161	0.333410
C201	C	0.096585	1.147494	0.666743
N202	N	-0.603240	0.451471	-0.042764
N203	N	-0.269907	0.784805	0.290570
N204	N	0.063427	1.118138	0.623903
N205	N	-0.603944	0.382291	-0.042757
N206	N	-0.270611	0.715624	0.290576
N207	N	0.062722	1.048958	0.623909
C208	C	-0.571512	0.340390	0.000086
C209	C	-0.238179	0.673724	0.333420
C210	C	0.095154	1.007057	0.666753
C211	C	-0.612959	0.604989	0.000073
C212	C	-0.279625	0.938322	0.333406
C213	C	0.053708	1.271656	0.666740
C214	C	-0.612215	0.677809	0.000056
C215	C	-0.278881	1.011142	0.333389
C216	C	0.054452	1.344476	0.666723
C217	C	-0.524106	0.660208	0.000040
C218	C	-0.190773	0.993542	0.333373
C219	C	0.142560	1.326875	0.666707
C220	C	-0.524851	0.587390	0.000049
C221	C	-0.191518	0.920723	0.333383
C222	C	0.141815	1.254057	0.666716
C223	C	-0.569279	0.559785	0.000069
C224	C	-0.235945	0.893118	0.333403
C225	C	0.097388	1.226452	0.666736
N226	N	-0.570819	-0.089395	-0.179086
N227	N	-0.237486	0.243938	0.154247
N228	N	0.095847	0.577271	0.487581
C229	C	-0.603758	-0.041586	0.218862
C230	C	-0.270425	0.291748	0.552196
C231	C	0.062909	0.625081	0.885529
C232	C	-0.603761	-0.041582	0.298110
C233	C	-0.270427	0.291751	0.631443
C234	C	0.062906	0.625084	0.964777
C235	C	-0.570796	-0.089389	0.337733
C236	C	-0.237462	0.243944	0.671066
C237	C	0.095871	0.577278	1.004399
C238	C	-0.537817	-0.137191	0.298101
C239	C	-0.204484	0.196142	0.631434
C240	C	0.128849	0.529476	0.964768
C241	C	-0.537812	-0.137188	0.218855
C242	C	-0.204479	0.196145	0.552188
C243	C	0.128855	0.529478	0.885522
N244	N	-0.564512	-0.151237	0.462141
N245	N	-0.231179	0.182097	0.795474
N246	N	0.102155	0.515430	1.128808
N247	N	-0.564520	-0.151237	0.537422
N248	N	-0.231187	0.182097	0.870755
N249	N	0.102147	0.515430	1.204088
C250	C	-0.570808	-0.089399	0.576497
C251	C	-0.237475	0.243935	0.909830
C252	C	0.095858	0.577268	1.243163
N253	N	-0.577098	-0.027558	0.537447
N254	N	-0.243765	0.305775	0.870780
N255	N	0.089568	0.639108	1.204114
N256	N	-0.577093	-0.027559	0.462160
N257	N	-0.243760	0.305775	0.795493
N258	N	0.089573	0.639108	1.128826
C259	C	-0.570797	-0.089397	0.423662
C260	C	-0.237464	0.243936	0.756995
C261	C	0.095869	0.577270	1.090328
C262	C	-0.603786	-0.041593	0.702048
C263	C	-0.270452	0.291740	1.035381
C264	C	0.062881	0.625074	1.368714
C265	C	-0.603785	-0.041589	0.781297
C266	C	-0.270452	0.291745	1.114630
C267	C	0.062882	0.625078	1.447964
C268	C	-0.537844	-0.137203	0.781286
C269	C	-0.204511	0.196130	1.114620
C270	C	0.128823	0.529463	1.447953
C271	C	-0.537842	-0.137202	0.702039
C272	C	-0.204509	0.196132	1.035372
C273	C	0.128824	0.529465	1.368706
C274	C	-0.570816	-0.089397	0.662424
C275	C	-0.237482	0.243936	0.995758
C276	C	0.095851	0.577269	1.329091
H277	H	-0.413385	-0.210095	0.000031
H278	H	-0.080052	0.123238	0.333364
H279	H	0.253281	0.456572	0.666698
F280	F	-0.638878	0.009291	0.823467
F281	F	-0.305544	0.342624	1.156800
F282	F	0.027789	0.675957	1.490134
H283	H	-0.493813	0.106598	0.000072
H284	H	-0.160479	0.439932	0.333406
H285	H	0.172854	0.773265	0.666739
F286	F	-0.442539	0.036760	0.000078
F287	F	-0.109206	0.370093	0.333411
F288	F	0.224128	0.703427	0.666745
H289	H	0.293166	-0.199722	0.000077
H290	H	0.626500	0.133611	0.333411
H291	H	0.959833	0.466945	0.666744
F292	F	-0.502732	-0.188068	0.340271
F293	F	-0.169399	0.145265	0.673604
F294	F	0.163935	0.478598	1.006937
F295	F	-0.314154	-0.224588	0.000050
F296	F	0.019179	0.108746	0.333383
F297	F	0.352513	0.442079	0.666716
F298	F	-0.029163	-0.284158	0.000057
F299	F	0.304171	0.049176	0.333391
F300	F	0.637504	0.382509	0.666724
F301	F	0.074908	-0.282620	0.000066
F302	F	0.408241	0.050713	0.333400
F303	F	0.741574	0.384046	0.666733
F304	F	-0.076350	-0.284850	0.000052
F305	F	0.256983	0.048483	0.333386
F306	F	0.590316	0.381816	0.666719
H307	H	-0.653664	0.138530	0.000126
H308	H	-0.320331	0.471863	0.333459
H309	H	0.013002	0.805196	0.666793
F310	F	0.038797	0.107577	0.000129
F311	F	0.372131	0.440910	0.333462
F312	F	0.705464	0.774244	0.666796
H313	H	-0.652316	0.270631	0.000106
H314	H	-0.318982	0.603964	0.333439
H315	H	0.014351	0.937297	0.666773
F316	F	-0.216516	0.103833	0.000140
F317	F	0.116817	0.437166	0.333473
F318	F	0.450151	0.770500	0.666807
F319	F	0.276612	0.047320	0.000103
F320	F	0.609946	0.380653	0.333437
F321	F	0.943279	0.713986	0.666770
H322	H	-0.630606	-0.002659	0.186610
H323	H	-0.297272	0.330674	0.519944
H324	H	0.036061	0.664008	0.853277
F325	F	-0.476828	0.689591	0.000028
F326	F	-0.143494	1.022925	0.333361
F327	F	0.189839	1.356258	0.666694
F328	F	-0.481361	0.245609	0.000063
F329	F	-0.148028	0.578943	0.333396
F330	F	0.185306	0.912276	0.666730
H331	H	-0.489283	0.550585	0.000045
H332	H	-0.155950	0.883918	0.333378
H333	H	0.177383	1.217251	0.666711
H334	H	-0.175576	-0.270364	0.000043
H335	H	0.157757	0.062969	0.333376
H336	H	0.491090	0.396302	0.666710
F337	F	-0.638856	0.009294	0.340285
F338	F	-0.305523	0.342627	0.673619
F339	F	0.027810	0.675960	1.006952
F340	F	-0.660241	0.575607	0.000098
F341	F	-0.326908	0.908941	0.333431
F342	F	0.006425	1.242274	0.666765
F343	F	-0.065259	0.106048	0.000128
F344	F	0.268074	0.439381	0.333461
F345	F	0.601408	0.772715	0.666794
F346	F	-0.658706	0.725918	0.000063
F347	F	-0.325373	1.059251	0.333396
F348	F	0.007961	1.392585	0.666730
H349	H	0.201697	-0.201072	0.000071
H350	H	0.535030	0.132261	0.333405
H351	H	0.868363	0.465594	0.666738
H352	H	0.180328	0.029967	0.000117
H353	H	0.513661	0.363300	0.333450
H354	H	0.846995	0.696634	0.666784
H355	H	-0.510961	-0.176112	0.186594
H356	H	-0.177628	0.157221	0.519927
H357	H	0.155705	0.490555	0.853261
H358	H	-0.511001	-0.176126	0.813547
H359	H	-0.177668	0.157207	1.146880
H360	H	0.155665	0.490541	1.480213
F361	F	-0.112457	0.105367	0.000126
F362	F	0.220877	0.438700	0.333460
F363	F	0.554210	0.772033	0.666793
F364	F	-0.338461	0.038293	0.000090
F365	F	-0.005128	0.371627	0.333423
F366	F	0.328206	0.704960	0.666756
F367	F	-0.638877	0.009287	0.659886
F368	F	-0.305544	0.342621	0.993220
F369	F	0.027790	0.675954	1.326553
F370	F	-0.502751	-0.188078	0.659867
F371	F	-0.169417	0.145255	0.993200
F372	F	0.163916	0.478588	1.326534
