data_functionalizedCrystal
_audit_creation_method	'MofGen! by Chris Wilmer'
_symmetry_space_group_name_H-M	'P1'
_symmetry_Int_Tables_number	1
_symmetry_cell_setting	triclinic
loop_
_symmetry_equiv_pos_as_xyz
  x,y,z
_cell_length_a	11.792241
_cell_length_b	10.268362
_cell_length_c	11.792240
_cell_angle_alpha	89.984887
_cell_angle_beta	84.193417
_cell_angle_gamma	90.003482
loop_
_atom_site_label
_atom_site_type_symbol
_atom_site_fract_x
_atom_site_fract_y
_atom_site_fract_z
O1	O	-1.506902	0.108203	-0.155570
O2	O	-1.256902	0.358203	0.094430
O3	O	-1.006902	0.608203	0.344430
O4	O	-0.756902	0.858203	0.594430
O5	O	-1.176561	0.108236	-0.171603
O6	O	-0.926561	0.358236	0.078397
O7	O	-0.676561	0.608236	0.328397
O8	O	-0.426561	0.858236	0.578397
O9	O	-1.349748	0.108179	0.001584
O10	O	-1.099748	0.358179	0.251584
O11	O	-0.849748	0.608179	0.501584
O12	O	-0.599748	0.858179	0.751584
O13	O	-1.333715	0.108260	-0.328757
O14	O	-1.083715	0.358260	-0.078757
O15	O	-0.833715	0.608260	0.171243
O16	O	-0.583715	0.858260	0.421243
O17	O	-1.349746	-0.108421	0.001594
O18	O	-1.099746	0.141579	0.251594
O19	O	-0.849746	0.391579	0.501594
O20	O	-0.599746	0.641579	0.751594
O21	O	-1.176559	-0.108364	-0.171593
O22	O	-0.926559	0.141636	0.078407
O23	O	-0.676559	0.391636	0.328407
O24	O	-0.426559	0.641636	0.578407
O25	O	-1.506900	-0.108398	-0.155560
O26	O	-1.256900	0.141602	0.094440
O27	O	-1.006900	0.391602	0.344440
O28	O	-0.756900	0.641602	0.594440
Cu29	Cu	-1.341729	-0.128158	-0.163576
Cu30	Cu	-1.091729	0.121842	0.086424
Cu31	Cu	-0.841729	0.371842	0.336424
Cu32	Cu	-0.591729	0.621842	0.586424
Cu33	Cu	-1.341732	0.127997	-0.163588
Cu34	Cu	-1.091732	0.377997	0.086412
Cu35	Cu	-0.841732	0.627997	0.336412
Cu36	Cu	-0.591732	0.877997	0.586412
O37	O	-1.333713	-0.108341	-0.328747
O38	O	-1.083713	0.141659	-0.078747
O39	O	-0.833713	0.391659	0.171253
O40	O	-0.583713	0.641659	0.421253
C41	C	-1.134269	-0.000060	-0.170591
C42	C	-0.884269	0.249940	0.079409
C43	C	-0.634269	0.499940	0.329409
C44	C	-0.384269	0.749940	0.579409
C45	C	-1.008255	-0.000050	-0.167576
C46	C	-0.758255	0.249950	0.082424
C47	C	-0.508255	0.499950	0.332424
C48	C	-0.258255	0.749950	0.582424
C49	C	-1.348740	-0.000128	0.043880
C50	C	-1.098740	0.249872	0.293880
C51	C	-0.848740	0.499872	0.543880
C52	C	-0.598740	0.749872	0.793880
C53	C	-1.345726	-0.000150	0.169894
C54	C	-1.095726	0.249850	0.419894
C55	C	-0.845726	0.499850	0.669894
C56	C	-0.595726	0.749850	0.919894
C57	C	-1.549192	-0.000098	-0.156572
C58	C	-1.299192	0.249902	0.093428
C59	C	-1.049192	0.499902	0.343428
C60	C	-0.799192	0.749902	0.593428
C61	C	-1.675206	-0.000100	-0.159587
C62	C	-1.425206	0.249900	0.090413
C63	C	-1.175206	0.499900	0.340413
C64	C	-0.925206	0.749900	0.590413
C65	C	-0.777543	-0.000088	-0.162034
C66	C	-0.527543	0.249912	0.087966
C67	C	-0.277543	0.499912	0.337966
C68	C	-0.027543	0.749912	0.587966
C69	C	-0.905928	-0.000067	-0.165113
C70	C	-0.655928	0.249933	0.084887
C71	C	-0.405928	0.499933	0.334887
C72	C	-0.155928	0.749933	0.584887
N73	N	-1.341734	0.308163	-0.163588
N74	N	-1.091734	0.558163	0.086412
N75	N	-0.841734	0.808163	0.336412
N76	N	-0.591734	1.058163	0.586412
N77	N	-1.341736	-0.308324	-0.163566
N78	N	-1.091736	-0.058324	0.086434
N79	N	-0.841736	0.191676	0.336434
N80	N	-0.591736	0.441676	0.586434
C81	C	-1.341731	0.573833	-0.163581
C82	C	-1.091731	0.823833	0.086419
C83	C	-0.841731	1.073833	0.336419
C84	C	-0.591731	1.323833	0.586419
C85	C	-1.341730	0.425996	-0.163588
C86	C	-1.091730	0.675996	0.086412
C87	C	-0.841730	0.925996	0.336412
C88	C	-0.591730	1.175996	0.586412
C89	C	-1.340183	-0.000170	0.400606
C90	C	-1.090183	0.249830	0.650606
C91	C	-0.840183	0.499830	0.900606
C92	C	-0.590183	0.749830	1.150606
C93	C	-1.343262	-0.000159	0.272221
C94	C	-1.093262	0.249841	0.522221
C95	C	-0.843262	0.499841	0.772221
C96	C	-0.593262	0.749841	1.022221
C97	C	-1.334721	-0.000076	0.628957
C98	C	-1.084721	0.249924	0.878957
C99	C	-0.834721	0.499924	1.128957
C100	C	-0.584721	0.749924	1.378957
C101	C	-1.337736	-0.000184	0.502943
C102	C	-1.087736	0.249816	0.752943
C103	C	-0.837736	0.499816	1.002943
C104	C	-0.587736	0.749816	1.252943
