data_functionalizedCrystal
_audit_creation_method	'MofGen! by Chris Wilmer'
_symmetry_space_group_name_H-M	'P1'
_symmetry_Int_Tables_number	1
_symmetry_cell_setting	triclinic
loop_
_symmetry_equiv_pos_as_xyz
  x,y,z
_cell_length_a	10.723023
_cell_length_b	10.723023
_cell_length_c	9.798715
_cell_angle_alpha	90.002054
_cell_angle_beta	89.996380
_cell_angle_gamma	95.532452
loop_
_atom_site_label
_atom_site_type_symbol
_atom_site_fract_x
_atom_site_fract_y
_atom_site_fract_z
O1	O	-1.657187	0.175020	0.113493
O2	O	-1.157187	0.675020	0.613493
O3	O	-1.294034	0.191775	0.113494
O4	O	-0.794034	0.691775	0.613494
O5	O	-1.483988	0.001821	0.113489
O6	O	-0.983988	0.501821	0.613489
O7	O	-1.467233	0.364974	0.113498
O8	O	-0.967233	0.864974	0.613498
O9	O	-1.483975	0.001820	-0.113494
O10	O	-0.983975	0.501820	0.386506
O11	O	-1.294021	0.191773	-0.113489
O12	O	-0.794021	0.691773	0.386511
O13	O	-1.657174	0.175019	-0.113490
O14	O	-1.157174	0.675019	0.386510
Zn15	Zn	-1.475595	0.183396	-0.149527
Zn16	Zn	-0.975595	0.683396	0.350473
Zn17	Zn	-1.475613	0.183398	0.149531
Zn18	Zn	-0.975613	0.683398	0.649531
O19	O	-1.467220	0.364972	-0.113485
O20	O	-0.967220	0.864972	0.386515
C21	C	-1.247528	0.190555	0.000003
C22	C	-0.747528	0.690555	0.500003
C23	C	-1.108974	0.186908	0.000003
C24	C	-0.608974	0.686908	0.500003
C25	C	-1.482762	-0.044679	-0.000001
C26	C	-0.982762	0.455321	0.499999
C27	C	-1.479115	-0.183233	0.000005
C28	C	-0.979115	0.316767	0.500005
C29	C	-0.904013	0.181513	0.117584
C30	C	-0.404013	0.681513	0.617584
C31	C	-1.047216	0.185282	0.117586
C32	C	-0.547216	0.685282	0.617586
C33	C	-1.473726	-0.388194	0.117593
C34	C	-0.973726	0.111806	0.617593
C35	C	-1.477496	-0.244991	0.117590
C36	C	-0.977496	0.255009	0.617590
C37	C	-0.703680	0.176239	0.000001
C38	C	-0.203680	0.676239	0.500001
C39	C	-0.842234	0.179886	0.000001
C40	C	-0.342234	0.679886	0.500001
C41	C	-1.468446	0.411473	0.000008
C42	C	-0.968446	0.911473	0.500008
C43	C	-1.472093	0.550027	0.000012
C44	C	-0.972093	1.050027	0.500012
N45	N	-1.475592	0.183394	-0.353627
N46	N	-0.975592	0.683394	0.146373
C47	C	-1.555546	0.103465	-0.578561
C48	C	-1.055546	0.603465	-0.078561
C49	C	-1.555529	0.103466	-0.421398
C50	C	-1.055529	0.603466	0.078602
N51	N	-1.475625	0.183390	0.353631
N52	N	-0.975625	0.683390	0.853631
H53	H	-0.850888	0.180107	0.218250
H54	H	-0.350888	0.680107	0.718250
Br55	Br	-1.669570	-0.010601	-0.324216
Br56	Br	-1.169570	0.489399	0.175784
H57	H	-1.055853	0.185516	-0.100669
H58	H	-0.555853	0.685516	0.399331
Br59	Br	-1.135756	0.187629	0.285383
Br60	Br	-0.635756	0.687629	0.785383
Br61	Br	-1.474429	-0.361441	-0.167785
Br62	Br	-0.974429	0.138559	0.332215
H63	H	-1.407161	0.251820	-0.411930
H64	H	-0.907161	0.751820	0.088070
H65	H	-1.407194	0.251823	-0.588071
H66	H	-0.907194	0.751823	-0.088071
H67	H	-1.472341	-0.441322	0.218260
H68	H	-0.972341	0.058678	0.718260
Br69	Br	-0.930770	0.182201	-0.167793
Br70	Br	-0.430770	0.682201	0.332207
H71	H	-1.478890	-0.191862	0.218255
H72	H	-0.978890	0.308138	0.718255
H73	H	-1.477703	-0.236353	-0.100666
H74	H	-0.977703	0.263647	0.399334
Br75	Br	-1.669629	-0.010585	-0.675712
Br76	Br	-1.169629	0.489415	-0.175712
