data_functionalizedCrystal
_audit_creation_method	'MofGen! by Chris Wilmer'
_symmetry_space_group_name_H-M	'P1'
_symmetry_Int_Tables_number	1
_symmetry_cell_setting	triclinic
loop_
_symmetry_equiv_pos_as_xyz
  x,y,z
_cell_length_a	14.395555
_cell_length_b	14.809436
_cell_length_c	14.809374
_cell_angle_alpha	60.797024
_cell_angle_beta	90.002017
_cell_angle_gamma	67.424568
loop_
_atom_site_label
_atom_site_type_symbol
_atom_site_fract_x
_atom_site_fract_y
_atom_site_fract_z
Zr1	Zr	1.026060	0.955184	-0.203644
O2	O	0.912261	1.113112	-0.350812
O3	O	1.044839	0.777414	-0.145562
O4	O	1.082834	0.926563	-0.332103
O5	O	0.862617	0.993459	-0.031874
O6	O	1.235707	0.926558	-0.332095
O7	O	0.874266	0.963963	-0.164271
O8	O	1.167741	0.659757	0.001593
O9	O	0.930583	1.260260	-0.365563
O10	O	1.186395	0.857879	-0.136451
O11	O	1.063614	0.879896	-0.037651
O12	O	1.108348	1.055499	-0.257279
O13	O	0.985567	1.077516	-0.158479
Zr14	Zr	1.251295	1.002220	0.007526
Zr15	Zr	1.269874	0.955176	-0.203631
Zr16	Zr	1.007481	1.002228	0.007514
Zr17	Zr	1.055281	1.189868	-0.227169
Zr18	Zr	1.222074	0.767536	0.031051
O19	O	1.232516	1.179990	-0.050556
O20	O	1.258933	1.113100	-0.350795
O21	O	0.885844	1.180002	-0.050573
O22	O	1.365094	0.844292	0.154695
O23	O	1.391512	0.777402	-0.145544
O24	O	1.018422	0.844304	0.154677
O25	O	1.414738	0.963945	-0.164244
O26	O	1.194522	1.030841	0.135986
O27	O	1.041649	1.030846	0.135978
O28	O	1.403089	0.993441	-0.031847
O29	O	1.124383	1.260253	-0.365553
O30	O	1.152973	0.697151	0.169435
O31	O	1.346773	0.697144	0.169445
O32	O	1.361541	0.659751	0.001603
O33	O	0.915815	1.297653	-0.197720
O34	O	1.109615	1.297647	-0.197711
O35	O	1.169007	0.901905	0.061161
O36	O	1.291788	0.879888	-0.037639
O37	O	1.213741	1.077508	-0.158467
O38	O	1.090961	1.099525	-0.059667
C39	C	1.102127	0.685148	-0.068632
C40	C	1.089721	0.585519	-0.058645
C41	C	1.132264	0.427222	-0.092908
C42	C	1.145099	0.530183	-0.103216
C43	C	0.833703	0.978712	-0.098074
C44	C	0.730198	0.978716	-0.098079
C45	C	0.627054	1.086469	-0.163952
C46	C	0.592199	1.017906	-0.196989
C47	C	0.580629	1.047272	-0.065048
C48	C	0.696711	0.910140	-0.131171
C49	C	0.685136	0.939535	0.000819
C50	C	0.650342	0.870889	-0.032186
C51	C	1.443652	0.978692	-0.098043
C52	C	1.547158	0.978688	-0.098038
C53	C	1.161917	0.919857	-0.362185
C54	C	1.169805	0.899886	-0.451827
C55	C	1.175229	1.272256	-0.127485
C56	C	1.187634	1.371885	-0.137472
C57	C	1.134605	0.989016	-0.551731
C58	C	1.142756	0.968376	-0.644382
C59	C	1.115438	1.037547	0.166067
C60	C	1.107551	1.057518	0.255709
C61	C	1.407101	0.685138	-0.068617
C62	C	1.498201	0.585505	-0.058625
C63	C	1.078887	0.743993	0.195494
C64	C	1.058594	0.664334	0.295122
C65	C	1.383861	0.743983	0.195509
C66	C	1.467074	0.664321	0.295143
C67	C	0.893494	1.213422	-0.391626
C68	C	0.810281	1.293083	-0.491261
C69	C	0.870254	1.272266	-0.127500
C70	C	0.779154	1.371899	-0.137493
C71	C	1.198468	1.213411	-0.391611
C72	C	1.218761	1.293070	-0.491240
C73	C	1.485970	0.527226	-0.105520
C74	C	1.571562	0.433619	-0.096152
C75	C	1.669384	0.398287	-0.039883
C76	C	1.681615	0.456576	0.007013
C77	C	1.596025	0.550187	-0.002361
C78	C	1.104078	0.638417	0.393497
C79	C	1.085008	0.563584	0.487116
C80	C	1.020459	0.514664	0.482358
C81	C	0.974970	0.540589	0.383973
C82	C	0.994035	0.615427	0.290356
C83	C	1.570253	0.615418	0.290360
C84	C	1.648452	0.540579	0.383967
C85	C	1.623470	0.514637	0.482358
C86	C	1.520281	0.563549	0.487138
C87	C	1.442085	0.638393	0.393531
C88	C	0.707104	1.341997	-0.486478
C89	C	0.628908	1.416865	-0.580089
C90	C	0.653891	1.442812	-0.678480
C91	C	0.757079	1.393895	-0.683260
C92	C	0.835273	1.319034	-0.589651
C93	C	0.791388	1.430186	-0.090607
C94	C	0.705801	1.523814	-0.100001
C95	C	0.607979	1.559148	-0.156274
C96	C	0.595748	1.500855	-0.203165
C97	C	0.681335	1.407234	-0.193778
C98	C	1.283315	1.341967	-0.486448
C99	C	1.302402	1.416804	-0.580051
C100	C	1.256928	1.442748	-0.678445
C101	C	1.192371	1.393842	-0.683234
C102	C	1.173291	1.319000	-0.589632
H103	H	1.202014	0.559022	-0.148999
C104	C	1.264511	0.410848	-0.199325
H105	H	1.263047	0.474943	-0.198145
H106	H	1.332269	0.349352	-0.167136
H107	H	1.245630	0.432308	-0.270868
C108	C	1.135062	0.535070	0.595326
H109	H	1.176248	0.574910	0.584745
H110	H	1.082503	0.558220	0.628794
H111	H	1.177337	0.454481	0.639190
C112	C	1.012838	0.546564	0.003209
H113	H	1.014289	0.482479	0.002018
H114	H	1.031706	0.525115	0.074745
H115	H	0.945076	0.608068	-0.028994
H116	H	1.178932	0.876783	-0.627435
H117	H	0.618233	1.177568	-0.219726
H118	H	0.725444	0.906461	0.084418
H119	H	1.732466	0.500761	0.380056
C120	C	0.679605	1.313483	-0.378262
H121	H	0.606956	1.353358	-0.388837
H122	H	0.700973	1.232904	-0.334391
H123	H	0.713907	1.336631	-0.344806
C124	C	0.512949	1.125595	-0.027321
H125	H	0.494154	1.081274	0.035083
H126	H	0.550650	1.158931	-0.012176
H127	H	0.452274	1.184897	-0.081603
C128	C	0.784545	1.422434	-0.791492
H129	H	0.723190	1.474012	-0.846548
H130	H	0.830153	1.457305	-0.802559
H131	H	0.817220	1.353580	-0.792148
H132	H	0.871030	1.401427	-0.044778
H133	H	0.551894	1.051019	-0.280609
C134	C	0.488140	1.539725	-0.265053
H135	H	0.438925	1.603821	-0.263911
H136	H	0.490105	1.561133	-0.336573
H137	H	0.468993	1.478198	-0.232832
C138	C	0.999503	0.432339	0.585343
H139	H	1.035849	0.423906	0.644610
H140	H	0.927452	0.463015	0.582283
H141	H	1.022306	0.359289	0.592682
C142	C	1.055384	0.388262	-0.031057
H143	H	1.056838	0.324177	-0.032250
H144	H	1.074252	0.366812	0.040479
H145	H	0.987623	0.449765	-0.063261
H146	H	0.590210	1.503770	-0.754694
C147	C	1.277918	1.525075	-0.781402
H148	H	1.241598	1.533523	-0.840693
H149	H	1.255135	1.598108	-0.788719
H150	H	1.349979	1.494370	-0.778312
C151	C	0.903975	0.486769	0.378748
H152	H	0.879605	0.512923	0.306753
H153	H	0.941681	0.405232	0.418335
H154	H	0.846826	0.508967	0.407922
C155	C	0.764209	0.831865	-0.169026
H156	H	0.829996	0.832384	-0.168846
H157	H	0.772703	0.755482	-0.122539
H158	H	0.731572	0.859460	-0.239064
H159	H	0.715779	1.571262	-0.061810
C160	C	1.597748	0.643948	0.182140
H161	H	1.536406	0.695520	0.127066
H162	H	1.643348	0.678825	0.171094
H163	H	1.630444	0.575091	0.181492
C164	C	1.789215	0.417691	0.068927
H165	H	1.784253	0.465802	0.095518
H166	H	1.814310	0.340180	0.126582
H167	H	1.835463	0.423113	0.022873
C168	C	0.948762	1.265221	-0.594923
H169	H	0.952430	1.291391	-0.666930
H170	H	0.988407	1.287387	-0.565748
H171	H	0.975458	1.183678	-0.555362
C172	C	1.085738	1.112744	-0.574625
H173	H	1.086663	1.110384	-0.509349
H174	H	1.124074	1.152092	-0.614321
H175	H	1.016313	1.152085	-0.614320
H176	H	1.071380	1.149112	-0.761239
H177	H	1.561583	0.386170	-0.134342
H178	H	1.155350	1.414978	-0.763359
H179	H	0.544894	1.456682	-0.576176
H180	H	1.205978	0.808300	-0.434887
C181	C	0.667868	1.343113	-0.245341
H182	H	0.732846	1.282295	-0.231701
H183	H	0.620663	1.312286	-0.216206
H184	H	0.641797	1.395205	-0.319939
H185	H	1.739069	0.322061	-0.032256
C186	C	0.662525	0.747700	0.043081
H187	H	0.703015	0.699156	0.019462
H188	H	0.695827	0.719492	0.113071
H189	H	0.596239	0.748452	0.043123
C190	C	0.944005	0.643919	0.182151
H191	H	0.902841	0.604054	0.192736
H192	H	0.901730	0.724500	0.138273
H193	H	0.996582	0.620757	0.148697
C194	C	1.378378	0.566078	-0.167426
H195	H	1.383368	0.517961	-0.194019
H196	H	1.332130	0.560652	-0.121379
H197	H	1.353269	0.643590	-0.225096
H198	H	1.687152	0.453692	0.558571
H199	H	1.605997	0.597628	0.035834
H200	H	1.156638	0.678241	0.397391
C201	C	1.328591	0.692164	0.398808
H202	H	1.324921	0.665979	0.470816
H203	H	1.301861	0.773704	0.359238
H204	H	1.288975	0.669958	0.369644
C205	C	1.333348	1.313438	-0.378227
H206	H	1.374534	1.353275	-0.388793
H207	H	1.280782	1.336583	-0.344762
H208	H	1.375621	1.232848	-0.334367
C209	C	1.373400	1.470601	-0.574765
H210	H	1.397729	1.444444	-0.502759
H211	H	1.430560	1.448415	-0.603921
H212	H	1.335696	1.552145	-0.614341
H213	H	1.499955	0.542416	0.567261
H214	H	0.538297	1.635382	-0.163910
H215	H	1.120722	1.279195	-0.593548
