data_functionalizedCrystal
_audit_creation_method	'MofGen! by Chris Wilmer'
_symmetry_space_group_name_H-M	'P1'
_symmetry_Int_Tables_number	1
_symmetry_cell_setting	triclinic
loop_
_symmetry_equiv_pos_as_xyz
  x,y,z
_cell_length_a	12.784890
_cell_length_b	11.792241
_cell_length_c	11.892095
_cell_angle_alpha	93.915739
_cell_angle_beta	86.513306
_cell_angle_gamma	78.649987
loop_
_atom_site_label
_atom_site_type_symbol
_atom_site_fract_x
_atom_site_fract_y
_atom_site_fract_z
O1	O	1.417107	-0.000823	-0.093968
O2	O	1.107932	0.047757	-0.093978
O3	O	1.270022	-0.142493	-0.093965
O4	O	1.255017	0.189427	-0.093982
O5	O	1.256507	-0.126652	0.094041
O6	O	1.094417	0.063597	0.094028
O7	O	1.403592	0.015018	0.094038
Zn8	Zn	1.246859	0.041822	0.123883
Zn9	Zn	1.264665	0.020952	-0.123824
O10	O	1.241503	0.205267	0.094025
C11	C	1.061594	0.058837	0.000024
C12	C	0.943654	0.068238	0.000020
C13	C	0.765357	0.186061	0.000013
C14	C	0.876171	0.177235	0.000013
C15	C	0.900316	-0.031941	0.000023
C16	C	0.789502	-0.023115	0.000023
C17	C	0.722026	0.085889	0.000019
C18	C	0.611209	0.094715	0.000027
C19	C	0.635357	-0.114461	0.000029
C20	C	0.746171	-0.123287	0.000029
C21	C	1.262322	-0.176764	0.000038
C22	C	1.259501	-0.302481	0.000036
C23	C	1.254314	-0.532649	0.000017
C24	C	1.257196	-0.404566	0.000028
C25	C	1.449931	0.003938	0.000033
C26	C	1.567871	-0.005464	0.000030
C27	C	1.249203	0.239538	0.000019
C28	C	1.252024	0.365255	0.000013
N29	N	1.234714	0.056064	0.292936
N30	N	1.276818	0.006700	-0.292877
C31	C	1.361326	-0.092467	0.529594
C32	C	1.352845	-0.082504	0.647935
C33	C	1.209266	0.085946	0.647962
C34	C	1.217747	0.075984	0.529621
C35	C	1.293781	-0.013225	0.470441
C36	C	1.302267	-0.023181	0.352098
C37	C	1.158684	0.145263	0.352126
C38	C	1.150202	0.155225	0.470467
H39	H	0.710416	0.274818	0.000023
H40	H	0.955274	-0.120688	0.000017
C41	C	0.923008	0.286134	0.000067
C42	C	0.840191	0.383480	0.000091
C43	C	0.883294	0.483823	0.000155
H44	H	0.970431	0.281681	-0.065476
H45	H	0.960990	0.292629	0.065656
H46	H	0.802226	0.376986	-0.065491
H47	H	0.792762	0.387971	0.065630
H48	H	0.921276	0.490319	0.065744
H49	H	0.930717	0.479359	-0.065390
H50	H	0.827109	0.549885	0.000182
H51	H	1.103687	0.209790	0.303950
C52	C	0.588472	-0.223341	-0.000141
C53	C	0.629681	-0.296749	-0.096847
C54	C	0.586527	-0.397063	-0.097028
H55	H	0.512818	-0.202647	-0.000196
H56	H	0.606920	-0.262300	0.065390
H57	H	0.611225	-0.257797	-0.162361
H58	H	0.705331	-0.317475	-0.096812
H59	H	0.604975	-0.436023	-0.031497
H60	H	0.510874	-0.376358	-0.097081
H61	H	0.614488	-0.446888	-0.162636
H62	H	0.801125	-0.212035	0.000028
C63	C	1.126770	0.182948	0.712074
C64	C	1.146671	0.290312	0.683273
C65	C	1.070683	0.379694	0.742296
H66	H	1.131308	0.177698	0.791043
H67	H	1.057180	0.176011	0.692659
H68	H	1.216243	0.297247	0.702696
H69	H	1.142124	0.295600	0.604314
H70	H	1.001093	0.372756	0.722881
H71	H	1.075227	0.374432	0.821263
H72	H	1.084169	0.452550	0.722756
H73	H	0.556271	0.183473	0.000030
C74	C	1.067488	0.251954	0.534669
C75	C	0.965058	0.241365	0.505924
C76	C	0.888834	0.330443	0.565054
H77	H	1.080704	0.324964	0.515324
H78	H	1.072037	0.246538	0.613631
H79	H	0.960512	0.246792	0.426980
H80	H	0.951808	0.168374	0.525272
H81	H	0.893384	0.325027	0.644016
H82	H	0.902060	0.403447	0.545704
H83	H	0.819327	0.323264	0.545567
H84	H	1.407846	-0.147032	0.696095
H85	H	1.364179	-0.095816	0.303915
H86	H	1.423243	-0.165097	0.481409
