data_functionalizedCrystal
_audit_creation_method	'MofGen! by Chris Wilmer'
_symmetry_space_group_name_H-M	'P1'
_symmetry_Int_Tables_number	1
_symmetry_cell_setting	triclinic
loop_
_symmetry_equiv_pos_as_xyz
  x,y,z
_cell_length_a	29.839135
_cell_length_b	29.839131
_cell_length_c	29.839125
_cell_angle_alpha	90.013540
_cell_angle_beta	90.015488
_cell_angle_gamma	90.044233
loop_
_atom_site_label
_atom_site_type_symbol
_atom_site_fract_x
_atom_site_fract_y
_atom_site_fract_z
Zn1	Zn	0.686719	-0.178886	0.254060
Zn2	Zn	0.686651	-0.253998	0.178936
Zn3	Zn	0.611602	-0.178886	0.178938
Zn4	Zn	0.611549	-0.253993	0.254033
O5	O	0.649130	-0.216441	0.216492
O6	O	0.749577	-0.188852	0.244105
O7	O	0.676689	-0.244036	0.116069
O8	O	0.621617	-0.116019	0.188916
O9	O	0.749527	-0.244036	0.188912
O10	O	0.676805	-0.116019	0.244108
O11	O	0.621550	-0.188852	0.116071
O12	O	0.548727	-0.188847	0.188889
O13	O	0.621527	-0.244028	0.316903
O14	O	0.548689	-0.244028	0.244061
O15	O	0.676754	-0.188847	0.316924
O16	O	0.676638	-0.316864	0.188885
O17	O	0.621461	-0.316861	0.244058
C18	C	0.532407	-0.216437	0.216473
C19	C	0.482473	-0.216447	0.216475
C20	C	0.172853	-0.187750	0.245273
C21	C	-0.014820	-0.187753	0.245286
O22	O	-0.039066	-0.163344	0.269750
N23	N	-0.038312	-0.216441	0.216508
C24	C	-0.014883	-0.245129	0.187723
O25	O	-0.039170	-0.269527	0.163242
C26	C	0.172789	-0.245123	0.187708
C27	C	0.196279	-0.216436	0.216491
C28	C	0.196342	-0.159065	0.274054
C29	C	0.243257	-0.159066	0.274052
C30	C	0.266684	-0.187752	0.245270
C31	C	0.243194	-0.216437	0.216489
C32	C	0.196218	-0.273808	0.158921
C33	C	0.243139	-0.273803	0.158919
C34	C	0.266628	-0.245116	0.187702
C35	C	0.313536	-0.245125	0.187706
N36	N	0.337028	-0.216437	0.216484
C37	C	0.313601	-0.187750	0.245266
C38	C	-0.113413	-0.245130	0.187733
C39	C	-0.160331	-0.245133	0.187737
C40	C	-0.160266	-0.187756	0.245300
C41	C	-0.113347	-0.187756	0.245298
C42	C	-0.089922	-0.216442	0.216511
C43	C	0.412127	-0.187755	0.245260
C44	C	0.459047	-0.187760	0.245257
C45	C	0.458977	-0.245135	0.187693
C46	C	0.412062	-0.245132	0.187697
C47	C	0.388638	-0.216438	0.216482
O48	O	0.337810	-0.269518	0.163251
O49	O	0.337897	-0.163349	0.269735
C50	C	0.125937	-0.187749	0.245275
C51	C	0.102448	-0.216434	0.216495
C52	C	0.125874	-0.245120	0.187713
C53	C	0.055530	-0.216436	0.216499
C54	C	0.032104	-0.187749	0.245281
C55	C	0.055596	-0.159061	0.274059
C56	C	0.102511	-0.159062	0.274057
C57	C	0.102382	-0.273808	0.158935
C58	C	0.055467	-0.273805	0.158939
C59	C	0.032041	-0.245119	0.187721
C60	C	0.649048	-0.333163	0.216478
C61	C	0.649054	-0.383098	0.216487
C62	C	0.620418	-0.739699	0.245219
C63	C	0.620358	-0.552026	0.245205
O64	O	0.595913	-0.527773	0.269625
N65	N	0.649102	-0.528543	0.216500
C66	C	0.677864	-0.551981	0.187800
O67	O	0.702314	-0.527702	0.163388
C68	C	0.677926	-0.739654	0.187817
C69	C	0.649177	-0.763134	0.216519
C70	C	0.591672	-0.763179	0.273919
C71	C	0.591685	-0.810094	0.273921
C72	C	0.620445	-0.833530	0.245222
C73	C	0.649190	-0.810049	0.216521
C74	C	0.706690	-0.763091	0.159119
C75	C	0.706703	-0.810012	0.159126
C76	C	0.677955	-0.833492	0.187829
C77	C	0.677963	-0.880400	0.187823
N78	N	0.649220	-0.903883	0.216527
C79	C	0.620460	-0.880447	0.245226
C80	C	0.677829	-0.453451	0.187793
C81	C	0.677814	-0.406533	0.187788
C82	C	0.620308	-0.406580	0.245193
C83	C	0.620322	-0.453499	0.245195
C84	C	0.649086	-0.476933	0.216497
C85	C	0.620490	-0.978973	0.245227
C86	C	0.620505	-1.025893	0.245225
C87	C	0.678012	-1.025841	0.187821
C88	C	0.677996	-0.978926	0.187822
C89	C	0.649234	-0.955493	0.216528
O90	O	0.702399	-0.904682	0.163419
O91	O	0.596021	-0.904735	0.269641
C92	C	0.620404	-0.692783	0.245217
C93	C	0.649150	-0.669303	0.216516
C94	C	0.677909	-0.692738	0.187817
C95	C	0.649134	-0.622385	0.216512
C96	C	0.620375	-0.598950	0.245211
C97	C	0.591632	-0.622433	0.273915
C98	C	0.591645	-0.669348	0.273916
C99	C	0.706653	-0.669255	0.159113
C100	C	0.706637	-0.622340	0.159114
C101	C	0.677878	-0.598905	0.187813
C102	C	0.766308	-0.216445	0.216511
C103	C	0.816243	-0.216446	0.216520
C104	C	0.649142	-0.216437	0.333670
C105	C	0.649147	-0.216435	0.383605
C106	C	0.649224	-0.099262	0.216515
C107	C	0.649264	-0.049328	0.216525
C108	C	0.649144	-0.216412	0.099769
C109	C	0.649226	-0.216288	0.049835
C110	C	0.677934	-0.187627	0.693262
C111	C	0.677956	-0.187589	0.880935
O112	O	0.702399	-0.163138	0.905211
N113	N	0.649207	-0.216315	0.904390
C114	C	0.620448	-0.245050	0.880924
O115	O	0.595991	-0.269479	0.905180
C116	C	0.620423	-0.245086	0.693251
C117	C	0.649178	-0.216361	0.669799
C118	C	0.706686	-0.158905	0.669809
C119	C	0.706682	-0.158916	0.622893
C120	C	0.677926	-0.187650	0.599431
C121	C	0.649174	-0.216373	0.622883
C122	C	0.591662	-0.273819	0.669786
C123	C	0.591658	-0.273824	0.622865
C124	C	0.620412	-0.245100	0.599413
C125	C	0.620414	-0.245119	0.552505
N126	N	0.649163	-0.216393	0.529050
C127	C	0.677919	-0.187659	0.552513
C128	C	0.620463	-0.245030	0.979454
C129	C	0.620469	-0.245022	1.026372
C130	C	0.677978	-0.187560	1.026380
C131	C	0.677973	-0.187571	0.979461
C132	C	0.649213	-0.216304	0.955999
C133	C	0.677909	-0.187685	0.453987
C134	C	0.677903	-0.187701	0.407067
C135	C	0.620393	-0.245161	0.407064
C136	C	0.620400	-0.245147	0.453979
C137	C	0.649159	-0.216406	0.477440
O138	O	0.595981	-0.269553	0.528200
O139	O	0.702365	-0.163226	0.528249
C140	C	0.677938	-0.187616	0.740177
C141	C	0.649186	-0.216338	0.763630
C142	C	0.620430	-0.245072	0.740167
C143	C	0.649193	-0.216330	0.810548
C144	C	0.677949	-0.187596	0.834010
C145	C	0.706699	-0.158870	0.810555
C146	C	0.706694	-0.158881	0.763640
C147	C	0.591681	-0.273798	0.763622
C148	C	0.591687	-0.273785	0.810538
C149	C	0.620444	-0.245050	0.834000
H150	H	0.177273	-0.135702	0.297492
H151	H	0.730046	-0.603225	0.135736
C152	C	0.128144	-0.305369	0.127272
N153	N	0.147547	-0.329144	0.103423
C154	C	0.029634	-0.305364	0.127271
N155	N	0.010178	-0.329129	0.103416
H156	H	0.730096	-0.135525	0.603803
C157	C	0.588879	-1.051718	0.276802
N158	N	0.565060	-1.071169	0.300586
C159	C	0.269090	-0.127501	0.305710
N160	N	0.288543	-0.103723	0.329554
H161	H	0.701393	-0.164164	1.045491
H162	H	0.701326	-0.164280	0.473083
C163	C	0.588761	-0.276765	0.381246
N164	N	0.564932	-0.300566	0.361798
H165	H	0.568247	-0.297209	0.688873
H166	H	-0.179452	-0.268497	0.164304
C167	C	0.738345	-0.835787	0.127553
N168	N	0.762177	-0.855200	0.103771
H169	H	0.568213	-0.603344	0.297281
H170	H	0.730103	-0.135503	0.688907
C171	C	0.709432	-0.380710	0.156205
N172	N	0.733248	-0.361262	0.132417
H173	H	0.701387	-0.164180	0.960369
C174	C	0.709622	-0.953097	0.156250
N175	N	0.733449	-0.933645	0.132473
C176	C	0.588840	-0.276624	1.052165
N177	N	0.565014	-0.300426	1.071590
H178	H	0.597043	-0.268431	0.960356
H179	H	0.568253	-0.744102	0.297292
C180	C	0.588700	-0.479323	0.276773
N181	N	0.564881	-0.498771	0.300560
C182	C	0.738289	-0.695028	0.127537
N183	N	0.762117	-0.714437	0.103749
H184	H	0.568232	-0.297218	0.603765
C185	C	0.738324	-0.127278	0.737848
N186	N	0.762147	-0.103471	0.718425
C187	C	-0.186043	-0.156198	0.276958
N188	N	-0.205461	-0.132427	0.300799
C189	C	0.588772	-0.276748	0.479778
N190	N	0.564945	-0.300548	0.499206
C191	C	0.560052	-0.305386	0.836330
N192	N	0.536222	-0.329184	0.855755
C193	C	0.709470	-0.479223	0.156216
N194	N	0.733300	-0.498632	0.132429
H195	H	0.478170	-0.164399	0.268697
H196	H	0.597070	-0.959899	0.268603
H197	H	0.262209	-0.297163	0.135476
C198	C	0.386368	-0.156193	0.276928
N199	N	0.366966	-0.132423	0.300782
C200	C	-0.087652	-0.276691	0.156066
N201	N	-0.068250	-0.300465	0.132215
C202	C	0.386223	-0.276693	0.156039
N203	N	0.366764	-0.300463	0.132190
C204	C	0.560044	-0.305409	0.737819
N205	N	0.536215	-0.329222	0.718387
C206	C	-0.087513	-0.156195	0.276958
N207	N	-0.068057	-0.132421	0.300804
C208	C	0.484755	-0.276685	0.156030
N209	N	0.504172	-0.300445	0.132179
C210	C	0.738328	-0.127260	0.836374
N211	N	0.762148	-0.103450	0.855822
C212	C	0.709644	-1.051629	0.156252
N213	N	0.733470	-1.071053	0.132475
C214	C	0.128343	-0.127500	0.305718
N215	N	0.147797	-0.103725	0.329565
H216	H	0.568236	-0.688462	0.297290
H217	H	0.177101	-0.297168	0.135482
C218	C	0.560063	-0.835917	0.305499
N219	N	0.536244	-0.855363	0.329287
H220	H	0.701321	-0.164310	0.387974
H221	H	0.036514	-0.135705	0.297496
H222	H	0.596891	-0.387492	0.268561
H223	H	0.730100	-0.743980	0.135747
