data_functionalizedCrystal
_audit_creation_method	'MofGen! by Chris Wilmer'
_symmetry_space_group_name_H-M	'P1'
_symmetry_Int_Tables_number	1
_symmetry_cell_setting	triclinic
loop_
_symmetry_equiv_pos_as_xyz
  x,y,z
_cell_length_a	10.540514
_cell_length_b	10.540539
_cell_length_c	9.130313
_cell_angle_alpha	90.000859
_cell_angle_beta	89.999226
_cell_angle_gamma	84.520326
loop_
_atom_site_label
_atom_site_type_symbol
_atom_site_fract_x
_atom_site_fract_y
_atom_site_fract_z
O1	O	1.685899	0.178742	-0.121810
O2	O	1.316482	0.195631	-0.121808
O3	O	1.509618	0.002479	-0.121808
O4	O	1.492762	0.371894	-0.121811
O5	O	1.509616	0.002485	0.121791
O6	O	1.316479	0.195637	0.121790
O7	O	1.685896	0.178747	0.121789
Cu8	Cu	1.501187	0.187192	0.144032
Cu9	Cu	1.501190	0.187186	-0.144052
O10	O	1.492760	0.371899	0.121788
C11	C	1.269177	0.194374	-0.000009
C12	C	1.128227	0.190605	-0.000008
C13	C	1.508353	-0.044821	-0.000011
C14	C	1.504571	-0.185769	-0.000019
C15	C	1.057522	0.328745	-0.000013
C16	C	0.910908	0.324871	-0.000573
C17	C	0.935891	0.115475	-0.138852
C18	C	1.082430	0.120329	-0.138961
C19	C	1.082830	0.118290	0.138066
C20	C	0.935851	0.116958	0.139883
C21	C	1.359652	-0.369182	-0.000565
C22	C	1.363486	-0.222564	-0.000016
C23	C	1.572466	-0.247429	0.139088
C24	C	1.567651	-0.393973	0.139205
C25	C	1.570523	-0.394498	-0.137812
C26	C	1.571822	-0.247516	-0.139651
C27	C	1.733201	0.180004	-0.000014
C28	C	1.874151	0.183774	-0.000024
C29	C	1.494025	0.419199	-0.000012
C30	C	1.497807	0.560147	-0.000014
N31	N	1.501195	0.187196	0.346655
N32	N	1.501193	0.187173	-0.346674
C33	C	1.586738	0.101698	0.423307
C34	C	1.586734	0.101682	0.576644
C35	C	1.415641	0.272675	0.576662
C36	C	1.415639	0.272683	0.423328
C37	C	1.672294	0.016211	0.346633
C38	C	1.757844	-0.069294	0.423286
C39	C	1.757841	-0.069309	0.576623
C40	C	1.672287	0.016180	0.653307
H41	H	1.086060	0.384786	0.099527
N42	N	1.672292	0.016171	0.818692
H43	H	1.605121	0.083306	0.855635
H44	H	1.653091	-0.070305	0.855506
H45	H	1.303921	-0.397779	-0.100320
N46	N	1.119832	0.186390	-0.276950
H47	H	1.041160	0.212092	-0.337133
H48	H	1.162879	0.264784	-0.250178
N49	N	1.323370	0.364876	0.659364
H50	H	1.336353	0.351898	0.768132
H51	H	1.338842	0.455077	0.632570
H52	H	1.672307	0.016218	0.221779
H53	H	1.676075	-0.225085	0.144260
H54	H	1.827493	-0.138904	0.360842
N55	N	1.850117	-0.161514	0.659302
H56	H	1.904318	-0.215658	0.587458
H57	H	1.906661	-0.112356	0.722915
N58	N	1.146032	-0.014076	-0.146802
H59	H	1.078840	-0.076212	-0.150179
H60	H	1.200384	-0.023992	-0.237935
H61	H	1.130086	0.016397	0.139407
N62	N	0.879502	0.177522	-0.276230
H63	H	0.896357	0.270240	-0.277967
H64	H	0.919861	0.132814	-0.364890
N65	N	1.124542	0.179195	0.277501
H66	H	1.173297	0.254287	0.252572
H67	H	1.047074	0.209229	0.337733
H68	H	0.869178	0.378356	-0.100677
N69	N	1.501163	-0.431324	0.276929
H70	H	1.497373	-0.526699	0.278382
H71	H	1.549859	-0.404874	0.365332
N72	N	1.506127	-0.193276	-0.275973
H73	H	1.549805	-0.233344	-0.365417
H74	H	1.413971	-0.212132	-0.274957
H75	H	1.345981	0.342303	0.360917
H76	H	0.868244	0.378590	0.098922
H77	H	0.894855	0.166871	0.242590
H78	H	1.525300	-0.204823	0.242607
H79	H	1.087750	0.383961	-0.099422
N80	N	0.903838	-0.019276	0.151603
H81	H	0.856402	-0.030877	0.246041
H82	H	0.848671	-0.039658	0.065931
H83	H	1.669117	-0.441951	0.145515
N84	N	1.292720	-0.166115	-0.132096
H85	H	1.258748	-0.236470	-0.191199
H86	H	1.219468	-0.104074	-0.098756
N87	N	1.286118	-0.409173	0.130830
H88	H	1.341908	-0.472869	0.190709
H89	H	1.259137	-0.331930	0.192834
N90	N	1.292239	-0.167227	0.132294
H91	H	1.200824	-0.188288	0.128017
H92	H	1.333823	-0.204699	0.224252
H93	H	0.913576	0.011843	-0.143622
H94	H	1.524862	-0.426049	-0.243246
H95	H	1.672428	-0.441733	-0.138748
N96	N	1.708078	-0.215456	-0.150791
H97	H	1.728234	-0.160207	-0.065095
H98	H	1.767216	-0.296697	-0.149596
