data_functionalizedCrystal
_audit_creation_method	'MofGen! by Chris Wilmer'
_symmetry_space_group_name_H-M	'P1'
_symmetry_Int_Tables_number	1
_symmetry_cell_setting	triclinic
loop_
_symmetry_equiv_pos_as_xyz
  x,y,z
_cell_length_a	15.538191
_cell_length_b	16.098538
_cell_length_c	15.625429
_cell_angle_alpha	105.324175
_cell_angle_beta	66.736792
_cell_angle_gamma	91.654063
loop_
_atom_site_label
_atom_site_type_symbol
_atom_site_fract_x
_atom_site_fract_y
_atom_site_fract_z
O1	O	1.248397	-0.018670	-0.291223
O2	O	1.748397	0.481330	0.208777
O3	O	0.976139	0.012025	-0.189567
O4	O	1.476139	0.512025	0.310433
O5	O	1.117194	-0.042750	-0.370951
O6	O	1.617194	0.457250	0.129049
O7	O	1.107342	0.036104	-0.109840
O8	O	1.607342	0.536104	0.390160
O9	O	1.108954	-0.178072	-0.360386
O10	O	1.608954	0.321928	0.139614
O11	O	0.967899	-0.123298	-0.179003
O12	O	1.467899	0.376702	0.320997
O13	O	1.240156	-0.153993	-0.280658
O14	O	1.740156	0.346007	0.219342
Zn15	Zn	1.102719	-0.160131	-0.228153
Zn16	Zn	1.602719	0.339869	0.271847
Zn17	Zn	1.113576	0.018163	-0.242072
Zn18	Zn	1.613576	0.518163	0.257928
O19	O	1.099101	-0.099218	-0.099275
O20	O	1.599101	0.400782	0.400725
C21	C	0.937133	-0.052425	-0.173649
C22	C	1.437133	0.447575	0.326351
C23	C	0.833183	-0.042860	-0.141969
C24	C	1.333183	0.457140	0.358031
N25	N	1.095316	-0.281812	-0.218656
N26	N	1.595316	0.218188	0.281344
C27	C	0.539196	-0.137896	-0.456707
C28	C	1.039196	0.362104	0.043293
C29	C	0.441517	-0.128898	-0.426916
C30	C	0.941517	0.371102	0.073084
C31	C	0.422373	-0.078295	-0.259350
C32	C	0.922373	0.421705	0.240650
C33	C	0.520052	-0.087292	-0.289126
C34	C	1.020052	0.412708	0.210874
C35	C	0.578456	-0.117092	-0.387806
C36	C	1.078456	0.382908	0.112194
C37	C	0.559313	-0.066487	-0.220225
C38	C	1.059313	0.433513	0.279775
C39	C	0.656984	-0.075479	-0.250000
C40	C	1.156984	0.424521	0.250000
C41	C	0.715394	-0.105276	-0.348676
C42	C	1.215394	0.394724	0.151324
C43	C	0.676127	-0.126084	-0.417581
C44	C	1.176127	0.373916	0.082419
C45	C	0.500908	-0.036682	-0.121546
C46	C	1.000908	0.463318	0.378454
C47	C	0.540169	-0.015878	-0.052645
C48	C	1.040169	0.484122	0.447355
C49	C	0.637841	-0.024875	-0.082419
C50	C	1.137841	0.475125	0.417581
C51	C	0.696251	-0.054672	-0.181095
C52	C	1.196251	0.445328	0.318905
C53	C	0.677108	-0.004067	-0.013514
C54	C	1.177108	0.495933	0.486486
C55	C	0.774779	-0.013060	-0.043289
C56	C	1.274779	0.486940	0.456711
C57	C	0.793922	-0.063664	-0.210870
C58	C	1.293922	0.436336	0.289130
C59	C	1.155209	-0.348642	-0.295629
C60	C	1.655209	0.151358	0.204371
C61	C	1.150039	-0.433823	-0.288980
C62	C	1.650039	0.066177	0.211020
C63	C	1.084981	-0.452172	-0.205355
C64	C	1.584981	0.047828	0.294645
C65	C	1.025082	-0.385335	-0.128377
C66	C	1.525082	0.114665	0.371623
C67	C	1.030248	-0.300156	-0.135030
C68	C	1.530248	0.199844	0.364970
C69	C	1.066254	-0.708144	-0.181254
C70	C	1.566254	-0.208144	0.318746
C71	C	1.061094	-0.793329	-0.174606
C72	C	1.561094	-0.293329	0.325394
C73	C	1.186050	-0.841812	-0.335210
C74	C	1.686050	-0.341812	0.164790
C75	C	1.191214	-0.756629	-0.341853
C76	C	1.691214	-0.256629	0.158147
C77	C	1.131312	-0.689800	-0.264878
C78	C	1.631312	-0.189800	0.235122
C79	C	1.079697	-0.539239	-0.198555
C80	C	1.579697	-0.039239	0.301445
C81	C	1.136592	-0.602735	-0.271681
C82	C	1.636592	-0.102735	0.228319
C83	C	1.279163	-0.089541	-0.296576
C84	C	1.779163	0.410459	0.203424
C85	C	1.383113	-0.099102	-0.328257
C86	C	1.883113	0.400898	0.171743
C87	C	1.111812	-0.120255	-0.398270
C88	C	1.611812	0.379745	0.101730
C89	C	1.108042	-0.149586	-0.495410
C90	C	1.608042	0.350414	0.004590
N91	N	1.120986	0.139841	-0.251579
N92	N	1.620986	0.639841	0.248421
C93	C	1.118071	0.122744	-0.843675
C94	C	1.618071	0.622744	-0.343675
C95	C	1.114522	0.095159	-0.934949
C96	C	1.614522	0.595159	-0.434949
C97	C	1.105539	-0.052360	-0.923419
C98	C	1.605539	0.447640	-0.423419
C99	C	1.109092	-0.024788	-0.832144
C100	C	1.609092	0.475212	-0.332144
C101	C	1.115357	0.062765	-0.792279
C102	C	1.615357	0.562765	-0.292279
C103	C	1.106378	-0.084767	-0.780748
C104	C	1.606378	0.415233	-0.280748
C105	C	1.109925	-0.057196	-0.689479
C106	C	1.609925	0.442804	-0.189479
C107	C	1.116187	0.030354	-0.649606
C108	C	1.616187	0.530354	-0.149606
C109	C	1.118904	0.090337	-0.701010
C110	C	1.618904	0.590337	-0.201010
C111	C	1.100106	-0.172319	-0.820612
C112	C	1.600106	0.327681	-0.320612
C113	C	1.097392	-0.232298	-0.769216
C114	C	1.597392	0.267702	-0.269216
C115	C	1.100946	-0.204728	-0.677948
C116	C	1.600946	0.295272	-0.177948
C117	C	1.107208	-0.117178	-0.638075
C118	C	1.607208	0.382822	-0.138075
C119	C	1.098229	-0.264710	-0.626544
C120	C	1.598229	0.235290	-0.126544
C121	C	1.101777	-0.237139	-0.535275
C122	C	1.601777	0.262861	-0.035275
C123	C	1.110756	-0.089607	-0.546806
C124	C	1.610756	0.410393	-0.046806
C125	C	1.104483	-0.021711	-0.071955
C126	C	1.604483	0.478289	0.428045
C127	C	1.108254	0.007624	0.025184
C128	C	1.608254	0.507624	0.525184
H129	H	0.841478	-0.087935	-0.291224
H130	H	1.341478	0.412065	0.208776
Br131	Br	1.267340	-0.932510	-0.439673
Br132	Br	1.767340	-0.432510	0.060327
Br133	Br	1.126592	0.241566	-0.789573
Br134	Br	1.626592	0.741566	-0.289573
Br135	Br	0.948956	-0.209459	-0.030565
Br136	Br	1.448956	0.290541	0.469435
Br137	Br	0.847951	-0.117472	-0.389089
Br138	Br	1.347951	0.382528	0.110911
H139	H	1.116724	0.144009	-0.976790
H140	H	1.616724	0.644009	-0.476790
Br141	Br	1.098096	-0.318539	-0.465518
Br142	Br	1.598096	0.181461	0.034482
H143	H	0.586752	-0.162167	-0.537061
H144	H	1.086752	0.337833	-0.037061
H145	H	1.092288	-0.303584	-0.801685
H146	H	1.592288	0.196416	-0.301685
Br147	Br	1.089704	-0.383525	-0.680647
Br148	Br	1.589704	0.116475	-0.180647
Br149	Br	0.972797	-0.818222	-0.061101
Br150	Br	1.472797	-0.318222	0.438899
Br151	Br	1.097025	-0.171177	-0.977524
Br152	Br	1.597025	0.328823	-0.477524
Br153	Br	0.984963	-0.617453	-0.076789
Br154	Br	1.484963	-0.117453	0.423211
Br155	Br	0.597836	0.036392	0.120402
Br156	Br	1.097836	0.536392	0.620402
H157	H	0.972106	-0.400279	-0.060289
H158	H	1.472106	0.099721	0.439711
H159	H	0.492603	0.008389	0.027700
H160	H	0.992603	0.508389	0.527700
H161	H	0.723684	-0.150355	-0.497935
H162	H	1.223684	0.349645	0.002065
Br163	Br	0.828068	0.015180	0.050219
Br164	Br	1.328068	0.515180	0.550219
Br165	Br	1.121003	0.067776	-0.525740
Br166	Br	1.621003	0.567776	-0.025740
Br167	Br	1.127425	0.209158	-0.646908
Br168	Br	1.627425	0.709158	-0.146908
H169	H	1.097208	-0.194763	-0.894925
H170	H	1.597208	0.305237	-0.394925
H171	H	0.409556	-0.145841	-0.483031
H172	H	0.909556	0.354159	0.016969
H173	H	1.198807	-0.488237	-0.351658
H174	H	1.698807	0.011763	0.148342
H175	H	1.189559	-0.587794	-0.339771
H176	H	1.689559	-0.087794	0.160229
H177	H	0.374808	-0.054028	-0.179005
H178	H	0.874808	0.445972	0.320995
H179	H	1.115866	-0.018313	-0.514350
H180	H	1.615866	0.481687	-0.014350
Br181	Br	0.368352	-0.024475	-0.081137
Br182	Br	0.868352	0.475525	0.418863
Br183	Br	1.243513	-0.323749	-0.409123
Br184	Br	1.743513	0.176251	0.090877
H185	H	1.026727	-0.554185	-0.130464
H186	H	1.526727	-0.054185	0.369536
H187	H	1.244189	-0.741693	-0.409948
H188	H	1.744189	-0.241693	0.090052
