data_functionalizedCrystal
_audit_creation_method	'MofGen! by Chris Wilmer'
_symmetry_space_group_name_H-M	'P1'
_symmetry_Int_Tables_number	1
_symmetry_cell_setting	triclinic
loop_
_symmetry_equiv_pos_as_xyz
  x,y,z
_cell_length_a	12.759400
_cell_length_b	12.759401
_cell_length_c	12.759393
_cell_angle_alpha	89.979880
_cell_angle_beta	90.031564
_cell_angle_gamma	89.989346
loop_
_atom_site_label
_atom_site_type_symbol
_atom_site_fract_x
_atom_site_fract_y
_atom_site_fract_z
Zn1	Zn	-0.418317	-1.606255	0.594027
Zn2	Zn	-0.594036	-1.606150	0.418347
Zn3	Zn	-0.418359	-1.430557	0.418361
Zn4	Zn	-0.593942	-1.430546	0.593983
O5	O	-0.506164	-1.518377	0.506180
O6	O	-0.441648	-1.753262	0.570735
O7	O	-0.570789	-1.582818	0.271328
O8	O	-0.271333	-1.453913	0.441688
O9	O	-0.570748	-1.753185	0.441663
O10	O	-0.271302	-1.582998	0.570749
O11	O	-0.441720	-1.453811	0.271338
O12	O	-0.441629	-1.283535	0.441646
O13	O	-0.570589	-1.453894	0.741010
O14	O	-0.570629	-1.283527	0.570675
O15	O	-0.441557	-1.582987	0.741042
O16	O	-0.741045	-1.582807	0.441621
O17	O	-0.740976	-1.453791	0.570661
C18	C	-0.506125	-1.245410	0.506158
C19	C	-0.506133	-1.128633	0.506173
C20	C	-0.439035	-1.073805	0.573483
C21	C	-0.439049	-0.964081	0.573487
C22	C	-0.573269	-0.964023	0.438867
C23	C	-0.573249	-1.073745	0.438859
C24	C	-0.361547	-1.073837	0.651208
C25	C	-0.361561	-0.964113	0.651212
C26	C	-0.779131	-1.518315	0.506158
C27	C	-0.895908	-1.518384	0.506183
C28	C	-0.950771	-1.585637	0.439067
C29	C	-1.060495	-1.585702	0.439099
C30	C	-1.060483	-1.451252	0.573368
C31	C	-0.950761	-1.451193	0.573340
C32	C	-0.950778	-1.663258	0.361545
C33	C	-1.060502	-1.663322	0.361577
C34	C	-0.232131	-1.518468	0.506225
C35	C	-0.115354	-1.518507	0.506244
C36	C	-0.506058	-1.518451	0.780213
C37	C	-0.506013	-1.518482	0.896990
C38	C	-0.506191	-0.792410	0.506195
C39	C	-0.506168	-0.909187	0.506185
C40	C	-0.506194	-1.518364	0.233212
C41	C	-0.505943	-1.518537	0.116436
C42	C	-0.438820	-1.585710	0.951870
C43	C	-0.438782	-1.585735	1.061594
C44	C	-0.573139	-1.451301	1.061548
C45	C	-0.573171	-1.451272	0.951826
C46	C	-0.361253	-1.663328	0.951898
C47	C	-0.361215	-1.663353	1.061622
H48	H	-0.383455	-0.934368	0.732547
F49	F	-0.644671	-1.379704	0.893422
H50	H	-0.920926	-1.744601	0.383399
F51	F	-1.118871	-1.379747	0.644837
H52	H	-0.279887	-1.641559	0.922141
H53	H	-0.390427	-1.740599	0.917864
F54	F	-0.906399	-1.625170	0.260482
H55	H	-0.906093	-1.396440	0.628001
H56	H	-0.283904	-1.634239	1.095669
H57	H	-0.390781	-1.107902	0.728447
F58	F	-0.389695	-1.769710	1.100552
F59	F	-0.644608	-1.379775	1.119918
H60	H	-0.280145	-1.103604	0.629555
F61	F	-1.104884	-1.764355	0.399777
H62	H	-1.090363	-1.641585	0.280196
H63	H	-0.627877	-1.118383	0.384039
F64	F	-0.644693	-0.905599	0.367230
H65	H	-0.284232	-0.930071	0.622211
