data_functionalizedCrystal
_audit_creation_method	'MofGen! by Chris Wilmer'
_symmetry_space_group_name_H-M	'P1'
_symmetry_Int_Tables_number	1
_symmetry_cell_setting	triclinic
loop_
_symmetry_equiv_pos_as_xyz
  x,y,z
_cell_length_a	12.827893
_cell_length_b	18.050589
_cell_length_c	12.827885
_cell_angle_alpha	89.970449
_cell_angle_beta	89.980728
_cell_angle_gamma	90.028191
loop_
_atom_site_label
_atom_site_type_symbol
_atom_site_fract_x
_atom_site_fract_y
_atom_site_fract_z
Zn1	Zn	1.597576	-0.295624	-0.590850
Zn2	Zn	2.097576	0.204376	-0.090850
Zn3	Zn	1.597431	-0.419832	-0.416111
Zn4	Zn	2.097431	0.080168	0.083889
Zn5	Zn	1.422818	-0.295660	-0.416124
Zn6	Zn	1.922818	0.204340	0.083876
Zn7	Zn	1.422764	-0.419777	-0.590811
Zn8	Zn	1.922764	0.080223	-0.090811
O9	O	1.510147	-0.357723	-0.503474
O10	O	2.010147	0.142277	-0.003474
O11	O	1.743793	-0.312109	-0.567682
O12	O	2.243793	0.187891	-0.067682
O13	O	1.574230	-0.403399	-0.269877
O14	O	2.074230	0.096601	0.230123
O15	O	1.446083	-0.191731	-0.439323
O16	O	1.946083	0.308269	0.060677
O17	O	1.743687	-0.403364	-0.439302
O18	O	2.243687	0.096636	0.060698
O19	O	1.574478	-0.191704	-0.567694
O20	O	2.074478	0.308296	-0.067694
O21	O	1.445943	-0.312170	-0.269886
O22	O	1.945943	0.187830	0.230114
O23	O	1.276575	-0.312117	-0.439286
O24	O	1.776575	0.187883	0.060714
O25	O	1.445991	-0.403269	-0.737053
O26	O	1.945991	0.096731	-0.237053
O27	O	1.276535	-0.403304	-0.567628
O28	O	1.776535	0.096696	-0.067628
O29	O	1.574425	-0.312055	-0.737081
O30	O	2.074425	0.187945	-0.237081
O31	O	1.574178	-0.523749	-0.439264
O32	O	2.074178	-0.023749	0.060736
O33	O	1.445851	-0.523709	-0.567615
O34	O	1.945851	-0.023709	-0.067615
C35	C	1.238638	-0.357709	-0.503454
C36	C	1.738638	0.142291	-0.003454
C37	C	1.122484	-0.357721	-0.503471
C38	C	1.622484	0.142279	-0.003471
C39	C	1.510021	-0.550675	-0.503457
C40	C	2.010021	-0.050675	-0.003457
C41	C	1.510063	-0.633221	-0.503484
C42	C	2.010063	-0.133221	-0.003484
C43	C	0.950647	-0.312551	-0.440094
C44	C	1.450647	0.187449	0.059906
C45	C	1.070698	-0.312538	-0.440076
C46	C	1.570698	0.187462	0.059924
C47	C	1.440347	-0.832677	-0.573257
C48	C	1.940347	-0.332677	-0.073257
C49	C	1.414870	-0.882124	-0.477900
C50	C	1.914870	-0.382124	0.022100
C51	C	1.510166	-0.784351	-0.503498
C52	C	2.010166	-0.284351	-0.003498
C53	C	1.535694	-0.881986	-0.598866
C54	C	2.035694	-0.381986	-0.098866
C55	C	1.510263	-0.930337	-0.503520
C56	C	2.010263	-0.430337	-0.003520
C57	C	1.484639	-0.832712	-0.408091
C58	C	1.984639	-0.332712	0.091909
C59	C	1.605506	-0.832569	-0.529120
C60	C	2.105506	-0.332569	-0.029120
C61	C	1.580066	-0.881994	-0.433698
C62	C	2.080066	-0.381994	0.066302
C63	C	1.510107	-0.700253	-0.503487
C64	C	2.010107	-0.200253	-0.003487
C65	C	1.510322	-1.014433	-0.503520
C66	C	2.010322	-0.514433	-0.003520
C67	C	1.782718	-0.357738	-0.503495
C68	C	2.282718	0.142262	-0.003495
C69	C	1.898871	-0.357745	-0.503504
C70	C	2.398871	0.142255	-0.003504
C71	C	1.510219	-0.357652	-0.776045
C72	C	2.010219	0.142348	-0.276045
C73	C	1.510249	-0.357622	-0.892198
C74	C	2.010249	0.142378	-0.392198
C75	C	1.510303	-0.164018	-0.503515
C76	C	2.010303	0.335982	-0.003515
C77	C	1.510369	-0.081472	-0.503532
C78	C	2.010369	0.418528	-0.003532
C79	C	1.573809	-0.312477	-0.943997
C80	C	2.073809	0.187523	-0.443997
C81	C	1.573842	-0.312444	-1.064047
C82	C	2.073842	0.187556	-0.564047
C83	C	1.510137	-0.357741	-0.231964
C84	C	2.010137	0.142259	0.268036
C85	C	1.510309	-0.357562	-0.115812
C86	C	2.010309	0.142438	0.384188
H87	H	0.906099	-0.273867	-0.385824
H88	H	1.406099	0.226133	0.114176
C89	C	1.130848	-0.260263	-0.366736
C90	C	1.630848	0.239737	0.133264
N91	N	1.176156	-0.220887	-0.311497
N92	N	1.676156	0.279113	0.188503
C93	C	1.062341	-0.409995	-0.576816
C94	C	1.562341	0.090005	-0.076816
N95	N	1.017033	-0.449368	-0.632062
N96	N	1.517033	0.050632	-0.132062
C97	C	1.647290	-0.260291	-0.883844
C98	C	2.147290	0.239709	-0.383844
N99	N	1.702638	-0.220983	-0.838538
N100	N	2.202638	0.279017	-0.338538
H101	H	1.462993	-0.811157	-0.327426
H102	H	1.962993	-0.311157	0.172574
H103	H	0.943419	-0.396423	-0.557782
H104	H	1.443419	0.103577	-0.057782
C105	C	1.647356	-0.260226	-1.124223
C106	C	2.147356	0.239774	-0.624223
N107	N	1.702727	-0.220892	-1.169551
N108	N	2.202727	0.279108	-0.669551
C109	C	1.436761	-0.409803	-0.952351
C110	C	1.936761	0.090197	-0.452351
N111	N	1.381408	-0.449107	-0.997656
N112	N	1.881408	0.050893	-0.497656
C113	C	1.659884	-0.911071	-0.353922
C114	C	2.159884	-0.411071	0.146078
N115	N	1.719997	-0.932974	-0.293832
N116	N	2.219997	-0.432974	0.206168
H117	H	1.455894	-0.396217	-1.071273
H118	H	1.955894	0.103783	-0.571273
H119	H	1.381217	-0.811021	-0.632167
H120	H	1.881217	-0.311021	-0.132167
C121	C	1.306003	-0.911530	-0.448627
C122	C	1.806003	-0.411530	0.051373
N123	N	1.224003	-0.933677	-0.426585
N124	N	1.724003	-0.433677	0.073415
C125	C	1.564812	-0.911226	-0.707810
C126	C	2.064812	-0.411226	-0.207810
N127	N	1.586737	-0.933247	-0.789870
N128	N	2.086737	-0.433247	-0.289870
C129	C	1.714334	-0.803128	-0.558443
C130	C	2.214334	-0.303128	-0.058443
N131	N	1.796301	-0.780947	-0.580542
N132	N	2.296301	-0.280947	-0.080542
