data_functionalizedCrystal
_audit_creation_method	'MofGen! by Chris Wilmer'
_symmetry_space_group_name_H-M	'P1'
_symmetry_Int_Tables_number	1
_symmetry_cell_setting	triclinic
loop_
_symmetry_equiv_pos_as_xyz
  x,y,z
_cell_length_a	10.654559
_cell_length_b	14.519731
_cell_length_c	9.130313
_cell_angle_alpha	89.997760
_cell_angle_beta	89.999532
_cell_angle_gamma	84.088769
loop_
_atom_site_label
_atom_site_type_symbol
_atom_site_fract_x
_atom_site_fract_y
_atom_site_fract_z
O1	O	1.666595	0.129567	-0.121811
O2	O	1.301001	0.141899	-0.121813
O3	O	1.493477	0.001547	-0.121798
O4	O	1.474119	0.269920	-0.121825
O5	O	1.493475	0.001550	0.121800
O6	O	1.300998	0.141903	0.121786
O7	O	1.666593	0.129571	0.121788
Cu8	Cu	1.483795	0.135738	0.144030
Cu9	Cu	1.483798	0.135733	-0.144054
O10	O	1.474116	0.269924	0.121774
C11	C	1.254210	0.140994	-0.000013
C12	C	1.114793	0.138280	-0.000013
C13	C	1.064064	0.053091	-0.000001
C14	C	0.933066	0.050546	-0.000012
C15	C	0.903537	0.218386	-0.000041
C16	C	1.034533	0.220930	-0.000041
C17	C	1.144324	-0.029560	0.000026
C18	C	1.093596	-0.114755	0.000040
C19	C	0.962598	-0.117300	0.000030
C20	C	0.882328	-0.034649	0.000005
C21	C	1.492569	-0.032816	0.000001
C22	C	1.489851	-0.135210	0.000002
C23	C	1.487642	-0.218366	-0.000001
C24	C	1.484882	-0.322689	-0.000012
C25	C	1.482692	-0.405839	-0.000022
C26	C	1.479933	-0.510169	-0.000030
C27	C	1.713383	0.130477	-0.000015
C28	C	1.852800	0.133191	-0.000024
C29	C	1.475024	0.304286	-0.000029
C30	C	1.477743	0.406681	-0.000040
N31	N	1.483802	0.135740	0.346652
N32	N	1.483801	0.135723	-0.346677
C33	C	1.569053	0.073613	0.423310
C34	C	1.569049	0.073602	0.576647
C35	C	1.398541	0.197853	0.576654
C36	C	1.398540	0.197859	0.423320
C37	C	1.654315	0.011495	0.346643
C38	C	1.739574	-0.050637	0.423301
C39	C	1.739570	-0.050648	0.576638
C40	C	1.654309	0.011472	0.653316
H41	H	0.921299	-0.186670	0.000026
H42	H	1.250991	-0.027497	0.000039
C43	C	1.305932	0.265417	0.340344
C44	C	1.231294	0.319839	0.440302
C45	C	1.145977	0.382091	0.363918
H46	H	1.253465	0.231991	0.280522
H47	H	1.351163	0.304169	0.280561
H48	H	1.186066	0.281092	0.500060
H49	H	1.283726	0.353286	0.500127
H50	H	1.191208	0.420843	0.304135
H51	H	1.093519	0.348657	0.304098
H52	H	1.095333	0.419030	0.431727
H53	H	1.158959	-0.182046	0.000047
H54	H	0.775662	-0.036728	-0.000017
C55	C	0.816244	0.308044	-0.000282
C56	C	0.740153	0.311472	-0.125587
C57	C	0.659712	0.394047	-0.125844
H58	H	0.865060	0.359221	-0.000365
H59	H	0.764455	0.310547	0.084624
H60	H	0.791935	0.308979	-0.210471
H61	H	0.691309	0.260315	-0.125531
H62	H	0.607924	0.396549	-0.040938
H63	H	0.708539	0.445217	-0.125923
H64	H	0.608067	0.396380	-0.210854
H65	H	1.075837	0.290298	-0.000037
H66	H	1.808984	-0.101218	0.360861
H67	H	1.654328	0.011500	0.221788
C68	C	1.832268	-0.118144	0.659605
C69	C	1.906951	-0.172525	0.559637
C70	C	1.992375	-0.234703	0.636008
H71	H	1.787159	-0.156938	0.719422
H72	H	1.884683	-0.084633	0.719392
H73	H	1.854542	-0.206033	0.499874
H74	H	1.952088	-0.133756	0.499817
H75	H	2.044791	-0.201192	0.695796
H76	H	1.947256	-0.273490	0.695823
H77	H	2.043066	-0.271601	0.568192
H78	H	1.654305	0.011452	0.778173
H79	H	1.329126	0.248430	0.639096
