data_functionalizedCrystal
_audit_creation_method	'MofGen! by Chris Wilmer'
_symmetry_space_group_name_H-M	'P1'
_symmetry_Int_Tables_number	1
_symmetry_cell_setting	triclinic
loop_
_symmetry_equiv_pos_as_xyz
  x,y,z
_cell_length_a	10.654550
_cell_length_b	16.992694
_cell_length_c	16.053802
_cell_angle_alpha	92.750953
_cell_angle_beta	92.591674
_cell_angle_gamma	92.423437
loop_
_atom_site_label
_atom_site_type_symbol
_atom_site_fract_x
_atom_site_fract_y
_atom_site_fract_z
O1	O	0.261481	-1.045116	-0.069321
O2	O	0.258556	-0.816816	-0.069346
O3	O	0.077733	-0.936215	-0.069330
O4	O	0.442304	-0.925717	-0.069337
O5	O	0.087643	-0.929643	0.069528
O6	O	0.268466	-0.810244	0.069512
O7	O	0.271390	-1.038544	0.069537
Zn8	Zn	0.271501	-0.923350	0.091571
Zn9	Zn	0.258446	-0.932009	-0.091380
O10	O	0.452213	-0.919145	0.069521
C11	C	0.259751	-0.784297	0.000080
C12	C	0.248531	-0.697192	0.000071
C13	C	0.035823	-0.932158	0.000098
C14	C	-0.103819	-0.929852	0.000095
N15	N	0.280411	-0.917446	0.216431
C16	C	-0.177229	-1.000152	0.000105
C17	C	-0.308438	-0.997981	0.000099
C18	C	-0.292815	-0.855203	0.000076
C19	C	-0.161609	-0.857375	0.000077
C20	C	-0.119440	-1.072629	0.000124
C21	C	-0.192850	-1.142935	0.000135
C22	C	-0.324059	-1.140763	0.000129
C23	C	-0.381858	-1.068286	0.000112
C24	C	0.494123	-0.923202	0.000091
C25	C	0.633766	-0.925508	0.000089
C26	C	0.270196	-1.071063	0.000109
C27	C	0.281416	-1.158168	0.000113
C28	C	0.356781	-0.647540	0.000069
C29	C	0.346233	-0.565696	0.000081
C30	C	0.227432	-0.533505	0.000088
C31	C	0.119174	-0.583163	0.000092
C32	C	0.129724	-0.665006	0.000087
C33	C	0.183707	-0.289668	0.000112
C34	C	0.173165	-0.207819	0.000115
C35	C	0.400225	-0.190358	0.000105
C36	C	0.410765	-0.272203	0.000094
C37	C	0.302506	-0.321854	0.000103
N38	N	0.216647	-0.449847	0.000098
N39	N	0.313293	-0.405510	0.000099
N40	N	0.249526	-0.937920	-0.216239
C41	C	0.203502	-0.968269	0.260132
C42	C	0.209747	-0.964147	0.347538
C43	C	0.292909	-0.909204	0.391242
C44	C	0.369822	-0.858376	0.347535
C45	C	0.363569	-0.862495	0.260130
C46	C	0.320186	-0.891210	0.652649
C47	C	0.326435	-0.887096	0.740060
C48	C	0.166359	-0.992867	0.740057
C49	C	0.160119	-0.996985	0.652650
C50	C	0.237026	-0.946153	0.608951
N51	N	0.299298	-0.904991	0.480585
N52	N	0.230631	-0.950364	0.519610
H53	H	-0.012604	-1.074405	0.000131
H54	H	-0.383827	-1.198010	0.000129
Br55	Br	0.467943	-0.793512	0.200822
Br56	Br	0.105365	-1.033119	0.406849
Br57	Br	0.011926	-0.164132	0.000143
Br58	Br	0.061987	-1.061848	0.799366
Br59	Br	-0.371256	-0.756847	0.000053
Br60	Br	0.439314	-0.812528	0.799367
H61	H	-0.145783	-1.201944	0.000128
H62	H	-0.488698	-1.066524	0.000098
Br63	Br	-0.061973	-0.761967	0.000059
H64	H	0.453521	-0.673743	0.000063
H65	H	0.507504	-0.298407	0.000079
H66	H	0.434383	-0.525272	0.000079
Br67	Br	0.036784	-0.357041	0.000125
H68	H	0.022444	-0.556946	0.000110
Br69	Br	0.547139	-0.122972	0.000095
Br70	Br	0.090643	-1.042844	0.200828
H71	H	0.092402	-1.041723	0.617068
H72	H	0.382810	-0.849823	0.617076
Br73	Br	0.482678	-0.783803	0.406844
H74	H	0.041574	-0.705432	0.000087
