data_functionalizedCrystal
_audit_creation_method	'MofGen! by Chris Wilmer'
_symmetry_space_group_name_H-M	'P1'
_symmetry_Int_Tables_number	1
_symmetry_cell_setting	triclinic
loop_
_symmetry_equiv_pos_as_xyz
  x,y,z
_cell_length_a	17.038272
_cell_length_b	16.109301
_cell_length_c	14.586319
_cell_angle_alpha	90.005214
_cell_angle_beta	89.998439
_cell_angle_gamma	92.713482
loop_
_atom_site_label
_atom_site_type_symbol
_atom_site_fract_x
_atom_site_fract_y
_atom_site_fract_z
O1	O	1.037364	-0.180538	-0.076209
O2	O	1.370698	0.152795	0.257124
O3	O	1.704031	0.486128	0.590458
O4	O	0.809734	-0.177672	-0.076219
O5	O	1.143067	0.155662	0.257115
O6	O	1.476400	0.488995	0.590448
O7	O	0.929802	-0.058518	-0.076204
O8	O	1.263135	0.274815	0.257129
O9	O	1.596469	0.608148	0.590462
O10	O	0.917296	-0.299692	-0.076223
O11	O	1.250629	0.033641	0.257110
O12	O	1.583962	0.366975	0.590443
O13	O	0.929794	-0.058516	0.076277
O14	O	1.263127	0.274818	0.409610
O15	O	1.596460	0.608151	0.742943
O16	O	0.809725	-0.177669	0.076262
O17	O	1.143059	0.155664	0.409595
O18	O	1.476392	0.488997	0.742929
O19	O	1.037356	-0.180536	0.076272
O20	O	1.370689	0.152797	0.409605
O21	O	1.704023	0.486131	0.742938
Cu22	Cu	0.923540	-0.179102	0.090190
Cu23	Cu	1.256873	0.154231	0.423523
Cu24	Cu	1.590207	0.487564	0.756856
Cu25	Cu	0.923550	-0.179105	-0.090137
Cu26	Cu	1.256883	0.154228	0.243197
Cu27	Cu	1.590216	0.487561	0.576530
O28	O	0.917287	-0.299690	0.076257
O29	O	1.250621	0.033644	0.409591
O30	O	1.583954	0.366977	0.742924
C31	C	0.780601	-0.175063	0.000021
C32	C	1.113935	0.158270	0.333354
C33	C	1.447268	0.491604	0.666687
C34	C	0.693808	-0.167284	0.000017
C35	C	1.027142	0.166049	0.333350
C36	C	1.360475	0.499383	0.666684
C37	C	1.066488	-0.183145	0.000031
C38	C	1.399822	0.150189	0.333364
C39	C	1.733155	0.483522	0.666697
C40	C	1.153281	-0.190924	0.000028
C41	C	1.486615	0.142410	0.333361
C42	C	1.819948	0.475743	0.666695
C43	C	0.929291	-0.027506	0.000037
C44	C	1.262625	0.305827	0.333370
C45	C	1.595958	0.639161	0.666703
C46	C	0.927773	0.064897	0.000038
C47	C	1.261106	0.398230	0.333371
C48	C	1.594439	0.731564	0.666705
C49	C	1.203396	-0.119503	0.000031
C50	C	1.536729	0.213830	0.333364
C51	C	1.870063	0.547164	0.666697
C52	C	1.284946	-0.126817	0.000033
C53	C	1.618280	0.206516	0.333367
C54	C	1.951613	0.539850	0.666700
C55	C	1.316381	-0.205553	0.000027
C56	C	1.649714	0.127781	0.333360
C57	C	1.983047	0.461114	0.666693
C58	C	1.266259	-0.276979	0.000027
C59	C	1.599593	0.056355	0.333360
C60	C	1.932926	0.389688	0.666694
C61	C	1.184710	-0.269664	0.000031
C62	C	1.518044	0.063670	0.333364
C63	C	1.851377	0.397003	0.666697
C64	C	1.562138	-0.231395	0.000021
C65	C	1.895472	0.101938	0.333354
C66	C	2.228805	0.435272	0.666688
C67	C	1.643694	-0.238705	0.000015
C68	C	1.977027	0.094629	0.333348
C69	C	2.310360	0.427962	0.666681
C70	C	1.662375	-0.088542	0.000023
C71	C	1.995708	0.244791	0.333356
C72	C	2.329042	0.578124	0.666689
C73	C	1.580824	-0.081234	0.000021
C74	C	1.914157	0.252099	0.333354
C75	C	2.247490	0.585432	0.666688
C76	C	1.530710	-0.152660	0.000026
C77	C	1.864043	0.180673	0.333359
C78	C	2.197376	0.514006	0.666692
C79	C	1.399738	-0.213031	0.000027
C80	C	1.733071	0.120302	0.333360
C81	C	2.066405	0.453636	0.666693
C82	C	1.447354	-0.145181	0.000032
C83	C	1.780687	0.188152	0.333366
C84	C	2.114021	0.521485	0.666699
C85	C	0.917798	-0.330702	0.000014
C86	C	1.251131	0.002632	0.333348
C87	C	1.584465	0.335965	0.666681
C88	C	0.919317	-0.423105	0.000007
C89	C	1.252650	-0.089771	0.333341
C90	C	1.585984	0.243562	0.666674
N91	N	0.923539	-0.179100	0.217021
N92	N	1.256872	0.154233	0.550355
N93	N	1.590205	0.487566	0.883688
C94	C	0.995487	0.282360	0.000026
C95	C	1.328821	0.615694	0.333360
C96	C	1.662154	0.949027	0.666693
C97	C	0.994054	0.369183	0.000019
C98	C	1.327387	0.702516	0.333352
C99	C	1.660721	1.035849	0.666685
C100	C	0.851597	0.359425	0.000016
C101	C	1.184930	0.692759	0.333349
C102	C	1.518263	1.026092	0.666683
C103	C	0.853031	0.272605	0.000017
C104	C	1.186364	0.605938	0.333350
C105	C	1.519697	0.939272	0.666684
C106	C	0.924978	0.234075	0.000027
C107	C	1.258312	0.567408	0.333360
C108	C	1.591645	0.900741	0.666694
C109	C	0.922111	0.407718	0.000018
C110	C	1.255444	0.741051	0.333352
C111	C	1.588778	1.074384	0.666685
C112	C	0.920557	0.501854	0.000010
C113	C	1.253890	0.835187	0.333343
C114	C	1.587223	1.168521	0.666677
C115	C	0.926533	0.139932	0.000033
C116	C	1.259867	0.473266	0.333367
C117	C	1.593200	0.806599	0.666700
N118	N	0.923557	-0.179101	-0.216968
N119	N	1.256890	0.154232	0.116365
N120	N	1.590224	0.487565	0.449698
C121	C	0.976723	-0.126359	0.452034
C122	C	1.310056	0.206974	0.785368
C123	C	1.643389	0.540307	1.118701
C124	C	0.976725	-0.126357	0.548015
C125	C	1.310058	0.206976	0.881349
C126	C	1.643391	0.540309	1.214682
C127	C	0.870368	-0.231845	0.548012
C128	C	1.203701	0.101489	0.881345
C129	C	1.537034	0.434822	1.214679
C130	C	0.870362	-0.231842	0.452033
C131	C	1.203695	0.101492	0.785366
C132	C	1.537029	0.434825	1.118699
C133	C	0.923544	-0.179100	0.404046
C134	C	1.256877	0.154233	0.737379
C135	C	1.590211	0.487566	1.070713
C136	C	0.923552	-0.179101	0.596007
C137	C	1.256885	0.154232	0.929340
C138	C	1.590218	0.487565	1.262674
C139	C	0.923554	-0.179100	0.700074
C140	C	1.256887	0.154234	1.033407
C141	C	1.590220	0.487567	1.366741
C142	C	0.923541	-0.179100	0.299972
C143	C	1.256875	0.154233	0.633306
C144	C	1.590208	0.487566	0.966639
H145	H	1.177809	-0.055388	0.000030
H146	H	1.511143	0.277945	0.333363
H147	H	1.844476	0.611279	0.666697
Br148	Br	0.757333	0.207068	0.000006
Br149	Br	1.090666	0.540401	0.333339
Br150	Br	1.424000	0.873735	0.666672
Br151	Br	0.753958	0.411722	0.000000
Br152	Br	1.087292	0.745055	0.333334
Br153	Br	1.420625	1.078388	0.666667
Br154	Br	1.442405	-0.319884	0.000009
Br155	Br	1.775739	0.013449	0.333343
Br156	Br	2.109072	0.346783	0.666676
H157	H	1.291859	-0.341087	0.000027
H158	H	1.625193	-0.007754	0.333361
H159	H	1.958526	0.325579	0.666694
Br160	Br	0.798196	-0.303421	0.613140
Br161	Br	1.131530	0.029912	0.946473
Br162	Br	1.464863	0.363245	1.279806
Br163	Br	1.048896	-0.054780	0.386913
Br164	Br	1.382230	0.278553	0.720246
Br165	Br	1.715563	0.611887	1.053580
H166	H	0.827054	-0.274790	0.412958
H167	H	1.160387	0.058544	0.746291
H168	H	1.493721	0.391877	1.079625
H169	H	1.051470	0.408493	0.000016
H170	H	1.384803	0.741827	0.333349
H171	H	1.718136	1.075160	0.666683
Br172	Br	1.048895	-0.054773	0.613141
Br173	Br	1.382228	0.278560	0.946474
Br174	Br	1.715561	0.611893	1.279807
H175	H	1.521345	-0.289556	0.000020
H176	H	1.854678	0.043778	0.333354
H177	H	2.188011	0.377111	0.666687
H178	H	1.325747	-0.068658	0.000039
H179	H	1.659081	0.264675	0.333373
H180	H	1.992414	0.598008	0.666706
H181	H	1.555237	-0.017120	0.000026
H182	H	1.888570	0.316214	0.333360
H183	H	2.221903	0.649547	0.666693
H184	H	1.669283	-0.302824	0.000022
H185	H	2.002617	0.030509	0.333356
H186	H	2.335950	0.363843	0.666689
Br187	Br	1.730390	0.008387	0.000021
Br188	Br	2.063723	0.341721	0.333354
Br189	Br	2.397057	0.675054	0.666688
Br190	Br	1.404692	-0.038329	0.000049
Br191	Br	1.738025	0.295004	0.333382
Br192	Br	2.071359	0.628337	0.666715
Br193	Br	1.093130	0.230072	0.000040
Br194	Br	1.426463	0.563405	0.333373
Br195	Br	1.759796	0.896739	0.666707
Br196	Br	1.116696	-0.366596	0.000038
Br197	Br	1.450029	-0.033263	0.333371
Br198	Br	1.783363	0.300071	0.666704
