data_functionalizedCrystal
_audit_creation_method	'MofGen! by Chris Wilmer'
_symmetry_space_group_name_H-M	'P1'
_symmetry_Int_Tables_number	1
_symmetry_cell_setting	triclinic
loop_
_symmetry_equiv_pos_as_xyz
  x,y,z
_cell_length_a	16.109302
_cell_length_b	17.699092
_cell_length_c	14.586319
_cell_angle_alpha	89.997896
_cell_angle_beta	89.994552
_cell_angle_gamma	83.374074
loop_
_atom_site_label
_atom_site_type_symbol
_atom_site_fract_x
_atom_site_fract_y
_atom_site_fract_z
O1	O	1.102966	0.097287	-0.076278
O2	O	1.602966	0.597287	0.423722
O3	O	0.860884	0.109393	-0.076270
O4	O	1.360884	0.609393	0.423730
O5	O	0.988761	-0.006839	-0.076272
O6	O	1.488761	0.493161	0.423728
O7	O	0.975089	0.213519	-0.076276
O8	O	1.475089	0.713519	0.423724
O9	O	0.988752	-0.006841	0.076208
O10	O	1.488752	0.493159	0.576208
O11	O	0.860875	0.109391	0.076210
O12	O	1.360875	0.609391	0.576210
O13	O	1.102957	0.097285	0.076203
O14	O	1.602957	0.597285	0.576203
Cu15	Cu	0.981915	0.103338	0.090129
Cu16	Cu	1.481915	0.603338	0.590129
Cu17	Cu	0.981926	0.103340	-0.090197
Cu18	Cu	1.481926	0.603340	0.409803
O19	O	0.975080	0.213517	0.076205
O20	O	1.475080	0.713517	0.576205
C21	C	0.829905	0.108902	-0.000029
C22	C	1.329905	0.608902	0.499971
C23	C	0.737612	0.107431	-0.000026
C24	C	1.237612	0.607431	0.499974
C25	C	0.525272	0.104030	0.083082
C26	C	1.025272	0.604030	0.583082
C27	C	0.438555	0.102640	0.083079
C28	C	0.938555	0.602640	0.583079
C29	C	0.438575	0.102646	-0.083164
C30	C	0.938575	0.602646	0.416836
C31	C	0.525292	0.104030	-0.083160
C32	C	1.025292	0.604030	0.416840
C33	C	0.568638	0.104726	-0.000034
C34	C	1.068638	0.604726	0.499966
C35	C	0.395203	0.101952	-0.000041
C36	C	0.895203	0.601952	0.499959
C37	C	0.301180	0.100445	-0.000046
C38	C	0.801180	0.600445	0.499954
C39	C	0.662667	0.106232	-0.000030
C40	C	1.162667	0.606232	0.499970
C41	C	0.988265	-0.035037	-0.000033
C42	C	1.488265	0.464963	0.499967
C43	C	0.986792	-0.119057	-0.000037
C44	C	1.486792	0.380943	0.499963
C45	C	0.986107	-0.158525	-0.083156
C46	C	1.486107	0.341475	0.416844
C47	C	0.984717	-0.237470	-0.083157
C48	C	1.484717	0.262530	0.416843
C49	C	0.984019	-0.276946	-0.000039
C50	C	1.484019	0.223054	0.499961
C51	C	0.984702	-0.237473	0.083086
C52	C	1.484702	0.262527	0.583086
C53	C	0.986085	-0.158529	0.083086
C54	C	1.486085	0.341471	0.583086
C55	C	0.979121	-0.555846	0.083088
C56	C	1.479121	-0.055846	0.583088
C57	C	0.977740	-0.634796	0.083081
C58	C	1.477740	-0.134796	0.583081
C59	C	0.977753	-0.634787	-0.083155
C60	C	1.477753	-0.134787	0.416845
C61	C	0.979136	-0.555843	-0.083155
C62	C	1.479136	-0.055843	0.416845
C63	C	0.979815	-0.516376	-0.000031
C64	C	1.479815	-0.016376	0.499969
C65	C	0.981320	-0.430775	-0.000031
C66	C	1.481320	0.069225	0.499969
C67	C	0.982520	-0.362547	-0.000038
C68	C	1.482520	0.137453	0.499962
C69	C	1.133936	0.097776	-0.000041
C70	C	1.633936	0.597776	0.499959
C71	C	1.226228	0.099247	-0.000049
C72	C	1.726228	0.599247	0.499951
C73	C	0.975576	0.241716	-0.000036
C74	C	1.475576	0.741716	0.499964
C75	C	0.977049	0.325736	-0.000038
C76	C	1.477049	0.825736	0.499962
N77	N	0.981914	0.103336	0.216961
N78	N	1.481914	0.603336	0.716961
N79	N	0.981934	0.103336	-0.217029
N80	N	1.481934	0.603336	0.282971
C81	C	1.038556	0.051886	0.451967
C82	C	1.538556	0.551886	0.951967
C83	C	1.038559	0.051884	0.547948
C84	C	1.538559	0.551884	1.047948
C85	C	0.925285	0.154789	0.547959
C86	C	1.425285	0.654789	1.047959
C87	C	0.925279	0.154786	0.451980
C88	C	1.425279	0.654786	0.951980
C89	C	0.981920	0.103336	0.403986
C90	C	1.481920	0.603336	0.903986
C91	C	0.981928	0.103336	0.595947
C92	C	1.481928	0.603336	1.095947
C93	C	0.981930	0.103335	0.700014
C94	C	1.481930	0.603335	1.200014
C95	C	0.981917	0.103336	0.299912
C96	C	1.481917	0.603336	0.799912
H97	H	0.403250	0.102074	0.150760
H98	H	0.903250	0.602074	0.650760
H99	H	0.403272	0.102080	-0.150842
H100	H	0.903272	0.602080	0.349158
C101	C	0.572997	0.104792	-0.174599
C102	C	1.072997	0.604792	0.325401
N103	N	0.608929	0.105362	-0.243468
N104	N	1.108929	0.605362	0.256532
C105	C	0.986875	-0.115108	-0.174594
C106	C	1.486875	0.384892	0.325406
N107	N	0.987449	-0.082408	-0.243468
N108	N	1.487449	0.417592	0.256532
C109	C	0.983928	-0.280900	0.174517
C110	C	1.483928	0.219100	0.674517
N111	N	0.983347	-0.313608	0.243385
N112	N	1.483347	0.186392	0.743385
C113	C	1.100857	-0.004721	0.600722
C114	C	1.600857	0.495279	1.100722
N115	N	1.147780	-0.047362	0.640472
N116	N	1.647780	0.452638	1.140472
H117	H	0.984163	-0.269601	-0.150840
H118	H	1.484163	0.230399	0.349160
C119	C	0.863009	0.211423	0.399198
C120	C	1.363009	0.711423	0.899198
N121	N	0.816121	0.254091	0.359442
N122	N	1.316121	0.754091	0.859442
C123	C	0.979871	-0.512443	0.174527
C124	C	1.479871	-0.012443	0.674527
N125	N	0.980437	-0.479750	0.243403
N126	N	1.480437	0.020250	0.743403
H127	H	0.560562	0.104597	0.150768
H128	H	1.060562	0.604597	0.650768
C129	C	0.976964	-0.678218	0.174522
C130	C	1.476964	-0.178218	0.674522
N131	N	0.976378	-0.710923	0.243392
N132	N	1.476378	-0.210923	0.743392
C133	C	0.986842	-0.115115	0.174523
C134	C	1.486842	0.384885	0.674523
N135	N	0.987409	-0.082417	0.243396
N136	N	1.487409	0.417583	0.743396
H137	H	0.979709	-0.523705	-0.150839
H138	H	1.479709	-0.023705	0.349161
C139	C	1.100856	-0.004717	0.399177
C140	C	1.600856	0.495283	0.899177
N141	N	1.147779	-0.047355	0.359418
N142	N	1.647779	0.452645	0.859418
C143	C	0.976996	-0.678206	-0.174595
C144	C	1.476996	-0.178206	0.325405
N145	N	0.976427	-0.710909	-0.243465
N146	N	1.476427	-0.210909	0.256535
C147	C	0.862982	0.211380	0.600761
C148	C	1.362982	0.711380	1.100761
N149	N	0.816054	0.254006	0.640531
N150	N	1.316054	0.754006	1.140531
