data_functionalizedCrystal
_audit_creation_method	'MofGen! by Chris Wilmer'
_symmetry_space_group_name_H-M	'P1'
_symmetry_Int_Tables_number	1
_symmetry_cell_setting	triclinic
loop_
_symmetry_equiv_pos_as_xyz
  x,y,z
_cell_length_a	23.532407
_cell_length_b	9.065218
_cell_length_c	8.140239
_cell_angle_alpha	90.002802
_cell_angle_beta	89.991844
_cell_angle_gamma	96.067719
loop_
_atom_site_label
_atom_site_type_symbol
_atom_site_fract_x
_atom_site_fract_y
_atom_site_fract_z
O1	O	0.083497	-1.956283	-0.136637
O2	O	0.583497	-1.456283	0.363363
O3	O	0.090346	-1.526661	-0.136641
O4	O	0.590346	-1.026661	0.363359
O5	O	0.004085	-1.754427	-0.136609
O6	O	0.504085	-1.254427	0.363391
O7	O	0.169758	-1.728517	-0.136670
O8	O	0.669758	-1.228517	0.363330
O9	O	0.004084	-1.754415	0.136618
O10	O	0.504084	-1.254415	0.636618
O11	O	0.090345	-1.526649	0.136586
O12	O	0.590345	-1.026649	0.636586
O13	O	0.083496	-1.956271	0.136590
O14	O	0.583496	-1.456271	0.636590
Zn15	Zn	0.086921	-1.741458	0.179968
Zn16	Zn	0.586921	-1.241458	0.679968
Zn17	Zn	0.086922	-1.741474	-0.180020
Zn18	Zn	0.586922	-1.241474	0.319980
O19	O	0.169757	-1.728504	0.136558
O20	O	0.669757	-1.228504	0.636558
C21	C	0.089687	-1.471701	-0.000028
C22	C	0.589687	-0.971701	0.499972
C23	C	0.087719	-1.307955	-0.000028
C24	C	0.587719	-0.807955	0.499972
C25	C	-0.017136	-1.753761	0.000009
C26	C	0.482864	-1.253761	0.500009
C27	C	-0.080368	-1.751778	0.000021
C28	C	0.419632	-1.251778	0.500021
N29	N	0.086919	-1.741457	0.425651
N30	N	0.586919	-1.241457	0.925651
C31	C	-0.478573	-1.874123	-0.000068
C32	C	0.021427	-1.374123	0.499932
C33	C	-0.537986	-1.872280	-0.000080
C34	C	-0.037986	-1.372280	0.499920
O35	O	-0.573898	-1.985695	-0.000140
O36	O	-0.073898	-1.485695	0.499860
N37	N	-0.561607	-1.736873	-0.000080
N38	N	-0.061607	-1.236873	0.499920
C39	C	-0.525810	-1.603300	-0.000085
C40	C	-0.025810	-1.103300	0.499915
O41	O	-0.551356	-1.487956	-0.000087
O42	O	-0.051356	-0.987956	0.499913
C43	C	-0.466397	-1.605144	-0.000084
C44	C	0.033603	-1.105144	0.499916
C45	C	-0.442780	-1.740560	-0.000067
C46	C	0.057220	-1.240560	0.499933
C47	C	-0.454955	-2.009527	-0.000053
C48	C	0.045045	-1.509527	0.499947
C49	C	-0.395546	-2.011370	-0.000037
C50	C	0.104454	-1.511370	0.499963
C51	C	-0.359753	-1.877807	-0.000037
C52	C	0.140247	-1.377807	0.499963
C53	C	-0.383371	-1.742402	-0.000052
C54	C	0.116629	-1.242402	0.499948
C55	C	-0.430601	-1.471573	-0.000100
C56	C	0.069399	-0.971573	0.499900
C57	C	-0.371185	-1.473429	-0.000100
C58	C	0.128815	-0.973429	0.499900
C59	C	-0.347568	-1.608845	-0.000084
C60	C	0.152432	-1.108845	0.499916
C61	C	-0.288169	-1.610682	-0.000035
C62	C	0.211831	-1.110682	0.499965
N63	N	-0.264548	-1.746089	-0.000035
N64	N	0.235452	-1.246089	0.499965
C65	C	-0.300341	-1.879651	-0.000036
C66	C	0.199659	-1.379651	0.499964
C67	C	-0.650581	-1.599437	-0.000089
C68	C	-0.150581	-1.099437	0.499911
C69	C	-0.709992	-1.597591	-0.000078
C70	C	-0.209992	-1.097591	0.499922
C71	C	-0.722165	-1.866571	-0.000077
C72	C	-0.222165	-1.366571	0.499923
C73	C	-0.662752	-1.868416	-0.000076
C74	C	-0.162752	-1.368416	0.499924
C75	C	-0.626960	-1.734844	-0.000089
C76	C	-0.126960	-1.234844	0.499911
C77	C	-0.175576	-1.883510	-0.000002
C78	C	0.324424	-1.383510	0.499998
C79	C	-0.116160	-1.885340	0.000021
C80	C	0.383840	-1.385340	0.500021
C81	C	-0.103993	-1.616360	0.000011
C82	C	0.396007	-1.116360	0.500011
C83	C	-0.163403	-1.614529	-0.000003
C84	C	0.336597	-1.114529	0.499997
C85	C	-0.199194	-1.748116	-0.000015
C86	C	0.300806	-1.248116	0.499985
O87	O	-0.252222	-1.497326	0.000018
O88	O	0.247778	-0.997326	0.500018
O89	O	-0.274786	-1.994976	-0.000055
O90	O	0.225214	-1.494976	0.499945
C91	C	0.190979	-1.729170	-0.000064
C92	C	0.690979	-1.229170	0.499936
C93	C	0.254210	-1.731154	-0.000087
C94	C	0.754210	-1.231154	0.499913
C95	C	0.084155	-2.011231	-0.000027
C96	C	0.584155	-1.511231	0.499973
C97	C	0.086123	-2.174977	-0.000038
C98	C	0.586123	-1.674977	0.499962
N99	N	0.086919	-1.741486	-0.425703
N100	N	0.586919	-1.241486	0.074297
H101	H	-0.204710	-1.992289	-0.000018
H102	H	0.295290	-1.492289	0.499982
H103	H	-0.074840	-1.507618	0.000017
H104	H	0.425160	-1.007618	0.500017
C105	C	-0.735967	-1.448638	-0.000077
C106	C	-0.235967	-0.948638	0.499923
H107	H	-0.776478	-1.466654	-0.000074
H108	H	-0.276478	-0.966654	0.499926
H109	H	-0.723719	-1.393687	-0.095355
H110	H	-0.223719	-0.893687	0.404645
H111	H	-0.723734	-1.393684	0.095218
H112	H	-0.223734	-0.893684	0.595218
C113	C	-0.611214	-1.452498	-0.000072
C114	C	-0.111214	-0.952498	0.499928
H115	H	-0.633795	-1.371600	-0.000057
H116	H	-0.133795	-0.871600	0.499943
H117	H	-0.587777	-1.447613	-0.095347
H118	H	-0.087777	-0.947613	0.404653
H119	H	-0.587792	-1.447621	0.095226
H120	H	-0.087792	-0.947621	0.595226
H121	H	-0.449820	-1.361303	-0.000123
H122	H	0.050180	-0.861303	0.499877
C123	C	-0.761544	-2.013489	-0.000108
C124	C	-0.261544	-1.513489	0.499892
H125	H	-0.800309	-1.992986	-0.000133
H126	H	-0.300309	-1.492986	0.499867
H127	H	-0.754321	-2.069066	0.095165
H128	H	-0.254321	-1.569066	0.595165
H129	H	-0.754302	-2.069040	-0.095408
H130	H	-0.254302	-1.569040	0.404592
C131	C	-0.090185	-2.034303	0.000029
C132	C	0.409815	-1.534303	0.500029
H133	H	-0.120014	-2.113581	0.000009
H134	H	0.379986	-1.613581	0.500009
H135	H	-0.067268	-2.040618	0.095313
H136	H	0.432732	-1.540618	0.595313
H137	H	-0.067255	-2.040617	-0.095260
H138	H	0.432745	-1.540617	0.404740
C139	C	-0.331818	-1.326496	-0.000108
C140	C	0.168182	-0.826496	0.499892
H141	H	-0.354396	-1.245593	-0.000107
H142	H	0.145604	-0.745593	0.499893
H143	H	-0.308380	-1.321626	-0.095382
H144	H	0.191620	-0.821626	0.404618
H145	H	-0.308396	-1.321612	0.095191
H146	H	0.191604	-0.821612	0.595191
H147	H	-0.376323	-2.121639	-0.000030
H148	H	0.123677	-1.621639	0.499970
C149	C	-0.494318	-2.156460	-0.000040
C150	C	0.005682	-1.656460	0.499960
H151	H	-0.471735	-2.237353	-0.000019
H152	H	0.028265	-1.737353	0.499981
H153	H	-0.517747	-2.161362	-0.095314
H154	H	-0.017747	-1.661362	0.404686
H155	H	-0.517749	-2.161328	0.095259
H156	H	-0.017749	-1.661328	0.595259
C157	C	-0.189383	-1.465577	-0.000025
C158	C	0.310617	-0.965577	0.499975
H159	H	-0.159555	-1.386297	-0.000033
H160	H	0.340445	-0.886297	0.499967
H161	H	-0.212320	-1.459247	0.095236
H162	H	0.287680	-0.959247	0.595236
H163	H	-0.212294	-1.459283	-0.095337
H164	H	0.287706	-0.959283	0.404663
H165	H	-0.643528	-1.978683	-0.000064
H166	H	-0.143528	-1.478683	0.499936
