data_functionalizedCrystal
_audit_creation_method	'MofGen! by Chris Wilmer'
_symmetry_space_group_name_H-M	'P1'
_symmetry_Int_Tables_number	1
_symmetry_cell_setting	triclinic
loop_
_symmetry_equiv_pos_as_xyz
  x,y,z
_cell_length_a	16.974800
_cell_length_b	16.974813
_cell_length_c	14.586319
_cell_angle_alpha	86.341649
_cell_angle_beta	93.653309
_cell_angle_gamma	83.627081
loop_
_atom_site_label
_atom_site_type_symbol
_atom_site_fract_x
_atom_site_fract_y
_atom_site_fract_z
O1	O	1.049039	0.100721	-0.005848
O2	O	1.549039	0.600721	0.494152
O3	O	0.818818	0.113570	-0.023890
O4	O	1.318818	0.613570	0.476110
O5	O	0.940346	-0.007965	-0.005848
O6	O	1.440346	0.492035	0.494152
O7	O	0.927510	0.222256	-0.023890
O8	O	1.427510	0.722256	0.476110
O9	O	0.940338	-0.007967	0.146632
O10	O	1.440338	0.492033	0.646632
O11	O	0.818810	0.113568	0.128590
O12	O	1.318810	0.613568	0.628590
O13	O	1.049031	0.100719	0.146633
O14	O	1.549031	0.600719	0.646633
Cu15	Cu	0.933919	0.107144	0.151534
Cu16	Cu	1.433919	0.607144	0.651534
Cu17	Cu	0.933929	0.107146	-0.028792
Cu18	Cu	1.433929	0.607146	0.471208
O19	O	0.927502	0.222254	0.128590
O20	O	1.427502	0.722254	0.628590
C21	C	0.789356	0.113082	0.050199
C22	C	1.289356	0.613082	0.550199
C23	C	0.701580	0.111622	0.043792
C24	C	1.201580	0.611622	0.543792
C25	C	0.660344	0.110934	0.123901
C26	C	1.160344	0.610934	0.623901
C27	C	0.577871	0.109549	0.117884
C28	C	1.077871	0.609549	0.617884
C29	C	0.536636	0.108860	0.031757
C30	C	1.036636	0.608860	0.531757
C31	C	0.577879	0.109546	-0.048358
C32	C	1.077879	0.609546	0.451642
C33	C	0.660351	0.110925	-0.042340
C34	C	1.160351	0.610925	0.457660
C35	C	0.289983	0.104732	0.004846
C36	C	0.789983	0.604732	0.504846
C37	C	0.207505	0.103355	-0.001167
C38	C	0.707505	0.603355	0.498833
C39	C	0.207503	0.103357	0.165076
C40	C	0.707503	0.603357	0.665076
C41	C	0.289976	0.104741	0.171086
C42	C	0.789976	0.604741	0.671086
C43	C	0.331212	0.105423	0.090972
C44	C	0.831212	0.605423	0.590972
N45	N	0.452336	0.107447	0.025604
N46	N	0.952336	0.607447	0.525604
N47	N	0.415512	0.106830	0.097126
N48	N	0.915512	0.606830	0.597126
C49	C	0.939854	-0.037424	0.072541
C50	C	1.439854	0.462576	0.572541
C51	C	0.938390	-0.125199	0.078942
C52	C	1.438390	0.374801	0.578942
C53	C	0.937708	-0.166431	-0.001167
C54	C	1.437708	0.333569	0.498833
C55	C	0.936327	-0.248904	0.004850
C56	C	1.436327	0.251096	0.504850
C57	C	0.935633	-0.290145	0.090977
C58	C	1.435633	0.209855	0.590977
C59	C	0.936312	-0.248908	0.171092
C60	C	1.436312	0.251092	0.671092
C61	C	0.937688	-0.166435	0.165074
C62	C	1.437688	0.333565	0.665074
C63	C	0.931514	-0.536802	0.117889
C64	C	1.431514	-0.036802	0.617889
C65	C	0.930141	-0.619280	0.123901
C66	C	1.430141	-0.119280	0.623901
C67	C	0.930154	-0.619271	-0.042342
C68	C	1.430154	-0.119271	0.457658
C69	C	0.931534	-0.536797	-0.048352
C70	C	1.431534	-0.036797	0.451648
C71	C	0.932209	-0.495566	0.031762
C72	C	1.432209	0.004434	0.531762
N73	N	0.934224	-0.374446	0.097130
N74	N	1.434224	0.125554	0.597130
N75	N	0.933612	-0.411266	0.025609
N76	N	1.433612	0.088734	0.525609
C77	C	1.078493	0.101207	0.072541
C78	C	1.578493	0.601207	0.572541
C79	C	1.166268	0.102667	0.078942
C80	C	1.666268	0.602667	0.578942
C81	C	0.927995	0.251713	0.050199
C82	C	1.427995	0.751713	0.550199
C83	C	0.929459	0.339488	0.043792
C84	C	1.429459	0.839488	0.543792
N85	N	0.933918	0.107142	0.278366
N86	N	1.433918	0.607142	0.778366
N87	N	0.933937	0.107141	-0.155623
N88	N	1.433937	0.607141	0.344377
C89	C	0.987749	0.053344	0.521361
C90	C	1.487749	0.553344	1.021361
C91	C	0.987751	0.053342	0.617343
C92	C	1.487751	0.553342	1.117343
C93	C	0.880100	0.160942	0.601374
C94	C	1.380100	0.660942	1.101374
C95	C	0.880095	0.160939	0.505395
C96	C	1.380095	0.660939	1.005395
C97	C	0.933924	0.107141	0.465391
C98	C	1.433924	0.607141	0.965391
C99	C	0.933931	0.107142	0.657352
C100	C	1.433931	0.607142	1.157352
C101	C	0.933933	0.107140	0.761420
C102	C	1.433933	0.607140	1.261420
C103	C	0.933921	0.107142	0.361317
C104	C	1.433921	0.607142	0.861317
H105	H	0.693910	0.111502	0.194034
H106	H	1.193910	0.611502	0.694034
Cl107	Cl	0.929303	-0.671108	-0.143050
Cl108	Cl	1.429303	-0.171108	0.356950
H109	H	0.938232	-0.132864	0.230306
H110	H	1.438232	0.367136	0.730306
H111	H	0.544301	0.108975	0.183119
H112	H	1.044301	0.608975	0.683119
H113	H	0.323548	0.105285	-0.060389
H114	H	0.823548	0.605285	0.439611
Cl115	Cl	0.812436	0.228573	0.651669
Cl116	Cl	1.312436	0.728573	1.151669
Cl117	Cl	1.055418	-0.014293	0.687704
Cl118	Cl	1.555418	0.485707	1.187704
Cl119	Cl	0.341807	0.105613	0.279365
Cl120	Cl	0.841807	0.605613	0.779365
Cl121	Cl	0.932408	-0.484957	-0.156631
Cl122	Cl	1.432408	0.015043	0.343369
H123	H	0.544300	0.108979	-0.118484
H124	H	1.044300	0.608979	0.381516
Cl125	Cl	0.812420	0.228571	0.435025
Cl126	Cl	1.312420	0.728571	0.935025
Cl127	Cl	0.155659	0.102496	0.265785
Cl128	Cl	0.655659	0.602496	0.765785
H129	H	0.173933	0.102796	-0.071306
H130	H	0.673933	0.602796	0.428694
Cl131	Cl	0.938586	-0.114593	-0.109447
Cl132	Cl	1.438586	0.385407	0.390553
Cl133	Cl	0.712192	0.111787	-0.143053
Cl134	Cl	1.212192	0.611787	0.356947
Cl135	Cl	0.935472	-0.300735	-0.095864
Cl136	Cl	1.435472	0.199265	0.404136
H137	H	0.932079	-0.503243	0.183125
H138	H	1.432079	-0.003243	0.683125
Cl139	Cl	0.929273	-0.671126	0.232184
Cl140	Cl	1.429273	-0.171126	0.732184
Cl141	Cl	0.935430	-0.300752	0.279366
Cl142	Cl	1.435430	0.199248	0.779366
Cl143	Cl	1.055416	-0.014291	0.471075
Cl144	Cl	1.555416	0.485709	0.971075
