data_functionalizedCrystal
_audit_creation_method	'MofGen! by Chris Wilmer'
_symmetry_space_group_name_H-M	'P1'
_symmetry_Int_Tables_number	1
_symmetry_cell_setting	triclinic
loop_
_symmetry_equiv_pos_as_xyz
  x,y,z
_cell_length_a	15.995350
_cell_length_b	10.489741
_cell_length_c	14.472310
_cell_angle_alpha	89.999301
_cell_angle_beta	89.990621
_cell_angle_gamma	84.015774
loop_
_atom_site_label
_atom_site_type_symbol
_atom_site_fract_x
_atom_site_fract_y
_atom_site_fract_z
O1	O	1.111988	0.164399	-0.076762
O2	O	0.868335	0.184702	-0.076781
O3	O	0.995706	-0.011125	-0.076766
O4	O	0.984617	0.360226	-0.076777
O5	O	0.995673	-0.011114	0.076916
O6	O	0.868302	0.184713	0.076901
O7	O	1.111955	0.164411	0.076920
Cu8	Cu	0.990125	0.174563	0.090943
Cu9	Cu	0.990164	0.174549	-0.090804
O10	O	0.984584	0.360237	0.076905
C11	C	0.837119	0.183868	0.000058
C12	C	0.744153	0.181352	0.000050
C13	C	0.994852	-0.058639	0.000075
C14	C	0.992346	-0.200234	0.000073
C15	C	0.406351	0.172315	0.000070
C16	C	0.452944	0.032851	0.000417
C17	C	0.549650	0.035368	0.000064
C18	C	0.573939	0.176797	0.000061
C19	C	0.533285	0.245579	-0.087698
C20	C	0.436628	0.242076	-0.087765
C21	C	0.436269	0.244970	0.087001
C22	C	0.533214	0.244937	0.088154
C23	C	0.668651	0.179338	0.000053
C24	C	0.311638	0.169778	0.000072
C25	C	0.911304	-0.267240	0.000060
C26	C	0.949571	-0.359892	0.075836
C27	C	0.949623	-0.359878	-0.075682
C28	C	1.030647	-0.291021	0.075912
C29	C	1.030687	-0.290998	-0.075675
C30	C	1.069013	-0.383624	0.000120
C31	C	1.143171	0.165244	0.000079
C32	C	1.236137	0.167761	0.000080
C33	C	0.985438	0.407752	0.000062
C34	C	0.987944	0.549346	0.000058
N35	N	0.990104	0.174572	0.218774
N36	N	0.990192	0.174531	-0.218635
C37	C	0.990163	0.174544	0.592865
C38	C	0.921777	0.278976	0.553691
C39	C	0.921938	0.279357	0.446603
C40	C	0.990133	0.174558	0.407274
C41	C	1.077673	0.203626	0.446117
C42	C	1.077290	0.204368	0.553238
C43	C	0.971787	0.040735	0.553397
C44	C	0.969789	0.041628	0.446269
C45	C	0.990122	0.174563	0.302386
C46	C	0.990181	0.174542	0.697753
H47	H	0.434072	-0.022892	0.063353
C48	C	0.393890	0.380388	-0.093157
H49	H	0.334583	0.379186	-0.093228
H50	H	0.410729	0.419686	-0.148297
H51	H	0.409986	0.427616	-0.041259
H52	H	0.933437	0.377714	0.580598
H53	H	0.433029	-0.022644	-0.062167
C54	C	0.394205	0.383878	0.087801
H55	H	0.358577	0.397581	0.035446
H56	H	0.436222	0.441490	0.085870
H57	H	0.361849	0.398248	0.142572
C58	C	0.834068	0.255986	0.411122
H59	H	0.797949	0.246178	0.462177
H60	H	0.838206	0.180410	0.374530
H61	H	0.811827	0.326977	0.374783
C62	C	0.411497	0.174300	-0.176377
H63	H	0.352320	0.171572	-0.177201
H64	H	0.438784	0.089435	-0.177743
H65	H	0.427873	0.220102	-0.228859
C66	C	0.587600	-0.037670	0.085046
H67	H	0.543918	-0.069157	0.120094
H68	H	0.616222	0.018547	0.122170
H69	H	0.626064	-0.107485	0.065300
C70	C	1.076911	-0.250028	0.162555
H71	H	1.094650	-0.323507	0.198692
H72	H	1.040084	-0.192263	0.197973
H73	H	1.124552	-0.209037	0.144448
H74	H	0.548037	0.349484	-0.090963
C75	C	0.903305	-0.401082	-0.162227
H76	H	0.847281	-0.360811	-0.162132
H77	H	0.902486	-0.491500	-0.161912
H78	H	0.931566	-0.376323	-0.216033
H79	H	0.909296	0.012784	0.580461
H80	H	1.016301	-0.039726	0.419501
H81	H	0.561385	0.197797	-0.153007
C82	C	0.833621	0.255971	0.588509
H83	H	0.793259	0.319999	0.564079
H84	H	0.832510	0.259835	0.654081
H85	H	0.820700	0.173879	0.568829
H86	H	1.021649	-0.036979	0.578729
C87	C	1.148150	0.105524	0.588249
H88	H	1.177049	0.065102	0.537001
H89	H	1.124750	0.042847	0.624731
H90	H	1.186380	0.147658	0.624600
C91	C	0.586863	-0.038162	-0.085068
H92	H	0.542868	-0.069678	-0.119576
H93	H	0.625411	-0.107961	-0.065502
H94	H	0.615258	0.017808	-0.122662
H95	H	1.129811	0.129587	0.420640
H96	H	1.094107	0.300099	0.419278
H97	H	0.415444	0.199381	0.153519
H98	H	0.905390	0.019568	0.420883
H99	H	0.560214	0.194727	0.153077
C100	C	0.821295	-0.198895	0.000153
H101	H	0.792626	-0.222308	0.054058
H102	H	0.792224	-0.223454	-0.053132
H103	H	0.823510	-0.108748	-0.000389
C104	C	0.554796	0.384270	0.095315
H105	H	0.529392	0.423045	0.149130
H106	H	0.534269	0.430780	0.042246
H107	H	0.614047	0.384943	0.098999
C108	C	0.903232	-0.401141	0.162370
H109	H	0.847202	-0.360895	0.162275
H110	H	0.931474	-0.376413	0.216180
H111	H	0.902417	-0.491567	0.162025
H112	H	1.135706	-0.433981	0.000167
H113	H	1.064963	-0.260437	-0.139736
H114	H	0.933757	0.378654	0.420966
H115	H	1.093360	0.301954	0.578212
