data_functionalizedCrystal
_audit_creation_method	'MofGen! by Chris Wilmer'
_symmetry_space_group_name_H-M	'P1'
_symmetry_Int_Tables_number	1
_symmetry_cell_setting	triclinic
loop_
_symmetry_equiv_pos_as_xyz
  x,y,z
_cell_length_a	6.817900
_cell_length_b	9.582860
_cell_length_c	17.110486
_cell_angle_alpha	94.597236
_cell_angle_beta	99.060439
_cell_angle_gamma	111.206767
loop_
_atom_site_label
_atom_site_type_symbol
_atom_site_fract_x
_atom_site_fract_y
_atom_site_fract_z
V1	V	-4.016794	-0.206610	-0.246575
V2	V	-3.516794	0.293390	0.253425
O3	O	-3.963368	0.010387	-0.242031
O4	O	-3.463368	0.510387	0.257969
O5	O	-4.007936	-0.410114	-0.244746
O6	O	-3.507936	0.089886	0.255254
O7	O	-3.945999	-0.203231	-0.354181
O8	O	-3.445999	0.296769	0.145819
O9	O	-4.025733	-0.197929	-0.131838
O10	O	-3.525733	0.302071	0.368162
V11	V	-4.498200	-0.180679	-0.232869
V12	V	-3.998200	0.319321	0.267131
O13	O	-4.282696	-0.263493	-0.276641
O14	O	-3.782696	0.236507	0.223359
O15	O	-4.682495	-0.123796	-0.202804
O16	O	-4.182495	0.376204	0.297196
O17	O	-4.283852	0.022826	-0.234699
O18	O	-3.783852	0.522826	0.265301
O19	O	-4.669024	-0.397676	-0.237414
O20	O	-4.169024	0.102324	0.262586
O21	O	-4.606658	-0.189360	-0.347607
O22	O	-4.106658	0.310640	0.152393
O23	O	-4.345788	-0.184058	-0.125264
O24	O	-3.845788	0.315942	0.374736
C25	C	-3.863281	-0.459731	-0.240819
C26	C	-3.363281	0.040269	0.259181
C27	C	-3.937176	-0.626097	-0.240040
C28	C	-3.437176	-0.126097	0.259960
C29	C	-3.784273	-0.195828	-0.380413
C30	C	-3.284273	0.304172	0.119587
C31	C	-3.807936	-0.194412	-0.468381
C32	C	-3.307936	0.305588	0.031619
C33	C	-4.001791	-0.201215	-0.513734
C34	C	-3.501791	0.298785	-0.013734
C35	C	-4.024012	-0.199884	-0.596388
C36	C	-3.524012	0.300116	-0.096388
C37	C	-3.852381	-0.191759	-0.633688
C38	C	-3.352381	0.308241	-0.133688
C39	C	-3.658509	-0.184950	-0.588329
C40	C	-3.158509	0.315050	-0.088329
C41	C	-3.636285	-0.186271	-0.505675
C42	C	-3.136285	0.313729	-0.005675
C43	C	-3.910336	-0.187387	-0.883046
C44	C	-3.410336	0.312613	-0.383046
C45	C	-3.932578	-0.186071	-0.965706
C46	C	-3.432578	0.313929	-0.465706
C47	C	-4.298080	-0.201001	-0.973759
C48	C	-3.798080	0.298999	-0.473759
C49	C	-4.275842	-0.202331	-0.891105
C50	C	-3.775842	0.297669	-0.391105
C51	C	-4.081969	-0.195514	-0.845752
C52	C	-3.581969	0.304486	-0.345752
C53	C	-3.875093	-0.190402	-0.718174
C54	C	-3.375093	0.309598	-0.218174
C55	C	-4.059255	-0.196860	-0.761266
C56	C	-3.559255	0.303140	-0.261266
C57	C	-4.091851	0.072434	-0.238624
C58	C	-3.591851	0.572434	0.261376
C59	C	-3.997193	0.238798	-0.239408
C60	C	-3.497193	0.738798	0.260592
C61	C	-4.170858	-0.191465	-0.099027
C62	C	-3.670858	0.308535	0.400973
C63	C	-4.126433	-0.192874	-0.011059
C64	C	-3.626433	0.307126	0.488941
H65	H	-4.141561	-0.207841	-0.483371
H66	H	-3.641561	0.292159	0.016629
H67	H	-4.181862	-0.205415	-0.633310
H68	H	-3.681862	0.294585	-0.133310
H69	H	-4.415606	-0.208945	-0.860741
H70	H	-3.915606	0.291055	-0.360741
H71	H	-3.792802	-0.179450	-0.996073
H72	H	-3.292802	0.320550	-0.496073
H73	H	-3.752501	-0.181889	-0.846134
H74	H	-3.252501	0.318111	-0.346134
H75	H	-3.735357	-0.183793	-0.748554
H76	H	-3.235357	0.316207	-0.248554
O77	O	-3.473538	-0.176494	-0.628586
O78	O	-2.973538	0.323506	-0.128586
H79	H	-3.335049	-0.172084	-0.583168
H80	H	-2.835049	0.327916	-0.083168
H81	H	-3.478412	-0.180694	-0.468746
H82	H	-2.978412	0.319306	0.031254
O83	O	-4.507167	-0.208327	-1.022671
O84	O	-4.007167	0.291673	-0.522671
H85	H	-4.493789	-0.206027	-1.086411
H86	H	-3.993789	0.293973	-0.586411
O87	O	-4.244374	-0.205617	-0.721043
O88	O	-3.744374	0.294383	-0.221043
H89	H	-4.291118	-0.309039	-0.691958
H90	H	-3.791118	0.190961	-0.191958
