data_functionalizedCrystal
_audit_creation_method	'MofGen! by Chris Wilmer'
_symmetry_space_group_name_H-M	'P1'
_symmetry_Int_Tables_number	1
_symmetry_cell_setting	triclinic
loop_
_symmetry_equiv_pos_as_xyz
  x,y,z
_cell_length_a	16.994748
_cell_length_b	12.759395
_cell_length_c	12.759387
_cell_angle_alpha	90.020509
_cell_angle_beta	90.025030
_cell_angle_gamma	90.005860
loop_
_atom_site_label
_atom_site_type_symbol
_atom_site_fract_x
_atom_site_fract_y
_atom_site_fract_z
Zn1	Zn	-0.313954	1.606344	0.594047
Zn2	Zn	-0.445880	1.606267	0.418385
Zn3	Zn	-0.313997	1.430643	0.418384
Zn4	Zn	-0.445824	1.430667	0.594024
O5	O	-0.379914	1.518480	0.506210
O6	O	-0.331460	1.753355	0.570755
O7	O	-0.428427	1.582927	0.271364
O8	O	-0.203610	1.453972	0.441695
O9	O	-0.428385	1.753298	0.441697
O10	O	-0.203579	1.583060	0.570754
O11	O	-0.331533	1.453897	0.271363
O12	O	-0.331479	1.283625	0.441673
O13	O	-0.428289	1.454013	0.741049
O14	O	-0.428331	1.283642	0.570715
O15	O	-0.331405	1.583083	0.741065
O16	O	-0.556253	1.582951	0.441675
O17	O	-0.556212	1.453938	0.570717
C18	C	-0.379904	1.245513	0.506192
C19	C	-0.379919	1.128736	0.506209
C20	C	-0.174173	1.518514	0.506224
C21	C	-0.084851	1.518533	0.506231
C22	C	-0.584853	1.518452	0.506190
C23	C	-0.674176	1.518473	0.506158
C24	C	-0.480934	1.128793	0.640364
C25	C	-0.531448	1.073961	0.707444
C26	C	-0.531458	0.964239	0.707457
C27	C	-0.480946	0.909347	0.640384
C28	C	-0.430432	0.964180	0.573304
C29	C	-0.430430	1.073904	0.573296
C30	C	-0.329414	0.964122	0.439157
C31	C	-0.329407	1.073844	0.439137
C32	C	-0.278903	0.909231	0.372085
C33	C	-0.228392	0.964063	0.304998
C34	C	-0.228385	1.073791	0.304987
C35	C	-0.278893	1.128676	0.372057
Zn36	Zn	0.185999	1.606115	0.418164
Zn37	Zn	0.186050	1.430876	0.594163
Zn38	Zn	0.054203	1.606547	0.593844
Zn39	Zn	0.054094	1.430485	0.418542
O40	O	0.120086	1.518505	0.506178
O41	O	0.296387	1.582852	0.441486
O42	O	0.168627	1.454523	0.741142
O43	O	0.071710	1.753510	0.570248
O44	O	0.296424	1.454105	0.570792
O45	O	0.168540	1.753193	0.441177
O46	O	0.071759	1.583588	0.740907
O47	O	-0.056193	1.583209	0.570615
O48	O	0.071525	1.453438	0.271471
O49	O	-0.056273	1.453857	0.441821
O50	O	0.168435	1.582473	0.271193
O51	O	0.168522	1.283803	0.571159
O52	O	0.071575	1.283516	0.442130
C53	C	-0.379836	1.518560	0.780244
C54	C	-0.379803	1.518593	0.897021
C55	C	-0.379924	1.792514	0.506229
C56	C	-0.379928	1.909290	0.506237
C57	C	-0.379934	1.518462	0.233243
C58	C	-0.379744	1.518631	0.116467
C59	C	-0.278925	1.653003	0.897058
C60	C	-0.228474	1.720222	0.951937
C61	C	-0.228445	1.720247	1.061659
C62	C	-0.278871	1.653044	1.116504
C63	C	-0.329322	1.585825	1.061624
C64	C	-0.329347	1.585809	0.951900
C65	C	-0.430196	1.451412	1.061587
C66	C	-0.430229	1.451390	0.951865
C67	C	-0.480622	1.384209	1.116432
C68	C	-0.531078	1.316993	1.061553
C69	C	-0.531105	1.316971	0.951824
C70	C	-0.480681	1.384171	0.896986
C71	C	0.120044	1.245539	0.506723
C72	C	0.120049	1.128762	0.506987
C73	C	0.119962	1.517863	0.232145
C74	C	0.119909	1.517590	0.115369
C75	C	0.120131	1.792538	0.505635
C76	C	0.120150	1.909315	0.505403
C77	C	0.120254	1.519219	0.779145
C78	C	0.120455	1.519782	0.895921
C79	C	0.221076	1.129115	0.641243
C80	C	0.271588	1.074430	0.708493
C81	C	0.271591	0.964709	0.708734
C82	C	0.221078	0.909670	0.641715
C83	C	0.170565	0.964354	0.574465
C84	C	0.170566	1.074078	0.574233
C85	C	0.069544	0.964002	0.440204
C86	C	0.069536	1.073723	0.439967
C87	C	0.019031	0.908962	0.373185
C88	C	-0.031487	0.963647	0.305939
C89	C	-0.031488	1.073375	0.305701
C90	C	0.019023	1.128408	0.372717
C91	C	0.220828	1.651945	0.115060
C92	C	0.271262	1.718989	0.060045
C93	C	0.271208	1.718728	-0.049677
C94	C	0.220713	1.651419	-0.104386
C95	C	0.170279	1.584375	-0.049370
C96	C	0.170340	1.584641	0.060354
C97	C	0.069357	1.450027	-0.049061
C98	C	0.069414	1.450281	0.060660
C99	C	0.018862	1.382718	-0.103770
C100	C	-0.031569	1.315667	-0.048755
C101	C	-0.031512	1.315929	0.060973
C102	C	0.018980	1.383237	0.115675
H103	H	-0.480937	1.218134	0.640352
H104	H	-0.072607	0.918825	0.251373
O105	O	0.019019	1.246750	0.372460
H106	H	0.034879	1.275479	0.293133
H107	H	0.018818	1.382515	-0.193111
O108	O	0.326072	1.133795	0.780770
H109	H	0.312632	1.112936	0.863289
H110	H	-0.072682	1.260874	-0.093308
O111	O	-0.278832	1.653066	1.234847
H112	H	-0.262868	1.573833	1.263759
H113	H	-0.572572	1.118666	0.762054
H114	H	-0.572180	1.262221	0.907148
O115	O	0.019034	0.790620	0.373444
H116	H	0.034906	0.761494	0.294247
H117	H	-0.278911	0.819889	0.372104
O118	O	-0.085968	1.132357	0.233164
H119	H	-0.121091	1.075647	0.186611
O120	O	0.325604	1.791042	-0.109015
H121	H	0.290282	1.844388	-0.159094
O122	O	-0.585985	0.905088	0.779742
H123	H	-0.621127	0.961685	0.826354
O124	O	0.019040	1.383512	0.234018
H125	H	0.003129	1.462828	0.262793
O126	O	0.221088	0.791327	0.641957
H127	H	0.205224	0.762582	0.721277
O128	O	-0.480978	0.791005	0.640361
H129	H	-0.524600	0.762098	0.698259
H130	H	-0.187266	0.919361	0.250398
H131	H	0.220887	1.652150	0.204401
O132	O	-0.585458	1.244515	1.120707
H133	H	-0.571921	1.162060	1.099637
H134	H	0.312727	0.920185	0.763489
O135	O	-0.174089	1.792701	0.892779
H136	H	-0.138998	1.839439	0.949374
H137	H	0.312372	1.773793	0.104601
H138	H	-0.187244	1.118429	0.250369
O139	O	-0.278973	1.652977	0.778715
H140	H	-0.219489	1.631754	0.749772
H141	H	0.220666	1.651222	-0.193727
O142	O	-0.085906	1.243612	0.120312
H143	H	-0.121018	1.196764	0.063832
O144	O	-0.278889	1.247019	0.372038
H145	H	-0.263020	1.275988	0.451313
H146	H	-0.187358	1.774977	1.106342
O147	O	-0.480592	1.384225	1.234775
H148	H	-0.496544	1.463464	1.263719
O149	O	-0.480719	1.384142	0.778643
H150	H	-0.421232	1.362917	0.749713
H151	H	0.221082	1.218456	0.641049
