data_functionalizedCrystal
_audit_creation_method	'MofGen! by Chris Wilmer'
_symmetry_space_group_name_H-M	'P1'
_symmetry_Int_Tables_number	1
_symmetry_cell_setting	triclinic
loop_
_symmetry_equiv_pos_as_xyz
  x,y,z
_cell_length_a	12.594516
_cell_length_b	21.295418
_cell_length_c	12.594510
_cell_angle_alpha	89.958333
_cell_angle_beta	89.968094
_cell_angle_gamma	90.031869
loop_
_atom_site_label
_atom_site_type_symbol
_atom_site_fract_x
_atom_site_fract_y
_atom_site_fract_z
Zn1	Zn	-0.423201	0.962406	-0.602412
Zn2	Zn	-0.601229	0.962339	-0.424439
Zn3	Zn	-0.423314	0.857133	-0.424382
Zn4	Zn	-0.601187	0.857125	-0.602311
O5	O	-0.512232	0.909751	-0.513386
O6	O	-0.446787	1.050487	-0.578869
O7	O	-0.577693	0.948358	-0.275486
O8	O	-0.274353	0.871129	-0.448016
O9	O	-0.577583	1.050437	-0.448114
O10	O	-0.274270	0.948473	-0.578814
O11	O	-0.446979	0.871064	-0.275443
O12	O	-0.446939	0.769043	-0.447918
O13	O	-0.577512	0.871116	-0.751270
O14	O	-0.577621	0.769037	-0.578642
O15	O	-0.446746	0.948465	-0.751344
O16	O	-0.750169	0.948351	-0.448016
O17	O	-0.750138	0.871051	-0.578698
C18	C	-0.788773	0.909710	-0.513375
C19	C	-0.907079	0.909750	-0.513407
C20	C	-0.512288	0.746199	-0.513263
C21	C	-0.512338	0.676231	-0.513236
C22	C	-0.976354	0.867702	-0.584434
C23	C	-1.047236	0.852363	-0.487302
C24	C	-1.046995	0.925146	-0.610555
C25	C	-0.976403	0.894380	-0.416223
C26	C	-0.976156	0.967190	-0.539541
C27	C	-1.047006	0.951873	-0.442343
C28	C	-0.580475	0.643378	-0.581202
C29	C	-0.580448	0.577635	-0.581250
C30	C	-0.512297	0.544749	-0.513313
C31	C	-0.444147	0.577610	-0.445342
C32	C	-0.444168	0.643351	-0.445304
N33	N	-0.503999	0.441473	-0.420217
N34	N	-0.503985	0.379022	-0.420257
C35	C	-0.512229	0.346674	-0.513426
N36	N	-0.520507	0.379137	-0.606556
N37	N	-0.520526	0.441594	-0.606515
C38	C	-0.512266	0.473463	-0.513347
C39	C	-0.580340	0.242535	-0.581449
C40	C	-0.580307	0.176792	-0.581499
C41	C	-0.444011	0.176767	-0.445581
C42	C	-0.444039	0.242510	-0.445541
C43	C	-0.512210	0.275390	-0.513474
C44	C	-0.234611	0.909809	-0.513420
C45	C	-0.116306	0.909834	-0.513434
C46	C	-0.512111	0.909797	-0.791007
C47	C	-0.512060	0.909817	-0.909312
C48	C	-0.512177	1.073941	-0.513509
C49	C	-0.512153	1.143909	-0.513562
C50	C	-0.440915	0.951902	-1.049370
C51	C	-0.538029	0.967272	-0.978561
C52	C	-0.414957	0.894475	-0.978550
C53	C	-0.609192	0.925243	-1.049289
C54	C	-0.486055	0.852419	-1.049284
C55	C	-0.583236	0.867767	-0.978508
C56	C	-0.512276	0.909741	-0.236845
C57	C	-0.512028	0.909843	-0.118540
H58	H	-0.945330	0.832080	-0.644412
H59	H	-0.635790	0.150044	-0.636852
H60	H	-0.944915	1.015715	-0.561670
C61	C	-0.359757	1.000004	-1.091408
N62	N	-0.298634	1.036235	-1.123073
C63	C	-0.369092	0.278649	-0.370762
N64	N	-0.312638	0.305870	-0.314436
H65	H	-0.945522	0.881336	-0.334055
C66	C	-0.304038	0.876927	-0.936575
N67	N	-0.220490	0.863714	-0.904964
H68	H	-0.560016	1.015822	-0.947491
C69	C	-0.456307	0.786850	-1.091296
N70	N	-0.433888	0.737463	-1.122944
C71	C	-0.655410	0.541490	-0.656017
N72	N	-0.711873	0.514267	-0.712331
H73	H	-0.388516	0.149991	-0.390270
C74	C	-0.720142	0.942869	-1.091089
N75	N	-0.803707	0.956148	-1.122575
H76	H	-1.077833	0.987467	-0.382219
C77	C	-1.089414	0.786789	-0.457447
N78	N	-1.121179	0.737397	-0.434966
C79	C	-1.088888	0.942693	-0.721530
N80	N	-1.120436	0.955905	-0.805119
H81	H	-0.643457	0.832188	-0.947592
H82	H	-0.635983	0.670145	-0.636520
H83	H	-0.388655	0.550829	-0.390029
C84	C	-0.369214	0.679491	-0.370527
N85	N	-0.312761	0.706712	-0.314201
C86	C	-0.655316	0.278706	-0.656188
N87	N	-0.711787	0.305947	-0.712484
