data_functionalizedCrystal
_audit_creation_method	'MofGen! by Chris Wilmer'
_symmetry_space_group_name_H-M	'P1'
_symmetry_Int_Tables_number	1
_symmetry_cell_setting	triclinic
loop_
_symmetry_equiv_pos_as_xyz
  x,y,z
_cell_length_a	12.645331
_cell_length_b	10.685194
_cell_length_c	10.685910
_cell_angle_alpha	98.389653
_cell_angle_beta	94.379483
_cell_angle_gamma	94.375964
loop_
_atom_site_label
_atom_site_type_symbol
_atom_site_fract_x
_atom_site_fract_y
_atom_site_fract_z
Zn1	Zn	1.635379	-0.450590	0.678961
Zn2	Zn	1.605903	-0.679089	0.450432
Zn3	Zn	1.443420	-0.466839	0.466723
Zn4	Zn	1.443390	-0.662804	0.662625
O5	O	1.532023	-0.564830	0.564685
O6	O	1.779816	-0.480916	0.648665
O7	O	1.572026	-0.664549	0.274967
O8	O	1.481232	-0.287043	0.508531
O9	O	1.758161	-0.648794	0.480766
O10	O	1.622263	-0.275105	0.664462
O11	O	1.452651	-0.508610	0.286936
O12	O	1.295069	-0.492819	0.492691
O13	O	1.481181	-0.621038	0.842418
O14	O	1.295047	-0.636794	0.636619
O15	O	1.622234	-0.465125	0.854420
O16	O	1.571997	-0.854569	0.464925
O17	O	1.452600	-0.842605	0.620822
C18	C	1.256593	-0.564803	0.564651
C19	C	1.138763	-0.564820	0.564664
C20	C	1.509127	-0.894645	0.539361
C21	C	1.499433	-1.035738	0.528570
C22	C	0.971246	-0.473753	0.474694
C23	C	1.093758	-0.474040	0.474245
C24	C	1.082466	-0.701333	0.517867
C25	C	0.959858	-0.700846	0.517242
C26	C	0.983254	-0.520617	0.701710
C27	C	1.106015	-0.517687	0.701192
C28	C	1.808529	-0.564859	0.564720
C29	C	1.926359	-0.564871	0.564735
C30	C	1.554992	-0.539452	0.895763
C31	C	1.564780	-0.528638	1.036849
C32	C	1.555039	-0.233726	0.590136
C33	C	1.564847	-0.092629	0.600982
C34	C	1.509135	-0.590140	1.234893
C35	C	1.499352	-0.600962	1.093806
H36	H	1.435997	-1.094977	0.458319
H37	H	1.132302	-0.373130	0.504754
H38	H	1.628270	-1.033397	0.671239
H39	H	0.950228	-0.372563	0.504980
H40	H	0.922429	-0.737175	0.416802
H41	H	0.932019	-0.503530	0.374004
H42	H	1.114599	-0.504111	0.372950
H43	H	0.929661	-0.771584	0.579407
H44	H	1.628293	-0.458445	1.096026
N45	N	1.120456	-0.794252	0.601437
H46	H	1.174662	-0.748640	0.670597
H47	H	1.154105	-0.864130	0.548551
H48	H	1.137364	-0.578394	0.772697
H49	H	1.104375	-0.738077	0.418443
H50	H	1.435851	-0.671159	1.034635
H51	H	0.954335	-0.586859	0.768925
N52	N	0.954152	-0.390351	0.755474
H53	H	0.903783	-0.358702	0.691576
H54	H	1.020766	-0.329962	0.774631
N55	N	1.156089	-0.384545	0.747693
H56	H	1.199810	-0.354872	0.680613
H57	H	1.203567	-0.383970	0.828224
