data_functionalizedCrystal
_audit_creation_method	'MofGen! by Chris Wilmer'
_symmetry_space_group_name_H-M	'P1'
_symmetry_Int_Tables_number	1
_symmetry_cell_setting	triclinic
loop_
_symmetry_equiv_pos_as_xyz
  x,y,z
_cell_length_a	10.489711
_cell_length_b	10.489716
_cell_length_c	13.930277
_cell_angle_alpha	89.999515
_cell_angle_beta	89.991249
_cell_angle_gamma	84.528072
loop_
_atom_site_label
_atom_site_type_symbol
_atom_site_fract_x
_atom_site_fract_y
_atom_site_fract_z
O1	O	1.694065	0.179788	-0.079856
O2	O	2.194065	0.679788	0.420144
O3	O	1.322863	0.196721	-0.079850
O4	O	1.822863	0.696721	0.420150
O5	O	1.516927	0.002654	-0.079856
O6	O	2.016927	0.502654	0.420144
O7	O	1.500001	0.373855	-0.079849
O8	O	2.000001	0.873855	0.420151
O9	O	1.516900	0.002649	0.079805
O10	O	2.016900	0.502649	0.579805
O11	O	1.322836	0.196716	0.079812
O12	O	1.822836	0.696716	0.579812
O13	O	1.694038	0.179784	0.079806
O14	O	2.194038	0.679784	0.579806
Zn15	Zn	1.508432	0.188249	0.105159
Zn16	Zn	2.008432	0.688249	0.605159
Zn17	Zn	1.508468	0.188255	-0.105203
Zn18	Zn	2.008468	0.688255	0.394797
O19	O	1.499974	0.373851	0.079813
O20	O	1.999974	0.873851	0.579813
C21	C	1.275317	0.195448	-0.000018
C22	C	1.775317	0.695448	0.499982
C23	C	1.133686	0.191646	-0.000016
C24	C	1.633686	0.691646	0.499984
C25	C	0.951289	0.308352	-0.000025
C26	C	1.451289	0.808352	0.499975
C27	C	1.043454	0.250058	-0.078746
C28	C	1.543454	0.750058	0.421254
C29	C	1.043400	0.250022	0.078668
C30	C	1.543400	0.750022	0.578668
C31	C	0.973513	0.126514	-0.078823
C32	C	1.473513	0.626514	0.421177
C33	C	0.973450	0.126495	0.078662
C34	C	1.473450	0.626495	0.578662
C35	C	1.065587	0.068111	-0.000079
C36	C	1.565587	0.568111	0.499921
C37	C	1.515642	-0.044880	-0.000028
C38	C	2.015642	0.455120	0.499972
C39	C	1.511837	-0.186511	-0.000037
C40	C	2.011837	0.313489	0.499963
C41	C	1.630843	-0.284198	-0.000031
C42	C	2.130843	0.215802	0.499969
C43	C	1.567971	-0.361549	-0.078749
C44	C	2.067971	0.138451	0.421251
C45	C	1.567916	-0.361518	0.078666
C46	C	2.067916	0.138482	0.578666
C47	C	1.449014	-0.261997	-0.078820
C48	C	1.949014	0.238003	0.421180
C49	C	1.448978	-0.261960	0.078665
C50	C	1.948978	0.238040	0.578665
C51	C	1.386018	-0.339263	-0.000073
C52	C	1.886018	0.160737	0.499927
C53	C	1.741584	0.181057	-0.000028
C54	C	2.241584	0.681057	0.499972
C55	C	1.883215	0.184859	-0.000036
C56	C	2.383215	0.684859	0.499964
C57	C	1.501259	0.421385	-0.000018
C58	C	2.001259	0.921385	0.499982
C59	C	1.505064	0.563016	-0.000015
C60	C	2.005064	1.063016	0.499985
N61	N	1.508417	0.188245	0.248725
N62	N	2.008417	0.688245	0.748725
N63	N	1.508494	0.188250	-0.248769
N64	N	2.008494	0.688250	0.251231
C65	C	1.422533	0.274154	0.700997
C66	C	1.922533	0.774154	1.200997
C67	C	1.594439	0.102347	0.700960
C68	C	2.094439	0.602347	1.200960
C69	C	1.594423	0.102343	0.600465
C70	C	2.094423	0.602343	1.100465
C71	C	1.508463	0.188247	0.550231
C72	C	2.008463	0.688247	1.050231
C73	C	1.422518	0.274155	0.600492
C74	C	1.922518	0.774155	1.100492
C75	C	1.680376	0.016445	0.550196
C76	C	2.180376	0.516445	1.050196
C77	C	1.680365	0.016438	0.449694
C78	C	2.180365	0.516438	0.949694
C79	C	1.594397	0.102337	0.399458
C80	C	2.094397	0.602337	0.899458
C81	C	1.508448	0.188248	0.449726
C82	C	2.008448	0.688248	0.949726
C83	C	1.422488	0.274152	0.399491
C84	C	1.922488	0.774152	0.899491
C85	C	1.336531	0.360058	0.449757
C86	C	1.836531	0.860058	0.949757
C87	C	1.336550	0.360054	0.550256
C88	C	1.836550	0.860054	1.050256
C89	C	1.594378	0.102341	0.298959
C90	C	2.094378	0.602341	0.798959
C91	C	1.422472	0.274153	0.298986
C92	C	1.922472	0.774153	0.798986
H93	H	1.115053	-0.033485	-0.000120
H94	H	1.615053	0.466515	0.499880
H95	H	1.282425	-0.363682	-0.000113
H96	H	1.782425	0.136318	0.499887
Cl97	Cl	1.702437	-0.005639	0.235774
Cl98	Cl	2.202437	0.494361	0.735774
Cl99	Cl	1.091174	0.330724	0.181420
Cl100	Cl	1.591174	0.830724	0.681420
Cl101	Cl	0.874551	0.465059	-0.000139
Cl102	Cl	1.374551	0.965059	0.499861
Cl103	Cl	1.091303	0.330730	-0.181500
Cl104	Cl	1.591303	0.830730	0.318500
Cl105	Cl	0.925536	0.045884	0.181418
Cl106	Cl	1.425536	0.545884	0.681418
Cl107	Cl	1.790658	-0.246109	-0.000153
Cl108	Cl	2.290658	0.253891	0.499847
H109	H	0.942721	0.074312	-0.145454
H110	H	1.442721	0.574312	0.354546
H111	H	1.618219	-0.405048	-0.145302
H112	H	2.118219	0.094952	0.354698
Cl113	Cl	1.228504	0.468046	0.613449
Cl114	Cl	1.728504	0.968046	1.113449
Cl115	Cl	1.645495	-0.428644	0.181413
Cl116	Cl	2.145495	0.071356	0.681413
Cl117	Cl	1.371517	-0.195137	-0.181686
Cl118	Cl	1.871517	0.304863	0.318314
Cl119	Cl	1.314473	0.382141	0.764183
Cl120	Cl	1.814473	0.882141	1.264183
H121	H	1.398773	-0.218439	0.145221
H122	H	1.898773	0.281561	0.645221
H123	H	1.352468	0.344103	0.258092
H124	H	1.852468	0.844103	0.758092
Cl125	Cl	1.228479	0.468056	0.386595
Cl126	Cl	1.728479	0.968056	0.886595
Cl127	Cl	1.702507	-0.005634	0.764109
Cl128	Cl	2.202507	0.494366	1.264109
Cl129	Cl	1.788444	-0.091537	0.613344
Cl130	Cl	2.288444	0.408463	1.113344
H131	H	1.750354	-0.053511	0.408773
H132	H	2.250354	0.446489	0.908773
