data_functionalizedCrystal
_audit_creation_method	'MofGen! by Chris Wilmer'
_symmetry_space_group_name_H-M	'P1'
_symmetry_Int_Tables_number	1
_symmetry_cell_setting	triclinic
loop_
_symmetry_equiv_pos_as_xyz
  x,y,z
_cell_length_a	12.759401
_cell_length_b	12.759400
_cell_length_c	12.759393
_cell_angle_alpha	89.969553
_cell_angle_beta	89.978838
_cell_angle_gamma	90.014898
loop_
_atom_site_label
_atom_site_type_symbol
_atom_site_fract_x
_atom_site_fract_y
_atom_site_fract_z
Zn1	Zn	1.606267	-0.418156	-0.594064
Zn2	Zn	1.606166	-0.593875	-0.418388
Zn3	Zn	1.430569	-0.418216	-0.418396
Zn4	Zn	1.430562	-0.593799	-0.594021
O5	O	1.518391	-0.506011	-0.506217
O6	O	1.753274	-0.441472	-0.570775
O7	O	1.582833	-0.570630	-0.271368
O8	O	1.453920	-0.271187	-0.441720
O9	O	1.753200	-0.570572	-0.441707
O10	O	1.583005	-0.271143	-0.570783
O11	O	1.453822	-0.441574	-0.271373
O12	O	1.283547	-0.441500	-0.441678
O13	O	1.453909	-0.570442	-0.741048
O14	O	1.283542	-0.570500	-0.570709
O15	O	1.582998	-0.441398	-0.741080
O16	O	1.582826	-0.740886	-0.441665
O17	O	1.453811	-0.740830	-0.570702
C18	C	1.245423	-0.505999	-0.506190
C19	C	1.128647	-0.506019	-0.506204
C20	C	0.964085	-0.573291	-0.573320
C21	C	1.073809	-0.573289	-0.573292
C22	C	1.073755	-0.438754	-0.439133
C23	C	0.964033	-0.438762	-0.439157
C24	C	0.964117	-0.650961	-0.650779
C25	C	1.073841	-0.650959	-0.650750
C26	C	1.518336	-0.778978	-0.506201
C27	C	1.518408	-0.895755	-0.506229
C28	C	1.585589	-0.950514	-0.573487
C29	C	1.585638	-1.060239	-0.573512
C30	C	1.451322	-1.060434	-0.439013
C31	C	1.451269	-0.950712	-0.438993
C32	C	1.652728	-0.895558	-0.640722
C33	C	1.719915	-0.950317	-0.707985
C34	C	1.719964	-1.060041	-0.708011
C35	C	1.652826	-1.115006	-0.640774
C36	C	1.792424	-0.506024	-0.506245
C37	C	1.909201	-0.506029	-0.506257
C38	C	1.518464	-0.505905	-0.780251
C39	C	1.518496	-0.505860	-0.897027
C40	C	1.518475	-0.231978	-0.506257
C41	C	1.518510	-0.115201	-0.506274
C42	C	1.585722	-0.438660	-0.951908
C43	C	1.585747	-0.438622	-1.061632
C44	C	1.451316	-0.572993	-1.061586
C45	C	1.451287	-0.573025	-0.951864
C46	C	1.663337	-0.361086	-0.951935
C47	C	1.663362	-0.361048	-1.061659
C48	C	1.518378	-0.506041	-0.233250
C49	C	1.518550	-0.505790	-0.116474
H50	H	0.934313	-0.732309	-0.628859
H51	H	1.641566	-0.279722	-0.922177
C52	C	1.767716	-0.400492	-0.905948
H53	H	1.764132	-0.399183	-0.831587
H54	H	1.823180	-0.356438	-0.928948
H55	H	1.780216	-0.470187	-0.928925
C56	C	1.624049	-0.256611	-1.107660
H57	H	1.606531	-0.210125	-1.052219
H58	H	1.563798	-0.269071	-1.149555
H59	H	1.677580	-0.226197	-1.149575
C60	C	1.119777	-0.755330	-0.611202
H61	H	1.064308	-0.801814	-0.593615
H62	H	1.161648	-0.742778	-0.550955
H63	H	1.161706	-0.785796	-0.664649
H64	H	0.930136	-0.621906	-0.728129
C65	C	1.793759	-0.889861	-0.781941
H66	H	1.784117	-0.816672	-0.772288
H67	H	1.778358	-0.907800	-0.852523
H68	H	1.864369	-0.907806	-0.766623
C69	C	1.377486	-1.120892	-0.365051
H70	H	1.387147	-1.194082	-0.374689
H71	H	1.306877	-1.102956	-0.380356
H72	H	1.392900	-1.102948	-0.294468
H73	H	1.744734	-0.382838	-1.091442
H74	H	1.396563	-0.906126	-0.384226
H75	H	1.103673	-0.629253	-0.732150
C76	C	1.377332	-0.646933	-0.891494
H77	H	1.386931	-0.637327	-0.818293
H78	H	1.392678	-0.717521	-0.909459
H79	H	1.306750	-0.631529	-0.909474
C80	C	0.903663	-0.364781	-0.365381
H81	H	0.952036	-0.324714	-0.325424
H82	H	0.860825	-0.404923	-0.319550
H83	H	0.860895	-0.319045	-0.405659
C84	C	1.377401	-0.646876	-1.121909
H85	H	1.387050	-0.637238	-1.195116
H86	H	1.306811	-0.631505	-1.103922
H87	H	1.392760	-0.717476	-1.103913
H88	H	1.118413	-0.383989	-0.384502
C89	C	1.652672	-0.774865	-0.640695
H90	H	1.603049	-0.750123	-0.591004
H91	H	1.634464	-0.750003	-0.708472
H92	H	1.720471	-0.750012	-0.622568
C93	C	1.793861	-1.120279	-0.781995
H94	H	1.784272	-1.193497	-0.772387
H95	H	1.864449	-1.102257	-0.766675
H96	H	1.778437	-1.102255	-0.852572
C97	C	1.652835	-1.235700	-0.640848
H98	H	1.702450	-1.260443	-0.690546
H99	H	1.585025	-1.260512	-0.658971
H100	H	1.671045	-1.260602	-0.573081
