data_functionalizedCrystal
_audit_creation_method	'MofGen! by Chris Wilmer'
_symmetry_space_group_name_H-M	'P1'
_symmetry_Int_Tables_number	1
_symmetry_cell_setting	triclinic
loop_
_symmetry_equiv_pos_as_xyz
  x,y,z
_cell_length_a	17.699083
_cell_length_b	8.965430
_cell_length_c	17.699083
_cell_angle_alpha	90.000469
_cell_angle_beta	83.283015
_cell_angle_gamma	89.997769
loop_
_atom_site_label
_atom_site_type_symbol
_atom_site_fract_x
_atom_site_fract_y
_atom_site_fract_z
O1	O	1.004076	0.123833	0.095706
O2	O	1.504076	0.623833	0.595706
O3	O	0.783697	0.123882	0.108158
O4	O	1.283697	0.623882	0.608158
O5	O	0.900113	0.123843	-0.008257
O6	O	1.400113	0.623843	0.491743
O7	O	0.887660	0.123872	0.212121
O8	O	1.387660	0.623872	0.712121
O9	O	0.900103	-0.124236	-0.008250
O10	O	1.400103	0.375764	0.491750
O11	O	0.783687	-0.124196	0.108166
O12	O	1.283687	0.375804	0.608166
O13	O	1.004066	-0.124246	0.095713
O14	O	1.504066	0.375754	0.595713
Cu15	Cu	0.893876	-0.146873	0.101940
Cu16	Cu	1.393876	0.353127	0.601940
Cu17	Cu	0.893887	0.146509	0.101931
Cu18	Cu	1.393887	0.646509	0.601931
O19	O	0.887650	-0.124206	0.212129
O20	O	1.387650	0.375794	0.712129
C21	C	0.755495	-0.000151	0.107716
C22	C	1.255495	0.499849	0.607716
C23	C	0.671477	-0.000132	0.106377
C24	C	1.171477	0.499868	0.606377
C25	C	0.622856	-0.000124	0.174710
C26	C	1.122856	0.499876	0.674710
C27	C	0.543913	-0.000143	0.173448
C28	C	1.043913	0.499857	0.673448
C29	C	0.513592	-0.000161	0.103852
C30	C	1.013592	0.499839	0.603852
C31	C	0.562219	-0.000174	0.035513
C32	C	1.062219	0.499826	0.535513
C33	C	0.641161	-0.000165	0.036776
C34	C	1.141161	0.499835	0.536776
C35	C	0.243856	-0.000211	0.030418
C36	C	0.743856	0.499789	0.530418
C37	C	0.164908	-0.000216	0.029160
C38	C	0.664908	0.499784	0.529160
C39	C	0.146608	-0.000190	0.167090
C40	C	0.646608	0.499810	0.667090
C41	C	0.225550	-0.000181	0.168353
C42	C	0.725550	0.499819	0.668353
C43	C	0.274170	-0.000202	0.100015
C44	C	0.774170	0.499798	0.600015
C45	C	0.359769	-0.000183	0.101384
C46	C	0.859769	0.499817	0.601384
C47	C	0.427995	-0.000168	0.102481
C48	C	0.927995	0.499832	0.602481
N49	N	0.893873	-0.353222	0.101946
N50	N	1.393873	0.146778	0.601946
C51	C	0.840018	-0.450509	0.155767
C52	C	1.340018	0.049491	0.655767
C53	C	0.908385	-0.549937	0.170327
C54	C	1.408385	-0.049937	0.670327
C55	C	0.825535	-0.549922	0.087392
C56	C	1.325535	-0.049922	0.587392
C57	C	0.962274	-0.450460	0.116541
C58	C	1.462274	0.049540	0.616541
C59	C	0.879379	-0.450437	0.033576
C60	C	1.379379	0.049563	0.533576
C61	C	0.947796	-0.549819	0.048107
C62	C	1.447796	-0.049819	0.548107
C63	C	1.032268	-0.000209	0.096156
C64	C	1.532268	0.499791	0.596156
C65	C	1.116286	-0.000218	0.097494
C66	C	1.616286	0.499782	0.597494
C67	C	0.899662	-0.000196	-0.036451
C68	C	1.399662	0.499804	0.463549
C69	C	0.898323	-0.000197	-0.120469
C70	C	1.398323	0.499803	0.379531
N71	N	0.893896	0.352858	0.101919
N72	N	1.393896	0.852858	0.601919
C73	C	0.966656	-0.000214	-0.169090
C74	C	1.466656	0.499786	0.330910
C75	C	0.965394	-0.000200	-0.248033
C76	C	1.465394	0.499800	0.251967
C77	C	0.895798	-0.000180	-0.278354
C78	C	1.395798	0.499820	0.221646
C79	C	0.827459	-0.000158	-0.229727
C80	C	1.327459	0.499842	0.270273
C81	C	0.828722	-0.000161	-0.150785
C82	C	1.328722	0.499839	0.349215
C83	C	0.822364	-0.000145	-0.548090
C84	C	1.322364	0.499855	-0.048090
C85	C	0.821106	-0.000147	-0.627038
C86	C	1.321106	0.499853	-0.127038
C87	C	0.959036	-0.000184	-0.645338
C88	C	1.459036	0.499816	-0.145338
C89	C	0.960299	-0.000187	-0.566396
C90	C	1.460299	0.499813	-0.066396
C91	C	0.891961	-0.000157	-0.517776
C92	C	1.391961	0.499843	-0.017776
C93	C	0.893330	-0.000169	-0.432177
C94	C	1.393330	0.499831	0.067823
C95	C	0.894427	-0.000179	-0.363951
C96	C	1.394427	0.499821	0.136049
C97	C	0.888102	-0.000164	0.240322
C98	C	1.388102	0.499836	0.740322
C99	C	0.889440	-0.000154	0.324340
C100	C	1.389440	0.499846	0.824340
H101	H	0.140225	-0.000232	-0.027517
H102	H	0.640225	0.499768	0.472483
N103	N	0.296281	-0.000212	-0.043293
N104	N	0.796281	0.499788	0.456707
H105	H	0.329438	0.091753	-0.045849
H106	H	0.829438	0.591753	0.454151
H107	H	0.329396	-0.092234	-0.045806
H108	H	0.829396	0.407766	0.454194
H109	H	0.537526	-0.000209	-0.021154
H110	H	1.037526	0.499791	0.478846
H111	H	1.014680	-0.000201	-0.684934
H112	H	1.514680	0.499799	-0.184934
H113	H	0.920660	-0.593641	0.228135
H114	H	1.420660	-0.093641	0.728135
H115	H	0.250232	-0.000160	0.225025
H116	H	0.750232	0.499840	0.725025
H117	H	0.764429	-0.000133	-0.651721
H118	H	1.264429	0.499867	-0.151721
N119	N	0.748660	-0.000119	-0.495655
N120	N	1.248660	0.499881	0.004345
H121	H	0.704382	-0.000114	-0.526845
H122	H	1.204382	0.499886	-0.026845
H123	H	0.746175	-0.092084	-0.462503
H124	H	1.246175	0.407916	0.037497
H125	H	1.023330	-0.000240	-0.144409
H126	H	1.523330	0.499760	0.355591
H127	H	0.504328	-0.000135	0.229092
H128	H	1.004328	0.499865	0.729092
H129	H	0.647537	-0.000109	0.231384
H130	H	1.147537	0.499891	0.731384
H131	H	0.680748	-0.000171	-0.018868
H132	H	1.180748	0.499829	0.481132
N133	N	0.752393	-0.000127	-0.262425
N134	N	1.252393	0.499873	0.237575
H135	H	0.761960	-0.000133	-0.319812
H136	H	1.261960	0.499867	0.180188
H137	H	0.722493	-0.092085	-0.244628
H138	H	1.222493	0.407915	0.255372
N139	N	1.008194	-0.607245	-0.012198
N140	N	1.508194	-0.107245	0.487802
H141	H	0.997701	-0.569447	-0.063708
H142	H	1.497701	-0.069447	0.436292
H143	H	1.059745	-0.570856	-0.001047
H144	H	1.559745	-0.070856	0.498953
N145	N	0.779739	-0.392754	0.216102
N146	N	1.279739	0.107246	0.716102
H147	H	0.790799	-0.428955	0.267719
H148	H	1.290799	0.071045	0.767719
H149	H	0.779855	-0.280114	0.215302
H150	H	1.279855	0.219886	0.715302
N151	N	0.755025	-0.000173	-0.098333
N152	N	1.255025	0.499827	0.401667
H153	H	0.752476	0.091785	-0.065169
H154	H	1.252476	0.591785	0.434831
H155	H	0.710781	-0.000227	-0.129565
H156	H	1.210781	0.499773	0.370435
N157	N	0.748969	-0.607784	0.071099
N158	N	1.248969	-0.107784	0.571099
H159	H	0.737593	-0.570036	0.019864
H160	H	1.237593	-0.070036	0.519864
H161	H	0.749742	-0.720423	0.070761
H162	H	1.249742	-0.220423	0.570761
H163	H	0.867083	-0.406698	-0.024214
H164	H	1.367083	0.093302	0.475786
H165	H	1.021038	-0.000218	-0.287618
H166	H	1.521038	0.499782	0.212382
N167	N	1.038857	-0.392838	0.132920
N168	N	1.538857	0.107162	0.632920
H169	H	1.032345	-0.330131	0.180647
H170	H	1.532345	0.169869	0.680647
H171	H	1.073513	-0.479827	0.140269
H172	H	1.573513	0.020173	0.640269
N173	N	0.094168	-0.000172	0.240801
N174	N	0.594168	0.499828	0.740801
H175	H	0.039557	-0.000185	0.229445
H176	H	0.539557	0.499815	0.729445
H177	H	0.103976	-0.092126	0.271144
H178	H	0.603976	0.407874	0.771144
N179	N	1.035363	-0.000221	-0.533692
N180	N	1.535363	0.499779	-0.033692
H181	H	1.078462	-0.000228	-0.576473
H182	H	1.578462	0.499772	-0.076473
H183	H	1.038894	0.091743	-0.501337
H184	H	1.538894	0.591743	-0.001337
