data_functionalizedCrystal
_audit_creation_method	'MofGen! by Chris Wilmer'
_symmetry_space_group_name_H-M	'P1'
_symmetry_Int_Tables_number	1
_symmetry_cell_setting	triclinic
loop_
_symmetry_equiv_pos_as_xyz
  x,y,z
_cell_length_a	16.625546
_cell_length_b	17.639398
_cell_length_c	17.640968
_cell_angle_alpha	109.641224
_cell_angle_beta	101.233484
_cell_angle_gamma	101.230150
loop_
_atom_site_label
_atom_site_type_symbol
_atom_site_fract_x
_atom_site_fract_y
_atom_site_fract_z
Zn1	Zn	0.107096	1.354318	0.720752
Zn2	Zn	-0.061948	1.326347	0.582907
Zn3	Zn	0.038708	1.188615	0.555079
Zn4	Zn	-0.061905	1.216443	0.692830
O5	O	0.005488	1.271431	0.637892
O6	O	0.113275	1.465951	0.725798
O7	O	-0.077234	1.284725	0.463878
O8	O	0.160633	1.210655	0.577095
O9	O	-0.010921	1.445401	0.624524
O10	O	0.210877	1.332397	0.698814
O11	O	-0.003282	1.183533	0.443432
O12	O	-0.003241	1.076963	0.550021
O13	O	-0.010848	1.258084	0.811872
O14	O	-0.077162	1.097408	0.651226
O15	O	0.113316	1.359380	0.832386
O16	O	-0.174795	1.311709	0.597449
O17	O	-0.174764	1.230962	0.678209
C18	C	-0.047618	1.057278	0.594574
C19	C	-0.070352	0.965667	0.576062
C20	C	-0.204031	1.271346	0.637842
C21	C	-0.293638	1.271390	0.637863
C22	C	0.058867	1.314956	0.852871
C23	C	0.081614	1.333504	0.944482
C24	C	-0.621757	1.271551	0.637978
C25	C	-0.530465	1.271504	0.637948
C26	C	-0.457701	1.271470	0.637920
C27	C	-0.366402	1.271425	0.637891
C28	C	0.215835	1.271542	0.637965
C29	C	0.305472	1.271590	0.637996
C30	C	0.058801	1.486419	0.681379
C31	C	0.081520	1.578034	0.699911
C32	C	-0.167045	1.825848	0.497215
C33	C	-0.145678	1.911937	0.514640
C34	C	-0.016364	1.933324	0.620087
C35	C	-0.037722	1.847235	0.602675
C36	C	-0.113063	1.793504	0.541237
C37	C	0.016260	1.814891	0.646696
C38	C	-0.005095	1.728810	0.629281
C39	C	-0.080431	1.675073	0.567845
C40	C	-0.134418	1.707423	0.523822
C41	C	0.091604	1.868623	0.708129
C42	C	0.145586	1.836279	0.752151
C43	C	0.124229	1.750197	0.734741
C44	C	0.048892	1.696460	0.673304
C45	C	0.178215	1.717847	0.778764
C46	C	0.156861	1.631766	0.761349
C47	C	0.027538	1.610379	0.655890
C48	C	-0.047614	1.228122	0.423759
C49	C	-0.070094	1.209733	0.332181
C50	C	-0.166802	1.130839	1.192384
C51	C	-0.145413	1.148286	1.278470
C52	C	-0.016132	1.253757	1.299819
C53	C	-0.037508	1.236317	1.213732
C54	C	-0.112845	1.174858	1.160021
C55	C	0.016450	1.280335	1.181369
C56	C	-0.004927	1.262899	1.095291
C57	C	-0.080261	1.201445	1.041575
C58	C	-0.134221	1.157422	1.073942
C59	C	0.091784	1.341798	1.235083
C60	C	0.145742	1.385816	1.202720
C61	C	0.124368	1.368376	1.116639
C62	C	0.049033	1.306922	1.062923
C63	C	0.178328	1.412399	1.084272
C64	C	0.156951	1.394963	0.998193
C65	C	0.027657	1.289486	0.976845
H66	H	-0.033818	1.566628	0.605868
H67	H	-0.097807	1.604978	0.553655
H68	H	0.045206	1.303799	1.343562
C69	C	-0.103776	1.182264	0.946885
N70	N	-0.121486	1.167816	0.875564
H71	H	0.200890	1.430806	0.971843
H72	H	0.109185	1.355994	1.305173
C73	C	-0.217302	1.648314	0.456243
N74	N	-0.279727	1.603794	0.405344
H75	H	-0.228135	1.080774	1.148645
H76	H	0.108990	1.938715	0.722303
H77	H	-0.195554	1.107356	1.030203
H78	H	-0.228401	1.782098	0.447194
C79	C	0.228459	1.895392	0.819730
N80	N	0.290880	1.939916	0.870633
H81	H	0.239663	1.462444	1.128017
C82	C	0.066510	1.992437	0.687666
N83	N	0.128930	2.036961	0.738569
C84	C	-0.205072	1.947512	0.466211
N85	N	-0.249807	1.974307	0.429735
C86	C	0.261093	1.776961	0.846337
N87	N	0.323517	1.821486	0.897233
C88	C	0.216242	1.596186	0.809778
N89	N	0.260970	1.569386	0.846254
H90	H	0.207079	1.435858	1.246463
H91	H	-0.033676	1.239420	0.933106
C92	C	-0.204776	1.099854	1.314064
N93	N	-0.249488	1.063377	1.340873
