data_functionalizedCrystal
_audit_creation_method	'MofGen! by Chris Wilmer'
_symmetry_space_group_name_H-M	'P1'
_symmetry_Int_Tables_number	1
_symmetry_cell_setting	triclinic
loop_
_symmetry_equiv_pos_as_xyz
  x,y,z
_cell_length_a	18.215407
_cell_length_b	18.050590
_cell_length_c	18.215399
_cell_angle_alpha	89.968856
_cell_angle_beta	89.983176
_cell_angle_gamma	90.019000
loop_
_atom_site_label
_atom_site_type_symbol
_atom_site_fract_x
_atom_site_fract_y
_atom_site_fract_z
Zn1	Zn	1.125082	-0.295641	-0.416112
Zn2	Zn	1.375082	-0.045641	-0.166112
Zn3	Zn	1.625082	0.204359	0.083888
Zn4	Zn	1.875082	0.454359	0.333888
Zn5	Zn	1.125011	-0.419841	-0.293044
Zn6	Zn	1.375011	-0.169841	-0.043044
Zn7	Zn	1.625011	0.080159	0.206956
Zn8	Zn	1.875011	0.330159	0.456956
Zn9	Zn	1.002022	-0.295670	-0.293059
Zn10	Zn	1.252022	-0.045670	-0.043059
Zn11	Zn	1.502022	0.204330	0.206941
Zn12	Zn	1.752022	0.454330	0.456941
Zn13	Zn	1.001995	-0.419794	-0.416069
Zn14	Zn	1.251995	-0.169794	-0.166069
Zn15	Zn	1.501995	0.080206	0.083931
Zn16	Zn	1.751995	0.330206	0.333931
O17	O	1.063527	-0.357736	-0.354571
O18	O	1.313527	-0.107736	-0.104571
O19	O	1.563527	0.142264	0.145429
O20	O	1.813527	0.392264	0.395429
O21	O	1.228057	-0.312123	-0.399798
O22	O	1.478057	-0.062123	-0.149798
O23	O	1.728057	0.187877	0.100202
O24	O	1.978057	0.437877	0.350202
O25	O	1.108677	-0.403401	-0.190062
O26	O	1.358677	-0.153401	0.059938
O27	O	1.608677	0.096599	0.309938
O28	O	1.858677	0.346599	0.559938
O29	O	1.018387	-0.191742	-0.309407
O30	O	1.268387	0.058258	-0.059407
O31	O	1.518387	0.308258	0.190593
O32	O	1.768387	0.558258	0.440593
O33	O	1.228005	-0.403372	-0.309381
O34	O	1.478005	-0.153372	-0.059381
O35	O	1.728005	0.096628	0.190619
O36	O	1.978005	0.346628	0.440619
O37	O	1.108799	-0.191720	-0.399813
O38	O	1.358799	0.058280	-0.149813
O39	O	1.608799	0.308280	0.100187
O40	O	1.858799	0.558280	0.350187
O41	O	1.018318	-0.312173	-0.190073
O42	O	1.268318	-0.062173	0.059927
O43	O	1.518318	0.187827	0.309927
O44	O	1.768318	0.437827	0.559927
O45	O	0.899034	-0.312128	-0.309365
O46	O	1.149034	-0.062128	-0.059365
O47	O	1.399034	0.187872	0.190635
O48	O	1.649034	0.437872	0.440635
O49	O	1.018341	-0.403293	-0.519059
O50	O	1.268341	-0.153293	-0.269059
O51	O	1.518341	0.096707	-0.019059
O52	O	1.768341	0.346707	0.230941
O53	O	0.899014	-0.403322	-0.399740
O54	O	1.149014	-0.153322	-0.149740
O55	O	1.399014	0.096678	0.100260
O56	O	1.649014	0.346678	0.350260
O57	O	1.108773	-0.312078	-0.519090
O58	O	1.358773	-0.062078	-0.269090
O59	O	1.608773	0.187922	-0.019090
O60	O	1.858773	0.437922	0.230910
O61	O	1.108651	-0.523759	-0.309339
O62	O	1.358651	-0.273759	-0.059339
O63	O	1.608651	-0.023759	0.190661
O64	O	1.858651	0.226241	0.440661
O65	O	1.018272	-0.523725	-0.399725
O66	O	1.268272	-0.273725	-0.149725
O67	O	1.518272	-0.023725	0.100275
O68	O	1.768272	0.226275	0.350275
C69	C	0.872321	-0.357724	-0.354550
C70	C	1.122321	-0.107724	-0.104550
C71	C	1.372321	0.142276	0.145450
C72	C	1.622321	0.392276	0.395450
C73	C	0.790522	-0.357736	-0.354558
C74	C	1.040522	-0.107736	-0.104558
C75	C	1.290522	0.142264	0.145442
C76	C	1.540522	0.392264	0.395442
C77	C	0.602337	-0.405295	-0.401557
C78	C	0.852337	-0.155295	-0.151557
C79	C	1.102337	0.094705	0.098443
C80	C	1.352337	0.344705	0.348443
C81	C	0.525478	-0.405298	-0.401566
C82	C	0.775478	-0.155298	-0.151566
C83	C	1.025478	0.094702	0.098434
C84	C	1.275478	0.344702	0.348434
C85	C	0.525470	-0.310191	-0.307601
C86	C	0.775470	-0.060191	-0.057601
C87	C	1.025470	0.189809	0.192399
C88	C	1.275470	0.439809	0.442399
C89	C	0.602327	-0.310185	-0.307596
C90	C	0.852327	-0.060185	-0.057596
C91	C	1.102327	0.189815	0.192404
C92	C	1.352327	0.439815	0.442404
C93	C	0.640759	-0.357742	-0.354573
C94	C	0.890759	-0.107742	-0.104573
C95	C	1.140759	0.142258	0.145427
C96	C	1.390759	0.392258	0.395427
C97	C	0.487043	-0.357750	-0.354587
C98	C	0.737043	-0.107750	-0.104587
C99	C	0.987043	0.142250	0.145413
C100	C	1.237043	0.392250	0.395413
C101	C	0.403709	-0.357752	-0.354597
C102	C	0.653709	-0.107752	-0.104597
C103	C	0.903709	0.142248	0.145403
C104	C	1.153709	0.392248	0.395403
C105	C	0.724098	-0.357739	-0.354565
C106	C	0.974098	-0.107739	-0.104565
C107	C	1.224098	0.142261	0.145435
C108	C	1.474098	0.392261	0.395435
C109	C	1.063471	-0.550689	-0.354542
C110	C	1.313471	-0.300689	-0.104542
C111	C	1.563471	-0.050689	0.145458
C112	C	1.813471	0.199311	0.395458
C113	C	1.063514	-0.633234	-0.354554
C114	C	1.313514	-0.383234	-0.104554
C115	C	1.563514	-0.133234	0.145446
C116	C	1.813514	0.116766	0.395446
C117	C	1.112765	-0.832676	-0.305470
C118	C	1.362765	-0.582676	-0.055470
C119	C	1.612765	-0.332676	0.194530
C120	C	1.862765	-0.082676	0.444530
C121	C	1.130738	-0.882006	-0.372637
C122	C	1.380738	-0.632006	-0.122637
C123	C	1.630738	-0.382006	0.127363
C124	C	1.880738	-0.132006	0.377363
C125	C	1.063556	-0.784365	-0.354583
C126	C	1.313556	-0.534365	-0.104583
C127	C	1.563556	-0.284365	0.145417
C128	C	1.813556	-0.034365	0.395417
C129	C	1.045657	-0.882117	-0.287446
C130	C	1.295657	-0.632117	-0.037446
C131	C	1.545657	-0.382117	0.212554
C132	C	1.795657	-0.132117	0.462554
C133	C	1.063597	-0.930350	-0.354605
C134	C	1.313597	-0.680350	-0.104605
C135	C	1.563597	-0.430350	0.145395
C136	C	1.813597	-0.180350	0.395395
C137	C	1.081564	-0.832607	-0.421785
C138	C	1.331564	-0.582607	-0.171785
C139	C	1.581564	-0.332607	0.078215
C140	C	1.831564	-0.082607	0.328215
C141	C	0.996451	-0.832714	-0.336549
C142	C	1.246451	-0.582714	-0.086549
C143	C	1.496451	-0.332714	0.163451
C144	C	1.746451	-0.082714	0.413451
C145	C	1.014399	-0.882020	-0.403762
C146	C	1.264399	-0.632020	-0.153762
C147	C	1.514399	-0.382020	0.096238
C148	C	1.764399	-0.132020	0.346238
C149	C	1.063534	-0.700266	-0.354569
C150	C	1.313534	-0.450266	-0.104569
C151	C	1.563534	-0.200266	0.145431
C152	C	1.813534	0.049734	0.395431
C153	C	1.063619	-1.014446	-0.354627
C154	C	1.313619	-0.764446	-0.104627
C155	C	1.563619	-0.514446	0.145373
C156	C	1.813619	-0.264446	0.395373
C157	C	1.255480	-0.357750	-0.354593
C158	C	1.505480	-0.107750	-0.104593
C159	C	1.755480	0.142250	0.145407
C160	C	2.005480	0.392250	0.395407
C161	C	1.337279	-0.357755	-0.354602
C162	C	1.587279	-0.107755	-0.104602
C163	C	1.837279	0.142245	0.145398
C164	C	2.087279	0.392245	0.395398
C165	C	1.063562	-0.357677	-0.546524
C166	C	1.313562	-0.107677	-0.296524
C167	C	1.563562	0.142323	-0.046524
C168	C	1.813562	0.392323	0.203476
C169	C	1.063577	-0.357652	-0.628323
C170	C	1.313577	-0.107652	-0.378323
C171	C	1.563577	0.142348	-0.128323
C172	C	1.813577	0.392348	0.121677
C173	C	1.063604	-0.164031	-0.354616
C174	C	1.313604	0.085969	-0.104616
C175	C	1.563604	0.335969	0.145384
C176	C	1.813604	0.585969	0.395384
C177	C	1.063637	-0.081485	-0.354636
C178	C	1.313637	0.168515	-0.104636
C179	C	1.563637	0.418515	0.145364
C180	C	1.813637	0.668515	0.395364
C181	C	1.016566	-0.310117	-0.816524
C182	C	1.266566	-0.060117	-0.566524
C183	C	1.516566	0.189883	-0.316524
C184	C	1.766566	0.439883	-0.066524
C185	C	1.016579	-0.310102	-0.893382
C186	C	1.266579	-0.060102	-0.643382
C187	C	1.516579	0.189898	-0.393382
C188	C	1.766579	0.439898	-0.143382
C189	C	1.110676	-0.405097	-0.893360
C190	C	1.360676	-0.155097	-0.643360
C191	C	1.610676	0.094903	-0.393360
C192	C	1.860676	0.344903	-0.143360
C193	C	1.110658	-0.405116	-0.816503
C194	C	1.360658	-0.155116	-0.566503
C195	C	1.610658	0.094884	-0.316503
C196	C	1.860658	0.344884	-0.066503
C197	C	1.063605	-0.357621	-0.778086
C198	C	1.313605	-0.107621	-0.528086
C199	C	1.563605	0.142379	-0.278086
C200	C	1.813605	0.392379	-0.028086
C201	C	1.063635	-0.357588	-0.931803
C202	C	1.313635	-0.107588	-0.681803
C203	C	1.563635	0.142412	-0.431803
C204	C	1.813635	0.392412	-0.181803
C205	C	1.063649	-0.357572	-1.015136
C206	C	1.313649	-0.107572	-0.765136
C207	C	1.563649	0.142428	-0.515136
C208	C	1.813649	0.392428	-0.265136
C209	C	1.063590	-0.357638	-0.694747
C210	C	1.313590	-0.107638	-0.444747
C211	C	1.563590	0.142362	-0.194747
C212	C	1.813590	0.392362	0.055253
C213	C	1.063535	-0.357742	-0.163365
C214	C	1.313535	-0.107742	0.086635
C215	C	1.563535	0.142258	0.336635
C216	C	1.813535	0.392258	0.586635
C217	C	1.063663	-0.357558	-0.081566
C218	C	1.313663	-0.107558	0.168434
C219	C	1.563663	0.142442	0.418434
C220	C	1.813663	0.392442	0.668434
H221	H	1.154393	-0.811010	-0.263980
H222	H	1.404393	-0.561010	-0.013980
H223	H	1.654393	-0.311010	0.236020
H224	H	1.904393	-0.061010	0.486020
H225	H	0.978252	-0.271445	-0.785247
H226	H	1.228252	-0.021445	-0.535247
H227	H	1.478252	0.228555	-0.285247
H228	H	1.728252	0.478555	-0.035247
H229	H	1.187505	-0.903660	-0.387905
H230	H	1.437505	-0.653660	-0.137905
H231	H	1.687505	-0.403660	0.112095
H232	H	1.937505	-0.153660	0.362095
Cl233	Cl	0.477180	-0.465080	-0.460637
Cl234	Cl	0.727180	-0.215080	-0.210637
Cl235	Cl	0.977180	0.034920	0.039363
Cl236	Cl	1.227180	0.284920	0.289363
Cl237	Cl	0.650632	-0.250394	-0.248530
Cl238	Cl	0.900632	-0.000394	0.001470
Cl239	Cl	1.150632	0.249606	0.251470
Cl240	Cl	1.400632	0.499606	0.501470
H241	H	1.096663	-0.810952	-0.478620
H242	H	1.346663	-0.560952	-0.228620
H243	H	1.596663	-0.310952	0.021380
H244	H	1.846663	-0.060952	0.271380
H245	H	0.978275	-0.271421	-0.924675
H246	H	1.228275	-0.021421	-0.674675
H247	H	1.478275	0.228579	-0.424675
H248	H	1.728275	0.478579	-0.174675
H249	H	1.148985	-0.443765	-0.924648
H250	H	1.398985	-0.193765	-0.674648
H251	H	1.648985	0.056235	-0.424648
H252	H	1.898985	0.306235	-0.174648
H253	H	1.148965	-0.443802	-0.785206
H254	H	1.398965	-0.193802	-0.535206
H255	H	1.648965	0.056198	-0.285206
H256	H	1.898965	0.306198	-0.035206
Cl257	Cl	0.950178	-0.915265	-0.467971
Cl258	Cl	1.200178	-0.665265	-0.217971
Cl259	Cl	1.450178	-0.415265	0.032029
Cl260	Cl	1.700178	-0.165265	0.282029
H261	H	0.633626	-0.444017	-0.439811
H262	H	0.883626	-0.194017	-0.189811
H263	H	1.133626	0.055983	0.060189
H264	H	1.383626	0.305983	0.310189
H265	H	0.494169	-0.271473	-0.269352
H266	H	0.744169	-0.021473	-0.019352
H267	H	0.994169	0.228527	0.230648
H268	H	1.244169	0.478527	0.480648
H269	H	1.030501	-0.903864	-0.230660
H270	H	1.280501	-0.653864	0.019340
H271	H	1.530501	-0.403864	0.269340
H272	H	1.780501	-0.153864	0.519340
H273	H	0.939701	-0.811044	-0.321261
H274	H	1.189701	-0.561044	-0.071261
H275	H	1.439701	-0.311044	0.178739
H276	H	1.689701	-0.061044	0.428739
