data_functionalizedCrystal
_audit_creation_method	'MofGen! by Chris Wilmer'
_symmetry_space_group_name_H-M	'P1'
_symmetry_Int_Tables_number	1
_symmetry_cell_setting	triclinic
loop_
_symmetry_equiv_pos_as_xyz
  x,y,z
_cell_length_a	10.654545
_cell_length_b	9.065215
_cell_length_c	9.730223
_cell_angle_alpha	89.996553
_cell_angle_beta	89.997167
_cell_angle_gamma	84.748888
loop_
_atom_site_label
_atom_site_type_symbol
_atom_site_fract_x
_atom_site_fract_y
_atom_site_fract_z
O1	O	1.668661	0.207203	-0.114273
O2	O	2.168661	0.707203	0.385727
O3	O	1.303260	0.226954	-0.114279
O4	O	1.803260	0.726954	0.385721
O5	O	1.493515	0.002394	-0.114270
O6	O	1.993515	0.502394	0.385730
O7	O	1.478406	0.431763	-0.114282
O8	O	1.978406	0.931763	0.385718
O9	O	1.493503	0.002388	0.114310
O10	O	1.993503	0.502388	0.614310
O11	O	1.303248	0.226948	0.114301
O12	O	1.803248	0.726948	0.614301
O13	O	1.668649	0.207197	0.114307
O14	O	2.168649	0.707197	0.614307
Zn15	Zn	1.485946	0.217071	0.150596
Zn16	Zn	1.985946	0.717071	0.650596
Zn17	Zn	1.485963	0.217080	-0.150568
Zn18	Zn	1.985963	0.717080	0.349432
O19	O	1.478394	0.431757	0.114298
O20	O	1.978394	0.931757	0.614298
C21	C	1.256450	0.225502	0.000011
C22	C	1.756450	0.725502	0.500011
C23	C	1.116989	0.221167	0.000009
C24	C	1.616989	0.721167	0.500009
C25	C	1.051470	0.219124	0.124608
C26	C	1.551470	0.719124	0.624608
C27	C	0.920434	0.215026	0.124609
C28	C	1.420434	0.715026	0.624609
C29	C	0.920448	0.215023	-0.124602
C30	C	1.420448	0.715023	0.375398
C31	C	1.051483	0.219110	-0.124601
C32	C	1.551483	0.719110	0.375399
C33	C	1.492058	-0.052587	0.000019
C34	C	1.992058	0.447413	0.500019
C35	C	1.487718	-0.216407	0.000014
C36	C	1.987718	0.283593	0.500014
C37	C	1.715459	0.208649	0.000014
C38	C	2.215459	0.708649	0.500014
C39	C	1.854919	0.212984	0.000007
C40	C	2.354919	0.712984	0.500007
C41	C	1.479851	0.486738	0.000006
C42	C	1.979851	0.986738	0.500006
C43	C	1.484190	0.650558	0.000002
C44	C	1.984190	1.150558	0.500002
N45	N	1.485944	0.217065	0.356132
N46	N	1.985944	0.717065	0.856132
N47	N	1.485974	0.217074	-0.356104
N48	N	1.985974	0.717074	0.143896
C49	C	1.570219	0.117672	0.428062
C50	C	2.070219	0.617672	0.928062
C51	C	1.570231	0.117673	0.571945
C52	C	2.070231	0.617673	1.071945
C53	C	1.401691	0.316472	0.571956
C54	C	1.901691	0.816472	1.071956
C55	C	1.401673	0.316463	0.428076
C56	C	1.901673	0.816463	0.928076
H57	H	0.867094	0.213362	0.226070
H58	H	1.367094	0.713362	0.726070
H59	H	1.333041	0.397401	0.369506
H60	H	1.833041	0.897401	0.869506
H61	H	1.104830	0.220770	-0.226071
H62	H	1.604830	0.720770	0.273929
N63	N	1.661104	0.010468	0.350463
N64	N	2.161104	0.510468	0.850463
H65	H	1.714491	-0.052497	0.417869
H66	H	2.214491	0.447503	0.917869
H67	H	1.612279	-0.055290	0.290783
H68	H	2.112279	0.444710	0.790783
N69	N	1.661144	0.010492	0.649528
N70	N	2.161144	0.510492	1.149528
H71	H	1.714529	-0.052465	0.582115
H72	H	2.214529	0.447535	1.082115
H73	H	1.717300	0.067616	0.709198
H74	H	2.217300	0.567616	1.209198
N75	N	1.310819	0.423682	0.649566
N76	N	1.810819	0.923682	1.149566
H77	H	1.326464	0.528558	0.624507
H78	H	1.826464	1.028558	1.124507
H79	H	1.221525	0.405588	0.624523
H80	H	1.721525	0.905588	1.124523
H81	H	0.867097	0.213349	-0.226054
H82	H	1.367097	0.713349	0.273946
N83	N	1.122127	0.221342	0.259001
N84	N	1.622127	0.721342	0.759001
H85	H	1.060732	0.219424	0.337933
H86	H	1.560732	0.719424	0.837933
H87	H	1.185645	0.131735	0.264436
H88	H	1.685645	0.631735	0.764436
