data_functionalizedCrystal
_audit_creation_method	'MofGen! by Chris Wilmer'
_symmetry_space_group_name_H-M	'P1'
_symmetry_Int_Tables_number	1
_symmetry_cell_setting	triclinic
loop_
_symmetry_equiv_pos_as_xyz
  x,y,z
_cell_length_a	15.944551
_cell_length_b	16.109302
_cell_length_c	15.021413
_cell_angle_alpha	89.993046
_cell_angle_beta	89.990496
_cell_angle_gamma	83.480259
loop_
_atom_site_label
_atom_site_type_symbol
_atom_site_fract_x
_atom_site_fract_y
_atom_site_fract_z
O1	O	0.107975	1.103167	-0.074074
O2	O	0.121410	0.861109	-0.074067
O3	O	-0.007584	0.988748	-0.074063
O4	O	0.236970	0.975528	-0.074078
O5	O	-0.007598	0.988737	0.074001
O6	O	0.121397	0.861098	0.073997
O7	O	0.107962	1.103155	0.073990
Zn8	Zn	0.114677	0.982125	0.097502
Zn9	Zn	0.114695	0.982140	-0.097579
O10	O	0.236956	0.975517	0.073986
C11	C	0.120860	0.830128	-0.000034
C12	C	0.119228	0.737833	-0.000031
C13	C	0.115447	0.525484	0.080670
C14	C	0.113904	0.438764	0.080667
C15	C	0.113923	0.438786	-0.080761
C16	C	0.115459	0.525506	-0.080757
C17	C	0.116226	0.568852	-0.000039
C18	C	0.113147	0.395412	-0.000046
C19	C	0.111474	0.301386	-0.000050
C20	C	0.117896	0.662885	-0.000035
C21	C	-0.038885	0.988193	-0.000030
C22	C	-0.132130	0.986548	-0.000030
C23	C	-0.346960	0.903499	-0.000040
C24	C	-0.407996	0.942059	0.072964
C25	C	-0.302855	0.983571	-0.000037
C26	C	-0.407967	0.942088	-0.073016
C27	C	-0.467767	0.980690	-0.000047
C28	C	-0.362663	1.022153	0.073027
C29	C	-0.362627	1.022172	-0.073018
C30	C	-0.423646	1.060790	0.000003
C31	C	-0.207853	0.985229	-0.000030
C32	C	-0.562767	0.979039	-0.000047
C33	C	0.268257	0.976071	-0.000048
C34	C	0.361502	0.977716	-0.000055
C35	C	0.108513	1.134136	-0.000045
C36	C	0.110145	1.226432	-0.000053
N37	N	0.114665	0.982121	0.230640
N38	N	0.114701	0.982150	-0.230717
C39	C	0.054544	1.040699	0.529633
C40	C	0.130209	1.057513	0.470261
C41	C	0.114690	0.982141	0.587677
C42	C	0.039015	0.965356	0.470307
C43	C	0.114674	0.982133	0.412252
C44	C	0.190393	0.998992	0.529611
C45	C	0.099149	0.906802	0.529662
C46	C	0.174869	0.923585	0.470317
C47	C	0.114699	0.982147	0.688734
C48	C	0.114674	0.982126	0.311197
H49	H	-0.313630	0.837035	0.000035
C50	C	-0.435159	0.896298	0.156343
N51	N	-0.455615	0.861826	0.219141
C52	C	-0.435079	0.896324	-0.156393
N53	N	-0.455496	0.861848	-0.219190
H54	H	-0.342503	1.056015	-0.134742
H55	H	-0.342689	1.055988	0.134814
H56	H	-0.456827	1.127312	0.000043
C57	C	-0.014077	1.107648	0.564830
N58	N	-0.065757	1.158076	0.591344
H59	H	0.143353	1.121222	0.444169
H60	H	0.254399	1.013254	0.555552
C61	C	0.113087	0.391097	-0.169546
N62	N	0.112460	0.355177	-0.236421
H63	H	0.225781	0.874058	0.444437
H64	H	0.116071	0.560774	0.146396
H65	H	0.085982	0.843113	0.555774
C66	C	-0.047434	0.946177	0.435118
N67	N	-0.112549	0.931737	0.408617
H68	H	0.113270	0.403457	0.146388
H69	H	0.116091	0.560818	-0.146484
