data_functionalizedCrystal
_audit_creation_method	'MofGen! by Chris Wilmer'
_symmetry_space_group_name_H-M	'P1'
_symmetry_Int_Tables_number	1
_symmetry_cell_setting	triclinic
loop_
_symmetry_equiv_pos_as_xyz
  x,y,z
_cell_length_a	23.532355
_cell_length_b	23.532407
_cell_length_c	22.610064
_cell_angle_alpha	89.999397
_cell_angle_beta	89.997644
_cell_angle_gamma	82.838088
loop_
_atom_site_label
_atom_site_type_symbol
_atom_site_fract_x
_atom_site_fract_y
_atom_site_fract_z
O1	O	0.755283	0.068986	-0.049110
O2	O	0.589415	0.079020	-0.049130
O3	O	0.677351	-0.008929	-0.049108
O4	O	0.667347	0.156936	-0.049131
O5	O	0.677335	-0.008916	0.049261
O6	O	0.589400	0.079033	0.049239
O7	O	0.755267	0.068999	0.049259
Zn8	Zn	0.672331	0.074018	0.064868
Zn9	Zn	0.672351	0.074001	-0.064738
O10	O	0.667332	0.156949	0.049238
C11	C	0.568191	0.078776	0.000052
C12	C	0.504972	0.078022	0.000045
C13	C	0.112950	0.073291	0.053692
C14	C	0.053550	0.072573	0.053694
O15	O	0.022825	0.072189	0.099296
N16	N	0.023850	0.072211	0.000074
C17	C	0.053554	0.072560	-0.053553
O18	O	0.022837	0.072185	-0.099162
C19	C	0.112953	0.073273	-0.053555
C20	C	0.142649	0.073641	0.000069
C21	C	0.142646	0.073659	0.107312
C22	C	0.202041	0.074377	0.107309
C23	C	0.231740	0.074728	0.053687
C24	C	0.202044	0.074360	0.000067
C25	C	0.142655	0.073618	-0.107181
C26	C	0.202058	0.074331	-0.107178
C27	C	0.231754	0.074699	-0.053554
C28	C	0.291138	0.075429	-0.053558
N29	N	0.320838	0.075792	0.000062
C30	C	0.291139	0.075441	0.053685
C31	C	-0.071188	0.071061	-0.053545
C32	C	-0.130586	0.070351	-0.053544
C33	C	-0.130585	0.070364	0.053703
C34	C	-0.071186	0.071077	0.053702
C35	C	-0.041488	0.071423	0.000075
C36	C	0.415873	0.076951	0.053675
C37	C	0.475273	0.077671	0.053668
C38	C	0.475267	0.077656	-0.053579
C39	C	0.415872	0.076938	-0.053572
C40	C	0.386177	0.076583	0.000060
O41	O	0.321902	0.075812	-0.099137
O42	O	0.321864	0.075809	0.099286
C43	C	0.677088	-0.030139	0.000078
C44	C	0.676322	-0.093356	0.000082
C45	C	0.723557	-0.492468	0.000055
C46	C	0.722845	-0.551868	0.000051
O47	O	0.766632	-0.588620	0.000034
N48	N	0.670568	-0.574484	0.000045
C49	C	0.618998	-0.537697	0.000038
O50	O	0.574467	-0.562388	0.000032
C51	C	0.619710	-0.478298	0.000038
C52	C	0.671991	-0.455685	0.000050
C53	C	0.775834	-0.469854	0.000066
C54	C	0.776545	-0.410458	0.000072
C55	C	0.724979	-0.373676	0.000067
C56	C	0.672703	-0.396289	0.000055
C57	C	0.568141	-0.441512	0.000027
C58	C	0.568858	-0.382110	0.000026
C59	C	0.621139	-0.359497	0.000038
C60	C	0.621848	-0.300110	0.000056
N61	N	0.674126	-0.277494	0.000061
C62	C	0.725691	-0.314277	0.000067
C63	C	0.617507	-0.662439	0.000036
C64	C	0.616794	-0.721837	0.000040
C65	C	0.720642	-0.736004	0.000052
C66	C	0.721354	-0.676605	0.000052
C67	C	0.669784	-0.639823	0.000042
C68	C	0.727181	-0.189540	0.000079
C69	C	0.727888	-0.130138	0.000087
C70	C	0.624041	-0.115977	0.000072
C71	C	0.623334	-0.175373	0.000067
C72	C	0.674909	-0.212154	0.000069
O73	O	0.578084	-0.263323	0.000070
O74	O	0.770216	-0.289577	0.000065
C75	C	0.776491	0.069244	0.000076
C76	C	0.839710	0.069998	0.000079
C77	C	0.667594	0.178158	0.000050
C78	C	0.668360	0.241375	0.000042
N79	N	0.672321	0.074029	0.153320
N80	N	0.672366	0.073986	-0.153191
C81	C	0.711291	0.035063	0.561971
C82	C	0.711294	0.035059	0.623891
O83	O	0.744403	0.001937	0.655917
N84	N	0.672351	0.073990	0.654857
C85	C	0.633399	0.112923	0.623900
O86	O	0.600275	0.146036	0.655926
C87	C	0.633394	0.112924	0.561982
C88	C	0.672343	0.073995	0.531018
C89	C	0.750237	-0.003863	0.531007
C90	C	0.750234	-0.003858	0.469092
C91	C	0.711286	0.035073	0.438139
C92	C	0.672340	0.074000	0.469103
C93	C	0.594439	0.151854	0.531026
C94	C	0.594437	0.151851	0.469103
C95	C	0.633386	0.112922	0.438140
C96	C	0.633390	0.112936	0.376235
N97	N	0.672333	0.074006	0.345268
C98	C	0.711281	0.035074	0.376221
C99	C	0.633412	0.112917	0.753934
C100	C	0.633419	0.112919	0.815852
C101	C	0.711314	0.035055	0.815838
C102	C	0.711309	0.035056	0.753919
C103	C	0.672355	0.073987	0.722968
C104	C	0.711273	0.035088	0.246193
C105	C	0.711269	0.035098	0.184272
C106	C	0.633373	0.112960	0.184292
C107	C	0.633379	0.112953	0.246207
C108	C	0.672331	0.074012	0.277157
O109	O	0.600296	0.146040	0.344169
O110	O	0.744395	0.001962	0.344188
H111	H	-0.154761	0.070060	-0.097211
H112	H	0.769178	-0.219481	0.000078
Br113	Br	0.580545	0.165761	0.711934
Br114	Br	0.798845	-0.099453	0.000104
Br115	Br	0.580525	0.165794	0.288227
H116	H	-0.047012	0.071348	-0.097217
H117	H	0.819117	-0.392053	0.000079
H118	H	0.526863	-0.352164	0.000017
H119	H	0.601709	0.144625	0.841058
Br120	Br	0.375567	0.076449	-0.126348
Br121	Br	0.764172	-0.017781	0.857858
H122	H	-0.047012	0.071378	0.097367
Br123	Br	0.541577	0.204689	0.573035
Br124	Br	0.764134	-0.017736	0.142254
H125	H	0.781948	-0.035559	0.443885
Br126	Br	0.541565	0.204688	0.427102
H127	H	0.118487	0.073317	-0.150848
H128	H	0.601663	0.144660	0.159081
Br129	Br	0.375582	0.076468	0.126462
Br130	Br	0.554062	-0.066047	0.000065
Br131	Br	0.764170	-0.017779	0.711904
Br132	Br	0.764138	-0.017761	0.288186
H133	H	0.226236	0.074613	-0.150848
Br134	Br	0.845825	-0.519763	0.000073
Br135	Br	0.792309	-0.645922	0.000069
Br136	Br	0.102351	0.073185	0.180095
H137	H	0.525569	-0.459912	0.000013
Br138	Br	0.515585	0.078129	-0.126349
H139	H	0.762629	-0.765963	0.000054
Br140	Br	0.242334	0.074875	0.180089
Br141	Br	0.545839	-0.752518	0.000038
Br142	Br	-0.170902	0.069888	0.126478
Br143	Br	0.547513	-0.612526	0.000027
Br144	Br	0.552381	-0.206064	0.000065
H145	H	0.499449	0.077973	0.097337
Br146	Br	0.803101	-0.056707	0.573004
