data_functionalizedCrystal
_audit_creation_method	'MofGen! by Chris Wilmer'
_symmetry_space_group_name_H-M	'P1'
_symmetry_Int_Tables_number	1
_symmetry_cell_setting	triclinic
loop_
_symmetry_equiv_pos_as_xyz
  x,y,z
_cell_length_a	10.723024
_cell_length_b	10.723023
_cell_length_c	9.798715
_cell_angle_alpha	89.997861
_cell_angle_beta	89.996609
_cell_angle_gamma	84.467709
loop_
_atom_site_label
_atom_site_type_symbol
_atom_site_fract_x
_atom_site_fract_y
_atom_site_fract_z
O1	O	1.657187	0.175025	-0.113479
O2	O	1.294034	0.191778	-0.113483
O3	O	1.483988	0.001825	-0.113475
O4	O	1.467233	0.364977	-0.113487
O5	O	1.483974	0.001824	0.113507
O6	O	1.294020	0.191777	0.113499
O7	O	1.657173	0.175024	0.113503
Zn8	Zn	1.475594	0.183401	0.149539
Zn9	Zn	1.475613	0.183401	-0.149519
O10	O	1.467219	0.364977	0.113495
C11	C	1.247528	0.190558	0.000007
C12	C	1.108973	0.186911	0.000006
C13	C	0.917217	0.073603	0.000007
C14	C	1.060420	0.077371	0.000008
C15	C	1.482762	-0.044675	0.000014
C16	C	1.479114	-0.183229	0.000010
C17	C	1.477496	-0.244995	-0.117576
C18	C	1.473726	-0.388198	-0.117583
C19	C	1.703679	0.176243	0.000010
C20	C	1.842234	0.179891	0.000002
C21	C	1.468445	0.411477	0.000003
C22	C	1.472093	0.550031	-0.000002
N23	N	1.475590	0.183399	0.353639
N24	N	1.475626	0.183393	-0.353619
C25	C	1.555347	0.103292	0.421419
C26	C	1.555367	0.103288	0.578582
H27	H	0.875395	-0.020182	0.000030
H28	H	1.477701	-0.236366	0.100673
H29	H	1.623654	0.034709	0.636870
H30	H	1.044548	0.277906	-0.000003
H31	H	1.407318	0.251975	0.411961
C32	C	0.898717	0.306598	-0.000001
C33	C	0.984439	0.340070	0.117865
C34	C	1.040919	0.466782	0.117862
C35	C	1.011676	0.560021	-0.000007
C36	C	0.925950	0.526551	-0.117882
C37	C	0.869471	0.399840	-0.117878
H38	H	1.006090	0.271047	0.205126
H39	H	1.104379	0.491558	0.205121
H40	H	1.053486	0.653821	-0.000009
H41	H	0.904299	0.595575	-0.205143
H42	H	0.806010	0.375064	-0.205138
C43	C	1.147454	-0.045560	0.000013
C44	C	1.240794	-0.074322	0.117881
C45	C	1.327831	-0.197258	0.117886
C46	C	1.321529	-0.291432	0.000023
C47	C	1.228185	-0.262673	-0.117854
C48	C	1.141148	-0.139737	-0.117858
H49	H	1.245462	-0.004606	0.205138
H50	H	1.396930	-0.218546	0.205146
H51	H	1.385959	-0.382437	0.000027
H52	H	1.223517	-0.332389	-0.205111
H53	H	1.072049	-0.118448	-0.205119
H54	H	1.478895	-0.191856	-0.218239
C55	C	1.647579	0.010638	0.342647
C56	C	1.647312	0.010653	0.185491
C57	C	1.739548	-0.082005	0.106724
C58	C	1.832051	-0.174678	0.185113
C59	C	1.832322	-0.174697	0.342278
C60	C	1.740086	-0.082039	0.421045
H61	H	1.578832	0.079259	0.127454
H62	H	1.739347	-0.081991	-0.009621
H63	H	1.900330	-0.243269	0.126805
H64	H	1.900802	-0.243303	0.400314
H65	H	1.740287	-0.082054	0.537389
H66	H	1.407345	0.251984	0.588102
C67	C	1.473973	-0.378231	0.136011
C68	C	1.365325	-0.382776	0.238112
C69	C	1.367206	-0.311028	0.374124
C70	C	1.477733	-0.234735	0.408035
C71	C	1.586389	-0.230187	0.305932
C72	C	1.584509	-0.301935	0.169919
H73	H	1.283499	-0.439255	0.213011
H74	H	1.286771	-0.314395	0.449707
H75	H	1.479125	-0.181622	0.508720
H76	H	1.668216	-0.173707	0.331033
H77	H	1.664943	-0.298568	0.094336
C78	C	1.471846	-0.459944	-0.253590
C79	C	1.577664	-0.562722	-0.287498
C80	C	1.575784	-0.634471	-0.423510
C81	C	1.468086	-0.603441	-0.525614
C82	C	1.362260	-0.500657	-0.491709
C83	C	1.364140	-0.428909	-0.355697
H84	H	1.657396	-0.585697	-0.211912
H85	H	1.654124	-0.710558	-0.448609
H86	H	1.466694	-0.656553	-0.626299
H87	H	1.282528	-0.477683	-0.567294
H88	H	1.285800	-0.352822	-0.330598
