data_functionalizedCrystal
_audit_creation_method	'MofGen! by Chris Wilmer'
_symmetry_space_group_name_H-M	'P1'
_symmetry_Int_Tables_number	1
_symmetry_cell_setting	triclinic
loop_
_symmetry_equiv_pos_as_xyz
  x,y,z
_cell_length_a	12.759401
_cell_length_b	12.594516
_cell_length_c	12.759393
_cell_angle_alpha	90.027799
_cell_angle_beta	90.018734
_cell_angle_gamma	90.016214
loop_
_atom_site_label
_atom_site_type_symbol
_atom_site_fract_x
_atom_site_fract_y
_atom_site_fract_z
Zn1	Zn	1.606248	-0.423689	0.593999
Zn2	Zn	1.606137	-0.601704	0.418327
Zn3	Zn	1.430549	-0.423740	0.418339
Zn4	Zn	1.430534	-0.601626	0.593968
O5	O	1.518367	-0.512690	0.506158
O6	O	1.753254	-0.447314	0.570704
O7	O	1.582805	-0.578151	0.271307
O8	O	1.453908	-0.274788	0.441658
O9	O	1.753173	-0.578101	0.441638
O10	O	1.582994	-0.274750	0.570715
O11	O	1.453801	-0.447402	0.271316
O12	O	1.283526	-0.447326	0.441628
O13	O	1.453883	-0.577968	0.740993
O14	O	1.283515	-0.578018	0.570663
O15	O	1.582979	-0.447238	0.741016
O16	O	1.582791	-0.750639	0.441608
O17	O	1.453776	-0.750582	0.570651
C18	C	1.245400	-0.512670	0.506144
C19	C	1.128623	-0.512687	0.506163
C20	C	1.073783	-0.580848	0.573240
C21	C	0.964059	-0.580861	0.573251
C22	C	0.964025	-0.444551	0.439099
C23	C	1.073747	-0.444533	0.439094
C24	C	1.128659	-0.649002	0.640308
C25	C	1.073819	-0.717169	0.707390
C26	C	0.964095	-0.717182	0.707402
C27	C	0.909211	-0.649029	0.640331
C28	C	1.518298	-0.789231	0.506148
C29	C	1.518365	-0.907536	0.506179
C30	C	1.448187	-0.976797	0.576316
C31	C	1.422587	-1.047665	0.480449
C32	C	1.544061	-1.047467	0.602062
C33	C	1.492715	-0.976846	0.410261
C34	C	1.614232	-0.976642	0.531938
C35	C	1.588669	-1.047478	0.436006
C36	C	1.792401	-0.512710	0.506173
C37	C	1.909177	-0.512719	0.506179
C38	C	1.518442	-0.512589	0.780192
C39	C	1.518474	-0.512546	0.896968
C40	C	1.518465	-0.235069	0.506192
C41	C	1.518507	-0.116763	0.506206
C42	C	1.518353	-0.512714	0.233191
C43	C	1.518525	-0.512457	0.116415
C44	C	1.585723	-0.444413	1.061569
C45	C	1.585700	-0.444460	0.951845
C46	C	1.451273	-0.580596	0.951822
C47	C	1.451302	-0.580554	1.061544
C48	C	1.652946	-0.376316	1.116440
C49	C	1.720148	-0.308266	1.061594
C50	C	1.720125	-0.308313	0.951870
C51	C	1.652900	-0.376410	0.896991
H52	H	1.118399	-0.389023	0.384482
F53	F	0.792432	-0.649039	0.640355
F54	F	1.572392	-1.088019	0.708032
H55	H	1.774851	-0.252911	0.907217
F56	F	1.245437	-0.648996	0.640299
F57	F	0.905610	-0.372025	0.367722
H58	H	1.652896	-0.376451	0.807646
H59	H	1.652969	-0.376267	1.205782
H60	H	1.648077	-1.078317	0.376636
H61	H	1.774885	-0.252831	1.106283
F62	F	0.905733	-0.789721	0.778802
H63	H	1.396541	-0.636036	0.907131
F64	F	1.370481	-0.936228	0.653730
F65	F	1.379782	-0.652973	1.119918
H66	H	1.695221	-0.945425	0.553750
F67	F	1.464263	-0.936471	0.304258
F68	F	1.132231	-0.789692	0.778772
F69	F	1.316700	-1.088439	0.451975
