data_functionalizedCrystal
_audit_creation_method	'MofGen! by Chris Wilmer'
_symmetry_space_group_name_H-M	'P1'
_symmetry_Int_Tables_number	1
_symmetry_cell_setting	triclinic
loop_
_symmetry_equiv_pos_as_xyz
  x,y,z
_cell_length_a	16.109301
_cell_length_b	10.489716
_cell_length_c	15.186229
_cell_angle_alpha	89.996222
_cell_angle_beta	90.002891
_cell_angle_gamma	83.995308
loop_
_atom_site_label
_atom_site_type_symbol
_atom_site_fract_x
_atom_site_fract_y
_atom_site_fract_z
O1	O	1.104135	0.163942	0.073165
O2	O	0.862198	0.184345	0.073178
O3	O	0.988682	-0.011537	0.073174
O4	O	0.977650	0.359823	0.073169
O5	O	0.988667	-0.011525	-0.073283
O6	O	0.862183	0.184356	-0.073279
O7	O	1.104120	0.163953	-0.073292
Zn8	Zn	0.983149	0.174156	-0.096539
Zn9	Zn	0.983169	0.174142	0.096425
O10	O	0.977636	0.359834	-0.073289
C11	C	0.831210	0.183524	-0.000049
C12	C	0.738900	0.181046	-0.000044
C13	C	0.987846	-0.059051	-0.000052
C14	C	0.985366	-0.200646	-0.000043
C15	C	0.517302	0.291517	-0.000055
C16	C	0.430567	0.289179	-0.000061
C17	C	0.449022	0.056772	-0.000054
C18	C	0.535755	0.059112	-0.000055
C19	C	0.569893	0.176488	-0.000051
C20	C	0.396425	0.171810	-0.000056
C21	C	0.302383	0.169274	-0.000062
C22	C	0.663940	0.179024	-0.000046
C23	C	1.062930	-0.299445	-0.000056
C24	C	1.021951	-0.376217	0.072155
C25	C	1.021918	-0.376170	-0.072240
C26	C	0.944419	-0.275553	0.072227
C27	C	0.944398	-0.275500	-0.072233
C28	C	0.903361	-0.352222	-0.000004
C29	C	1.135107	0.164774	-0.000064
C30	C	1.227418	0.167252	-0.000063
C31	C	0.978472	0.407349	-0.000061
C32	C	0.980952	0.548944	-0.000063
N33	N	0.983142	0.174166	-0.228232
C34	C	1.034038	0.251530	-0.453959
C35	C	1.034047	0.251521	-0.546148
C36	C	0.932284	0.096749	-0.546149
C37	C	0.932280	0.096752	-0.453961
C38	C	0.983156	0.174150	-0.407868
C39	C	0.983169	0.174138	-0.592246
C40	C	0.983178	0.174127	-0.692202
C41	C	0.983148	0.174159	-0.307906
N42	N	0.983183	0.174122	0.228117
H43	H	0.545093	0.387092	-0.000059
Br44	Br	0.790828	-0.391314	0.000060
H45	H	0.911700	-0.231779	0.133344
Br46	Br	0.359196	0.445297	-0.000072
H47	H	0.578577	-0.034565	-0.000053
Br48	Br	0.889879	-0.202131	-0.173987
Br49	Br	1.076506	-0.449412	-0.173990
H50	H	0.421217	-0.038792	-0.000062
H51	H	1.130398	-0.275748	0.000014
Br52	Br	1.103088	0.356560	-0.391406
H53	H	1.054700	-0.420192	0.133202
H54	H	1.075481	0.314530	-0.583671
Br55	Br	0.863237	-0.008278	-0.608709
Br56	Br	0.863221	-0.008272	-0.391404
