data_functionalizedCrystal
_audit_creation_method	'MofGen! by Chris Wilmer'
_symmetry_space_group_name_H-M	'P1'
_symmetry_Int_Tables_number	1
_symmetry_cell_setting	triclinic
loop_
_symmetry_equiv_pos_as_xyz
  x,y,z
_cell_length_a	27.732064
_cell_length_b	27.732048
_cell_length_c	10.268362
_cell_angle_alpha	89.989776
_cell_angle_beta	90.003047
_cell_angle_gamma	82.646040
loop_
_atom_site_label
_atom_site_type_symbol
_atom_site_fract_x
_atom_site_fract_y
_atom_site_fract_z
O1	O	0.640922	0.057556	-0.108082
O2	O	0.974255	0.390889	0.225252
O3	O	1.307589	0.724222	0.558585
O4	O	0.500130	0.066293	-0.108137
O5	O	0.833463	0.399626	0.225196
O6	O	1.166796	0.732959	0.558529
O7	O	0.574898	-0.008472	-0.108083
O8	O	0.908232	0.324861	0.225250
O9	O	1.241565	0.658194	0.558584
O10	O	0.566153	0.132321	-0.108136
O11	O	0.899486	0.465654	0.225197
O12	O	1.232820	0.798987	0.558531
O13	O	0.574892	-0.008475	0.108518
O14	O	0.908225	0.324858	0.441851
O15	O	1.241559	0.658191	0.775184
O16	O	0.500123	0.066290	0.108463
O17	O	0.833456	0.399623	0.441797
O18	O	1.166790	0.732956	0.775130
O19	O	0.640915	0.057553	0.108519
O20	O	0.974249	0.390886	0.441852
O21	O	1.307582	0.724219	0.775186
Cu22	Cu	0.570519	0.061921	0.128268
Cu23	Cu	0.903852	0.395254	0.461602
Cu24	Cu	1.237185	0.728587	0.794935
Cu25	Cu	0.570526	0.061924	-0.127887
Cu26	Cu	0.903860	0.395258	0.205446
Cu27	Cu	1.237193	0.728591	0.538780
O28	O	0.566147	0.132318	0.108465
O29	O	0.899480	0.465651	0.441798
O30	O	1.232813	0.798984	0.775131
C31	C	0.482120	0.066106	0.000156
C32	C	0.815453	0.399440	0.333490
C33	C	1.148786	0.732773	0.666823
C34	C	0.428465	0.065551	0.000136
C35	C	0.761799	0.398884	0.333469
C36	C	1.095132	0.732217	0.666803
C37	C	0.051392	0.017583	0.000228
C38	C	0.384726	0.350917	0.333562
C39	C	0.718059	0.684250	0.666895
C40	C	0.253053	0.019630	0.000194
C41	C	0.586386	0.352963	0.333527
C42	C	0.919719	0.686296	0.666860
O43	O	0.284305	-0.017591	0.000256
O44	O	0.617639	0.315742	0.333590
O45	O	0.950972	0.649075	0.666923
N46	N	0.272180	0.063964	0.000171
N47	N	0.605513	0.397297	0.333505
N48	N	0.938847	0.730631	0.666838
C49	C	0.240889	0.107790	0.000166
C50	C	0.574222	0.441123	0.333499
C51	C	0.907556	0.774456	0.666833
O52	O	0.261785	0.145546	0.000159
O53	O	0.595119	0.478879	0.333493
O54	O	0.928452	0.812212	0.666826
C55	C	0.039230	0.105743	0.000210
C56	C	0.372563	0.439076	0.333543
C57	C	0.705896	0.772410	0.666877
C58	C	0.020105	0.061406	0.000219
C59	C	0.353439	0.394739	0.333553
C60	C	0.686772	0.728072	0.666886
C61	C	0.032267	-0.026750	0.000239
C62	C	0.365601	0.306583	0.333572
C63	C	0.698934	0.639916	0.666906
C64	C	-0.018145	-0.027261	0.000241
C65	C	0.315189	0.306072	0.333574
C66	C	0.648522	0.639405	0.666907
C67	C	-0.049432	0.016561	0.000232
C68	C	0.283902	0.349895	0.333565
C69	C	0.617235	0.683228	0.666898
C70	C	-0.030307	0.060895	0.000221
C71	C	0.303027	0.394228	0.333554
C72	C	0.636360	0.727561	0.666887
C73	C	0.007940	0.149568	0.000214
C74	C	0.341273	0.482902	0.333547
C75	C	0.674606	0.816235	0.666881
C76	C	-0.042478	0.149053	0.000228
C77	C	0.290856	0.482386	0.333562
C78	C	0.624189	0.815719	0.666895
C79	C	-0.061602	0.104716	0.000238
C80	C	0.271731	0.438049	0.333571
C81	C	0.605064	0.771382	0.666904
C82	C	-0.112006	0.104206	0.000213
C83	C	0.221327	0.437539	0.333546
C84	C	0.554661	0.770873	0.666880
N85	N	-0.131134	0.059872	0.000236
N86	N	0.202200	0.393205	0.333569
N87	N	0.535533	0.726539	0.666902
C88	C	-0.099846	0.016049	0.000245
C89	C	0.233487	0.349383	0.333578
C90	C	0.566820	0.682716	0.666912
C91	C	0.346763	0.108861	0.000140
C92	C	0.680097	0.442194	0.333474
C93	C	1.013430	0.775528	0.666807
C94	C	0.397178	0.109373	0.000127
C95	C	0.730511	0.442706	0.333460
C96	C	1.063845	0.776040	0.666794
C97	C	0.409338	0.021213	0.000157
C98	C	0.742672	0.354546	0.333491
C99	C	1.076005	0.687879	0.666824
C100	C	0.358923	0.020701	0.000161
C101	C	0.692256	0.354035	0.333495
C102	C	1.025589	0.687368	0.666828
C103	C	0.327636	0.064527	0.000163
C104	C	0.660969	0.397860	0.333496
C105	C	0.994303	0.731194	0.666829
C106	C	-0.205716	0.014979	0.000247
C107	C	0.127617	0.348313	0.333580
C108	C	0.460951	0.681646	0.666914
C109	C	-0.256133	0.014472	0.000243
C110	C	0.077200	0.347806	0.333576
C111	C	0.410534	0.681139	0.666910
C112	C	-0.268289	0.102632	0.000220
C113	C	0.065045	0.435966	0.333553
C114	C	0.398378	0.769299	0.666886
C115	C	-0.217876	0.103140	0.000217
C116	C	0.115457	0.436473	0.333550
C117	C	0.448791	0.769806	0.666883
C118	C	-0.186590	0.059309	0.000235
C119	C	0.146743	0.392643	0.333568
C120	C	0.480076	0.725976	0.666901
O121	O	-0.143287	0.141407	0.000165
O122	O	0.190046	0.474741	0.333499
O123	O	0.523380	0.808074	0.666832
O124	O	-0.120752	-0.021701	0.000280
O125	O	0.212581	0.311632	0.333614
O126	O	0.545915	0.644966	0.666947
C127	C	0.101805	0.018094	0.000227
C128	C	0.435138	0.351428	0.333560
C129	C	0.768471	0.684761	0.666894
C130	C	0.120930	0.062428	0.000216
C131	C	0.454263	0.395761	0.333549
C132	C	0.787596	0.729095	0.666883
C133	C	0.089642	0.106250	0.000207
C134	C	0.422976	0.439584	0.333540
C135	C	0.756309	0.772917	0.666874
C136	C	0.171344	0.062940	0.000203
C137	C	0.504677	0.396273	0.333536
C138	C	0.838011	0.729606	0.666869
C139	C	0.202631	0.019117	0.000212
C140	C	0.535965	0.352451	0.333545
C141	C	0.869298	0.685784	0.666879
C142	C	0.183504	-0.025217	0.000234
C143	C	0.516837	0.308116	0.333568
C144	C	0.850170	0.641450	0.666901
C145	C	0.133092	-0.025728	0.000236
C146	C	0.466425	0.307605	0.333569
C147	C	0.799758	0.640939	0.666903
C148	C	0.108770	0.150585	0.000184
C149	C	0.442103	0.483918	0.333518
C150	C	0.775437	0.817251	0.666851
C151	C	0.159183	0.151092	0.000181
C152	C	0.492516	0.484426	0.333515
C153	C	0.825849	0.817759	0.666848
C154	C	0.190470	0.107270	0.000191
C155	C	0.523803	0.440603	0.333524
C156	C	0.857136	0.773936	0.666857
C157	C	0.574712	-0.026481	0.000221
C158	C	0.908045	0.306853	0.333554
C159	C	1.241378	0.640186	0.666887
C160	C	0.574159	-0.080136	0.000231
C161	C	0.907492	0.253198	0.333565
C162	C	1.240826	0.586531	0.666898
C163	C	0.614862	-0.418948	0.000181
C164	C	0.948196	-0.085615	0.333514
C165	C	1.281529	0.247718	0.666847
C166	C	0.612811	-0.620608	0.000162
C167	C	0.946145	-0.287275	0.333495
C168	C	1.279478	0.046059	0.666828
O169	O	0.650032	-0.651862	0.000119
O170	O	0.983365	-0.318528	0.333453
O171	O	1.316698	0.014805	0.666786
N172	N	0.568476	-0.639735	0.000145
N173	N	0.901810	-0.306401	0.333479
N174	N	1.235143	0.026932	0.666812
C175	C	0.524651	-0.608442	0.000125
C176	C	0.857985	-0.275109	0.333459
C177	C	1.191318	0.058224	0.666792
O178	O	0.486895	-0.629338	0.000098
O179	O	0.820228	-0.296004	0.333431
O180	O	1.153561	0.037329	0.666764
C181	C	0.526703	-0.406784	0.000135
C182	C	0.860036	-0.073450	0.333468
C183	C	1.193369	0.259883	0.666802
C184	C	0.571040	-0.387660	0.000164
C185	C	0.904374	-0.054327	0.333498
C186	C	1.237707	0.279006	0.666831
C187	C	0.659196	-0.399824	0.000209
C188	C	0.992530	-0.066491	0.333542
C189	C	1.325863	0.266842	0.666875
C190	C	0.659709	-0.349412	0.000220
C191	C	0.993042	-0.016079	0.333554
C192	C	1.326375	0.317254	0.666887
C193	C	0.615887	-0.318124	0.000204
C194	C	0.949220	0.015209	0.333538
C195	C	1.282554	0.348542	0.666871
C196	C	0.571553	-0.337248	0.000176
C197	C	0.904886	-0.003915	0.333509
C198	C	1.238219	0.329418	0.666843
C199	C	0.482878	-0.375493	0.000105
C200	C	0.816211	-0.042159	0.333439
C201	C	1.149545	0.291174	0.666772
C202	C	0.483395	-0.325075	0.000105
C203	C	0.816728	0.008258	0.333438
C204	C	1.150062	0.341591	0.666771
C205	C	0.527733	-0.305952	0.000134
C206	C	0.861066	0.027381	0.333467
C207	C	1.194399	0.360715	0.666801
C208	C	0.528243	-0.255548	0.000172
C209	C	0.861576	0.077785	0.333505
C210	C	1.194910	0.411118	0.666838
N211	N	0.572578	-0.236422	0.000188
N212	N	0.905911	0.096911	0.333521
N213	N	1.239245	0.430245	0.666855
C214	C	0.616400	-0.267710	0.000204
C215	C	0.949733	0.065623	0.333538
C216	C	1.283067	0.398957	0.666871
C217	C	0.523577	-0.714317	0.000123
C218	C	0.856911	-0.380983	0.333456
C219	C	1.190244	-0.047650	0.666789
C220	C	0.523064	-0.764731	0.000123
C221	C	0.856398	-0.431398	0.333456
C222	C	1.189731	-0.098064	0.666789
C223	C	0.611225	-0.776893	0.000157
C224	C	0.944558	-0.443560	0.333490
C225	C	1.277891	-0.110227	0.666823
C226	C	0.611737	-0.726478	0.000166
C227	C	0.945070	-0.393145	0.333499
C228	C	1.278404	-0.059811	0.666833
C229	C	0.567912	-0.695190	0.000139
C230	C	0.901245	-0.361857	0.333472
C231	C	1.234579	-0.028524	0.666806
C232	C	0.617472	-0.161841	0.000230
C233	C	0.950806	0.171493	0.333564
C234	C	1.284139	0.504826	0.666897
C235	C	0.617981	-0.111424	0.000247
C236	C	0.951314	0.221910	0.333581
C237	C	1.284647	0.555243	0.666914
C238	C	0.529821	-0.099266	0.000207
C239	C	0.863154	0.234067	0.333540
C240	C	1.196487	0.567401	0.666873
C241	C	0.529312	-0.149679	0.000196
C242	C	0.862645	0.183655	0.333530
C243	C	1.195979	0.516988	0.666863
C244	C	0.573142	-0.180965	0.000204
C245	C	0.906475	0.152368	0.333537
C246	C	1.239808	0.485701	0.666870
O247	O	0.491043	-0.224267	0.000199
O248	O	0.824376	0.109067	0.333533
O249	O	1.157709	0.442400	0.666866
O250	O	0.654151	-0.246805	0.000203
O251	O	0.987484	0.086528	0.333536
O252	O	1.320818	0.419861	0.666870
C253	C	0.614350	-0.469360	0.000169
C254	C	0.947683	-0.136027	0.333502
C255	C	1.281017	0.197306	0.666835
C256	C	0.570016	-0.488484	0.000141
C257	C	0.903349	-0.155151	0.333474
C258	C	1.236683	0.178182	0.666807
C259	C	0.526194	-0.457196	0.000124
C260	C	0.859527	-0.123863	0.333458
C261	C	1.192861	0.209470	0.666791
C262	C	0.569503	-0.538899	0.000141
C263	C	0.902836	-0.205565	0.333474
C264	C	1.236170	0.127768	0.666807
C265	C	0.613325	-0.570187	0.000157
C266	C	0.946658	-0.236853	0.333490
C267	C	1.279991	0.096480	0.666823
C268	C	0.657660	-0.551060	0.000173
C269	C	0.990993	-0.217727	0.333506
C270	C	1.324326	0.115606	0.666840
C271	C	0.658172	-0.500648	0.000185
C272	C	0.991505	-0.167315	0.333518
C273	C	1.324839	0.166018	0.666852
C274	C	0.481859	-0.476323	0.000108
C275	C	0.815193	-0.142989	0.333442
C276	C	1.148526	0.190344	0.666775
C277	C	0.481351	-0.526735	0.000098
C278	C	0.814684	-0.193402	0.333431
C279	C	1.148017	0.139932	0.666764
C280	C	0.525172	-0.558023	0.000114
C281	C	0.858506	-0.224690	0.333447
C282	C	1.191839	0.108643	0.666781
C283	C	0.658925	0.057739	0.000222
C284	C	0.992259	0.391072	0.333556
C285	C	1.325592	0.724405	0.666889
C286	C	0.712580	0.058295	0.000234
C287	C	1.045913	0.391628	0.333567
C288	C	1.379247	0.724961	0.666901
C289	C	0.566333	0.150326	0.000158
C290	C	0.899667	0.483659	0.333491
C291	C	1.233000	0.816993	0.666825
C292	C	0.566886	0.203981	0.000139
C293	C	0.900219	0.537314	0.333472
C294	C	1.233553	0.870648	0.666805
N295	N	0.570517	0.061918	0.308434
N296	N	0.903850	0.395251	0.641768
N297	N	1.237184	0.728585	0.975101
N298	N	0.570532	0.061923	-0.308053
N299	N	0.903865	0.395257	0.025281
N300	N	1.237199	0.728590	0.358614
C301	C	0.570524	0.061923	0.574105
C302	C	0.903857	0.395257	0.907438
C303	C	1.237191	0.728590	1.240772
C304	C	0.570518	0.061922	0.426267
C305	C	0.903852	0.395255	0.759600
C306	C	1.237185	0.728588	1.092934
H307	H	0.117526	-0.061832	0.000244
H308	H	0.450859	0.271501	0.333577
H309	H	0.784192	0.604835	0.666911
H310	H	0.646906	-0.802377	0.000170
H311	H	0.980239	-0.469043	0.333504
H312	H	1.313573	-0.135710	0.666837
H313	H	-0.202304	0.139243	0.000208
H314	H	0.131029	0.472576	0.333541
H315	H	0.464362	0.805909	0.666874
Cl316	Cl	0.421214	0.165113	0.000088
Cl317	Cl	0.754547	0.498447	0.333422
Cl318	Cl	1.087880	0.831780	0.666755
Cl319	Cl	0.467323	-0.788765	0.000111
Cl320	Cl	0.800656	-0.455432	0.333444
Cl321	Cl	1.133990	-0.122099	0.666777
Cl322	Cl	0.468477	-0.674990	0.000090
Cl323	Cl	0.801810	-0.341657	0.333424
Cl324	Cl	1.135144	-0.008323	0.666757
Cl325	Cl	0.427136	-0.399521	0.000060
Cl326	Cl	0.760469	-0.066187	0.333393
Cl327	Cl	1.093802	0.267146	0.666726
Cl328	Cl	0.222846	-0.080307	0.000242
Cl329	Cl	0.556179	0.253026	0.333575
Cl330	Cl	0.889512	0.586359	0.666909
H331	H	0.447706	-0.299603	0.000081
H332	H	0.781040	0.033731	0.333414
H333	H	1.114373	0.367064	0.666747
Cl334	Cl	0.307438	0.163962	0.000131
Cl335	Cl	0.640771	0.497296	0.333464
Cl336	Cl	0.974105	0.830629	0.666797
H337	H	0.023502	0.185672	0.000200
H338	H	0.356835	0.519006	0.333534
H339	H	0.690168	0.852339	0.666867
H340	H	0.434821	-0.014469	0.000160
H341	H	0.768154	0.318864	0.333493
H342	H	1.101488	0.652197	0.666827
H343	H	-0.271701	-0.021634	0.000247
H344	H	0.061632	0.311699	0.333581
H345	H	0.394966	0.645033	0.666914
Cl346	Cl	0.071592	-0.081849	0.000252
Cl347	Cl	0.404925	0.251484	0.333585
Cl348	Cl	0.738258	0.584817	0.666918
Cl349	Cl	0.473573	-0.173720	0.000184
Cl350	Cl	0.806906	0.159613	0.333517
Cl351	Cl	1.140239	0.492947	0.666850
H352	H	0.694276	-0.485083	0.000208
H353	H	1.027609	-0.151750	0.333542
H354	H	1.360943	0.181583	0.666875
H355	H	-0.293772	0.138311	0.000206
H356	H	0.039562	0.471645	0.333539
H357	H	0.372895	0.804978	0.666872
Cl358	Cl	0.069444	0.205682	0.000166
Cl359	Cl	0.402778	0.539015	0.333499
Cl360	Cl	0.736111	0.872349	0.666832
Cl361	Cl	0.474733	-0.059923	0.000184
Cl362	Cl	0.808067	0.273410	0.333517
Cl363	Cl	1.141400	0.606743	0.666850
Cl364	Cl	0.712749	-0.590404	0.000199
Cl365	Cl	1.046083	-0.257070	0.333533
Cl366	Cl	1.379416	0.076263	0.666866
Cl367	Cl	0.183218	0.206836	0.000161
Cl368	Cl	0.516551	0.540170	0.333494
Cl369	Cl	0.849884	0.873503	0.666827
Cl370	Cl	0.425606	-0.550769	0.000067
Cl371	Cl	0.758939	-0.217436	0.333400
Cl372	Cl	1.092272	0.115898	0.666734
Cl373	Cl	0.673724	-0.087387	0.000282
Cl374	Cl	1.007057	0.245947	0.333615
Cl375	Cl	1.340390	0.579280	0.666949
H376	H	-0.180248	-0.020712	0.000261
H377	H	0.153085	0.312622	0.333595
H378	H	0.486418	0.645955	0.666928
Cl379	Cl	0.334886	-0.035039	0.000180
Cl380	Cl	0.668219	0.298295	0.333513
Cl381	Cl	1.001553	0.631628	0.666846
H382	H	-0.067950	0.184742	0.000236
H383	H	0.265384	0.518075	0.333569
H384	H	0.598717	0.851408	0.666902
H385	H	0.446173	-0.450852	0.000092
H386	H	0.779507	-0.117519	0.333425
H387	H	1.112840	0.215815	0.666759
H388	H	-0.033711	-0.063365	0.000254
H389	H	0.299623	0.269968	0.333587
H390	H	0.632956	0.603302	0.666920
Cl391	Cl	0.672573	-0.201165	0.000242
Cl392	Cl	1.005907	0.132168	0.333575
Cl393	Cl	1.339240	0.465502	0.666908
H394	H	0.694884	-0.425295	0.000217
H395	H	1.028217	-0.091962	0.333550
H396	H	1.361550	0.241372	0.666884
Cl397	Cl	0.667478	-0.702443	0.000201
Cl398	Cl	1.000811	-0.369109	0.333535
Cl399	Cl	1.334144	-0.035776	0.666868
Cl400	Cl	0.715451	-0.325380	0.000220
Cl401	Cl	1.048784	0.007954	0.333554
Cl402	Cl	1.382117	0.341287	0.666887
