data_functionalizedCrystal
_audit_creation_method	'MofGen! by Chris Wilmer'
_symmetry_space_group_name_H-M	'P1'
_symmetry_Int_Tables_number	1
_symmetry_cell_setting	triclinic
loop_
_symmetry_equiv_pos_as_xyz
  x,y,z
_cell_length_a	19.377372
_cell_length_b	12.970454
_cell_length_c	12.970454
_cell_angle_alpha	59.999644
_cell_angle_beta	89.999811
_cell_angle_gamma	72.113047
loop_
_atom_site_label
_atom_site_type_symbol
_atom_site_fract_x
_atom_site_fract_y
_atom_site_fract_z
Zr1	Zr	0.580562	1.435479	-0.288791
O2	O	0.484334	1.599693	-0.427976
O3	O	0.610060	1.235984	-0.246122
O4	O	0.610060	1.451076	-0.461214
O5	O	0.484335	1.384600	-0.043217
O6	O	0.709235	1.503512	-0.487433
O7	O	0.484335	1.384601	-0.212885
O8	O	0.709236	1.118753	-0.102673
O9	O	0.484334	1.769360	-0.427977
O10	O	0.696654	1.370239	-0.247492
O11	O	0.622642	1.331106	-0.101305
O12	O	0.622641	1.584348	-0.354547
O13	O	0.548628	1.545215	-0.208360
Zr14	Zr	0.738734	1.519107	-0.060008
Zr15	Zr	0.738734	1.519108	-0.330607
Zr16	Zr	0.580562	1.435478	-0.018191
Zr17	Zr	0.580562	1.706079	-0.288792
Zr18	Zr	0.738734	1.248507	-0.060006
O19	O	0.709236	1.718602	-0.102676
O20	O	0.709235	1.718603	-0.487434
O21	O	0.484335	1.599691	-0.043218
O22	O	0.834962	1.354893	0.079178
O23	O	0.834961	1.354895	-0.305580
O24	O	0.610061	1.235983	0.138636
O25	O	0.834961	1.569986	-0.305581
O26	O	0.709236	1.503510	0.112416
O27	O	0.610061	1.451074	0.138635
O28	O	0.834961	1.569985	-0.135914
O29	O	0.610060	1.835834	-0.461216
O30	O	0.709236	1.118752	0.112418
O31	O	0.834962	1.185226	0.079179
O32	O	0.834961	1.185227	-0.135912
O33	O	0.484335	1.769359	-0.212887
O34	O	0.610060	1.835834	-0.246125
O35	O	0.696655	1.370238	0.005749
O36	O	0.770668	1.409371	-0.140439
O37	O	0.696654	1.623480	-0.247494
O38	O	0.622642	1.584347	-0.101306
C39	C	0.659648	1.138814	-0.174397
C40	C	0.659648	1.023937	-0.174397
C41	C	0.461799	1.372685	-0.122093
C42	C	0.394650	1.337182	-0.104341
C43	C	-0.019358	1.779220	-0.325366
C44	C	-0.082444	1.745830	-0.308669
C45	C	-0.005170	1.522316	-0.196912
C46	C	0.057924	1.555687	-0.213594
C47	C	0.050823	1.684141	-0.277824
C48	C	0.128105	1.460608	-0.166052
C49	C	0.191193	1.493977	-0.182739
C50	C	0.184100	1.622425	-0.246968
C51	C	0.113911	1.717510	-0.294510
C52	C	0.135204	1.332155	-0.101830
C53	C	0.205385	1.237076	-0.054288
C54	C	0.268474	1.270444	-0.070967
C55	C	0.261381	1.398892	-0.135196
C56	C	0.338663	1.175359	-0.023425
C57	C	0.401751	1.208728	-0.040112
C58	C	0.324469	1.432261	-0.151883
C59	C	0.857497	1.581901	-0.226705
C60	C	0.924646	1.617404	-0.244457
C61	C	0.659647	1.477294	-0.512878
C62	C	0.659647	1.477295	-0.627755
C63	C	0.659648	1.815772	-0.174401
C64	C	0.659648	1.930649	-0.174401
C65	C	0.659649	1.477292	0.164080
C66	C	0.659649	1.477291	0.278957
C67	C	0.857497	1.243422	-0.226704
C68	C	0.924646	1.164048	-0.244455
C69	C	0.659649	1.138813	0.164082
C70	C	0.659649	1.023935	0.278959
C71	C	0.857498	1.243420	0.111775
C72	C	0.924647	1.164046	0.208901
C73	C	0.461798	1.711166	-0.460574
C74	C	0.394649	1.790540	-0.557699
C75	C	0.461799	1.711164	-0.122095
C76	C	0.394650	1.790538	-0.104343
C77	C	0.659647	1.815773	-0.512880
C78	C	0.659647	1.930651	-0.627757
C79	C	0.917545	1.106346	-0.308684
C80	C	0.980632	1.031778	-0.325387
C81	C	1.050819	1.014905	-0.277853
C82	C	1.057918	1.072616	-0.213622
C83	C	0.994832	1.147191	-0.196927
C84	C	0.994821	1.147202	0.178201
C85	C	1.057920	1.072639	0.269449
C86	C	1.050844	1.014915	0.391394
C87	C	0.980662	1.031766	0.422093
C88	C	0.917564	1.106335	0.330847
C89	C	0.324475	1.807398	-0.527000
C90	C	0.261376	1.881993	-0.618247
C91	C	0.268452	1.939723	-0.740193
C92	C	0.338634	1.922865	-0.770892
C93	C	0.401732	1.848278	-0.679645
C94	C	0.401751	1.848251	-0.040126
C95	C	0.338664	1.922849	-0.023452
C96	C	0.268477	1.939726	-0.070990
C97	C	0.261378	1.882009	-0.135216
C98	C	0.324464	1.807420	-0.151896
H99	H	0.318686	1.536861	-0.204148
H100	H	0.318673	1.760428	-0.204183
F101	F	0.973061	0.970364	-0.393745
F102	F	-0.157139	1.847037	-0.359285
F103	F	0.201341	2.019113	-0.053227
F104	F	0.476446	1.107535	0.010484
H105	H	1.115072	1.058867	-0.174925
H106	H	1.000623	1.194163	-0.144620
F107	F	1.002369	1.208632	0.048423
F108	F	1.132605	1.054716	0.236752
H109	H	0.204224	1.895763	-0.173917
F110	F	0.476443	1.830309	0.010475
F111	F	0.842881	1.124245	0.363539
H112	H	1.102228	0.954200	0.465681
H113	H	0.235472	1.649591	-0.260556
F114	F	0.316927	1.745965	-0.397221
F115	F	0.002377	1.385611	-0.128559
H116	H	0.083831	1.304991	-0.088255
F117	F	0.346235	1.984259	0.044909
F118	F	0.842853	1.124291	-0.359287
F119	F	0.106356	1.854226	-0.362857
H120	H	-0.025141	1.883820	-0.377631
H121	H	0.204237	1.895703	-0.593228
F122	F	0.212932	1.100371	0.014065
F123	F	1.117955	0.935531	-0.295630
H124	H	0.344433	1.070773	0.028860
F125	F	0.201291	2.019102	-0.837294
H126	H	0.974911	0.984757	0.521393
F127	F	0.476415	1.830339	-0.712337
H128	H	0.344387	1.969878	-0.870191
