data_functionalizedCrystal
_audit_creation_method	'MofGen! by Chris Wilmer'
_symmetry_space_group_name_H-M	'P1'
_symmetry_Int_Tables_number	1
_symmetry_cell_setting	triclinic
loop_
_symmetry_equiv_pos_as_xyz
  x,y,z
_cell_length_a	6.817900
_cell_length_b	15.185438
_cell_length_c	15.185463
_cell_angle_alpha	94.885501
_cell_angle_beta	104.264314
_cell_angle_gamma	104.263918
loop_
_atom_site_label
_atom_site_type_symbol
_atom_site_fract_x
_atom_site_fract_y
_atom_site_fract_z
V1	V	-4.039311	-0.126357	-0.283661
O2	O	-4.022561	0.005454	-0.277987
O3	O	-3.994614	-0.249950	-0.281985
O4	O	-3.994618	-0.124685	-0.407255
O5	O	-4.022556	-0.120679	-0.151849
V6	V	-4.521979	-0.110559	-0.267863
O7	O	-4.302445	-0.161012	-0.318314
O8	O	-4.709042	-0.075904	-0.233209
O9	O	-4.343470	0.013034	-0.269539
O10	O	-4.656127	-0.242370	-0.273537
O11	O	-4.656131	-0.116237	-0.399674
O12	O	-4.343466	-0.112231	-0.144269
C13	C	-3.840395	-0.280071	-0.277578
C14	C	-3.885161	-0.381112	-0.277031
C15	C	-3.723790	-0.423943	-0.272227
C16	C	-4.088600	-0.433224	-0.281329
C17	C	-4.130669	-0.528158	-0.280821
C18	C	-3.969298	-0.570989	-0.276017
C19	C	-3.765859	-0.518886	-0.271721
C20	C	-4.334113	-0.580270	-0.285126
C21	C	-4.376192	-0.675210	-0.284618
C22	C	-4.214816	-0.718042	-0.279808
C23	C	-4.011366	-0.665932	-0.275511
C24	C	-3.849996	-0.708764	-0.270706
C25	C	-3.646541	-0.656655	-0.266403
C26	C	-3.604483	-0.561718	-0.266910
C27	C	-4.256874	-0.812979	-0.279300
C28	C	-3.892064	-0.803707	-0.270200
C29	C	-3.840400	-0.120281	-0.437371
C30	C	-3.885166	-0.119732	-0.538411
C31	C	-3.892063	-0.112892	-0.961000
C32	C	-4.256864	-0.121984	-0.970271
C33	C	-4.214802	-0.122492	-0.875337
C34	C	-4.011367	-0.118202	-0.823230
C35	C	-3.849994	-0.113403	-0.866058
C36	C	-4.376174	-0.127301	-0.832504
C37	C	-4.334117	-0.127810	-0.737564
C38	C	-4.130676	-0.123513	-0.685455
C39	C	-3.969297	-0.118713	-0.728288
C40	C	-3.765862	-0.114422	-0.676181
C41	C	-3.604477	-0.109615	-0.719012
C42	C	-3.646552	-0.109105	-0.813949
C43	C	-4.088601	-0.124022	-0.590518
C44	C	-3.723792	-0.114933	-0.581239
C45	C	-4.161031	0.043150	-0.273944
C46	C	-4.095504	0.144190	-0.274496
C47	C	-4.161026	-0.116638	-0.114148
C48	C	-4.095499	-0.117183	-0.013107
H49	H	-3.558138	-0.381512	-0.268719
H50	H	-4.219981	-0.398346	-0.285248
Br51	Br	-4.652258	-0.133140	-0.903225
Br52	Br	-3.673049	-0.106366	-1.019122
Br53	Br	-4.652296	-0.745920	-0.290455
Br54	Br	-4.532974	-0.883695	-0.285154
Br55	Br	-4.532950	-0.127822	-1.040989
H56	H	-4.465492	-0.545391	-0.289045
H57	H	-4.465531	-0.131723	-0.702700
Br58	Br	-3.447686	-0.109099	-0.510528
Br59	Br	-4.307609	-0.130557	-0.532396
H60	H	-3.515167	-0.105194	-0.848830
H61	H	-3.760649	-0.838573	-0.266289
Br62	Br	-3.328382	-0.490994	-0.261060
H63	H	-3.515162	-0.691541	-0.262497
Br64	Br	-3.328398	-0.103806	-0.648287
