data_functionalizedCrystal
_audit_creation_method	'MofGen! by Chris Wilmer'
_symmetry_space_group_name_H-M	'P1'
_symmetry_Int_Tables_number	1
_symmetry_cell_setting	triclinic
loop_
_symmetry_equiv_pos_as_xyz
  x,y,z
_cell_length_a	14.519731
_cell_length_b	17.019294
_cell_length_c	12.996460
_cell_angle_alpha	86.114884
_cell_angle_beta	89.994327
_cell_angle_gamma	83.541199
loop_
_atom_site_label
_atom_site_type_symbol
_atom_site_fract_x
_atom_site_fract_y
_atom_site_fract_z
O1	O	1.223521	0.103487	-0.094737
O2	O	1.723521	0.603487	0.405263
O3	O	0.955008	0.115647	-0.095816
O4	O	1.455008	0.615647	0.404184
O5	O	1.096755	-0.005255	-0.085098
O6	O	1.596755	0.494745	0.414902
O7	O	1.081774	0.224389	-0.105455
O8	O	1.581774	0.724389	0.394545
O9	O	1.096740	-0.005262	0.086037
O10	O	1.596740	0.494738	0.586037
O11	O	0.954993	0.115640	0.075319
O12	O	1.454993	0.615640	0.575319
O13	O	1.223506	0.103480	0.076398
O14	O	1.723506	0.603480	0.576398
Cu15	Cu	1.089248	0.109560	0.091484
Cu16	Cu	1.589248	0.609560	0.591484
Cu17	Cu	1.089266	0.109568	-0.110902
Cu18	Cu	1.589266	0.609568	0.389098
O19	O	1.081759	0.224382	0.065679
O20	O	1.581759	0.724382	0.565679
C21	C	0.920643	0.115074	-0.010198
C22	C	1.420643	0.615074	0.489802
C23	C	0.818268	0.113367	-0.010047
C24	C	1.318268	0.613367	0.489953
C25	C	0.735128	0.111979	-0.009929
C26	C	1.235128	0.611979	0.490071
C27	C	0.630825	0.110246	-0.009775
C28	C	1.130825	0.610246	0.490225
C29	C	0.547691	0.108870	-0.009653
C30	C	1.047691	0.608870	0.490347
C31	C	0.443381	0.107137	-0.009502
C32	C	0.943381	0.607137	0.490498
C33	C	1.096179	-0.034648	0.003073
C34	C	1.596179	0.465352	0.503073
C35	C	1.094475	-0.122221	0.010829
C36	C	1.594475	0.377779	0.510829
C37	C	1.093684	-0.163355	-0.078811
C38	C	1.593684	0.336645	0.421189
C39	C	1.092077	-0.245639	-0.071520
C40	C	1.592077	0.254361	0.428480
C41	C	1.091267	-0.286788	0.025413
C42	C	1.591267	0.213212	0.525413
C43	C	1.092055	-0.245648	0.115060
C44	C	1.592055	0.254352	0.615060
C45	C	1.093655	-0.163365	0.107768
C46	C	1.593655	0.336635	0.607768
C47	C	1.086428	-0.535228	0.052098
C48	C	1.586428	-0.035228	0.552098
C49	C	1.084830	-0.617517	0.059384
C50	C	1.584830	-0.117517	0.559384
C51	C	1.084850	-0.617502	-0.127197
C52	C	1.584850	-0.117502	0.372803
C53	C	1.086457	-0.535219	-0.134481
C54	C	1.586457	-0.035219	0.365519
C55	C	1.087239	-0.494085	-0.044834
C56	C	1.587239	0.005915	0.455166
C57	C	1.089627	-0.370895	0.032868
C58	C	1.589627	0.129105	0.532868
C59	C	1.088873	-0.409979	-0.052290
C60	C	1.588873	0.090021	0.447710
C61	C	1.257871	0.104054	-0.009222
C62	C	1.757871	0.604054	0.490778
C63	C	1.360246	0.105761	-0.009380
C64	C	1.860246	0.605761	0.490620
C65	C	1.082335	0.253776	-0.022493
C66	C	1.582335	0.753776	0.477507
C67	C	1.084039	0.341349	-0.030257
C68	C	1.584039	0.841349	0.469743
N69	N	1.089243	0.109554	0.233832
N70	N	1.589243	0.609554	0.733832
N71	N	1.089279	0.109568	-0.253249
N72	N	1.589279	0.609568	0.246751
C73	C	1.089264	0.109569	0.653645
C74	C	1.589264	0.609569	1.153645
C75	C	1.089256	0.109567	0.536840
C76	C	1.589256	0.609567	1.036840
C77	C	1.089254	0.109562	0.443742
C78	C	1.589254	0.609562	0.943742
C79	C	1.089244	0.109559	0.326930
C80	C	1.589244	0.609559	0.826930
H81	H	1.094349	-0.129858	-0.157744
H82	H	1.594349	0.370142	0.342256
H83	H	1.094286	-0.129873	0.180763
H84	H	1.594286	0.370127	0.680763
Cl85	Cl	1.083864	-0.669217	-0.239889
Cl86	Cl	1.583864	-0.169217	0.260111
H87	H	1.087117	-0.501721	-0.213414
H88	H	1.587117	-0.001721	0.286586
Cl89	Cl	1.088604	-0.422631	0.154724
Cl90	Cl	1.588604	0.077369	0.654724
H91	H	1.089526	-0.376471	-0.131212
H92	H	1.589526	0.123529	0.368788
H93	H	1.084165	-0.651018	0.138322
H94	H	1.584165	-0.151018	0.638322
Cl95	Cl	1.091025	-0.297377	0.236920
Cl96	Cl	1.591025	0.202623	0.736920
Cl97	Cl	1.091085	-0.297347	-0.184217
Cl98	Cl	1.591085	0.202653	0.315783
Cl99	Cl	1.087397	-0.483527	0.164799
Cl100	Cl	1.587397	0.016473	0.664799
