data_functionalizedCrystal
_audit_creation_method	'MofGen! by Chris Wilmer'
_symmetry_space_group_name_H-M	'P1'
_symmetry_Int_Tables_number	1
_symmetry_cell_setting	triclinic
loop_
_symmetry_equiv_pos_as_xyz
  x,y,z
_cell_length_a	10.654550
_cell_length_b	19.288865
_cell_length_c	9.730223
_cell_angle_alpha	89.990377
_cell_angle_beta	89.999957
_cell_angle_gamma	83.810589
loop_
_atom_site_label
_atom_site_type_symbol
_atom_site_fract_x
_atom_site_fract_y
_atom_site_fract_z
O1	O	1.665751	0.097555	-0.114205
O2	O	1.300073	0.106849	-0.114232
O3	O	1.493478	0.001141	-0.114191
O4	O	1.472346	0.203263	-0.114247
O5	O	1.493466	0.001138	0.114389
O6	O	1.300061	0.106846	0.114348
O7	O	1.665738	0.097552	0.114375
Zn8	Zn	1.482898	0.102198	0.150653
Zn9	Zn	1.482914	0.102202	-0.150511
O10	O	1.472333	0.203260	0.114333
C11	C	1.253284	0.106165	0.000055
C12	C	1.113884	0.104123	0.000046
C13	C	1.033066	0.166363	0.000033
C14	C	0.902087	0.164440	0.000057
C15	C	0.932756	0.038033	0.000102
C16	C	1.063733	0.039956	0.000088
C17	C	1.492792	-0.024742	0.000103
C18	C	1.490751	-0.101859	0.000115
C19	C	1.604232	-0.145812	0.000131
C20	C	1.602315	-0.218272	0.000109
C21	C	1.486909	-0.246775	0.000099
C22	C	1.373413	-0.202812	0.000076
C23	C	1.375334	-0.130354	0.000085
C24	C	1.396183	-0.355657	0.080159
C25	C	1.394267	-0.428114	0.080160
C26	C	1.480980	-0.470259	0.000068
C27	C	1.569631	-0.439940	-0.080006
C28	C	1.571552	-0.367482	-0.079998
C29	C	1.484814	-0.325343	0.000090
C30	C	1.592390	-0.592782	0.000057
C31	C	1.590467	-0.665243	0.000027
C32	C	1.361562	-0.649781	0.000009
C33	C	1.363488	-0.577322	0.000025
C34	C	1.478905	-0.548827	0.000056
C35	C	1.712528	0.098236	0.000085
C36	C	1.851928	0.100277	0.000085
C37	C	1.473020	0.229142	0.000036
C38	C	1.475061	0.306259	0.000015
N39	N	1.482896	0.102195	0.356190
N40	N	1.482926	0.102200	-0.356047
C41	C	1.568564	0.055408	0.428134
C42	C	1.568577	0.055408	0.572017
C43	C	1.397248	0.148990	0.571999
C44	C	1.397231	0.148986	0.428118
H45	H	0.836289	0.215122	0.000049
N46	N	1.150913	-0.027176	0.000118
H47	H	1.099270	-0.068117	0.000140
H48	H	1.205923	-0.029133	-0.084620
H49	H	1.638334	0.017308	0.630590
N50	N	1.728712	-0.115078	0.000161
H51	H	1.800312	-0.153922	0.000167
H52	H	1.734505	-0.085343	-0.084573
H53	H	1.271079	-0.541534	0.000021
N54	N	1.298671	-0.460815	0.166537
H55	H	1.244022	-0.423123	0.217266
H56	H	1.244034	-0.487239	0.105109
N57	N	1.724716	-0.265691	0.000122
H58	H	1.798122	-0.236644	0.000140
H59	H	1.728888	-0.296098	0.084859
N60	N	1.304873	0.199457	0.649593
H61	H	1.319046	0.248827	0.624525
H62	H	1.215833	0.190939	0.624548
H63	H	1.325567	-0.321348	0.145387
N64	N	1.660941	0.004926	0.350573
H65	H	1.613117	-0.026075	0.290907
H66	H	1.716373	0.031790	0.290929
H67	H	1.643731	-0.342798	-0.145200
N68	N	1.663171	-0.485385	-0.166394
H69	H	1.648502	-0.535887	-0.154258
H70	H	1.651772	-0.471912	-0.266280
H71	H	0.891906	-0.014209	0.000145
N72	N	1.716867	-0.562041	0.000085
H73	H	1.788469	-0.600884	0.000080
H74	H	1.722653	-0.532302	-0.084644
H75	H	1.279449	-0.226024	0.000066
H76	H	1.282921	-0.094566	0.000073
N77	N	1.712871	-0.712654	0.000038
H78	H	1.786273	-0.683604	0.000063
H79	H	1.717043	-0.743064	0.084771
N80	N	1.087157	0.235569	0.000013
H81	H	1.182394	0.227345	0.000003
H82	H	1.057557	0.262834	-0.084728
N83	N	1.304817	0.199446	0.350509
H84	H	1.250555	0.229090	0.417905
H85	H	1.352699	0.230399	0.290783
H86	H	1.267597	-0.672988	-0.000006
