data_functionalizedCrystal
_audit_creation_method	'MofGen! by Chris Wilmer'
_symmetry_space_group_name_H-M	'P1'
_symmetry_Int_Tables_number	1
_symmetry_cell_setting	triclinic
loop_
_symmetry_equiv_pos_as_xyz
  x,y,z
_cell_length_a	13.033808
_cell_length_b	29.839125
_cell_length_c	13.032721
_cell_angle_alpha	82.833138
_cell_angle_beta	76.638180
_cell_angle_gamma	97.160494
loop_
_atom_site_label
_atom_site_type_symbol
_atom_site_fract_x
_atom_site_fract_y
_atom_site_fract_z
Zn1	Zn	1.570008	-0.180229	0.216451
Zn2	Zn	1.547353	-0.116034	0.394061
Zn3	Zn	1.392412	-0.116028	0.239039
Zn4	Zn	1.369795	-0.202049	0.416632
O5	O	1.469892	-0.153585	0.316546
O6	O	1.715637	-0.162584	0.221112
O7	O	1.526784	-0.053167	0.373504
O8	O	1.434917	-0.115410	0.087388
O9	O	1.698992	-0.115421	0.351602
O10	O	1.565396	-0.162579	0.070793
O11	O	1.412949	-0.053163	0.259610
O12	O	1.240778	-0.136568	0.281496
O13	O	1.396370	-0.262020	0.390071
O14	O	1.224162	-0.199767	0.411974
O15	O	1.543466	-0.245989	0.242998
O16	O	1.504853	-0.136578	0.545710
O17	O	1.374402	-0.199773	0.562292
C18	C	1.193931	-0.170535	0.351636
C19	C	1.075870	-0.177798	0.366673
C20	C	0.909420	-0.157310	0.324257
C21	C	1.031442	-0.149802	0.308716
C22	C	1.469922	-0.270761	0.316533
C23	C	1.469935	-0.320694	0.316527
C24	C	1.546622	-0.621978	0.239759
C25	C	1.546686	-0.809643	0.239662
O26	O	1.611796	-0.826811	0.174502
N27	N	1.470112	-0.841453	0.316225
C28	C	1.393512	-0.826346	0.392813
O29	O	1.328376	-0.857709	0.457925
C30	C	1.393444	-0.638682	0.392904
C31	C	1.470030	-0.606873	0.316343
C32	C	1.623201	-0.590170	0.163204
C33	C	1.623187	-0.543257	0.163233
C34	C	1.546595	-0.528152	0.239817
C35	C	1.470017	-0.559960	0.316372
C36	C	1.316840	-0.623576	0.469487
C37	C	1.316828	-0.576656	0.469501
C38	C	1.393414	-0.544847	0.392940
C39	C	1.393411	-0.497942	0.392985
N40	N	1.469985	-0.466131	0.316422
C41	C	1.546577	-0.481236	0.239838
C42	C	1.393554	-0.924871	0.392760
C43	C	1.393572	-0.971787	0.392739
C44	C	1.546745	-0.955081	0.239587
C45	C	1.546731	-0.908164	0.239614
C46	C	1.470128	-0.893061	0.316198
C47	C	1.546544	-0.382716	0.239905
C48	C	1.546527	-0.335799	0.239943
C49	C	1.393351	-0.352510	0.393091
C50	C	1.393371	-0.399422	0.393057
C51	C	1.469973	-0.414523	0.316455
O52	O	1.328328	-0.480741	0.458103
O53	O	1.611689	-0.449866	0.174721
C54	C	1.546635	-0.668892	0.239731
C55	C	1.470056	-0.700700	0.316286
C56	C	1.393464	-0.685595	0.392870
C57	C	1.470074	-0.747616	0.316265
C58	C	1.546666	-0.762720	0.239680
C59	C	1.623240	-0.730910	0.163118
C60	C	1.623227	-0.683996	0.163147
C61	C	1.316890	-0.717406	0.469433
C62	C	1.316910	-0.764318	0.469399
C63	C	1.393502	-0.779423	0.392815
C64	C	1.746931	-0.136569	0.281319
C65	C	1.864988	-0.129318	0.266308
C66	C	1.434744	-0.170552	0.592542
C67	C	1.419804	-0.177819	0.710602
C68	C	1.469933	-0.036856	0.316475
C69	C	1.470164	0.013108	0.316155
C70	C	1.505207	-0.136560	0.039469
C71	C	1.520256	-0.129305	-0.078605
C72	C	1.477746	-0.149809	0.754990
C73	C	1.462306	-0.157319	0.877010
H74	H	1.023579	-0.207324	0.427798
H75	H	1.401271	-0.186864	0.929340
H76	H	0.917284	-0.099793	0.205194
C77	C	1.579557	-0.425764	0.095076
C78	C	1.630748	-0.399309	0.155705
H79	H	1.631545	-0.436005	0.043094
H80	H	1.533969	-0.451424	0.140657
H81	H	1.538452	-0.407800	0.060344
H82	H	1.671847	-0.417275	0.190443
H83	H	1.676354	-0.373645	0.110117
C84	C	0.903250	-0.221620	0.457367
C85	C	0.838835	-0.197172	0.406759
H86	H	0.859673	-0.246229	0.508302
H87	H	0.952413	-0.233346	0.405668
H88	H	0.941336	-0.201867	0.492467
H89	H	0.800755	-0.216925	0.371653
H90	H	0.789653	-0.185446	0.458466
C91	C	1.691250	-0.795416	0.095081
C92	C	1.707426	-0.747519	0.078929
H93	H	1.743213	-0.805671	0.043101
H94	H	1.697710	-0.806536	0.164465
H95	H	1.621860	-0.806523	0.088614
H96	H	1.776814	-0.736412	0.085404
H97	H	1.700976	-0.736394	0.009528
C98	C	1.158176	-0.080834	0.277954
C99	C	1.102029	-0.109942	0.226203
H100	H	1.201759	-0.056229	0.227012
H101	H	1.109006	-0.069104	0.329637
H102	H	1.201858	-0.097429	0.312295
H103	H	1.058342	-0.093348	0.191868
H104	H	1.151206	-0.121672	0.174501
H105	H	1.331175	-0.912580	0.455131
H106	H	1.538786	-0.120269	0.702658
H107	H	1.581300	-0.099763	0.869065
H108	H	1.331219	-0.997683	0.455093
C109	C	1.774578	-0.531471	0.011841
C110	C	1.707363	-0.508296	0.079062
H111	H	1.826540	-0.509889	-0.040131
H112	H	1.809313	-0.550118	0.052951
H113	H	1.733465	-0.550117	-0.022901
H114	H	1.748475	-0.489653	0.113810
H115	H	1.672625	-0.489641	0.037946
H116	H	1.608896	-0.309901	0.177596
C117	C	1.656214	-0.633221	0.018380
C118	C	1.707401	-0.606765	0.079008
H119	H	1.708205	-0.643460	-0.033604
H120	H	1.610633	-0.658884	0.063961
H121	H	1.615103	-0.615260	-0.016349
H122	H	1.748506	-0.624728	0.113744
H123	H	1.753001	-0.581099	0.033420
H124	H	1.254476	-0.649467	0.531831
C125	C	1.165488	-0.776108	0.620777
C126	C	1.232717	-0.799280	0.553561
H127	H	1.113505	-0.797692	0.672724
H128	H	1.206582	-0.757471	0.655540
H129	H	1.130771	-0.757452	0.579650
H130	H	1.267440	-0.817934	0.594687
H131	H	1.191618	-0.817925	0.518795
C132	C	1.579700	-0.998145	0.094795
C133	C	1.630930	-0.971687	0.155390
H134	H	1.631666	-1.008395	0.042809
H135	H	1.534110	-1.023799	0.140397
H136	H	1.538592	-0.980180	0.060069
H137	H	1.672031	-0.989653	0.190122
H138	H	1.676538	-0.946029	0.109781
C139	C	1.338058	-0.217420	0.888445
C140	C	1.337404	-0.217700	0.781239
H141	H	1.287181	-0.242041	0.932051
H142	H	1.407136	-0.220742	0.897419
H143	H	1.320282	-0.189290	0.908576
H144	H	1.355188	-0.245829	0.761107
H145	H	1.268311	-0.214382	0.772260
C146	C	1.172107	-0.674335	0.502408
C147	C	1.232696	-0.700807	0.553623
H148	H	1.120125	-0.664091	0.554392
H149	H	1.217705	-0.648676	0.456831
H150	H	1.137386	-0.692288	0.461281
H151	H	1.267424	-0.682852	0.594744
H152	H	1.187092	-0.726469	0.599219
C153	C	1.698133	-0.896374	0.088230
C154	C	1.630908	-0.873202	0.155448
H155	H	1.750096	-0.874791	0.036263
H156	H	1.732866	-0.915021	0.129343
H157	H	1.657026	-0.915021	0.053482
H158	H	1.672014	-0.854558	0.190202
H159	H	1.596172	-0.854547	0.114329
H160	H	1.331018	-0.425323	0.455408
C161	C	1.165436	-0.597886	0.620898
C162	C	1.232638	-0.560056	0.553704
H163	H	1.113471	-0.587637	0.672888
H164	H	1.130704	-0.615828	0.579772
H165	H	1.206558	-0.615845	0.655618
H166	H	1.191516	-0.542098	0.518978
H167	H	1.267373	-0.542106	0.594835
H168	H	1.330994	-0.340203	0.455447
H169	H	1.685591	-0.658101	0.100802
