data_functionalizedCrystal
_audit_creation_method	'MofGen! by Chris Wilmer'
_symmetry_space_group_name_H-M	'P1'
_symmetry_Int_Tables_number	1
_symmetry_cell_setting	triclinic
loop_
_symmetry_equiv_pos_as_xyz
  x,y,z
_cell_length_a	13.262522
_cell_length_b	17.019294
_cell_length_c	12.376457
_cell_angle_alpha	97.480483
_cell_angle_beta	63.170097
_cell_angle_gamma	82.862487
loop_
_atom_site_label
_atom_site_type_symbol
_atom_site_fract_x
_atom_site_fract_y
_atom_site_fract_z
O1	O	1.512707	0.016457	-0.560663
O2	O	1.186151	0.043665	-0.462920
O3	O	1.356022	-0.083300	-0.502778
O4	O	1.342836	0.143423	-0.520805
O5	O	1.313569	-0.051600	-0.304802
O6	O	1.143698	0.075365	-0.264943
O7	O	1.470254	0.048157	-0.362687
Zn8	Zn	1.300236	0.066794	-0.282382
Zn9	Zn	1.356169	0.025028	-0.543224
O10	O	1.300383	0.175123	-0.322829
C11	C	1.123094	0.060906	-0.351207
C12	C	0.998451	0.065040	-0.313290
C13	C	0.916758	0.084264	-0.187554
C14	C	0.799648	0.088142	-0.151919
C15	C	0.764219	0.072802	-0.242018
C16	C	0.845912	0.053583	-0.367757
C17	C	0.963034	0.049699	-0.403395
C18	C	0.810495	0.038237	-0.457860
C19	C	0.892188	0.019018	-0.583599
C20	C	1.009298	0.015135	-0.619231
C21	C	1.044727	0.030475	-0.529132
C22	C	0.693374	0.042122	-0.422222
C23	C	0.739650	0.007557	-0.638063
C24	C	0.856759	0.003679	-0.673698
C25	C	1.333458	-0.096326	-0.400569
C26	C	1.329461	-0.182365	-0.390968
C27	C	1.350726	-0.240062	-0.494374
C28	C	1.346962	-0.320903	-0.485347
C29	C	1.321940	-0.344047	-0.372914
C30	C	1.300669	-0.286343	-0.269500
C31	C	1.304426	-0.205502	-0.278526
C32	C	1.309433	-0.587269	-0.340260
C33	C	1.305681	-0.668118	-0.331243
C34	C	1.351972	-0.702672	-0.547091
C35	C	1.355733	-0.621829	-0.556109
C36	C	1.334456	-0.564131	-0.452692
C37	C	1.318095	-0.426680	-0.363685
C38	C	1.338293	-0.481498	-0.461920
C39	C	1.533312	0.030916	-0.474403
C40	C	1.657957	0.026781	-0.512327
C41	C	1.322947	0.188148	-0.425040
C42	C	1.326947	0.274186	-0.434649
N43	N	1.262070	0.095298	-0.104367
N44	N	1.394344	-0.003482	-0.721242
C45	C	1.482937	-0.069663	0.198783
C46	C	1.509642	-0.089612	0.074175
C47	C	1.447751	-0.043387	0.029534
C48	C	1.359151	0.022792	0.109512
C49	C	1.332449	0.042748	0.234129
C50	C	1.297263	0.069024	0.064880
C51	C	1.208662	0.135203	0.144858
C52	C	1.181964	0.155154	0.269462
C53	C	1.243855	0.108928	0.314104
C54	C	1.323965	0.049068	-0.059737
C55	C	1.173477	0.161479	-0.024391
C56	C	1.146771	0.181428	0.100216
H57	H	1.140085	0.027321	-0.558139
Br58	Br	1.384698	-0.208662	-0.646972
Br59	Br	1.389700	-0.590426	-0.708703
Br60	Br	1.061738	0.244978	0.378000
H61	H	1.581781	-0.143494	0.009062
Br62	Br	1.280534	-0.508972	-0.199901
H63	H	1.364283	-0.367878	-0.569553
H64	H	1.369292	-0.749657	-0.631286
H65	H	1.123082	0.199121	-0.060737
Br66	Br	1.271732	-0.699528	-0.178650
Br67	Br	1.372254	-0.450087	-0.614503
H68	H	0.923289	-0.011969	-0.776077
Br69	Br	1.444206	-0.040741	-0.168263
Br70	Br	1.266692	-0.317749	-0.116905
Br71	Br	1.026529	0.271239	0.208768
H72	H	0.733144	0.103779	-0.049542
H73	H	0.710805	-0.004932	-0.711430
H74	H	0.626869	0.057777	-0.319844
H75	H	1.287093	-0.158523	-0.194316
Br76	Br	1.566937	-0.132383	0.259364
H77	H	1.297726	-0.445534	-0.272144
H78	H	1.469499	-0.059633	-0.071928
H79	H	0.945618	0.096745	-0.114209
Br80	Br	0.605281	0.078072	-0.193656
H81	H	1.075812	-0.000525	-0.721615
Br82	Br	1.207601	0.136000	0.483224
