data_functionalizedCrystal
_audit_creation_method	'MofGen! by Chris Wilmer'
_symmetry_space_group_name_H-M	'P1'
_symmetry_Int_Tables_number	1
_symmetry_cell_setting	triclinic
loop_
_symmetry_equiv_pos_as_xyz
  x,y,z
_cell_length_a	13.897448
_cell_length_b	19.805407
_cell_length_c	19.805399
_cell_angle_alpha	89.980427
_cell_angle_beta	89.974981
_cell_angle_gamma	90.017692
loop_
_atom_site_label
_atom_site_type_symbol
_atom_site_fract_x
_atom_site_fract_y
_atom_site_fract_z
Zn1	Zn	-0.384037	1.034777	-0.382732
Zn2	Zn	-0.545343	1.034709	-0.269549
Zn3	Zn	-0.384064	0.921591	-0.269556
Zn4	Zn	-0.545292	0.921572	-0.382695
O5	O	-0.464684	0.978162	-0.326133
O6	O	-0.405445	1.129484	-0.367730
O7	O	-0.523982	1.019683	-0.174833
O8	O	-0.249079	0.936642	-0.284588
O9	O	-0.523956	1.129434	-0.284575
O10	O	-0.249059	1.019799	-0.367737
O11	O	-0.405490	0.936576	-0.174839
O12	O	-0.405441	0.826872	-0.284552
O13	O	-0.523869	0.936609	-0.477417
O14	O	-0.523894	0.826858	-0.367675
O15	O	-0.405395	1.019780	-0.477443
O16	O	-0.680318	1.019664	-0.284539
O17	O	-0.680280	0.936543	-0.367668
C18	C	-0.464666	0.802306	-0.326111
C19	C	-0.464681	0.727074	-0.326118
C20	C	-0.526453	0.691740	-0.369330
C21	C	-0.526454	0.621052	-0.369339
C22	C	-0.464688	0.585699	-0.326133
C23	C	-0.402910	0.621037	-0.282919
C24	C	-0.402904	0.691725	-0.282913
C25	C	-0.402931	0.335964	-0.282941
C26	C	-0.402944	0.265272	-0.282949
C27	C	-0.526481	0.265292	-0.369367
C28	C	-0.526476	0.335979	-0.369362
C29	C	-0.464694	0.371311	-0.326151
C30	C	-0.464692	0.447960	-0.326142
C31	C	-0.464695	0.509051	-0.326138
C32	C	-0.715298	0.978113	-0.326113
C33	C	-0.822512	0.978154	-0.326128
C34	C	-1.018807	0.978225	-0.326170
C35	C	-0.909575	0.978183	-0.326149
C36	C	-0.213091	0.978230	-0.326167
C37	C	-0.105877	0.978259	-0.326182
C38	C	-0.464623	0.978200	-0.502676
C39	C	-0.464597	0.978216	-0.577908
C40	C	-0.464703	1.154705	-0.326155
C41	C	-0.464711	1.229937	-0.326165
C42	C	-0.402905	1.021524	-0.613267
C43	C	-0.402877	1.021531	-0.683955
C44	C	-0.464547	0.978233	-0.719283
C45	C	-0.526242	0.934920	-0.683919
C46	C	-0.526264	0.934910	-0.613232
C47	C	-0.526152	0.934958	-0.968993
C48	C	-0.526127	0.934973	-1.039685
C49	C	-0.402765	1.021579	-1.039716
C50	C	-0.402787	1.021570	-0.969029
C51	C	-0.464478	0.978255	-0.933671
C52	C	-0.464507	0.978247	-0.857022
C53	C	-0.464524	0.978244	-0.795931
C54	C	-0.464675	0.978163	-0.150277
C55	C	-0.464429	0.978278	-0.075045
H56	H	-0.576775	0.364760	-0.404542
H57	H	-0.576783	0.236515	-0.404554
H58	H	-0.352615	0.592247	-0.247743
C59	C	-0.335021	1.069176	-0.722851
C60	C	-0.334989	1.069189	-0.800604
C61	C	-0.267130	1.116836	-0.839499
C62	C	-0.199304	1.164469	-0.800640
C63	C	-0.199334	1.164458	-0.722883
C64	C	-0.267193	1.116811	-0.683988
H65	H	-0.385200	1.033926	-0.829373
H66	H	-0.267108	1.116844	-0.897060
H67	H	-0.149071	1.199741	-0.829433
H68	H	-0.149123	1.199721	-0.694114
H69	H	-0.267215	1.116803	-0.626427
C70	C	-0.594129	0.887274	-0.574331
C71	C	-0.586248	0.810332	-0.584034
C72	C	-0.654111	0.762693	-0.545133
C73	C	-0.729854	0.791997	-0.496529
C74	C	-0.737738	0.868943	-0.486824
C75	C	-0.669875	0.916582	-0.525725
H76	H	-0.530176	0.788637	-0.620016
H77	H	-0.648274	0.705733	-0.552318
H78	H	-0.780090	0.756731	-0.467732
H79	H	-0.793810	0.890638	-0.450842
H80	H	-0.675712	0.973542	-0.518540
C81	C	-0.594409	0.582188	-0.416873
C82	C	-0.704052	0.591886	-0.411207
C83	C	-0.772010	0.553024	-0.458744
C84	C	-0.730323	0.504463	-0.511947
C85	C	-0.620674	0.494763	-0.517614
C86	C	-0.552717	0.533625	-0.470077
H87	H	-0.734916	0.627835	-0.371822
H88	H	-0.853179	0.560205	-0.454549
H89	H	-0.780630	0.475695	-0.547137
H90	H	-0.589811	0.458813	-0.557000
H91	H	-0.471547	0.526444	-0.474273
H92	H	-0.576753	0.720520	-0.404511
C93	C	-0.334992	0.226381	-0.235422
C94	C	-0.267031	0.265244	-0.187893
C95	C	-0.199085	0.226353	-0.140369
C96	C	-0.199100	0.148600	-0.140374
C97	C	-0.267063	0.109733	-0.187905
C98	C	-0.335009	0.148624	-0.235429
H99	H	-0.267018	0.322805	-0.187888
H100	H	-0.148774	0.255125	-0.105184
H101	H	-0.148802	0.119810	-0.105194
H102	H	-0.267076	0.052172	-0.187910
H103	H	-0.385320	0.119852	-0.270615
H104	H	-0.352632	0.364723	-0.247751
H105	H	-0.352530	1.056846	-1.068513
H106	H	-0.352598	0.720492	-0.247729
C107	C	-0.335066	1.069154	-0.574409
C108	C	-0.225407	1.063659	-0.584143
C109	C	-0.157564	1.111288	-0.545287
C110	C	-0.199380	1.164412	-0.496697
C111	C	-0.309044	1.169909	-0.486961
C112	C	-0.376888	1.122280	-0.525817
H113	H	-0.194448	1.024332	-0.620114
H114	H	-0.076383	1.107218	-0.552495
H115	H	-0.149158	1.199670	-0.467934
H116	H	-0.340004	1.209236	-0.450990
H117	H	-0.458069	1.126349	-0.518610
C118	C	-0.593960	0.887337	-1.078548
C119	C	-0.661814	0.839688	-1.039657
C120	C	-0.729642	0.792054	-1.078520
C121	C	-0.729618	0.792070	-1.156273
C122	C	-0.661761	0.839720	-1.195168
C123	C	-0.593933	0.887354	-1.156305
H124	H	-0.661834	0.839675	-0.982096
H125	H	-0.779874	0.756780	-1.049728
H126	H	-0.779828	0.756808	-1.185042
H127	H	-0.661741	0.839733	-1.252729
H128	H	-0.543701	0.922628	-1.185098
C129	C	-0.594095	0.887297	-0.722772
C130	C	-0.586234	0.810351	-0.713042
C131	C	-0.654098	0.762730	-0.751890
C132	C	-0.729823	0.792055	-0.800469
C133	C	-0.737686	0.869005	-0.810202
C134	C	-0.669822	0.916626	-0.771353
H135	H	-0.530175	0.788639	-0.677079
H136	H	-0.648276	0.705767	-0.744685
H137	H	-0.780060	0.756804	-0.829227
H138	H	-0.793745	0.890717	-0.846165
H139	H	-0.675644	0.973589	-0.778558
H140	H	-0.352573	1.056830	-0.940268
H141	H	-0.576398	0.899699	-0.940213
