data_functionalizedCrystal
_audit_creation_method	'MofGen! by Chris Wilmer'
_symmetry_space_group_name_H-M	'P1'
_symmetry_Int_Tables_number	1
_symmetry_cell_setting	triclinic
loop_
_symmetry_equiv_pos_as_xyz
  x,y,z
_cell_length_a	19.121102
_cell_length_b	16.120507
_cell_length_c	16.120297
_cell_angle_alpha	84.388175
_cell_angle_beta	90.563713
_cell_angle_gamma	89.388254
loop_
_atom_site_label
_atom_site_type_symbol
_atom_site_fract_x
_atom_site_fract_y
_atom_site_fract_z
Zn1	Zn	1.032818	0.411926	-0.544470
Zn2	Zn	1.532818	0.911926	-0.044470
Zn3	Zn	1.032714	0.544610	-0.411770
Zn4	Zn	1.532714	1.044610	0.088230
Zn5	Zn	0.922145	0.398949	-0.398820
Zn6	Zn	1.422145	0.898949	0.101180
Zn7	Zn	0.909609	0.545075	-0.544933
Zn8	Zn	1.409609	1.045075	-0.044933
O9	O	0.974321	0.475140	-0.474998
O10	O	1.474321	0.975140	0.025002
O11	O	1.130641	0.434763	-0.532093
O12	O	1.630641	0.934763	-0.032093
O13	O	1.023249	0.519663	-0.293368
O14	O	1.523249	1.019663	0.206632
O15	O	0.942116	0.283988	-0.412527
O16	O	1.442116	0.783988	0.087473
O17	O	1.130564	0.532246	-0.434599
O18	O	1.630564	1.032246	0.065401
O19	O	1.023427	0.293521	-0.519536
O20	O	1.523427	0.793521	-0.019536
O21	O	0.942015	0.412646	-0.283853
O22	O	1.442015	0.912646	0.216147
O23	O	0.822645	0.413097	-0.412976
O24	O	1.322645	0.913097	0.087024
O25	O	0.920750	0.533037	-0.661556
O26	O	1.420750	1.033037	-0.161556
O27	O	0.813435	0.520454	-0.520325
O28	O	1.313435	1.020454	-0.020325
O29	O	1.011271	0.435213	-0.661216
O30	O	1.511271	0.935213	-0.161216
O31	O	1.011094	0.661355	-0.435048
O32	O	1.511094	1.161355	0.064952
O33	O	0.920649	0.661696	-0.532882
O34	O	1.420649	1.161696	-0.032882
C35	C	0.792672	0.465418	-0.465296
C36	C	1.292672	0.965418	0.034704
C37	C	0.714960	0.461280	-0.461166
C38	C	1.214960	0.961280	0.038834
C39	C	0.673674	0.515308	-0.515036
C40	C	1.173674	1.015308	-0.015036
C41	C	0.600656	0.511410	-0.511159
C42	C	1.100656	1.011410	-0.011159
C43	C	0.568924	0.453486	-0.453407
C44	C	1.068924	0.953486	0.046593
C45	C	0.610216	0.399453	-0.399534
C46	C	1.110216	0.899453	0.100466
C47	C	0.683233	0.403348	-0.403416
C48	C	1.183233	0.903348	0.096584
C49	C	0.348699	0.438921	-0.438898
C50	C	0.848699	0.938921	0.061102
C51	C	0.275676	0.435031	-0.435019
C52	C	0.775676	0.935031	0.064981
C53	C	0.266121	0.546988	-0.546646
C54	C	0.766121	1.046988	-0.046646
C55	C	0.339140	0.550881	-0.550519
C56	C	0.839140	1.050881	-0.050519
C57	C	0.380425	0.496845	-0.496649
C58	C	0.880425	0.996845	0.003351
C59	C	0.494288	0.449502	-0.449441
C60	C	0.994288	0.949502	0.050559
C61	C	0.455060	0.500826	-0.500620
C62	C	0.955060	1.000826	-0.000620
C63	C	0.964518	0.691782	-0.485440
C64	C	1.464518	1.191782	0.014560
C65	C	0.960387	0.784467	-0.489938
C66	C	1.460387	1.284467	0.010062
C67	C	0.995810	0.995269	-0.451795
C68	C	1.495810	1.495269	0.048205
C69	C	0.952857	0.954159	-0.498160
C70	C	1.452857	1.454159	0.001840
C71	C	0.957048	0.859733	-0.493584
C72	C	1.457048	1.359733	0.006416
C73	C	0.991620	1.089703	-0.456370
C74	C	1.491620	1.589703	0.043630
C75	C	1.156680	0.484900	-0.484739
C76	C	1.656680	0.984900	0.015261
C77	C	1.234390	0.489059	-0.488890
C78	C	1.734390	0.989059	0.011110
C79	C	0.964624	0.485625	-0.692487
C80	C	1.464624	0.985625	-0.192487
C81	C	0.960492	0.490093	-0.785168
C82	C	1.460492	0.990093	-0.285168
C83	C	0.984155	1.257652	-0.464521
C84	C	1.484155	1.757652	0.035479
C85	C	0.988278	1.164966	-0.460020
C86	C	1.488278	1.664966	0.039980
C87	C	0.952922	0.498230	-0.954854
C88	C	1.452922	0.998230	-0.454854
C89	C	0.995870	0.451807	-0.995989
C90	C	1.495870	0.951807	-0.495989
C91	C	0.991658	0.456335	-1.090409
C92	C	1.491658	0.956335	-0.590409
C93	C	0.957133	0.493703	-0.860426
C94	C	1.457133	0.993703	-0.360426
C95	C	0.984024	0.464638	-0.258355
C96	C	1.484024	0.964638	0.241645
C97	C	0.988302	0.459942	-0.165670
C98	C	1.488302	0.959942	0.334330
H99	H	0.699504	0.562478	-0.562062
H100	H	1.199504	1.062478	-0.062062
H101	H	0.716848	0.359349	-0.359553
H102	H	1.216848	0.859349	0.140447
N103	N	0.902824	0.552338	-0.999631
N104	N	1.402824	1.052338	-0.499631
N105	N	0.857483	0.522892	-1.044447
N106	N	1.357483	1.022892	-0.544447
H107	H	0.822102	0.561104	-1.076082
H108	H	1.322102	1.061104	-0.576082
N109	N	0.558498	0.566616	-0.566187
N110	N	1.058498	1.066616	-0.066187
N111	N	0.563431	0.643709	-0.564663
N112	N	1.063431	1.143709	-0.064663
H113	H	0.533659	0.682703	-0.603530
H114	H	1.033659	1.182703	-0.103530
N115	N	0.371539	0.610056	-0.609515
N116	N	0.871539	1.110056	-0.109515
N117	N	0.334668	0.658292	-0.657611
N118	N	0.834668	1.158292	-0.157611
H119	H	0.357549	0.700087	-0.699276
H120	H	0.857549	1.200087	-0.199276
H121	H	0.232499	0.590980	-0.590505
H122	H	0.732499	1.090980	-0.090505
N123	N	0.577816	0.340273	-0.340543
N124	N	1.077816	0.840273	0.159457
N125	N	0.589200	0.264049	-0.342928
N126	N	1.089200	0.764049	0.157072
H127	H	0.566320	0.222252	-0.301263
H128	H	1.066320	0.722252	0.198737
H129	H	0.480899	0.547983	-0.547645
H130	H	0.980899	1.047983	-0.047645
H131	H	0.912936	0.989880	-0.541291
H132	H	1.412936	1.489880	-0.041291
N133	N	1.045959	0.397683	-0.951205
N134	N	1.545959	0.897683	-0.451205
N135	N	1.049352	0.394035	-0.873456
N136	N	1.549352	0.894035	-0.373456
H137	H	1.084726	0.355812	-0.841822
H138	H	1.584726	0.855812	-0.341822
N139	N	0.243274	0.375856	-0.376018
N140	N	0.743274	0.875856	0.123982
N141	N	0.280142	0.327613	-0.327926
N142	N	0.780142	0.827613	0.172074
H143	H	0.257258	0.285823	-0.286257
H144	H	0.757258	0.785823	0.213743
N145	N	0.390854	0.383725	-0.383863
N146	N	0.890854	0.883725	0.116137
N147	N	0.362511	0.332018	-0.332299
N148	N	0.862511	0.832018	0.167701
H149	H	0.392285	0.293034	-0.293424
H150	H	0.892285	0.793034	0.206576
H151	H	0.468444	0.402342	-0.402417
H152	H	0.968444	0.902342	0.097583
H153	H	1.035728	0.959551	-0.408666
H154	H	1.535728	1.459551	0.091334
