data_functionalizedCrystal
_audit_creation_method	'MofGen! by Chris Wilmer'
_symmetry_space_group_name_H-M	'P1'
_symmetry_Int_Tables_number	1
_symmetry_cell_setting	triclinic
loop_
_symmetry_equiv_pos_as_xyz
  x,y,z
_cell_length_a	19.188924
_cell_length_b	19.188905
_cell_length_c	18.266242
_cell_angle_alpha	89.983837
_cell_angle_beta	89.991576
_cell_angle_gamma	83.138260
loop_
_atom_site_label
_atom_site_type_symbol
_atom_site_fract_x
_atom_site_fract_y
_atom_site_fract_z
O1	O	0.087086	0.926158	-0.061005
O2	O	0.587086	1.426158	0.438995
O3	O	0.098838	0.722844	-0.060980
O4	O	0.598838	1.222844	0.439020
O5	O	-0.008694	0.830371	-0.060985
O6	O	0.491306	1.330371	0.439015
O7	O	0.194619	0.818632	-0.061001
O8	O	0.694619	1.318632	0.438999
O9	O	-0.008700	0.830353	0.060777
O10	O	0.491300	1.330353	0.560777
O11	O	0.098833	0.722826	0.060782
O12	O	0.598833	1.222826	0.560782
O13	O	0.087080	0.926140	0.060757
O14	O	0.587080	1.426140	0.560757
Zn15	Zn	0.092956	0.824480	0.080102
Zn16	Zn	0.592956	1.324480	0.580102
Zn17	Zn	0.092963	0.824504	-0.080325
Zn18	Zn	0.592963	1.324504	0.419675
O19	O	0.194613	0.818613	0.060761
O20	O	0.694613	1.318613	0.560761
C21	C	0.098458	0.696824	-0.000096
C22	C	0.598458	1.196824	0.499904
C23	C	0.097324	0.619318	-0.000086
C24	C	0.597324	1.119318	0.499914
C25	C	-0.034708	0.829982	-0.000103
C26	C	0.465292	1.329982	0.499897
C27	C	-0.112213	0.828844	-0.000101
C28	C	0.387787	1.328844	0.499899
C29	C	0.096783	0.582937	-0.066461
C30	C	0.596783	1.082937	0.433539
C31	C	0.095710	0.510113	-0.066470
C32	C	0.595710	1.010113	0.433530
C33	C	0.095164	0.473676	-0.000101
C34	C	0.595164	0.973676	0.499899
C35	C	0.095710	0.510066	0.066282
C36	C	0.595710	1.010066	0.566282
C37	C	0.096790	0.582887	0.066290
C38	C	0.596790	1.082887	0.566290
N39	N	0.053733	0.364649	0.049295
N40	N	0.553733	0.864649	0.549295
N41	N	0.052706	0.295472	0.049283
N42	N	0.552706	0.795472	0.549283
C43	C	0.091911	0.254269	-0.000118
C44	C	0.591911	0.754269	0.499882
N45	N	0.132175	0.284858	-0.049519
N46	N	0.632175	0.784858	0.450481
N47	N	0.133199	0.354041	-0.049510
N48	N	0.633199	0.854041	0.450490
C49	C	0.093993	0.394713	-0.000101
C50	C	0.593993	0.894713	0.499899
C51	C	0.090207	0.138924	-0.066507
C52	C	0.590207	0.638924	0.433493
C53	C	0.089139	0.066098	-0.066513
C54	C	0.589139	0.566098	0.433487
C55	C	0.089132	0.066054	0.066241
C56	C	0.589132	0.566054	0.566241
C57	C	0.090208	0.138877	0.066245
C58	C	0.590208	0.638877	0.566245
C59	C	0.090742	0.175308	-0.000131
C60	C	0.590742	0.675308	0.499869
C61	C	-0.148609	0.828322	-0.066473
C62	C	0.351391	1.328322	0.433527
C63	C	-0.221431	0.827242	-0.066479
C64	C	0.278569	1.327242	0.433521
C65	C	-0.257857	0.826698	-0.000108
C66	C	0.242143	1.326698	0.499892
C67	C	-0.221452	0.827216	0.066273
C68	C	0.278548	1.327216	0.566273
C69	C	-0.148630	0.828289	0.066277
C70	C	0.351370	1.328289	0.566277
N71	N	-0.377526	0.864739	0.049286
N72	N	0.122474	1.364739	0.549286
N73	N	-0.446704	0.863721	0.049278
N74	N	0.053296	1.363721	0.549278
C75	C	-0.477266	0.823464	-0.000115
C76	C	0.022734	1.323464	0.499885
N77	N	-0.436038	0.784271	-0.049510
N78	N	0.063962	1.284271	0.450490
N79	N	-0.366853	0.785292	-0.049504
N80	N	0.133147	1.285292	0.450496
C81	C	-0.336821	0.825534	-0.000104
C82	C	0.163179	1.325534	0.499896
C83	C	-0.592624	0.821770	-0.066498
C84	C	-0.092624	1.321770	0.433502
C85	C	-0.665448	0.820686	-0.066500
C86	C	-0.165448	1.320686	0.433500
C87	C	-0.665468	0.820666	0.066254
C88	C	-0.165468	1.320666	0.566254
C89	C	-0.592645	0.821744	0.066255
C90	C	-0.092645	1.321744	0.566255
C91	C	-0.556228	0.822299	-0.000123
C92	C	-0.056228	1.322299	0.499877
C93	C	0.220627	0.819002	-0.000122
C94	C	0.720627	1.319002	0.499878
C95	C	0.298132	0.820141	-0.000129
C96	C	0.798132	1.320141	0.499871
C97	C	0.087461	0.952160	-0.000129
C98	C	0.587461	1.452160	0.499871
C99	C	0.088594	1.029666	-0.000143
C100	C	0.588594	1.529666	0.499857
N101	N	0.092950	0.824469	0.189589
N102	N	0.592950	1.324469	0.689589
N103	N	0.092963	0.824521	-0.189812
N104	N	0.592963	1.324521	0.310188
C105	C	0.045358	0.872097	0.227896
C106	C	0.545358	1.372097	0.727896
C107	C	0.045355	0.872102	0.304541
C108	C	0.545355	1.372102	0.804541
C109	C	0.092956	0.824484	0.342876
C110	C	0.592956	1.324484	0.842876
C111	C	0.140552	0.776847	0.304559
C112	C	0.640552	1.276847	0.804559
C113	C	0.140549	0.776839	0.227916
C114	C	0.640549	1.276839	0.727916
N115	N	0.154764	0.815407	0.463204
N116	N	0.654764	1.315407	0.963204
N117	N	0.154765	0.815419	0.536012
N118	N	0.654765	1.315419	1.036012
C119	C	0.092966	0.824504	0.573798
C120	C	0.592966	1.324504	1.073798
N121	N	0.031165	0.833591	0.536025
N122	N	0.531165	1.333591	1.036025
N123	N	0.031165	0.833583	0.463211
N124	N	0.531165	1.333583	0.963211
C125	C	0.092964	0.824487	0.425983
C126	C	0.592964	1.324487	0.925983
C127	C	0.045366	0.872140	0.695212
C128	C	0.545366	1.372140	1.195212
C129	C	0.045362	0.872139	0.771858
C130	C	0.545362	1.372139	1.271858
C131	C	0.140565	0.776888	0.771876
C132	C	0.640565	1.276888	1.271876
C133	C	0.140563	0.776885	0.695231
C134	C	0.640563	1.276885	1.195231
C135	C	0.092964	0.824515	0.656904
C136	C	0.592964	1.324515	1.156904
H137	H	0.097218	0.612594	-0.120509
H138	H	0.597218	1.112594	0.379491
H139	H	0.006598	0.910888	0.335736
H140	H	0.506598	1.410888	0.835736
H141	H	0.095267	0.480394	0.120321
H142	H	0.595267	0.980394	0.620321
Br143	Br	0.094976	0.460726	-0.156556
Br144	Br	0.594976	0.960726	0.343444
H145	H	0.179320	0.738105	0.664039
H146	H	0.679320	1.238105	1.164039
H147	H	0.097231	0.612509	0.120341
H148	H	0.597231	1.112509	0.620341
Br149	Br	-0.019233	0.936777	0.643195
Br150	Br	0.480767	1.436777	1.143195
H151	H	0.090650	0.168586	-0.120554
H152	H	0.590650	0.668586	0.379446
Br153	Br	-0.099188	0.829072	-0.156557
Br154	Br	0.400812	1.329072	0.343443
H155	H	-0.562972	0.822218	-0.120546
H156	H	-0.062972	1.322218	0.379454
Br157	Br	0.205143	0.712195	0.175923
Br158	Br	0.705143	1.212195	0.675923
Br159	Br	0.088413	0.016720	-0.156601
Br160	Br	0.588413	0.516720	0.343399
Br161	Br	-0.019239	0.936777	0.823851
Br162	Br	0.480761	1.436777	1.323851
Br163	Br	0.088402	0.016610	0.156316
Br164	Br	0.588402	0.516610	0.656316
H165	H	0.006599	0.910878	0.196692
H166	H	0.506599	1.410878	0.696692
H167	H	0.179320	0.738115	0.803088
H168	H	0.679320	1.238115	1.303088
Br169	Br	0.090941	0.188256	0.156330
Br170	Br	0.590941	0.688256	0.656330
H171	H	-0.251114	0.826770	0.120313
H172	H	0.248886	1.326770	0.620313
H173	H	0.179308	0.738075	0.335776
H174	H	0.679308	1.238075	0.835776
Br175	Br	-0.270837	0.826532	-0.156562
Br176	Br	0.229163	1.326532	0.343438
Br177	Br	-0.099231	0.828993	0.156361
Br178	Br	0.400769	1.328993	0.656361
Br179	Br	-0.714894	0.819921	0.156331
Br180	Br	-0.214894	1.319921	0.656331
Br181	Br	-0.543247	0.822448	0.156337
Br182	Br	-0.043247	1.322448	0.656337
Br183	Br	-0.714843	0.819970	-0.156586
Br184	Br	-0.214843	1.319970	0.343414
