data_functionalizedCrystal
_audit_creation_method	'MofGen! by Chris Wilmer'
_symmetry_space_group_name_H-M	'P1'
_symmetry_Int_Tables_number	1
_symmetry_cell_setting	triclinic
loop_
_symmetry_equiv_pos_as_xyz
  x,y,z
_cell_length_a	21.295418
_cell_length_b	29.839131
_cell_length_c	21.295412
_cell_angle_alpha	89.970612
_cell_angle_beta	89.957310
_cell_angle_gamma	90.057233
loop_
_atom_site_label
_atom_site_type_symbol
_atom_site_fract_x
_atom_site_fract_y
_atom_site_fract_z
Zn1	Zn	0.962302	-0.178675	-0.356239
Zn2	Zn	1.462302	0.321325	0.143761
Zn3	Zn	0.962186	-0.253802	-0.250967
Zn4	Zn	1.462186	0.246198	0.249033
Zn5	Zn	0.857027	-0.178708	-0.250949
Zn6	Zn	1.357027	0.321292	0.249051
Zn7	Zn	0.856974	-0.253799	-0.356163
Zn8	Zn	1.356974	0.246201	0.143837
O9	O	0.909622	-0.216246	-0.303580
O10	O	1.409622	0.283754	0.196420
O11	O	1.050376	-0.188628	-0.342314
O12	O	1.550376	0.311372	0.157686
O13	O	0.948210	-0.243856	-0.162875
O14	O	1.448210	0.256144	0.337125
O15	O	0.871062	-0.115836	-0.264940
O16	O	1.371062	0.384164	0.235060
O17	O	1.050291	-0.243824	-0.264971
O18	O	1.550291	0.256176	0.235029
O19	O	0.948407	-0.115812	-0.342296
O20	O	1.448407	0.384188	0.157704
O21	O	0.870950	-0.188684	-0.162862
O22	O	1.370950	0.311316	0.337138
O23	O	0.768930	-0.188681	-0.264867
O24	O	1.268930	0.311319	0.235133
O25	O	0.870972	-0.243819	-0.444263
O26	O	1.370972	0.256181	0.055737
O27	O	0.768892	-0.243851	-0.342167
O28	O	1.268892	0.256149	0.157833
O29	O	0.948356	-0.188625	-0.444319
O30	O	1.448356	0.311375	0.055681
O31	O	0.948159	-0.316669	-0.264897
O32	O	1.448159	0.183331	0.235103
O33	O	0.870860	-0.316667	-0.342185
O34	O	1.370860	0.183333	0.157815
C35	C	0.746070	-0.216270	-0.303507
C36	C	1.246070	0.283730	0.196493
C37	C	0.676102	-0.216291	-0.303491
C38	C	1.176102	0.283709	0.196509
C39	C	0.909508	-0.332969	-0.303548
C40	C	1.409508	0.167031	0.196452
C41	C	0.909517	-0.382903	-0.303556
C42	C	1.409517	0.117097	0.196444
C43	C	0.643232	-0.245055	-0.343681
C44	C	1.143232	0.254945	0.156319
C45	C	0.577489	-0.245044	-0.343710
C46	C	1.077489	0.254956	0.156290
C47	C	0.544620	-0.216273	-0.303536
C48	C	1.044620	0.283727	0.196464
C49	C	0.577498	-0.187503	-0.263343
C50	C	1.077498	0.312497	0.236657
C51	C	0.643239	-0.187512	-0.263321
C52	C	1.143239	0.312488	0.236679
N53	N	0.441346	-0.212763	-0.248479
N54	N	0.941346	0.287237	0.251521
N55	N	0.378894	-0.212757	-0.248502
N56	N	0.878894	0.287243	0.251498
C57	C	0.346545	-0.216245	-0.303603
C58	C	0.846545	0.283755	0.196397
N59	N	0.379007	-0.219746	-0.358681
N60	N	0.879007	0.280254	0.141319
N61	N	0.441464	-0.219754	-0.358657
N62	N	0.941464	0.280246	0.141343
C63	C	0.473334	-0.216260	-0.303557
C64	C	0.973334	0.283740	0.196443
C65	C	0.242389	-0.244999	-0.343827
C66	C	0.742389	0.255001	0.156173
C67	C	0.176646	-0.244985	-0.343857
C68	C	0.676646	0.255015	0.156143
C69	C	0.176656	-0.187445	-0.263485
C70	C	0.676656	0.312555	0.236515
C71	C	0.242398	-0.187457	-0.263461
C72	C	0.742398	0.312543	0.236539
C73	C	0.275261	-0.216236	-0.303632
C74	C	0.775261	0.283764	0.196368
C75	C	0.949945	-0.692535	-0.263395
C76	C	1.449945	-0.192535	0.236605
C77	C	0.950022	-0.880208	-0.263419
C78	C	1.450022	-0.380208	0.236581
O79	O	0.984305	-0.904463	-0.229249
O80	O	1.484305	-0.404463	0.270751
N81	N	0.909753	-0.903688	-0.303627
N82	N	1.409753	-0.403688	0.196373
C83	C	0.869463	-0.880247	-0.343835
C84	C	1.369463	-0.380247	0.156165
O85	O	0.835218	-0.904525	-0.378039
O86	O	1.335218	-0.404525	0.121961
C87	C	0.869389	-0.692575	-0.343813
C88	C	1.369389	-0.192575	0.156187
C89	C	0.909657	-0.669097	-0.303598
C90	C	1.409657	-0.169097	0.196402
C91	C	0.990210	-0.669057	-0.223184
C92	C	1.490210	-0.169057	0.276816
C93	C	0.990188	-0.622142	-0.223176
C94	C	1.490188	-0.122142	0.276824
C95	C	0.949900	-0.598704	-0.263379
C96	C	1.449900	-0.098704	0.236621
C97	C	0.909635	-0.622182	-0.303590
C98	C	1.409635	-0.122182	0.196410
C99	C	0.829104	-0.669135	-0.384023
C100	C	1.329104	-0.169135	0.115977
C101	C	0.829090	-0.622214	-0.384015
C102	C	1.329090	-0.122214	0.115985
C103	C	0.869358	-0.598736	-0.343800
C104	C	1.369358	-0.098736	0.156200
C105	C	0.869325	-0.551829	-0.343785
C106	C	1.369325	-0.051829	0.156215
N107	N	0.909595	-0.528348	-0.303577
N108	N	1.409595	-0.028348	0.196423
C109	C	0.949883	-0.551786	-0.263374
C110	C	1.449883	-0.051786	0.236626
C111	C	0.869504	-0.978778	-0.343842
C112	C	1.369504	-0.478778	0.156158
C113	C	0.869522	-1.025696	-0.343847
C114	C	1.369522	-0.525696	0.156153
C115	C	0.950082	-1.025653	-0.263432
C116	C	1.450082	-0.525653	0.236568
C117	C	0.950061	-0.978734	-0.263425
C118	C	1.450061	-0.478734	0.236575
C119	C	0.909774	-0.955298	-0.303634
C120	C	1.409774	-0.455298	0.196366
C121	C	0.949832	-0.453260	-0.263359
C122	C	1.449832	0.046740	0.236641
C123	C	0.949805	-0.406341	-0.263353
C124	C	1.449805	0.093659	0.236647
C125	C	0.869247	-0.406387	-0.343770
C126	C	1.369247	0.093613	0.156230
C127	C	0.869273	-0.453303	-0.343774
C128	C	1.369273	0.046697	0.156226
C129	C	0.909570	-0.476738	-0.303567
C130	C	1.409570	0.023262	0.196433
O131	O	0.835066	-0.527545	-0.377942
O132	O	1.335066	-0.027545	0.122058
O133	O	0.984133	-0.527500	-0.229185
O134	O	1.484133	-0.027500	0.270815
C135	C	0.949967	-0.739450	-0.263403
C136	C	1.449967	-0.239450	0.236597
C137	C	0.909702	-0.762928	-0.303614
C138	C	1.409702	-0.262928	0.196386
C139	C	0.869414	-0.739490	-0.343817
C140	C	1.369414	-0.239490	0.156183
C141	C	0.909719	-0.809846	-0.303619
C142	C	1.409719	-0.309846	0.196381
C143	C	0.950007	-0.833284	-0.263416
C144	C	1.450007	-0.333284	0.236584
C145	C	0.990277	-0.809803	-0.223208
C146	C	1.490277	-0.309803	0.276792
C147	C	0.990254	-0.762888	-0.223200
C148	C	1.490254	-0.262888	0.276800
C149	C	0.829145	-0.762971	-0.384025
C150	C	1.329145	-0.262971	0.115975
C151	C	0.829170	-0.809886	-0.384029
C152	C	1.329170	-0.309886	0.115971
C153	C	0.869457	-0.833324	-0.343826
C154	C	1.369457	-0.333324	0.156174
C155	C	1.073812	-0.216223	-0.303653
C156	C	1.573812	0.283777	0.196347
C157	C	1.143781	-0.216213	-0.303684
C158	C	1.643781	0.283787	0.196316
C159	C	0.909671	-0.216218	-0.467770
C160	C	1.409671	0.283782	0.032230
C161	C	0.909692	-0.216206	-0.537738
C162	C	1.409692	0.283794	-0.037738
C163	C	0.909753	-0.099068	-0.303625
C164	C	1.409753	0.400932	0.196375
C165	C	0.909809	-0.049133	-0.303644
C166	C	1.409809	0.450867	0.196356
C167	C	0.869474	-0.187475	-0.570588
C168	C	1.369474	0.312525	-0.070588
C169	C	0.869472	-0.187467	-0.636331
C170	C	1.369472	0.312533	-0.136331
C171	C	0.909699	-0.216185	-0.669221
C172	C	1.409699	0.283815	-0.169221
C173	C	0.949921	-0.244921	-0.636363
C174	C	1.449921	0.255079	-0.136363
C175	C	0.949917	-0.244932	-0.570622
C176	C	1.449917	0.255068	-0.070622
N177	N	0.964803	-0.219605	-0.772477
N178	N	1.464803	0.280395	-0.272477
N179	N	0.964804	-0.219592	-0.834929
N180	N	1.464804	0.280408	-0.334929
C181	C	0.909711	-0.216155	-0.867295
C182	C	1.409711	0.283845	-0.367295
N183	N	0.854615	-0.212722	-0.834851
N184	N	1.354615	0.287278	-0.334851
N185	N	0.854614	-0.212733	-0.772394
N186	N	1.354614	0.287267	-0.272394
C187	C	0.909707	-0.216177	-0.740506
C188	C	1.409707	0.283823	-0.240506
C189	C	0.869486	-0.187413	-0.971431
C190	C	1.369486	0.312587	-0.471431
C191	C	0.869483	-0.187408	-1.037175
C192	C	1.369483	0.312592	-0.537175
C193	C	0.949938	-0.244860	-1.037206
C194	C	1.449938	0.255140	-0.537206
C195	C	0.949935	-0.244868	-0.971463
C196	C	1.449935	0.255132	-0.471463
C197	C	0.909711	-0.216142	-0.938580
C198	C	1.409711	0.283858	-0.438580
C199	C	0.909609	-0.216241	-0.140028
C200	C	1.409609	0.283759	0.359972
C201	C	0.909710	-0.216127	-0.070060
C202	C	1.409710	0.283873	0.429940
H203	H	0.669985	-0.268489	-0.376392
H204	H	1.169985	0.231511	0.123608
H205	H	0.149894	-0.164017	-0.230778
H206	H	0.649894	0.335983	0.269222
H207	H	0.550721	-0.268468	-0.376440
H208	H	1.050721	0.231532	0.123560
H209	H	0.836726	-1.044807	-0.376588
H210	H	1.336726	-0.544807	0.123412
H211	H	0.982674	-0.268304	-0.663146
H212	H	1.482674	0.231696	-0.163146
Cl213	Cl	1.000431	-0.376829	-0.212794
Cl214	Cl	1.500431	0.123171	0.287206
Cl215	Cl	0.536177	-0.151331	-0.212843
Cl216	Cl	1.036177	0.348669	0.287157
H217	H	0.670002	-0.164086	-0.230593
H218	H	1.170002	0.335914	0.269407
H219	H	0.982671	-0.268328	-0.543876
H220	H	1.482671	0.231672	-0.043876
H221	H	0.269148	-0.268430	-0.376540
H222	H	0.769148	0.231570	0.123460
Cl223	Cl	0.818900	-0.151298	-1.078472
Cl224	Cl	1.318900	0.348702	-0.578472
Cl225	Cl	0.283723	-0.151295	-0.212931
Cl226	Cl	0.783723	0.348705	0.287069
Cl227	Cl	0.778492	-0.733513	-0.434571
Cl228	Cl	1.278492	-0.233513	0.065429
Cl229	Cl	0.135322	-0.281147	-0.394390
Cl230	Cl	0.635322	0.218853	0.105610
H231	H	0.836717	-0.164086	-0.543818
H232	H	1.336717	0.335914	-0.043818
H233	H	0.836732	-0.164023	-0.944656
H234	H	1.336732	0.335977	-0.444656
Cl235	Cl	1.000492	-0.482715	-0.212811
Cl236	Cl	1.500492	0.017285	0.287189
H237	H	0.982693	-0.268242	-1.063984
H238	H	1.482693	0.231758	-0.563984
Cl239	Cl	0.818607	-0.376914	-0.394311
Cl240	Cl	1.318607	0.123086	0.105689
Cl241	Cl	1.040823	-0.592634	-0.172627
Cl242	Cl	1.540823	-0.092634	0.327373
H243	H	1.023020	-0.688135	-0.190445
H244	H	1.523020	-0.188135	0.309555
Cl245	Cl	1.040883	-0.733380	-0.172644
Cl246	Cl	1.540883	-0.233380	0.327356
H247	H	0.982850	-0.959622	-0.230679
H248	H	1.482850	-0.459622	0.269321
H249	H	0.836722	-0.164068	-0.663082
H250	H	1.336722	0.335932	-0.163082
Cl251	Cl	1.000503	-0.280986	-0.930164
Cl252	Cl	1.500503	0.219014	-0.430164
H253	H	0.982886	-1.044744	-0.230698
H254	H	1.482886	-0.544744	0.269302
Cl255	Cl	0.818851	-0.949321	-0.394395
Cl256	Cl	1.318851	-0.449321	0.105605
H257	H	0.796285	-0.603134	-0.416761
H258	H	1.296285	-0.103134	0.083239
Cl259	Cl	0.818637	-0.482818	-0.394317
Cl260	Cl	1.318637	0.017182	0.105683
Cl261	Cl	0.778485	-0.698638	-0.434590
Cl262	Cl	1.278485	-0.198638	0.065410
Cl263	Cl	1.040922	-0.839277	-0.172667
Cl264	Cl	1.540922	-0.339277	0.327333
Cl265	Cl	0.778541	-0.839395	-0.434590
Cl266	Cl	1.278541	-0.339395	0.065410
