data_functionalizedCrystal
_audit_creation_method	'MofGen! by Chris Wilmer'
_symmetry_space_group_name_H-M	'P1'
_symmetry_Int_Tables_number	1
_symmetry_cell_setting	triclinic
loop_
_symmetry_equiv_pos_as_xyz
  x,y,z
_cell_length_a	9.065215
_cell_length_b	9.065218
_cell_length_c	8.140239
_cell_angle_alpha	89.998314
_cell_angle_beta	90.001981
_cell_angle_gamma	94.984675
loop_
_atom_site_label
_atom_site_type_symbol
_atom_site_fract_x
_atom_site_fract_y
_atom_site_fract_z
O1	O	-1.960400	0.216335	-0.136579
O2	O	-1.627067	0.549669	0.196754
O3	O	-1.293734	0.883002	0.530088
O4	O	-1.531115	0.234086	-0.136588
O5	O	-1.197782	0.567419	0.196746
O6	O	-0.864448	0.900753	0.530079
O7	O	-1.754631	0.010568	-0.136580
O8	O	-1.421297	0.343901	0.196754
O9	O	-1.087964	0.677235	0.530087
O10	O	-1.736884	0.439853	-0.136587
O11	O	-1.403551	0.773186	0.196746
O12	O	-1.070218	1.106520	0.530080
O13	O	-1.754618	0.010565	0.136647
O14	O	-1.421285	0.343899	0.469981
O15	O	-1.087952	0.677232	0.803314
O16	O	-1.531102	0.234083	0.136639
O17	O	-1.197769	0.567417	0.469973
O18	O	-0.864436	0.900750	0.803306
O19	O	-1.960388	0.216333	0.136648
O20	O	-1.627054	0.549666	0.469981
O21	O	-1.293721	0.882999	0.803315
Zn22	Zn	-1.745743	0.225208	0.180024
Zn23	Zn	-1.412410	0.558541	0.513358
Zn24	Zn	-1.079076	0.891874	0.846691
Zn25	Zn	-1.745760	0.225211	-0.179964
Zn26	Zn	-1.412426	0.558544	0.153369
Zn27	Zn	-1.079093	0.891878	0.486703
O28	O	-1.736872	0.439850	0.136640
O29	O	-1.403538	0.773184	0.469974
O30	O	-1.070205	1.106517	0.803307
C31	C	-1.476122	0.232380	0.000025
C32	C	-1.142789	0.565713	0.333358
C33	C	-0.809455	0.899046	0.666691
C34	C	-1.312279	0.227282	0.000021
C35	C	-0.978946	0.560615	0.333355
C36	C	-0.645612	0.893948	0.666688
C37	C	-1.752919	-0.044420	0.000031
C38	C	-1.419586	0.288914	0.333364
C39	C	-1.086252	0.622247	0.666698
C40	C	-1.747819	-0.208263	0.000023
C41	C	-1.414486	0.125071	0.333356
C42	C	-1.081153	0.458404	0.666690
C43	C	-1.015381	0.218039	0.000031
C44	C	-0.682047	0.551372	0.333364
C45	C	-0.348714	0.884705	0.666698
C46	C	-1.179224	0.223136	0.000021
C47	C	-0.845890	0.556470	0.333354
C48	C	-0.512557	0.889803	0.666687
C49	C	-1.738584	0.494838	0.000026
C50	C	-1.405250	0.828172	0.333359
C51	C	-1.071917	1.161505	0.666692
C52	C	-1.743683	0.658681	0.000023
C53	C	-1.410350	0.992015	0.333356
C54	C	-1.077017	1.325348	0.666690
N55	N	-1.745743	0.225204	0.425707
N56	N	-1.412409	0.558538	0.759040
N57	N	-1.079076	0.891871	1.092374
N58	N	-1.745772	0.225203	-0.425647
N59	N	-1.412438	0.558536	-0.092313
N60	N	-1.079105	0.891869	0.241020
