data_functionalizedCrystal
_audit_creation_method	'MofGen! by Chris Wilmer'
_symmetry_space_group_name_H-M	'P1'
_symmetry_Int_Tables_number	1
_symmetry_cell_setting	triclinic
loop_
_symmetry_equiv_pos_as_xyz
  x,y,z
_cell_length_a	13.897448
_cell_length_b	15.297621
_cell_length_c	15.296720
_cell_angle_alpha	91.615729
_cell_angle_beta	80.353909
_cell_angle_gamma	99.681015
loop_
_atom_site_label
_atom_site_type_symbol
_atom_site_fract_x
_atom_site_fract_y
_atom_site_fract_z
Zn1	Zn	-0.750768	-1.253449	0.726645
Zn2	Zn	-0.250768	-0.753449	1.226645
Zn3	Zn	-0.889665	-1.278721	0.580163
Zn4	Zn	-0.389665	-0.778721	1.080163
Zn5	Zn	-0.696575	-1.132323	0.554882
Zn6	Zn	-0.196575	-0.632323	1.054882
Zn7	Zn	-0.880178	-1.106948	0.701287
Zn8	Zn	-0.380178	-0.606948	1.201287
O9	O	-0.804296	-1.192860	0.640744
O10	O	-0.304296	-0.692860	1.140744
O11	O	-0.795844	-1.379381	0.728407
O12	O	-0.295844	-0.879381	1.228407
O13	O	-0.845342	-1.280498	0.454235
O14	O	-0.345342	-0.780498	0.954235
O15	O	-0.568796	-1.148434	0.577698
O16	O	-0.068796	-0.648434	1.077698
O17	O	-0.897891	-1.397948	0.620788
O18	O	-0.397891	-0.897948	1.120788
O19	O	-0.608611	-1.237424	0.703892
O20	O	-0.108611	-0.737424	1.203892
O21	O	-0.703479	-1.172940	0.435661
O22	O	-0.203479	-0.672940	0.935661
O23	O	-0.694279	-1.006378	0.553109
O24	O	-0.194279	-0.506378	1.053109
O25	O	-0.881721	-1.105185	0.827225
O26	O	-0.381721	-0.605185	1.327225
O27	O	-0.829172	-0.987735	0.660673
O28	O	-0.329172	-0.487735	1.160673
O29	O	-0.786644	-1.212819	0.845855
O30	O	-0.286644	-0.712819	1.345855
O31	O	-1.023375	-1.255892	0.596198
O32	O	-0.523375	-0.755892	1.096198
O33	O	-1.016404	-1.129691	0.685187
O34	O	-0.516404	-0.629691	1.185187
C35	C	-0.754816	-0.965273	0.601396
C36	C	-0.254816	-0.465273	1.101396
C37	C	-0.733674	-0.867906	0.584584
C38	C	-0.233674	-0.367906	1.084584
C39	C	-1.054893	-1.192801	0.640708
C40	C	-0.554893	-0.692801	1.140708
C41	C	-1.162121	-1.192850	0.640735
C42	C	-0.662121	-0.692850	1.140735
C43	C	-0.955360	-0.554778	0.760868
C44	C	-0.455360	-0.054778	1.260868
C45	C	-0.975230	-0.646259	0.776661
C46	C	-0.475230	-0.146259	1.276661
C47	C	-0.914843	-0.701675	0.728644
C48	C	-0.414843	-0.201675	1.228644
C49	C	-0.834582	-0.665601	0.664829
C50	C	-0.334582	-0.165601	1.164829
C51	C	-0.814714	-0.574112	0.649029
C52	C	-0.314714	-0.074112	1.149029
C53	C	-0.774197	-0.721009	0.616805
C54	C	-0.274197	-0.221009	1.116805
C55	C	-0.693936	-0.684936	0.552990
C56	C	-0.193936	-0.184936	1.052990
C57	C	-0.674072	-0.593455	0.537194
C58	C	-0.174072	-0.093455	1.037194
C59	C	-0.734459	-0.538039	0.585211
C60	C	-0.234459	-0.038039	1.085211
C61	C	-0.794065	-0.812499	0.632605
C62	C	-0.294065	-0.312499	1.132605
C63	C	-0.653419	-0.831833	0.520766
C64	C	-0.153419	-0.331833	1.020766
C65	C	-0.633549	-0.740352	0.504973
C66	C	-0.133549	-0.240352	1.004973
C67	C	-1.358445	-1.192933	0.640806
C68	C	-0.858445	-0.692933	1.140806
C69	C	-1.249196	-1.192884	0.640769
C70	C	-0.749196	-0.692884	1.140769
C71	C	-0.552729	-1.192941	0.640804
C72	C	-0.052729	-0.692941	1.140804
C73	C	-0.445527	-1.192975	0.640829
C74	C	0.054473	-0.692975	1.140829
C75	C	-0.839169	-1.153352	0.869211
C76	C	-0.339169	-0.653352	1.369211
C77	C	-0.854030	-1.136516	0.966570
C78	C	-0.354030	-0.636516	1.466570
C79	C	-0.853962	-0.421338	0.680239
C80	C	-0.353962	0.078662	1.180239
C81	C	-0.875105	-0.518705	0.697050
C82	C	-0.375105	-0.018705	1.197050
C83	C	-0.769501	-1.232265	0.413175
C84	C	-0.269501	-0.732265	0.913175
C85	C	-0.754405	-1.249271	0.315846
C86	C	-0.254405	-0.749271	0.815846
C87	C	-0.697923	-1.313222	1.279810
C88	C	-0.197923	-0.813222	1.779810
C89	C	-0.683963	-1.329046	1.188337
C90	C	-0.183963	-0.829046	1.688337
C91	C	-0.726478	-1.280915	1.132891
C92	C	-0.226478	-0.780915	1.632891
C93	C	-0.782956	-1.216957	1.168926
C94	C	-0.282956	-0.716957	1.668926
C95	C	-0.796923	-1.201137	1.260408
C96	C	-0.296923	-0.701137	1.760408
C97	C	-0.825479	-1.168830	1.113490
C98	C	-0.325479	-0.668830	1.613490
C99	C	-0.881957	-1.104872	1.149525
C100	C	-0.381957	-0.604872	1.649525
C101	C	-0.895921	-1.089054	1.240998
C102	C	-0.395921	-0.589054	1.740998
C103	C	-0.853406	-1.137185	1.296445
C104	C	-0.353406	-0.637185	1.796445
C105	C	-0.811512	-1.184650	1.022007
C106	C	-0.311512	-0.684650	1.522007
C107	C	-0.910512	-1.072565	1.002606
C108	C	-0.410512	-0.572565	1.502606
C109	C	-0.924472	-1.056741	1.094078
C110	C	-0.424472	-0.556741	1.594078
H111	H	-0.931026	-0.776163	0.741507
H112	H	-0.431026	-0.276163	1.241507
H113	H	-1.040580	-0.675624	0.828617
H114	H	-0.540580	-0.175624	1.328617
H115	H	-0.945134	-1.033374	0.957461
H116	H	-0.445134	-0.533374	1.457461
N117	N	-0.652078	-1.365127	1.339616
N118	N	-0.152078	-0.865127	1.839616
H119	H	-0.577777	-1.354302	1.321368
H120	H	-0.077777	-0.854302	1.821368
H121	H	-0.678312	-1.430441	1.334491
H122	H	-0.178312	-0.930441	1.834491
H123	H	-0.859414	-0.841861	0.684564
H124	H	-0.359414	-0.341861	1.184564
H125	H	-0.608727	-0.564089	0.485223
H126	H	-0.108727	-0.064089	0.985223
H127	H	-0.765526	-1.236724	0.992677
H128	H	-0.265526	-0.736724	1.492677
N129	N	-0.711425	-1.297978	1.034231
N130	N	-0.211425	-0.797978	1.534231
H131	H	-0.669194	-1.345796	1.019816
H132	H	-0.169194	-0.845796	1.519816
H133	H	-0.677295	-1.241663	1.001878
H134	H	-0.177295	-0.741663	1.501878
N135	N	-0.868434	-1.120093	1.395103
N136	N	-0.368434	-0.620093	1.895103
H137	H	-0.832916	-1.160280	1.424754
H138	H	-0.332916	-0.660280	1.924754
H139	H	-0.941471	-1.132337	1.419856
H140	H	-0.441471	-0.632337	1.919856
H141	H	-0.568200	-0.710968	0.453014
H142	H	-0.068200	-0.210968	0.953014
H143	H	-0.637982	-1.381122	1.159005
H144	H	-0.137982	-0.881122	1.659005
N145	N	-0.588284	-0.891592	0.468966
N146	N	-0.088284	-0.391592	0.968966
H147	H	-0.613046	-0.955020	0.488660
H148	H	-0.113046	-0.455020	0.988660
H149	H	-0.518045	-0.873240	0.479948
H150	H	-0.018045	-0.373240	0.979948
N151	N	-0.985372	-0.987756	1.132961
N152	N	-0.485372	-0.487756	1.632961
H153	H	-1.043601	-1.016770	1.177063
H154	H	-0.543601	-0.516770	1.677063
H155	H	-1.010120	-0.959674	1.083915
H156	H	-0.510120	-0.459674	1.583915
H157	H	-0.718283	-0.463546	0.572357
H158	H	-0.218283	0.036454	1.072357
N159	N	-1.020493	-0.495013	0.812644
N160	N	-0.520493	0.004987	1.312644
H161	H	-0.995729	-0.431586	0.792947
H162	H	-0.495729	0.068414	1.292947
H163	H	-1.018622	-0.500189	0.877991
H164	H	-0.518622	-0.000189	1.377991
H165	H	-0.941918	-1.036983	1.270336
H166	H	-0.441918	-0.536983	1.770336
