data_functionalizedCrystal
_audit_creation_method	'MofGen! by Chris Wilmer'
_symmetry_space_group_name_H-M	'P1'
_symmetry_Int_Tables_number	1
_symmetry_cell_setting	triclinic
loop_
_symmetry_equiv_pos_as_xyz
  x,y,z
_cell_length_a	10.540539
_cell_length_b	10.540539
_cell_length_c	7.540329
_cell_angle_alpha	89.998539
_cell_angle_beta	89.999095
_cell_angle_gamma	84.525492
loop_
_atom_site_label
_atom_site_type_symbol
_atom_site_fract_x
_atom_site_fract_y
_atom_site_fract_z
O1	O	1.685885	0.178899	-0.147390
O2	O	1.316472	0.195754	-0.147411
O3	O	1.509606	0.002620	-0.147398
O4	O	1.492750	0.372033	-0.147403
O5	O	1.509594	0.002618	0.147568
O6	O	1.316460	0.195752	0.147554
O7	O	1.685873	0.178896	0.147575
Cu8	Cu	1.501165	0.187324	0.174497
Cu9	Cu	1.501179	0.187327	-0.174333
O10	O	1.492739	0.372031	0.147562
C11	C	1.508336	-0.044684	0.000082
C12	C	1.504554	-0.185632	0.000072
C13	C	1.269163	0.194489	0.000069
C14	C	1.128215	0.190707	0.000061
C15	C	1.359637	-0.369059	-0.000598
C16	C	1.363471	-0.222441	0.000066
C17	C	1.572443	-0.247291	0.168515
C18	C	1.567628	-0.393836	0.168657
C19	C	1.570511	-0.394351	-0.166773
C20	C	1.571810	-0.247369	-0.169000
C21	C	0.944788	0.045790	0.000751
C22	C	1.091406	0.049624	0.000068
C23	C	1.066549	0.258604	-0.168373
C24	C	0.920004	0.253789	-0.168496
C25	C	0.919503	0.256656	0.166935
C26	C	1.066485	0.257956	0.169142
C27	C	1.733182	0.180161	0.000092
C28	C	1.874130	0.183943	0.000088
C29	C	1.494008	0.419335	0.000079
C30	C	1.497790	0.560283	0.000077
N31	N	1.501165	0.187321	0.419846
N32	N	1.501190	0.187320	-0.419681
H33	H	1.310052	-0.179837	-0.120681
H34	H	1.090710	0.360815	0.179311
Br35	Br	1.266747	-0.416718	-0.201935
Br36	Br	1.266845	-0.420015	0.198982
Br37	Br	1.740356	-0.473063	-0.168656
Br38	Br	0.872986	0.170154	-0.378345
Br39	Br	0.840793	0.426502	0.168830
H40	H	1.669093	-0.441804	0.176304
H41	H	1.676051	-0.224937	0.174784
Br42	Br	1.273787	-0.152833	0.201638
Br43	Br	1.134570	0.175140	0.376831
Br44	Br	1.137534	0.180000	-0.377308
H45	H	0.916198	-0.009947	0.121545
Br46	Br	0.866923	0.180552	0.379732
Br47	Br	1.160955	-0.039644	-0.201871
Br48	Br	1.483983	-0.440846	0.378509
H49	H	1.525274	-0.204693	0.293860
H50	H	1.674671	-0.223148	-0.179166
Br51	Br	1.494402	-0.446920	-0.379566
Br52	Br	0.894441	-0.046726	-0.199439
H53	H	0.872035	0.355254	-0.176142
H54	H	1.134015	-0.003800	0.120809
Br55	Br	1.489726	-0.178443	-0.376729
H56	H	1.088902	0.362212	-0.174642
