data_functionalizedCrystal
_audit_creation_method	'MofGen! by Chris Wilmer'
_symmetry_space_group_name_H-M	'P1'
_symmetry_Int_Tables_number	1
_symmetry_cell_setting	triclinic
loop_
_symmetry_equiv_pos_as_xyz
  x,y,z
_cell_length_a	16.109302
_cell_length_b	8.559649
_cell_length_c	14.586319
_cell_angle_alpha	89.989015
_cell_angle_beta	89.989806
_cell_angle_gamma	76.620223
loop_
_atom_site_label
_atom_site_type_symbol
_atom_site_fract_x
_atom_site_fract_y
_atom_site_fract_z
O1	O	1.090048	0.205414	-0.076277
O2	O	1.423382	0.538747	0.257057
O3	O	1.756715	0.872080	0.590390
O4	O	0.846358	0.230973	-0.076269
O5	O	1.179691	0.564306	0.257065
O6	O	1.513025	0.897639	0.590398
O7	O	0.989672	-0.014420	-0.076272
O8	O	1.323006	0.318913	0.257061
O9	O	1.656339	0.652247	0.590394
O10	O	0.946734	0.450806	-0.076273
O11	O	1.280067	0.784139	0.257060
O12	O	1.613400	1.117473	0.590394
O13	O	0.989657	-0.014461	0.076208
O14	O	1.322990	0.318872	0.409542
O15	O	1.656324	0.652205	0.742875
O16	O	0.846343	0.230931	0.076212
O17	O	1.179676	0.564265	0.409545
O18	O	1.513009	0.897598	0.742879
O19	O	1.090033	0.205372	0.076204
O20	O	1.423366	0.538706	0.409538
O21	O	1.756699	0.872039	0.742871
Cu22	Cu	0.968186	0.218148	0.090131
Cu23	Cu	1.301520	0.551481	0.423464
Cu24	Cu	1.634853	0.884815	0.756798
Cu25	Cu	0.968205	0.218197	-0.090195
Cu26	Cu	1.301538	0.551530	0.243138
Cu27	Cu	1.634871	0.884864	0.576471
O28	O	0.946718	0.450765	0.076208
O29	O	1.280052	0.784098	0.409541
O30	O	1.613385	1.117432	0.742875
C31	C	0.815441	0.229917	-0.000027
C32	C	1.148775	0.563250	0.333306
C33	C	1.482108	0.896583	0.666639
C34	C	0.723344	0.226812	-0.000025
C35	C	1.056677	0.560145	0.333309
C36	C	1.390011	0.893479	0.666642
C37	C	0.511452	0.219611	0.083084
C38	C	0.844785	0.552944	0.416417
C39	C	1.178119	0.886277	0.749750
C40	C	0.424919	0.216676	0.083080
C41	C	0.758252	0.550010	0.416414
C42	C	1.091585	0.883343	0.749747
C43	C	0.424946	0.216730	-0.083163
C44	C	0.758279	0.550063	0.250171
C45	C	1.091612	0.883396	0.583504
C46	C	0.511479	0.219652	-0.083158
C47	C	0.844812	0.552986	0.250175
C48	C	1.178145	0.886319	0.583508
C49	C	0.554728	0.221101	-0.000033
C50	C	0.888062	0.554434	0.333301
C51	C	1.221395	0.887768	0.666634
C52	C	0.381662	0.215244	-0.000040
C53	C	0.714996	0.548577	0.333293
C54	C	1.048329	0.881911	0.666627
C55	C	0.287839	0.212063	-0.000044
C56	C	0.621173	0.545396	0.333289
C57	C	0.954506	0.878729	0.666623
C58	C	0.648558	0.224280	-0.000028
C59	C	0.981891	0.557613	0.333305
C60	C	1.315225	0.890946	0.666638
C61	C	0.992919	-0.073972	-0.000034
C62	C	1.326252	0.259361	0.333300
C63	C	1.659585	0.592695	0.666633
C64	C	1.002605	-0.251357	-0.000039
C65	C	1.335938	0.081976	0.333294
C66	C	1.669271	0.415309	0.666627
C67	C	1.120949	0.206428	-0.000039
C68	C	1.454283	0.539762	0.333294
C69	C	1.787616	0.873095	0.666628
C70	C	1.213047	0.209533	-0.000048
C71	C	1.546380	0.542866	0.333285
C72	C	1.879714	0.876200	0.666619
C73	C	0.943472	0.510317	-0.000033
C74	C	1.276805	0.843650	0.333301
C75	C	1.610139	1.176984	0.666634
C76	C	0.933786	0.687702	-0.000033
C77	C	1.267119	1.021036	0.333300
C78	C	1.600453	1.354369	0.666633
N79	N	0.968180	0.218113	0.216963
N80	N	1.301513	0.551446	0.550296
N81	N	1.634846	0.884779	0.883629
N82	N	0.968219	0.218220	-0.217027
N83	N	1.301552	0.551553	0.116306
N84	N	1.634885	0.884886	0.449640
C85	C	0.923969	0.121238	0.547993
C86	C	1.257302	0.454571	0.881327
C87	C	1.590636	0.787905	1.214660
C88	C	0.923964	0.121216	0.452012
C89	C	1.257297	0.454549	0.785345
C90	C	1.590630	0.787883	1.118679
C91	C	1.012435	0.315098	0.451949
C92	C	1.345768	0.648431	0.785282
C93	C	1.679101	0.981765	1.118615
C94	C	1.012444	0.315111	0.547928
C95	C	1.345778	0.648444	0.881262
C96	C	1.679111	0.981777	1.214595
C97	C	0.968207	0.218183	0.595948
C98	C	1.301540	0.551517	0.929281
C99	C	1.634873	0.884850	1.262615
C100	C	0.968192	0.218149	0.403987
C101	C	1.301525	0.551482	0.737321
C102	C	1.634858	0.884816	1.070654
C103	C	0.968186	0.218126	0.299920
C104	C	1.301520	0.551459	0.633254
C105	C	1.634853	0.884792	0.966587
C106	C	0.968213	0.218204	0.700022
C107	C	1.301546	0.551537	1.033355
C108	C	1.634880	0.884871	1.366689
H109	H	0.389687	0.215463	0.150762
H110	H	0.723020	0.548797	0.484095
H111	H	1.056354	0.882130	0.817429
H112	H	0.887948	0.042313	0.587088
H113	H	1.221282	0.375646	0.920422
H114	H	1.554615	0.708979	1.253755
N115	N	0.845923	-0.201660	-0.000043
N116	N	1.179257	0.131673	0.333291
N117	N	1.512590	0.465006	0.666624
H118	H	0.801375	-0.267524	-0.000039
H119	H	1.134709	0.065809	0.333295
H120	H	1.468042	0.399142	0.666628
H121	H	0.838833	-0.131688	0.056481
H122	H	1.172166	0.201645	0.389814
H123	H	1.505500	0.534978	0.723147
H124	H	0.887942	0.042272	0.412972
H125	H	1.221275	0.375605	0.746305
H126	H	1.554609	0.708938	1.079638
H127	H	0.389721	0.215552	-0.150841
H128	H	0.723054	0.548885	0.182493
H129	H	1.056387	0.882219	0.515826
H130	H	1.048450	0.394015	0.412839
H131	H	1.381784	0.727348	0.746173
H132	H	1.715117	1.060681	1.079506
H133	H	1.068938	-0.334897	-0.000034
H134	H	1.402271	-0.001564	0.333299
H135	H	1.735604	0.331769	0.666633
H136	H	1.048472	0.394056	0.586974
H137	H	1.381806	0.727389	0.920307
H138	H	1.715139	1.060723	1.253641
H139	H	0.546716	0.220862	-0.150846
H140	H	0.880049	0.554195	0.182488
H141	H	1.213383	0.887528	0.515821
N142	N	0.558102	0.221172	0.172736
N143	N	0.891435	0.554506	0.506069
N144	N	1.224769	0.887839	0.839402
H145	H	0.517553	0.219781	0.225388
H146	H	0.850886	0.553114	0.558722
H147	H	1.184219	0.886447	0.892055
H148	H	0.607068	0.123388	0.176357
H149	H	0.940401	0.456721	0.509691
H150	H	1.273735	0.790054	0.843024
