data_functionalizedCrystal
_audit_creation_method	'MofGen! by Chris Wilmer'
_symmetry_space_group_name_H-M	'P1'
_symmetry_Int_Tables_number	1
_symmetry_cell_setting	triclinic
loop_
_symmetry_equiv_pos_as_xyz
  x,y,z
_cell_length_a	14.853567
_cell_length_b	10.654550
_cell_length_c	9.130313
_cell_angle_alpha	89.995631
_cell_angle_beta	89.999448
_cell_angle_gamma	84.059931
loop_
_atom_site_label
_atom_site_type_symbol
_atom_site_fract_x
_atom_site_fract_y
_atom_site_fract_z
O1	O	1.197241	0.163961	-0.121698
O2	O	0.934886	0.183492	-0.121723
O3	O	1.072096	-0.009075	-0.121701
O4	O	1.060032	0.356528	-0.121720
O5	O	1.072086	-0.009081	0.121898
O6	O	0.934877	0.183487	0.121876
O7	O	1.197232	0.163955	0.121901
Cu8	Cu	1.066053	0.173720	0.144131
Cu9	Cu	1.066065	0.173727	-0.143953
O10	O	1.060022	0.356523	0.121879
C11	C	1.071205	-0.055867	0.000098
C12	C	1.068555	-0.195283	0.000095
C13	C	0.901288	0.182605	0.000073
C14	C	0.801190	0.179953	0.000064
C15	C	1.149342	-0.275608	0.000103
C16	C	1.146846	-0.406602	0.000085
C17	C	0.982770	-0.376935	0.000058
C18	C	0.985267	-0.245942	0.000066
C19	C	0.387984	0.054353	0.000103
C20	C	0.367928	0.283127	0.000090
C21	C	0.461975	0.285621	0.000085
C22	C	0.519031	0.172479	0.000087
C23	C	0.482040	0.056843	0.000094
C24	C	0.498973	0.401255	0.000063
C25	C	0.593026	0.403753	0.000057
C26	C	0.650083	0.290609	0.000069
C27	C	0.613087	0.174969	0.000078
C28	C	0.670143	0.061826	0.000080
C29	C	0.633149	-0.053816	0.000099
C30	C	0.539098	-0.056301	0.000107
C31	C	0.744134	0.293095	0.000062
C32	C	0.764199	0.064317	0.000071
C33	C	1.230830	0.164843	0.000101
C34	C	1.330928	0.167495	0.000101
C35	C	1.060913	0.403314	0.000077
C36	C	1.063563	0.542730	0.000070
N37	N	1.066052	0.173715	0.346754
N38	N	1.066073	0.173722	-0.346576
C39	C	1.126829	0.088482	0.423415
C40	C	1.126838	0.088482	0.576752
C41	C	1.005289	0.258960	0.576752
C42	C	1.005277	0.258953	0.423418
H43	H	1.212631	-0.471999	0.000087
O44	O	1.192350	-0.003479	0.340715
H45	H	1.236498	0.049474	0.270829
O46	O	0.694692	-0.175846	0.000096
H47	H	0.681456	-0.231179	0.099387
H48	H	0.810649	-0.027819	0.000079
H49	H	0.914959	-0.418198	0.000037
H50	H	0.508968	-0.150451	0.000157
O51	O	1.192401	-0.003432	0.659443
H52	H	1.234664	-0.062689	0.580368
O53	O	0.348093	-0.070374	0.000126
H54	H	0.273108	-0.053106	0.000128
O55	O	1.239172	-0.220968	0.000102
H56	H	1.278035	-0.253242	0.099380
H57	H	0.919476	-0.180538	0.000056
H58	H	0.321468	0.375243	0.000076
O59	O	0.939751	0.350907	0.659437
H60	H	0.949976	0.336606	0.778941
H61	H	0.774251	0.387249	0.000049
O62	O	0.939725	0.350891	0.340715
H63	H	0.897476	0.410177	0.419782
O64	O	0.437431	0.523275	0.000078
H65	H	0.394086	0.527607	-0.099191
O66	O	0.632927	0.528472	0.000071
H67	H	0.577450	0.606727	0.000088
