data_functionalizedCrystal
_audit_creation_method	'MofGen! by Chris Wilmer'
_symmetry_space_group_name_H-M	'P1'
_symmetry_Int_Tables_number	1
_symmetry_cell_setting	triclinic
loop_
_symmetry_equiv_pos_as_xyz
  x,y,z
_cell_length_a	10.968023
_cell_length_b	17.766277
_cell_length_c	10.967962
_cell_angle_alpha	77.876510
_cell_angle_beta	82.165761
_cell_angle_gamma	77.883553
loop_
_atom_site_label
_atom_site_type_symbol
_atom_site_fract_x
_atom_site_fract_y
_atom_site_fract_z
O1	O	-1.657095	0.174993	-0.174955
O2	O	-1.293964	0.130076	-0.191723
O3	O	-1.483912	0.130072	-0.001767
O4	O	-1.467147	0.174996	-0.364911
O5	O	-1.483878	0.255255	-0.001757
O6	O	-1.293930	0.255258	-0.191713
O7	O	-1.657062	0.300175	-0.174945
Cu8	Cu	-1.475493	0.289147	-0.183328
Cu9	Cu	-1.475533	0.141104	-0.183340
O10	O	-1.467114	0.300179	-0.364901
C11	C	-1.247450	0.186479	-0.190501
C12	C	-1.108904	0.168040	-0.186859
N13	N	-1.475474	0.393274	-0.183319
C14	C	-1.482677	0.186474	0.044736
C15	C	-1.479034	0.168027	0.183286
C16	C	-0.903917	0.205603	-0.181453
C17	C	-1.047110	0.224669	-0.185226
C18	C	-0.703575	0.243775	-0.176170
C19	C	-0.842120	0.262224	-0.179820
N20	N	-1.475561	0.036977	-0.183339
C21	C	-1.559610	0.432668	-0.099248
C22	C	-1.559618	0.511470	-0.099243
C23	C	-1.475500	0.550879	-0.183329
C24	C	-1.391347	0.511474	-0.267406
C25	C	-1.391334	0.432671	-0.267401
C26	C	-1.460119	0.688444	-0.296839
C27	C	-1.460141	0.767247	-0.296846
C28	C	-1.475534	0.793932	-0.183344
C29	C	-1.490930	0.741808	-0.069831
C30	C	-1.490917	0.663005	-0.069826
C31	C	-1.475504	0.636327	-0.183343
C32	C	-1.559683	0.918772	-0.099261
C33	C	-1.559681	0.997574	-0.099253
C34	C	-1.391417	0.997578	-0.267427
C35	C	-1.391412	0.918776	-0.267424
C36	C	-1.475552	0.879378	-0.183342
C37	C	-1.477392	0.224651	0.245068
C38	C	-1.473627	0.205587	0.388267
C39	C	-1.468347	0.243776	0.588596
C40	C	-1.471985	0.262219	0.450045
H41	H	-0.850814	0.143010	-0.180050
H42	H	-1.628134	0.543551	-0.030780
F43	F	-1.649228	1.039501	-0.009763
H44	H	-1.100210	0.287264	-0.186615
F45	F	-1.039504	0.086224	-0.185058
F46	F	-1.471830	0.123771	0.457690
H47	H	-1.478781	0.287243	0.191948
F48	F	-1.473801	0.344038	0.380627
F49	F	-0.911525	0.344037	-0.181635
H50	H	-1.477658	0.105437	0.236408
H51	H	-1.322905	0.886700	-0.335887
F52	F	-1.507293	0.607532	0.050979
H53	H	-1.447563	0.666723	-0.389272
F54	F	-1.649226	0.876840	-0.009769
H55	H	-1.628119	0.400593	-0.030781
H56	H	-1.322855	0.543564	-0.335868
H57	H	-1.503464	0.763532	0.022592
F58	F	-1.301885	1.039514	-0.356911
H59	H	-1.447612	0.809682	-0.389275
F60	F	-1.301781	0.390743	-0.356884
