data_functionalizedCrystal
_audit_creation_method	'MofGen! by Chris Wilmer'
_symmetry_space_group_name_H-M	'P1'
_symmetry_Int_Tables_number	1
_symmetry_cell_setting	triclinic
loop_
_symmetry_equiv_pos_as_xyz
  x,y,z
_cell_length_a	15.944545
_cell_length_b	15.944551
_cell_length_c	15.021413
_cell_angle_alpha	89.996935
_cell_angle_beta	90.004532
_cell_angle_gamma	83.497455
loop_
_atom_site_label
_atom_site_type_symbol
_atom_site_fract_x
_atom_site_fract_y
_atom_site_fract_z
O1	O	1.114532	0.108296	0.073976
O2	O	1.447865	0.441629	0.407310
O3	O	1.781199	0.774962	0.740643
O4	O	0.869982	0.121657	0.073991
O5	O	1.203315	0.454991	0.407324
O6	O	1.536648	0.788324	0.740658
O7	O	0.998935	-0.007298	0.073975
O8	O	1.332268	0.326035	0.407309
O9	O	1.665602	0.659368	0.740642
O10	O	0.985579	0.237252	0.073992
O11	O	1.318912	0.570585	0.407325
O12	O	1.652245	0.903918	0.740659
O13	O	0.998915	-0.007280	-0.074089
O14	O	1.332248	0.326053	0.259244
O15	O	1.665581	0.659387	0.592578
O16	O	0.869961	0.121676	-0.074073
O17	O	1.203295	0.455009	0.259260
O18	O	1.536628	0.788343	0.592593
O19	O	1.114512	0.108314	-0.074088
O20	O	1.447845	0.441647	0.259245
O21	O	1.781178	0.774981	0.592579
Zn22	Zn	0.992233	0.114998	-0.097589
Zn23	Zn	1.325566	0.448331	0.235744
Zn24	Zn	1.658900	0.781665	0.569078
Zn25	Zn	0.992260	0.114974	0.097492
Zn26	Zn	1.325594	0.448307	0.430825
Zn27	Zn	1.658927	0.781640	0.764159
O28	O	0.985558	0.237270	-0.074072
O29	O	1.318892	0.570603	0.259261
O30	O	1.652225	0.903937	0.592595
C31	C	0.838677	0.121113	-0.000039
C32	C	1.172011	0.454446	0.333294
C33	C	1.505344	0.787780	0.666627
C34	C	0.745431	0.119453	-0.000034
C35	C	1.078764	0.452786	0.333299
C36	C	1.412098	0.786119	0.666633
C37	C	0.998370	-0.038583	-0.000057
C38	C	1.331704	0.294750	0.333276
C39	C	1.665037	0.628084	0.666610
C40	C	0.996708	-0.131829	-0.000057
C41	C	1.330041	0.201504	0.333276
C42	C	1.663375	0.534838	0.666609
C43	C	0.474798	0.034559	-0.000049
C44	C	0.808132	0.367892	0.333284
C45	C	1.141465	0.701226	0.666617
C46	C	0.525370	0.075497	-0.073052
C47	C	0.858703	0.408830	0.260281
C48	C	1.192037	0.742164	0.593615
C49	C	0.409787	0.113532	-0.000050
C50	C	0.743121	0.446865	0.333284
C51	C	1.076454	0.780199	0.666617
C52	C	0.525371	0.075500	0.072928
C53	C	0.858704	0.408833	0.406261
C54	C	1.192037	0.742167	0.739594
C55	C	0.574701	0.116437	-0.000040
C56	C	0.908034	0.449770	0.333293
C57	C	1.241367	0.783103	0.666626
C58	C	0.459131	0.154449	-0.073113
C59	C	0.792464	0.487782	0.260221
C60	C	1.125797	0.821116	0.593554
C61	C	0.459128	0.154440	0.072933
C62	C	0.792461	0.487774	0.406266
C63	C	1.125795	0.821107	0.739599
C64	C	0.509667	0.195436	-0.000088
C65	C	0.843000	0.528770	0.333245
C66	C	1.176333	0.862103	0.666579
C67	C	0.314785	0.111856	-0.000056
C68	C	0.648119	0.445190	0.333278
C69	C	0.981452	0.778523	0.666611
C70	C	0.669700	0.118119	-0.000041
C71	C	1.003034	0.451452	0.333293
C72	C	1.336367	0.784785	0.666626
C73	C	0.912803	-0.346684	-0.000040
C74	C	1.246137	-0.013351	0.333293
C75	C	1.579470	0.319983	0.666627
C76	C	0.951756	-0.407693	-0.073047
C77	C	1.285089	-0.074360	0.260286
C78	C	1.618422	0.258974	0.593620
C79	C	0.993701	-0.302555	-0.000050
C80	C	1.327034	0.030778	0.333283
C81	C	1.660367	0.364112	0.666616
C82	C	0.951795	-0.407695	0.072933
C83	C	1.285128	-0.074361	0.406266
C84	C	1.618462	0.258972	0.739599
C85	C	0.990790	-0.467468	-0.000040
C86	C	1.324123	-0.134134	0.333294
C87	C	1.657457	0.199199	0.666627
C88	C	1.032675	-0.362336	-0.073118
C89	C	1.366009	-0.029002	0.260216
C90	C	1.699342	0.304331	0.593549
C91	C	1.032703	-0.362331	0.072928
C92	C	1.366037	-0.028998	0.406261
C93	C	1.699370	0.304336	0.739594
C94	C	1.071715	-0.423322	-0.000097
C95	C	1.405048	-0.089989	0.333236
C96	C	1.738381	0.243344	0.666570
C97	C	0.995375	-0.207553	-0.000057
C98	C	1.328709	0.125781	0.333276
C99	C	1.662042	0.459114	0.666609
C100	C	0.989122	-0.562469	-0.000039
C101	C	1.322455	-0.229135	0.333294
C102	C	1.655788	0.104198	0.666627
C103	C	1.145816	0.108859	-0.000056
C104	C	1.479149	0.442192	0.333278
C105	C	1.812483	0.775525	0.666611
C106	C	1.239062	0.110519	-0.000055
C107	C	1.572396	0.443852	0.333278
C108	C	1.905729	0.777186	0.666612
C109	C	0.986123	0.268555	-0.000038
C110	C	1.319456	0.601888	0.333295
C111	C	1.652790	0.935221	0.666629
C112	C	0.987785	0.361801	-0.000032
C113	C	1.321119	0.695134	0.333302
C114	C	1.654452	1.028467	0.666635
N115	N	0.992221	0.115014	-0.230727
N116	N	1.325554	0.448347	0.102607
N117	N	1.658887	0.781681	0.435940
C118	C	0.932584	0.174615	-0.470402
C119	C	1.265917	0.507948	-0.137069
C120	C	1.599250	0.841282	0.196264
C121	C	1.008484	0.190920	-0.529740
C122	C	1.341818	0.524254	-0.196407
C123	C	1.675151	0.857587	0.136926
C124	C	0.992242	0.114993	-0.412333
C125	C	1.325576	0.448326	-0.079000
C126	C	1.658909	0.781660	0.254333
C127	C	0.916362	0.098706	-0.529737
C128	C	1.249696	0.432040	-0.196404
C129	C	1.583029	0.765373	0.136929
C130	C	0.992256	0.114975	-0.587757
C131	C	1.325590	0.448308	-0.254424
C132	C	1.658923	0.781641	0.078909
C133	C	1.068181	0.131336	-0.470365
C134	C	1.401515	0.464669	-0.137031
C135	C	1.734848	0.798003	0.196302
C136	C	0.976009	0.039089	-0.470357
C137	C	1.309343	0.372422	-0.137023
C138	C	1.642676	0.705756	0.196310
C139	C	1.051965	0.055362	-0.529668
C140	C	1.385298	0.388695	-0.196334
C141	C	1.718631	0.722029	0.136999
C142	C	0.992233	0.115006	-0.311276
C143	C	1.325566	0.448339	0.022057
C144	C	1.658900	0.781672	0.355391
C145	C	0.992274	0.114961	-0.688813
C146	C	1.325608	0.448295	-0.355479
C147	C	1.658941	0.781628	-0.022146
N148	N	0.992279	0.114951	0.230630
N149	N	1.325613	0.448284	0.563963
N150	N	1.658946	0.781618	0.897296
H151	H	0.459145	-0.033453	-0.000125
H152	H	0.792478	0.299880	0.333208
H153	H	1.125812	0.633214	0.666542
O154	O	0.563718	0.031286	0.154656
O155	O	0.897052	0.364619	0.487989
O156	O	1.230385	0.697953	0.821323
H157	H	0.596139	0.076393	0.194782
H158	H	0.929472	0.409726	0.528115
H159	H	1.262806	0.743059	0.861449
H160	H	0.525159	0.263501	-0.000126
H161	H	0.858492	0.596835	0.333207
H162	H	1.191825	0.930168	0.666541
H163	H	1.022227	0.255103	-0.555824
H164	H	1.355560	0.588436	-0.222491
H165	H	1.688894	0.921769	0.110843
H166	H	1.138922	-0.456483	-0.000142
H167	H	1.472255	-0.123149	0.333191
H168	H	1.805589	0.210184	0.666524
H169	H	0.882183	0.225076	-0.444381
H170	H	1.215517	0.558410	-0.111047
H171	H	1.548850	0.891743	0.222286
O172	O	0.420775	0.198566	0.154688
O173	O	0.754108	0.531899	0.488022
O174	O	1.087441	0.865232	0.821355
H175	H	0.447431	0.165632	0.215201
H176	H	0.780764	0.498965	0.548534
H177	H	1.114097	0.832298	0.881868
H178	H	1.132371	0.145180	-0.444394
H179	H	1.465705	0.478513	-0.111061
H180	H	1.799038	0.811847	0.222272
H181	H	1.102477	0.004931	-0.555526
H182	H	1.435811	0.338264	-0.222193
H183	H	1.769144	0.671597	0.111141
H184	H	0.917531	-0.427793	-0.134765
H185	H	1.250864	-0.094460	0.198569
H186	H	1.584198	0.238874	0.531902
H187	H	1.066854	-0.342338	-0.134907
H188	H	1.400188	-0.009005	0.198426
H189	H	1.733521	0.324328	0.531760
O190	O	1.078001	-0.335663	0.154678
O191	O	1.411334	-0.002329	0.488011
O192	O	1.744667	0.331004	0.821345
H193	H	1.044297	-0.353615	0.215195
H194	H	1.377630	-0.020282	0.548528
H195	H	1.710964	0.313051	0.881861
H196	H	0.430313	0.187784	-0.134897
H197	H	0.763646	0.521117	0.198436
H198	H	1.096979	0.854451	0.531770
H199	H	0.962243	-0.025073	-0.444252
H200	H	1.295576	0.308261	-0.110919
H201	H	1.628910	0.641594	0.222414
H202	H	0.917577	-0.427778	0.134659
H203	H	1.250910	-0.094445	0.467992
H204	H	1.584243	0.238888	0.801325
H205	H	0.554292	0.042152	-0.134775
H206	H	0.887626	0.375486	0.198559
H207	H	1.220959	0.708819	0.531892
O208	O	0.831359	0.080461	-0.564290
O209	O	1.164692	0.413794	-0.230956
O210	O	1.498026	0.747127	0.102377
H211	H	0.788826	0.071975	-0.507298
H212	H	1.122159	0.405308	-0.173965
H213	H	1.455492	0.738642	0.159368
O214	O	0.823864	-0.302549	-0.000125
O215	O	1.157197	0.030784	0.333209
O216	O	1.490530	0.364117	0.666542
H217	H	0.790475	-0.320590	-0.060818
H218	H	1.123808	0.012744	0.272516
H219	H	1.457142	0.346077	0.605849
