data_functionalizedCrystal
_audit_creation_method	'MofGen! by Chris Wilmer'
_symmetry_space_group_name_H-M	'P1'
_symmetry_Int_Tables_number	1
_symmetry_cell_setting	triclinic
loop_
_symmetry_equiv_pos_as_xyz
  x,y,z
_cell_length_a	12.594517
_cell_length_b	21.395361
_cell_length_c	21.395355
_cell_angle_alpha	90.021511
_cell_angle_beta	90.024858
_cell_angle_gamma	90.030508
loop_
_atom_site_label
_atom_site_type_symbol
_atom_site_fract_x
_atom_site_fract_y
_atom_site_fract_z
Zn1	Zn	1.627196	-0.249514	0.354253
Zn2	Zn	1.627030	-0.354274	0.249471
Zn3	Zn	1.449188	-0.249514	0.249490
Zn4	Zn	1.449136	-0.354258	0.354210
O5	O	1.538138	-0.301890	0.301856
O6	O	1.776119	-0.263418	0.340364
O7	O	1.603391	-0.340384	0.161795
O8	O	1.472893	-0.161836	0.263413
O9	O	1.775998	-0.340385	0.263380
O10	O	1.603674	-0.161837	0.340382
O11	O	1.472732	-0.263418	0.161809
O12	O	1.300236	-0.263402	0.263371
O13	O	1.472803	-0.340357	0.441894
O14	O	1.300197	-0.340356	0.340309
O15	O	1.603623	-0.263402	0.441926
O16	O	1.603341	-0.441950	0.263338
O17	O	1.472643	-0.441938	0.340290
C18	C	1.537997	-0.464678	0.301821
C19	C	1.538034	-0.534319	0.301827
C20	C	1.261597	-0.301878	0.301837
C21	C	1.143291	-0.301887	0.301844
C22	C	1.606149	-0.567018	0.261799
C23	C	1.606198	-0.632453	0.261813
C24	C	1.538114	-0.665187	0.301849
C25	C	1.469995	-0.632481	0.341884
C26	C	1.469955	-0.567047	0.341873
C27	C	1.442278	-0.768902	0.306758
C28	C	1.442316	-0.834335	0.306765
C29	C	1.538238	-0.867008	0.301885
C30	C	1.634125	-0.834240	0.296987
C31	C	1.634085	-0.768806	0.296976
C32	C	1.538151	-0.736140	0.301865
C33	C	1.606412	-0.970659	0.261871
C34	C	1.606464	-1.036096	0.261889
C35	C	1.470251	-1.036122	0.341957
C36	C	1.470209	-0.970687	0.341941
C37	C	1.538288	-0.937959	0.301895
C38	C	1.074028	-0.259975	0.260078
C39	C	1.003191	-0.317123	0.244659
C40	C	1.003330	-0.244767	0.317274
C41	C	1.074012	-0.359065	0.286395
C42	C	1.074157	-0.286672	0.359038
C43	C	1.003352	-0.343859	0.343640
C44	C	1.815758	-0.301903	0.301875
C45	C	1.934064	-0.301909	0.301883
C46	C	1.538226	-0.301877	0.465279
C47	C	1.538264	-0.301872	0.534921
C48	C	1.538308	-0.138467	0.301905
C49	C	1.538380	-0.068826	0.301925
C50	C	1.538111	-0.301858	0.139068
C51	C	1.538279	-0.301687	0.069427
C52	C	1.606378	-0.261800	0.567651
C53	C	1.606377	-0.261773	0.633087
C54	C	1.538272	-0.301829	0.665789
C55	C	1.470144	-0.341904	0.633050
C56	C	1.470140	-0.341925	0.567616
C57	C	1.529819	-0.358245	0.769452
C58	C	1.529830	-0.358224	0.834885
C59	C	1.538278	-0.301763	0.867610
C60	C	1.546737	-0.245321	0.834894
C61	C	1.546733	-0.245342	0.769460
C62	C	1.538268	-0.301810	0.736741
C63	C	1.606395	-0.261659	0.971293
C64	C	1.606386	-0.261631	1.036730
C65	C	1.470159	-0.341767	1.036692
C66	C	1.470162	-0.341790	0.971257
C67	C	1.538286	-0.301736	0.938561
H68	H	1.661586	-0.540373	0.229193
H69	H	1.364239	-0.861010	0.310747
Br70	Br	1.125537	-0.439617	0.264578
H71	H	0.972021	-0.330006	0.196308
Br72	Br	1.377717	-0.396177	0.926833
H73	H	1.661937	-1.062718	0.229295
H74	H	1.105061	-0.224565	0.224714
Br75	Br	1.377602	-0.676904	0.396223
H76	H	1.661842	-0.229139	0.659741
H77	H	0.972225	-0.196459	0.330287
H78	H	0.972514	-0.379353	0.378977
Br79	Br	1.377760	-0.926307	0.396266
H80	H	1.553618	-0.199344	0.861538
Br81	Br	1.126149	-0.265173	0.439604
Br82	Br	1.558207	-0.168745	0.725061
H83	H	1.414487	-0.540423	0.374470
H84	H	1.661849	-0.229185	0.541035
Br85	Br	1.518385	-0.434879	0.725045
H86	H	1.414820	-1.062774	0.374557
Br87	Br	1.764210	-0.724336	0.290333
H88	H	1.661860	-0.229041	0.944671
Br89	Br	1.377707	-0.396262	0.677430
Br90	Br	1.698853	-0.207252	1.081152
H91	H	1.414696	-0.374375	1.063318
H92	H	1.522949	-0.404183	0.861517
H93	H	1.364160	-0.742307	0.310734
Br94	Br	1.377689	-0.396312	0.523193
H95	H	1.712234	-0.860841	0.293014
Br96	Br	1.698647	-0.676840	0.207486
H97	H	1.661850	-0.944011	0.229264
