data_functionalizedCrystal
_audit_creation_method	'MofGen! by Chris Wilmer'
_symmetry_space_group_name_H-M	'P1'
_symmetry_Int_Tables_number	1
_symmetry_cell_setting	triclinic
loop_
_symmetry_equiv_pos_as_xyz
  x,y,z
_cell_length_a	11.169417
_cell_length_b	13.032868
_cell_length_c	11.169409
_cell_angle_alpha	97.143352
_cell_angle_beta	90.019824
_cell_angle_gamma	82.787299
loop_
_atom_site_label
_atom_site_type_symbol
_atom_site_fract_x
_atom_site_fract_y
_atom_site_fract_z
Zn1	Zn	1.774144	0.415926	0.739142
Zn2	Zn	2.274144	0.915926	1.239142
Zn3	Zn	1.748475	0.590714	0.563924
Zn4	Zn	2.248475	1.090714	1.063924
Zn5	Zn	1.573420	0.415989	0.538485
Zn6	Zn	2.073420	0.915989	1.038485
Zn7	Zn	1.547891	0.590629	0.764557
Zn8	Zn	2.047891	1.090629	1.264557
O9	O	1.660983	0.503314	0.651527
O10	O	2.160983	1.003314	1.151527
O11	O	1.938687	0.439121	0.715909
O12	O	2.438687	0.939121	1.215909
O13	O	1.725195	0.567598	0.392609
O14	O	2.225195	1.067598	0.892609
O15	O	1.621473	0.269744	0.543820
O16	O	2.121473	0.769744	1.043820
O17	O	1.919828	0.567537	0.587177
O18	O	2.419828	1.067537	1.087177
O19	O	1.768944	0.269697	0.691241
O20	O	2.268944	0.769697	1.191241
O21	O	1.596583	0.439229	0.373919
O22	O	2.096583	0.939229	0.873919
O23	O	1.402085	0.439147	0.568464
O24	O	1.902085	0.939147	1.068464
O25	O	1.577963	0.567392	0.929126
O26	O	2.077963	1.067392	1.429126
O27	O	1.383329	0.567453	0.734558
O28	O	1.883329	1.067453	1.234558
O29	O	1.744189	0.439038	0.910454
O30	O	2.244189	0.939038	1.410454
O31	O	1.700440	0.736939	0.611822
O32	O	2.200440	1.236939	1.111822
O33	O	1.553073	0.736877	0.759225
O34	O	2.053073	1.236877	1.259225
C35	C	1.349160	0.503299	0.651509
C36	C	1.849160	1.003299	1.151509
C37	C	1.215758	0.503317	0.651534
C38	C	1.715758	1.003317	1.151534
C39	C	1.621233	0.774825	0.691068
C40	C	2.121233	1.274825	1.191068
C41	C	1.604338	0.890979	0.708024
C42	C	2.104338	1.390979	1.208024
C43	C	1.669785	0.942760	0.642706
C44	C	2.169785	1.442760	1.142706
C45	C	1.652325	1.062811	0.660229
C46	C	2.152325	1.562811	1.160229
C47	C	1.974022	0.503331	0.651546
C48	C	2.474022	1.003331	1.151546
C49	C	2.107421	0.503338	0.651554
C50	C	2.607421	1.003338	1.151554
C51	C	1.661092	0.503198	0.964553
C52	C	2.161092	1.003198	1.464553
C53	C	1.661138	0.503149	1.097946
C54	C	2.161138	1.003149	1.597946
C55	C	1.700880	1.230743	0.611845
C56	C	2.200880	1.730743	1.111845
C57	C	1.717781	1.114590	0.594901
C58	C	2.217781	1.614590	1.094901
C59	C	1.660954	0.503355	0.339708
C60	C	2.160954	1.003355	0.839708
C61	C	1.661183	0.503110	0.206273
C62	C	2.161183	1.003110	0.706273
H63	H	1.738748	0.898217	0.573815
H64	H	2.238748	1.398217	1.073815
C65	C	1.559163	1.122974	0.753307
C66	C	2.059163	1.622974	1.253307
H67	H	1.559644	1.195768	0.752869
H68	H	2.059644	1.695768	1.252869
H69	H	1.579268	1.105067	0.831366
H70	H	2.079268	1.605067	1.331366
H71	H	1.481093	1.105213	0.733089
H72	H	1.981093	1.605213	1.233089
C73	C	1.810948	1.054434	0.501824
C74	C	2.310948	1.554434	1.001824
H75	H	1.849749	1.102491	0.463123
H76	H	2.349749	1.602491	0.963123
H77	H	1.771208	1.011923	0.443330
H78	H	2.271208	1.511923	0.943330
H79	H	1.869382	1.011787	0.541608
H80	H	2.369382	1.511787	1.041608
C81	C	1.511181	0.951146	0.801097
C82	C	2.011181	1.451146	1.301097
H83	H	1.511662	1.023940	0.800659
H84	H	2.011662	1.523940	1.300659
H85	H	1.531286	0.933239	0.879156
H86	H	2.031286	1.433239	1.379156
H87	H	1.433111	0.933385	0.780879
H88	H	1.933111	1.433385	1.280879
