data_functionalizedCrystal
_audit_creation_method	'MofGen! by Chris Wilmer'
_symmetry_space_group_name_H-M	'P1'
_symmetry_Int_Tables_number	1
_symmetry_cell_setting	triclinic
loop_
_symmetry_equiv_pos_as_xyz
  x,y,z
_cell_length_a	15.944499
_cell_length_b	15.944551
_cell_length_c	16.176319
_cell_angle_alpha	90.001553
_cell_angle_beta	90.010001
_cell_angle_gamma	83.488174
loop_
_atom_site_label
_atom_site_type_symbol
_atom_site_fract_x
_atom_site_fract_y
_atom_site_fract_z
O1	O	1.114555	0.108120	0.068798
O2	O	1.614555	0.608120	0.568798
O3	O	0.870000	0.121521	0.068789
O4	O	1.370000	0.621521	0.568789
O5	O	0.998956	-0.007456	0.068786
O6	O	1.498956	0.492544	0.568786
O7	O	0.985599	0.237097	0.068801
O8	O	1.485599	0.737097	0.568801
O9	O	0.998936	-0.007449	-0.068707
O10	O	1.498936	0.492551	0.431293
O11	O	0.869980	0.121528	-0.068704
O12	O	1.369980	0.621528	0.431296
O13	O	1.114536	0.108127	-0.068695
O14	O	1.614536	0.608127	0.431305
Cu15	Cu	0.992256	0.114828	-0.081254
Cu16	Cu	1.492256	0.614828	0.418746
Cu17	Cu	0.992279	0.114820	0.081348
Cu18	Cu	1.492279	0.614820	0.581348
O19	O	0.985580	0.237104	-0.068693
O20	O	1.485580	0.737104	0.431307
C21	C	0.838695	0.120976	0.000041
C22	C	1.338695	0.620976	0.500041
C23	C	0.745447	0.119331	0.000037
C24	C	1.245447	0.619331	0.500037
C25	C	0.453911	0.194263	0.000054
C26	C	0.953911	0.694263	0.500054
C27	C	0.514950	0.155308	0.067845
C28	C	1.014950	0.655308	0.567845
C29	C	0.409810	0.113355	0.000056
C30	C	0.909810	0.613355	0.500056
C31	C	0.514917	0.155293	-0.067713
C32	C	1.014917	0.655293	0.432287
C33	C	0.574719	0.116296	0.000046
C34	C	1.074719	0.616296	0.500046
C35	C	0.469621	0.074377	0.067903
C36	C	0.969621	0.574377	0.567903
C37	C	0.469581	0.074374	-0.067716
C38	C	0.969581	0.574374	0.432284
C39	C	0.530603	0.035360	0.000091
C40	C	1.030603	0.535360	0.500091
C41	C	0.314810	0.111663	0.000063
C42	C	0.814810	0.611663	0.500063
C43	C	0.669718	0.117981	0.000045
C44	C	1.169718	0.617981	0.500045
C45	C	0.998392	-0.038746	0.000039
C46	C	1.498392	0.461254	0.500039
C47	C	0.996729	-0.131992	0.000039
C48	C	1.496729	0.368008	0.500039
C49	C	0.912823	-0.346833	0.000047
C50	C	1.412823	0.153167	0.500047
C51	C	0.951777	-0.407854	-0.067744
C52	C	1.451777	0.092146	0.432256
C53	C	0.993722	-0.302717	0.000045
C54	C	1.493722	0.197283	0.500045
C55	C	0.951815	-0.407844	0.067814
C56	C	1.451815	0.092156	0.567814
C57	C	0.990811	-0.467629	0.000055
C58	C	1.490811	0.032371	0.500055
C59	C	1.032698	-0.362510	-0.067802
C60	C	1.532698	0.137490	0.432198
C61	C	1.032725	-0.362494	0.067817
C62	C	1.532725	0.137506	0.567817
C63	C	1.071737	-0.423497	0.000009
C64	C	1.571737	0.076503	0.500009
C65	C	0.995397	-0.207715	0.000039
C66	C	1.495397	0.292285	0.500039
C67	C	0.989143	-0.562630	0.000055
C68	C	1.489143	-0.062630	0.500055
C69	C	1.145840	0.108672	0.000054
C70	C	1.645840	0.608672	0.500054
C71	C	1.239089	0.110317	0.000063
C72	C	1.739089	0.610317	0.500063
C73	C	0.986144	0.268394	0.000056
C74	C	1.486144	0.768394	0.500056
C75	C	0.987806	0.361640	0.000062
C76	C	1.487806	0.861640	0.500062
N77	N	0.992246	0.114834	-0.195619
N78	N	1.492246	0.614834	0.304381
C79	C	1.049405	0.057717	-0.761003
C80	C	1.549405	0.557717	-0.261003
C81	C	1.049401	0.057723	-0.674456
C82	C	1.549401	0.557723	-0.174456
C83	C	0.992284	0.114816	-0.631195
C84	C	1.492284	0.614816	-0.131195
C85	C	0.935172	0.171912	-0.674485
C86	C	1.435172	0.671912	-0.174485
C87	C	0.935181	0.171910	-0.761030
C88	C	1.435181	0.671910	-0.261030
C89	C	0.935138	0.171924	-0.325457
C90	C	1.435138	0.671924	0.174543
C91	C	0.935133	0.171921	-0.238905
C92	C	1.435133	0.671921	0.261095
C93	C	1.049359	0.057737	-0.238882
C94	C	1.549359	0.557737	0.261118
C95	C	1.049367	0.057735	-0.325428
C96	C	1.549367	0.557735	0.174572
C97	C	0.992259	0.114834	-0.368710
C98	C	1.492259	0.614834	0.131290
C99	C	0.992265	0.114828	-0.462555
C100	C	1.492265	0.614828	0.037445
C101	C	0.992274	0.114819	-0.537352
C102	C	1.492274	0.614819	-0.037352
N103	N	0.992296	0.114808	0.195713
N104	N	1.492296	0.614808	0.695713
H105	H	0.420581	0.261409	0.000124
H106	H	0.920581	0.761409	0.500124
N107	N	1.077957	-0.336028	-0.143807
N108	N	1.577957	0.163972	0.356193
H109	H	1.047618	-0.352908	-0.194944
H110	H	1.547618	0.147092	0.305056
H111	H	1.137800	-0.364656	-0.143977
H112	H	1.637800	0.135344	0.356023
H113	H	0.449457	0.040184	-0.125033
H114	H	0.949457	0.540184	0.374967
N115	N	0.541498	0.200643	-0.143625
N116	N	1.041498	0.700643	0.356375
H117	H	0.524189	0.170693	-0.194830
H118	H	1.024189	0.670693	0.305170
H119	H	0.604803	0.200956	-0.143269
H120	H	1.104803	0.700956	0.356731
H121	H	0.888637	0.218415	-0.360691
H122	H	1.388637	0.718415	0.139309
H123	H	0.535056	0.189529	0.125157
H124	H	1.035056	0.689529	0.625157
H125	H	0.845673	-0.313513	-0.000023
H126	H	1.345673	0.186487	0.499977
H127	H	0.888619	0.218416	-0.203683
H128	H	1.388619	0.718416	0.296317
H129	H	0.888678	0.218400	-0.796272
H130	H	1.388678	0.718400	-0.296272
H131	H	1.138946	-0.456668	-0.000027
H132	H	1.638946	0.043332	0.499973
H133	H	0.449650	0.040185	0.125279
H134	H	0.949650	0.540185	0.625279
H135	H	0.563780	-0.031846	0.000123
H136	H	1.063780	0.468154	0.500123
H137	H	0.917551	-0.427953	-0.125058
H138	H	1.417551	0.072047	0.374942
H139	H	1.095913	0.011223	-0.796221
H140	H	1.595913	0.511223	-0.296221
H141	H	1.095904	0.011237	-0.639214
H142	H	1.595904	0.511237	-0.139214
N143	N	1.078028	-0.335840	0.143735
N144	N	1.578028	0.164160	0.643735
H145	H	1.047423	-0.352140	0.194918
H146	H	1.547423	0.147860	0.694918
H147	H	1.079283	-0.272660	0.142805
H148	H	1.579283	0.227340	0.642805
H149	H	0.917595	-0.427918	0.125130
H150	H	1.417595	0.072082	0.625130
N151	N	1.110948	-0.003859	-0.192199
N152	N	1.610948	0.496141	0.307801
H153	H	1.102278	0.004800	-0.130808
H154	H	1.602278	0.504800	0.369192
H155	H	1.170541	0.005855	-0.207308
H156	H	1.670541	0.505855	0.292692
N157	N	1.110983	-0.003832	-0.372088
N158	N	1.610983	0.496168	0.127912
H159	H	1.147168	-0.039992	-0.331534
H160	H	1.647168	0.460008	0.168466
H161	H	1.148111	0.028361	-0.407977
H162	H	1.648111	0.528361	0.092023
H163	H	0.888669	0.218403	-0.639256
H164	H	1.388669	0.718403	-0.139256
