data_functionalizedCrystal
_audit_creation_method	'MofGen! by Chris Wilmer'
_symmetry_space_group_name_H-M	'P1'
_symmetry_Int_Tables_number	1
_symmetry_cell_setting	triclinic
loop_
_symmetry_equiv_pos_as_xyz
  x,y,z
_cell_length_a	14.395555
_cell_length_b	23.196402
_cell_length_c	23.196401
_cell_angle_alpha	60.008822
_cell_angle_beta	90.011331
_cell_angle_gamma	60.001663
loop_
_atom_site_label
_atom_site_type_symbol
_atom_site_fract_x
_atom_site_fract_y
_atom_site_fract_z
Zr1	Zr	0.894864	0.631035	-0.075664
O2	O	0.746512	0.751295	-0.167704
O3	O	0.940338	0.510771	-0.047452
O4	O	0.940297	0.631038	-0.167717
O5	O	0.746589	0.631027	0.047432
O6	O	1.093163	0.631044	-0.167724
O7	O	0.746553	0.631028	-0.047439
O8	O	1.093236	0.415908	0.047409
O9	O	0.746516	0.846163	-0.167700
O10	O	1.073819	0.560243	-0.035421
O11	O	0.959764	0.560237	0.035386
O12	O	0.959716	0.701836	-0.106211
O13	O	0.845661	0.701830	-0.035405
Zr14	Zr	1.138726	0.631042	0.075635
Zr15	Zr	1.138667	0.631044	-0.075674
Zr16	Zr	0.894922	0.631032	0.075645
Zr17	Zr	0.894871	0.782337	-0.075657
Zr18	Zr	1.138719	0.479740	0.075629
O19	O	1.093251	0.751306	0.047423
O20	O	1.093168	0.751309	-0.167719
O21	O	0.746594	0.751292	0.047437
O22	O	1.287078	0.510781	0.167675
O23	O	1.286995	0.510785	-0.047466
O24	O	0.940421	0.510767	0.167690
O25	O	1.287000	0.631050	-0.047461
O26	O	1.093292	0.631039	0.167689
O27	O	0.940427	0.631033	0.167695
O28	O	1.287037	0.631048	0.047410
O29	O	0.940307	0.846170	-0.167708
O30	O	1.093283	0.415906	0.167679
O31	O	1.287074	0.415914	0.167671
O32	O	1.287027	0.415916	0.047401
O33	O	0.746562	0.846161	-0.047430
O34	O	0.940353	0.846169	-0.047438
O35	O	1.073874	0.560241	0.106182
O36	O	1.187928	0.560246	0.035376
O37	O	1.073825	0.701840	-0.035414
O38	O	0.959771	0.701834	0.035392
C39	C	1.016786	0.441782	-0.000023
C40	C	1.016784	0.377550	-0.000025
C41	C	0.711834	0.631026	-0.000002
C42	C	0.608333	0.631022	0.000002
C43	C	1.076311	0.347383	-0.036988
C44	C	1.076322	0.287022	-0.036982
C45	C	1.016783	0.256842	-0.000023
C46	C	0.957253	0.287014	0.036947
C47	C	0.957253	0.347368	0.036946
C48	C	0.917034	0.194809	-0.005294
C49	C	0.917031	0.134459	-0.005298
C50	C	1.016785	0.070687	-0.000016
C51	C	1.116541	0.067279	0.005255
C52	C	1.116541	0.127634	0.005254
C53	C	1.016777	0.191398	-0.000018
C54	C	1.076330	-0.024931	-0.036975
C55	C	1.076344	-0.085297	-0.036964
C56	C	0.957264	-0.085298	0.036961
C57	C	0.957261	-0.024940	0.036955
C58	C	1.016791	0.005243	-0.000017
C59	C	0.548037	0.553833	0.038583
C60	C	0.578885	0.592409	-0.027975
C61	C	0.578876	0.592427	0.066549
C62	C	0.454741	0.669631	-0.066629
C63	C	0.454735	0.669638	0.027943
C64	C	0.485510	0.708269	-0.038656
C65	C	1.321755	0.631051	-0.000027
C66	C	1.425256	0.631055	-0.000031
C67	C	1.016722	0.631041	-0.189279
C68	C	1.016697	0.631042	-0.253513
C69	C	1.016803	0.820295	-0.000006
C70	C	1.016806	0.884526	-0.000004
C71	C	0.957142	0.704950	-0.320638
C72	C	0.957171	0.704951	-0.380994
C73	C	1.016739	0.631040	-0.374220
C74	C	1.076307	0.557122	-0.307083
C75	C	1.076286	0.557123	-0.246729
C76	C	1.008278	0.574412	-0.441539
C77	C	1.008291	0.574414	-0.501893
C78	C	1.016811	0.631034	-0.560367
C79	C	1.025296	0.687666	-0.558488
C80	C	1.025275	0.687667	-0.498135
C81	C	1.016770	0.631031	-0.439658
C82	C	0.957285	0.704948	-0.692939
C83	C	0.957322	0.704946	-0.753294
C84	C	1.076451	0.557115	-0.679381
C85	C	1.076421	0.557119	-0.619028
C86	C	1.016832	0.631038	-0.625812
C87	C	1.016868	0.631035	0.189250
C88	C	1.016892	0.631034	0.253485
C89	C	1.321747	0.441794	-0.000035
C90	C	1.425245	0.377567	-0.000042
C91	C	1.016859	0.441779	0.189242
C92	C	1.016881	0.377546	0.253474
C93	C	1.321820	0.441791	0.189229
C94	C	1.425343	0.377563	0.253457
C95	C	0.711770	0.820285	-0.189258
C96	C	0.608247	0.884514	-0.253486
C97	C	0.711842	0.820282	0.000006
C98	C	0.608344	0.884510	0.000013
C99	C	1.016730	0.820298	-0.189271
C100	C	1.016708	0.884530	-0.253503
C101	C	1.414285	0.347403	-0.037007
C102	C	1.511523	0.287062	-0.037028
C103	C	1.619720	0.256883	-0.000079
C104	C	1.630678	0.287053	0.036887
C105	C	1.533441	0.347396	0.036903
C106	C	1.076455	0.347384	0.320599
C107	C	1.076472	0.287039	0.380958
C108	C	1.016920	0.256853	0.374189
C109	C	0.957338	0.287022	0.307056
C110	C	0.957316	0.347370	0.246699
C111	C	1.533504	0.347403	0.246659
C112	C	1.630784	0.287062	0.307002
C113	C	1.619900	0.256877	0.374142
C114	C	1.511728	0.287043	0.380939
C115	C	1.414450	0.347387	0.320597
C116	C	0.500086	0.914681	-0.246688
C117	C	0.402806	0.975041	-0.307031
C118	C	0.413689	1.005229	-0.374171
C119	C	0.521862	0.975060	-0.380968
C120	C	0.619139	0.914705	-0.320625
C121	C	0.619305	0.914680	0.036972
C122	C	0.522067	0.975037	0.036976
C123	C	0.413869	1.005219	0.000025
C124	C	0.402912	0.975046	-0.036938
C125	C	0.500149	0.914695	-0.036946
C126	C	1.076272	0.914697	-0.246711
C127	C	1.076273	0.975042	-0.307058
C128	C	1.016704	1.005225	-0.374196
C129	C	0.957139	0.975052	-0.380985
C130	C	0.957145	0.914704	-0.320639
H131	H	1.124787	0.371954	-0.067090
H132	H	1.124950	0.371954	0.326124
Cl133	Cl	1.035943	0.758856	-0.495772
Cl134	Cl	1.016704	1.081095	-0.450053
H135	H	1.124994	0.262482	0.435614
Cl136	Cl	0.535525	1.013016	-0.465378
Cl137	Cl	0.661480	0.542022	-0.064490
Cl138	Cl	1.278277	0.385334	-0.083466
H139	H	0.707395	0.890111	0.067066
Cl140	Cl	1.151170	0.876765	-0.162317
Cl141	Cl	0.755109	0.876782	-0.329184
Cl142	Cl	0.486350	0.876768	-0.083408
Cl143	Cl	0.882422	0.385276	0.162315
Cl144	Cl	0.882413	-0.123232	0.083424
Cl145	Cl	1.497721	0.249144	-0.083499
Cl146	Cl	1.547216	0.385343	0.162261
Cl147	Cl	1.766706	0.249100	0.083337
Cl148	Cl	1.151154	1.012966	-0.298506
Cl149	Cl	0.535868	1.012953	0.083451
Cl150	Cl	1.151176	0.013009	-0.083446
Cl151	Cl	1.547240	0.385303	0.083384
Cl152	Cl	0.882245	1.013012	-0.465392
Cl153	Cl	0.372137	0.719983	0.064480
H154	H	1.718853	0.262507	0.301455
H155	H	0.314737	0.999595	-0.301483
H156	H	1.016947	0.207714	0.423341
Cl157	Cl	0.291638	1.081089	0.000043
Cl158	Cl	1.742205	0.181013	0.449995
H159	H	1.502883	0.262457	0.435612
H160	H	1.124825	-0.109863	-0.067060
H161	H	1.698887	0.207747	-0.000097
H162	H	0.908853	0.262436	0.301556
H163	H	0.908671	0.765138	-0.435657
Cl164	Cl	0.661499	0.542015	0.153457
H165	H	0.908636	0.890149	-0.326179
H166	H	1.326384	0.371935	0.326142
H167	H	0.314805	0.999630	-0.067023
H168	H	1.124784	0.496937	-0.192071
Cl169	Cl	0.791616	0.274978	-0.011935
H170	H	0.491202	0.890105	-0.192024
H171	H	1.124799	0.262455	-0.067083
H172	H	1.197767	0.124854	0.009548
Cl173	Cl	1.241954	-0.012885	0.011892
H174	H	0.334470	1.054373	-0.423300
H175	H	0.835802	0.137243	-0.009594
Cl176	Cl	0.882418	0.012989	0.083423
H177	H	0.908777	0.262437	0.067040
H178	H	0.908776	0.371930	0.067046
Cl179	Cl	1.151353	0.464197	-0.670858
Cl180	Cl	0.372354	0.719983	-0.153581
Cl181	Cl	0.587248	0.453062	0.088889
H182	H	0.459885	0.773597	-0.071342
H183	H	0.908625	0.765141	-0.326169
H184	H	1.032229	0.733774	-0.606101
H185	H	0.908765	0.765137	-0.698464
H186	H	0.908829	0.765134	-0.807952
Cl187	Cl	0.997613	0.503226	-0.504252
Cl188	Cl	1.151270	0.464201	-0.534637
Cl189	Cl	0.997659	0.503182	-0.368009
H190	H	1.124810	0.496943	-0.301571
