data_functionalizedCrystal
_audit_creation_method	'MofGen! by Chris Wilmer'
_symmetry_space_group_name_H-M	'P1'
_symmetry_Int_Tables_number	1
_symmetry_cell_setting	triclinic
loop_
_symmetry_equiv_pos_as_xyz
  x,y,z
_cell_length_a	21.395362
_cell_length_b	14.908178
_cell_length_c	21.395355
_cell_angle_alpha	93.314561
_cell_angle_beta	90.043940
_cell_angle_gamma	93.328618
loop_
_atom_site_label
_atom_site_type_symbol
_atom_site_fract_x
_atom_site_fract_y
_atom_site_fract_z
Zn1	Zn	0.943530	-0.358911	0.340196
Zn2	Zn	1.443530	0.141089	0.840196
Zn3	Zn	0.937410	-0.509764	0.229370
Zn4	Zn	1.437410	-0.009764	0.729370
Zn5	Zn	0.838744	-0.358953	0.235395
Zn6	Zn	1.338744	0.141047	0.735395
Zn7	Zn	0.832691	-0.509782	0.334074
Zn8	Zn	1.332691	-0.009782	0.834074
O9	O	0.888094	-0.434352	0.284759
O10	O	1.388094	0.065648	0.784759
O11	O	1.030397	-0.378896	0.325535
O12	O	1.530397	0.121104	0.825535
O13	O	0.924294	-0.489768	0.142491
O14	O	1.424294	0.010232	0.642491
O15	O	0.857738	-0.232692	0.254381
O16	O	1.357738	0.267308	0.754381
O17	O	1.025901	-0.489727	0.244112
O18	O	1.525901	0.010273	0.744112
O19	O	0.934725	-0.232661	0.331377
O20	O	1.434725	0.267339	0.831377
O21	O	0.851804	-0.378968	0.146918
O22	O	1.351804	0.121032	0.646918
O23	O	0.750262	-0.378986	0.248445
O24	O	1.250262	0.121014	0.748445
O25	O	0.847422	-0.489759	0.422564
O26	O	1.347422	0.010241	0.922564
O27	O	0.745815	-0.489800	0.320944
O28	O	1.245815	0.010200	0.820944
O29	O	0.928856	-0.378914	0.427062
O30	O	1.428856	0.121086	0.927062
O31	O	0.918425	-0.636021	0.238176
O32	O	1.418425	-0.136021	0.738176
O33	O	0.841488	-0.636035	0.315101
O34	O	1.341488	-0.136035	0.815101
C35	C	0.725304	-0.434400	0.284684
C36	C	1.225304	0.065600	0.784684
C37	C	0.655661	-0.434442	0.284666
C38	C	1.155661	0.065558	0.784666
C39	C	0.620646	-0.492219	0.322353
C40	C	1.120646	0.007781	0.822353
C41	C	0.555212	-0.492197	0.322382
C42	C	1.055212	0.007803	0.822382
C43	C	0.524794	-0.434407	0.284712
C44	C	1.024794	0.065593	0.784712
C45	C	0.559818	-0.376619	0.247023
C46	C	1.059818	0.123381	0.747023
C47	C	0.625251	-0.376636	0.247000
C48	C	1.125251	0.123364	0.747000
C49	C	0.421360	-0.427139	0.228598
C50	C	0.921360	0.072861	0.728598
C51	C	0.355927	-0.427128	0.228620
C52	C	0.855927	0.072872	0.728620
C53	C	0.322976	-0.434348	0.284784
C54	C	0.822976	0.065652	0.784784
C55	C	0.355465	-0.441599	0.340927
C56	C	0.855465	0.058401	0.840927
C57	C	0.420898	-0.441616	0.340904
C58	C	0.920898	0.058384	0.840904
C59	C	0.453843	-0.434382	0.284733
C60	C	0.953843	0.065618	0.784733
C61	C	0.217009	-0.492105	0.322505
C62	C	0.717009	0.007895	0.822505
C63	C	0.151574	-0.492076	0.322535
C64	C	0.651574	0.007924	0.822535
C65	C	0.156181	-0.376503	0.247170
C66	C	0.656181	0.123497	0.747170
C67	C	0.221616	-0.376527	0.247146
C68	C	0.721616	0.123473	0.747146
C69	C	0.252025	-0.434332	0.284812
C70	C	0.752025	0.065668	0.784812
C71	C	0.878652	-0.668765	0.275334
C72	C	1.378652	-0.168765	0.775334
C73	C	0.874671	-0.769047	0.271323
C74	C	1.374671	-0.269047	0.771323
C75	C	0.947294	-0.957307	0.344048
C76	C	1.447294	-0.457307	0.844048
C77	C	0.943555	-1.051531	0.340282
C78	C	1.443555	-0.551531	0.840282
C79	C	0.863451	-1.051722	0.260027
C80	C	1.363451	-0.551722	0.760027
C81	C	0.867190	-0.957498	0.263793
C82	C	1.367190	-0.457498	0.763793
C83	C	0.909113	-0.910293	0.305805
C84	C	1.409113	-0.410293	0.805805
C85	C	0.912855	-0.816067	0.309568
C86	C	1.412855	-0.316067	0.809568
C87	C	0.832749	-0.816260	0.229317
C88	C	1.332749	-0.316260	0.729317
C89	C	0.829010	-0.910484	0.225550
C90	C	1.329010	-0.410484	0.725550
C91	C	1.051519	-0.434305	0.284834
C92	C	1.551519	0.065695	0.784834
C93	C	1.121161	-0.434285	0.284866
C94	C	1.621161	0.065715	0.784866
C95	C	0.888147	-0.434334	0.448183
C96	C	1.388147	0.065666	0.948183
C97	C	0.888169	-0.434326	0.517824
C98	C	1.388169	0.065674	1.017824
C99	C	0.897589	-0.199025	0.294234
C100	C	1.397589	0.300975	0.794234
C101	C	0.901635	-0.098742	0.298272
C102	C	1.401635	0.401258	0.798272
C103	C	0.888080	-0.434305	0.121973
C104	C	1.388080	0.065695	0.621973
C105	C	0.888189	-0.434059	0.052342
C106	C	1.388189	0.065941	0.552342
C107	C	0.930570	-0.376607	0.552881
C108	C	1.430570	0.123393	1.052881
C109	C	0.930570	-0.376568	0.618318
C110	C	1.430570	0.123432	1.118318
C111	C	0.888176	-0.434265	0.648695
C112	C	1.388176	0.065735	1.148695
C113	C	0.845768	-0.491988	0.613631
C114	C	1.345768	0.008012	1.113631
C115	C	0.845764	-0.492019	0.548196
C116	C	1.345764	0.007981	1.048196
C117	C	0.879957	-0.515504	0.749102
C118	C	1.379957	-0.015504	1.249102
C119	C	0.879965	-0.515475	0.814536
C120	C	1.379965	-0.015475	1.314536
C121	C	0.888184	-0.434169	0.850520
C122	C	1.388184	0.065831	1.350520
C123	C	0.896408	-0.352891	0.821062
C124	C	1.396408	0.147109	1.321062
C125	C	0.896405	-0.352921	0.755626
C126	C	1.396405	0.147079	1.255626
C127	C	0.888175	-0.434237	0.719649
C128	C	1.388175	0.065763	1.219649
C129	C	0.930588	-0.376403	0.956531
C130	C	1.430588	0.123597	1.456531
C131	C	0.930584	-0.376363	1.021969
C132	C	1.430584	0.123637	1.521969
C133	C	0.845785	-0.491791	1.017281
C134	C	1.345785	0.008209	1.517281
C135	C	0.845785	-0.491823	0.951844
C136	C	1.345785	0.008177	1.451844
C137	C	0.888190	-0.434130	0.921473
C138	C	1.388190	0.065870	1.421473
H139	H	0.535048	-0.329564	0.216353
H140	H	1.035048	0.170436	0.716353
H141	H	0.241770	-0.539169	0.353179
H142	H	0.741770	-0.039169	0.853179
H143	H	0.123065	-0.539124	0.353229
H144	H	0.623065	-0.039124	0.853229
H145	H	0.329480	-0.421230	0.182905
H146	H	0.829480	0.078770	0.682905
H147	H	0.526697	-0.539246	0.353074
H148	H	1.026697	-0.039246	0.853074
C149	C	0.799139	-0.555457	0.647044
C150	C	1.299139	-0.055457	1.147044
H151	H	0.805218	-0.547179	0.691036
H152	H	1.305218	-0.047179	1.191036
H153	H	0.757572	-0.542273	0.636820
H154	H	1.257572	-0.042273	1.136820
H155	H	0.805867	-0.616081	0.633894
H156	H	1.305867	-0.116081	1.133894
C157	C	0.782901	-0.962414	0.179339
C158	C	1.282901	-0.462414	0.679339
H159	H	0.786145	-1.025264	0.182569
H160	H	1.286145	-0.525264	0.682569
H161	H	0.741407	-0.947036	0.189062
H162	H	1.241407	-0.447036	0.689062
H163	H	0.792715	-0.946986	0.137869
H164	H	1.292715	-0.446986	0.637869
C165	C	0.260137	-0.312979	0.205686
C166	C	0.760137	0.187021	0.705686
H167	H	0.303463	-0.321261	0.211071
H168	H	0.803463	0.178739	0.711071
H169	H	0.248835	-0.326088	0.163050
H170	H	0.748835	0.173912	0.663050
H171	H	0.251885	-0.252373	0.217370
H172	H	0.751885	0.247627	0.717370
C173	C	0.977217	-0.313082	0.656887
C174	C	1.477217	0.186918	1.156887
H175	H	1.002474	-0.278732	0.629427
H176	H	1.502474	0.221268	1.129427
H177	H	0.954843	-0.273763	0.683975
H178	H	1.454843	0.226237	1.183975
H179	H	1.003124	-0.347592	0.681045
H180	H	1.503124	0.152408	1.181045
C181	C	0.457602	-0.419146	0.166820
C182	C	0.957602	0.080854	0.666820
H183	H	0.428883	-0.414824	0.133388
H184	H	0.928883	0.085176	0.633388
H185	H	0.485241	-0.366845	0.169808
H186	H	0.985241	0.133155	0.669808
H187	H	0.481034	-0.470838	0.159147
H188	H	0.981034	0.029162	0.659147
H189	H	0.653761	-0.329584	0.216310
H190	H	1.153761	0.170416	0.716310
H191	H	0.903100	-0.286741	0.731644
H192	H	1.403100	0.213259	1.231644
H193	H	0.328637	-0.447477	0.386661
H194	H	0.828637	0.052523	0.886661
C195	C	0.958959	-0.764143	0.355787
C196	C	1.458959	-0.264143	0.855787
H197	H	0.981155	-0.805641	0.378030
H198	H	1.481155	-0.305641	0.878030
H199	H	0.987736	-0.727351	0.333336
H200	H	1.487736	-0.227351	0.833336
H201	H	0.936421	-0.727415	0.384522
H202	H	1.436421	-0.227415	0.884522
C203	C	0.122731	-0.312924	0.205742
C204	C	0.622731	0.187076	0.705742
H205	H	0.078745	-0.321187	0.211153
H206	H	0.578745	0.178813	0.711153
H207	H	0.135931	-0.252330	0.217419
H208	H	0.635931	0.247670	0.717419
H209	H	0.132870	-0.326038	0.163094
H210	H	0.632870	0.173962	0.663094
H211	H	0.981434	-0.918872	0.378251
H212	H	1.481434	-0.418872	0.878251
C213	C	0.817343	-1.103657	0.213818
C214	C	1.317343	-0.603657	0.713818
H215	H	0.820589	-1.166506	0.217051
H216	H	1.320589	-0.666506	0.717051
H217	H	0.775849	-1.088281	0.223541
H218	H	1.275849	-0.588281	0.723541
H219	H	0.827155	-1.088233	0.172347
H220	H	1.327155	-0.588233	0.672347
H221	H	0.974642	-1.089806	0.371427
H222	H	1.474642	-0.589806	0.871427
H223	H	0.801661	-0.777971	0.198174
H224	H	1.301661	-0.277971	0.698174
H225	H	0.903102	-0.286684	0.850359
H226	H	1.403102	0.213316	1.350359
C227	C	0.799150	-0.555321	0.913277
C228	C	1.299150	-0.055321	1.413277
H229	H	0.805217	-0.547072	0.869956
H230	H	1.305217	-0.047072	1.369956
H231	H	0.805873	-0.615933	0.921578
H232	H	1.305873	-0.115933	1.421578
H233	H	0.757584	-0.542118	0.924499
H234	H	1.257584	-0.042118	1.424499
H235	H	0.965098	-0.329628	0.528157
H236	H	1.465098	0.170372	1.028157
C237	C	0.977220	-0.312930	0.923120
C238	C	1.477220	0.187070	1.423120
H239	H	1.002466	-0.278536	0.953373
H240	H	1.502466	0.221464	1.453373
H241	H	1.003129	-0.347440	0.896229
H242	H	1.503129	0.152560	1.396229
H243	H	0.954828	-0.273640	0.899154
H244	H	1.454828	0.226360	1.399154
C245	C	0.977228	-0.312869	1.060531
C246	C	1.477228	0.187131	1.560531
H247	H	1.002484	-0.278523	1.033068
H248	H	1.502484	0.221477	1.533068
H249	H	0.954851	-0.273548	1.087615
H250	H	1.454851	0.226452	1.587615
H251	H	1.003135	-0.347372	1.084694
H252	H	1.503135	0.152628	1.584694
H253	H	0.811261	-0.538759	1.042014
H254	H	1.311261	-0.038759	1.542014
H255	H	0.873272	-0.581657	0.838516
H256	H	1.373272	-0.081657	1.338516
C257	C	0.870780	-0.604928	0.709526
C258	C	1.370780	-0.104928	1.209526
H259	H	0.865850	-0.653324	0.736441
H260	H	1.365850	-0.153324	1.236441
H261	H	0.834479	-0.603650	0.684076
H262	H	1.334479	-0.103650	1.184076
H263	H	0.906318	-0.612980	0.683654
H264	H	1.406318	-0.112980	1.183654
C265	C	0.799125	-0.555515	0.509629
C266	C	1.299125	-0.055515	1.009629
H267	H	0.805194	-0.547267	0.466308
H268	H	1.305194	-0.047267	0.966308
H269	H	0.805847	-0.616127	0.517931
H270	H	1.305847	-0.116127	1.017931
H271	H	0.757558	-0.542309	0.520849
H272	H	1.257558	-0.042309	1.020849
C273	C	0.654094	-0.555793	0.363792
C274	C	1.154094	-0.055793	0.863792
H275	H	0.623865	-0.590194	0.386246
H276	H	1.123865	-0.090194	0.886246
H277	H	0.678001	-0.595060	0.338196
H278	H	1.178001	-0.095060	0.838196
H279	H	0.681046	-0.521337	0.392511
H280	H	1.181046	-0.021337	0.892511
H281	H	0.447348	-0.447517	0.386617
H282	H	0.947348	0.052483	0.886617
