data_functionalizedCrystal
_audit_creation_method	'MofGen! by Chris Wilmer'
_symmetry_space_group_name_H-M	'P1'
_symmetry_Int_Tables_number	1
_symmetry_cell_setting	triclinic
loop_
_symmetry_equiv_pos_as_xyz
  x,y,z
_cell_length_a	11.169417
_cell_length_b	16.959454
_cell_length_c	11.169409
_cell_angle_alpha	89.967057
_cell_angle_beta	89.980487
_cell_angle_gamma	90.021324
loop_
_atom_site_label
_atom_site_type_symbol
_atom_site_fract_x
_atom_site_fract_y
_atom_site_fract_z
Zn1	Zn	1.834881	-0.314591	-0.678528
Zn2	Zn	2.334881	0.185409	-0.178528
Zn3	Zn	1.834736	-0.446798	-0.477842
Zn4	Zn	2.334736	0.053202	0.022158
Zn5	Zn	1.634167	-0.314640	-0.477863
Zn6	Zn	2.134167	0.185360	0.022137
Zn7	Zn	1.634140	-0.446734	-0.678488
Zn8	Zn	2.134140	0.053266	-0.178488
O9	O	1.734481	-0.380691	-0.578180
O10	O	2.234481	0.119309	-0.078180
O11	O	2.002812	-0.332135	-0.651914
O12	O	2.502812	0.167865	-0.151914
O13	O	1.808081	-0.429314	-0.309895
O14	O	2.308081	0.070686	0.190105
O15	O	1.660864	-0.204023	-0.504507
O16	O	2.160864	0.295977	-0.004507
O17	O	2.002705	-0.429266	-0.504472
O18	O	2.502705	0.070734	-0.004472
O19	O	1.808328	-0.203987	-0.651934
O20	O	2.308328	0.296013	-0.151934
O21	O	1.660724	-0.332218	-0.309911
O22	O	2.160724	0.167782	0.190089
O23	O	1.466214	-0.332157	-0.504469
O24	O	1.966214	0.167843	-0.004469
O25	O	1.660819	-0.429158	-0.846443
O26	O	2.160819	0.070842	-0.346443
O27	O	1.466194	-0.429206	-0.651867
O28	O	1.966194	0.070794	-0.151867
O29	O	1.808302	-0.332073	-0.846472
O30	O	2.308302	0.167927	-0.346472
O31	O	1.808055	-0.557400	-0.504434
O32	O	2.308055	-0.057400	-0.004434
O33	O	1.660678	-0.557354	-0.651847
O34	O	2.160678	-0.057354	-0.151847
C35	C	1.422657	-0.380680	-0.578167
C36	C	1.922657	0.119320	-0.078167
C37	C	1.289257	-0.380695	-0.578189
C38	C	1.789257	0.119305	-0.078189
C39	C	1.734381	-0.586057	-0.578160
C40	C	2.234381	-0.086057	-0.078160
C41	C	1.734447	-0.673914	-0.578191
C42	C	2.234447	-0.173914	-0.078191
C43	C	1.657853	-1.045395	-0.654931
C44	C	2.157853	-0.545395	-0.154931
C45	C	1.811443	-1.045384	-0.501553
C46	C	2.311443	-0.545384	-0.001553
C47	C	1.811401	-0.962838	-0.501542
C48	C	2.311401	-0.462838	-0.001542
C49	C	1.734583	-0.921567	-0.578225
C50	C	2.234583	-0.421567	-0.078225
C51	C	1.657807	-0.962842	-0.654919
C52	C	2.157807	-0.462842	-0.154919
C53	C	1.888168	-0.921557	-0.424840
C54	C	2.388168	-0.421557	0.075160
C55	C	1.888128	-0.839006	-0.424825
C56	C	2.388128	-0.339006	0.075175
C57	C	1.811315	-0.797733	-0.501515
C58	C	2.311315	-0.297733	-0.001515
C59	C	1.734536	-0.839013	-0.578214
C60	C	2.234536	-0.339013	-0.078214
C61	C	1.657718	-0.797742	-0.654897
C62	C	2.157718	-0.297742	-0.154897
C63	C	1.580944	-0.839021	-0.731602
C64	C	2.080944	-0.339021	-0.231602
C65	C	1.580993	-0.921569	-0.731610
C66	C	2.080993	-0.421569	-0.231610
C67	C	1.811266	-0.715185	-0.501508
C68	C	2.311266	-0.215185	-0.001508
C69	C	1.657671	-0.715189	-0.654886
C70	C	2.157671	-0.215189	-0.154886
C71	C	2.047524	-0.380702	-0.578195
C72	C	2.547524	0.119298	-0.078195
C73	C	2.180924	-0.380707	-0.578201
C74	C	2.680924	0.119293	-0.078201
C75	C	1.734573	-0.380603	-0.891223
C76	C	2.234573	0.119397	-0.391223
C77	C	1.734613	-0.380566	-1.024623
C78	C	2.234613	0.119434	-0.524623
C79	C	1.734615	-0.174523	-0.578227
C80	C	2.234615	0.325477	-0.078227
C81	C	1.734672	-0.086666	-0.578247
C82	C	2.234672	0.413334	-0.078247
C83	C	1.734459	-0.380721	-0.266356
C84	C	2.234459	0.119279	0.233644
C85	C	1.734652	-0.380536	-0.132956
C86	C	2.234652	0.119464	0.367044
H87	H	1.595120	-0.681591	-0.717336
H88	H	2.095120	-0.181591	-0.217336
H89	H	1.518393	-0.805408	-0.794033
H90	H	2.018393	-0.305408	-0.294033
F91	F	1.499292	-0.965505	-0.813236
F92	F	1.999292	-0.465505	-0.313236
F93	F	1.576155	-1.089326	-0.736567
F94	F	2.076155	-0.589326	-0.236567
F95	F	1.969844	-0.795082	-0.343197
F96	F	2.469844	-0.295082	0.156803
H97	H	1.873768	-0.681580	-0.439050
H98	H	2.373768	-0.181580	0.060950
F99	F	1.893193	-1.089309	-0.419945
F100	F	2.393193	-0.589309	0.080055
H101	H	1.950700	-0.955166	-0.362400
H102	H	2.450700	-0.455166	0.137600
