data_functionalizedCrystal
_audit_creation_method	'MofGen! by Chris Wilmer'
_symmetry_space_group_name_H-M	'P1'
_symmetry_Int_Tables_number	1
_symmetry_cell_setting	triclinic
loop_
_symmetry_equiv_pos_as_xyz
  x,y,z
_cell_length_a	29.839134
_cell_length_b	12.645330
_cell_length_c	12.645323
_cell_angle_alpha	90.024870
_cell_angle_beta	89.967787
_cell_angle_gamma	89.987446
loop_
_atom_site_label
_atom_site_type_symbol
_atom_site_fract_x
_atom_site_fract_y
_atom_site_fract_z
Zn1	Zn	0.686839	0.422176	-0.599716
Zn2	Zn	0.686789	0.599464	-0.422456
Zn3	Zn	0.611708	0.422199	-0.422431
Zn4	Zn	0.611701	0.599382	-0.599642
O5	O	0.649259	0.510805	-0.511061
O6	O	0.749700	0.445718	-0.576244
O7	O	0.676812	0.575994	-0.274105
O8	O	0.621699	0.273849	-0.445969
O9	O	0.749663	0.575971	-0.446011
O10	O	0.676897	0.273832	-0.576219
O11	O	0.621650	0.445758	-0.274087
O12	O	0.548840	0.445678	-0.445897
O13	O	0.621686	0.575831	-0.747999
O14	O	0.548835	0.575854	-0.576093
O15	O	0.676890	0.445639	-0.748054
O16	O	0.676804	0.747801	-0.445940
O17	O	0.621637	0.747740	-0.576117
C18	C	0.532537	0.510760	-0.510985
C19	C	0.482602	0.510767	-0.510977
C20	C	0.649227	0.786235	-0.511046
C21	C	0.649254	0.904065	-0.511075
C22	C	0.649292	0.510723	-0.787567
C23	C	0.649307	0.510689	-0.905397
C24	C	0.172965	0.578688	-0.578771
C25	C	-0.014708	0.578718	-0.578818
O26	O	-0.038967	0.636417	-0.636414
N27	N	-0.038183	0.510844	-0.511141
C28	C	-0.014737	0.442953	-0.443452
O29	O	-0.039010	0.385216	-0.385897
C30	C	0.172935	0.442919	-0.443411
C31	C	0.196408	0.510805	-0.511085
C32	C	0.196438	0.646567	-0.646441
C33	C	0.243354	0.646563	-0.646424
C34	C	0.266796	0.578680	-0.578738
C35	C	0.243324	0.510801	-0.511069
C36	C	0.196381	0.375024	-0.375728
C37	C	0.243302	0.375019	-0.375726
C38	C	0.266774	0.442905	-0.443400
C39	C	0.313682	0.442913	-0.443366
N40	N	0.337157	0.510787	-0.511043
C41	C	0.313714	0.578670	-0.578729
C42	C	-0.113267	0.442978	-0.443477
C43	C	-0.160185	0.442988	-0.443485
C44	C	-0.160153	0.578751	-0.578854
C45	C	-0.113234	0.578746	-0.578839
C46	C	-0.089792	0.510851	-0.511154
C47	C	0.412240	0.578657	-0.578689
C48	C	0.459160	0.578650	-0.578663
C49	C	0.459123	0.442883	-0.443300
C50	C	0.412208	0.442894	-0.443321
C51	C	0.388767	0.510784	-0.511024
O52	O	0.337970	0.385236	-0.385809
O53	O	0.337996	0.636383	-0.636293
C54	C	0.126050	0.578692	-0.578788
C55	C	0.102577	0.510813	-0.511118
C56	C	0.126020	0.442930	-0.443432
C57	C	0.055659	0.510823	-0.511127
C58	C	0.032217	0.578706	-0.578813
C59	C	0.055692	0.646580	-0.646491
C60	C	0.102607	0.646576	-0.646474
C61	C	0.102545	0.375056	-0.375755
C62	C	0.055629	0.375066	-0.375776
C63	C	0.032187	0.442950	-0.443462
C64	C	0.766438	0.510851	-0.511139
C65	C	0.816372	0.510871	-0.511172
C66	C	0.649304	0.234300	-0.511099
C67	C	0.649324	0.116470	-0.511116
C68	C	0.614691	1.071635	-0.593223
C69	C	0.614514	0.949076	-0.592959
C70	C	0.636436	0.948657	-0.399348
C71	C	0.636225	1.071255	-0.399847
C72	C	0.696845	1.071165	-0.539749
C73	C	0.696553	0.948558	-0.542192
C74	C	0.614471	0.592207	-1.072927
C75	C	0.614562	0.592610	-0.950367
C76	C	0.696643	0.541017	-0.949935
C77	C	0.696452	0.541528	-1.072533
C78	C	0.637254	0.398386	-1.072590
C79	C	0.636197	0.399059	-0.949983
C80	C	0.649252	0.510811	-0.235631
C81	C	0.649325	0.510547	-0.117802
H82	H	0.478269	0.633935	-0.633773
H83	H	0.659729	0.335000	-0.919371
H84	H	0.722647	1.100158	-0.479947
O85	O	0.030422	0.719836	-0.719496
H86	H	0.009065	0.672492	-0.773546
H87	H	0.662640	0.337546	-1.101613
H88	H	0.262461	0.701841	-0.701534
H89	H	0.622637	1.101049	-0.676339
H90	H	0.622531	0.675760	-0.921056
H91	H	0.660355	1.100917	-0.336583
O92	O	0.030317	0.301852	-0.302763
H93	H	-0.006247	0.313258	-0.314128
H94	H	0.601487	1.099939	-0.375593
H95	H	0.121715	0.701855	-0.701582
H96	H	0.177356	0.701847	-0.701565
O97	O	0.712333	1.112004	-0.645841
H98	H	0.714304	1.199620	-0.643325
O99	O	0.592324	0.361779	-1.113497
H100	H	0.596652	0.286851	-1.158103
H101	H	0.660861	0.919503	-0.336500
O102	O	0.625135	0.909131	-0.702695
H103	H	0.625021	0.821357	-0.702617
O104	O	0.710002	0.650137	-1.110441
H105	H	0.710002	0.651579	-1.198204
H106	H	0.602060	0.918038	-0.374656
O107	O	0.732023	0.466189	-1.111874
H108	H	0.749288	0.429558	-1.043330
O109	O	0.731971	0.464747	-0.911346
H110	H	0.716127	0.404272	-0.859888
O111	O	0.386979	0.651959	-0.651664
H112	H	0.396012	0.633944	-0.734905
O113	O	0.624903	0.701655	-1.113793
H114	H	0.654808	0.698148	-1.165918
H115	H	0.579460	0.573630	-0.920251
H116	H	0.579681	1.102529	-0.574494
H117	H	0.706219	0.919409	-0.624417
H118	H	0.393095	0.387618	-0.388213
H119	H	0.579284	0.919834	-0.573987
O120	O	0.732534	0.908015	-0.468721
H121	H	0.717197	0.855286	-0.408611
O122	O	0.567833	0.567311	-1.111931
H123	H	0.568995	0.496475	-1.163725
H124	H	0.707050	0.622150	-0.919251
H125	H	0.601362	0.376187	-0.920870
H126	H	-0.179248	0.634024	-0.633967
O127	O	-0.087915	0.651944	-0.651844
H128	H	-0.096930	0.735127	-0.633538
O129	O	-0.185501	0.369775	-0.370489
H130	H	-0.161313	0.322565	-0.323434
O131	O	0.127821	0.301851	-0.302721
H132	H	0.118824	0.218671	-0.321023
O133	O	-0.087985	0.369771	-0.370444
H134	H	-0.112196	0.322597	-0.323378
H135	H	0.177277	0.319747	-0.320617
H136	H	0.262386	0.319724	-0.320614
H137	H	0.478219	0.387618	-0.388188
