data_functionalizedCrystal
_audit_creation_method	'MofGen! by Chris Wilmer'
_symmetry_space_group_name_H-M	'P1'
_symmetry_Int_Tables_number	1
_symmetry_cell_setting	triclinic
loop_
_symmetry_equiv_pos_as_xyz
  x,y,z
_cell_length_a	14.044191
_cell_length_b	10.489741
_cell_length_c	8.965430
_cell_angle_alpha	89.999293
_cell_angle_beta	90.001769
_cell_angle_gamma	88.865475
loop_
_atom_site_label
_atom_site_type_symbol
_atom_site_fract_x
_atom_site_fract_y
_atom_site_fract_z
O1	O	1.259809	0.307777	0.123965
O2	O	0.983764	0.296663	0.123984
O3	O	1.128068	0.117259	0.123965
O4	O	1.115505	0.487180	0.123984
O5	O	1.128056	0.117271	-0.124113
O6	O	0.983752	0.296674	-0.124095
O7	O	1.259797	0.307789	-0.124114
Cu8	Cu	1.121773	0.302232	-0.146756
Cu9	Cu	1.121788	0.302219	0.146626
O10	O	1.115493	0.487192	-0.124095
C11	C	0.948410	0.291806	-0.000053
C12	C	0.843085	0.277303	-0.000046
C13	C	0.593320	0.353648	-0.000057
C14	C	0.650247	0.250808	-0.000059
C15	C	0.757552	0.265553	-0.000052
C16	C	0.486005	0.338905	-0.000064
C17	C	1.127113	0.069637	-0.000073
C18	C	1.124274	-0.072280	-0.000070
C19	C	1.032458	-0.149736	-0.000053
C20	C	1.075825	-0.237452	-0.122372
C21	C	1.075859	-0.237436	0.122215
C22	C	1.167679	-0.158127	-0.122490
C23	C	1.167700	-0.158103	0.122206
C24	C	1.211134	-0.245785	-0.000142
C25	C	1.295151	0.312645	-0.000073
C26	C	1.400476	0.327148	-0.000070
C27	C	1.116448	0.534814	-0.000053
C28	C	1.119287	0.676731	-0.000046
N29	N	1.121770	0.302242	-0.353105
C30	C	1.055013	0.385178	-0.450402
C31	C	1.140904	0.419703	-0.549820
C32	C	1.035915	0.267732	-0.549814
C33	C	1.207704	0.336830	-0.450334
C34	C	1.102659	0.184802	-0.450319
C35	C	1.188611	0.219285	-0.549693
N36	N	1.121798	0.302200	0.352975
H37	H	0.956967	-0.107744	-0.000171
H38	H	1.280338	0.366118	-0.406821
Br39	Br	0.646405	0.518843	-0.000033
Br40	Br	1.232409	-0.099800	0.294568
H41	H	1.245139	0.149133	-0.593015
Br42	Br	1.011069	-0.295700	-0.294727
H43	H	1.086448	0.085530	-0.406579
Br44	Br	0.961007	0.502195	-0.377729
Br45	Br	1.167883	0.585206	-0.622665
Br46	Br	0.914884	0.219112	-0.622655
Br47	Br	1.232372	-0.100177	-0.295040
Br48	Br	0.597164	0.085603	-0.000071
Br49	Br	1.337069	-0.315389	-0.000253
H50	H	1.037003	-0.272348	0.225636
