data_functionalizedCrystal
_audit_creation_method	'MofGen! by Chris Wilmer'
_symmetry_space_group_name_H-M	'P1'
_symmetry_Int_Tables_number	1
_symmetry_cell_setting	triclinic
loop_
_symmetry_equiv_pos_as_xyz
  x,y,z
_cell_length_a	10.489741
_cell_length_b	10.489741
_cell_length_c	9.730223
_cell_angle_alpha	89.995878
_cell_angle_beta	89.999406
_cell_angle_gamma	84.539174
loop_
_atom_site_label
_atom_site_type_symbol
_atom_site_fract_x
_atom_site_fract_y
_atom_site_fract_z
O1	O	1.694052	0.179968	-0.114204
O2	O	1.322856	0.196860	-0.114225
O3	O	1.516900	0.002816	-0.114206
O4	O	1.500007	0.374012	-0.114223
O5	O	1.516887	0.002811	0.114374
O6	O	1.322843	0.196855	0.114355
O7	O	1.694039	0.179962	0.114376
Zn8	Zn	1.508439	0.188408	0.150657
Zn9	Zn	1.508456	0.188415	-0.150507
O10	O	1.499995	0.374006	0.114357
C11	C	1.275318	0.195582	0.000062
C12	C	1.133688	0.191765	0.000054
C13	C	1.065548	0.068300	0.000073
C14	C	0.973428	0.126626	-0.112629
C15	C	0.973449	0.126650	0.112733
C16	C	1.043433	0.250142	-0.112741
C17	C	1.043464	0.250149	0.112722
C18	C	0.951371	0.308564	-0.000007
C19	C	1.515618	-0.044718	0.000083
C20	C	1.511801	-0.186348	0.000080
C21	C	1.388336	-0.254488	0.000063
C22	C	1.446653	-0.346613	0.112768
C23	C	1.446695	-0.346582	-0.112594
C24	C	1.570169	-0.276608	0.112878
C25	C	1.570193	-0.276567	-0.112585
C26	C	1.628600	-0.368665	0.000148
C27	C	1.741577	0.181241	0.000086
C28	C	1.883206	0.185058	0.000084
C29	C	1.501277	0.421541	0.000064
C30	C	1.505094	0.563170	0.000058
N31	N	1.508437	0.188402	0.356194
N32	N	1.508468	0.188410	-0.356043
C33	C	1.594389	0.102516	0.428128
C34	C	1.594402	0.102516	0.572011
C35	C	1.422506	0.274301	0.572012
C36	C	1.422488	0.274293	0.428132
H37	H	1.115238	-0.033196	-0.000064
H38	H	1.664391	0.032579	0.630576
C39	C	1.327975	0.368788	0.651145
C40	C	1.328061	0.368881	0.809408
C41	C	1.233530	0.463374	0.888536
C42	C	1.138912	0.557774	0.809401
C43	C	1.138822	0.557684	0.651130
C44	C	1.233353	0.463191	0.572002
H45	H	1.398106	0.298997	0.867996
H46	H	1.233597	0.463440	1.005699
H47	H	1.068935	0.627724	0.867976
H48	H	1.068777	0.627568	0.592542
H49	H	1.233286	0.463125	0.454838
H50	H	0.942466	0.074385	0.208014
H51	H	1.352489	0.344232	0.369559
H52	H	1.074505	0.302344	0.208005
C53	C	0.931381	0.056008	-0.241242
C54	C	0.981916	-0.084802	-0.265924
C55	C	0.939807	-0.155455	-0.394482
C56	C	0.847163	-0.085298	-0.498359
C57	C	0.796622	0.055519	-0.473680
C58	C	0.838731	0.126172	-0.345121
H59	H	1.050501	-0.136743	-0.189025
H60	H	0.977220	-0.259697	-0.412751
H61	H	0.815991	-0.137600	-0.593526
H62	H	0.728037	0.107460	-0.550578
H63	H	0.801318	0.230414	-0.326853
H64	H	0.901947	0.410168	-0.000073
H65	H	1.286824	-0.204837	0.000171
C66	C	1.765856	-0.435442	0.000230
C67	C	1.857445	-0.412714	0.119546
C68	C	1.994698	-0.479491	0.119633
C69	C	2.040362	-0.568996	0.000404
C70	C	1.948772	-0.591728	-0.118921
C71	C	1.811518	-0.524951	-0.119008
H72	H	1.823643	-0.346453	0.207814
H73	H	2.062499	-0.462663	0.207966
H74	H	2.141965	-0.618429	0.000469
H75	H	1.982573	-0.657989	-0.207189
H76	H	1.743717	-0.541780	-0.207341
C77	C	1.688921	0.008029	0.348995
C78	C	1.685453	-0.137251	0.368801
C79	C	1.779985	-0.231744	0.289673
C80	C	1.877983	-0.180958	0.190739
C81	C	1.881454	-0.035670	0.170929
C82	C	1.786923	0.058823	0.250057
H83	H	1.612906	-0.174853	0.442042
H84	H	1.777414	-0.339296	0.304339
H85	H	1.947961	-0.250907	0.132164
H86	H	1.954002	0.001931	0.097688
H87	H	1.789494	0.166374	0.235391
H88	H	1.622359	-0.245778	0.208269
H89	H	1.074266	0.302344	-0.208129
H90	H	1.394407	-0.377627	0.208046
H91	H	1.394444	-0.377544	-0.207886
H92	H	1.622395	-0.245520	-0.207868
