data_functionalizedCrystal
_audit_creation_method	'MofGen! by Chris Wilmer'
_symmetry_space_group_name_H-M	'P1'
_symmetry_Int_Tables_number	1
_symmetry_cell_setting	triclinic
loop_
_symmetry_equiv_pos_as_xyz
  x,y,z
_cell_length_a	30.700809
_cell_length_b	30.711276
_cell_length_c	30.700862
_cell_angle_alpha	59.998386
_cell_angle_beta	89.999414
_cell_angle_gamma	60.000191
loop_
_atom_site_label
_atom_site_type_symbol
_atom_site_fract_x
_atom_site_fract_y
_atom_site_fract_z
O1	O	-0.371254	-0.311651	0.012944
O2	O	-0.307913	-0.222487	-0.012907
O3	O	-0.307911	-0.311650	0.076286
O4	O	-0.371257	-0.222488	-0.076249
O5	O	-0.235466	-0.384070	0.076286
O6	O	-0.235468	-0.294907	-0.012907
O7	O	-0.298809	-0.384071	0.012944
Cu8	Cu	-0.260524	-0.346102	0.000018
Cu9	Cu	-0.346199	-0.260456	0.000019
O10	O	-0.298812	-0.294908	-0.076249
C11	C	-0.234796	-0.137097	-0.018777
C12	C	-0.261674	-0.083360	-0.015076
C13	C	-0.182374	-0.163176	-0.019143
C14	C	-0.234798	-0.215942	-0.018783
C15	C	-0.261678	-0.246507	-0.015089
C16	C	-0.182376	-0.241901	-0.019150
C17	C	-0.155920	-0.215947	-0.018777
C18	C	-0.098463	-0.246515	-0.015075
C19	C	-0.261132	-0.163172	-0.019150
C20	C	-0.574961	-0.535511	0.039265
C21	C	-0.548506	-0.588283	0.039634
C22	C	-0.496086	-0.535509	0.039262
C23	C	-0.469751	-0.588281	0.039632
C24	C	-0.496085	-0.614360	0.039265
C25	C	-0.548507	-0.509552	0.039632
C26	C	-0.765169	-0.393516	0.024987
C27	C	-0.819034	-0.364488	0.020950
C28	C	-0.846055	-0.389406	0.018925
C29	C	-0.904462	-0.357927	0.014538
C30	C	-0.819206	-0.443357	0.020941
C31	C	-0.765344	-0.472385	0.024984
C32	C	-0.738325	-0.447463	0.027007
C33	C	-0.447920	-0.790230	0.024988
C34	C	-0.423094	-0.840041	0.020951
C35	C	-0.371150	-0.865027	0.018921
C36	C	-0.344230	-0.919028	0.014536
C37	C	-0.344030	-0.840201	0.020935
C38	C	-0.368852	-0.790399	0.024981
C39	C	-0.420803	-0.765414	0.027004
C40	C	-0.447922	-0.393510	0.024977
C41	C	-0.423099	-0.364475	0.020931
C42	C	-0.371152	-0.389391	0.018903
C43	C	-0.344235	-0.357911	0.014513
C44	C	-0.344034	-0.443338	0.020916
C45	C	-0.368860	-0.472368	0.024960
C46	C	-0.420804	-0.447452	0.026995
C47	C	-0.679920	-0.478941	0.031387
C48	C	-0.633366	-0.504032	0.034880
C49	C	-0.469171	-0.504029	0.034875
C50	C	-0.447717	-0.478936	0.031380
C51	C	-0.469170	-0.668361	0.034880
C52	C	-0.447716	-0.711408	0.031386
C53	C	-0.496432	-0.071057	-0.503890
C54	C	-0.548853	-0.018285	-0.530226
C55	C	-0.496432	-0.071056	-0.425015
C56	C	-0.548854	-0.018284	-0.451470
C57	C	-0.575308	0.007793	-0.503892
C58	C	-0.470097	-0.097014	-0.451469
C59	C	-0.368666	-0.213054	-0.552051
C60	C	-0.343664	-0.242084	-0.576877
C61	C	-0.370616	-0.217167	-0.628824
C62	C	-0.343513	-0.248647	-0.655741
C63	C	-0.422570	-0.163216	-0.655945
C64	C	-0.447565	-0.134187	-0.631122
C65	C	-0.420611	-0.159108	-0.579173
C66	C	-0.765518	0.183662	-0.631659
C67	C	-0.819384	0.233473	-0.656662
C68	C	-0.846408	0.258459	-0.629712
C69	C	-0.904813	0.312461	-0.656813
C70	C	-0.819559	0.233635	-0.577758
C71	C	-0.765694	0.183833	-0.552761
C72	C	-0.738677	0.158847	-0.579717
C73	C	-0.368668	-0.213052	-0.234803
C74	C	-0.343669	-0.242086	-0.180935
C75	C	-0.370621	-0.217169	-0.153914
C76	C	-0.343519	-0.248648	-0.095506
C77	C	-0.422573	-0.163222	-0.180762
C78	C	-0.447570	-0.134193	-0.234627
C79	C	-0.420610	-0.159111	-0.261646
C80	C	-0.447720	-0.127629	-0.552258
C81	C	-0.469327	-0.102536	-0.530805
C82	C	-0.469328	-0.102535	-0.366609
C83	C	-0.447721	-0.127627	-0.320054
C84	C	-0.633714	0.061794	-0.530997
C85	C	-0.680269	0.104841	-0.552605
O86	O	0.076277	-0.384081	0.012960
O87	O	-0.076257	-0.294916	-0.012894
O88	O	0.012931	-0.384083	0.076300
O89	O	-0.012910	-0.294914	-0.076234
O90	O	0.012933	-0.311666	0.076306
O91	O	-0.076254	-0.222499	-0.012888
O92	O	0.076280	-0.311664	0.012966
Cu93	Cu	0.000013	-0.260469	0.000040
Cu94	Cu	0.000010	-0.346111	0.000033
O95	O	-0.012908	-0.222497	-0.076228
O96	O	-0.298805	0.063292	0.012964
O97	O	-0.235462	-0.063346	-0.012888
O98	O	-0.235465	-0.063353	0.076305
O99	O	-0.298803	0.063300	-0.076229
O100	O	-0.307912	-0.063350	0.076299
O101	O	-0.307909	-0.063342	-0.012895
O102	O	-0.371252	0.063295	0.012958
Cu103	Cu	-0.346196	-0.000023	0.000031
Cu104	Cu	-0.260519	-0.000027	0.000039
O105	O	-0.371250	0.063303	-0.076236
O106	O	-1.076607	0.456783	-0.692421
O107	O	-0.924074	0.330140	-0.629074
O108	O	-1.013262	0.330138	-0.629073
O109	O	-0.987418	0.456785	-0.692422
O110	O	-1.013261	0.330136	-0.701518
O111	O	-0.924072	0.330138	-0.701518
O112	O	-1.076605	0.456781	-0.764865
Cu113	Cu	-1.000338	0.393460	-0.739807
Cu114	Cu	-1.000340	0.393461	-0.654133
O115	O	-0.987417	0.456783	-0.764866
O116	O	-0.307911	-0.311650	-0.764507
O117	O	-0.371254	-0.222491	-0.701165
O118	O	-0.371252	-0.311652	-0.701162
O119	O	-0.307912	-0.222489	-0.764510
O120	O	-0.298806	-0.384074	-0.628716
O121	O	-0.298807	-0.294912	-0.628719
O122	O	-0.235464	-0.384072	-0.692061
Cu123	Cu	-0.260521	-0.346105	-0.653775
Cu124	Cu	-0.346197	-0.260458	-0.739451
O125	O	-0.235466	-0.294910	-0.692064
C126	C	-0.155920	-0.469469	0.234827
C127	C	-0.098464	-0.523208	0.261706
C128	C	-0.182375	-0.443392	0.261162
C129	C	-0.234797	-0.390619	0.155950
C130	C	-0.261676	-0.360052	0.098494
C131	C	-0.261132	-0.364662	0.182405
C132	C	-0.234797	-0.390620	0.234826
C133	C	-0.261675	-0.360052	0.261704
C134	C	-0.182375	-0.443391	0.182406
C135	C	0.018810	-0.390643	0.234846
C136	C	0.015111	-0.360079	0.261727
C137	C	0.019176	-0.443414	0.261179
C138	C	0.018812	-0.390637	0.155967
C139	C	0.015115	-0.360067	0.098511
C140	C	0.019178	-0.443408	0.182420
C141	C	0.018807	-0.469488	0.234841
C142	C	0.015106	-0.523226	0.261717
C143	C	0.019180	-0.364683	0.182425
C144	C	-0.234799	-0.215977	0.234834
C145	C	-0.261678	-0.246545	0.261708
C146	C	-0.182376	-0.241940	0.261172
C147	C	-0.234798	-0.137119	0.155964
C148	C	-0.261676	-0.083372	0.098509
C149	C	-0.182375	-0.163202	0.182421
C150	C	-0.155921	-0.215981	0.234841
C151	C	-0.098464	-0.246554	0.261721
C152	C	-0.261134	-0.163198	0.182415
C153	C	-0.039199	0.007461	-0.503869
C154	C	-0.039568	-0.018614	-0.530207
C155	C	-0.039203	-0.071390	-0.424995
C156	C	-0.039572	-0.097344	-0.451452
C157	C	-0.039201	-0.071385	-0.503874
C158	C	-0.039570	-0.018618	-0.451448
C159	C	-0.024912	0.183325	-0.552025
C160	C	-0.020873	0.233135	-0.576849
C161	C	-0.018844	0.258123	-0.628796
C162	C	-0.014454	0.312124	-0.655711
C163	C	-0.020859	0.233301	-0.655918
C164	C	-0.024906	0.183500	-0.631097
C165	C	-0.026932	0.158512	-0.579148
C166	C	-0.024920	-0.133799	-0.631644
C167	C	-0.020882	-0.162650	-0.656647
C168	C	-0.018855	-0.216605	-0.629699
C169	C	-0.014470	-0.247897	-0.656801
C170	C	-0.020872	-0.241704	-0.577746
C171	C	-0.024919	-0.212847	-0.552747
C172	C	-0.026939	-0.158893	-0.579702
C173	C	-0.024929	-0.133823	-0.234783
C174	C	-0.020887	-0.162684	-0.180915
C175	C	-0.018862	-0.216639	-0.153896
C176	C	-0.014477	-0.247936	-0.095488
C177	C	-0.020875	-0.241733	-0.180745
C178	C	-0.024915	-0.212872	-0.234610
C179	C	-0.026947	-0.158912	-0.261627
C180	C	-0.031316	0.104507	-0.552235
C181	C	-0.034811	0.061462	-0.530782
C182	C	-0.034820	-0.102682	-0.366590
C183	C	-0.031328	-0.127624	-0.320035
C184	C	-0.034816	-0.102672	-0.530980
C185	C	-0.031322	-0.127610	-0.552588
O186	O	-0.012940	-0.294936	0.371303
O187	O	0.012923	-0.384099	0.307961
O188	O	-0.076273	-0.294935	0.307950
O189	O	0.076257	-0.384100	0.371315
O190	O	-0.076265	-0.222515	0.235508
O191	O	0.012932	-0.311679	0.235520
O192	O	-0.012931	-0.222517	0.298862
Cu193	Cu	0.000001	-0.260485	0.260576
Cu194	Cu	-0.000009	-0.346130	0.346247
O195	O	0.076266	-0.311681	0.298873
C196	C	-0.574962	0.464558	-0.503864
C197	C	-0.548506	0.490518	-0.530195
C198	C	-0.496085	0.385697	-0.424987
C199	C	-0.469749	0.411776	-0.451438
C200	C	-0.496084	0.464555	-0.503857
C201	C	-0.548507	0.411779	-0.451444
C202	C	-0.765173	0.526994	-0.552039
C203	C	-0.819039	0.555852	-0.576867
C204	C	-0.846061	0.609814	-0.628812
C205	C	-0.904469	0.641114	-0.655732
C206	C	-0.819211	0.634913	-0.655928
C207	C	-0.765348	0.606050	-0.631102
C208	C	-0.738329	0.552088	-0.579155
C209	C	-0.447916	0.606561	-0.631604
C210	C	-0.423088	0.635592	-0.656601
C211	C	-0.371143	0.610674	-0.629648
C212	C	-0.344222	0.642150	-0.656742
C213	C	-0.344023	0.556716	-0.577696
C214	C	-0.368845	0.527681	-0.552704
C215	C	-0.420798	0.552613	-0.579664
C216	C	-0.447920	0.209802	-0.234786
C217	C	-0.423096	0.159988	-0.180919
C218	C	-0.371148	0.134996	-0.153895
C219	C	-0.344230	0.080987	-0.095489
C220	C	-0.344029	0.159823	-0.180737
C221	C	-0.368856	0.209637	-0.234602
C222	C	-0.420801	0.234620	-0.261624
C223	C	-0.679923	0.520797	-0.552238
C224	C	-0.633367	0.495853	-0.530781
C225	C	-0.469169	0.331687	-0.366583
C226	C	-0.447714	0.288634	-0.320030
C227	C	-0.469167	0.496035	-0.530956
C228	C	-0.447712	0.521128	-0.552558
H229	H	-0.426680	-0.610102	0.040221
H230	H	0.019779	-0.465234	0.161179
H231	H	-0.161137	-0.141349	-0.019737
O232	O	-0.293229	-0.294536	-0.550555
C233	C	-0.293253	-0.342671	-0.545688
H234	H	-0.329373	-0.322449	-0.578117
H235	H	-0.255186	-0.373260	-0.550196
H236	H	-0.295219	-0.371229	-0.504817
O237	O	-0.040258	-0.148018	-0.426189
C238	C	-0.040522	-0.165420	-0.460811
H239	H	-0.023308	-0.146764	-0.492504
H240	H	-0.015253	-0.217790	-0.437022
H241	H	-0.083216	-0.145779	-0.480903
O242	O	0.019817	-0.313975	0.157116
C243	C	-0.025900	-0.265357	0.154443
H244	H	-0.041642	-0.285007	0.187332
H245	H	-0.015083	-0.237478	0.159911
H246	H	-0.057941	-0.234272	0.113926
H247	H	-0.569747	-0.610106	0.040228
H248	H	-0.161136	-0.141377	0.161182
H249	H	-0.161141	-0.284407	0.304244
H250	H	-0.304201	-0.322192	0.161160
O251	O	-0.312548	-0.137112	0.157123
C252	C	-0.344972	-0.119496	0.185679
H253	H	-0.324800	-0.113054	0.210930
H254	H	-0.385307	-0.074365	0.156449
H255	H	-0.351029	-0.156822	0.212746
O256	O	-0.845405	-0.467644	0.019070
C257	C	-0.820145	-0.527709	0.065882
H258	H	-0.796800	-0.532869	0.099031
H259	H	-0.851532	-0.536231	0.078607
H260	H	-0.791678	-0.562594	0.057864
O261	O	-0.156993	-0.469383	0.312517
C262	C	-0.111013	-0.469664	0.315452
H263	H	-0.115829	-0.432321	0.274662
H264	H	-0.105358	-0.460393	0.345885
H265	H	-0.074671	-0.516505	0.328184
H266	H	0.019760	-0.465234	0.304248
H267	H	-0.161128	-0.465208	0.161163
H268	H	-0.301723	0.536422	-0.555753
H269	H	-0.427024	-0.139478	-0.430231
H270	H	-0.445180	-0.860248	0.019309
O271	O	-0.040214	0.007462	-0.581571
C272	C	-0.040444	0.059718	-0.599241
H273	H	-0.023259	0.055549	-0.563360
H274	H	-0.015133	0.062996	-0.626319
H275	H	-0.083125	0.102864	-0.622331
H276	H	-0.161139	-0.284365	-0.019743
H277	H	-0.040120	0.003178	-0.430195
O278	O	-0.018962	-0.138211	-0.154922
C279	C	-0.021608	-0.084407	-0.190317
H280	H	-0.041237	-0.064830	-0.233128
H281	H	-0.046142	-0.048859	-0.181622
H282	H	0.020414	-0.096024	-0.184822
O283	O	-0.293594	-0.864367	0.018904
C284	C	-0.292456	-0.818571	-0.025951
H285	H	-0.327338	-0.771157	-0.038297
H286	H	-0.253353	-0.824517	-0.015507
H287	H	-0.295756	-0.823009	-0.060318
O288	O	-0.026993	-0.081351	-0.261075
C289	C	-0.075157	-0.033316	-0.304389
H290	H	-0.105972	-0.044184	-0.296593
H291	H	-0.090589	0.011695	-0.309153
H292	H	-0.067858	-0.028614	-0.342443
O293	O	-0.026903	0.159148	-0.501572
C294	C	-0.024246	0.191726	-0.482953
H295	H	-0.038116	0.239566	-0.518396
H296	H	-0.051112	0.196157	-0.457575
H297	H	0.018636	0.165800	-0.457832
H298	H	-0.019210	0.253653	-0.698214
H299	H	-0.445183	0.139782	-0.159066
O300	O	-0.019002	0.257331	-0.550559
C301	C	-0.062486	0.319821	-0.579402
H302	H	-0.095739	0.328404	-0.606128
H303	H	-0.077825	0.331615	-0.550371
H304	H	-0.049056	0.349973	-0.605028
H305	H	-0.569753	0.389964	-0.430206
H306	H	-0.026547	0.163294	-0.653183
O307	O	-0.026906	-0.081375	-0.657912
C308	C	-0.024249	-0.065418	-0.709121
H309	H	-0.038121	-0.086980	-0.721534
H310	H	-0.051113	-0.013191	-0.738932
H311	H	0.018634	-0.083177	-0.708305
O312	O	-0.498018	-0.081766	-0.657398
C313	C	-0.514306	-0.061498	-0.624341
H314	H	-0.477657	-0.080828	-0.593135
H315	H	-0.539561	-0.009038	-0.649595
H316	H	-0.538871	-0.078237	-0.603564
H317	H	-0.019237	-0.142213	-0.698946
H318	H	-0.569749	-0.467085	0.040220
O319	O	-0.342557	-0.237249	-0.261081
C320	C	-0.371489	-0.251811	-0.280094
H321	H	-0.415104	-0.222885	-0.284047
H322	H	-0.368574	-0.241572	-0.320737
H323	H	-0.354184	-0.302748	-0.250873
H324	H	-0.019230	-0.285631	-0.555806
O325	O	-0.026849	-0.237322	-0.502273
C326	C	-0.024209	-0.291121	-0.483850
H327	H	-0.004577	-0.310698	-0.507077
H328	H	0.000319	-0.326673	-0.439592
H329	H	-0.066233	-0.279498	-0.489984
O330	O	-0.449362	-0.312115	0.019040
C331	C	-0.420526	-0.321948	0.062541
H332	H	-0.376868	-0.361494	0.077207
H333	H	-0.423589	-0.278328	0.049394
H334	H	-0.437802	-0.333972	0.096199
H335	H	-0.026556	-0.233307	-0.256467
H336	H	-0.019226	-0.285667	-0.158742
O337	O	-0.418358	0.385646	-0.426028
C338	C	-0.400690	0.333389	-0.373984
H339	H	-0.425777	0.315386	-0.372353
H340	H	-0.357033	0.296054	-0.362878
H341	H	-0.404971	0.346471	-0.344636
O342	O	-0.573935	0.541214	-0.581562
C343	C	-0.625977	0.558648	-0.599240
H344	H	-0.639001	0.539970	-0.563364
H345	H	-0.654565	0.611020	-0.626329
H346	H	-0.626447	0.539051	-0.622320
O347	O	-0.498392	0.234019	-0.260948
C348	C	-0.517003	0.201421	-0.225710
H349	H	-0.493873	0.178197	-0.182847
H350	H	-0.561266	0.234750	-0.234528
H351	H	-0.510919	0.164957	-0.231262
O352	O	-0.739002	0.474562	-0.501588
C353	C	-0.774250	0.458606	-0.482976
H354	H	-0.808235	0.480179	-0.518423
H355	H	-0.751819	0.406380	-0.457605
H356	H	-0.791197	0.476355	-0.457851
H357	H	-0.840896	0.535415	-0.554785
O358	O	-0.845505	0.687391	-0.706347
C359	C	-0.888813	0.735417	-0.706220
H360	H	-0.881014	0.724529	-0.664526
H361	H	-0.893573	0.780429	-0.735802
H362	H	-0.926871	0.740127	-0.718230
O363	O	-0.574108	0.007693	-0.426066
C364	C	-0.539508	-0.026673	-0.374019
H365	H	-0.496411	-0.053388	-0.372382
H366	H	-0.545815	0.005868	-0.362915
H367	H	-0.548321	-0.060285	-0.344673
H368	H	-0.743490	0.626486	-0.653184
O369	O	-0.498369	0.630839	-0.657878
C370	C	-0.516985	0.684690	-0.709084
H371	H	-0.481540	0.683232	-0.721492
H372	H	-0.542362	0.687641	-0.738900
H373	H	-0.542104	0.726741	-0.708265
H374	H	-0.445174	0.679524	-0.698898
H375	H	-0.346761	0.483749	-0.510407
H376	H	-0.301729	0.139473	-0.158731
O377	O	-0.312548	-0.137051	-0.019959
C378	C	-0.344965	-0.076094	-0.066142
H379	H	-0.324787	-0.071025	-0.097833
H380	H	-0.385301	-0.064987	-0.082064
H381	H	-0.351021	-0.042979	-0.055876
O382	O	-0.498394	-0.369204	0.026914
C383	C	-0.517005	-0.315370	0.024275
H384	H	-0.493875	-0.295645	0.004639
H385	H	-0.561268	-0.279936	-0.000251
H386	H	-0.510922	-0.326995	0.066301
H387	H	-0.346770	0.229846	-0.256454
O388	O	-0.448845	-0.138949	-0.154589
C389	C	-0.500052	-0.085105	-0.189840
H390	H	-0.512458	-0.086565	-0.223825
H391	H	-0.529866	-0.082161	-0.167411
H392	H	-0.499241	-0.043048	-0.206789
H393	H	-0.743175	-0.373219	0.026636
H394	H	-0.346713	-0.233351	-0.509753
H395	H	-0.840890	-0.320560	0.019306
H396	H	-0.743487	-0.516312	0.026628
H397	H	-0.490218	-0.769893	0.026639
H398	H	-0.346767	-0.770191	0.026621
H399	H	-0.346776	-0.516292	0.026600
H400	H	-0.301736	-0.463624	0.019263
O401	O	-0.845718	0.257849	-0.551510
C402	C	-0.810477	0.225252	-0.500294
H403	H	-0.767616	0.202037	-0.500199
H404	H	-0.819296	0.258580	-0.489370
H405	H	-0.816021	0.188781	-0.469899
H406	H	-0.301369	-0.286012	-0.159078
O407	O	-0.574109	0.007689	-0.581616
C408	C	-0.539491	-0.026643	-0.599301
H409	H	-0.507823	-0.075552	-0.563435
H410	H	-0.563289	-0.028068	-0.626463
H411	H	-0.519368	-0.004070	-0.622306
H412	H	-0.743523	0.163324	-0.653612
O413	O	-0.448762	-0.139098	-0.706368
C414	C	-0.453498	-0.182513	-0.706248
H415	H	-0.450417	-0.216395	-0.664558
H416	H	-0.493761	-0.157695	-0.735838
H417	H	-0.420147	-0.208557	-0.718250
H418	H	-0.841239	0.253681	-0.698962
O419	O	-0.739566	0.159767	-0.502333
C420	C	-0.696263	0.164626	-0.502358
H421	H	-0.703961	0.203132	-0.544053
H422	H	-0.691649	0.175433	-0.472835
H423	H	-0.658163	0.119243	-0.490207
H424	H	-0.489870	-0.090268	-0.256484
