data_functionalizedCrystal
_audit_creation_method	'MofGen! by Chris Wilmer'
_symmetry_space_group_name_H-M	'P1'
_symmetry_Int_Tables_number	1
_symmetry_cell_setting	triclinic
loop_
_symmetry_equiv_pos_as_xyz
  x,y,z
_cell_length_a	18.050591
_cell_length_b	29.839131
_cell_length_c	18.050582
_cell_angle_alpha	90.025477
_cell_angle_beta	90.020922
_cell_angle_gamma	90.037426
loop_
_atom_site_label
_atom_site_type_symbol
_atom_site_fract_x
_atom_site_fract_y
_atom_site_fract_z
Zn1	Zn	1.135224	-0.178930	0.420016
Zn2	Zn	1.635224	0.321070	0.920016
Zn3	Zn	1.135106	-0.254052	0.295820
Zn4	Zn	1.635106	0.245948	0.795820
Zn5	Zn	1.011044	-0.178932	0.295827
Zn6	Zn	1.511044	0.321068	0.795827
Zn7	Zn	1.010963	-0.254028	0.419956
Zn8	Zn	1.510963	0.245972	0.919956
O9	O	1.073084	-0.216485	0.357905
O10	O	1.573084	0.283515	0.857905
O11	O	1.239133	-0.188904	0.403564
O12	O	1.739133	0.311096	0.903564
O13	O	1.118634	-0.244098	0.191896
O14	O	1.618634	0.255902	0.691896
O15	O	1.027600	-0.116064	0.312330
O16	O	1.527600	0.383936	0.812330
O17	O	1.239047	-0.244096	0.312317
O18	O	1.739047	0.255904	0.812317
O19	O	1.118835	-0.116063	0.403571
O20	O	1.618835	0.383937	0.903571
O21	O	1.027485	-0.188907	0.191902
O22	O	1.527485	0.311093	0.691902
O23	O	0.907108	-0.188884	0.312271
O24	O	1.407108	0.311116	0.812271
O25	O	1.027462	-0.244056	0.523888
O26	O	1.527462	0.255944	1.023888
O27	O	0.907049	-0.244057	0.403467
O28	O	1.407049	0.255943	0.903467
O29	O	1.118756	-0.188881	0.523933
O30	O	1.618756	0.311119	1.023933
O31	O	1.118555	-0.316916	0.312258
O32	O	1.618555	0.183084	0.812258
O33	O	1.027348	-0.316898	0.403460
O34	O	1.527348	0.183102	0.903460
C35	C	0.880132	-0.216469	0.357864
C36	C	1.380132	0.283531	0.857864
C37	C	0.797586	-0.216472	0.357864
C38	C	1.297586	0.283528	0.857864
C39	C	0.598146	-0.186434	0.308386
C40	C	1.098146	0.313566	0.808386
C41	C	0.548711	-0.227410	0.290106
C42	C	1.048711	0.272590	0.790106
C43	C	0.646456	-0.216486	0.357897
C44	C	1.146456	0.283514	0.857897
C45	C	0.548810	-0.175525	0.376175
C46	C	1.048810	0.324475	0.876175
C47	C	0.500471	-0.216495	0.357928
C48	C	1.000471	0.283505	0.857928
C49	C	0.598108	-0.257483	0.339583
C50	C	1.098108	0.242517	0.839583
C51	C	0.598211	-0.205570	0.425683
C52	C	1.098211	0.294430	0.925683
C53	C	0.548798	-0.246574	0.407429
C54	C	1.048798	0.253426	0.907429
C55	C	0.730554	-0.216480	0.357878
C56	C	1.230554	0.283520	0.857878
C57	C	0.416374	-0.216506	0.357948
C58	C	0.916374	0.283494	0.857948
C59	C	1.072950	-0.333208	0.357868
C60	C	1.572950	0.166792	0.857868
C61	C	1.072961	-0.383142	0.357877
C62	C	1.572961	0.116858	0.857877
C63	C	1.120663	-0.692782	0.310485
C64	C	1.620663	-0.192782	0.810485
C65	C	1.120754	-0.880455	0.310514
C66	C	1.620754	-0.380455	0.810514
O67	O	1.161206	-0.904717	0.270192
O68	O	1.661206	-0.404717	0.770192
N69	N	1.073238	-0.903927	0.357961
N70	N	1.573238	-0.403927	0.857961
C71	C	1.025700	-0.880478	0.405407
C72	C	1.525700	-0.380478	0.905407
O73	O	0.985292	-0.904749	0.445769
O74	O	1.485292	-0.404749	0.945769
C75	C	1.025612	-0.692806	0.405381
C76	C	1.525612	-0.192806	0.905381
C77	C	1.073126	-0.669337	0.357926
C78	C	1.573126	-0.169337	0.857926
C79	C	1.168173	-0.669312	0.263035
C80	C	1.668173	-0.169312	0.763035
C81	C	1.168147	-0.622397	0.263025
C82	C	1.668147	-0.122397	0.763025
C83	C	1.120610	-0.598951	0.310466
C84	C	1.620610	-0.098951	0.810466
C85	C	1.073100	-0.622421	0.357917
C86	C	1.573100	-0.122421	0.857917
C87	C	0.978078	-0.669358	0.452831
C88	C	1.478078	-0.169358	0.952831
C89	C	0.978062	-0.622437	0.452822
C90	C	1.478062	-0.122437	0.952822
C91	C	1.025575	-0.598967	0.405367
C92	C	1.525575	-0.098967	0.905367
C93	C	1.025537	-0.552060	0.405348
C94	C	1.525537	-0.052060	0.905348
N95	N	1.073053	-0.528588	0.357902
N96	N	1.573053	-0.028588	0.857902
C97	C	1.120589	-0.552033	0.310461
C98	C	1.620589	-0.052033	0.810461
C99	C	1.025748	-0.979009	0.405416
C100	C	1.525748	-0.479009	0.905416
C101	C	1.025769	-1.025927	0.405422
C102	C	1.525769	-0.525927	0.905422
C103	C	1.120824	-1.025900	0.310530
C104	C	1.620824	-0.525900	0.810530
C105	C	1.120799	-0.978982	0.310521
C106	C	1.620799	-0.478982	0.810521
C107	C	1.073264	-0.955537	0.357970
C108	C	1.573264	-0.455537	0.857970
C109	C	1.120530	-0.453508	0.310444
C110	C	1.620530	0.046492	0.810444
C111	C	1.120497	-0.406588	0.310436
C112	C	1.620497	0.093412	0.810436
C113	C	1.025445	-0.406619	0.405331
C114	C	1.525445	0.093381	0.905331
C115	C	1.025474	-0.453534	0.405336
C116	C	1.525474	0.046466	0.905336
C117	C	1.073023	-0.476977	0.357890
C118	C	1.573023	0.023023	0.857890
O119	O	0.985113	-0.527769	0.445655
O120	O	1.485113	-0.027769	0.945655
O121	O	1.161002	-0.527755	0.270116
O122	O	1.661002	-0.027755	0.770116
C123	C	1.120689	-0.739698	0.310495
C124	C	1.620689	-0.239698	0.810495
C125	C	1.073178	-0.763167	0.357946
C126	C	1.573178	-0.263167	0.857946
C127	C	1.025642	-0.739722	0.405387
C128	C	1.525642	-0.239722	0.905387
C129	C	1.073199	-0.810085	0.357951
C130	C	1.573199	-0.310085	0.857951
C131	C	1.120736	-0.833531	0.310510
C132	C	1.620736	-0.333531	0.810510
C133	C	1.168252	-0.810059	0.263064
C134	C	1.668252	-0.310059	0.763064
C135	C	1.168225	-0.763143	0.263054
C136	C	1.668225	-0.263143	0.763054
C137	C	0.978126	-0.763194	0.452833
C138	C	1.478126	-0.263194	0.952833
C139	C	0.978155	-0.810109	0.452838
C140	C	1.478155	-0.310109	0.952838
C141	C	1.025692	-0.833555	0.405397
C142	C	1.525692	-0.333555	0.905397
C143	C	1.266790	-0.216502	0.357947
C144	C	1.766790	0.283498	0.857947
C145	C	1.349336	-0.216510	0.357964
C146	C	1.849336	0.283490	0.857964
C147	C	1.073113	-0.216465	0.551611
C148	C	1.573113	0.283535	1.051611
C149	C	1.073126	-0.216457	0.634156
C150	C	1.573126	0.283543	1.134156
C151	C	1.073239	-0.099307	0.357958
C152	C	1.573239	0.400693	0.857958
C153	C	1.073305	-0.049373	0.357981
C154	C	1.573305	0.450627	0.857981
C155	C	1.073098	-0.216473	0.164953
C156	C	1.573098	0.283527	0.664953
C157	C	1.073230	-0.216355	0.082407
C158	C	1.573230	0.283645	0.582407
C159	C	1.023518	-0.246420	0.833583
C160	C	1.523518	0.253580	1.333583
C161	C	1.091269	-0.257404	0.882980
C162	C	1.591269	0.242596	1.382980
C163	C	1.073162	-0.216423	0.785287
C164	C	1.573162	0.283577	1.285287
C165	C	1.005449	-0.205426	0.882971
C166	C	1.505449	0.294574	1.382971
C167	C	1.073192	-0.216390	0.931272
C168	C	1.573192	0.283610	1.431272
C169	C	1.140949	-0.227429	0.833597
C170	C	1.640949	0.272571	1.333597
C171	C	1.055083	-0.175431	0.833584
C172	C	1.555083	0.324569	1.333584
C173	C	1.122881	-0.186400	0.882959
C174	C	1.622881	0.313600	1.382959
C175	C	1.073145	-0.216442	0.701189
C176	C	1.573145	0.283558	1.201189
C177	C	1.073218	-0.216371	1.015369
C178	C	1.573218	0.283629	1.515369
H179	H	0.619970	-0.196318	0.482978
H180	H	1.119970	0.303682	0.982978
Br181	Br	0.512908	-0.288985	0.477241
Br182	Br	1.012908	0.211015	0.977241
Br183	Br	1.232698	-0.701123	0.198643
Br184	Br	1.732698	-0.201123	0.698643
Br185	Br	0.512706	-0.117784	0.401918
Br186	Br	1.012706	0.382216	0.901918
H187	H	0.939458	-0.829214	0.491481
H188	H	1.439458	-0.329214	0.991481
Br189	Br	0.634263	-0.144121	0.238528
Br190	Br	1.134263	0.355879	0.738528
Br191	Br	0.634045	-0.315243	0.313728
Br192	Br	1.134045	0.184757	0.813728
Br193	Br	1.184983	-0.374739	0.246027
Br194	Br	1.684983	0.125261	0.746027
Br195	Br	0.953608	-0.288753	0.797446
Br196	Br	1.453608	0.211247	1.297446
Br197	Br	1.192952	-0.144095	0.918871
Br198	Br	1.692952	0.355905	1.418871
Br199	Br	0.961228	-0.947198	0.469817
Br200	Br	1.461228	-0.447198	0.969817
H201	H	1.198243	-0.236756	0.812000
H202	H	1.698243	0.263244	1.312000
Br203	Br	0.913599	-0.701198	0.517246
Br204	Br	1.413599	-0.201198	1.017246
Br205	Br	0.909985	-0.189945	0.919123
Br206	Br	1.409985	0.310055	1.419123
Br207	Br	1.185061	-0.485316	0.246052
Br208	Br	1.685061	0.014684	0.746052
Br209	Br	1.232644	-0.590552	0.198629
Br210	Br	1.732644	-0.090552	0.698629
H211	H	1.159489	-0.959875	0.271880
H212	H	1.659489	-0.459875	0.771880
Br213	Br	1.185336	-1.057728	0.246143
Br214	Br	1.685336	-0.557728	0.746143
Br215	Br	1.116789	-0.315159	0.919145
Br216	Br	1.616789	0.184841	1.419145
H217	H	0.986739	-0.387522	0.443954
H218	H	1.486739	0.112478	0.943954
Br219	Br	0.913548	-0.590622	0.517223
Br220	Br	1.413548	-0.090622	1.017223
H221	H	0.987071	-1.045032	0.444057
H222	H	1.487071	-0.545032	0.944057
H223	H	0.986787	-0.472644	0.443980
H224	H	1.486787	0.027356	0.943980
H225	H	1.206916	-0.744038	0.224412
H226	H	1.706916	-0.244038	0.724412
Br227	Br	1.029534	-0.117691	0.797389
Br228	Br	1.529534	0.382309	1.297389
Br229	Br	1.232762	-0.841887	0.198677
Br230	Br	1.732762	-0.341887	0.698677
H231	H	0.526970	-0.236650	0.232794
H232	H	1.026970	0.263350	0.732794
H233	H	0.939417	-0.744108	0.491466
H234	H	1.439417	-0.244108	0.991466
