data_functionalizedCrystal
_audit_creation_method	'MofGen! by Chris Wilmer'
_symmetry_space_group_name_H-M	'P1'
_symmetry_Int_Tables_number	1
_symmetry_cell_setting	triclinic
loop_
_symmetry_equiv_pos_as_xyz
  x,y,z
_cell_length_a	25.639242
_cell_length_b	16.994747
_cell_length_c	25.639233
_cell_angle_alpha	89.993240
_cell_angle_beta	90.022166
_cell_angle_gamma	90.006589
loop_
_atom_site_label
_atom_site_type_symbol
_atom_site_fract_x
_atom_site_fract_y
_atom_site_fract_z
Zn1	Zn	0.799326	-0.314218	0.295835
Zn2	Zn	0.799291	-0.446103	0.208438
Zn3	Zn	0.711902	-0.314207	0.208399
Zn4	Zn	0.711889	-0.446074	0.295828
O5	O	0.755602	-0.380150	0.252125
O6	O	0.872486	-0.331730	0.284261
O7	O	0.787690	-0.428614	0.135268
O8	O	0.723518	-0.203827	0.219984
O9	O	0.872461	-0.428625	0.220051
O10	O	0.787748	-0.203835	0.284223
O11	O	0.723485	-0.331710	0.135239
O12	O	0.638735	-0.331682	0.219977
O13	O	0.723497	-0.428575	0.368994
O14	O	0.638726	-0.428564	0.284211
O15	O	0.787736	-0.331702	0.368999
O16	O	0.787677	-0.556480	0.220044
O17	O	0.723463	-0.556459	0.284249
C18	C	0.619759	-0.380119	0.252090
C19	C	0.561645	-0.380125	0.252087
C20	C	0.755572	-0.585090	0.252149
C21	C	0.755575	-0.674412	0.252147
Zn22	Zn	0.711917	-0.945293	0.208384
Zn23	Zn	0.799349	-0.945283	0.295812
Zn24	Zn	0.711907	-0.813466	0.295819
Zn25	Zn	0.799301	-0.813358	0.208421
O26	O	0.755618	-0.879350	0.252109
O27	O	0.723539	-1.055673	0.219963
O28	O	0.787765	-0.927838	0.368978
O29	O	0.638743	-0.831003	0.284209
O30	O	0.787775	-1.055666	0.284196
O31	O	0.638750	-0.927855	0.219971
O32	O	0.723522	-0.830993	0.368984
O33	O	0.723476	-0.703071	0.284244
O34	O	0.787693	-0.830819	0.135251
O35	O	0.787683	-0.702991	0.220033
O36	O	0.723492	-0.927751	0.135224
O37	O	0.872508	-0.927734	0.284232
O38	O	0.872472	-0.830809	0.220026
C39	C	0.201286	-0.430681	0.285540
C40	C	0.146682	-0.430686	0.285548
O41	O	0.118449	-0.473632	0.313961
N42	N	0.119363	-0.380172	0.252159
C43	C	0.146651	-0.329644	0.218764
O44	O	0.118400	-0.286678	0.190365
C45	C	0.201254	-0.329636	0.218758
C46	C	0.228570	-0.380159	0.252146
C47	C	0.228603	-0.481199	0.318925
C48	C	0.283203	-0.481195	0.318916
C49	C	0.310487	-0.430673	0.285522
C50	C	0.283171	-0.380155	0.252137
C51	C	0.228541	-0.279105	0.185366
C52	C	0.283148	-0.279101	0.185364
C53	C	0.310464	-0.329624	0.218751
C54	C	0.365056	-0.329629	0.218733
N55	N	0.392375	-0.380143	0.252122
C56	C	0.365091	-0.430665	0.285517
C57	C	0.031980	-0.329664	0.218778
C58	C	-0.022622	-0.329676	0.218780
C59	C	-0.022587	-0.430717	0.285565
C60	C	0.032016	-0.430709	0.285560
C61	C	0.059299	-0.380178	0.252167
C62	C	0.479756	-0.430653	0.285495
C63	C	0.534361	-0.430647	0.285481
C64	C	0.534321	-0.329604	0.218698
C65	C	0.479721	-0.329612	0.218709
C66	C	0.452439	-0.380140	0.252112
O67	O	0.393324	-0.286702	0.190336
O68	O	0.393348	-0.473617	0.313916
C69	C	0.891975	-0.380182	0.252161
C70	C	0.950089	-0.380196	0.252176
C71	C	0.755619	-0.380137	0.388498
C72	C	0.755626	-0.380131	0.446612
C73	C	0.755635	-0.174410	0.252098
C74	C	0.755651	-0.085088	0.252087
C75	C	0.755615	-0.380107	0.116283
C76	C	0.755709	-0.379891	0.058169
C77	C	0.789118	-0.329539	0.806984
C78	C	0.789124	-0.329517	0.861588
O79	O	0.817558	-0.286595	0.889832
N80	N	0.755684	-0.379946	0.888895
C81	C	0.722231	-0.430394	0.861595
O82	O	0.693787	-0.473285	0.889835
C83	C	0.722222	-0.430411	0.806991
C84	C	0.755668	-0.379985	0.779687
C85	C	0.822561	-0.279115	0.779680
C86	C	0.822555	-0.279139	0.725079
C87	C	0.789106	-0.329585	0.697783
C88	C	0.755662	-0.380008	0.725087
C89	C	0.688767	-0.480855	0.779692
C90	C	0.688761	-0.480868	0.725085
C91	C	0.722207	-0.430441	0.697781
C92	C	0.722207	-0.430477	0.643190
N93	N	0.755648	-0.380048	0.615883
C94	C	0.789097	-0.329602	0.643179
C95	C	0.722251	-0.430353	0.976265
C96	C	0.722262	-0.430340	1.030868
C97	C	0.789155	-0.329462	1.030857
C98	C	0.789146	-0.329479	0.976254
C99	C	0.755691	-0.379924	0.948958
C100	C	0.789083	-0.329655	0.528514
C101	C	0.789075	-0.329684	0.473909
C102	C	0.722181	-0.430560	0.473924
C103	C	0.722190	-0.430533	0.528524
C104	C	0.755642	-0.380074	0.555818
O105	O	0.693787	-0.473375	0.614911
O106	O	0.817531	-0.286711	0.614932
C107	C	0.891461	-0.879261	0.252133
C108	C	0.949575	-0.879245	0.252159
C109	C	0.755588	-0.879274	0.115736
C110	C	0.755576	-0.879241	0.057622
C111	C	0.619245	-0.879442	0.252086
C112	C	0.561131	-0.879481	0.252077
C113	C	0.755611	-0.879471	0.387952
C114	C	0.755477	-0.879654	0.446065
C115	C	0.976869	-0.929749	0.285572
C116	C	1.031473	-0.929750	0.285597
C117	C	1.058783	-0.879243	0.252210
C118	C	1.031485	-0.828737	0.218793
C119	C	0.976881	-0.828741	0.218766
C120	C	0.722140	-0.929694	0.030314
C121	C	0.722118	-0.929663	-0.024290
C122	C	0.755534	-0.879184	-0.051586
C123	C	0.788971	-0.828726	-0.024274
C124	C	0.788991	-0.828753	0.030330
C125	C	0.533834	-0.829068	0.285518
C126	C	0.479229	-0.829089	0.285509
C127	C	0.451924	-0.879529	0.252061
C128	C	0.479225	-0.929944	0.218616
C129	C	0.533828	-0.929919	0.218623
C130	C	0.722207	-0.828952	0.473337
C131	C	0.722071	-0.829124	0.527941
C132	C	0.755210	-0.879994	0.555273
C133	C	0.788482	-0.930701	0.527998
C134	C	0.788615	-0.930533	0.473394
H135	H	0.457550	-0.471796	0.312696
C136	C	0.768693	-0.805318	0.633615
C137	C	0.755065	-0.880166	0.615294
H138	H	0.768606	-0.805423	0.670669
H139	H	0.744195	-0.767778	0.621237
H140	H	0.802525	-0.792000	0.621369
H141	H	0.721231	-0.893482	0.627536
H142	H	0.779565	-0.917718	0.627677
C143	C	0.960104	-0.790147	0.130253
C144	C	0.946891	-0.773214	0.182034
H145	H	0.941595	-0.755861	0.107574
H146	H	0.951143	-0.843121	0.122559
H147	H	0.996535	-0.782929	0.125506
H148	H	0.910460	-0.780437	0.186782
H149	H	0.955848	-0.720227	0.189730
H150	H	1.053728	-0.787616	0.191610
H151	H	0.694888	-0.970753	-0.046520
C152	C	0.656141	-0.530054	1.025379
C153	C	0.685499	-0.485776	1.060876
H154	H	0.633441	-0.564272	1.043905
H155	H	0.678915	-0.560237	1.004098
H156	H	0.636149	-0.495679	1.004067
H157	H	0.705495	-0.520151	1.082187
H158	H	0.662723	-0.455591	1.082167
C159	C	0.796432	-0.223331	1.092237
C160	C	0.825918	-0.273996	1.060866
H161	H	0.819127	-0.189087	1.110760
H162	H	0.776522	-0.253365	1.116309
H163	H	0.773655	-0.193170	1.070914
H164	H	0.848692	-0.304161	1.082189
H165	H	0.845836	-0.243958	1.036790
H166	H	0.305439	-0.522335	0.346105
H167	H	0.694927	-0.970803	0.052531
C168	C	1.137016	-0.824246	0.215884
C169	C	1.118804	-0.879241	0.252244
H170	H	1.174070	-0.824251	0.215907
H171	H	1.124667	-0.773368	0.224957
H172	H	1.124668	-0.837832	0.182128
H173	H	1.131149	-0.865652	0.286001
H174	H	1.131158	-0.930130	0.243175
H175	H	0.816321	-0.288564	0.550730
C176	C	0.877492	-0.790251	-0.041079
C177	C	0.825707	-0.773245	-0.054279
H178	H	0.900172	-0.755999	-0.059601
H179	H	0.885143	-0.843237	-0.050032
H180	H	0.882283	-0.783038	-0.004650
H181	H	0.820915	-0.780464	-0.090707
H182	H	0.818054	-0.720247	-0.045328
C183	C	0.344516	-0.267970	0.115035
C184	C	0.313140	-0.223559	0.148655
H185	H	0.363033	-0.233682	0.092375
H186	H	0.323202	-0.302285	0.095009
H187	H	0.368599	-0.298053	0.134922
H188	H	0.289054	-0.193481	0.128767
H189	H	0.334456	-0.189230	0.168683
C190	C	0.814449	-0.695181	0.047148
C191	C	0.825753	-0.773296	0.060340
H192	H	0.837149	-0.660944	0.065671
H193	H	0.779328	-0.683664	0.056106
H194	H	0.819215	-0.687958	0.010719
H195	H	0.820983	-0.780521	0.096768
H196	H	0.860883	-0.784817	0.051386
C197	C	0.715561	-0.722574	0.412055
C198	C	0.685774	-0.773033	0.443303
H199	H	0.693065	-0.688050	0.393519
H200	H	0.735388	-0.752739	0.387994
H201	H	0.738426	-0.692704	0.433463
H202	H	0.662911	-0.802907	0.421894
H203	H	0.665938	-0.742865	0.467367
C204	C	0.234136	-0.581079	0.384929
C205	C	0.198618	-0.536745	0.355633
H206	H	0.215627	-0.615379	0.407588
H207	H	0.255440	-0.546750	0.404957
H208	H	0.255425	-0.611184	0.362110
H209	H	0.177332	-0.506635	0.378453
H210	H	0.177306	-0.571078	0.335604
C211	C	0.373714	-0.824657	0.288483
C212	C	0.391902	-0.879558	0.252062
H213	H	0.336660	-0.824679	0.288488
H214	H	0.386054	-0.773752	0.279446
H215	H	0.386088	-0.838316	0.322218
H216	H	0.379532	-0.865895	0.218326
H217	H	0.379557	-0.930474	0.261096
H218	H	0.694978	-0.787829	0.550140
C219	C	0.859470	-0.318542	0.914862
C220	C	0.825906	-0.274042	0.946243
H221	H	0.882165	-0.284312	0.896340
H222	H	0.839548	-0.348577	0.890790
H223	H	0.879466	-0.352905	0.936179
H224	H	0.805906	-0.239682	0.924926
H225	H	0.845829	-0.243993	0.970318
H226	H	0.457479	-0.288474	0.191521
C227	C	0.093377	-0.223525	0.211587
C228	C	0.061967	-0.274125	0.182062
H229	H	0.111884	-0.189235	0.188920
H230	H	0.117464	-0.253603	0.231464
H231	H	0.072083	-0.193410	0.234396
H232	H	0.083261	-0.304244	0.159255
H233	H	0.037877	-0.244043	0.162176
C234	C	0.595222	-0.722933	0.292807
C235	C	0.563841	-0.773616	0.322285
H236	H	0.613746	-0.688699	0.315507
H237	H	0.573909	-0.692769	0.270030
H238	H	0.619298	-0.752960	0.272899
H239	H	0.539761	-0.743589	0.342191
H240	H	0.585155	-0.803783	0.345071
H241	H	0.457008	-0.788034	0.312745
H242	H	0.755514	-0.879171	-0.096047
C243	C	0.813525	-1.064302	0.456492
C244	C	0.825195	-0.986262	0.443423
H245	H	0.836112	-1.098707	0.437992
H246	H	0.778372	-1.075459	0.447422
H247	H	0.818184	-1.071667	0.492925
H248	H	0.820532	-0.978896	0.406990
H249	H	0.860356	-0.975102	0.452489
C250	C	0.395515	-0.974764	0.188921
C251	C	0.449205	-0.985391	0.181856
H252	H	0.376982	-1.009002	0.166231
H253	H	0.386561	-0.921773	0.181272
H254	H	0.386589	-0.986325	0.224052
H255	H	0.458132	-0.973825	0.146726
H256	H	0.458163	-1.038395	0.189501
H257	H	0.556050	-0.970976	0.191392
C258	C	0.714959	-0.536485	0.914885
C259	C	0.685482	-0.485816	0.946262
H260	H	0.692259	-0.570720	0.896362
H261	H	0.737735	-0.566647	0.936199
H262	H	0.734870	-0.506446	0.890807
H263	H	0.665574	-0.515855	0.970342
H264	H	0.662698	-0.455651	0.924945
C265	C	0.858606	-0.942549	0.589589
C266	C	0.824910	-0.986611	0.558046
H267	H	0.881098	-0.977063	0.608138
H268	H	0.838768	-0.912380	0.613638
H269	H	0.878812	-0.908328	0.568380
H270	H	0.804701	-1.020828	0.579256
H271	H	0.844750	-1.016793	0.533994
C272	C	0.551217	-0.469266	0.373981
C273	C	0.564387	-0.486181	0.322186
H274	H	0.569755	-0.503545	0.396640
H275	H	0.514796	-0.476499	0.378760
H276	H	0.560176	-0.416282	0.381671
H277	H	0.555424	-0.539163	0.314494
H278	H	0.600816	-0.478955	0.317404
C279	C	0.093452	-0.441819	0.355877
C280	C	0.062041	-0.486238	0.322263
H281	H	0.111988	-0.476103	0.378535
H282	H	0.072159	-0.407506	0.375905
H283	H	0.117518	-0.411733	0.335984
H284	H	0.037972	-0.516320	0.342156
H285	H	0.083336	-0.520564	0.302233
C286	C	-0.083958	-0.441826	0.355895
C287	C	-0.052584	-0.486248	0.322279
H288	H	-0.102474	-0.476108	0.378560
H289	H	-0.108037	-0.411748	0.336008
H290	H	-0.062638	-0.407505	0.375920
H291	H	-0.073904	-0.520565	0.302251
H292	H	-0.028503	-0.516339	0.342168
C293	C	-0.017158	-0.229802	0.152766
C294	C	-0.052644	-0.274145	0.182076
H295	H	-0.035693	-0.195513	0.130111
H296	H	0.004125	-0.264125	0.132735
H297	H	0.004154	-0.199684	0.175578
H298	H	-0.073954	-0.304267	0.159265
H299	H	-0.073936	-0.239817	0.202109
H300	H	0.206310	-0.237966	0.158177
H301	H	0.556546	-0.288472	0.191507
H302	H	0.816313	-0.288620	0.451680
H303	H	0.849790	-0.238074	0.702853
H304	H	0.849800	-0.238032	0.801899
H305	H	0.661511	-0.521939	0.702864
C306	C	0.663263	-0.614408	0.796502
C307	C	0.651996	-0.536288	0.809689
H308	H	0.640557	-0.648631	0.815017
H309	H	0.698383	-0.625961	0.805473
H310	H	0.658480	-0.621616	0.760072
H311	H	0.656783	-0.529079	0.846119
H312	H	0.616867	-0.524731	0.800722
C313	C	0.714906	-0.536609	0.589964
C314	C	0.685427	-0.485962	0.558542
H315	H	0.692206	-0.570826	0.608491
H316	H	0.734822	-0.506559	0.614034
H317	H	0.737676	-0.566799	0.568675
H318	H	0.662659	-0.455767	0.579832
H319	H	0.665502	-0.516015	0.534470
C320	C	0.692470	-0.475363	0.390220
C321	C	0.685411	-0.486004	0.443912
H322	H	0.669765	-0.509587	0.371693
H323	H	0.727591	-0.486927	0.381288
H324	H	0.684831	-0.422361	0.381267
H325	H	0.693054	-0.539006	0.452867
H326	H	0.650282	-0.474447	0.452848
H327	H	1.053692	-0.970877	0.312811
C328	C	0.982356	-1.029596	0.351603
C329	C	0.946858	-0.985271	0.322276
H330	H	0.963830	-1.063878	0.374260
H331	H	1.003652	-0.995261	0.371634
H332	H	1.003654	-1.059720	0.328803
H333	H	0.925563	-0.955143	0.345076
H334	H	0.925554	-1.019610	0.302243
