data_functionalizedCrystal
_audit_creation_method	'MofGen! by Chris Wilmer'
_symmetry_space_group_name_H-M	'P1'
_symmetry_Int_Tables_number	1
_symmetry_cell_setting	triclinic
loop_
_symmetry_equiv_pos_as_xyz
  x,y,z
_cell_length_a	22.010155
_cell_length_b	14.853567
_cell_length_c	14.853554
_cell_angle_alpha	83.632187
_cell_angle_beta	89.997812
_cell_angle_gamma	89.987264
loop_
_atom_site_label
_atom_site_type_symbol
_atom_site_fract_x
_atom_site_fract_y
_atom_site_fract_z
O1	O	0.050480	-1.196374	-0.117703
O2	O	0.050490	-0.933914	-0.131724
O3	O	0.050484	-1.072161	0.006517
O4	O	0.050486	-1.058127	-0.255944
O5	O	-0.050566	-1.072119	0.006517
O6	O	-0.050560	-0.933872	-0.131724
O7	O	-0.050570	-1.196332	-0.117703
Cu8	Cu	-0.059792	-1.065098	-0.124713
Cu9	Cu	0.059712	-1.065148	-0.124714
O10	O	-0.050564	-1.058085	-0.255944
C11	C	-0.000034	-0.900304	-0.131089
C12	C	-0.000030	-0.800221	-0.129185
C13	C	-0.000040	-1.071506	0.040106
C14	C	-0.000036	-1.069607	0.140190
N15	N	-0.143844	-1.065070	-0.124713
C16	C	-0.563626	-1.119891	-0.179484
C17	C	-0.627233	-1.119902	-0.179482
O18	O	-0.660127	-1.166480	-0.226044
N19	N	-0.659052	-1.065165	-0.124703
C20	C	-0.627259	-1.010421	-0.069917
O21	O	-0.660163	-0.963865	-0.023323
C22	C	-0.563652	-1.010416	-0.069915
C23	C	-0.531837	-1.065150	-0.124704
C24	C	-0.531811	-1.174621	-0.234267
C25	C	-0.468208	-1.174609	-0.234270
C26	C	-0.436419	-1.119867	-0.179490
C27	C	-0.468234	-1.065137	-0.124707
C28	C	-0.531861	-0.955678	-0.015124
C29	C	-0.468250	-0.955678	-0.015127
C30	C	-0.436435	-1.010411	-0.069915
C31	C	-0.372843	-1.010384	-0.069930
N32	N	-0.341025	-1.065120	-0.124708
C33	C	-0.372813	-1.119862	-0.179488
C34	C	-0.760837	-1.010437	-0.069924
C35	C	-0.824442	-1.010437	-0.069930
C36	C	-0.824412	-1.119919	-0.179494
C37	C	-0.760806	-1.119914	-0.179492
C38	C	-0.729018	-1.065174	-0.124702
C39	C	-0.239242	-1.119832	-0.179492
C40	C	-0.175633	-1.119812	-0.179493
C41	C	-0.175668	-1.010334	-0.069926
C42	C	-0.239271	-1.010350	-0.069928
C43	C	-0.271057	-1.065106	-0.124713
O44	O	-0.339909	-0.963832	-0.023389
O45	O	-0.339901	-1.166419	-0.226066
N46	N	0.143764	-1.065183	-0.124707
C47	C	-0.000045	-1.229942	-0.118338
C48	C	-0.000045	-1.330025	-0.120242
C49	C	-0.000044	-0.387691	-0.039019
C50	C	-0.000042	-0.366402	-0.203253
C51	C	-0.000040	-0.460436	-0.205043
C52	C	-0.000039	-0.518102	-0.123820
C53	C	-0.000040	-0.481734	-0.040806
C54	C	-0.000033	-0.496811	-0.288055
C55	C	-0.000031	-0.590850	-0.289848
C56	C	-0.000034	-0.648518	-0.208624
C57	C	-0.000036	-0.612144	-0.125607
C58	C	-0.000034	-0.669810	-0.044384
C59	C	-0.000040	-0.633439	0.038633
C60	C	-0.000043	-0.539401	0.040418
C61	C	-0.000031	-0.742555	-0.210408
C62	C	-0.000031	-0.763853	-0.046172
C63	C	0.055047	-1.061574	0.563366
C64	C	-0.055122	-1.061528	0.563361
C65	C	-0.055122	-1.063320	0.469328
C66	C	-0.000037	-1.064237	0.422309
C67	C	0.055048	-1.063363	0.469324
C68	C	-0.110207	-1.064185	0.422305
C69	C	-0.110210	-1.065976	0.328265
C70	C	-0.055124	-1.066900	0.281246
C71	C	-0.000036	-1.066026	0.328266
C72	C	0.055049	-1.066944	0.281248
C73	C	0.110137	-1.066077	0.328267
C74	C	0.110134	-1.064287	0.422304
C75	C	-0.055121	-1.068690	0.187209
C76	C	0.055050	-1.068733	0.187205
C77	C	-0.000039	-1.058744	0.710468
C78	C	-0.000038	-1.060656	0.610385
H79	H	-0.149732	-1.164382	-0.224112
C80	C	0.170726	-1.063357	0.474025
H81	H	0.203534	-1.064177	0.432560
H82	H	0.173029	-1.010136	0.503909
H83	H	0.172998	-1.115206	0.517513
C84	C	-0.000026	-0.827278	0.043176
H85	H	-0.000025	-0.792146	0.092868
H86	H	-0.035260	-0.864403	0.045895
H87	H	0.035221	-0.864407	0.045890
C88	C	-0.000045	-0.302974	-0.292590
H89	H	-0.000051	-0.241760	-0.279636
H90	H	0.035192	-0.314019	-0.326629
H91	H	-0.035289	-0.314001	-0.326618
H92	H	-0.000035	-0.680402	0.104765
C93	C	-0.115710	-1.060523	0.615079
H94	H	-0.107821	-1.059337	0.677819
H95	H	-0.138345	-1.008279	0.592857
H96	H	-0.138340	-1.113349	0.606482
C97	C	-0.566768	-1.234837	-0.294536
H98	H	-0.538702	-1.267420	-0.327163
H99	H	-0.591578	-1.276293	-0.257683
H100	H	-0.591582	-1.197936	-0.335969
H101	H	0.099907	-1.069484	0.148929
H102	H	-0.000063	-0.509779	0.108006
H103	H	-0.155054	-1.063433	0.460594
C104	C	-0.433285	-0.895457	0.045135
H105	H	-0.390846	-0.903289	0.037295
H106	H	-0.443726	-0.833798	0.028498
H107	H	-0.443706	-0.912144	0.106794
H108	H	-0.000028	-0.449853	-0.354182
H109	H	-0.149775	-0.965762	-0.025328
H110	H	-0.734906	-1.164482	-0.224106
C111	C	-0.000033	-0.630851	-0.381161
H112	H	-0.000038	-0.583038	-0.429277
H113	H	0.035204	-0.667107	-0.385278
H114	H	-0.035277	-0.667077	-0.385268
C115	C	-0.433219	-1.234825	-0.294529
H116	H	-0.461268	-1.267431	-0.327142
H117	H	-0.408411	-1.197938	-0.335959
H118	H	-0.408402	-1.276276	-0.257654
H119	H	-0.000051	-0.358073	0.028572
H120	H	-0.155066	-1.066685	0.289990
H121	H	-0.265176	-0.965770	-0.025326
C122	C	-0.566843	-0.895487	0.045161
H123	H	-0.538793	-0.862902	0.077793
H124	H	-0.591670	-0.854032	0.008316
H125	H	-0.591642	-0.932402	0.086588
C126	C	-0.000022	-0.782561	-0.301715
H127	H	-0.000024	-0.734749	-0.349832
H128	H	0.035217	-0.818814	-0.305821
H129	H	-0.035265	-0.818790	-0.305830
H130	H	-0.099973	-1.069375	0.148927
C131	C	-0.859431	-0.950222	-0.009672
H132	H	-0.831384	-0.917625	0.022953
H133	H	-0.884253	-0.908777	-0.046536
H134	H	-0.884235	-0.987122	0.031761
C135	C	0.115642	-1.060643	0.615081
H136	H	0.148446	-1.061458	0.573608
H137	H	0.117946	-1.007424	0.644967
H138	H	0.117919	-1.112494	0.658564
C139	C	-0.274196	-1.180054	-0.239762
H140	H	-0.246132	-1.212636	-0.272392
H141	H	-0.299003	-1.221511	-0.202904
H142	H	-0.299013	-1.143155	-0.281191
H143	H	-0.850306	-1.164492	-0.224100
C144	C	0.170727	-1.067088	0.276541
H145	H	0.162834	-1.068280	0.213803
H146	H	0.193367	-1.014276	0.285140
H147	H	0.193356	-1.119346	0.298757
H148	H	-0.734959	-0.965853	-0.025311
