data_functionalizedCrystal
_audit_creation_method	'MofGen! by Chris Wilmer'
_symmetry_space_group_name_H-M	'P1'
_symmetry_Int_Tables_number	1
_symmetry_cell_setting	triclinic
loop_
_symmetry_equiv_pos_as_xyz
  x,y,z
_cell_length_a	15.538191
_cell_length_b	12.837942
_cell_length_c	11.295483
_cell_angle_alpha	94.530417
_cell_angle_beta	92.474304
_cell_angle_gamma	108.949483
loop_
_atom_site_label
_atom_site_type_symbol
_atom_site_fract_x
_atom_site_fract_y
_atom_site_fract_z
O1	O	1.226210	0.334745	0.099039
O2	O	0.962344	0.218961	0.099038
O3	O	1.088426	0.425554	0.099031
O4	O	1.100128	0.128152	0.099046
O5	O	1.077350	0.407429	-0.099019
O6	O	0.951268	0.200836	-0.099012
O7	O	1.215134	0.316620	-0.099011
Cu8	Cu	1.082190	0.257073	-0.117095
Cu9	Cu	1.095288	0.278508	0.117122
O10	O	1.089053	0.110028	-0.099004
C11	C	0.922798	0.197785	0.000013
C12	C	0.821464	0.161701	0.000012
N13	N	1.072984	0.242001	-0.281831
C14	C	1.078935	0.453624	0.000007
C15	C	1.067145	0.564266	0.000009
C16	C	0.501494	0.520183	0.000013
C17	C	0.406274	0.486252	0.000016
C18	C	0.400964	0.295396	0.000025
C19	C	0.496185	0.329311	0.000017
C20	C	0.546443	0.441706	0.000012
C21	C	0.541134	0.250834	0.000015
C22	C	0.636347	0.284747	0.000013
C23	C	0.686611	0.397137	0.000012
C24	C	0.641656	0.475619	0.000010
C25	C	0.490875	0.138440	0.000028
C26	C	0.535823	0.059963	0.000027
C27	C	0.631037	0.093875	0.000017
C28	C	0.681302	0.206265	0.000016
C29	C	0.675993	0.015393	0.000019
C30	C	0.771206	0.049306	0.000017
C31	C	0.776515	0.240178	0.000014
C32	C	1.254680	0.337797	0.000016
C33	C	1.356016	0.373881	0.000025
C34	C	1.098544	0.081957	0.000023
C35	C	1.110334	-0.028683	0.000029
C36	C	1.208883	0.858557	0.000034
C37	C	1.197810	0.962516	0.000036
C38	C	1.033926	0.876147	0.000023
C39	C	1.045000	0.772188	0.000021
C40	C	1.132481	0.763398	0.000025
C41	C	1.143553	0.659435	0.000014
C42	C	0.979671	0.573069	0.000010
C43	C	0.968597	0.677029	0.000012
C44	C	1.170768	0.402149	-0.531126
C45	C	1.163817	0.390754	-0.655789
C46	C	1.052129	0.207819	-0.655823
C47	C	1.059079	0.219214	-0.531160
C48	C	1.118401	0.316382	-0.468816
C49	C	1.125356	0.327773	-0.344150
C50	C	1.013663	0.144842	-0.344186
C51	C	1.006713	0.133447	-0.468850
N52	N	1.104501	0.293591	0.281858
H53	H	0.817438	0.331700	0.000003
O54	O	1.220311	0.483256	-0.722992
H55	H	1.203028	0.559258	-0.699065
O56	O	0.942745	0.028642	-0.536098
H57	H	0.871891	0.016908	-0.512203
H58	H	0.369681	0.550166	0.000019
H59	H	0.413346	0.110833	0.000034
O60	O	0.621777	-0.105826	0.000034
H61	H	0.669030	-0.154700	0.000041
H62	H	0.917458	0.495575	-0.000007
H63	H	0.494891	-0.031548	0.000036
O64	O	0.988150	0.103022	-0.723073
H65	H	0.992121	0.109511	-0.820227
O66	O	0.346756	0.174174	0.000030
H67	H	0.359250	0.127540	-0.080691
O68	O	0.819696	-0.035331	0.000003
H69	H	0.768753	-0.119184	-0.000009
O70	O	0.957170	0.052328	-0.276984
H71	H	0.971962	0.076576	-0.179823
H72	H	1.173661	0.406890	-0.293391
O73	O	1.237905	0.649953	0.000035
H74	H	1.270571	0.683245	-0.080672
O75	O	0.789306	0.433726	-0.000006
H76	H	0.817792	0.408858	0.080708
O77	O	1.303230	0.849061	0.000039
H78	H	1.354500	0.932700	0.000051
H79	H	0.897373	0.684202	0.000013
O80	O	1.280212	1.065155	0.000031
H81	H	1.342899	1.041571	0.000022
H82	H	0.962704	0.883326	0.000033
O83	O	0.695876	0.596845	0.000002
H84	H	0.648626	0.645725	0.000007
H85	H	1.219077	0.481263	-0.480364
H86	H	0.542417	0.611706	0.000002
