data_functionalizedCrystal
_audit_creation_method	'MofGen! by Chris Wilmer'
_symmetry_space_group_name_H-M	'P1'
_symmetry_Int_Tables_number	1
_symmetry_cell_setting	triclinic
loop_
_symmetry_equiv_pos_as_xyz
  x,y,z
_cell_length_a	15.944493
_cell_length_b	14.971486
_cell_length_c	13.448316
_cell_angle_alpha	90.006811
_cell_angle_beta	89.997050
_cell_angle_gamma	96.455414
loop_
_atom_site_label
_atom_site_type_symbol
_atom_site_fract_x
_atom_site_fract_y
_atom_site_fract_z
O1	O	1.114667	-0.115115	-0.082604
O2	O	0.870124	-0.129392	-0.082626
O3	O	0.998950	0.007955	-0.082607
O4	O	0.985841	-0.252462	-0.082623
O5	O	0.998933	0.007964	0.082776
O6	O	0.870108	-0.129383	0.082758
O7	O	1.114650	-0.115107	0.082780
Cu8	Cu	0.992378	-0.122244	0.097870
Cu9	Cu	0.992397	-0.122254	-0.097716
O10	O	0.985825	-0.252454	0.082761
C11	C	0.838820	-0.128804	0.000064
C12	C	0.745570	-0.127055	0.000056
C13	C	1.145954	-0.115694	0.000088
C14	C	1.239204	-0.117444	0.000090
C15	C	1.474887	-0.036598	0.000079
C16	C	1.525489	-0.080191	0.081620
C17	C	1.409928	-0.120685	0.000080
C18	C	1.525481	-0.080219	-0.081436
C19	C	1.574841	-0.123810	0.000066
C20	C	1.459301	-0.164255	0.081688
C21	C	1.459290	-0.164271	-0.081441
C22	C	1.509859	-0.207926	0.000120
C23	C	1.314927	-0.118883	0.000089
C24	C	1.669840	-0.125619	0.000065
C25	C	0.998355	0.041283	0.000084
C26	C	0.996598	0.140578	0.000083
C27	C	0.986419	-0.285782	0.000067
C28	C	0.988176	-0.385076	0.000062
N29	N	0.992370	-0.122237	0.235434
C30	C	1.072280	0.197902	0.000091
C31	C	1.070624	0.291199	0.000080
C32	C	0.993286	0.327171	0.000070
C33	C	0.917599	0.269840	0.000060
C34	C	0.919255	0.176544	0.000063
C35	C	0.914151	0.464298	0.000056
C36	C	0.912494	0.557600	0.000055
C37	C	1.065520	0.578953	0.000073
C38	C	1.067177	0.485657	0.000076
C39	C	0.991489	0.428333	0.000068
N40	N	0.992411	-0.122255	-0.235280
C41	C	1.049432	-0.061444	0.287482
C42	C	1.049437	-0.061444	0.391586
C43	C	0.992384	-0.122240	0.443639
C44	C	0.935316	-0.183035	0.391583
C45	C	0.935308	-0.183031	0.287481
C46	C	0.935340	-0.183041	0.608563
C47	C	0.935349	-0.183047	0.712671
C48	C	1.049469	-0.061454	0.712667
C49	C	1.049461	-0.061450	0.608566
C50	C	0.992393	-0.122246	0.556517
H51	H	1.459190	0.035832	0.000165
H52	H	0.888841	-0.232533	0.245105
O53	O	1.559899	-0.037975	-0.163780
C54	C	1.563878	-0.033479	-0.342843
C55	C	1.524850	-0.081424	-0.249679
H56	H	1.535544	-0.068576	-0.412316
H57	H	1.635095	-0.035841	-0.342513
H58	H	1.549847	0.039525	-0.342666
H59	H	1.538816	-0.154446	-0.249795
H60	H	1.453644	-0.078989	-0.250045
H61	H	1.554392	-0.044677	0.150562
H62	H	1.430509	-0.199739	0.150699
H63	H	1.132252	0.337869	0.000089
O64	O	1.528359	-0.294412	0.000339
C65	C	1.515301	-0.436423	0.086474
C66	C	1.494306	-0.338495	0.086356
H67	H	1.487764	-0.472098	0.156000
H68	H	1.586714	-0.437203	0.085879
H69	H	1.486918	-0.472484	0.017582
H70	H	1.522634	-0.302376	0.155237
H71	H	1.422886	-0.337779	0.086900
H72	H	0.849519	0.586885	0.000062
H73	H	1.430371	-0.199754	-0.150386
H74	H	0.888858	-0.232534	0.433970
H75	H	0.888889	-0.232553	0.755048
O76	O	1.104842	-0.002274	0.442030
C77	C	1.153913	0.153229	0.473934
C78	C	1.091127	0.086316	0.416731
H79	H	1.142835	0.224868	0.453516
H80	H	1.221210	0.141601	0.453424
H81	H	1.144138	0.142745	0.557275
H82	H	1.100825	0.096760	0.333376
H83	H	1.023853	0.097961	0.437324
O84	O	1.147481	0.163112	0.000054
C85	C	1.299086	0.194149	0.000117
C86	C	1.213979	0.233664	0.000142
H87	H	1.352872	0.251171	0.000209
H88	H	1.303750	0.151030	-0.069111
H89	H	1.303639	0.150981	0.069315
H90	H	1.209368	0.276872	-0.069009
H91	H	1.209352	0.276732	0.069416
H92	H	1.130152	0.456373	0.000092
O93	O	1.139024	0.634667	-0.000104
C94	C	1.225957	0.752412	-0.085758
C95	C	1.142696	0.689350	-0.085696
H96	H	1.228946	0.796651	-0.154941
H97	H	1.281547	0.710717	-0.085809
H98	H	1.228992	0.796596	-0.016518
H99	H	1.139579	0.645152	-0.154924
H100	H	1.087146	0.731098	-0.085593
H101	H	0.852518	0.417626	0.000046
H102	H	0.854628	0.299135	0.000045
H103	H	0.857627	0.129871	0.000057
O104	O	1.104793	-0.002424	0.557841
C105	C	1.219147	0.016899	0.439866
C106	C	1.156659	-0.050109	0.497342
H107	H	1.261085	-0.021628	0.390924
H108	H	1.260010	0.060479	0.494768
H109	H	1.182560	0.061463	0.391303
H110	H	1.193178	-0.094732	0.545907
H111	H	1.115796	-0.093626	0.442387
H112	H	1.095895	-0.011941	0.245108
H113	H	1.095935	-0.011951	0.755051
H114	H	0.888867	-0.232546	0.566188
