data_functionalizedCrystal
_audit_creation_method	'MofGen! by Chris Wilmer'
_symmetry_space_group_name_H-M	'P1'
_symmetry_Int_Tables_number	1
_symmetry_cell_setting	triclinic
loop_
_symmetry_equiv_pos_as_xyz
  x,y,z
_cell_length_a	27.731994
_cell_length_b	27.732048
_cell_length_c	11.892095
_cell_angle_alpha	93.851775
_cell_angle_beta	86.140354
_cell_angle_gamma	82.631595
loop_
_atom_site_label
_atom_site_type_symbol
_atom_site_fract_x
_atom_site_fract_y
_atom_site_fract_z
O1	O	0.644053	0.054283	-0.093853
O2	O	0.503257	0.063055	-0.093892
O3	O	0.578027	-0.011728	-0.093850
O4	O	0.569283	0.129066	-0.093895
O5	O	0.571793	-0.005502	0.094154
O6	O	0.497023	0.069280	0.094112
O7	O	0.637819	0.060509	0.094151
Zn8	Zn	0.566431	0.065883	0.123981
Zn9	Zn	0.574645	0.057681	-0.123722
O10	O	0.563049	0.135292	0.094109
C11	C	0.482133	0.065987	0.000105
C12	C	0.428477	0.065445	0.000091
C13	C	0.574727	-0.026622	0.000155
C14	C	0.574174	-0.080276	0.000165
C15	C	0.092359	0.065424	0.102617
C16	C	-0.109300	0.063363	0.102630
O17	O	-0.138262	0.065962	0.189786
N18	N	-0.131116	0.059713	0.000150
C19	C	-0.102514	0.056575	-0.102342
O20	O	-0.125697	0.053419	-0.189508
C21	C	0.099144	0.058633	-0.102354
C22	C	0.120957	0.062288	0.000133
C23	C	0.114173	0.069078	0.205096
C24	C	0.164584	0.069596	0.205092
C25	C	0.193182	0.066460	0.102608
C26	C	0.171368	0.062806	0.000129
C27	C	0.127745	0.055492	-0.204844
C28	C	0.178163	0.056005	-0.204838
C29	C	0.199976	0.059660	-0.102351
C30	C	0.250377	0.060188	-0.102359
N31	N	0.272194	0.063837	0.000122
C32	C	0.243596	0.066973	0.102605
C33	C	-0.208388	0.055496	-0.102328
C34	C	-0.258803	0.054983	-0.102325
C35	C	-0.265584	0.061769	0.102647
C36	C	-0.215169	0.062286	0.102643
C37	C	-0.186572	0.059146	0.000153
C38	C	0.349464	0.068061	0.102588
C39	C	0.399879	0.068581	0.102575
C40	C	0.406657	0.061792	-0.102397
C41	C	0.356245	0.061274	-0.102384
C42	C	0.327650	0.064408	0.000117
O43	O	0.279370	0.057585	-0.189469
O44	O	0.266790	0.070119	0.189758
C45	C	0.041948	0.064906	0.102621
C46	C	0.020134	0.061252	0.000142
C47	C	0.048732	0.058116	-0.102341
C48	C	-0.030280	0.060739	0.000145
C49	C	-0.058878	0.063875	0.102628
C50	C	-0.037061	0.067524	0.205109
C51	C	0.013350	0.068042	0.205105
C52	C	0.026915	0.054466	-0.204822
C53	C	-0.023496	0.053949	-0.204809
C54	C	-0.052094	0.057085	-0.102326
C55	C	0.614880	-0.419101	0.000118
C56	C	0.612829	-0.620761	0.000102
O57	O	0.650052	-0.652025	0.000062
N58	N	0.568493	-0.639876	0.000090
C59	C	0.524667	-0.608573	0.000076
O60	O	0.486910	-0.629460	0.000054
C61	C	0.526718	-0.406915	0.000084
C62	C	0.571057	-0.387802	0.000107
C63	C	0.659215	-0.399987	0.000139
C64	C	0.659727	-0.349575	0.000150
C65	C	0.615904	-0.318276	0.000138
C66	C	0.571569	-0.337390	0.000117
C67	C	0.482893	-0.375613	0.000061
C68	C	0.483410	-0.325196	0.000060
C69	C	0.527748	-0.306083	0.000083
C70	C	0.528258	-0.255679	0.000116
N71	N	0.572594	-0.236563	0.000127
C72	C	0.616417	-0.267862	0.000138
C73	C	0.523593	-0.714447	0.000073
C74	C	0.523080	-0.764862	0.000073
C75	C	0.611243	-0.777045	0.000097
C76	C	0.611755	-0.726630	0.000105
C77	C	0.567929	-0.695332	0.000085
C78	C	0.617489	-0.161992	0.000161
C79	C	0.617997	-0.111575	0.000176
C80	C	0.529834	-0.099396	0.000146
C81	C	0.529326	-0.149809	0.000137
C82	C	0.573157	-0.181106	0.000141
O83	O	0.491055	-0.224387	0.000142
O84	O	0.654169	-0.246967	0.000135
C85	C	0.614368	-0.469513	0.000108
C86	C	0.570033	-0.488626	0.000086
C87	C	0.526210	-0.457328	0.000075
C88	C	0.569520	-0.539041	0.000086
C89	C	0.613343	-0.570339	0.000097
C90	C	0.657679	-0.551224	0.000109
C91	C	0.658191	-0.500812	0.000119
C92	C	0.481874	-0.476443	0.000063
C93	C	0.481366	-0.526856	0.000055
C94	C	0.525189	-0.558155	0.000066
C95	C	0.658944	0.057576	0.000151
C96	C	0.712600	0.058119	0.000158
C97	C	0.566350	0.150185	0.000101
C98	C	0.566903	0.203840	0.000085
N99	N	0.560829	0.071481	0.293032
N100	N	0.580251	0.052079	-0.292773
C101	C	0.619233	0.013099	0.529713
C102	C	0.615321	0.017016	0.648053
C103	C	0.549090	0.083227	0.648053
C104	C	0.553003	0.079311	0.529714
C105	C	0.588076	0.044246	0.470548
C106	C	0.591990	0.040333	0.352206
C107	C	0.525757	0.106541	0.352209
C108	C	0.521845	0.110458	0.470548
H109	H	0.417637	0.071559	0.186036
H110	H	0.520531	0.111773	0.696242
C111	C	0.180060	0.033963	0.379803
C112	C	0.188557	0.073605	0.317751
H113	H	0.194861	0.036437	0.449355
H114	H	0.145945	0.034110	0.394453
H115	H	0.193621	0.004459	0.337688
H116	H	0.174994	0.103110	0.359862
H117	H	0.222679	0.073464	0.303104
C118	C	0.662239	0.024933	0.219048
C119	C	0.630519	0.001777	0.287138
H120	H	0.686020	0.001125	0.178877
H121	H	0.644242	0.042930	0.166900
H122	H	0.677974	0.046442	0.265195
H123	H	0.614782	-0.019729	0.240989
H124	H	0.648519	-0.016228	0.339292
H125	H	0.653180	-0.187470	0.000159
C126	C	0.684309	-0.051952	0.541594
C127	C	0.657785	-0.025441	0.464670
H128	H	0.708108	-0.075747	0.501438
H129	H	0.700019	-0.030426	0.587737
H130	H	0.662789	-0.067669	0.587764
H131	H	0.679306	-0.009720	0.418506
H132	H	0.642075	-0.046970	0.418507
H133	H	-0.060355	0.070080	0.288555
C134	C	0.696031	-0.633920	0.000096
C135	C	0.705851	-0.585635	0.000113
H136	H	0.725769	-0.655164	0.000086
H137	H	0.675666	-0.637509	0.065650
H138	H	0.680005	-0.641834	-0.065473
H139	H	0.721874	-0.577720	0.065687
H140	H	0.726223	-0.582044	-0.065448
H141	H	0.493288	0.139006	0.518735
H142	H	0.486975	-0.780418	0.000074
C143	C	0.436396	-0.707478	0.000066
C144	C	0.475415	-0.680047	0.000067
H145	H	0.406653	-0.686242	0.000074
H146	H	0.440204	-0.729560	-0.065493
H147	H	0.435866	-0.725231	0.065630
H148	H	0.475947	-0.662297	-0.065501
H149	H	0.471606	-0.657957	0.065633
H150	H	0.695832	-0.334019	0.000164
C151	C	-0.247022	0.048323	-0.304929
C152	C	-0.282777	0.050970	-0.214983
H153	H	-0.261822	0.045841	-0.374480
H154	H	-0.231401	0.076863	-0.300674
H155	H	-0.223600	0.020465	-0.300640
H156	H	-0.306197	0.078830	-0.219266
H157	H	-0.298406	0.022428	-0.219240
C158	C	0.442233	-0.132699	0.000102
C159	C	0.480589	-0.170820	0.000110
H160	H	0.412146	-0.145670	0.000069
H161	H	0.442090	-0.111129	0.065671
H162	H	0.446448	-0.115450	-0.065452
H163	H	0.476376	-0.188068	0.065669
H164	H	0.480732	-0.192399	-0.065465
H165	H	0.640692	-0.008348	0.696222
C166	C	0.519180	0.168004	0.219124
C167	C	0.491507	0.140784	0.287174
H168	H	0.498037	0.189142	0.178972
H169	H	0.537641	0.186771	0.265287
H170	H	0.540623	0.146556	0.166949
H171	H	0.470066	0.162231	0.339354
H172	H	0.473037	0.122016	0.241006
H173	H	0.326186	0.070617	0.186055
H174	H	0.090893	0.071631	0.288555
H175	H	0.338483	0.058306	-0.185838
H176	H	-0.288877	0.064324	0.186093
C177	C	-0.226948	0.068940	0.305245
C178	C	-0.191194	0.066297	0.215300
H179	H	-0.212147	0.071412	0.374796
H180	H	-0.250365	0.096798	0.300971
H181	H	-0.242574	0.040399	0.300976
H182	H	-0.175570	0.094840	0.219564
H183	H	-0.167768	0.038437	0.219575
H184	H	-0.185108	0.052938	-0.185793
H185	H	0.201445	0.053448	-0.288301
C186	C	0.139536	0.048815	-0.407443
C187	C	0.103778	0.051466	-0.317504
H188	H	0.124741	0.046325	-0.476998
H189	H	0.155155	0.077357	-0.403197
H190	H	0.162960	0.020960	-0.403137
H191	H	0.080356	0.079323	-0.321805
H192	H	0.088152	0.022921	-0.321752
C193	C	0.486954	0.059562	-0.193392
C194	C	0.438099	0.058341	-0.215044
H195	H	0.506366	0.057426	-0.262937
H196	H	0.489919	0.089240	-0.151309
H197	H	0.497713	0.032843	-0.151260
H198	H	0.427339	0.085062	-0.257169
H199	H	0.435132	0.028659	-0.257145
H200	H	0.647859	-0.711072	0.000123
C201	C	0.001568	0.074694	0.407705
C202	C	0.037323	0.072054	0.317764
H203	H	0.016367	0.077167	0.477258
H204	H	-0.021851	0.102550	0.403429
H205	H	-0.014055	0.046151	0.403432
H206	H	0.052944	0.100599	0.322031
H207	H	0.060751	0.044196	0.322041
C208	C	0.409270	-0.535174	-0.096633
C209	C	0.432624	-0.547861	0.000026
H210	H	0.379182	-0.548144	-0.096660
H211	H	0.403308	-0.500673	-0.096616
H212	H	0.429480	-0.548108	-0.162178
H213	H	0.412416	-0.534924	0.065571
H214	H	0.438584	-0.582369	0.000019
C215	C	-0.081998	0.090995	-0.323768
C216	C	-0.047469	0.049933	-0.317476
H217	H	-0.096793	0.088513	-0.393325
H218	H	-0.106247	0.092785	-0.262747
H219	H	-0.066369	0.119535	-0.319517
H220	H	-0.063099	0.021393	-0.321719
H221	H	-0.023217	0.048138	-0.378514
H222	H	0.050195	0.051911	-0.288279
H223	H	0.446788	-0.391166	0.000036
C224	C	0.705092	-0.128691	0.000190
C225	C	0.666737	-0.090568	0.000191
H226	H	0.735181	-0.115722	0.000190
H227	H	0.700885	-0.145934	0.065744
H228	H	0.705227	-0.150266	-0.065379
H229	H	0.666601	-0.068994	0.065765
H230	H	0.670945	-0.073317	-0.065369
H231	H	0.694903	-0.425467	0.000144
H232	H	0.447721	-0.299715	0.000042
C233	C	0.649596	-0.859741	0.000081
C234	C	0.659415	-0.811456	0.000093
H235	H	0.679335	-0.880986	0.000064
H236	H	0.629234	-0.863330	0.065641
H237	H	0.633566	-0.867655	-0.065482
H238	H	0.675442	-0.803541	0.065661
H239	H	0.679784	-0.807865	-0.065473
H240	H	0.446187	-0.450964	0.000052
H241	H	0.494155	-0.073903	0.000141
H242	H	0.694296	-0.485255	0.000137
