data_functionalizedCrystal
_audit_creation_method	'MofGen! by Chris Wilmer'
_symmetry_space_group_name_H-M	'P1'
_symmetry_Int_Tables_number	1
_symmetry_cell_setting	triclinic
loop_
_symmetry_equiv_pos_as_xyz
  x,y,z
_cell_length_a	13.032831
_cell_length_b	15.297327
_cell_length_c	13.033454
_cell_angle_alpha	91.279958
_cell_angle_beta	89.091650
_cell_angle_gamma	93.742008
loop_
_atom_site_label
_atom_site_type_symbol
_atom_site_fract_x
_atom_site_fract_y
_atom_site_fract_z
Zn1	Zn	1.405143	-0.419826	-0.853127
Zn2	Zn	1.905143	0.080174	-0.353127
Zn3	Zn	1.390160	-0.584814	-0.709531
Zn4	Zn	1.890160	-0.084814	-0.209531
Zn5	Zn	1.253958	-0.424435	-0.660151
Zn6	Zn	1.753958	0.075565	-0.160151
Zn7	Zn	1.204484	-0.548580	-0.853429
Zn8	Zn	1.704484	-0.048580	-0.353429
O9	O	1.313436	-0.494414	-0.769060
O10	O	1.813436	0.005586	-0.269060
O11	O	1.544133	-0.454947	-0.854619
O12	O	2.044133	0.045053	-0.354619
O13	O	1.386527	-0.580633	-0.561998
O14	O	1.886527	-0.080633	-0.061998
O15	O	1.300988	-0.302820	-0.664957
O16	O	1.800988	0.197180	-0.164957
O17	O	1.533125	-0.576164	-0.749119
O18	O	2.033125	-0.076164	-0.249119
O19	O	1.412062	-0.299434	-0.806736
O20	O	1.912062	0.200566	-0.306736
O21	O	1.286460	-0.462803	-0.525718
O22	O	1.786460	0.037197	-0.025718
O23	O	1.106417	-0.427668	-0.665250
O24	O	1.606417	0.072332	-0.165250
O25	O	1.216667	-0.514407	-0.994372
O26	O	1.716667	-0.014407	-0.494372
O27	O	1.070069	-0.518876	-0.807251
O28	O	1.570069	-0.018876	-0.307251
O29	O	1.364090	-0.419812	-0.994150
O30	O	1.864090	0.080188	-0.494150
O31	O	1.338555	-0.701011	-0.749412
O32	O	1.838555	-0.201011	-0.249412
O33	O	1.202140	-0.674389	-0.855133
O34	O	1.702140	-0.174389	-0.355133
C35	C	1.051689	-0.469841	-0.730925
C36	C	1.551689	0.030159	-0.230925
C37	C	0.939706	-0.459346	-0.714639
C38	C	1.439706	0.040654	-0.214639
C39	C	0.871814	-0.499891	-0.777560
C40	C	1.371814	0.000109	-0.277560
C41	C	0.756073	-0.489045	-0.760728
C42	C	1.256073	0.010955	-0.260728
C43	C	1.263378	-0.719075	-0.807690
C44	C	1.763378	-0.219075	-0.307690
C45	C	1.242052	-0.815191	-0.824263
C46	C	1.742052	-0.315191	-0.324263
C47	C	1.466239	-1.141441	-0.651013
C48	C	1.966239	-0.641441	-0.151013
C49	C	1.486276	-1.051136	-0.635437
C50	C	1.986276	-0.551136	-0.135437
C51	C	1.425222	-0.992145	-0.682642
C52	C	1.925222	-0.492145	-0.182642
C53	C	1.344127	-1.023468	-0.745426
C54	C	1.844127	-0.523468	-0.245426
C55	C	1.324083	-1.113782	-0.760998
C56	C	1.824083	-0.613782	-0.260998
C57	C	1.283066	-0.964486	-0.792627
C58	C	1.783066	-0.464486	-0.292627
C59	C	1.201970	-0.995809	-0.855411
C60	C	1.701970	-0.495809	-0.355411
C61	C	1.181930	-1.086114	-0.870980
C62	C	1.681930	-0.586114	-0.370980
C63	C	1.242984	-1.145105	-0.823775
C64	C	1.742984	-0.645105	-0.323775
C65	C	1.303110	-0.874173	-0.777055
C66	C	1.803110	-0.374173	-0.277055
C67	C	1.160954	-0.846514	-0.887040
C68	C	1.660954	-0.346514	-0.387040
C69	C	1.140916	-0.936818	-0.902616
C70	C	1.640916	-0.436818	-0.402616
C71	C	1.576205	-0.519083	-0.807344
C72	C	2.076205	-0.019083	-0.307344
C73	C	1.688181	-0.529596	-0.823658
C74	C	2.188181	-0.029596	-0.323658
C75	C	1.286531	-0.462553	-1.031839
C76	C	1.786531	0.037447	-0.531839
C77	C	1.275066	-0.448976	-1.143819
C78	C	1.775066	0.051024	-0.643819
C79	C	1.363715	-0.268875	-0.730305
C80	C	1.863715	0.231125	-0.230305
C81	C	1.385141	-0.172764	-0.713790
C82	C	1.885141	0.327236	-0.213790
C83	C	1.319466	-0.501223	-1.211694
C84	C	1.819466	-0.001223	-0.711694
C85	C	1.307617	-0.487191	-1.327433
C86	C	1.807617	0.012809	-0.827433
C87	C	1.340308	-0.526094	-0.507301
C88	C	1.840308	-0.026094	-0.007301
C89	C	1.352023	-0.539445	-0.395307
C90	C	1.852023	-0.039445	0.104693
H91	H	0.715737	-0.572334	-0.889998
H92	H	1.215737	-0.072334	-0.389998
H93	H	1.228287	-0.393854	-1.171393
H94	H	1.728287	0.106146	-0.671393
H95	H	1.226677	-1.218640	-0.836456
H96	H	1.726677	-0.718640	-0.336456
Cl97	Cl	1.391710	-0.586317	-1.169132
Cl98	Cl	1.891710	-0.086317	-0.669132
Cl99	Cl	1.542980	-1.215602	-0.591675
Cl100	Cl	2.042980	-0.715602	-0.091675
H101	H	1.260834	-0.432066	-1.355002
H102	H	1.760834	0.067934	-0.855002
H103	H	1.398816	-0.594565	-1.367740
H104	H	1.898816	-0.094565	-0.867740
H105	H	0.912144	-0.416601	-0.648313
H106	H	1.412144	0.083399	-0.148313
H107	H	1.552302	-1.025636	-0.584317
H108	H	2.052302	-0.525636	-0.084317
H109	H	1.111236	-0.798483	-0.925476
H110	H	1.611236	-0.298483	-0.425476
H111	H	1.115887	-1.111614	-0.922090
H112	H	1.615887	-0.611614	-0.422090
Cl113	Cl	0.914357	-0.565887	-0.879967
Cl114	Cl	1.414357	-0.065887	-0.379967
H115	H	1.441540	-0.918616	-0.669955
H116	H	1.941540	-0.418616	-0.169955
H117	H	0.728516	-0.446297	-0.694398
H118	H	1.228516	0.053703	-0.194398
Cl119	Cl	1.405055	-0.834806	-0.698130
Cl120	Cl	1.905055	-0.334806	-0.198130
H121	H	1.074887	-0.962335	-0.953735
H122	H	1.574887	-0.462335	-0.453735
