data_functionalizedCrystal
_audit_creation_method	'MofGen! by Chris Wilmer'
_symmetry_space_group_name_H-M	'P1'
_symmetry_Int_Tables_number	1
_symmetry_cell_setting	triclinic
loop_
_symmetry_equiv_pos_as_xyz
  x,y,z
_cell_length_a	16.992694
_cell_length_b	12.837942
_cell_length_c	16.053802
_cell_angle_alpha	92.838962
_cell_angle_beta	87.249047
_cell_angle_gamma	92.748582
loop_
_atom_site_label
_atom_site_type_symbol
_atom_site_fract_x
_atom_site_fract_y
_atom_site_fract_z
O1	O	1.059913	0.217066	-0.069322
O2	O	0.831447	0.214638	-0.069347
O3	O	0.940614	0.064530	-0.069330
O4	O	0.950746	0.367174	-0.069339
O5	O	0.934602	0.072756	0.069528
O6	O	0.825435	0.222864	0.069511
O7	O	1.053901	0.225292	0.069536
Zn8	Zn	0.938714	0.225384	0.091570
Zn9	Zn	0.946634	0.214546	-0.091381
O10	O	0.944734	0.375400	0.069519
C11	C	0.798996	0.215629	0.000079
C12	C	0.711256	0.206315	0.000070
C13	C	0.667730	0.296178	0.000068
C14	C	0.585288	0.287422	0.000079
C15	C	0.546375	0.188801	0.000087
C16	C	0.589907	0.098931	0.000092
C17	C	0.672346	0.107689	0.000086
C18	C	0.300064	0.152502	0.000111
C19	C	0.217618	0.143751	0.000114
C20	C	0.213006	0.332243	0.000103
C21	C	0.295447	0.340992	0.000092
C22	C	0.338972	0.251122	0.000101
N23	N	0.462107	0.179847	0.000097
N24	N	0.423238	0.260077	0.000098
C25	C	0.934185	0.029738	0.000098
C26	C	0.923977	-0.086184	0.000096
C27	C	1.046699	-0.316977	0.000092
C28	C	1.037111	-0.425897	0.000089
C29	C	0.895215	-0.412948	0.000082
C30	C	0.904802	-0.304027	0.000085
C31	C	0.980547	-0.256046	0.000091
C32	C	0.990134	-0.147123	0.000099
C33	C	0.848238	-0.134176	0.000086
C34	C	0.838650	-0.243097	0.000084
C35	C	1.086353	0.224300	0.000108
C36	C	1.174092	0.233614	0.000112
C37	C	0.951163	0.410191	0.000089
C38	C	0.961371	0.526114	0.000086
N39	N	0.933314	0.232780	0.216430
N40	N	0.952040	0.207141	-0.216241
C41	C	0.979785	0.168935	0.260131
C42	C	0.976016	0.174120	0.347537
C43	C	0.925779	0.243156	0.391240
C44	C	0.879303	0.307004	0.347533
C45	C	0.883068	0.301813	0.260129
C46	C	0.909329	0.265799	0.652647
C47	C	0.905569	0.270987	0.740058
C48	C	1.002281	0.138101	0.740056
C49	C	1.006046	0.132921	0.652650
C50	C	0.959566	0.196765	0.608950
N51	N	0.921927	0.248459	0.480584
N52	N	0.963414	0.191455	0.519608
H53	H	0.177559	0.405409	0.000097
Br54	Br	0.537096	-0.034913	0.000111
Br55	Br	0.758454	-0.051478	0.000100
H56	H	0.185938	0.063438	0.000120
Br57	Br	0.359123	0.030536	0.000125
Br58	Br	1.047973	0.075246	0.200828
H59	H	1.040121	0.086121	0.775644
H60	H	1.013856	0.122131	0.383118
H61	H	0.707785	0.034512	0.000087
Br62	Br	1.074227	0.039233	0.593336
H63	H	0.549853	0.360598	0.000077
Br64	Br	0.811117	0.400690	0.406842
Br65	Br	1.092928	-0.082005	0.000116
Br66	Br	1.149490	-0.251852	0.000125
H67	H	1.090979	-0.475503	0.000087
Br68	Br	0.792428	-0.478086	0.000044
H69	H	0.871485	0.317785	0.617074
H70	H	0.864658	0.327208	0.775638
H71	H	0.776981	-0.282179	0.000076
H72	H	0.845226	0.353801	0.224548
Br73	Br	0.720533	0.430027	0.000048
H74	H	0.327125	0.421299	0.000076
