data_functionalizedCrystal
_audit_creation_method	'MofGen! by Chris Wilmer'
_symmetry_space_group_name_H-M	'P1'
_symmetry_Int_Tables_number	1
_symmetry_cell_setting	triclinic
loop_
_symmetry_equiv_pos_as_xyz
  x,y,z
_cell_length_a	23.096457
_cell_length_b	14.628931
_cell_length_c	23.096457
_cell_angle_alpha	59.999998
_cell_angle_beta	60.004020
_cell_angle_gamma	89.998385
loop_
_atom_site_label
_atom_site_type_symbol
_atom_site_fract_x
_atom_site_fract_y
_atom_site_fract_z
Zr1	Zr	0.557828	-0.119958	0.633717
O2	O	0.465392	-0.265907	0.754498
O3	O	0.586156	-0.075221	0.512936
O4	O	0.586168	-0.265920	0.633718
O5	O	0.465380	0.075225	0.633715
O6	O	0.681449	-0.265926	0.633720
O7	O	0.465380	-0.075208	0.633716
O8	O	0.681427	0.075200	0.417662
O9	O	0.465401	-0.265901	0.849772
O10	O	0.669355	-0.056140	0.562617
O11	O	0.598248	0.056130	0.562615
O12	O	0.598262	-0.168394	0.704820
O13	O	0.527156	-0.056124	0.704819
Zr14	Zr	0.709790	0.119955	0.633719
Zr15	Zr	0.709789	-0.119967	0.633720
Zr16	Zr	0.557828	0.119964	0.633717
Zr17	Zr	0.557843	-0.119949	0.785669
Zr18	Zr	0.709774	0.119947	0.481767
O19	O	0.681461	0.075219	0.754501
O20	O	0.681461	-0.265919	0.754501
O21	O	0.465392	0.075231	0.754497
O22	O	0.802226	0.265904	0.512939
O23	O	0.802226	-0.075234	0.512940
O24	O	0.586157	0.265917	0.512935
O25	O	0.802238	-0.075227	0.633721
O26	O	0.681449	0.265918	0.633719
O27	O	0.586169	0.265923	0.633717
O28	O	0.802238	0.075205	0.633721
O29	O	0.586190	-0.265908	0.849774
O30	O	0.681428	0.265906	0.417662
O31	O	0.802216	0.265899	0.417664
O32	O	0.802216	0.075193	0.417665
O33	O	0.465401	-0.075196	0.849772
O34	O	0.586190	-0.075203	0.849774
O35	O	0.669355	0.168391	0.562616
O36	O	0.740462	0.056121	0.562617
O37	O	0.669369	-0.056132	0.704821
O38	O	0.598263	0.056138	0.704820
C39	C	0.443729	0.000010	0.633715
C40	C	0.379217	0.000013	0.633714
C41	C	0.633790	-0.000012	0.443649
C42	C	0.633783	-0.000015	0.379142
C43	C	0.633809	0.300104	0.633718
C44	C	0.633809	0.401958	0.633718
C45	C	0.386021	0.058598	0.559487
C46	C	0.325405	0.058603	0.559486
C47	C	0.257986	0.000001	0.633716
C48	C	0.251185	-0.058586	0.707952
C49	C	0.311800	-0.058580	0.707951
N50	N	0.135196	-0.095373	0.688969
N51	N	0.077617	-0.095377	0.688965
C52	C	0.075354	-0.000019	0.633723
N53	N	0.132852	0.095342	0.578473
N54	N	0.190438	0.095344	0.578475
C55	C	0.192255	-0.000011	0.633725
C56	C	0.016434	0.058577	0.559490
C57	C	-0.044184	0.058585	0.559492
C58	C	-0.118404	-0.058615	0.707960
C59	C	-0.057786	-0.058612	0.707956
C60	C	0.009630	-0.000019	0.633719
C61	C	0.823889	-0.000012	0.633721
C62	C	0.888401	-0.000016	0.633723
C63	C	0.633809	-0.300107	0.633719
C64	C	0.633808	-0.401960	0.633719
C65	C	0.598543	0.391681	0.704260
C66	C	0.598542	0.496951	0.704262
C67	C	0.686275	0.082848	0.296357
C68	C	0.686280	0.082859	0.235735
C69	C	0.633798	-0.000012	0.257903
C70	C	0.581298	-0.082883	0.340702
C71	C	0.581290	-0.082885	0.401321
N72	N	0.617920	-0.098286	0.201793
N73	N	0.617931	-0.098280	0.144204
C74	C	0.633817	-0.000010	0.075264
N75	N	0.649705	0.098260	0.066081
N76	N	0.649696	0.098254	0.123674
C77	C	0.633800	-0.000019	0.192178
C78	C	0.686317	0.082872	-0.073257
C79	C	0.686317	0.082883	-0.133878
C80	C	0.581338	-0.082867	-0.028908
C81	C	0.581335	-0.082870	0.031710
C82	C	0.633828	-0.000000	0.009530
C83	C	0.633828	0.000009	0.823787
C84	C	0.633834	0.000013	0.888295
C85	C	0.823870	-0.000023	0.443652
C86	C	0.888375	-0.000030	0.379146
C87	C	0.633790	0.300094	0.443649
C88	C	0.633784	0.401943	0.379141
C89	C	0.823870	0.300083	0.443652
C90	C	0.888375	0.401929	0.379145
C91	C	0.443747	-0.300085	0.823785
C92	C	0.379242	-0.401931	0.888291
C93	C	0.443748	0.000020	0.823784
C94	C	0.379243	0.000028	0.888291
C95	C	0.633828	-0.300096	0.823788
C96	C	0.633834	-0.401946	0.888296
C97	C	0.881550	-0.058643	0.348852
C98	C	0.942154	-0.058672	0.288250
C99	C	1.009582	-0.000082	0.257938
C100	C	1.016405	0.058533	0.288237
C101	C	0.955802	0.058555	0.348843
C102	C	0.670898	0.508382	0.348848
C103	C	0.670889	0.604090	0.288244
C104	C	0.633770	0.593356	0.257931
C105	C	0.596651	0.486906	0.288230
C106	C	0.596656	0.391201	0.348836
C107	C	0.955791	0.391153	0.348853
C108	C	1.016406	0.486838	0.288250
C109	C	1.009604	0.593299	0.257937
C110	C	0.942182	0.604073	0.288235
C111	C	0.881568	0.508388	0.348841
C112	C	0.311827	-0.391155	0.918591
C113	C	0.251211	-0.486841	0.979212
C114	C	0.258013	-0.593302	1.009529
C115	C	0.325436	-0.604075	0.979227
C116	C	0.386050	-0.508391	0.918611
C117	C	0.386067	0.058631	0.918591
C118	C	0.325464	0.058633	0.979210
C119	C	0.258036	0.000039	1.009524
C120	C	0.251213	-0.058571	0.979221
C121	C	0.311816	-0.058580	0.918607
C122	C	0.670960	-0.391176	0.918590
C123	C	0.670980	-0.486865	0.979194
C124	C	0.633869	-0.593323	1.009507
C125	C	0.596742	-0.604091	0.979206
C126	C	0.596727	-0.508403	0.918599
H127	H	0.440911	0.106302	0.499037
F128	F	0.633772	0.695225	0.193427
H129	H	0.568351	0.488327	0.764656
H130	H	0.663998	0.488689	0.573324
F131	F	0.742139	0.171052	0.272747
F132	F	0.457797	-0.519877	0.886365
F133	F	0.963076	0.120950	0.381073
H134	H	0.566527	-0.690782	1.003896
H135	H	-0.038638	0.106299	0.499045
F136	F	0.742184	0.171090	-0.221990
H137	H	1.058966	0.671203	0.208588
F138	F	0.332664	-0.717388	1.011498
H139	H	0.538594	-0.150352	0.099119
F140	F	0.457823	0.120996	0.886341
H141	H	0.729025	0.150340	0.168320
F142	F	0.179432	-0.120949	0.786953
F143	F	0.332644	0.120955	0.480481
H144	H	0.208652	-0.671205	1.058886
H145	H	0.826653	-0.106369	0.373532
F146	F	0.304556	-0.120937	0.786957
F147	F	0.633890	-0.695154	1.074012
F148	F	0.557150	0.475499	0.255959
H149	H	-0.173297	-0.106331	0.768400
F150	F	0.179445	-0.120924	1.011490
H151	H	0.306275	-0.304478	0.893911
H152	H	0.566491	-0.517187	0.893940
H153	H	1.071299	0.478046	0.263587
H154	H	0.538566	-0.150356	0.358748
F155	F	0.710462	-0.277884	0.886340
F156	F	0.963046	0.277858	0.381107
H157	H	0.701125	0.517144	0.373522
H158	H	0.306249	-0.106298	0.893939
H159	H	0.071328	0.106310	0.499041
F160	F	-0.065029	-0.120973	0.786960
F161	F	0.559071	0.278319	0.783201
H162	H	0.196319	-0.478047	1.003874
F163	F	0.332741	0.121021	1.011446
F164	F	0.557156	0.277923	0.381066
F165	F	0.934877	-0.121057	0.256011
H166	H	1.058922	-0.000108	0.208588
F167	F	0.710399	0.717371	0.256007
F168	F	0.525419	-0.171083	0.489433
F169	F	1.088172	0.120889	0.255967
F170	F	0.742182	0.171069	-0.096860
F171	F	0.673280	0.609326	0.554773
H172	H	0.538606	-0.150341	-0.010857
H173	H	0.936654	0.690766	0.263545
H174	H	0.826678	0.517178	0.373497
F175	F	0.710494	-0.475382	1.011434
H176	H	0.208695	0.000056	1.058879
