data_functionalizedCrystal
_audit_creation_method	'MofGen! by Chris Wilmer'
_symmetry_space_group_name_H-M	'P1'
_symmetry_Int_Tables_number	1
_symmetry_cell_setting	triclinic
loop_
_symmetry_equiv_pos_as_xyz
  x,y,z
_cell_length_a	10.540539
_cell_length_b	10.540539
_cell_length_c	12.996460
_cell_angle_alpha	90.003994
_cell_angle_beta	90.003509
_cell_angle_gamma	84.525492
loop_
_atom_site_label
_atom_site_type_symbol
_atom_site_fract_x
_atom_site_fract_y
_atom_site_fract_z
O1	O	1.685889	0.178903	0.085513
O2	O	1.316476	0.195759	0.085525
O3	O	1.509610	0.002624	0.085518
O4	O	1.492755	0.372037	0.085521
O5	O	1.509590	0.002613	-0.085616
O6	O	1.316456	0.195748	-0.085609
O7	O	1.685869	0.178892	-0.085621
Cu8	Cu	1.501160	0.187319	-0.101241
Cu9	Cu	1.501184	0.187332	0.101145
O10	O	1.492734	0.372026	-0.085613
C11	C	1.269163	0.194489	-0.000040
C12	C	1.128215	0.190707	-0.000035
C13	C	1.508336	-0.044684	-0.000047
C14	C	1.504554	-0.185632	-0.000042
C15	C	1.359637	-0.369059	0.000347
C16	C	1.363471	-0.222441	-0.000038
C17	C	1.572438	-0.247296	-0.097770
C18	C	1.567623	-0.393841	-0.097852
C19	C	1.570516	-0.394346	0.096759
C20	C	1.571815	-0.247364	0.098051
C21	C	0.944788	0.045790	-0.000436
C22	C	1.091406	0.049624	-0.000040
C23	C	1.066554	0.258609	0.097687
C24	C	0.920009	0.253794	0.097758
C25	C	0.919498	0.256652	-0.096853
C26	C	1.066480	0.257951	-0.098134
C27	C	1.733182	0.180161	-0.000053
C28	C	1.874130	0.183943	-0.000051
C29	C	1.494008	0.419335	-0.000046
C30	C	1.497790	0.560283	-0.000045
N31	N	1.501153	0.187309	-0.243588
C32	C	1.501183	0.187333	-0.663402
C33	C	1.501171	0.187331	-0.546597
C34	C	1.501168	0.187322	-0.453498
C35	C	1.501155	0.187318	-0.336686
N36	N	1.501202	0.187332	0.243492
H37	H	1.310055	-0.179833	0.070017
C38	C	1.096760	0.398568	0.102621
H39	H	1.058574	0.437815	0.162282
H40	H	1.186444	0.401794	0.105558
H41	H	1.063876	0.442448	0.043070
C42	C	1.284346	-0.407700	0.095011
H43	H	1.336484	-0.467276	0.135143
H44	H	1.259490	-0.334282	0.135257
H45	H	1.210616	-0.445414	0.073030
C46	C	1.099199	0.396905	-0.106108
H47	H	1.151161	0.415816	-0.049457
H48	H	1.143790	0.408050	-0.168478
H49	H	1.022822	0.452583	-0.105284
C50	C	0.855195	0.390854	0.103761
H51	H	0.765278	0.388843	0.103839
H52	H	0.880710	0.430200	0.165164
H53	H	0.879602	0.438070	0.045970
C54	C	1.124082	0.194899	0.195937
H55	H	1.185661	0.126929	0.177613
H56	H	1.163653	0.255884	0.235479
H57	H	1.058415	0.162549	0.235325
C58	C	0.876886	0.194968	-0.196923
H59	H	0.905224	0.240279	-0.254397
H60	H	0.912585	0.108825	-0.199925
H61	H	0.786547	0.197759	-0.198186
C62	C	1.147825	-0.023024	0.094763
H63	H	1.237730	-0.020935	0.095326
H64	H	1.112574	0.016030	0.155546
H65	H	1.127993	-0.109001	0.091896
H66	H	1.525266	-0.204701	-0.170493
H67	H	1.107433	0.208346	-0.170429
H68	H	0.891808	0.203618	0.170806
H69	H	1.669088	-0.441809	-0.102289
H70	H	1.524863	-0.425895	0.170830
H71	H	1.304124	-0.399271	-0.069339
H72	H	1.309664	-0.180689	-0.070207
H73	H	1.672420	-0.441572	0.097413
H74	H	1.517437	-0.422045	-0.170902
C75	C	0.903991	-0.029189	0.093702
H76	H	0.844088	0.023336	0.133242
H77	H	0.866116	-0.102601	0.071226
H78	H	0.976606	-0.054540	0.134730
C79	C	0.855707	0.394313	-0.097745
H80	H	0.801679	0.407466	-0.039447
H81	H	0.919402	0.452226	-0.095594
H82	H	0.806659	0.408164	-0.158738
H83	H	1.676045	-0.224942	-0.101407
C84	C	1.504833	-0.192046	0.195726
H85	H	1.545957	-0.229761	0.254803
H86	H	1.509061	-0.102453	0.197521
H87	H	1.418154	-0.209810	0.195119
C88	C	1.710786	-0.214686	0.106011
H89	H	1.749034	-0.253203	0.165930
H90	H	1.756764	-0.245839	0.046908
H91	H	1.712297	-0.124856	0.110115
C92	C	1.148970	-0.022550	-0.094670
H93	H	1.082752	-0.054490	-0.133700
H94	H	1.192364	0.033786	-0.136009
H95	H	1.207290	-0.091498	-0.072680
C96	C	0.906154	-0.029514	-0.095108
H97	H	0.846579	0.022618	-0.135246
H98	H	0.979577	-0.054371	-0.135343
H99	H	0.868441	-0.103243	-0.073136
