data_functionalizedCrystal
_audit_creation_method	'MofGen! by Chris Wilmer'
_symmetry_space_group_name_H-M	'P1'
_symmetry_Int_Tables_number	1
_symmetry_cell_setting	triclinic
loop_
_symmetry_equiv_pos_as_xyz
  x,y,z
_cell_length_a	14.519731
_cell_length_b	12.996460
_cell_length_c	14.519709
_cell_angle_alpha	89.992910
_cell_angle_beta	96.315501
_cell_angle_gamma	90.005673
loop_
_atom_site_label
_atom_site_type_symbol
_atom_site_fract_x
_atom_site_fract_y
_atom_site_fract_z
O1	O	1.223857	0.085571	-0.120986
O2	O	1.557190	0.418905	0.212347
O3	O	1.890523	0.752238	0.545680
O4	O	0.955382	0.085573	-0.135203
O5	O	1.288716	0.418906	0.198131
O6	O	1.622049	0.752240	0.531464
O7	O	1.096738	0.085563	0.006143
O8	O	1.430071	0.418896	0.339477
O9	O	1.763404	0.752230	0.672810
O10	O	1.082501	0.085582	-0.262332
O11	O	1.415835	0.418915	0.071001
O12	O	1.749168	0.752248	0.404334
O13	O	1.096723	-0.085571	0.006151
O14	O	1.430056	0.247762	0.339485
O15	O	1.763390	0.581096	0.672818
O16	O	0.955368	-0.085561	-0.135195
O17	O	1.288701	0.247773	0.198139
O18	O	1.622034	0.581106	0.531472
O19	O	1.223842	-0.085563	-0.120979
O20	O	1.557175	0.247771	0.212355
O21	O	1.890509	0.581104	0.545688
Cu22	Cu	1.089603	-0.101187	-0.128086
Cu23	Cu	1.422937	0.232146	0.205247
Cu24	Cu	1.756270	0.565479	0.538581
Cu25	Cu	1.089621	0.101198	-0.128095
Cu26	Cu	1.422954	0.434531	0.205238
Cu27	Cu	1.756288	0.767865	0.538571
O28	O	1.082487	-0.085552	-0.262325
O29	O	1.415820	0.247781	0.071009
O30	O	1.749153	0.581114	0.404342
C31	C	0.921016	0.000006	-0.134532
C32	C	1.254349	0.333340	0.198801
C33	C	1.587682	0.666673	0.532134
C34	C	0.818635	0.000007	-0.132536
C35	C	1.151969	0.333340	0.200797
C36	C	1.485302	0.666673	0.534130
C37	C	0.735491	0.000011	-0.130915
C38	C	1.068825	0.333344	0.202419
C39	C	1.402158	0.666678	0.535752
C40	C	0.631182	0.000011	-0.128888
C41	C	0.964516	0.333344	0.204445
C42	C	1.297849	0.666678	0.537779
C43	C	0.548043	0.000011	-0.127280
C44	C	0.881377	0.333344	0.206054
C45	C	1.214710	0.666678	0.539387
C46	C	0.443728	0.000013	-0.125253
C47	C	0.777061	0.333346	0.208080
C48	C	1.110395	0.666680	0.541414
N49	N	1.089598	-0.243535	-0.128079
N50	N	1.422931	0.089799	0.205254
N51	N	1.756265	0.423132	0.538588
C52	C	1.089620	-0.663349	-0.128096
C53	C	1.422953	-0.330016	0.205237
C54	C	1.756286	0.003318	0.538571
C55	C	1.089611	-0.546544	-0.128094
C56	C	1.422944	-0.213210	0.205239
C57	C	1.756277	0.120123	0.538572
C58	C	1.089609	-0.453445	-0.128088
C59	C	1.422943	-0.120112	0.205245
C60	C	1.756276	0.213221	0.538578
C61	C	1.089600	-0.336633	-0.128085
C62	C	1.422933	-0.003300	0.205248
C63	C	1.756266	0.330034	0.538582
C64	C	1.258209	0.000007	-0.121649
C65	C	1.591542	0.333340	0.211685
C66	C	1.924875	0.666673	0.545018
C67	C	1.360589	0.000013	-0.123645
C68	C	1.693922	0.333346	0.209689
C69	C	2.027256	0.666680	0.543022
C70	C	1.096067	-0.000004	0.040507
C71	C	1.429400	0.333329	0.373840
C72	C	1.762734	0.666663	0.707174
C73	C	1.094079	-0.000005	0.142889
C74	C	1.427412	0.333329	0.476222
C75	C	1.760745	0.666662	0.809555
N76	N	1.089634	0.243545	-0.128095
N77	N	1.422967	0.576879	0.205238
N78	N	1.756300	0.910212	0.538572
C79	C	1.083157	0.000017	-0.296688
C80	C	1.416491	0.333350	0.036645
C81	C	1.749824	0.666684	0.369978
C82	C	1.085146	0.000024	-0.399070
C83	C	1.418479	0.333358	-0.065736
C84	C	1.751812	0.666691	0.267597
C85	C	1.086759	0.000022	0.517785
C86	C	1.420093	0.333355	0.851118
C87	C	1.753426	0.666689	1.184452
C88	C	1.088792	0.000014	0.413477
C89	C	1.422125	0.333348	0.746810
C90	C	1.755459	0.666681	1.080143
C91	C	1.090419	0.000008	0.330340
C92	C	1.423752	0.333341	0.663673
C93	C	1.757085	0.666674	0.997007
C94	C	1.092452	0.000002	0.226025
C95	C	1.425785	0.333335	0.559359
C96	C	1.759118	0.666669	0.892692
