data_functionalizedCrystal
_audit_creation_method	'MofGen! by Chris Wilmer'
_symmetry_space_group_name_H-M	'P1'
_symmetry_Int_Tables_number	1
_symmetry_cell_setting	triclinic
loop_
_symmetry_equiv_pos_as_xyz
  x,y,z
_cell_length_a	19.805407
_cell_length_b	16.120444
_cell_length_c	19.805399
_cell_angle_alpha	92.871785
_cell_angle_beta	89.975799
_cell_angle_gamma	92.926126
loop_
_atom_site_label
_atom_site_type_symbol
_atom_site_fract_x
_atom_site_fract_y
_atom_site_fract_z
Zn1	Zn	1.021070	-0.331945	-0.396464
Zn2	Zn	1.015245	-0.471364	-0.289013
Zn3	Zn	0.907883	-0.331966	-0.283280
Zn4	Zn	0.902110	-0.471318	-0.402149
O5	O	0.961577	-0.401649	-0.342726
O6	O	1.115013	-0.350450	-0.382230
O7	O	1.000982	-0.452901	-0.193537
O8	O	0.927752	-0.215297	-0.293516
O9	O	1.110734	-0.452880	-0.303287
O10	O	1.010909	-0.215282	-0.376671
O11	O	0.922104	-0.350486	-0.189325
O12	O	0.812401	-0.350441	-0.299028
O13	O	0.917912	-0.452802	-0.496110
O14	O	0.808160	-0.452822	-0.386360
O15	O	1.005311	-0.350405	-0.491933
O16	O	0.995383	-0.588025	-0.308799
O17	O	0.912264	-0.587991	-0.391919
C18	C	0.785722	-0.401630	-0.342689
C19	C	0.710489	-0.401642	-0.342691
C20	C	0.246503	-0.455059	-0.388180
C21	C	0.317191	-0.455057	-0.388165
C22	C	0.354726	-0.401669	-0.342754
C23	C	0.321569	-0.348284	-0.297349
C24	C	0.250882	-0.348290	-0.297360
C25	C	0.606644	-0.348259	-0.297300
C26	C	0.677336	-0.348255	-0.297293
C27	C	0.672953	-0.455025	-0.388105
C28	C	0.602266	-0.455032	-0.388117
C29	C	0.569115	-0.401651	-0.342710
C30	C	0.492466	-0.401654	-0.342725
C31	C	0.431374	-0.401661	-0.342741
C32	C	0.952583	-0.618258	-0.351613
C33	C	0.948797	-0.710924	-0.355437
C34	C	0.981381	-0.921864	-0.323033
C35	C	0.941898	-0.880582	-0.362427
C36	C	0.945738	-0.786175	-0.358537
C37	C	0.977542	-1.016279	-0.326922
C38	C	1.138119	-0.401668	-0.342764
C39	C	1.213351	-0.401676	-0.342780
C40	C	0.961617	-0.401596	-0.519267
C41	C	0.961634	-0.401574	-0.594498
C42	C	0.970624	-0.184193	-0.333820
C43	C	0.974480	-0.091527	-0.330024
C44	C	1.007144	-0.348253	-0.627668
C45	C	1.007152	-0.348229	-0.698356
C46	C	0.961653	-0.401530	-0.735872
C47	C	0.916138	-0.454853	-0.702697
C48	C	0.916127	-0.454872	-0.632010
C49	C	0.916179	-0.454775	-0.987767
C50	C	0.916195	-0.454754	-1.058458
C51	C	1.007204	-0.348132	-1.054113
C52	C	1.007193	-0.348151	-0.983426
C53	C	0.961677	-0.401471	-0.950257
C54	C	0.961668	-0.401495	-0.873610
C55	C	0.961664	-0.401510	-0.812518
C56	C	0.961578	-0.401641	-0.166870
C57	C	0.961702	-0.401428	-0.091630
H58	H	0.223890	-0.304819	-0.260393
H59	H	0.879090	-0.498249	-0.733248
Cl60	Cl	0.858959	-0.521806	-0.946078
Cl61	Cl	1.038017	-0.866968	-0.266453
H62	H	0.879062	-0.498283	-0.605004
Cl63	Cl	1.064350	-0.281246	-0.580512
H64	H	0.352136	-0.304818	-0.260371
Cl65	Cl	0.564977	-0.281141	-0.240224
Cl66	Cl	0.885254	-0.935477	-0.419006
H67	H	0.215947	-0.498529	-0.425163
Cl68	Cl	1.064396	-0.281231	-0.740054
H69	H	0.344181	-0.498528	-0.425133
H70	H	1.044246	-0.304751	-0.952884
H71	H	1.044264	-0.304714	-1.081127
H72	H	0.571708	-0.498503	-0.425098
H73	H	0.879141	-0.498159	-1.089002
H74	H	0.699953	-0.498493	-0.425076
H75	H	0.707895	-0.304776	-0.260312
