data_functionalizedCrystal
_audit_creation_method	'MofGen! by Chris Wilmer'
_symmetry_space_group_name_H-M	'P1'
_symmetry_Int_Tables_number	1
_symmetry_cell_setting	triclinic
loop_
_symmetry_equiv_pos_as_xyz
  x,y,z
_cell_length_a	14.044191
_cell_length_b	14.044220
_cell_length_c	13.448316
_cell_angle_alpha	90.007340
_cell_angle_beta	90.004141
_cell_angle_gamma	93.190327
loop_
_atom_site_label
_atom_site_type_symbol
_atom_site_fract_x
_atom_site_fract_y
_atom_site_fract_z
O1	O	1.277176	0.230202	0.082648
O2	O	1.000503	0.221890	0.082661
O3	O	1.134686	0.087710	0.082645
O4	O	1.142992	0.364382	0.082664
O5	O	1.134667	0.087700	-0.082739
O6	O	1.000484	0.221879	-0.082723
O7	O	1.277156	0.230192	-0.082736
Cu8	Cu	1.138818	0.226034	-0.097830
Cu9	Cu	1.138841	0.226047	0.097755
O10	O	1.142973	0.364371	-0.082720
C11	C	0.964872	0.218248	-0.000030
C12	C	0.858728	0.207401	-0.000025
C13	C	0.613270	0.264501	-0.000031
C14	C	0.664395	0.187585	-0.000035
C15	C	0.772532	0.198613	-0.000030
C16	C	0.505123	0.253474	-0.000037
C17	C	1.131041	0.052083	-0.000047
C18	C	1.120197	-0.054060	-0.000048
C19	C	1.100370	-0.248398	-0.000033
C20	C	1.177285	-0.299526	-0.000033
C21	C	1.166253	-0.407663	-0.000025
C22	C	1.111400	-0.140252	-0.000041
C23	C	1.312788	0.233834	-0.000043
C24	C	1.418931	0.244681	-0.000041
C25	C	1.146618	0.399998	-0.000025
C26	C	1.157463	0.506142	-0.000018
N27	N	1.138809	0.226026	-0.235395
C28	C	1.198248	0.166639	-0.287442
C29	C	1.198254	0.166639	-0.391545
C30	C	1.138825	0.226031	-0.443599
C31	C	1.079380	0.285420	-0.391544
C32	C	1.079370	0.285414	-0.287443
C33	C	1.079407	0.285428	-0.608525
C34	C	1.079418	0.285435	-0.712633
C35	C	1.198291	0.166653	-0.712627
C36	C	1.198281	0.166648	-0.608525
C37	C	1.138837	0.226038	-0.556478
N38	N	1.138857	0.226049	0.235320
H39	H	1.251419	-0.262085	0.000030
H40	H	1.026242	-0.285837	-0.000027
Cl41	Cl	1.272968	0.091975	-0.222014
H42	H	1.246692	0.118295	-0.755010
Cl43	Cl	1.004663	0.360080	-0.456981
H44	H	0.650711	0.338628	-0.000023
H45	H	1.246653	0.118282	-0.433922
Cl46	Cl	1.272997	0.091990	-0.543084
Cl47	Cl	1.004702	0.360100	-0.778064
H48	H	1.030998	0.333787	-0.566151
Cl49	Cl	1.004639	0.360071	-0.222013
H50	H	0.626952	0.113452	0.000030
