data_functionalizedCrystal
_audit_creation_method	'MofGen! by Chris Wilmer'
_symmetry_space_group_name_H-M	'P1'
_symmetry_Int_Tables_number	1
_symmetry_cell_setting	triclinic
loop_
_symmetry_equiv_pos_as_xyz
  x,y,z
_cell_length_a	10.654551
_cell_length_b	22.610064
_cell_length_c	23.532357
_cell_angle_alpha	90.001483
_cell_angle_beta	83.656781
_cell_angle_gamma	90.007730
loop_
_atom_site_label
_atom_site_type_symbol
_atom_site_fract_x
_atom_site_fract_y
_atom_site_fract_z
O1	O	1.665284	0.049185	0.079981
O2	O	1.299561	0.049189	0.087601
O3	O	1.493483	0.049175	0.000930
O4	O	1.471361	0.049199	0.166653
O5	O	1.493449	-0.049195	0.000942
O6	O	1.299527	-0.049181	0.087614
O7	O	1.665249	-0.049184	0.079994
Zn8	Zn	1.482382	-0.064801	0.083806
Zn9	Zn	1.482428	0.064805	0.083789
O10	O	1.471327	-0.049170	0.166666
C11	C	1.252764	0.000004	0.087048
C12	C	1.113374	0.000005	0.085374
C13	C	0.916900	-0.053617	0.083015
C14	C	1.047869	-0.053617	0.084593
C15	C	1.047901	0.053631	0.084582
C16	C	0.916932	0.053630	0.083008
C17	C	0.851403	-0.107242	0.082228
C18	C	0.916867	-0.160868	0.083021
C19	C	1.047837	-0.160868	0.084599
C20	C	1.113343	-0.107242	0.085385
N21	N	1.482361	-0.153253	0.083817
C22	C	1.568300	-0.561901	0.045417
C23	C	1.568307	-0.623821	0.045413
O24	O	1.641322	-0.655845	0.012772
N25	N	1.482427	-0.654790	0.083778
C26	C	1.396526	-0.623837	0.122145
O27	O	1.323478	-0.655864	0.154776
C28	C	1.396515	-0.561918	0.122146
C29	C	1.482409	-0.530952	0.083782
C30	C	1.654186	-0.530934	0.007057
C31	C	1.654181	-0.469019	0.007062
C32	C	1.568290	-0.438069	0.045427
C33	C	1.482404	-0.469036	0.083787
C34	C	1.310609	-0.530966	0.160510
C35	C	1.310605	-0.469043	0.160507
C36	C	1.396499	-0.438076	0.122144
C37	C	1.396507	-0.376171	0.122158
N38	N	1.482387	-0.345201	0.083793
C39	C	1.568278	-0.376151	0.045428
C40	C	1.396555	-0.753870	0.122139
C41	C	1.396572	-0.815788	0.122142
C42	C	1.568351	-0.815768	0.045409
C43	C	1.568339	-0.753849	0.045410
C44	C	1.482435	-0.722901	0.083775
C45	C	1.568262	-0.246123	0.045442
C46	C	1.568252	-0.184202	0.045452
C47	C	1.396469	-0.184228	0.122182
C48	C	1.396482	-0.246144	0.122174
C49	C	1.482383	-0.277090	0.083799
O50	O	1.323526	-0.344108	0.154780
O51	O	1.641303	-0.344115	0.012797
C52	C	1.712046	0.000001	0.080547
C53	C	1.851436	0.000005	0.082221
C54	C	1.492913	-0.000012	-0.020284
C55	C	1.491249	-0.000017	-0.083514
N56	N	1.482459	0.153257	0.083774
C57	C	1.480824	0.053636	-0.475600
C58	C	1.479242	0.053639	-0.535010
O59	O	1.478397	0.099242	-0.565737
N60	N	1.478439	0.000019	-0.564719
C61	C	1.479205	-0.053608	-0.535015
O62	O	1.478376	-0.099216	-0.565740
C63	C	1.480777	-0.053611	-0.475606
C64	C	1.481593	0.000013	-0.445900
C65	C	1.481638	0.107255	-0.445894
C66	C	1.483222	0.107251	-0.386489
C67	C	1.483991	0.053628	-0.356789
C68	C	1.483177	0.000009	-0.386495
C69	C	1.481534	-0.107238	-0.445902
C70	C	1.483106	-0.107236	-0.386489
C71	C	1.483921	-0.053612	-0.356783
C72	C	1.485530	-0.053618	-0.297389
N73	N	1.486333	0.000003	-0.267680
C74	C	1.485563	0.053626	-0.297380
C75	C	1.475901	-0.053599	-0.659778
C76	C	1.474337	-0.053596	-0.719187
C77	C	1.474372	0.053651	-0.719177
C78	C	1.475944	0.053649	-0.659768
C79	C	1.476703	0.000022	-0.630069
C80	C	1.488890	0.053614	-0.172624
C81	C	1.490480	0.053606	-0.113213
C82	C	1.490438	-0.053642	-0.113228
C83	C	1.488856	-0.053634	-0.172633
C84	C	1.488078	-0.000001	-0.202330
O85	O	1.486370	-0.099197	-0.266624
O86	O	1.486376	0.099226	-0.266646
C87	C	1.471897	0.000018	0.187879
C88	C	1.473561	0.000027	0.251109
H89	H	1.638202	-0.158991	0.014212
H90	H	1.240647	-0.443848	0.191748
H91	H	1.480872	-0.150904	-0.470078
H92	H	0.863522	-0.204528	0.082386
H93	H	1.491147	0.097275	-0.089030
H94	H	1.491070	-0.097300	-0.089036
H95	H	1.101132	-0.204533	0.085250
H96	H	0.744761	-0.107248	0.080942
H97	H	1.219985	-0.107247	0.086676
H98	H	1.101246	0.097290	0.085221
H99	H	1.638209	-0.271313	0.014193
H100	H	1.483881	0.150918	-0.362307
H101	H	0.863630	0.097293	0.082364
H102	H	1.638281	-0.728640	0.014171
H103	H	1.473692	-0.097262	-0.743369
H104	H	1.724120	-0.443809	-0.024179
H105	H	1.483705	-0.150906	-0.362310
H106	H	1.724129	-0.556128	-0.024188
H107	H	1.638287	-0.840978	0.014169
H108	H	1.488251	0.097287	-0.196795
H109	H	1.326642	-0.840997	0.153386
H110	H	1.476522	-0.097271	-0.635601
H111	H	1.488203	-0.097299	-0.196822
H112	H	1.326552	-0.271357	0.153419
H113	H	1.326605	-0.728675	0.153385
H114	H	1.240666	-0.556170	0.191748
H115	H	1.326541	-0.159020	0.153420
H116	H	1.481007	0.150924	-0.470069
H117	H	1.476607	0.097314	-0.635585
H118	H	1.473741	0.097314	-0.743369
