data_functionalizedCrystal
_audit_creation_method	'MofGen! by Chris Wilmer'
_symmetry_space_group_name_H-M	'P1'
_symmetry_Int_Tables_number	1
_symmetry_cell_setting	triclinic
loop_
_symmetry_equiv_pos_as_xyz
  x,y,z
_cell_length_a	12.759401
_cell_length_b	16.120484
_cell_length_c	12.759393
_cell_angle_alpha	92.863430
_cell_angle_beta	89.979527
_cell_angle_gamma	92.926992
loop_
_atom_site_label
_atom_site_type_symbol
_atom_site_fract_x
_atom_site_fract_y
_atom_site_fract_z
Zn1	Zn	1.584980	-0.331827	-0.615182
Zn2	Zn	1.575930	-0.471264	-0.448395
Zn3	Zn	1.409277	-0.331873	-0.439520
Zn4	Zn	1.400331	-0.471205	-0.624028
O5	O	1.492629	-0.401542	-0.531782
O6	O	1.730800	-0.350330	-0.593070
O7	O	1.553779	-0.452818	-0.300199
O8	O	1.440116	-0.215202	-0.455406
O9	O	1.724151	-0.452773	-0.470532
O10	O	1.569204	-0.215168	-0.584464
O11	O	1.431340	-0.350408	-0.293679
O12	O	1.261070	-0.350350	-0.463984
O13	O	1.424869	-0.452672	-0.769873
O14	O	1.254497	-0.452716	-0.599541
O15	O	1.560530	-0.350272	-0.763374
O16	O	1.545105	-0.587922	-0.479109
O17	O	1.416094	-0.587878	-0.608146
C18	C	1.219663	-0.401532	-0.531760
C19	C	1.102885	-0.401548	-0.531777
C20	C	1.044623	-0.454931	-0.602261
C21	C	0.934899	-0.454934	-0.602282
C22	C	0.941708	-0.348169	-0.461326
C23	C	1.051431	-0.348162	-0.461311
C24	C	1.478675	-0.618150	-0.545574
C25	C	1.472801	-0.710815	-0.551509
C26	C	1.462084	-0.880476	-0.562367
C27	C	1.523364	-0.921768	-0.501213
C28	C	1.517400	-1.016173	-0.507255
C29	C	1.468046	-0.786063	-0.556327
C30	C	1.766662	-0.401553	-0.531804
C31	C	1.883438	-0.401558	-0.531813
C32	C	1.492711	-0.401460	-0.805810
C33	C	1.492746	-0.401425	-0.922584
C34	C	1.506667	-0.184089	-0.517959
C35	C	1.512649	-0.091423	-0.512068
C36	C	1.563413	-0.348066	-1.083793
C37	C	1.563391	-0.348098	-0.974070
C38	C	1.422125	-0.454730	-0.980827
C39	C	1.422153	-0.454701	-1.090547
C40	C	1.492612	-0.401564	-0.258816
C41	C	1.492796	-0.401364	-0.142027
H42	H	1.580305	-0.886217	-0.444319
H43	H	1.364647	-0.498107	-1.137963
H44	H	1.405145	-0.916024	-0.619255
O45	O	1.639613	-0.290551	-1.139323
H46	H	1.688721	-0.253501	-1.080392
O47	O	1.639556	-0.290612	-0.911256
H48	H	1.688675	-0.253518	-0.965491
O49	O	0.886189	-0.290609	-0.385319
H50	H	0.911448	-0.225187	-0.399303
O51	O	1.345925	-0.512243	-0.925294
H52	H	1.264401	-0.497932	-0.945446
O53	O	1.100127	-0.512498	-0.678271
H54	H	1.041176	-0.549612	-0.727295
O55	O	0.872049	-0.512604	-0.678192
H56	H	0.926264	-0.549759	-0.727141
H57	H	1.098869	-0.304686	-0.403914
