data_functionalizedCrystal
_audit_creation_method	'MofGen! by Chris Wilmer'
_symmetry_space_group_name_H-M	'P1'
_symmetry_Int_Tables_number	1
_symmetry_cell_setting	triclinic
loop_
_symmetry_equiv_pos_as_xyz
  x,y,z
_cell_length_a	12.645331
_cell_length_b	12.645330
_cell_length_c	12.759387
_cell_angle_alpha	90.031550
_cell_angle_beta	90.023235
_cell_angle_gamma	90.012860
loop_
_atom_site_label
_atom_site_type_symbol
_atom_site_fract_x
_atom_site_fract_y
_atom_site_fract_z
Zn1	Zn	1.620773	-0.421977	0.594076
Zn2	Zn	1.620669	-0.599279	0.418394
Zn3	Zn	1.443486	-0.422031	0.418405
Zn4	Zn	1.443485	-0.599200	0.594025
O5	O	1.532103	-0.510622	0.506225
O6	O	1.769106	-0.445508	0.570789
O7	O	1.597122	-0.575823	0.271374
O8	O	1.467048	-0.273677	0.441733
O9	O	1.769030	-0.575771	0.441716
O10	O	1.597299	-0.273637	0.570799
O11	O	1.466947	-0.445599	0.271382
O12	O	1.295139	-0.445522	0.441684
O13	O	1.467045	-0.575635	0.741053
O14	O	1.295138	-0.575687	0.570711
O15	O	1.597298	-0.445431	0.741090
O16	O	1.597121	-0.747616	0.441666
O17	O	1.466944	-0.747558	0.570701
C18	C	1.256673	-0.510603	0.506194
C19	C	1.138843	-0.510620	0.506205
C20	C	1.093926	-0.428606	0.425167
C21	C	0.971367	-0.428303	0.425444
C22	C	0.971012	-0.480819	0.617114
C23	C	1.093610	-0.480206	0.616608
C24	C	1.093638	-0.622680	0.477383
C25	C	0.971030	-0.622095	0.474979
C26	C	1.532050	-0.786052	0.506200
C27	C	1.532124	-0.903882	0.506225
C28	C	1.613887	-1.071438	0.424884
C29	C	1.614153	-0.948878	0.425083
C30	C	1.562425	-0.948255	0.616971
C31	C	1.563074	-1.070853	0.616539
C32	C	1.420029	-1.071212	0.477911
C33	C	1.420566	-0.948608	0.475427
C34	C	1.808608	-0.510642	0.506257
C35	C	1.926438	-0.510651	0.506270
C36	C	1.532183	-0.510518	0.780259
C37	C	1.532217	-0.510474	0.897035
C38	C	1.532185	-0.234117	0.506273
C39	C	1.532220	-0.116287	0.506293
C40	C	1.532084	-0.510649	0.233257
C41	C	1.532256	-0.510395	0.116481
C42	C	1.667859	-0.374901	0.897094
C43	C	1.735694	-0.307098	0.951984
C44	C	1.735720	-0.307059	1.061706
C45	C	1.667901	-0.374828	1.116540
C46	C	1.600065	-0.442631	1.061650
C47	C	1.600049	-0.442664	0.951926
C48	C	1.464420	-0.578197	1.061591
C49	C	1.464398	-0.578243	0.951869
C50	C	1.396601	-0.645966	1.116425
C51	C	1.328769	-0.713775	1.061535
C52	C	1.328747	-0.713812	0.951806
C53	C	1.396563	-0.646045	0.896979
H54	H	0.940439	-0.686444	0.529666
H55	H	0.942050	-0.345276	0.444586
H56	H	1.667919	-0.374782	1.205881
H57	H	1.504754	-0.919104	0.679252
H58	H	1.273495	-0.769014	0.907121
H59	H	1.697249	-0.919468	0.443856
H60	H	1.396623	-0.645926	1.205766
H61	H	1.396555	-0.646073	0.807638
H62	H	0.941918	-0.538737	0.679172
H63	H	1.123330	-0.537368	0.679079
H64	H	1.122221	-0.398307	0.640971
H65	H	1.123331	-0.447004	0.342712
H66	H	1.124505	-0.649917	0.397899
H67	H	1.667854	-0.374935	0.807753
H68	H	1.506198	-1.100516	0.679285
H69	H	1.595165	-1.100998	0.342527
H70	H	1.122683	-0.683779	0.536408
H71	H	0.940325	-0.399828	0.641913
H72	H	1.359180	-1.100215	0.537205
H73	H	1.696537	-1.102167	0.443447
H74	H	0.941893	-0.644598	0.393402
H75	H	1.595194	-0.918882	0.342967
H76	H	1.273551	-0.768942	1.106189
H77	H	1.397719	-0.919617	0.393927
H78	H	0.941224	-0.446916	0.343269
H79	H	1.124746	-0.346041	0.444057
H80	H	1.645080	-1.099363	0.640580
H81	H	1.392475	-1.102227	0.398561
H82	H	1.643506	-0.917464	0.641413
H83	H	1.356435	-0.917989	0.530374
H84	H	1.790909	-0.251920	0.907327
H85	H	1.790951	-0.251842	1.106398
