data_functionalizedCrystal
_audit_creation_method	'MofGen! by Chris Wilmer'
_symmetry_space_group_name_H-M	'P1'
_symmetry_Int_Tables_number	1
_symmetry_cell_setting	triclinic
loop_
_symmetry_equiv_pos_as_xyz
  x,y,z
_cell_length_a	12.594517
_cell_length_b	11.169416
_cell_length_c	12.594509
_cell_angle_alpha	89.974280
_cell_angle_beta	89.988522
_cell_angle_gamma	90.006226
loop_
_atom_site_label
_atom_site_type_symbol
_atom_site_fract_x
_atom_site_fract_y
_atom_site_fract_z
Zn1	Zn	1.627309	-0.477903	-0.601599
Zn2	Zn	1.627218	-0.678625	-0.423628
Zn3	Zn	1.449313	-0.477940	-0.423658
Zn4	Zn	1.449313	-0.678528	-0.601589
O5	O	1.538288	-0.578249	-0.512619
O6	O	1.776243	-0.504554	-0.577982
O7	O	1.603580	-0.652060	-0.274686
O8	O	1.472963	-0.309986	-0.447279
O9	O	1.776176	-0.652024	-0.447228
O10	O	1.603736	-0.309958	-0.578012
O11	O	1.472874	-0.504618	-0.274708
O12	O	1.300367	-0.504524	-0.447270
O13	O	1.472963	-0.651858	-0.750536
O14	O	1.300367	-0.651895	-0.577994
O15	O	1.603736	-0.504460	-0.750543
O16	O	1.603580	-0.846562	-0.447218
O17	O	1.472874	-0.846491	-0.577965
C18	C	1.538246	-0.890074	-0.512610
C19	C	1.538325	-1.023474	-0.512643
C20	C	1.261747	-0.578204	-0.512635
C21	C	1.143442	-0.578213	-0.512667
C22	C	1.074220	-0.658525	-0.583631
C23	C	1.003401	-0.549097	-0.609805
C24	C	1.003461	-0.687732	-0.486469
C25	C	1.074182	-0.468727	-0.538892
C26	C	1.074248	-0.607435	-0.415511
C27	C	1.003462	-0.497932	-0.441648
C28	C	1.815909	-0.578296	-0.512603
C29	C	1.934214	-0.578315	-0.512596
C30	C	1.538359	-0.578144	-0.790240
C31	C	1.538390	-0.578099	-0.908545
C32	C	1.538360	-0.265207	-0.512650
C33	C	1.538390	-0.131807	-0.512663
C34	C	1.467285	-0.658224	-0.977794
C35	C	1.564408	-0.687556	-1.048569
C36	C	1.441342	-0.548695	-1.048569
C37	C	1.635564	-0.607489	-0.977762
C38	C	1.512433	-0.468577	-0.977756
C39	C	1.609623	-0.497867	-1.048499
C40	C	1.538278	-0.578267	-0.236078
C41	C	1.538454	-0.577974	-0.117773
H42	H	1.105291	-0.726312	-0.643719
C43	C	1.079053	-0.754609	-0.276595
C44	C	1.116305	-0.640792	-0.304671
H45	H	1.105026	-0.775212	-0.208169
H46	H	1.003645	-0.754134	-0.275568
H47	H	1.103240	-0.811673	-0.327001
H48	H	1.092111	-0.583726	-0.254269
H49	H	1.191728	-0.641259	-0.305690
C50	C	0.997237	-0.896589	-0.531060
C51	C	0.961516	-0.812701	-0.456593
H52	H	0.971345	-0.973740	-0.512618
H53	H	0.971939	-0.875307	-0.599556
H54	H	1.072655	-0.897625	-0.531494
H55	H	0.886097	-0.811659	-0.456165
H56	H	0.986808	-0.833988	-0.388080
C57	C	1.391224	-0.352147	-0.872973
C58	C	1.482713	-0.343655	-0.935716
H59	H	1.372874	-0.275026	-0.847013
H60	H	1.334449	-0.382814	-0.914479
H61	H	1.404313	-0.404348	-0.814865
H62	H	1.469622	-0.291461	-0.993828
H63	H	1.539501	-0.312971	-0.894208
C64	C	0.900197	-0.411411	-0.713678
C65	C	0.961384	-0.515773	-0.720675
H66	H	0.874267	-0.390842	-0.782128
H67	H	0.842079	-0.424689	-0.667065
H68	H	0.942758	-0.347919	-0.687113
H69	H	0.918821	-0.579268	-0.747234
H70	H	1.019510	-0.502502	-0.767306
C71	C	1.689685	-0.406280	-1.201321
C72	C	1.690912	-0.406308	-1.090150
H73	H	1.739864	-0.349749	-1.227032
H74	H	1.707577	-0.483787	-1.226640
H75	H	1.620783	-0.385266	-1.225686
H76	H	1.759812	-0.427331	-1.065785
H77	H	1.673026	-0.328784	-1.064821
H78	H	1.586398	-0.780123	-1.079674
C79	C	1.745372	-0.640967	-0.824787
C80	C	1.746425	-0.641153	-0.935960
H81	H	1.813810	-0.661761	-0.798982
H82	H	1.726807	-0.563461	-0.799959
H83	H	1.694796	-0.697573	-0.800025
H84	H	1.796996	-0.584541	-0.960722
H85	H	1.765004	-0.718671	-0.960799
H86	H	1.105117	-0.376124	-0.561113
H87	H	1.359244	-0.523876	-1.079673
H88	H	1.407201	-0.726088	-0.946750
H89	H	0.972589	-0.429980	-0.381607
