data_functionalizedCrystal
_audit_creation_method	'MofGen! by Chris Wilmer'
_symmetry_space_group_name_H-M	'P1'
_symmetry_Int_Tables_number	1
_symmetry_cell_setting	triclinic
loop_
_symmetry_equiv_pos_as_xyz
  x,y,z
_cell_length_a	6.817900
_cell_length_b	7.190334
_cell_length_c	7.190339
_cell_angle_alpha	82.319600
_cell_angle_beta	119.388276
_cell_angle_gamma	119.388224
loop_
_atom_site_label
_atom_site_type_symbol
_atom_site_fract_x
_atom_site_fract_y
_atom_site_fract_z
V1	V	4.308649	0.663510	0.291701
V2	V	4.808649	1.163510	0.791701
O3	O	4.201583	0.652431	-0.017518
O4	O	4.701583	1.152431	0.482482
O5	O	4.344040	0.657480	0.581760
O6	O	4.844040	1.157480	1.081760
O7	O	4.344044	0.953571	0.285678
O8	O	4.844044	1.453571	0.785678
O9	O	4.201579	0.354291	0.280614
O10	O	4.701579	0.854291	0.780614
V11	V	4.770562	0.626707	0.254896
V12	V	5.270562	1.126707	0.754896
O13	O	4.617312	0.744243	0.372435
O14	O	5.117312	1.244243	0.872435
O15	O	4.912097	0.545974	0.174162
O16	O	5.412097	1.045974	0.674162
O17	O	4.511964	0.632737	-0.035163
O18	O	5.011964	1.132737	0.464837
O19	O	4.995025	0.637786	0.564115
O20	O	5.495025	1.137786	1.064115
O21	O	4.995029	0.935926	0.265983
O22	O	5.495029	1.435926	0.765983
O23	O	4.511960	0.336646	0.260919
O24	O	5.011960	0.836646	0.760919
C25	C	4.206726	1.024318	0.274825
C26	C	4.706726	1.524318	0.774825
C27	C	4.319584	1.265891	0.271761
C28	C	4.819584	1.765891	0.771761
C29	C	4.206734	0.646638	0.652521
C30	C	4.706734	1.146638	1.152521
C31	C	4.319600	0.643590	0.894096
C32	C	4.819600	1.143590	1.394096
