data_functionalizedCrystal
_audit_creation_method	'MofGen! by Chris Wilmer'
_symmetry_space_group_name_H-M	'P1'
_symmetry_Int_Tables_number	1
_symmetry_cell_setting	triclinic
loop_
_symmetry_equiv_pos_as_xyz
  x,y,z
_cell_length_a	13.033293
_cell_length_b	18.050588
_cell_length_c	13.032268
_cell_angle_alpha	82.853675
_cell_angle_beta	90.920818
_cell_angle_gamma	97.199117
loop_
_atom_site_label
_atom_site_type_symbol
_atom_site_fract_x
_atom_site_fract_y
_atom_site_fract_z
Zn1	Zn	1.498396	-0.231055	0.781471
Zn2	Zn	1.520108	-0.337781	0.609492
Zn3	Zn	1.348257	-0.227133	0.587646
Zn4	Zn	1.326350	-0.368741	0.759530
O5	O	1.423278	-0.291178	0.684535
O6	O	1.645198	-0.233897	0.776982
O7	O	1.515567	-0.308506	0.462686
O8	O	1.368255	-0.123725	0.613397
O9	O	1.661150	-0.312308	0.650630
O10	O	1.478561	-0.126606	0.755799
O11	O	1.389309	-0.227213	0.446637
O12	O	1.201429	-0.257233	0.592123
O13	O	1.330917	-0.365074	0.906349
O14	O	1.185334	-0.361271	0.718405
O15	O	1.457319	-0.263917	0.922468
O16	O	1.494324	-0.445816	0.629355
O17	O	1.351971	-0.468562	0.739588
C18	C	1.156064	-0.312187	0.650513
C19	C	1.041746	-0.321195	0.635983
C20	C	0.982874	-0.286495	0.692118
C21	C	0.864720	-0.295804	0.677102
C22	C	1.423151	-0.484137	0.684487
C23	C	1.423187	-0.566682	0.684514
C24	C	1.345883	-0.827895	0.744472
C25	C	1.436458	-0.773610	0.781637
C26	C	1.423393	-0.863791	0.684598
C27	C	1.332716	-0.771004	0.647440
C28	C	1.423287	-0.717812	0.684558
C29	C	1.514012	-0.810595	0.721818
C30	C	1.410212	-0.807993	0.587570
C31	C	1.500856	-0.753722	0.624707
C32	C	1.423453	-0.947886	0.684623
C33	C	1.423238	-0.633718	0.684534
C34	C	1.691535	-0.270087	0.718690
C35	C	1.805850	-0.261099	0.733245
C36	C	1.389252	-0.318387	0.952765
C37	C	1.374753	-0.329982	1.067069
C38	C	1.423430	-0.097465	0.684609
C39	C	1.423495	-0.014916	0.684640
C40	C	1.457230	-0.264016	0.417356
C41	C	1.471929	-0.252196	0.303078
C42	C	1.430829	-0.285101	1.126005
C43	C	1.415845	-0.297083	1.244144
H44	H	0.827654	-0.332405	0.617919
O45	O	1.267921	-0.866243	0.805112
C46	C	1.193685	-0.892397	0.975904
C47	C	1.282040	-0.848936	0.907351
H48	H	1.205058	-0.878408	1.058574
H49	H	1.194000	-0.955427	0.974857
H50	H	1.116536	-0.875489	0.945005
H51	H	1.359233	-0.865780	0.938200
H52	H	1.281633	-0.785915	0.908401
H53	H	1.315643	-0.377273	1.104073
H54	H	1.019945	-0.249891	0.751291
O55	O	0.850221	-0.217486	0.803837
C56	C	1.008450	-0.168382	0.883094
C57	C	0.958333	-0.217808	0.803131
H58	H	1.095868	-0.168613	0.882534
H59	H	0.976957	-0.191571	0.963360
H60	H	0.989622	-0.108322	0.862532
H61	H	0.977141	-0.277879	0.823596
H62	H	0.989828	-0.194557	0.722887
H63	H	1.004676	-0.357794	0.576805
O64	O	1.449859	-0.755370	0.879533
C65	C	1.559731	-0.755767	1.030036
C66	C	1.544683	-0.776474	0.919187
H67	H	1.636403	-0.772807	1.062122
H68	H	1.493690	-0.786638	1.081071
H69	H	1.560264	-0.692471	1.028950
H70	H	1.544173	-0.839758	0.920174
H71	H	1.610724	-0.745551	0.868198
H72	H	1.590663	-0.828061	0.753322
H73	H	1.489928	-0.237803	1.088999
H74	H	1.256076	-0.753453	0.616032
H75	H	1.566425	-0.721691	0.574065
H76	H	1.399070	-0.823367	0.505550
O77	O	1.345409	-0.353499	1.288447
C78	C	1.266188	-0.416832	1.446582
C79	C	1.346003	-0.352925	1.396545
H80	H	1.266625	-0.416379	1.533985
H81	H	1.286851	-0.473199	1.427877
H82	H	1.185936	-0.408195	1.414910
H83	H	1.426282	-0.361489	1.428189
H84	H	1.325250	-0.296581	1.415245
O85	O	1.542414	-0.195812	1.258783
C86	C	1.621514	-0.132396	1.100635
C87	C	1.541686	-0.196296	1.150667
H88	H	1.620936	-0.132756	1.013214
H89	H	1.701826	-0.141011	1.132161
H90	H	1.600826	-0.076075	1.119494
H91	H	1.562277	-0.252645	1.131827
H92	H	1.461397	-0.187614	1.119138
