data_functionalizedCrystal
_audit_creation_method	'MofGen! by Chris Wilmer'
_symmetry_space_group_name_H-M	'P1'
_symmetry_Int_Tables_number	1
_symmetry_cell_setting	triclinic
loop_
_symmetry_equiv_pos_as_xyz
  x,y,z
_cell_length_a	12.759401
_cell_length_b	21.395361
_cell_length_c	12.759393
_cell_angle_alpha	89.960721
_cell_angle_beta	89.981504
_cell_angle_gamma	90.030985
loop_
_atom_site_label
_atom_site_type_symbol
_atom_site_fract_x
_atom_site_fract_y
_atom_site_fract_z
Zn1	Zn	1.606138	-0.249397	-0.593927
Zn2	Zn	2.106138	0.250603	-0.093927
Zn3	Zn	1.605983	-0.354189	-0.418223
Zn4	Zn	2.105983	0.145811	0.081777
Zn5	Zn	1.430440	-0.249430	-0.418266
Zn6	Zn	1.930440	0.250570	0.081734
Zn7	Zn	1.430380	-0.354141	-0.593865
Zn8	Zn	1.930380	0.145859	-0.093865
O9	O	1.518235	-0.301789	-0.506070
O10	O	2.018235	0.198211	-0.006070
O11	O	1.753139	-0.263304	-0.570627
O12	O	2.253139	0.236696	-0.070627
O13	O	1.582658	-0.340326	-0.271208
O14	O	2.082658	0.159674	0.228792
O15	O	1.453837	-0.161747	-0.441611
O16	O	1.953837	0.338253	0.058389
O17	O	1.753025	-0.340294	-0.441539
O18	O	2.253025	0.159706	0.058461
O19	O	1.582921	-0.161723	-0.570669
O20	O	2.082921	0.338277	-0.070669
O21	O	1.453687	-0.263360	-0.271239
O22	O	1.953687	0.236640	0.228761
O23	O	1.283411	-0.263314	-0.441551
O24	O	1.783411	0.236686	0.058449
O25	O	1.453734	-0.340212	-0.740894
O26	O	1.953734	0.159788	-0.240894
O27	O	1.283367	-0.340244	-0.570563
O28	O	1.783367	0.159756	-0.070563
O29	O	1.582863	-0.263257	-0.740939
O30	O	2.082863	0.236743	-0.240939
O31	O	1.582599	-0.441861	-0.441479
O32	O	2.082599	0.058139	0.058521
O33	O	1.453584	-0.441825	-0.570521
O34	O	1.953584	0.058175	-0.070521
C35	C	1.245268	-0.301778	-0.506056
C36	C	1.745268	0.198222	-0.006056
C37	C	1.128491	-0.301788	-0.506074
C38	C	1.628491	0.198212	-0.006074
C39	C	1.518097	-0.464577	-0.506012
C40	C	2.018097	0.035423	-0.006012
C41	C	1.518133	-0.534218	-0.506022
C42	C	2.018133	-0.034218	-0.006022
C43	C	0.963903	-0.341916	-0.573152
C44	C	1.463903	0.158084	-0.073152
C45	C	1.073627	-0.341909	-0.573141
C46	C	1.573627	0.158091	-0.073141
C47	C	1.073626	-0.261676	-0.439006
C48	C	1.573626	0.238324	0.060994
C49	C	0.963904	-0.261686	-0.439013
C50	C	1.463904	0.238314	0.060987
C51	C	1.585371	-0.566929	-0.438898
C52	C	2.085371	-0.066929	0.061102
C53	C	1.585420	-0.632364	-0.438921
C54	C	2.085420	-0.132364	0.061079
C55	C	1.518212	-0.665086	-0.506058
C56	C	2.018212	-0.165086	-0.006058
C57	C	1.450970	-0.632368	-0.573195
C58	C	1.950970	-0.132368	-0.073195
C59	C	1.450930	-0.566933	-0.573177
C60	C	1.950930	-0.066933	-0.073177
C61	C	1.423614	-0.768800	-0.514296
C62	C	1.923614	-0.268800	-0.014296
C63	C	1.423652	-0.834233	-0.514307
C64	C	1.923652	-0.334233	-0.014307
C65	C	1.518335	-0.866907	-0.506119
C66	C	2.018335	-0.366907	-0.006119
C67	C	1.612983	-0.834140	-0.497899
C68	C	2.112983	-0.334140	0.002101
C69	C	1.612943	-0.768706	-0.497881
C70	C	2.112943	-0.268706	0.002119
C71	C	1.518248	-0.736039	-0.506085
C72	C	2.018248	-0.236039	-0.006085
C73	C	1.585631	-0.970570	-0.439017
C74	C	2.085631	-0.470570	0.060983
C75	C	1.585682	-1.036007	-0.439048
C76	C	2.085682	-0.536007	0.060952
C77	C	1.451222	-1.036009	-0.573316
C78	C	1.951222	-0.536009	-0.073316
C79	C	1.451181	-0.970574	-0.573291
C80	C	1.951181	-0.470574	-0.073291
C81	C	1.518384	-0.937858	-0.506136
C82	C	2.018384	-0.437858	-0.006136
C83	C	1.792269	-0.301801	-0.506085
C84	C	2.292269	0.198199	-0.006085
C85	C	1.909045	-0.301806	-0.506092
C86	C	2.409045	0.198194	-0.006092
C87	C	1.518309	-0.301726	-0.780103
C88	C	2.018309	0.198274	-0.280103
C89	C	1.518340	-0.301699	-0.896880
C90	C	2.018340	0.198301	-0.396880
C91	C	1.518403	-0.138366	-0.506152
C92	C	2.018403	0.361634	-0.006152
C93	C	1.518475	-0.068724	-0.506186
C94	C	2.018475	0.431276	-0.006186
C95	C	1.451209	-0.261615	-0.951758
C96	C	1.951209	0.238385	-0.451758
C97	C	1.451233	-0.261596	-1.061482
C98	C	1.951233	0.238404	-0.561482
C99	C	1.585529	-0.341745	-1.061441
C100	C	2.085529	0.158255	-0.561441
C101	C	1.585498	-0.341767	-0.951719
C102	C	2.085498	0.158233	-0.451719
C103	C	1.518223	-0.301807	-0.233103
C104	C	2.018223	0.198193	0.266897
C105	C	1.518395	-0.301657	-0.116327
C106	C	2.018395	0.198343	0.383673
H107	H	0.919240	-0.374585	-0.627772
H108	H	1.419240	0.125415	-0.127772
H109	H	1.396568	-0.228956	-1.106159
H110	H	1.896568	0.271044	-0.606159
Br111	Br	1.676604	-0.396175	-0.877235
Br112	Br	2.176604	0.103825	-0.377235
Br113	Br	1.676589	-0.522532	-0.347774
Br114	Br	2.176589	-0.022532	0.152226
H115	H	1.118287	-0.374572	-0.627747
H116	H	1.618287	0.125428	-0.127747
H117	H	1.640442	-1.062639	-0.384390
H118	H	2.140442	-0.562639	0.115610
H119	H	1.396524	-0.228989	-0.907112
H120	H	1.896524	0.271011	-0.407112
H121	H	1.396176	-0.540300	-0.627838
H122	H	1.896176	-0.040300	-0.127838
H123	H	1.690083	-0.860741	-0.491233
H124	H	2.190083	-0.360741	0.008767
H125	H	1.396505	-1.062651	-0.627984
H126	H	1.896505	-0.562651	-0.127984
H127	H	1.640208	-0.374368	-1.106104
H128	H	2.140208	0.125632	-0.606104
H129	H	1.396251	-0.659014	-0.627859
H130	H	1.896251	-0.159014	-0.127859
H131	H	1.118306	-0.229011	-0.384395
H132	H	1.618306	0.270989	0.115605
H133	H	0.919238	-0.229022	-0.384399
H134	H	1.419238	0.270978	0.115601
H135	H	1.640177	-0.659002	-0.384261
H136	H	2.140177	-0.159002	0.115739
H137	H	1.640356	-0.943932	-0.384339
H138	H	2.140356	-0.443932	0.115661
H139	H	1.690008	-0.742028	-0.491191
H140	H	2.190008	-0.242028	0.008809
H141	H	1.396425	-0.943939	-0.627945
H142	H	1.896425	-0.443939	-0.127945
Br143	Br	1.295104	-0.724464	-0.525412
Br144	Br	1.795104	-0.224464	-0.025412
Br145	Br	1.295203	-0.878696	-0.525456
Br146	Br	1.795203	-0.378696	-0.025456
