data_functionalizedCrystal
_audit_creation_method	'MofGen! by Chris Wilmer'
_symmetry_space_group_name_H-M	'P1'
_symmetry_Int_Tables_number	1
_symmetry_cell_setting	triclinic
loop_
_symmetry_equiv_pos_as_xyz
  x,y,z
_cell_length_a	16.109301
_cell_length_b	10.723024
_cell_length_c	15.186229
_cell_angle_alpha	89.997422
_cell_angle_beta	89.999362
_cell_angle_gamma	83.964675
loop_
_atom_site_label
_atom_site_type_symbol
_atom_site_fract_x
_atom_site_fract_y
_atom_site_fract_z
O1	O	1.104074	0.160391	-0.073171
O2	O	0.862130	0.180351	-0.073184
O3	O	0.988683	-0.011279	-0.073174
O4	O	0.977521	0.352021	-0.073181
O5	O	0.988674	-0.011282	0.073283
O6	O	0.862121	0.180348	0.073273
O7	O	1.104066	0.160388	0.073287
Zn8	Zn	0.983092	0.170368	0.096533
Zn9	Zn	0.983103	0.170371	-0.096431
O10	O	0.977513	0.352018	0.073276
C11	C	0.831146	0.179541	0.000043
C12	C	0.738836	0.177117	0.000037
C13	C	0.517200	0.285190	0.000045
C14	C	0.430466	0.282903	0.000051
C15	C	0.449003	0.055540	0.000052
C16	C	0.535735	0.057829	0.000052
C17	C	0.569831	0.172657	0.000045
C18	C	0.396365	0.168081	0.000050
C19	C	0.302324	0.165600	0.000056
C20	C	0.663877	0.175139	0.000040
C21	C	0.987866	-0.057770	0.000054
C22	C	0.985436	-0.196292	0.000050
C23	C	1.056249	-0.272213	0.000053
C24	C	1.053739	-0.415383	0.000050
C25	C	1.135050	0.161198	0.000058
C26	C	1.227359	0.163622	0.000057
C27	C	0.978329	0.398508	0.000047
C28	C	0.980760	0.537031	0.000044
N29	N	0.983091	0.170364	0.228226
N30	N	0.983112	0.170365	-0.228123
C31	C	1.039148	0.085539	0.453953
C32	C	1.039150	0.085536	0.546143
C33	C	0.927049	0.255194	0.546143
C34	C	0.927043	0.255190	0.453955
C35	C	0.983097	0.170364	0.407862
C36	C	0.983105	0.170365	0.592240
C37	C	0.983108	0.170362	0.692196
C38	C	0.983094	0.170365	0.307900
H39	H	0.544958	0.378691	0.000046
H40	H	0.922953	-0.237286	0.000041
H41	H	0.421231	-0.037950	0.000063
C42	C	1.100050	-0.006359	0.596297
C43	C	1.151307	0.060134	0.649235
C44	C	1.207412	-0.024483	0.695458
H45	H	1.133511	-0.056911	0.555742
H46	H	1.069873	-0.058301	0.632314
H47	H	1.181482	0.112054	0.613221
H48	H	1.117870	0.110682	0.689807
H49	H	1.177235	-0.076425	0.731474
H50	H	1.240867	-0.075031	0.654896
H51	H	1.242191	0.020620	0.731387
C52	C	1.139652	-0.217809	0.000009
C53	C	1.204495	-0.315597	-0.000013
C54	C	1.281340	-0.265532	-0.000068
H55	H	1.143763	-0.167659	0.051067
H56	H	1.143688	-0.167675	-0.051086
H57	H	1.200461	-0.365709	0.051077
H58	H	1.200412	-0.365754	-0.051067
H59	H	1.285376	-0.215399	-0.051163
H60	H	1.285442	-0.215384	0.050991
H61	H	1.325345	-0.331873	-0.000091
H62	H	1.114359	-0.480619	0.000056
H63	H	1.084789	0.016467	0.416427
H64	H	0.387617	0.374539	0.000053
C65	C	0.592745	-0.064493	0.000006
C66	C	0.544324	-0.165545	-0.000018
C67	C	0.596812	-0.278239	-0.000069
H68	H	0.626981	-0.068504	0.051066
H69	H	0.626954	-0.068388	-0.051087
H70	H	0.510130	-0.161652	0.051069
H71	H	0.510090	-0.161575	-0.051074
H72	H	0.631021	-0.282134	-0.051162
H73	H	0.631046	-0.282237	0.050992
H74	H	0.563966	-0.346816	-0.000094
H75	H	0.881395	0.324265	0.416425
H76	H	0.881411	0.324259	0.583680
H77	H	0.920135	-0.397741	0.000048
