data_functionalizedCrystal
_audit_creation_method	'MofGen! by Chris Wilmer'
_symmetry_space_group_name_H-M	'P1'
_symmetry_Int_Tables_number	1
_symmetry_cell_setting	triclinic
loop_
_symmetry_equiv_pos_as_xyz
  x,y,z
_cell_length_a	15.944551
_cell_length_b	15.021413
_cell_length_c	11.792241
_cell_angle_alpha	89.996104
_cell_angle_beta	83.846077
_cell_angle_gamma	90.002826
loop_
_atom_site_label
_atom_site_type_symbol
_atom_site_fract_x
_atom_site_fract_y
_atom_site_fract_z
O1	O	1.115189	0.073940	0.146365
O2	O	1.365189	0.323940	0.396365
O3	O	1.615189	0.573940	0.646365
O4	O	1.865189	0.823940	0.896365
O5	O	0.870721	0.073962	0.164412
O6	O	1.120721	0.323962	0.414412
O7	O	1.370721	0.573962	0.664412
O8	O	1.620721	0.823962	0.914412
O9	O	0.998888	0.073944	-0.009831
O10	O	1.248888	0.323944	0.240169
O11	O	1.498888	0.573944	0.490169
O12	O	1.748888	0.823944	0.740169
O13	O	0.987023	0.073957	0.320608
O14	O	1.237023	0.323957	0.570608
O15	O	1.487023	0.573957	0.820608
O16	O	1.737023	0.823957	1.070608
O17	O	0.998867	-0.074120	-0.009806
O18	O	1.248867	0.175880	0.240194
O19	O	1.498867	0.425880	0.490194
O20	O	1.748867	0.675880	0.740194
O21	O	0.870701	-0.074103	0.164437
O22	O	1.120701	0.175897	0.414437
O23	O	1.370701	0.425897	0.664437
O24	O	1.620701	0.675897	0.914437
O25	O	1.115169	-0.074125	0.146390
O26	O	1.365169	0.175875	0.396390
O27	O	1.615169	0.425875	0.646390
O28	O	1.865169	0.675875	0.896390
Zn29	Zn	0.992932	-0.097622	0.155417
Zn30	Zn	1.242932	0.152378	0.405417
Zn31	Zn	1.492932	0.402378	0.655417
Zn32	Zn	1.742932	0.652378	0.905417
Zn33	Zn	0.992958	0.097459	0.155384
Zn34	Zn	1.242958	0.347459	0.405384
Zn35	Zn	1.492958	0.597459	0.655384
Zn36	Zn	1.742958	0.847459	0.905384
O37	O	0.987002	-0.074107	0.320632
O38	O	1.237002	0.175893	0.570632
O39	O	1.487002	0.425893	0.820632
O40	O	1.737002	0.675893	1.070632
C41	C	0.839414	-0.000068	0.163675
C42	C	1.089414	0.249932	0.413675
C43	C	1.339414	0.499932	0.663675
C44	C	1.589414	0.749932	0.913675
C45	C	0.746157	-0.000059	0.161429
C46	C	0.996157	0.249941	0.411429
C47	C	1.246157	0.499941	0.661429
C48	C	1.496157	0.749941	0.911429
N49	N	0.992919	-0.230760	0.155439
N50	N	1.242919	0.019240	0.405439
N51	N	1.492919	0.269240	0.655439
N52	N	1.742919	0.519240	0.905439
C53	C	0.530789	-0.000081	0.048056
C54	C	0.780789	0.249919	0.298056
C55	C	1.030789	0.499919	0.548056
C56	C	1.280789	0.749919	0.798056
C57	C	0.470017	0.072924	0.100690
C58	C	0.720017	0.322924	0.350690
C59	C	0.970017	0.572924	0.600690
C60	C	1.220017	0.822924	0.850690
C61	C	0.575413	-0.000070	0.157365
C62	C	0.825413	0.249930	0.407365
C63	C	1.075413	0.499930	0.657365
C64	C	1.325413	0.749930	0.907365
C65	C	0.470019	-0.073055	0.100741
C66	C	0.720019	0.176945	0.350741
C67	C	0.970019	0.426945	0.600741
C68	C	1.220019	0.676945	0.850741
C69	C	0.410483	-0.000084	0.153432
C70	C	0.660483	0.249916	0.403432
C71	C	0.910483	0.499916	0.653432
C72	C	1.160483	0.749916	0.903432
C73	C	0.515869	0.072996	0.210030
C74	C	0.765869	0.322996	0.460030
C75	C	1.015869	0.572996	0.710030
C76	C	1.265869	0.822996	0.960030
C77	C	0.515878	-0.073049	0.210065
C78	C	0.765878	0.176951	0.460065
C79	C	1.015878	0.426951	0.710065
C80	C	1.265878	0.676951	0.960065
C81	C	0.455123	-0.000026	0.262778
C82	C	0.705123	0.249974	0.512778
C83	C	0.955123	0.499974	0.762778
C84	C	1.205123	0.749974	1.012778
C85	C	0.670426	-0.000061	0.159628
C86	C	0.920426	0.249939	0.409628
C87	C	1.170426	0.499939	0.659628
C88	C	1.420426	0.749939	0.909628
C89	C	0.315471	-0.000087	0.151178
C90	C	0.565471	0.249913	0.401178
C91	C	0.815471	0.499913	0.651178
C92	C	1.065471	0.749913	0.901178
C93	C	0.933646	-0.470435	0.235971
C94	C	1.183646	-0.220435	0.485971
C95	C	1.433646	0.029565	0.735971
C96	C	1.683646	0.279565	0.985971
C97	C	1.009646	-0.529775	0.258005
C98	C	1.259646	-0.279775	0.508005
C99	C	1.509646	-0.029775	0.758005
C100	C	1.759646	0.220225	1.008005
C101	C	0.992941	-0.412367	0.155410
C102	C	1.242941	-0.162367	0.405410
C103	C	1.492941	0.087633	0.655410
C104	C	1.742941	0.337633	0.905410
C105	C	0.916962	-0.529768	0.133401
C106	C	1.166962	-0.279768	0.383401
C107	C	1.416962	-0.029768	0.633401
C108	C	1.666962	0.220232	0.883401
C109	C	0.992955	-0.587791	0.155386
C110	C	1.242955	-0.337791	0.405386
C111	C	1.492955	-0.087791	0.655386
C112	C	1.742955	0.162209	0.905386
C113	C	1.068979	-0.470400	0.177496
C114	C	1.318979	-0.220400	0.427496
C115	C	1.568979	0.029600	0.677496
C116	C	1.818979	0.279600	0.927496
C117	C	0.976245	-0.470388	0.052847
C118	C	1.226245	-0.220388	0.302847
C119	C	1.476245	0.029612	0.552847
C120	C	1.726245	0.279612	0.802847
C121	C	1.052299	-0.529702	0.074838
C122	C	1.302299	-0.279702	0.324838
C123	C	1.552299	-0.029702	0.574838
C124	C	1.802299	0.220298	0.824838
C125	C	0.992932	-0.311309	0.155428
C126	C	1.242932	-0.061309	0.405428
C127	C	1.492932	0.188691	0.655428
C128	C	1.742932	0.438691	0.905428
C129	C	0.992972	-0.688846	0.155367
C130	C	1.242972	-0.438846	0.405367
C131	C	1.492972	-0.188846	0.655367
C132	C	1.742972	0.061154	0.905367
C133	C	1.146476	-0.000093	0.147126
C134	C	1.396476	0.249907	0.397126
C135	C	1.646476	0.499907	0.647126
C136	C	1.896476	0.749907	0.897126
C137	C	1.239733	-0.000096	0.149372
C138	C	1.489733	0.249904	0.399372
C139	C	1.739733	0.499904	0.649372
C140	C	1.989733	0.749904	0.899372
C141	C	0.998132	-0.000088	-0.052104
C142	C	1.248132	0.249912	0.197896
C143	C	1.498132	0.499912	0.447896
C144	C	1.748132	0.749912	0.697896
C145	C	0.995901	-0.000087	-0.178099
C146	C	1.245901	0.249913	0.071901
C147	C	1.495901	0.499913	0.321901
C148	C	1.745901	0.749913	0.571901
N149	N	0.992977	0.230597	0.155354
N150	N	1.242977	0.480597	0.405354
N151	N	1.492977	0.730597	0.655354
N152	N	1.742977	0.980597	0.905354
C153	C	0.991799	-0.000072	-0.408777
C154	C	1.241799	0.249928	-0.158777
C155	C	1.491799	0.499928	0.091223
C156	C	1.741799	0.749928	0.341223
C157	C	0.994079	-0.000080	-0.280411
C158	C	1.244079	0.249920	-0.030411
C159	C	1.494079	0.499920	0.219589
C160	C	1.744079	0.749920	0.469589
C161	C	0.987758	-0.000073	0.362905
C162	C	1.237758	0.249927	0.612905
C163	C	1.487758	0.499927	0.862905
C164	C	1.737758	0.749927	1.112905
C165	C	0.989989	-0.000068	0.488900
C166	C	1.239989	0.249932	0.738900
C167	C	1.489989	0.499932	0.988900
C168	C	1.739989	0.749932	1.238900
H169	H	0.563713	0.000005	-0.042662
H170	H	0.813713	0.250005	0.207338
H171	H	1.063713	0.500005	0.457338
H172	H	1.313713	0.750005	0.707338
F173	F	0.443471	0.153595	0.040250
F174	F	0.693471	0.403595	0.290250
F175	F	0.943471	0.653595	0.540250
F176	F	1.193471	0.903595	0.790250
F177	F	0.542274	0.153758	0.270401
F178	F	0.792274	0.403758	0.520401
F179	F	1.042274	0.653758	0.770401
F180	F	1.292274	0.903758	1.020401
H181	H	1.023780	-0.555860	0.344729
H182	H	1.273780	-0.305860	0.594729
H183	H	1.523780	-0.055860	0.844729
H184	H	1.773780	0.194140	1.094729
H185	H	0.422374	0.000019	0.353590
H186	H	0.672374	0.250019	0.603590
H187	H	0.922374	0.500019	0.853590
H188	H	1.172374	0.750019	1.103590
F189	F	0.542455	-0.153722	0.270459
F190	F	0.792455	0.096278	0.520459
F191	F	1.042455	0.346278	0.770459
F192	F	1.292455	0.596278	1.020459
F193	F	0.443482	-0.153727	0.040301
F194	F	0.693482	0.096273	0.290301
F195	F	0.943482	0.346273	0.540301
F196	F	1.193482	0.596273	0.790301
F197	F	0.868172	-0.436417	0.325087
F198	F	1.118172	-0.186417	0.575087
F199	F	1.368172	0.063583	0.825087
F200	F	1.618172	0.313583	1.075087
F201	F	1.152992	-0.436462	0.201945
F202	F	1.402992	-0.186462	0.451945
F203	F	1.652992	0.063538	0.701945
F204	F	1.902992	0.313538	0.951945
F205	F	1.117918	-0.563507	-0.014227
F206	F	1.367918	-0.313507	0.235773
F207	F	1.617918	-0.063507	0.485773
F208	F	1.867918	0.186493	0.735773
H209	H	0.962087	-0.444282	-0.033849
H210	H	1.212087	-0.194282	0.216151
H211	H	1.462087	0.055718	0.466151
H212	H	1.712087	0.305718	0.716151
F213	F	0.832970	-0.563855	0.109082
F214	F	1.082970	-0.313855	0.359082
F215	F	1.332970	-0.063855	0.609082
F216	F	1.582970	0.186145	0.859082
