data_functionalizedCrystal
_audit_creation_method	'MofGen! by Chris Wilmer'
_symmetry_space_group_name_H-M	'P1'
_symmetry_Int_Tables_number	1
_symmetry_cell_setting	triclinic
loop_
_symmetry_equiv_pos_as_xyz
  x,y,z
_cell_length_a	10.489711
_cell_length_b	10.489741
_cell_length_c	14.750779
_cell_angle_alpha	77.226586
_cell_angle_beta	102.770097
_cell_angle_gamma	84.533091
loop_
_atom_site_label
_atom_site_type_symbol
_atom_site_fract_x
_atom_site_fract_y
_atom_site_fract_z
O1	O	1.666628	0.207223	-0.079860
O2	O	1.295429	0.224153	-0.079854
O3	O	1.489477	0.030087	-0.079851
O4	O	1.472580	0.401289	-0.079862
O5	O	1.544332	-0.024767	0.079800
O6	O	1.350284	0.169299	0.079797
O7	O	1.721483	0.152369	0.079791
Zn8	Zn	1.544593	0.152125	0.105142
Zn9	Zn	1.472319	0.224397	-0.105205
O10	O	1.527435	0.346435	0.079789
C11	C	1.275325	0.195455	-0.000028
C12	C	1.133694	0.191652	-0.000025
C13	C	0.951303	0.308362	-0.000040
C14	C	1.016403	0.277111	-0.078753
C15	C	1.070459	0.222998	0.078651
C16	C	0.946428	0.153593	-0.078824
C17	C	1.000498	0.099473	0.078650
C18	C	1.065565	0.068139	-0.000082
C19	C	1.515629	-0.044871	-0.000026
C20	C	1.511811	-0.186499	-0.000028
C21	C	1.388343	-0.254625	-0.000033
C22	C	1.473713	-0.373799	0.078682
C23	C	1.419660	-0.319692	-0.078721
C24	C	1.597254	-0.303831	0.078752
C25	C	1.543159	-0.249690	-0.078722
C26	C	1.628626	-0.368843	0.000013
C27	C	1.741587	0.181068	-0.000037
C28	C	1.883215	0.184873	-0.000046
C29	C	1.501283	0.421394	-0.000038
C30	C	1.505099	0.563025	-0.000043
N31	N	1.593927	0.102800	0.248699
N32	N	1.422995	0.273712	-0.248761
C33	C	1.285211	0.411413	0.600513
C34	C	1.319791	0.376858	0.701012
C35	C	1.491656	0.205077	0.700977
C36	C	1.457087	0.239613	0.600476
C37	C	1.353864	0.342783	0.550251
C38	C	1.525740	0.170983	0.550214
C39	C	1.491177	0.205522	0.449721
C40	C	1.387961	0.308691	0.399490
C41	C	1.319301	0.377322	0.449758
C42	C	1.628968	0.067820	0.600441
C43	C	1.697621	-0.000810	0.550179
C44	C	1.663053	0.033723	0.449684
C45	C	1.559837	0.136891	0.399453
C46	C	1.731713	-0.034909	0.399416
C47	C	1.697150	-0.000370	0.298923
C48	C	1.525274	0.171430	0.298960
H49	H	1.024533	0.352232	-0.145300
H50	H	1.730245	-0.418292	0.000055
H51	H	0.892728	0.124281	-0.145448
H52	H	1.286857	-0.204990	0.000048
C53	C	1.434283	-0.445513	0.167336
C54	C	1.308411	-0.387070	0.166968
C55	C	1.272030	-0.453101	0.248610
H56	H	1.496403	-0.439639	0.223304
H57	H	1.432846	-0.535828	0.166989
H58	H	1.309858	-0.296778	0.167324
H59	H	1.246263	-0.392943	0.111019
H60	H	1.270592	-0.543416	0.248263
H61	H	1.334158	-0.447223	0.304571
H62	H	1.186618	-0.413465	0.248366
H63	H	1.441211	0.255432	0.258065
H64	H	1.672341	-0.295895	0.145375
C65	C	1.582012	-0.177802	-0.167575
C66	C	1.488694	-0.184602	-0.249777
C67	C	1.524418	-0.118372	-0.331653
H68	H	1.666647	-0.218215	-0.168278
H69	H	1.584887	-0.087835	-0.166661
H70	H	1.485833	-0.274552	-0.250691
H71	H	1.404052	-0.144182	-0.249106
H72	H	1.527293	-0.028404	-0.330739
H73	H	1.609054	-0.158791	-0.332346
H74	H	1.461102	-0.122966	-0.387436
C75	C	1.207229	0.489417	0.395392
C76	C	1.154512	0.542151	0.460915
C77	C	1.051289	0.645421	0.410868
H78	H	1.140117	0.456632	0.356195
H79	H	1.240093	0.556499	0.356203
H80	H	1.121646	0.475080	0.500087
H81	H	1.221590	0.574962	0.500115
H82	H	1.084153	0.712503	0.371680
H83	H	0.984186	0.612625	0.371672
H84	H	1.015516	0.681221	0.455318
C85	C	1.319305	-0.330314	-0.167424
C86	C	1.193712	-0.272062	-0.167050
C87	C	1.101230	-0.281801	-0.248750
H88	H	1.317999	-0.420808	-0.167181
H89	H	1.343062	-0.285913	-0.223348
H90	H	1.169961	-0.316465	-0.111142
H91	H	1.194976	-0.181564	-0.167308
H92	H	1.124987	-0.237401	-0.304673
H93	H	1.099935	-0.372298	-0.248499
H94	H	1.016007	-0.242270	-0.248511
C95	C	1.603901	0.093220	0.755455
C96	C	1.721031	0.123521	0.731004
C97	C	1.824456	0.020509	0.781175
H98	H	1.583773	0.013551	0.739024
H99	H	1.614748	0.082473	0.822514
H100	H	1.710184	0.134251	0.663960
H101	H	1.741200	0.203172	0.747438
H102	H	1.835303	0.009763	0.848234
H103	H	1.804316	-0.059153	0.764739
H104	H	1.903943	0.041059	0.764599
H105	H	1.359826	0.336815	0.317662
H106	H	1.201148	0.495415	0.559618
H107	H	1.115009	-0.033444	-0.000119
C108	C	1.809492	-0.112990	0.604769
C109	C	1.760657	-0.211569	0.662456
C110	C	1.863667	-0.314942	0.712747
H111	H	1.876552	-0.080242	0.644040
H112	H	1.845422	-0.149009	0.560473
H113	H	1.724748	-0.175555	0.706746
H114	H	1.693611	-0.244354	0.623209
H115	H	1.899597	-0.350961	0.668452
H116	H	1.930720	-0.282181	0.752013
H117	H	1.830545	-0.381845	0.751887
H118	H	1.263877	0.432755	0.741930
H119	H	1.657109	0.039707	0.682268
H120	H	1.815766	-0.118902	0.440322
C121	C	0.989245	-0.000704	0.167234
C122	C	1.049373	-0.126103	0.168004
C123	C	1.038795	-0.218353	0.249551
H124	H	0.898563	-0.002808	0.166023
H125	H	1.031990	0.023877	0.223245
H126	H	1.006625	-0.150678	0.112008
H127	H	1.140058	-0.124041	0.169229
H128	H	1.081540	-0.193771	0.305562
H129	H	0.948111	-0.220445	0.248333
H130	H	1.079600	-0.303443	0.250089
C131	C	0.884992	0.443826	-0.000343
C132	C	0.891866	0.536277	-0.082959
C133	C	0.830775	0.661072	-0.083283
H134	H	0.928880	0.469302	0.054944
H135	H	0.794983	0.440293	0.000173
H136	H	0.981859	0.539813	-0.083466
H137	H	0.847972	0.510844	-0.138259
H138	H	0.740765	0.657539	-0.082766
H139	H	0.874669	0.686535	-0.027992
H140	H	0.835420	0.723813	-0.139340
C141	C	1.142005	0.262157	0.167470
C142	C	1.052695	0.284081	0.222284
C143	C	1.118551	0.320150	0.304112
H144	H	1.177833	0.340778	0.148673
H145	H	1.211424	0.193111	0.204603
H146	H	0.983300	0.353122	0.185158
H147	H	1.016862	0.205477	0.241105
H148	H	1.187970	0.251104	0.341245
H149	H	1.154377	0.398768	0.285306
H150	H	1.057967	0.335018	0.341317
H151	H	1.753056	-0.056255	0.258000
