data_functionalizedCrystal
_audit_creation_method	'MofGen! by Chris Wilmer'
_symmetry_space_group_name_H-M	'P1'
_symmetry_Int_Tables_number	1
_symmetry_cell_setting	triclinic
loop_
_symmetry_equiv_pos_as_xyz
  x,y,z
_cell_length_a	6.817900
_cell_length_b	17.284796
_cell_length_c	17.284648
_cell_angle_alpha	88.656921
_cell_angle_beta	103.040472
_cell_angle_gamma	103.042616
loop_
_atom_site_label
_atom_site_type_symbol
_atom_site_fract_x
_atom_site_fract_y
_atom_site_fract_z
V1	V	-4.005497	-0.094267	-0.239960
O2	O	-4.000072	0.020178	-0.242327
O3	O	-3.950757	-0.201965	-0.231648
O4	O	-3.950743	-0.085951	-0.347658
O5	O	-4.000086	-0.096640	-0.125515
V6	V	-4.490770	-0.081389	-0.227082
O7	O	-4.262917	-0.122515	-0.268209
O8	O	-4.683547	-0.053141	-0.198832
O9	O	-4.322303	0.026309	-0.235393
O10	O	-4.613592	-0.195834	-0.224714
O11	O	-4.613578	-0.079017	-0.341526
O12	O	-4.322317	-0.089706	-0.119384
C13	C	-3.794421	-0.228435	-0.226142
C14	C	-3.830910	-0.316435	-0.220064
C15	C	-4.032359	-0.811043	-0.178079
C16	C	-3.998091	-0.728358	-0.183803
C17	C	-4.016209	-0.693859	-0.258429
C18	C	-4.068580	-0.742048	-0.327335
C19	C	-4.102833	-0.824731	-0.321610
C20	C	-3.917533	-0.447307	-0.283245
C21	C	-3.883281	-0.364618	-0.288965
C22	C	-3.812791	-0.350934	-0.145432
C23	C	-3.847060	-0.433619	-0.139714
C24	C	-3.899416	-0.481801	-0.208620
N25	N	-3.981189	-0.609342	-0.264281
N26	N	-3.934421	-0.566316	-0.202766
C27	C	-3.794402	-0.080445	-0.374122
C28	C	-3.830877	-0.074359	-0.462122
C29	C	-3.883248	-0.143262	-0.510303
C30	C	-3.917527	-0.137541	-0.592988
C31	C	-3.899420	-0.062917	-0.627491
C32	C	-3.847050	0.005991	-0.579304
C33	C	-3.812786	0.000270	-0.496620
C34	C	-3.998131	-0.038110	-0.874044
C35	C	-4.032394	-0.032394	-0.956734
C36	C	-4.102872	-0.175927	-0.970412
C37	C	-4.068592	-0.181642	-0.887727
C38	C	-4.016236	-0.112734	-0.839547
N39	N	-3.934452	-0.057068	-0.712008
N40	N	-3.981219	-0.118584	-0.755032
C41	C	-4.141981	0.052774	-0.240897
C42	C	-4.084730	0.140774	-0.246980
C43	C	-4.142000	-0.095214	-0.092915
C44	C	-4.084765	-0.101297	-0.004914
H45	H	-3.955455	-0.689131	-0.127696
H46	H	-3.832307	-0.461703	-0.078945
H47	H	-3.898081	-0.336533	-0.349739
H48	H	-3.770156	-0.311696	-0.089333
C49	C	-3.941604	0.036767	-0.821851
C50	C	-4.100093	0.077968	-0.841439
C51	C	-4.048078	0.146959	-0.793383
H52	H	-3.923835	0.022794	-0.767643
H53	H	-3.816584	0.069600	-0.830187
H54	H	-4.225077	0.045142	-0.833097
H55	H	-4.117885	0.091961	-0.895639
H56	H	-3.923059	0.179792	-0.801718
H57	H	-4.030308	0.132979	-0.739177
H58	H	-4.155595	0.174927	-0.806671
C59	C	-3.974466	-0.499479	-0.358151
C60	C	-3.983057	-0.451567	-0.424728
C61	C	-4.035526	-0.499604	-0.493748
H62	H	-3.873175	-0.529603	-0.356651
H63	H	-4.105554	-0.534436	-0.361314
H64	H	-3.851988	-0.416624	-0.421566
H65	H	-4.084352	-0.421444	-0.426254
H66	H	-4.166614	-0.534561	-0.496911
H67	H	-3.934228	-0.529726	-0.492241
H68	H	-4.041381	-0.467103	-0.538930
C69	C	-4.159296	-0.877077	-0.396384
C70	C	-4.009554	-0.921348	-0.393812
C71	C	-4.061475	-0.969569	-0.462686
H72	H	-4.290252	-0.912114	-0.399569
H73	H	-4.165098	-0.844714	-0.441668
H74	H	-4.003774	-0.953708	-0.348541
H75	H	-3.878584	-0.886332	-0.390639
H76	H	-4.067278	-0.937206	-0.507970
H77	H	-4.192434	-1.004600	-0.465866
H78	H	-3.959875	-0.999607	-0.460954
H79	H	-4.083317	-0.713952	-0.388097
C80	C	-3.974800	-0.212335	-0.645343
C81	C	-4.167997	-0.216755	-0.696769
C82	C	-4.220842	-0.285653	-0.745001
H83	H	-3.873637	-0.210795	-0.675537
H84	H	-3.980794	-0.257619	-0.612979
H85	H	-4.161989	-0.171483	-0.729130
H86	H	-4.269203	-0.218308	-0.666597
H87	H	-4.226836	-0.330937	-0.712637
H88	H	-4.119667	-0.284107	-0.775190
H89	H	-4.351938	-0.288665	-0.779894
C90	C	-3.902819	-0.224354	-0.472993
C91	C	-3.955946	-0.283469	-0.532888
C92	C	-3.973897	-0.358180	-0.498550
H93	H	-3.774694	-0.227237	-0.438643
H94	H	-4.007123	-0.232056	-0.443430
H95	H	-3.851649	-0.275770	-0.562438
H96	H	-4.084076	-0.280612	-0.567243
H97	H	-4.078201	-0.365882	-0.468987
H98	H	-3.845766	-0.361054	-0.464200
H99	H	-4.009964	-0.398299	-0.539183
C100	C	-3.827789	0.087025	-0.616729
C101	C	-3.969674	0.125424	-0.596083
C102	C	-3.952009	0.200070	-0.630552
H103	H	-3.691600	0.118041	-0.597974
H104	H	-3.855791	0.080594	-0.672879
H105	H	-3.941659	0.131859	-0.539944
H106	H	-4.105881	0.094432	-0.614838
H107	H	-3.980010	0.193639	-0.686703
H108	H	-3.815814	0.231078	-0.611794
H109	H	-4.048286	0.226130	-0.616555
H110	H	-3.770144	0.056378	-0.457392
H111	H	-4.017610	-0.839126	-0.117310
H112	H	-4.083348	-0.242409	-0.859641
H113	H	-4.145505	-0.232028	-1.009649
H114	H	-4.017688	0.028377	-0.984823
