data_functionalizedCrystal
_audit_creation_method	'MofGen! by Chris Wilmer'
_symmetry_space_group_name_H-M	'P1'
_symmetry_Int_Tables_number	1
_symmetry_cell_setting	triclinic
loop_
_symmetry_equiv_pos_as_xyz
  x,y,z
_cell_length_a	17.699097
_cell_length_b	15.625429
_cell_length_c	16.776229
_cell_angle_alpha	71.916203
_cell_angle_beta	89.989262
_cell_angle_gamma	83.782849
loop_
_atom_site_label
_atom_site_type_symbol
_atom_site_fract_x
_atom_site_fract_y
_atom_site_fract_z
O1	O	1.004369	0.114065	-0.099321
O2	O	0.784030	0.128885	-0.103591
O3	O	0.900084	-0.009776	-0.063518
O4	O	0.888314	0.252726	-0.139394
O5	O	0.900069	-0.009784	0.069061
O6	O	0.784015	0.128877	0.028988
O7	O	1.004353	0.114056	0.033258
Zn8	Zn	0.894181	0.121465	0.052173
Zn9	Zn	0.894202	0.121476	-0.122505
O10	O	0.888299	0.252717	-0.006815
C11	C	0.755824	0.128348	-0.037146
C12	C	0.671802	0.126748	-0.036678
C13	C	0.156067	0.116951	-0.106146
C14	C	0.235015	0.118447	-0.106575
C15	C	0.274475	0.119192	-0.034519
C16	C	0.234983	0.118432	0.037972
C17	C	0.156037	0.116929	0.038402
C18	C	0.553363	0.124491	0.036242
C19	C	0.632314	0.125997	0.035806
C20	C	0.632341	0.126010	-0.108735
C21	C	0.553395	0.124507	-0.108305
C22	C	0.513911	0.123742	-0.035813
C23	C	0.428307	0.122117	-0.035349
C24	C	0.360077	0.120823	-0.034985
C25	C	0.899543	-0.043367	0.012478
C26	C	0.897945	-0.143445	0.041401
C27	C	0.892707	-0.472565	-0.224790
C28	C	0.891202	-0.566603	-0.197588
C29	C	0.891185	-0.566599	-0.053060
C30	C	0.892695	-0.472560	-0.080250
C31	C	0.893455	-0.425550	-0.166116
C32	C	0.893442	-0.425545	-0.021575
C33	C	0.894947	-0.331513	-0.048763
C34	C	0.895705	-0.284497	-0.134626
C35	C	0.894960	-0.331519	-0.193304
C36	C	0.892676	-0.472555	0.064290
C37	C	0.893423	-0.425540	0.122965
C38	C	0.894934	-0.331507	0.095777
C39	C	0.895692	-0.284491	0.009915
C40	C	0.895679	-0.284485	0.154455
C41	C	0.897184	-0.190454	0.127267
C42	C	0.897197	-0.190460	-0.017273
C43	C	1.032559	0.114594	-0.033189
C44	C	1.116581	0.116193	-0.033661
C45	C	0.888840	0.286308	-0.082813
C46	C	0.890439	0.386386	-0.111740
N47	N	0.894173	0.121457	0.171387
N48	N	0.894216	0.121477	-0.241717
C49	C	0.945578	0.060083	0.230841
C50	C	0.945582	0.060082	0.314293
C51	C	0.894185	0.121460	0.338289
C52	C	0.842775	0.182837	0.278828
C53	C	0.842767	0.182833	0.195378
C54	C	0.842802	0.182855	0.615370
C55	C	0.842815	0.182856	0.698826
C56	C	0.945617	0.060104	0.734285
C57	C	0.945609	0.060100	0.650835
C58	C	0.894197	0.121473	0.591383
C59	C	0.894192	0.121472	0.500895
C60	C	0.894193	0.121466	0.428774
H61	H	0.123944	0.116350	-0.164824
H62	H	0.800942	0.232829	0.566969
F63	F	0.276981	0.119222	0.114660
H64	H	0.890563	-0.604886	0.016852
H65	H	0.800958	0.232840	0.718359
F66	F	0.898017	-0.140425	-0.108662
F67	F	0.674370	0.126819	-0.185887
H68	H	0.800922	0.232810	0.298370
H69	H	0.987464	0.010123	0.631302
H70	H	0.987477	0.010128	0.782702
H71	H	0.664440	0.126604	0.094485
F72	F	0.788053	0.248153	0.132103
H73	H	0.267162	0.119059	-0.165597
F74	F	0.897983	-0.140415	0.189715
F75	F	0.511403	0.123719	-0.184997
F76	F	0.114014	0.116116	0.115552
H77	H	0.893333	-0.434289	-0.294711
H78	H	0.521226	0.123855	0.095273
F79	F	0.897309	-0.184419	-0.163562
F80	F	0.891072	-0.572632	0.093224
H81	H	0.895586	-0.293242	-0.263224
H82	H	0.987434	0.010106	0.211310
H83	H	0.890586	-0.604878	-0.245375
F84	F	0.892608	-0.475579	0.214347
F85	F	0.894857	-0.334526	0.245836
F86	F	1.000291	-0.005240	0.377570
