data_functionalizedCrystal
_audit_creation_method	'MofGen! by Chris Wilmer'
_symmetry_space_group_name_H-M	'P1'
_symmetry_Int_Tables_number	1
_symmetry_cell_setting	triclinic
loop_
_symmetry_equiv_pos_as_xyz
  x,y,z
_cell_length_a	10.489768
_cell_length_b	22.610064
_cell_length_c	10.489741
_cell_angle_alpha	89.995598
_cell_angle_beta	95.455169
_cell_angle_gamma	89.994005
loop_
_atom_site_label
_atom_site_type_symbol
_atom_site_fract_x
_atom_site_fract_y
_atom_site_fract_z
O1	O	-1.694042	0.049153	0.180119
O2	O	-1.322851	0.049161	0.196975
O3	O	-1.516893	0.049153	0.002950
O4	O	-1.500000	0.049161	0.374144
O5	O	-1.516858	-0.049216	0.002978
O6	O	-1.322816	-0.049208	0.197003
O7	O	-1.694008	-0.049216	0.180147
Zn8	Zn	-1.508407	-0.064831	0.188579
Zn9	Zn	-1.508452	0.064775	0.188542
O10	O	-1.499966	-0.049209	0.374172
C11	C	-1.275302	-0.000023	0.195708
C12	C	-1.133675	-0.000020	0.191877
C13	C	-0.980818	-0.000031	0.066141
C14	C	-1.058195	-0.048529	0.129018
C15	C	-1.058184	0.048455	0.129020
C16	C	-0.958704	-0.048573	0.247992
C17	C	-0.958688	0.048454	0.247976
C18	C	-1.036015	-0.000055	0.310940
N19	N	-1.508385	-0.153283	0.188604
C20	C	-1.594378	-0.561928	0.102641
C21	C	-1.594384	-0.623848	0.102632
O22	O	-1.667444	-0.655869	0.029562
N23	N	-1.508451	-0.654820	0.188516
C24	C	-1.422496	-0.623870	0.274405
O25	O	-1.349403	-0.655900	0.347455
C26	C	-1.422485	-0.561951	0.274407
C27	C	-1.508433	-0.530982	0.188527
C28	C	-1.680317	-0.530959	0.016767
C29	C	-1.680312	-0.469043	0.016778
C30	C	-1.594367	-0.438097	0.102664
C31	C	-1.508427	-0.469066	0.188538
C32	C	-1.336525	-0.531001	0.360290
C33	C	-1.336520	-0.469078	0.360284
C34	C	-1.422468	-0.438109	0.274403
C35	C	-1.422477	-0.376204	0.274435
N36	N	-1.508411	-0.345231	0.188551
C37	C	-1.594356	-0.376178	0.102666
C38	C	-1.422526	-0.753903	0.274393
C39	C	-1.422542	-0.815821	0.274398
C40	C	-1.594429	-0.815795	0.102623
C41	C	-1.594417	-0.753876	0.102625
C42	C	-1.508459	-0.722931	0.188510
C43	C	-1.594339	-0.246150	0.102696
C44	C	-1.594330	-0.184229	0.102719
C45	C	-1.422440	-0.184261	0.274489
C46	C	-1.422453	-0.246176	0.274471
C47	C	-1.508407	-0.277120	0.188565
O48	O	-1.349451	-0.344143	0.347464
O49	O	-1.667425	-0.344140	0.029617
C50	C	-0.741558	-0.000033	0.181393
C51	C	-0.883193	-0.000036	0.185164
C52	C	-1.515600	-0.000031	-0.044568
C53	C	-1.511783	-0.000030	-0.186198
N54	N	-1.508483	0.153227	0.188508
C55	C	-1.388319	-0.000023	-0.254350
C56	C	-1.446625	-0.048525	-0.346453
C57	C	-1.446688	0.048459	-0.346455
C58	C	-1.570139	-0.048572	-0.276435
C59	C	-1.570185	0.048456	-0.276428
C60	C	-1.628581	-0.000059	-0.368503
C61	C	-1.501259	-0.000023	0.421690
C62	C	-1.505076	-0.000020	0.563320
H63	H	-1.060491	-0.000080	0.414521
H64	H	-1.664330	-0.271338	0.032742
H65	H	-1.352531	-0.728710	0.344341
H66	H	-1.101656	-0.089534	0.078785
H67	H	-1.664403	-0.728664	0.032693
H68	H	-1.750304	-0.556150	-0.053177
H69	H	-1.664324	-0.159016	0.032784
H70	H	-1.394371	-0.089528	-0.377458
N71	N	-1.253865	-0.000079	-0.188583
H72	H	-1.206737	0.036177	-0.215116
H73	H	-1.207490	-0.036774	-0.213895
H74	H	-0.915411	-0.089623	0.298214
N75	N	-0.948049	-0.000112	-0.070950
H76	H	-0.851933	0.000256	-0.072551
H77	H	-0.985897	0.036141	-0.116328
N78	N	-1.639265	-0.102949	-0.235589
H79	H	-1.641384	-0.102626	-0.139532
H80	H	-1.592926	-0.139506	-0.261736
H81	H	-0.915202	0.089461	0.298164
N82	N	-1.115756	0.102767	0.062430
H83	H	-1.096085	0.102719	-0.029972
H84	H	-1.078123	0.139371	0.106513
N85	N	-1.773008	-0.435645	-0.075856
H86	H	-1.827444	-0.464652	-0.130261
H87	H	-1.723658	-0.409957	-0.132734
H88	H	-1.730183	-0.000088	-0.417917
H89	H	-1.622395	0.089461	-0.245390
N90	N	-1.687130	-0.849179	0.009985
H91	H	-1.674086	-0.893102	0.023020
H92	H	-1.671567	-0.838354	-0.080654
H93	H	-1.352569	-0.841032	0.344344
H94	H	-1.266538	-0.556208	0.430221
N95	N	-1.243801	-0.435702	0.452913
H96	H	-1.189361	-0.464720	0.507310
H97	H	-1.293135	-0.410011	0.509800
H98	H	-1.394447	0.089468	-0.377436
H99	H	-1.352479	-0.271392	0.344416
N100	N	-1.329745	-0.150877	0.367119
H101	H	-1.342786	-0.106953	0.354082
H102	H	-1.239128	-0.161705	0.351478
