data_functionalizedCrystal
_audit_creation_method	'MofGen! by Chris Wilmer'
_symmetry_space_group_name_H-M	'P1'
_symmetry_Int_Tables_number	1
_symmetry_cell_setting	triclinic
loop_
_symmetry_equiv_pos_as_xyz
  x,y,z
_cell_length_a	26.374263
_cell_length_b	26.373608
_cell_length_c	26.370205
_cell_angle_alpha	60.005297
_cell_angle_beta	60.010839
_cell_angle_gamma	59.993700
loop_
_atom_site_label
_atom_site_type_symbol
_atom_site_fract_x
_atom_site_fract_y
_atom_site_fract_z
O1	O	0.070152	-0.740800	0.619517
O2	O	0.026377	-0.576764	0.499159
O3	O	0.130245	-0.680560	0.499088
O4	O	-0.033715	-0.637003	0.619589
O5	O	0.164701	-0.646107	0.533470
O6	O	0.060833	-0.542310	0.533541
O7	O	0.104608	-0.706346	0.653899
Cu8	Cu	0.085867	-0.621182	0.596859
Cu9	Cu	0.045119	-0.661927	0.556199
O10	O	0.000741	-0.602549	0.653971
N11	N	0.114528	-0.592529	0.625461
N12	N	0.016463	-0.690587	0.527598
C13	C	0.181428	-0.355400	0.692330
C14	C	0.181530	-0.525690	0.862573
C15	C	0.181440	-0.525667	0.692313
C16	C	0.351736	-0.525673	0.692271
C17	C	0.200174	-0.411588	0.711047
C18	C	0.200232	-0.506954	0.806384
C19	C	0.295546	-0.506943	0.711016
C20	C	0.200182	-0.506940	0.711037
C21	C	0.157567	-0.283881	0.668507
C22	C	0.157587	-0.549500	0.668479
C23	C	0.224035	-0.483107	0.734871
C24	C	0.455739	-0.507754	0.637520
C25	C	0.520749	-0.529425	0.615835
C26	C	0.520768	-0.634611	0.655947
C27	C	0.455759	-0.612939	0.677633
C28	C	0.173240	-0.251367	0.604595
C29	C	0.151546	-0.186351	0.582941
C30	C	0.098512	-0.186369	0.689113
C31	C	0.120206	-0.251385	0.710768
C32	C	0.093669	-0.533798	0.684205
C33	C	0.071992	-0.555464	0.662532
C34	C	0.178144	-0.608536	0.609422
C35	C	0.199825	-0.586869	0.631088
C36	C	0.093821	-0.533842	0.966616
C37	C	0.072187	-0.555526	1.031630
C38	C	0.178370	-0.608608	1.031591
C39	C	0.200004	-0.586926	0.966576
C40	C	0.157728	-0.549541	0.934090
C41	C	0.423247	-0.549509	0.668416
C42	C	-0.097522	-0.709158	0.508557
C43	C	-0.002050	-0.709295	0.413344
C44	C	-0.002241	-0.804604	0.508735
C45	C	-0.002225	-0.709288	0.508793
C46	C	-0.026009	-0.733087	0.484858
N47	N	0.552340	-0.592538	0.625346
O48	O	0.750867	-0.598274	0.477076
O49	O	0.751048	-0.718989	0.640960
O50	O	0.750981	-0.718715	0.537020
O51	O	0.750934	-0.598547	0.581017
O52	O	0.647701	-0.684348	0.571512
O53	O	0.647768	-0.684622	0.675452
O54	O	0.647587	-0.563907	0.511569
Cu55	Cu	0.638247	-0.621127	0.596660
Cu56	Cu	0.760388	-0.661769	0.555869
O57	O	0.647654	-0.564181	0.615509
N58	N	0.846295	-0.690358	0.527176
N59	N	0.114503	-0.154778	0.625499
O60	O	-0.033701	0.043855	0.619632
O61	O	0.130190	0.043858	0.498933
O62	O	0.026233	0.043841	0.499224
O63	O	0.070257	0.043872	0.619341
O64	O	0.060690	-0.059448	0.533654
O65	O	0.164647	-0.059431	0.533363
O66	O	0.000756	-0.059434	0.654062
Cu67	Cu	0.085848	-0.068863	0.596857
Cu68	Cu	0.045099	0.053287	0.556138
O69	O	0.104714	-0.059417	0.653771
N70	N	0.016435	0.139202	0.527497
N71	N	0.114760	-0.592585	1.063190
O72	O	0.108896	-0.740779	1.261808
O73	O	-0.011787	-0.576838	1.261822
O74	O	-0.011509	-0.680779	1.261780
O75	O	0.108618	-0.636838	1.261850
O76	O	0.022916	-0.646341	1.158496
O77	O	0.022638	-0.542399	1.158538
O78	O	0.143321	-0.706341	1.158524
Cu79	Cu	0.086123	-0.621225	1.149100
Cu80	Cu	0.045411	-0.661953	1.271246
O81	O	0.143044	-0.602399	1.158566
N82	N	0.016774	-0.690600	1.357156
C83	C	0.039504	-0.538867	0.499769
C84	C	0.168130	-0.667407	0.499680
C85	C	0.091482	-0.744243	0.653289
C86	C	-0.037145	-0.615703	0.653378
C87	C	0.699429	-0.718429	0.678853
C88	C	0.699348	-0.718091	0.550135
C89	C	0.699202	-0.564465	0.473677
C90	C	0.699287	-0.564805	0.602393
C91	C	0.168023	-0.007659	0.499484
C92	C	0.039327	-0.007807	0.499887
C93	C	-0.037119	-0.007789	0.653468
C94	C	0.091620	-0.007770	0.653109
C95	C	-0.011194	-0.538964	1.210181
C96	C	-0.010843	-0.667676	1.210109
C97	C	0.142729	-0.744214	1.210165
C98	C	0.142386	-0.615494	1.210214
H99	H	0.020147	-0.542732	1.058106
O100	O	0.224306	-0.678581	0.454553
C101	C	0.235403	-0.728829	0.440202
H102	H	0.206378	-0.758662	0.481265
H103	H	0.222066	-0.710376	0.397602
C104	C	0.340400	-0.731703	0.376164
C105	C	0.304754	-0.768348	0.426601
H106	H	0.383179	-0.756079	0.367771
H107	H	0.332923	-0.697848	0.385831
H108	H	0.329279	-0.716328	0.340670
H109	H	0.315871	-0.783715	0.462095
H110	H	0.312235	-0.802206	0.416940
H111	H	-0.049082	-0.491880	1.210184
H112	H	0.547206	-0.495421	0.590679
O113	O	0.102528	-0.800460	0.698409
C114	C	0.059929	-0.828045	0.715116
H115	H	0.016924	-0.790430	0.702668
H116	H	0.082427	-0.861863	0.688966
C117	C	0.093918	-0.909506	0.800795
C118	C	0.041096	-0.863305	0.785511
H119	H	0.082303	-0.931258	0.844217
H120	H	0.122620	-0.890923	0.789538
H121	H	0.112661	-0.937681	0.778999
H122	H	0.022359	-0.835126	0.807301
H123	H	0.012391	-0.881885	0.796773
O124	O	-0.093317	-0.007750	0.698596
C125	C	-0.131973	-0.007772	0.676254
H126	H	-0.115164	0.011766	0.623355
H127	H	-0.130297	-0.057325	0.692056
C128	C	-0.219811	0.008751	0.766934
C129	C	-0.199170	0.032754	0.701962
H130	H	-0.261262	0.033747	0.782793
H131	H	-0.193768	0.008764	0.781988
H132	H	-0.218410	-0.032542	0.780093
H133	H	-0.200564	0.074043	0.688803
H134	H	-0.225215	0.032749	0.686906
H135	H	-0.048566	-0.677061	1.210046
O136	O	0.699050	-0.519268	0.417534
C137	C	0.645533	-0.504864	0.406430
H138	H	0.627747	-0.545935	0.435402
H139	H	0.608059	-0.462299	0.419831
C140	C	0.683568	-0.440704	0.301478
C141	C	0.661725	-0.491150	0.337058
H142	H	0.693554	-0.432242	0.258686
H143	H	0.719622	-0.450406	0.308960
H144	H	0.652336	-0.405239	0.312653
H145	H	0.692960	-0.526616	0.325889
H146	H	0.625677	-0.481454	0.329574
H147	H	0.180125	-0.606093	1.210228
O148	O	0.699243	-0.519827	0.613733
C149	C	0.699314	-0.542457	0.674764
H150	H	0.679803	-0.582342	0.704146
H151	H	0.748875	-0.559755	0.673820
C152	C	0.682764	-0.440943	0.666926
C153	C	0.658796	-0.489927	0.703016
H154	H	0.657773	-0.408540	0.684354
H155	H	0.682718	-0.425697	0.625808
H156	H	0.724064	-0.455367	0.666143
H157	H	0.617500	-0.475505	0.703793
H158	H	0.658834	-0.505169	0.744136
O159	O	0.187856	-0.800426	1.210186
C160	C	0.165511	-0.839059	1.210142
H161	H	0.112614	-0.822232	1.229688
H162	H	0.181296	-0.837373	1.160584
C163	C	0.256202	-0.926936	1.226631
C164	C	0.191233	-0.906271	1.250642
H165	H	0.272070	-0.968396	1.251610
H166	H	0.271258	-0.900908	1.226658
H167	H	0.269348	-0.925525	1.185332
H168	H	0.178088	-0.907674	1.291936
H169	H	0.176175	-0.932301	1.250622
O170	O	0.028242	-0.482630	0.454728
C171	C	-0.032782	-0.444099	0.477257
H172	H	-0.062214	-0.474063	0.517137
H173	H	-0.031847	-0.412752	0.494530
C174	C	-0.024798	-0.367077	0.375682
C175	C	-0.060949	-0.403879	0.424660
H176	H	-0.042173	-0.342265	0.343237
H177	H	0.016316	-0.393035	0.360503
H178	H	-0.024022	-0.340960	0.390084
H179	H	-0.061718	-0.430001	0.410259
H180	H	-0.102064	-0.377925	0.439835
O181	O	0.028182	-0.007789	0.454788
C182	C	0.081502	-0.007808	0.401200
H183	H	0.111160	0.011753	0.401719
H184	H	0.109535	-0.057362	0.400461
C185	C	0.025387	0.008664	0.342325
C186	C	0.061811	0.032694	0.342959
H187	H	0.013241	0.033644	0.306399
H188	H	-0.010535	0.008674	0.378428
H189	H	0.048753	-0.032631	0.341711
H190	H	0.038442	0.073985	0.343581
H191	H	0.097729	0.032691	0.306854
O192	O	0.062297	-0.154870	0.730226
C193	C	0.095162	-0.170750	0.767782
H194	H	0.133015	-0.217950	0.768401
H195	H	0.117215	-0.134154	0.748223
C196	C	0.003646	-0.115798	0.833633
C197	C	0.050135	-0.173773	0.834397
H198	H	-0.024129	-0.117660	0.874723
H199	H	-0.018496	-0.105097	0.808329
H200	H	0.022031	-0.085307	0.817330
H201	H	0.031750	-0.204260	0.850692
H202	H	0.072272	-0.184479	0.859705
H203	H	0.699474	-0.756325	0.725922
H204	H	-0.084239	-0.606419	0.691217
H205	H	0.059391	-0.503396	0.940172
O206	O	0.102747	-0.007736	0.698190
C207	C	0.049440	-0.007753	0.751789
H208	H	0.006734	0.011797	0.738234
H209	H	0.054468	-0.057305	0.785563
C210	C	0.094555	0.008749	0.799674
C211	C	0.042103	0.032764	0.783025
H212	H	0.090031	0.033739	0.818944
H213	H	0.130471	0.008758	0.763564
H214	H	0.098740	-0.032545	0.827816
H215	H	0.037924	0.074054	0.754878
H216	H	0.006187	0.032763	0.819131
H217	H	0.212798	-0.639038	1.058038
H218	H	0.019945	-0.542665	0.675322
H219	H	0.252044	-0.599714	0.940097
O220	O	0.699339	-0.763051	0.538814
C221	C	0.699302	-0.740433	0.477771
H222	H	0.679707	-0.687534	0.461449
H223	H	0.748840	-0.756114	0.445618
C224	C	0.682878	-0.830973	0.496621
C225	C	0.658807	-0.766002	0.476576
H226	H	0.657901	-0.846747	0.495882
H227	H	0.682905	-0.846213	0.537746
H228	H	0.724159	-0.844032	0.469824
H229	H	0.617529	-0.752944	0.503377
H230	H	0.658771	-0.750761	0.435455
H231	H	0.214995	-0.007372	0.461496
H232	H	0.212545	-0.638970	0.578981
O233	O	0.052556	-0.497478	0.720493
C234	C	-0.008508	-0.488274	0.729730
H235	H	-0.008410	-0.495532	0.690535
H236	H	-0.027113	-0.522881	0.776042
C237	C	-0.050329	-0.412755	0.778345
C238	C	-0.050210	-0.421664	0.730203
H239	H	-0.076054	-0.371668	0.778640
H240	H	-0.009190	-0.418957	0.772124
H241	H	-0.065832	-0.441598	0.816934
H242	H	-0.034700	-0.392826	0.691615
H243	H	-0.091348	-0.415455	0.736417
H244	H	0.429307	-0.646943	0.702793
O245	O	0.261928	-0.602085	0.615703
C246	C	0.288884	-0.579819	0.550584
H247	H	0.258044	-0.573451	0.527846
H248	H	0.293697	-0.533352	0.535886
C249	C	0.391367	-0.634691	0.557951
C250	C	0.353491	-0.626874	0.530023
H251	H	0.431220	-0.663714	0.545267
H252	H	0.373206	-0.649690	0.601822
H253	H	0.395370	-0.595965	0.545700
H254	H	0.349481	-0.665598	0.542280
H255	H	0.371652	-0.611882	0.486153
O256	O	0.552283	-0.696228	0.664860
C257	C	0.536394	-0.716077	0.635655
H258	H	0.489181	-0.683106	0.630133
H259	H	0.572964	-0.716187	0.587975
C260	C	0.591402	-0.822645	0.682403
C261	C	0.533411	-0.782153	0.675626
H262	H	0.589564	-0.863404	0.707057
H263	H	0.602109	-0.809273	0.702077
H264	H	0.621871	-0.822729	0.642667
H265	H	0.502945	-0.782063	0.715361
H266	H	0.522698	-0.795526	0.655959
O267	O	0.424222	-0.446112	0.628461
C268	C	0.440070	-0.412569	0.564271
H269	H	0.487267	-0.440978	0.538665
H270	H	0.403468	-0.402867	0.546559
C271	C	0.385102	-0.315767	0.584117
C272	C	0.443073	-0.350657	0.552668
H273	H	0.386952	-0.277575	0.576960
H274	H	0.374423	-0.338365	0.627364
H275	H	0.354606	-0.307688	0.569354
H276	H	0.473565	-0.358742	0.567437
H277	H	0.453757	-0.328059	0.509424
O278	O	0.209502	-0.282835	0.563458
C279	C	0.218690	-0.240193	0.502402
H280	H	0.179486	-0.193852	0.502533
H281	H	0.264998	-0.233273	0.483761
C282	C	0.267280	-0.322479	0.460549
C283	C	0.219126	-0.265563	0.460710
H284	H	0.267552	-0.338128	0.434830
H285	H	0.261092	-0.351208	0.501684
H286	H	0.305865	-0.316704	0.445017
H287	H	0.180542	-0.271339	0.476249
H288	H	0.225307	-0.236835	0.419577
H289	H	0.164306	-0.159876	0.530897
H290	H	0.107441	-0.277854	0.762810
