data_functionalizedCrystal
_audit_creation_method	'MofGen! by Chris Wilmer'
_symmetry_space_group_name_H-M	'P1'
_symmetry_Int_Tables_number	1
_symmetry_cell_setting	triclinic
loop_
_symmetry_equiv_pos_as_xyz
  x,y,z
_cell_length_a	17.639617
_cell_length_b	29.839131
_cell_length_c	17.640968
_cell_angle_alpha	101.227248
_cell_angle_beta	109.666032
_cell_angle_gamma	101.226529
loop_
_atom_site_label
_atom_site_type_symbol
_atom_site_fract_x
_atom_site_fract_y
_atom_site_fract_z
Zn1	Zn	1.354424	0.059428	0.721254
Zn2	Zn	1.326395	-0.034760	0.583395
Zn3	Zn	1.188689	0.021352	0.555519
Zn4	Zn	1.216485	-0.034717	0.693278
O5	O	1.271498	0.002826	0.638361
O6	O	1.466064	0.062851	0.726342
O7	O	1.284765	-0.043270	0.464350
O8	O	1.210771	0.089286	0.577546
O9	O	1.445472	-0.006349	0.625057
O10	O	1.332536	0.117261	0.699311
O11	O	1.183593	-0.002045	0.443869
O12	O	1.077017	-0.002003	0.550418
O13	O	1.258145	-0.006275	0.812336
O14	O	1.097439	-0.043196	0.651629
O15	O	1.359488	0.062893	0.832891
O16	O	1.311718	-0.097638	0.597929
O17	O	1.230967	-0.097606	0.678659
C18	C	1.057317	-0.026727	0.594963
C19	C	0.965693	-0.039377	0.576417
C20	C	0.718009	0.098970	0.779461
C21	C	0.631911	0.087069	0.762017
C22	C	0.610459	0.015085	0.656397
C23	C	0.696557	0.026979	0.673835
C24	C	0.750326	0.068922	0.735367
C25	C	0.728874	-0.003069	0.629741
C26	C	0.814964	0.008825	0.647175
C27	C	0.868738	0.050767	0.708702
C28	C	0.836416	0.080816	0.752801
C29	C	0.675104	-0.045010	0.568206
C30	C	0.707421	-0.075058	0.524112
C31	C	0.793513	-0.063165	0.541549
C32	C	0.847286	-0.021224	0.603077
C33	C	0.825835	-0.093214	0.497451
C34	C	0.911925	-0.081320	0.514885
C35	C	0.933376	-0.009329	0.620510
C36	C	1.271343	-0.113921	0.638306
C37	C	1.271358	-0.163852	0.638325
C38	C	1.229484	-0.520413	0.680401
C39	C	1.229370	-0.332759	0.680353
O40	O	1.193585	-0.308499	0.716076
N41	N	1.271450	-0.309281	0.638367
C42	C	1.313566	-0.332719	0.596395
O43	O	1.349361	-0.308443	0.560689
C44	C	1.313684	-0.520372	0.596448
C45	C	1.271595	-0.543848	0.638430
C46	C	1.187399	-0.543889	0.722380
C47	C	1.187424	-0.590801	0.722388
C48	C	1.229535	-0.614236	0.680416
C49	C	1.271620	-0.590760	0.638437
C50	C	1.355805	-0.543808	0.554481
C51	C	1.355832	-0.590723	0.554500
C52	C	1.313743	-0.614200	0.596481
C53	C	1.313755	-0.661107	0.596474
N54	N	1.271676	-0.684584	0.638460
C55	C	1.229565	-0.661149	0.680431
C56	C	1.313499	-0.234199	0.596368
C57	C	1.313468	-0.187287	0.596353
C58	C	1.229274	-0.187329	0.680314
C59	C	1.229300	-0.234244	0.680323
C60	C	1.271419	-0.257677	0.638354
C61	C	1.229621	-0.759667	0.680444
C62	C	1.229647	-0.806584	0.680445
C63	C	1.313844	-0.806536	0.596489
C64	C	1.313815	-0.759625	0.596483
C65	C	1.271702	-0.736191	0.638467
O66	O	1.349530	-0.685393	0.560778
O67	O	1.193790	-0.685430	0.716147
C68	C	1.229459	-0.473501	0.680393
C69	C	1.271544	-0.450025	0.638414
C70	C	1.313655	-0.473460	0.596443
C71	C	1.271514	-0.403112	0.638399
C72	C	1.229403	-0.379677	0.680371
C73	C	1.187324	-0.403154	0.722357
C74	C	1.187349	-0.450066	0.722365
C75	C	1.355735	-0.449983	0.554457
C76	C	1.355705	-0.403071	0.554452
C77	C	1.313595	-0.379636	0.596423
C78	C	1.486515	0.032493	0.681930
C79	C	1.578143	0.045136	0.700496
C80	C	1.315044	0.032562	0.853358
C81	C	1.333600	0.045233	0.944976
C82	C	1.271680	0.120034	0.638440
C83	C	1.271757	0.169981	0.638473
C84	C	1.228169	-0.026755	0.424211
C85	C	1.209772	-0.039278	0.332625
C86	C	1.130842	-0.093151	1.192797
C87	C	1.148296	-0.081236	1.278890
C88	C	1.253816	-0.009218	1.300281
C89	C	1.236368	-0.021125	1.214188
C90	C	1.174881	-0.063093	1.160452
C91	C	1.280406	0.008933	1.181843
C92	C	1.262963	-0.002976	1.095757
C93	C	1.201480	-0.044942	1.042016
C94	C	1.157437	-0.075001	1.074366
C95	C	1.341898	0.050898	1.235580
C96	C	1.385936	0.080956	1.203235
C97	C	1.368488	0.069050	1.117148
C98	C	1.307006	0.027084	1.063407
C99	C	1.412532	0.099109	1.084798
C100	C	1.395088	0.087201	0.998712
C101	C	1.289562	0.015175	0.977321
H102	H	0.782043	-0.127362	0.447346
O103	O	1.358838	0.062549	1.319204
C104	C	1.362712	0.119785	1.438467
C105	C	1.343518	0.106655	1.343764
H106	H	1.350317	0.155440	1.458349
H107	H	1.431282	0.122535	1.474810
H108	H	1.320688	0.091078	1.452339
H109	H	1.385488	0.135347	1.329813
H110	H	1.274931	0.103889	1.307470
O111	O	1.188310	-0.257094	0.720974
C112	C	1.079296	-0.323975	0.709454
C113	C	1.125633	-0.298143	0.663304
H114	H	1.028624	-0.357174	0.662852
H115	H	1.049131	-0.299193	0.739419
H116	H	1.125878	-0.334698	0.760279
H117	H	1.079105	-0.287418	0.612443
H118	H	1.155813	-0.322941	0.633398
H119	H	1.436001	0.115125	1.246999
O120	O	0.591449	-0.056543	0.551138
C121	C	0.451903	-0.072954	0.447124
C122	C	0.546617	-0.059882	0.466341
H123	H	0.415628	-0.075668	0.378563
H124	H	0.437985	-0.044274	0.489157
H125	H	0.431974	-0.108634	0.459419
H126	H	0.566612	-0.024214	0.454040
H127	H	0.560483	-0.088591	0.424314
O128	O	1.472209	0.139865	1.137113
C129	C	1.545897	0.190111	1.279224
C130	C	1.478276	0.143946	1.220070
H131	H	1.550835	0.193420	1.346309
H132	H	1.528060	0.222027	1.259457
H133	H	1.608904	0.189045	1.275698
H134	H	1.415244	0.144965	1.223565
H135	H	1.496184	0.112050	1.239854
H136	H	1.430947	0.111678	0.972377
O137	O	0.770126	0.139739	0.839243
C138	C	0.782340	0.209868	0.942227
C139	C	0.723221	0.163722	0.874534
H140	H	0.744444	0.229267	0.970792
H141	H	0.815000	0.233773	0.912666
H142	H	0.831361	0.200708	0.993381
H143	H	0.674153	0.172838	0.823359
H144	H	0.690624	0.139830	0.904157
O145	O	0.943192	-0.110573	0.472007
C146	C	0.912832	-0.183222	0.365375
C147	C	0.877315	-0.150141	0.413887
H148	H	0.859585	-0.215215	0.318362
H149	H	0.960742	-0.195989	0.411265
H150	H	0.944464	-0.162928	0.330545
H151	H	0.845641	-0.170404	0.448720
H152	H	0.829446	-0.137372	0.367956
H153	H	1.153109	-0.524812	0.756562
H154	H	0.977159	0.024824	0.670619
H155	H	1.107348	-0.109167	1.030607
O156	O	1.105534	-0.110504	1.310230
C157	C	1.070784	-0.188808	1.328471
C158	C	1.119232	-0.155719	1.292918
H159	H	1.081855	-0.225368	1.314503
H160	H	1.000878	-0.192471	1.298070
H161	H	1.093799	-0.173067	1.399222
H162	H	1.096287	-0.171434	1.222171
H163	H	1.189129	-0.152057	1.323383
O164	O	1.354273	-0.164424	0.555574
C165	C	1.391595	-0.092129	0.518379
C166	C	1.345327	-0.117967	0.564574
H167	H	1.384393	-0.054561	0.525654
H168	H	1.363711	-0.112528	0.448965
H169	H	1.460991	-0.090162	0.546370
H170	H	1.275927	-0.119941	0.536653
H171	H	1.373278	-0.097559	0.633985
O172	O	1.354421	-0.256898	0.555519
C173	C	1.437961	-0.251885	0.472277
C174	C	1.391639	-0.226129	0.518492
H175	H	1.468078	-0.227015	0.442343
H176	H	1.391458	-0.285050	0.421439
H177	H	1.488693	-0.262649	0.518890
H178	H	1.340909	-0.215333	0.471943
H179	H	1.438193	-0.192984	0.569342
O180	O	0.952382	0.062261	0.725718
C181	C	1.080146	0.039136	0.771733
C182	C	0.985430	0.026067	0.752509
H183	H	1.106890	0.009876	0.793380
H184	H	1.113072	0.074258	0.823321
H185	H	1.090583	0.042937	0.712663
H186	H	0.974915	0.022240	0.811530
H187	H	0.952551	-0.009044	0.700888
O188	O	1.354625	-0.736888	0.555572
C189	C	1.366321	-0.736360	0.423514
C190	C	1.320040	-0.762160	0.469739
H191	H	1.338366	-0.756776	0.354107
H192	H	1.435728	-0.734381	0.451444
H193	H	1.359095	-0.698797	0.430767
H194	H	1.327199	-0.799734	0.462504
H195	H	1.250652	-0.764101	0.441799
H196	H	0.880198	0.114969	0.802909
H197	H	1.195371	-0.825696	0.714633
H198	H	1.153076	-0.469176	0.756552
H199	H	1.390135	-0.609799	0.520326
H200	H	0.605603	0.111543	0.797924
O201	O	0.655286	-0.115845	0.464404
C202	C	0.620693	-0.201448	0.418839
C203	C	0.679806	-0.155292	0.486507
H204	H	0.640484	-0.233354	0.436694
H205	H	0.624173	-0.200395	0.355814
H206	H	0.553612	-0.204766	0.413939
H207	H	0.746912	-0.151945	0.491483
H208	H	0.676252	-0.156365	0.549497
H209	H	1.153032	-0.384067	0.756528
H210	H	1.348126	-0.825627	0.562313
O211	O	1.396666	-0.380331	0.513655
C212	C	1.480149	-0.385260	0.430353
C213	C	1.433806	-0.411065	0.476526
H214	H	1.510174	-0.410100	0.400307
H215	H	1.530931	-0.352096	0.476932
H216	H	1.433593	-0.374489	0.379584
H217	H	1.480298	-0.421867	0.527293
H218	H	1.383011	-0.444208	0.429896
O219	O	1.146671	-0.613627	0.763245
C220	C	1.158076	-0.652693	0.872327
C221	C	1.204326	-0.626867	0.826106
H222	H	1.204672	-0.663396	0.923172
H223	H	1.107360	-0.685894	0.825785
H224	H	1.127957	-0.627875	0.902280
H225	H	1.234496	-0.651646	0.796151
H226	H	1.254997	-0.593660	0.872684
H227	H	1.303881	0.024951	1.344044
H228	H	0.566669	-0.019064	0.606295
H229	H	1.195330	-0.740592	0.714632
H230	H	1.194984	-0.168241	0.714487
H231	H	1.390078	-0.524699	0.520296
O232	O	1.396824	-0.472702	0.513865
C233	C	1.506041	-0.511693	0.525549
C234	C	1.459545	-0.485985	0.571603
H235	H	1.556750	-0.522448	0.572207
H236	H	1.536178	-0.486831	0.495617
H237	H	1.459568	-0.544864	0.474708
H238	H	1.505965	-0.452815	0.622481
H239	H	1.429394	-0.510879	0.601476
H240	H	1.239473	-0.018991	0.933562
H241	H	1.187282	-0.054638	0.971921
H242	H	1.080753	-0.127317	1.149038
