data_functionalizedCrystal
_audit_creation_method	'MofGen! by Chris Wilmer'
_symmetry_space_group_name_H-M	'P1'
_symmetry_Int_Tables_number	1
_symmetry_cell_setting	triclinic
loop_
_symmetry_equiv_pos_as_xyz
  x,y,z
_cell_length_a	18.050589
_cell_length_b	12.594517
_cell_length_c	18.050582
_cell_angle_alpha	89.992472
_cell_angle_beta	90.018205
_cell_angle_gamma	89.971023
loop_
_atom_site_label
_atom_site_type_symbol
_atom_site_fract_x
_atom_site_fract_y
_atom_site_fract_z
Zn1	Zn	-0.295692	-1.627113	0.419789
Zn2	Zn	-0.419875	-1.626985	0.295608
Zn3	Zn	-0.295705	-1.449136	0.295629
Zn4	Zn	-0.419846	-1.449061	0.419773
O5	O	-0.357779	-1.538074	0.357699
O6	O	-0.312171	-1.776042	0.403314
O7	O	-0.403421	-1.603370	0.191686
O8	O	-0.191779	-1.472829	0.312114
O9	O	-0.403408	-1.775948	0.312079
O10	O	-0.191769	-1.603588	0.403334
O11	O	-0.312194	-1.472705	0.191701
O12	O	-0.312166	-1.300180	0.312099
O13	O	-0.403359	-1.472702	0.523699
O14	O	-0.403372	-1.300125	0.403307
O15	O	-0.312143	-1.603516	0.523711
O16	O	-0.523796	-1.603298	0.312063
O17	O	-0.523774	-1.472578	0.403287
C18	C	-0.357768	-1.261533	0.357704
C19	C	-0.357781	-1.143227	0.357723
C20	C	-0.407479	-1.003212	0.407240
C21	C	-0.425543	-1.073987	0.339461
C22	C	-0.339749	-1.074023	0.425495
C23	C	-0.375907	-1.003217	0.289887
C24	C	-0.290081	-1.003247	0.375967
C25	C	-0.308119	-1.073991	0.308141
C26	C	-0.550732	-1.537945	0.357687
C27	C	-0.633277	-1.537987	0.357707
C28	C	-0.832743	-1.466972	0.407297
C29	C	-0.882178	-1.441034	0.339532
C30	C	-0.784408	-1.538092	0.357716
C31	C	-0.882055	-1.564082	0.425489
C32	C	-0.930393	-1.538191	0.357732
C33	C	-0.832755	-1.512103	0.289916
C34	C	-0.832628	-1.635197	0.375919
C35	C	-0.882040	-1.609295	0.308107
C36	C	-0.700309	-1.538032	0.357709
C37	C	-1.014489	-1.538251	0.357732
C38	C	-0.164074	-1.538232	0.357728
C39	C	-0.081528	-1.538299	0.357740
C40	C	-0.357746	-1.538115	0.551405
C41	C	-0.357732	-1.538133	0.633951
C42	C	-0.357794	-0.815694	0.357698
C43	C	-0.357807	-0.934000	0.357703
C44	C	-0.357759	-1.538093	0.164747
C45	C	-0.357563	-1.538282	0.082202
C46	C	-0.407268	-1.467051	0.833395
C47	C	-0.425420	-1.564158	0.882779
C48	C	-0.357676	-1.538186	0.785081
C49	C	-0.339503	-1.441131	0.882779
C50	C	-0.357622	-1.538228	0.931067
C51	C	-0.375864	-1.635344	0.833378
C52	C	-0.289915	-1.512251	0.833374
C53	C	-0.308041	-1.609426	0.882735
C54	C	-0.357708	-1.538160	0.700983
C55	C	-0.357590	-1.538264	1.015163
H56	H	-0.811097	-1.406740	0.449165
O57	O	-0.319529	-1.115221	0.501424
H58	H	-0.268320	-1.163723	0.497545
O59	O	-0.910739	-1.593159	0.501399
H60	H	-0.890995	-1.533953	0.542436
O61	O	-0.910538	-1.689019	0.252516
H62	H	-0.889804	-1.769301	0.267182
H63	H	-0.266080	-1.669670	0.904263
H64	H	-0.810849	-1.717250	0.391333
O65	O	-0.501292	-1.593242	0.911538
H66	H	-0.516712	-1.673250	0.890897
H67	H	-0.449261	-1.406951	0.811731
H68	H	-0.391278	-1.717463	0.811769
H69	H	-0.232650	-1.490262	0.811656
O70	O	-0.214249	-0.962054	0.396448
H71	H	-0.214831	-0.873935	0.395719
O72	O	-0.501394	-1.115151	0.319001
H73	H	-0.497334	-1.163616	0.267809
H74	H	-0.903958	-1.358962	0.324150
H75	H	-0.811189	-1.490065	0.232591
H76	H	-0.449528	-0.972135	0.449071
O77	O	-0.396210	-0.962206	0.213932
H78	H	-0.447152	-0.913140	0.217892
O79	O	-0.252465	-1.114920	0.252604
H80	H	-0.267621	-1.086411	0.196417
O81	O	-0.319158	-1.332391	0.911519
H82	H	-0.360426	-1.273479	0.891748
