data_functionalizedCrystal
_audit_creation_method	'MofGen! by Chris Wilmer'
_symmetry_space_group_name_H-M	'P1'
_symmetry_Int_Tables_number	1
_symmetry_cell_setting	triclinic
loop_
_symmetry_equiv_pos_as_xyz
  x,y,z
_cell_length_a	23.532361
_cell_length_b	23.532357
_cell_length_c	16.053802
_cell_angle_alpha	92.543277
_cell_angle_beta	87.439726
_cell_angle_gamma	82.828980
loop_
_atom_site_label
_atom_site_type_symbol
_atom_site_fract_x
_atom_site_fract_y
_atom_site_fract_z
O1	O	0.757678	0.066601	-0.069355
O2	O	0.591810	0.076631	-0.069376
O3	O	0.679760	-0.011318	-0.069348
O4	O	0.669728	0.154550	-0.069383
O5	O	0.674919	-0.006497	0.069510
O6	O	0.586969	0.081452	0.069481
O7	O	0.752838	0.071422	0.069502
Zn8	Zn	0.669135	0.077203	0.091538
Zn9	Zn	0.675513	0.070851	-0.091412
O10	O	0.664887	0.159371	0.069474
C11	C	0.568173	0.078791	0.000050
C12	C	0.504955	0.078035	0.000042
C13	C	0.234351	0.072104	-0.075643
C14	C	0.293750	0.072819	-0.075645
O15	O	0.326720	0.070934	-0.140016
N16	N	0.320817	0.075808	0.000046
C17	C	0.288482	0.078076	0.075745
O18	O	0.316959	0.080684	0.140126
C19	C	0.229084	0.077357	0.075746
C20	C	0.202020	0.074374	0.000050
C21	C	0.207286	0.069120	-0.151333
C22	C	0.147890	0.068406	-0.151331
C23	C	0.115559	0.070676	-0.075638
C24	C	0.142624	0.073660	0.000052
C25	C	0.196750	0.079622	0.151444
C26	C	0.137348	0.078902	0.151439
C27	C	0.110284	0.075919	0.075742
C28	C	0.050897	0.075217	0.075747
N29	N	0.023830	0.072227	0.000056
C30	C	0.056161	0.069957	-0.075637
C31	C	0.413222	0.079585	0.075736
C32	C	0.472618	0.080308	0.075736
C33	C	0.477883	0.075049	-0.075655
C34	C	0.418485	0.074330	-0.075653
C35	C	0.386155	0.076596	0.000045
C36	C	-0.068574	0.068459	-0.075626
C37	C	-0.127976	0.067748	-0.075616
C38	C	-0.133235	0.073004	0.075773
C39	C	-0.073839	0.073718	0.075765
C40	C	-0.041510	0.071443	0.000058
O41	O	0.017891	0.077098	0.140086
O42	O	0.027678	0.067342	-0.140007
C43	C	0.677089	-0.030124	0.000083
C44	C	0.676334	-0.093342	0.000091
C45	C	0.674238	-0.487982	-0.075646
C46	C	0.673520	-0.547381	-0.075650
O47	O	0.675374	-0.580333	-0.140023
N48	N	0.670526	-0.574465	0.000040
C49	C	0.668243	-0.542144	0.075739
O50	O	0.665629	-0.570635	0.140119
C51	C	0.668956	-0.482745	0.075743
C52	C	0.671956	-0.455666	0.000048
C53	C	0.677237	-0.460902	-0.151334
C54	C	0.677955	-0.401507	-0.151329
C55	C	0.675674	-0.369191	-0.075635
C56	C	0.672674	-0.396271	0.000054
C57	C	0.666668	-0.450426	0.151442
C58	C	0.667381	-0.391023	0.151440
C59	C	0.670382	-0.363944	0.075745
C60	C	0.671111	-0.304560	0.075753
N61	N	0.674105	-0.277477	0.000063
C62	C	0.676387	-0.309793	-0.075631
C63	C	0.666745	-0.666886	0.075725
C64	C	0.666036	-0.726284	0.075722
C65	C	0.671312	-0.731517	-0.075668
C66	C	0.672025	-0.672118	-0.075664
C67	C	0.669739	-0.639803	0.000035
C68	C	0.677895	-0.185058	-0.075615
C69	C	0.678615	-0.125658	-0.075603
C70	C	0.673336	-0.120429	0.075787
C71	C	0.672618	-0.179825	0.075776
C72	C	0.674897	-0.212138	0.000068
O73	O	0.669256	-0.271572	0.140092
O74	O	0.678992	-0.281293	-0.140000
C75	C	0.776474	0.069263	0.000074
C76	C	0.839693	0.070018	0.000076
C77	C	0.667559	0.178177	0.000041
C78	C	0.668314	0.241395	0.000028
N79	N	0.664786	0.081537	0.216397
N80	N	0.679866	0.066511	-0.216271
C81	C	0.702223	0.044128	0.260103
C82	C	0.699186	0.047166	0.347509
C83	C	0.658715	0.087616	0.391207
C84	C	0.621275	0.125027	0.347495
C85	C	0.624309	0.121986	0.260091
C86	C	0.645460	0.100882	0.652613
C87	C	0.642430	0.103921	0.740023
C88	C	0.720341	0.026059	0.740031
C89	C	0.723374	0.023024	0.652625
C90	C	0.685931	0.060433	0.608920
N91	N	0.655611	0.090723	0.480550
N92	N	0.689033	0.057323	0.519579
H93	H	0.218776	0.082050	0.213084
H94	H	0.674468	-0.650075	-0.137302
H95	H	0.588320	0.157960	0.383079
F96	F	-0.034175	0.066038	-0.156201
F97	F	0.745300	0.001078	0.213605
H98	H	0.680396	-0.379465	-0.212968
H99	H	0.233605	0.067269	-0.212975
F100	F	0.663473	-0.479232	0.232009
F101	F	0.584462	0.161801	0.213577
H102	H	0.670181	-0.201875	0.137413
H103	H	0.111028	0.080752	0.213082
H104	H	0.664884	-0.640578	0.137373
H105	H	0.609472	0.136862	0.775598
F106	F	0.739029	0.007350	0.394025
F107	F	0.389687	0.071154	-0.156219
F108	F	0.680320	-0.219440	-0.156191
F109	F	0.664947	-0.356633	0.232012
H110	H	0.756328	-0.009914	0.617048
F111	F	0.760185	-0.013753	0.786550
H112	H	0.494648	0.082747	0.137375
F113	F	0.670909	-0.086027	0.156342
H114	H	-0.051804	0.076159	0.137403
F115	F	0.378818	0.082003	0.156310
F116	F	-0.156777	0.064574	-0.156186
H117	H	-0.159570	0.074854	0.137400
H118	H	0.614974	0.131343	0.617035
H119	H	0.504218	0.073200	-0.137288
F120	F	0.119095	0.065227	-0.231898
F121	F	0.681811	-0.096842	-0.156171
F122	F	0.679665	-0.495287	-0.231906
H123	H	0.673168	-0.757840	-0.137302
H124	H	0.663601	-0.748328	0.137361
