data_functionalizedCrystal
_audit_creation_method	'MofGen! by Chris Wilmer'
_symmetry_space_group_name_H-M	'P1'
_symmetry_Int_Tables_number	1
_symmetry_cell_setting	triclinic
loop_
_symmetry_equiv_pos_as_xyz
  x,y,z
_cell_length_a	21.883469
_cell_length_b	21.882911
_cell_length_c	21.879399
_cell_angle_alpha	60.006540
_cell_angle_beta	60.013207
_cell_angle_gamma	59.992231
loop_
_atom_site_label
_atom_site_type_symbol
_atom_site_fract_x
_atom_site_fract_y
_atom_site_fract_z
O1	O	0.084645	-0.892842	0.746620
O2	O	0.031867	-0.695139	0.601571
O3	O	0.157054	-0.820237	0.601476
O4	O	-0.040542	-0.767744	0.746716
O5	O	0.198586	-0.778715	0.642912
O6	O	0.073399	-0.653617	0.643007
O7	O	0.126177	-0.851320	0.788056
Cu8	Cu	0.103580	-0.748677	0.719315
Cu9	Cu	0.054464	-0.797782	0.670313
O10	O	0.000990	-0.726222	0.788151
N11	N	0.138128	-0.714145	0.753785
N12	N	0.019923	-0.832320	0.635843
C13	C	0.190018	-0.547369	0.805644
C14	C	0.190029	-0.662289	0.805630
C15	C	0.218780	-0.633565	0.834353
C16	C	0.344122	-0.611968	0.768360
C17	C	0.422474	-0.638085	0.742222
C18	C	0.422504	-0.764859	0.790561
C19	C	0.344154	-0.738739	0.816702
C20	C	0.208899	-0.508180	0.728617
C21	C	0.182748	-0.429822	0.702522
C22	C	0.118843	-0.429847	0.830485
C23	C	0.144993	-0.508205	0.856580
C24	C	0.112994	-0.643364	0.824587
C25	C	0.086865	-0.669476	0.798467
C26	C	0.214799	-0.733437	0.734451
C27	C	0.240932	-0.707325	0.760562
C28	C	0.113084	-0.643389	0.959747
C29	C	0.087018	-0.669524	1.038102
C30	C	0.214996	-0.733501	1.038048
C31	C	0.241061	-0.707367	0.959690
C32	C	0.190103	-0.662308	0.920542
C33	C	0.304966	-0.662293	0.805598
C34	C	-0.117460	-0.854702	0.612901
C35	C	-0.002405	-0.854864	0.498145
C36	C	-0.002621	-0.969735	0.613108
C37	C	-0.002603	-0.854858	0.613180
C38	C	-0.031272	-0.883541	0.584334
N39	N	0.460550	-0.714150	0.753681
O40	O	0.699805	-0.721060	0.574973
O41	O	0.700047	-0.866553	0.772482
O42	O	0.699952	-0.866219	0.647213
O43	O	0.699900	-0.721394	0.700242
O44	O	0.575478	-0.824800	0.688791
O45	O	0.575573	-0.825134	0.814060
O46	O	0.575331	-0.679641	0.616551
Cu47	Cu	0.564087	-0.748606	0.719102
Cu48	Cu	0.711292	-0.797588	0.669931
O49	O	0.575426	-0.679975	0.741820
N50	N	0.814828	-0.832044	0.635345
N51	N	0.138106	-0.391772	0.753815
O52	O	-0.040520	-0.152377	0.746758
O53	O	0.156993	-0.152371	0.601281
O54	O	0.031698	-0.152390	0.601639
O55	O	0.084775	-0.152358	0.746401
O56	O	0.073234	-0.276876	0.643130
O57	O	0.198529	-0.276856	0.642772
O58	O	0.001015	-0.276863	0.788249
Cu59	Cu	0.103564	-0.288226	0.719299
Cu60	Cu	0.054444	-0.141007	0.670231
O61	O	0.126310	-0.276844	0.787892
N62	N	0.019892	-0.037461	0.635717
N63	N	0.138332	-0.714192	1.076133
O64	O	0.131293	-0.892804	1.315506
O65	O	-0.014162	-0.695219	1.315533
O66	O	-0.013826	-0.820490	1.315480
O67	O	0.130957	-0.767533	1.315559
O68	O	0.027651	-0.778981	1.191001
O69	O	0.027314	-0.653710	1.191054
O70	O	0.172770	-0.851295	1.191026
Cu71	Cu	0.103829	-0.748713	1.179674
Cu72	Cu	0.054778	-0.797802	1.326885
O73	O	0.172434	-0.726024	1.191079
N74	N	0.020275	-0.832331	1.430426
C75	C	0.047687	-0.649466	0.602306
C76	C	0.202716	-0.804385	0.602188
C77	C	0.110357	-0.896993	0.787321
C78	C	-0.044672	-0.742074	0.787439
C79	C	0.637839	-0.865879	0.818154
C80	C	0.637724	-0.865466	0.663023
C81	C	0.637536	-0.680313	0.570880
C82	C	0.637655	-0.680728	0.726010
C83	C	0.202592	-0.214459	0.601942
C84	C	0.047481	-0.214636	0.602435
C85	C	-0.044635	-0.214620	0.787537
C86	C	0.110528	-0.214598	0.787096
C87	C	-0.013455	-0.649572	1.253296
C88	C	-0.013030	-0.804697	1.253206
C89	C	0.172063	-0.896942	1.253263
C90	C	0.171648	-0.741808	1.253325
H91	H	0.071582	-0.606692	0.927876
O92	O	-0.112313	-0.728789	0.841947
C93	C	-0.102477	-0.737156	0.905000
H94	H	-0.042778	-0.774604	0.904234
H95	H	-0.113164	-0.679926	0.903590
C96	C	-0.231261	-0.727027	0.977754
C97	C	-0.157940	-0.773026	0.976817
H98	H	-0.265476	-0.749150	1.022055
H99	H	-0.237890	-0.721387	0.935273
H100	H	-0.240157	-0.679338	0.976576
H101	H	-0.149043	-0.820710	0.977985
H102	H	-0.151311	-0.778675	1.019300
O103	O	0.637476	-0.625907	0.503161
C104	C	0.637434	-0.652847	0.456588
H105	H	0.661061	-0.716603	0.476826
H106	H	0.577702	-0.633858	0.458657
C107	C	0.657142	-0.543496	0.350727
C108	C	0.686167	-0.621802	0.375579
H109	H	0.687199	-0.524344	0.300755
H110	H	0.657167	-0.525344	0.382104
H111	H	0.607366	-0.527681	0.352457
H112	H	0.735938	-0.637615	0.373857
H113	H	0.686151	-0.639956	0.344200
H114	H	-0.058496	-0.816008	1.253133
O115	O	0.033915	-0.214519	0.548117
C116	C	0.042211	-0.150062	0.484987
H117	H	0.034113	-0.104988	0.502883
H118	H	0.100639	-0.164641	0.442573
C119	C	-0.006769	-0.176208	0.427165
C120	C	-0.016721	-0.120845	0.449147
H121	H	-0.043118	-0.158186	0.405055
H122	H	-0.012356	-0.219635	0.469695
H123	H	0.041923	-0.188352	0.391824
H124	H	-0.065408	-0.108709	0.484494
H125	H	-0.011143	-0.077414	0.406622
H126	H	0.637644	-0.635235	0.737357
H127	H	0.121632	-0.953785	0.832877
H128	H	0.024137	-0.654049	0.813885
H129	H	0.259468	-0.815577	0.556577
O130	O	-0.112361	-0.214574	0.841929
C131	C	-0.158954	-0.214599	0.815005
H132	H	-0.138703	-0.191050	0.751249
H133	H	-0.156932	-0.274321	0.834047
C134	C	-0.264810	-0.194688	0.924298
C135	C	-0.239941	-0.165757	0.845993
H136	H	-0.314767	-0.164563	0.943415
H137	H	-0.233419	-0.194674	0.942439
H138	H	-0.263119	-0.244455	0.940157
H139	H	-0.241623	-0.115995	0.830135
H140	H	-0.271333	-0.165762	0.827849
O141	O	0.270151	-0.214008	0.547386
C142	C	0.316707	-0.213874	0.574274
H143	H	0.280707	-0.190549	0.622493
H144	H	0.354787	-0.273516	0.594793
C145	C	0.408965	-0.193313	0.451567
C146	C	0.364750	-0.164660	0.510787
H147	H	0.438603	-0.162959	0.412405
H148	H	0.377601	-0.193406	0.433451
H149	H	0.440693	-0.243015	0.468676
H150	H	0.333017	-0.114963	0.493679
H151	H	0.396109	-0.164557	0.528898
O152	O	0.124218	-0.214635	0.841287
C153	C	0.197784	-0.214615	0.814011
H154	H	0.233173	-0.238174	0.765959
H155	H	0.196671	-0.154893	0.793140
C156	C	0.188374	-0.234505	0.936338
C157	C	0.231841	-0.263448	0.877323
H158	H	0.209382	-0.264625	0.975392
H159	H	0.138810	-0.234516	0.954714
H160	H	0.187451	-0.184738	0.918936
H161	H	0.232756	-0.313211	0.894724
H162	H	0.281406	-0.263446	0.858951
O163	O	-0.067867	-0.581845	1.253337
C164	C	-0.040921	-0.535270	1.253347
H165	H	0.007126	-0.571270	1.276922
H166	H	-0.020146	-0.497471	1.193635
C167	C	-0.163468	-0.442610	1.273216
C168	C	-0.104459	-0.486826	1.302178
H169	H	-0.202661	-0.412724	1.303334
H170	H	-0.181622	-0.473987	1.273207
H171	H	-0.146145	-0.411117	1.223457
H172	H	-0.121780	-0.518324	1.351932
H173	H	-0.086309	-0.455453	1.302197
O174	O	0.226454	-0.964690	1.253284
C175	C	0.199523	-1.011250	1.253231
H176	H	0.135771	-0.990970	1.276791
H177	H	0.218542	-1.009216	1.193502
C178	C	0.308831	-1.117161	1.273095
C179	C	0.230531	-1.092257	1.302038
H180	H	0.327961	-1.167131	1.303198
H181	H	0.326977	-1.085793	1.273128
H182	H	0.324670	-1.115460	1.223321
H183	H	0.214693	-1.093950	1.351806
H184	H	0.212383	-1.123628	1.302014
O185	O	0.225844	-0.728163	1.253309
C186	C	0.198577	-0.654593	1.253347
H187	H	0.150526	-0.619169	1.229777
H188	H	0.177709	-0.655697	1.313072
C189	C	0.320904	-0.664096	1.233496
C190	C	0.261892	-0.620586	1.204541
H191	H	0.359959	-0.643119	1.203393
H192	H	0.339274	-0.713663	1.233473
H193	H	0.303504	-0.665013	1.283267
H194	H	0.279289	-0.619677	1.154775
H195	H	0.243525	-0.571018	1.204554
H196	H	0.454353	-0.597104	0.711898
O197	O	0.034162	-0.581750	0.547933
C198	C	-0.026449	-0.568381	0.530717
H199	H	-0.032400	-0.623975	0.547226
H200	H	-0.080101	-0.532333	0.562925
C201	C	-0.004836	-0.459091	0.425824
C202	C	-0.012141	-0.527374	0.446095
H203	H	0.003988	-0.433793	0.373626
H204	H	0.035998	-0.468096	0.437424
H205	H	-0.049548	-0.429060	0.452671
H206	H	0.032574	-0.557406	0.419256
H207	H	-0.052967	-0.518373	0.434488
O208	O	0.638051	-0.920394	0.885793
C209	C	0.702529	-0.937729	0.899199
H210	H	0.747540	-0.921131	0.843632
H211	H	0.687957	-0.905670	0.935381
C212	C	0.676558	-1.042780	1.008281
C213	C	0.731844	-1.022399	0.940031
H214	H	0.694640	-1.095008	1.033470
H215	H	0.633116	-1.031099	0.999251
H216	H	0.664420	-1.016057	1.038423
H217	H	0.743974	-1.049114	0.909887
H218	H	0.775288	-1.034086	0.949057
H219	H	0.024299	-0.654107	1.070013
O220	O	0.637613	-0.919678	0.649499
C221	C	0.573124	-0.893918	0.631905
H222	H	0.528054	-0.847460	0.656092
H223	H	0.587638	-0.871323	0.568524
C224	C	0.599310	-1.016117	0.635928
C225	C	0.543952	-0.959061	0.665639
H226	H	0.581317	-1.056300	0.656733
H227	H	0.642760	-1.033472	0.647779
H228	H	0.611400	-0.997279	0.583111
H229	H	0.531870	-0.977897	0.718454
H230	H	0.500500	-0.941710	0.653799
O231	O	0.264600	-0.777276	1.075955
C232	C	0.338167	-0.788347	1.024545
H233	H	0.337989	-0.779587	0.968699
H234	H	0.360603	-0.746635	1.016206
C235	C	0.388682	-0.879379	1.123681
C236	C	0.388463	-0.868626	1.055092
H237	H	0.419708	-0.928897	1.142525
H238	H	0.339118	-0.871919	1.158318
H239	H	0.407376	-0.844614	1.116723
H240	H	0.369761	-0.903384	1.062053
H241	H	0.438025	-0.876094	1.020458
H242	H	0.303780	-0.722782	0.927774
H243	H	0.256252	-0.770113	0.697763
O244	O	0.063517	-0.599507	0.868249
C245	C	0.018170	-0.533792	0.828714
H246	H	0.048392	-0.522886	0.766023
H247	H	-0.036876	-0.540910	0.845408
C248	C	-0.034953	-0.480521	0.924663
C249	C	0.002170	-0.467122	0.847664
H250	H	-0.044826	-0.439396	0.936354
H251	H	-0.004404	-0.524795	0.951300
H252	H	-0.080820	-0.486454	0.938565
H253	H	0.048040	-0.461199	0.833766
H254	H	-0.028372	-0.422846	0.821025
O255	O	0.315788	-0.725781	0.742088
C256	C	0.355115	-0.771103	0.696683
H257	H	0.317763	-0.799612	0.706703
H258	H	0.371938	-0.734929	0.635315
C259	C	0.471680	-0.795951	0.704142
C260	C	0.425806	-0.830971	0.716453
H261	H	0.515287	-0.832878	0.716333
H262	H	0.445185	-0.765414	0.734730
H263	H	0.485691	-0.765806	0.653002
H264	H	0.411788	-0.861106	0.767593
H265	H	0.452300	-0.861514	0.685874
H266	H	0.312274	-0.779724	0.847024
H267	H	0.312222	-0.549720	0.759316
O268	O	0.460657	-0.839116	0.801384
C269	C	0.506000	-0.866277	0.843997
H270	H	0.517736	-0.817909	0.837858
H271	H	0.475835	-0.893270	0.905401
C272	C	0.566009	-0.984227	0.823433
C273	C	0.580428	-0.924821	0.815887
H274	H	0.611918	-1.020342	0.806096
H275	H	0.535459	-0.965930	0.794726
H276	H	0.540870	-1.006713	0.874604
H277	H	0.605558	-0.902331	0.764716
H278	H	0.610984	-0.943116	0.844585
O279	O	0.252596	-0.546109	0.679040
C280	C	0.263659	-0.494714	0.605456
H281	H	0.216409	-0.438862	0.605619
H282	H	0.319471	-0.486376	0.582985
C283	C	0.322211	-0.593883	0.555010
C284	C	0.264174	-0.525286	0.555209
H285	H	0.322532	-0.612742	0.524014
H286	H	0.314760	-0.628510	0.604584
H287	H	0.368714	-0.586925	0.536286
H288	H	0.217672	-0.532247	0.573941
H289	H	0.271617	-0.490662	0.505636
H290	H	0.082193	-0.397958	0.871963
O291	O	0.201118	-0.391667	0.627711
C292	C	0.240568	-0.346356	0.608769
H293	H	0.226461	-0.334629	0.660406
H294	H	0.303276	-0.376548	0.587242
C295	C	0.235334	-0.286318	0.483984
C296	C	0.218002	-0.271910	0.547404
H297	H	0.221418	-0.240398	0.446129
H298	H	0.208758	-0.316847	0.496744
H299	H	0.287591	-0.311481	0.466054
H300	H	0.165745	-0.246757	0.565338
H301	H	0.244568	-0.241375	0.534646
O302	O	0.126612	-0.546163	0.931434
C303	C	0.081246	-0.494793	0.970795
H304	H	0.091218	-0.438931	0.933432
H305	H	0.019875	-0.486465	0.987704
C306	C	0.088877	-0.593998	1.087308
C307	C	0.101129	-0.525390	1.041421
H308	H	0.101139	-0.612872	1.130875
H309	H	0.119439	-0.628607	1.060790
H310	H	0.037735	-0.587049	1.101391
H311	H	0.152273	-0.532341	1.027330
H312	H	0.070577	-0.490782	1.067938
