data_functionalizedCrystal
_audit_creation_method	'MofGen! by Chris Wilmer'
_symmetry_space_group_name_H-M	'P1'
_symmetry_Int_Tables_number	1
_symmetry_cell_setting	triclinic
loop_
_symmetry_equiv_pos_as_xyz
  x,y,z
_cell_length_a	17.077404
_cell_length_b	29.839131
_cell_length_c	17.077396
_cell_angle_alpha	89.968087
_cell_angle_beta	89.981638
_cell_angle_gamma	90.039390
loop_
_atom_site_label
_atom_site_type_symbol
_atom_site_fract_x
_atom_site_fract_y
_atom_site_fract_z
Zn1	Zn	1.199953	-0.178878	-0.443800
Zn2	Zn	1.199818	-0.254008	-0.312526
Zn3	Zn	1.068685	-0.178890	-0.312551
Zn4	Zn	1.068611	-0.253979	-0.443752
O5	O	1.134267	-0.216439	-0.378157
O6	O	1.309782	-0.188851	-0.426396
O7	O	1.182398	-0.244062	-0.202682
O8	O	1.086186	-0.116022	-0.329991
O9	O	1.309683	-0.244049	-0.329950
O10	O	1.182628	-0.116012	-0.426420
O11	O	1.086055	-0.188873	-0.202700
O12	O	0.958829	-0.188844	-0.329945
O13	O	1.086059	-0.243999	-0.553606
O14	O	0.958774	-0.244011	-0.426338
O15	O	1.182556	-0.188822	-0.553641
O16	O	1.182325	-0.316872	-0.329903
O17	O	1.085928	-0.316850	-0.426315
C18	C	0.930319	-0.216426	-0.378140
C19	C	0.843069	-0.216431	-0.378151
C20	C	0.802132	-0.187741	-0.428447
C21	C	0.720151	-0.187744	-0.428451
C22	C	0.679110	-0.216440	-0.378161
C23	C	0.720053	-0.245132	-0.327860
C24	C	0.802032	-0.245126	-0.327853
C25	C	0.549183	-0.245142	-0.327879
C26	C	0.467199	-0.245148	-0.327887
C27	C	0.467302	-0.187759	-0.428477
C28	C	0.549281	-0.187754	-0.428470
C29	C	0.590219	-0.216447	-0.378169
C30	C	1.134125	-0.333161	-0.378118
C31	C	1.134136	-0.383096	-0.378128
C32	C	1.184552	-0.692738	-0.328029
C33	C	1.184649	-0.880411	-0.328060
O34	O	1.227402	-0.904675	-0.285434
N35	N	1.134430	-0.903881	-0.378217
C36	C	1.084186	-0.880430	-0.428373
O37	O	1.041479	-0.904699	-0.471041
C38	C	1.084094	-0.692757	-0.428346
C39	C	1.134311	-0.669290	-0.378180
C40	C	1.234766	-0.669270	-0.277868
C41	C	1.234738	-0.622355	-0.277858
C42	C	1.184497	-0.598907	-0.328009
C43	C	1.134283	-0.622375	-0.378170
C44	C	1.033855	-0.669307	-0.478506
C45	C	1.033837	-0.622386	-0.478496
C46	C	1.084054	-0.598919	-0.428330
C47	C	1.084014	-0.552011	-0.428311
N48	N	1.134233	-0.528541	-0.378154
C49	C	1.184475	-0.551989	-0.328003
C50	C	1.084237	-0.978960	-0.428382
C51	C	1.084259	-1.025878	-0.428388
C52	C	1.184723	-1.025856	-0.328076
C53	C	1.184697	-0.978937	-0.328067
C54	C	1.134456	-0.955490	-0.378226
C55	C	1.184412	-0.453463	-0.327985
C56	C	1.184378	-0.406544	-0.327977
C57	C	1.083917	-0.406570	-0.428292
C58	C	1.083948	-0.453485	-0.428297
C59	C	1.134202	-0.476931	-0.378141
O60	O	1.041289	-0.527719	-0.470920
O61	O	1.227188	-0.527712	-0.285354
C62	C	1.184580	-0.739653	-0.328039
C63	C	1.134366	-0.763121	-0.378200
C64	C	1.084125	-0.739673	-0.428351
C65	C	1.134388	-0.810039	-0.378206
C66	C	1.184630	-0.833487	-0.328056
C67	C	1.234849	-0.810017	-0.277899
C68	C	1.234822	-0.763101	-0.277889
C69	C	1.033905	-0.763143	-0.478508
C70	C	1.033937	-0.810058	-0.478513
C71	C	1.084178	-0.833506	-0.428363
C72	C	1.339011	-0.216452	-0.378175
C73	C	1.426261	-0.216458	-0.378183
C74	C	1.134314	-0.216406	-0.582902
C75	C	1.134335	-0.216392	-0.670152
C76	C	1.134431	-0.099260	-0.378214
C77	C	1.134500	-0.049326	-0.378238
C78	C	1.184582	-0.187659	-0.711161
C79	C	1.184592	-0.187644	-0.793142
C80	C	1.134357	-0.216364	-0.834111
C81	C	1.084104	-0.245098	-0.793096
C82	C	1.084091	-0.245111	-0.711117
C83	C	1.084135	-0.245071	-0.963966
C84	C	1.084149	-0.245060	-1.045950
C85	C	1.184636	-0.187605	-1.045991
C86	C	1.184624	-0.187617	-0.964012
C87	C	1.134371	-0.216352	-0.923002
C88	C	1.134265	-0.216439	-0.174209
C89	C	1.134397	-0.216327	-0.086960
H90	H	0.433967	-0.164396	-0.469433
Br91	Br	1.016093	-1.057721	-0.496461
H92	H	1.275713	-0.743997	-0.237039
Br93	Br	1.015738	-0.374739	-0.496354
H94	H	0.433785	-0.268515	-0.286938
Br95	Br	0.965653	-0.590568	-0.546576
Br96	Br	1.015932	-0.284067	-0.908310
H97	H	0.582512	-0.268505	-0.286917
Br98	Br	1.015890	-0.284104	-0.655459
H99	H	0.835542	-0.164374	-0.469401
H100	H	1.043323	-0.959873	-0.469229
Br101	Br	0.664355	-0.284073	-0.259602
H102	H	1.275756	-0.829116	-0.237062
Br103	Br	0.857592	-0.284064	-0.259589
H104	H	1.225552	-0.164207	-1.079385
H105	H	1.043199	-0.268481	-0.826459
H106	H	1.225336	-0.472547	-0.287145
Br107	Br	0.664596	-0.148805	-0.496714
Br108	Br	0.965776	-0.841901	-0.546600
H109	H	0.582695	-0.164390	-0.469425
Br110	Br	1.015965	-0.284033	-1.101552
H111	H	0.992994	-0.744055	-0.519348
Br112	Br	1.252533	-0.374698	-0.259889
H113	H	0.992958	-0.688406	-0.519352
H114	H	1.225588	-0.959833	-0.287218
Br115	Br	1.302905	-0.590513	-0.209784
H116	H	1.275683	-0.688357	-0.237029
Br117	Br	1.252905	-1.057687	-0.260012
H118	H	1.043059	-0.472594	-0.469149
H119	H	1.225511	-0.164248	-0.826528
Br120	Br	1.252768	-0.148682	-0.655568
H121	H	1.225534	-0.164233	-0.930657
