data_functionalizedCrystal
_audit_creation_method	'MofGen! by Chris Wilmer'
_symmetry_space_group_name_H-M	'P1'
_symmetry_Int_Tables_number	1
_symmetry_cell_setting	triclinic
loop_
_symmetry_equiv_pos_as_xyz
  x,y,z
_cell_length_a	17.699097
_cell_length_b	10.540539
_cell_length_c	16.776229
_cell_angle_alpha	90.001499
_cell_angle_beta	89.989277
_cell_angle_gamma	83.906961
loop_
_atom_site_label
_atom_site_type_symbol
_atom_site_fract_x
_atom_site_fract_y
_atom_site_fract_z
O1	O	1.005117	0.160589	-0.066351
O2	O	0.784876	0.181456	-0.066337
O3	O	0.900021	-0.013775	-0.066343
O4	O	0.889972	0.355821	-0.066345
O5	O	0.900004	-0.013765	0.066233
O6	O	0.784859	0.181466	0.066239
O7	O	1.005100	0.160600	0.066226
Zn8	Zn	0.894977	0.171035	0.087282
Zn9	Zn	0.894999	0.171021	-0.087393
O10	O	0.889955	0.355831	0.066232
C11	C	0.756666	0.180710	-0.000047
C12	C	0.672633	0.178459	-0.000042
C13	C	0.899259	-0.061059	-0.000057
C14	C	0.897004	-0.201966	-0.000061
C15	C	0.156835	0.164652	-0.072342
C16	C	0.235792	0.166759	-0.072338
C17	C	0.275256	0.167820	-0.000067
C18	C	0.235759	0.166761	0.072204
C19	C	0.156803	0.164645	0.072199
C20	C	0.554178	0.175293	0.072225
C21	C	0.633139	0.177413	0.072224
C22	C	0.633168	0.177407	-0.072312
C23	C	0.554212	0.175291	-0.072317
C24	C	0.514722	0.174225	-0.000046
C25	C	0.429107	0.171938	-0.000051
C26	C	0.360869	0.170116	-0.000061
C27	C	0.810606	-0.383820	-0.000353
C28	C	0.812891	-0.237243	-0.000055
C29	C	0.937473	-0.264355	0.075645
C30	C	0.934603	-0.410848	0.075709
C31	C	0.936333	-0.411409	-0.075056
C32	C	0.937108	-0.264441	-0.076057
C33	C	1.033310	0.161345	-0.000066
C34	C	1.117342	0.163597	-0.000076
C35	C	0.890717	0.403115	-0.000057
C36	C	0.892972	0.544022	-0.000058
N37	N	0.894967	0.171043	0.206493
N38	N	0.895015	0.171002	-0.206605
C39	C	0.946007	0.084585	0.751655
C40	C	0.946004	0.084594	0.668203
C41	C	0.895003	0.171015	0.626492
C42	C	0.844008	0.257442	0.668238
C43	C	0.844016	0.257438	0.751689
C44	C	0.843976	0.257460	0.331691
C45	C	0.843970	0.257455	0.248235
C46	C	0.945964	0.084617	0.248205
C47	C	0.945972	0.084613	0.331656
C48	C	0.894979	0.171043	0.373394
C49	C	0.894985	0.171034	0.463883
C50	C	0.894993	0.171019	0.536006
H51	H	0.267944	0.167610	-0.131184
C52	C	0.510806	0.174119	-0.151814
H53	H	0.545636	0.175036	-0.194854
H54	H	0.474633	0.247282	-0.154823
H55	H	0.485381	0.099289	-0.154816
H56	H	0.909347	-0.221239	0.131985
C57	C	0.676610	0.178563	-0.151810
H58	H	0.729286	0.179961	-0.141461
H59	H	0.658306	0.252208	-0.181504
H60	H	0.669046	0.104215	-0.181505
C61	C	1.020920	-0.235689	0.079450
H62	H	1.044311	-0.274302	0.125666
H63	H	1.022854	-0.146042	0.081717
H64	H	1.047079	-0.269065	0.033312
C65	C	1.002092	-0.010472	0.622292
H66	H	1.032459	-0.061953	0.659085
H67	H	1.033842	0.035120	0.589730
H68	H	0.974572	-0.063255	0.589746
C69	C	0.899571	-0.453362	-0.152574
H70	H	0.926593	-0.425522	-0.197103
H71	H	0.848214	-0.416729	-0.154898
H72	H	0.901236	-0.543731	-0.153547
C73	C	1.016318	-0.477143	0.080359
H74	H	1.051119	-0.414509	0.082207
H75	H	1.026483	-0.529507	0.034709
H76	H	1.021765	-0.528295	0.127047
C77	C	0.897166	-0.208416	-0.151719
H78	H	0.856224	-0.147201	-0.137064
H79	H	0.878221	-0.274915	-0.181444
H80	H	0.932415	-0.168539	-0.183320
H81	H	0.802485	0.327814	0.634273
C82	C	1.002074	-0.010446	0.377533
H83	H	1.032449	-0.061905	0.340721
H84	H	0.974572	-0.063233	0.410097
H85	H	1.033827	0.035166	0.410076
H86	H	0.124708	0.163797	-0.131193
H87	H	0.802438	0.327834	0.214275
H88	H	0.904680	-0.438498	0.132303
H89	H	0.987535	0.014206	0.785610
C90	C	0.787902	0.352554	0.377594
H91	H	0.757529	0.404022	0.340798
H92	H	0.815431	0.405328	0.410129
H93	H	0.756144	0.306983	0.410167
H94	H	0.998433	-0.241337	-0.080632
C95	C	1.018402	-0.476709	-0.075757
H96	H	1.026235	-0.530879	-0.030594
H97	H	1.052936	-0.413653	-0.074099
H98	H	1.026659	-0.525911	-0.123007
H99	H	0.987487	0.014244	0.214212
C100	C	0.113361	0.163491	0.151692
H101	H	0.148170	0.164438	0.194735
H102	H	0.087931	0.088675	0.154695
H103	H	0.077189	0.236668	0.154693
H104	H	0.665268	0.178277	0.131079
H105	H	0.780810	-0.194899	0.054308
C106	C	0.787925	0.352493	0.797607
H107	H	0.795239	0.340123	0.853281
H108	H	0.737339	0.338817	0.783948
H109	H	0.796606	0.437197	0.783929
C110	C	0.510748	0.174139	0.151719
H111	H	0.545560	0.175090	0.194759
H112	H	0.485317	0.099323	0.154728
H113	H	0.474576	0.247316	0.154721
H114	H	0.267897	0.167617	0.131048
C115	C	0.769876	-0.178899	-0.073364
H116	H	0.771223	-0.089036	-0.073282
H117	H	0.718587	-0.197682	-0.071492
H118	H	0.793293	-0.213979	-0.120551
C119	C	0.765720	-0.421655	-0.073684
H120	H	0.796805	-0.481803	-0.104777
H121	H	0.750902	-0.347972	-0.104861
H122	H	0.721763	-0.458566	-0.056651
H123	H	0.777507	-0.413421	0.053636
