data_functionalizedCrystal
_audit_creation_method	'MofGen! by Chris Wilmer'
_symmetry_space_group_name_H-M	'P1'
_symmetry_Int_Tables_number	1
_symmetry_cell_setting	triclinic
loop_
_symmetry_equiv_pos_as_xyz
  x,y,z
_cell_length_a	21.295417
_cell_length_b	16.625548
_cell_length_c	16.625539
_cell_angle_alpha	89.977655
_cell_angle_beta	90.033373
_cell_angle_gamma	89.969635
loop_
_atom_site_label
_atom_site_type_symbol
_atom_site_fract_x
_atom_site_fract_y
_atom_site_fract_z
Zn1	Zn	-0.250610	-1.232635	0.455919
Zn2	Zn	-0.355884	-1.232520	0.321074
Zn3	Zn	-0.250632	-1.097797	0.321095
Zn4	Zn	-0.355845	-1.097749	0.455860
O5	O	-0.303243	-1.165175	0.388487
O6	O	-0.264582	-1.345452	0.438048
O7	O	-0.341947	-1.214620	0.208245
O8	O	-0.162540	-1.115753	0.339014
O9	O	-0.341926	-1.345367	0.338978
O10	O	-0.162524	-1.214818	0.438068
O11	O	-0.264619	-1.115640	0.208260
O12	O	-0.264582	-0.984958	0.338956
O13	O	-0.341861	-1.115670	0.568700
O14	O	-0.341882	-0.984923	0.437967
O15	O	-0.264545	-1.214771	0.568744
O16	O	-0.443968	-1.214573	0.338921
O17	O	-0.443940	-1.115558	0.437947
C18	C	-0.303231	-0.955684	0.388458
C19	C	-0.303240	-0.866063	0.388465
C20	C	-0.303239	-0.537888	0.388489
C21	C	-0.303238	-0.629196	0.388480
C22	C	-0.303240	-0.701973	0.388476
C23	C	-0.303238	-0.793287	0.388468
C24	C	-0.466795	-1.165070	0.388443
C25	C	-0.536763	-1.165098	0.388451
C26	C	-0.569623	-1.216701	0.336940
C27	C	-0.635366	-1.216739	0.336958
C28	C	-0.668245	-1.165159	0.388478
C29	C	-0.635377	-1.113552	0.439999
C30	C	-0.569636	-1.113522	0.439985
N31	N	-0.771511	-1.094624	0.394615
N32	N	-0.833962	-1.094656	0.394624
C33	C	-0.866320	-1.165250	0.388525
N34	N	-0.833867	-1.235813	0.382401
N35	N	-0.771410	-1.235780	0.382388
C36	C	-0.739531	-1.165187	0.388499
C37	C	-0.970466	-1.216898	0.337031
C38	C	-1.036210	-1.216937	0.337055
C39	C	-1.036219	-1.113743	0.440091
C40	C	-0.970477	-1.113711	0.440071
C41	C	-0.937604	-1.165288	0.388537
C42	C	-0.139053	-1.165303	0.388550
C43	C	-0.069085	-1.165358	0.388576
C44	C	-0.303196	-1.165228	0.598796
C45	C	-0.303176	-1.165250	0.688417
C46	C	-0.303252	-0.375484	0.388509
C47	C	-0.303245	-0.465105	0.388499
C48	C	-0.303244	-1.165169	0.178996
C49	C	-0.303087	-1.165303	0.089376
C50	C	-0.303106	-1.165287	1.016593
C51	C	-0.303127	-1.165275	0.925285
C52	C	-0.303141	-1.165269	0.852508
C53	C	-0.303162	-1.165256	0.761194
H54	H	-0.542860	-1.258700	0.294980
H55	H	-0.542880	-1.071500	0.481931
Cl56	Cl	-0.929137	-1.281735	0.272247
H57	H	-0.662126	-1.258764	0.295013
Cl58	Cl	-0.676710	-1.048713	0.504770
H59	H	-0.943720	-1.071688	0.482013
H60	H	-1.062963	-1.258964	0.295111
Cl61	Cl	-1.077548	-1.048905	0.504865
