data_functionalizedCrystal
_audit_creation_method	'MofGen! by Chris Wilmer'
_symmetry_space_group_name_H-M	'P1'
_symmetry_Int_Tables_number	1
_symmetry_cell_setting	triclinic
loop_
_symmetry_equiv_pos_as_xyz
  x,y,z
_cell_length_a	12.759395
_cell_length_b	12.759394
_cell_length_c	12.759393
_cell_angle_alpha	89.967706
_cell_angle_beta	89.980701
_cell_angle_gamma	90.016374
loop_
_atom_site_label
_atom_site_type_symbol
_atom_site_fract_x
_atom_site_fract_y
_atom_site_fract_z
Zn1	Zn	1.606255	-0.418161	-0.593999
Zn2	Zn	1.606149	-0.593880	-0.418316
Zn3	Zn	1.430557	-0.418221	-0.418335
Zn4	Zn	1.430545	-0.593804	-0.593955
O5	O	1.518377	-0.506017	-0.506151
O6	O	1.753262	-0.441478	-0.570704
O7	O	1.582817	-0.570636	-0.271298
O8	O	1.453913	-0.271192	-0.441664
O9	O	1.753184	-0.570578	-0.441631
O10	O	1.582998	-0.271148	-0.570722
O11	O	1.453810	-0.441579	-0.271312
O12	O	1.283534	-0.441505	-0.441622
O13	O	1.453893	-0.570448	-0.740982
O14	O	1.283526	-0.570505	-0.570649
O15	O	1.582986	-0.441404	-0.741014
O16	O	1.582806	-0.740891	-0.441589
O17	O	1.453790	-0.740835	-0.570631
C18	C	1.245409	-0.506004	-0.506133
C19	C	1.128632	-0.506024	-0.506151
C20	C	1.128662	-0.640569	-0.640289
C21	C	1.073816	-0.707850	-0.707362
C22	C	0.964094	-0.707862	-0.707374
C23	C	0.909216	-0.640585	-0.640310
C24	C	0.964062	-0.573304	-0.573238
C25	C	1.073786	-0.573301	-0.573230
C26	C	0.964033	-0.438755	-0.439106
C27	C	1.073754	-0.438746	-0.439086
C28	C	0.909155	-0.371478	-0.372041
C29	C	0.964001	-0.304200	-0.304962
C30	C	1.073729	-0.304191	-0.304951
C31	C	1.128600	-0.371465	-0.372014
C32	C	1.518314	-0.778984	-0.506126
C33	C	1.518383	-0.895761	-0.506150
C34	C	1.652827	-0.895766	-0.371880
C35	C	1.720077	-0.950629	-0.304758
C36	C	1.720138	-1.060351	-0.304786
C37	C	1.652945	-1.115212	-0.371947
C38	C	1.585696	-1.060348	-0.439070
C39	C	1.585639	-0.950624	-0.439031
C40	C	1.451258	-1.060343	-0.573343
C41	C	1.451190	-0.950621	-0.573311
C42	C	1.384065	-1.115204	-0.640504
C43	C	1.316809	-1.060340	-0.707623
C44	C	1.316749	-0.950612	-0.707591
C45	C	1.383940	-0.895758	-0.640434
C46	C	1.792410	-0.506030	-0.506170
C47	C	1.909187	-0.506036	-0.506178
C48	C	1.518450	-0.505911	-0.780185
C49	C	1.518482	-0.505865	-0.896962
C50	C	1.518469	-0.231983	-0.506200
C51	C	1.518508	-0.115206	-0.506221
C52	C	1.585710	-0.438666	-0.951842
C53	C	1.585735	-0.438628	-1.061566
C54	C	1.451300	-0.572998	-1.061520
C55	C	1.451271	-0.573030	-0.951798
C56	C	1.652920	-0.371502	-0.897006
C57	C	1.720155	-0.304297	-0.951886
C58	C	1.720180	-0.304260	-1.061610
C59	C	1.652970	-0.371426	-1.116454
C60	C	1.518364	-0.506046	-0.233184
C61	C	1.518536	-0.505796	-0.116408
H62	H	1.217941	-0.371467	-0.372008
H63	H	1.118510	-0.762624	-0.761966
H64	H	1.396581	-0.627681	-1.106183
H65	H	1.652984	-0.371377	-1.205799
O66	O	1.386003	-0.638210	-0.898318
C67	C	1.326429	-0.697848	-0.729260
C68	C	1.400386	-0.623964	-0.789695
H69	H	1.338047	-0.686371	-0.641428
H70	H	1.241702	-0.679384	-0.750752
H71	H	1.344841	-0.782549	-0.750871
H72	H	1.382068	-0.539238	-0.768117
H73	H	1.485091	-0.642518	-0.768198
O74	O	1.785398	-0.239149	-0.898454
C75	C	1.844887	-0.179598	-0.729442
C76	C	1.770965	-0.253455	-0.789819
H77	H	1.833227	-0.191123	-0.641600
H78	H	1.929626	-0.198043	-0.750939
H79	H	1.826479	-0.094887	-0.751098
H80	H	1.789278	-0.338191	-0.768195
H81	H	1.686248	-0.234919	-0.768316
H82	H	1.653011	-1.204553	-0.371973
H83	H	1.774904	-1.105021	-0.250134
H84	H	1.118378	-0.249395	-0.250340
O85	O	0.910974	-0.773310	-0.772567
C86	C	0.922570	-0.906706	-0.905673
C87	C	0.982859	-0.832664	-0.831876
H88	H	0.980662	-0.954698	-0.953660
H89	H	0.871194	-0.961657	-0.857398
H90	H	0.871208	-0.858515	-0.960649
H91	H	1.034277	-0.880770	-0.776886
H92	H	1.034168	-0.777710	-0.880217
O93	O	1.785245	-0.897175	-0.239553
C94	C	1.844782	-0.728145	-0.180035
C95	C	1.770907	-0.788545	-0.253911
H96	H	1.833232	-0.640307	-0.191633
H97	H	1.826379	-0.749729	-0.095288
H98	H	1.929491	-0.749696	-0.198545
H99	H	1.686174	-0.767027	-0.235496
H100	H	1.789401	-0.766957	-0.338636
H101	H	1.218003	-0.640573	-0.640278
H102	H	1.774917	-0.249531	-1.106291
O103	O	0.802633	-0.640758	-0.640425
C104	C	0.645194	-0.714548	-0.714092
C105	C	0.765898	-0.714477	-0.714054
H106	H	0.615457	-0.774127	-0.773630
H107	H	0.615306	-0.736313	-0.632727
H108	H	0.615459	-0.633190	-0.735995
H109	H	0.795723	-0.795810	-0.692195
H110	H	0.795715	-0.692653	-0.795428
H111	H	0.819813	-0.371488	-0.372061
H112	H	0.919310	-0.249424	-0.250369
O113	O	1.384221	-1.221786	-0.640705
C114	C	1.411196	-1.379132	-0.741513
C115	C	1.411085	-1.258428	-0.741424
H116	H	1.432891	-1.408794	-0.822941
H117	H	1.470835	-1.408979	-0.682064
H118	H	1.329861	-1.408984	-0.719608
H119	H	1.492375	-1.228488	-0.763355
H120	H	1.351390	-1.228652	-0.800851
H121	H	1.652770	-0.806425	-0.371837
O122	O	1.251513	-1.113467	-0.772956
C123	C	1.118111	-1.101894	-0.906092
C124	C	1.192023	-1.041593	-0.832172
H125	H	1.069979	-1.043811	-0.953972
H126	H	1.166305	-1.153140	-0.961153
H127	H	1.063277	-1.153388	-0.857813
H128	H	1.246872	-0.990043	-0.880367
H129	H	1.143764	-0.990414	-0.777109
H130	H	1.261990	-0.905948	-0.762254
H131	H	1.383891	-0.806417	-0.640394
H132	H	1.652910	-0.371527	-0.807663
