data_functionalizedCrystal
_audit_creation_method	'MofGen! by Chris Wilmer'
_symmetry_space_group_name_H-M	'P1'
_symmetry_Int_Tables_number	1
_symmetry_cell_setting	triclinic
loop_
_symmetry_equiv_pos_as_xyz
  x,y,z
_cell_length_a	18.215407
_cell_length_b	19.076808
_cell_length_c	18.215399
_cell_angle_alpha	87.671240
_cell_angle_beta	89.983115
_cell_angle_gamma	92.320961
loop_
_atom_site_label
_atom_site_type_symbol
_atom_site_fract_x
_atom_site_fract_y
_atom_site_fract_z
Zn1	Zn	1.113292	-0.280269	-0.404282
Zn2	Zn	1.363292	-0.030269	-0.154282
Zn3	Zn	1.613292	0.219731	0.095718
Zn4	Zn	1.863292	0.469731	0.345718
Zn5	Zn	1.108256	-0.397977	-0.276266
Zn6	Zn	1.358256	-0.147977	-0.026266
Zn7	Zn	1.608256	0.102023	0.223734
Zn8	Zn	1.858256	0.352023	0.473734
Zn9	Zn	0.990225	-0.280286	-0.281234
Zn10	Zn	1.240225	-0.030286	-0.031234
Zn11	Zn	1.490225	0.219714	0.218766
Zn12	Zn	1.740225	0.469714	0.468766
Zn13	Zn	0.985247	-0.397931	-0.399299
Zn14	Zn	1.235247	-0.147931	-0.149299
Zn15	Zn	1.485247	0.102069	0.100701
Zn16	Zn	1.735247	0.352069	0.350701
O17	O	1.049255	-0.339116	-0.340270
O18	O	1.299255	-0.089116	-0.090270
O19	O	1.549255	0.160884	0.159730
O20	O	1.799255	0.410884	0.409730
O21	O	1.215608	-0.295895	-0.387307
O22	O	1.465608	-0.045895	-0.137307
O23	O	1.715608	0.204105	0.112693
O24	O	1.965608	0.454105	0.362693
O25	O	1.092575	-0.382392	-0.173940
O26	O	1.342575	-0.132392	0.076060
O27	O	1.592575	0.117608	0.326060
O28	O	1.842575	0.367608	0.576060
O29	O	1.010741	-0.181788	-0.301722
O30	O	1.260741	0.068212	-0.051722
O31	O	1.510741	0.318212	0.198278
O32	O	1.760741	0.568212	0.448278
O33	O	1.211908	-0.382375	-0.293255
O34	O	1.461908	-0.132375	-0.043255
O35	O	1.711908	0.117625	0.206745
O36	O	1.961908	0.367625	0.456745
O37	O	1.101158	-0.181775	-0.392124
O38	O	1.351158	0.068225	-0.142124
O39	O	1.601158	0.318225	0.107876
O40	O	1.851158	0.568225	0.357876
O41	O	1.005858	-0.295925	-0.177590
O42	O	1.255858	-0.045925	0.072410
O43	O	1.505858	0.204075	0.322410
O44	O	1.755858	0.454075	0.572410
O45	O	0.886581	-0.295880	-0.296889
O46	O	1.136581	-0.045880	-0.046889
O47	O	1.386581	0.204120	0.203111
O48	O	1.636581	0.454120	0.453111
O49	O	1.002257	-0.382296	-0.502945
O50	O	1.252257	-0.132296	-0.252945
O51	O	1.502257	0.117704	-0.002945
O52	O	1.752257	0.367704	0.247055
O53	O	0.882923	-0.382313	-0.383630
O54	O	1.132923	-0.132313	-0.133630
O55	O	1.382923	0.117687	0.116370
O56	O	1.632923	0.367687	0.366370
O57	O	1.096331	-0.295850	-0.506607
O58	O	1.346331	-0.045850	-0.256607
O59	O	1.596331	0.204150	-0.006607
O60	O	1.846331	0.454150	0.243393
O61	O	1.087747	-0.496468	-0.288422
O62	O	1.337747	-0.246468	-0.038422
O63	O	1.587747	0.003532	0.211578
O64	O	1.837747	0.253532	0.461578
O65	O	0.997373	-0.496434	-0.378813
O66	O	1.247373	-0.246434	-0.128813
O67	O	1.497373	0.003566	0.121187
O68	O	1.747373	0.253566	0.371187
C69	C	0.858050	-0.339094	-0.340258
C70	C	1.108050	-0.089094	-0.090258
C71	C	1.358050	0.160906	0.159742
C72	C	1.608050	0.410906	0.409742
C73	C	0.776250	-0.339102	-0.340270
C74	C	1.026250	-0.089102	-0.090270
C75	C	1.276250	0.160898	0.159730
C76	C	1.526250	0.410898	0.409730
C77	C	0.589978	-0.294164	-0.389314
C78	C	0.839978	-0.044164	-0.139314
C79	C	1.089978	0.205836	0.110686
C80	C	1.339978	0.455836	0.360686
C81	C	0.513119	-0.294170	-0.389316
C82	C	0.763119	-0.044170	-0.139316
C83	C	1.013119	0.205830	0.110684
C84	C	1.263119	0.455830	0.360684
C85	C	0.509283	-0.384087	-0.291239
C86	C	0.759283	-0.134087	-0.041239
C87	C	1.009283	0.115913	0.208761
C88	C	1.259283	0.365913	0.458761
C89	C	0.586141	-0.384077	-0.291234
C90	C	0.836141	-0.134077	-0.041234
C91	C	1.086141	0.115923	0.208766
C92	C	1.336141	0.365923	0.458766
C93	C	0.626486	-0.339117	-0.340275
C94	C	0.876486	-0.089117	-0.090275
C95	C	1.126486	0.160883	0.159725
C96	C	1.376486	0.410883	0.409725
C97	C	0.472770	-0.339133	-0.340283
C98	C	0.722770	-0.089133	-0.090283
C99	C	0.972770	0.160867	0.159717
C100	C	1.222770	0.410867	0.409717
C101	C	0.389436	-0.339140	-0.340285
C102	C	0.639436	-0.089140	-0.090285
C103	C	0.889436	0.160860	0.159715
C104	C	1.139436	0.410860	0.409715
C105	C	0.709826	-0.339109	-0.340273
C106	C	0.959826	-0.089109	-0.090273
C107	C	1.209826	0.160891	0.159727
C108	C	1.459826	0.410891	0.409727
C109	C	1.041493	-0.521990	-0.332554
C110	C	1.291493	-0.271990	-0.082554
C111	C	1.541493	-0.021990	0.167446
C112	C	1.791493	0.228010	0.417446
C113	C	1.038240	-0.600224	-0.329277
C114	C	1.288240	-0.350224	-0.079277
C115	C	1.538240	-0.100224	0.170723
C116	C	1.788240	0.149776	0.420723
C117	C	1.083752	-0.636911	-0.374844
C118	C	1.333752	-0.386911	-0.124844
C119	C	1.583752	-0.136911	0.125156
C120	C	1.833752	0.113089	0.375156
C121	C	1.080692	-0.710420	-0.371767
C122	C	1.330692	-0.460420	-0.121767
C123	C	1.580692	-0.210420	0.128233
C124	C	1.830692	0.039580	0.378233
C125	C	1.032124	-0.747241	-0.323118
C126	C	1.282124	-0.497241	-0.073118
C127	C	1.532124	-0.247241	0.176882
C128	C	1.782124	0.002759	0.426882
C129	C	0.986608	-0.710549	-0.277550
C130	C	1.236608	-0.460549	-0.027550
C131	C	1.486608	-0.210549	0.222450
C132	C	1.736608	0.039451	0.472450
C133	C	0.989664	-0.637041	-0.280631
C134	C	1.239664	-0.387041	-0.030631
C135	C	1.489664	-0.137041	0.219369
C136	C	1.739664	0.112959	0.469369
C137	C	1.017936	-0.967094	-0.308854
C138	C	1.267936	-0.717094	-0.058854
C139	C	1.517936	-0.467094	0.191146
C140	C	1.767936	-0.217094	0.441146
C141	C	1.014884	-1.040607	-0.305774
C142	C	1.264884	-0.790607	-0.055774
C143	C	1.514884	-0.540607	0.194226
C144	C	1.764884	-0.290607	0.444226
C145	C	1.108968	-1.040473	-0.399993
C146	C	1.358968	-0.790473	-0.149993
C147	C	1.608968	-0.540473	0.100007
C148	C	1.858968	-0.290473	0.350007
C149	C	1.112024	-0.966964	-0.403067
C150	C	1.362024	-0.716964	-0.153067
C151	C	1.612024	-0.466964	0.096933
C152	C	1.862024	-0.216964	0.346933
C153	C	1.066504	-0.930278	-0.357501
C154	C	1.316504	-0.680278	-0.107501
C155	C	1.566504	-0.430278	0.142499
C156	C	1.816504	-0.180278	0.392499
N157	N	1.028997	-0.822379	-0.319970
N158	N	1.278997	-0.572379	-0.069970
N159	N	1.528997	-0.322379	0.180030
N160	N	1.778997	-0.072379	0.430030
N161	N	1.069628	-0.855141	-0.360654
N162	N	1.319628	-0.605141	-0.110654
N163	N	1.569628	-0.355141	0.139346
N164	N	1.819628	-0.105141	0.389346
C165	C	1.241207	-0.339138	-0.340283
C166	C	1.491207	-0.089138	-0.090283
C167	C	1.741207	0.160862	0.159717
C168	C	1.991207	0.410862	0.409717
C169	C	1.323005	-0.339148	-0.340288
C170	C	1.573005	-0.089148	-0.090288
C171	C	1.823005	0.160852	0.159712
C172	C	2.073005	0.410852	0.409712
C173	C	1.049300	-0.339066	-0.532225
C174	C	1.299300	-0.089066	-0.282225
C175	C	1.549300	0.160934	-0.032225
C176	C	1.799300	0.410934	0.217775
C177	C	1.049320	-0.339045	-0.614025
C178	C	1.299320	-0.089045	-0.364025
C179	C	1.549320	0.160955	-0.114025
C180	C	1.799320	0.410955	0.135975
C181	C	1.057067	-0.155528	-0.348033
C182	C	1.307067	0.094472	-0.098033
C183	C	1.557067	0.344472	0.151967
C184	C	1.807067	0.594472	0.401967
C185	C	1.060396	-0.077294	-0.351341
C186	C	1.310396	0.172706	-0.101341
C187	C	1.560396	0.422706	0.148659
C188	C	1.810396	0.672706	0.398659
C189	C	1.098334	-0.293972	-0.880993
C190	C	1.348334	-0.043972	-0.630993
C191	C	1.598334	0.206028	-0.380993
C192	C	1.848334	0.456028	-0.130993
C193	C	1.098324	-0.293991	-0.804134
C194	C	1.348324	-0.043991	-0.554134
C195	C	1.598324	0.206009	-0.304134
C196	C	1.848324	0.456009	-0.054134
C197	C	1.000369	-0.384016	-0.800310
C198	C	1.250369	-0.134016	-0.550310
C199	C	1.500369	0.115984	-0.300310
C200	C	1.750369	0.365984	-0.050310
C201	C	1.000383	-0.384000	-0.877168
C202	C	1.250383	-0.134000	-0.627168
C203	C	1.500383	0.116000	-0.377168
C204	C	1.750383	0.366000	-0.127168
C205	C	1.049364	-0.338974	-0.917508
C206	C	1.299364	-0.088974	-0.667508
C207	C	1.549364	0.161026	-0.417508
C208	C	1.799364	0.411026	-0.167508
C209	C	1.049341	-0.339009	-0.763790
C210	C	1.299341	-0.089009	-0.513790
C211	C	1.549341	0.160991	-0.263790
C212	C	1.799341	0.410991	-0.013790
C213	C	1.049331	-0.339030	-0.680456
C214	C	1.299331	-0.089030	-0.430456
C215	C	1.549331	0.160970	-0.180456
C216	C	1.799331	0.410970	0.069544
C217	C	1.049376	-0.338954	-1.000848
C218	C	1.299376	-0.088954	-0.750848
C219	C	1.549376	0.161046	-0.500848
C220	C	1.799376	0.411046	-0.250848
C221	C	1.049254	-0.339115	-0.149064
C222	C	1.299254	-0.089115	0.100936
C223	C	1.549254	0.160885	0.350936
C224	C	1.799254	0.410885	0.600936
C225	C	1.049386	-0.338938	-0.067273
C226	C	1.299386	-0.088938	0.182727
C227	C	1.549386	0.161062	0.432727
C228	C	1.799386	0.411062	0.682727
H229	H	0.476424	-0.420693	-0.251312
H230	H	0.726424	-0.170693	-0.001312
H231	H	0.976424	0.079307	0.248688
H232	H	1.226424	0.329307	0.498688
Br233	Br	1.164789	-0.232917	-0.754580
Br234	Br	1.414789	0.017083	-0.504580
Br235	Br	1.664789	0.267083	-0.254580
Br236	Br	1.914789	0.517083	-0.004580
Br237	Br	0.933894	-0.445116	-0.745559
Br238	Br	1.183894	-0.195116	-0.495559
Br239	Br	1.433894	0.054884	-0.245559
Br240	Br	1.683894	0.304884	0.004441
H241	H	1.138217	-0.257308	-0.913836
H242	H	1.388217	-0.007308	-0.663836
H243	H	1.638217	0.242692	-0.413836
H244	H	1.888217	0.492692	-0.163836
Br245	Br	1.142448	-0.760208	-0.433623
Br246	Br	1.392448	-0.510208	-0.183623
Br247	Br	1.642448	-0.260208	0.066377
Br248	Br	1.892448	-0.010208	0.316377
Br249	Br	0.463575	-0.233158	-0.455868
Br250	Br	0.713575	0.016842	-0.205868
Br251	Br	0.963575	0.266842	0.044132
Br252	Br	1.213575	0.516842	0.294132
Br253	Br	0.920683	-0.760519	-0.211536
Br254	Br	1.170683	-0.510519	0.038464
Br255	Br	1.420683	-0.260519	0.288464
Br256	Br	1.670683	-0.010519	0.538464
Br257	Br	1.149675	-0.586947	-0.440864
Br258	Br	1.399675	-0.336947	-0.190864
Br259	Br	1.649675	-0.086947	0.059136
Br260	Br	1.899675	0.163053	0.309136
H261	H	0.622826	-0.257553	-0.429244
H262	H	0.872826	-0.007553	-0.179244
H263	H	1.122826	0.242447	0.070756
H264	H	1.372826	0.492447	0.320756
Br265	Br	0.635693	-0.445078	-0.224667
Br266	Br	0.885693	-0.195078	0.025333
Br267	Br	1.135693	0.054922	0.275333
Br268	Br	1.385693	0.304922	0.525333
Br269	Br	0.933927	-0.445086	-0.926729
Br270	Br	1.183927	-0.195086	-0.676729
Br271	Br	1.433927	0.054914	-0.426729
Br272	Br	1.683927	0.304914	-0.176729
H273	H	1.151572	-0.936986	-0.442680
H274	H	1.401572	-0.686986	-0.192680
H275	H	1.651572	-0.436986	0.057320
H276	H	1.901572	-0.186986	0.307320
H277	H	0.975331	-1.070584	-0.266159
H278	H	1.225331	-0.820584	-0.016159
H279	H	1.475331	-0.570584	0.233841
H280	H	1.725331	-0.320584	0.483841
Br281	Br	0.956150	-0.917315	-0.247024
Br282	Br	1.206150	-0.667315	0.002976
Br283	Br	1.456150	-0.417315	0.252976
Br284	Br	1.706150	-0.167315	0.502976
Br285	Br	1.170739	-1.090265	-0.461830
Br286	Br	1.420739	-0.840265	-0.211830
Br287	Br	1.670739	-0.590265	0.038170
Br288	Br	1.920739	-0.340265	0.288170
H289	H	0.952603	-0.607171	-0.243527
H290	H	1.202603	-0.357171	0.006473
H291	H	1.452603	-0.107171	0.256473
H292	H	1.702603	0.142829	0.506473
