data_functionalizedCrystal
_audit_creation_method	'MofGen! by Chris Wilmer'
_symmetry_space_group_name_H-M	'P1'
_symmetry_Int_Tables_number	1
_symmetry_cell_setting	triclinic
loop_
_symmetry_equiv_pos_as_xyz
  x,y,z
_cell_length_a	27.440280
_cell_length_b	14.446369
_cell_length_c	14.446369
_cell_angle_alpha	119.993831
_cell_angle_beta	90.005777
_cell_angle_gamma	120.006015
loop_
_atom_site_label
_atom_site_type_symbol
_atom_site_fract_x
_atom_site_fract_y
_atom_site_fract_z
Zr1	Zr	0.469463	-1.013122	-0.121303
O2	O	0.391636	-1.206251	-0.269114
O3	O	0.493326	-0.820001	-0.075998
O4	O	0.493318	-1.013111	-0.269100
O5	O	0.391645	-1.013147	0.076317
O6	O	0.573520	-1.013093	-0.269080
O7	O	0.391644	-1.013141	-0.076013
O8	O	0.573535	-0.667654	0.076343
O9	O	0.391630	-1.358585	-0.269106
O10	O	0.563352	-0.899418	-0.056653
O11	O	0.503498	-0.899435	0.057015
O12	O	0.503488	-1.126797	-0.170337
O13	O	0.443634	-1.126815	-0.056670
Zr14	Zr	0.597378	-1.013102	0.121677
Zr15	Zr	0.597377	-1.013093	-0.121272
Zr16	Zr	0.469464	-1.013131	0.121646
Zr17	Zr	0.469454	-1.256077	-0.121290
Zr18	Zr	0.597388	-0.770147	0.121664
O19	O	0.573515	-1.206223	0.076373
O20	O	0.573513	-1.206210	-0.269069
O21	O	0.391638	-1.206264	0.076328
O22	O	0.675206	-0.819973	0.269488
O23	O	0.675204	-0.819960	-0.075954
O24	O	0.493328	-0.820014	0.269444
O25	O	0.675196	-1.013077	-0.075943
O26	O	0.573524	-1.013113	0.269474
O27	O	0.493321	-1.013131	0.269454
O28	O	0.675197	-1.013083	0.076387
O29	O	0.493305	-1.358562	-0.269081
O30	O	0.573537	-0.667662	0.269455
O31	O	0.675211	-0.667639	0.269480
O32	O	0.675210	-0.667632	0.076368
O33	O	0.391631	-1.358592	-0.075994
O34	O	0.493306	-1.358569	-0.075969
O35	O	0.563353	-0.899426	0.170712
O36	O	0.623207	-0.899409	0.057044
O37	O	0.563343	-1.126788	-0.056640
O38	O	0.503489	-1.126806	0.057027
C39	C	0.533432	-0.709212	0.000170
C40	C	0.533436	-0.606071	0.000165
C41	C	0.570995	-0.459745	-0.071882
C42	C	0.571207	-0.566669	-0.071570
C43	C	0.560976	-0.479213	0.123691
C44	C	0.561252	-0.371835	0.123296
C45	C	0.468288	-0.546823	-0.050316
C46	C	0.468391	-0.655295	-0.052816
C47	C	0.373419	-1.013148	0.000148
C48	C	0.319116	-1.013160	0.000134
C49	C	0.053174	-1.131823	-0.059154
C50	C	0.104193	-1.131831	-0.059162
O51	O	0.104005	-1.232772	-0.109600
N52	N	0.160957	-1.013142	0.000172
C53	C	0.166703	-0.894439	0.059526
O54	O	0.219671	-0.793485	0.109995
C55	C	0.115685	-0.894433	0.059540
C56	C	0.058921	-1.013129	0.000192
C57	C	-0.003588	-1.250510	-0.118496
C58	C	-0.054603	-1.250502	-0.118490
C59	C	-0.048855	-1.131808	-0.059143
C60	C	0.007906	-1.013121	0.000198
C61	C	0.121432	-0.775731	0.118900
C62	C	0.070408	-0.775735	0.118909
C63	C	0.013644	-0.894431	0.059561
C64	C	-0.037361	-0.894419	0.059551
N65	N	-0.094126	-1.013108	0.000217
C66	C	-0.099873	-1.131802	-0.059130
C67	C	0.273842	-0.894460	0.059496
C68	C	0.324859	-0.894465	0.059477
C69	C	0.262345	-1.131857	-0.059210
C70	C	0.211327	-1.131851	-0.059197
C71	C	0.217077	-1.013149	0.000162
C72	C	-0.207006	-1.131777	-0.059114
C73	C	-0.258022	-1.131758	-0.059107
C74	C	-0.195504	-0.894367	0.059584
C75	C	-0.144491	-0.894384	0.059572
C76	C	-0.150246	-1.013100	0.000221
O77	O	-0.037220	-0.793529	0.109967
O78	O	-0.152843	-1.232738	-0.109577
C79	C	0.693422	-1.013076	0.000227
C80	C	0.747725	-1.013064	0.000240
C81	C	0.533413	-0.317014	0.000193
C82	C	0.533420	-0.420161	0.000166
C83	C	0.533419	-1.013100	-0.303705
C84	C	0.533418	-1.013096	-0.406843
C85	C	0.571181	-0.869674	-0.374421
C86	C	0.571385	-0.869622	-0.481676
C87	C	0.560756	-1.084759	-0.589624
C88	C	0.561039	-1.083805	-0.481834
C89	C	0.468303	-1.085930	-0.482815
C90	C	0.468404	-1.083266	-0.588804
C91	C	0.533422	-1.013124	0.304079
C92	C	0.533423	-1.013127	0.407217
C93	C	0.693433	-0.709176	0.000210
C94	C	0.747740	-0.606023	0.000218
C95	C	0.533434	-0.709223	0.304062
C96	C	0.533438	-0.606086	0.407195
C97	C	0.693435	-0.709187	0.304102
C98	C	0.747742	-0.606038	0.407248
C99	C	0.373406	-1.317036	-0.303728
C100	C	0.319099	-1.420186	-0.406873
C101	C	0.373408	-1.317048	0.000164
C102	C	0.319101	-1.420201	0.000157
C103	C	0.533407	-1.317001	-0.303688
C104	C	0.533403	-1.420138	-0.406821
C105	C	0.741999	-0.557586	-0.059138
C106	C	0.793021	-0.460676	-0.059153
C107	C	0.849784	-0.412198	0.000194
C108	C	0.855523	-0.460645	0.059551
C109	C	0.804502	-0.557559	0.059559
C110	C	0.804494	-0.557589	0.396353
C111	C	0.855527	-0.460683	0.493260
C112	C	0.849806	-0.412221	0.601061
C113	C	0.793048	-0.460680	0.611954
C114	C	0.742017	-0.557591	0.515047
C115	C	0.262347	-1.468647	-0.395979
C116	C	0.211315	-1.565583	-0.492886
C117	C	0.217035	-1.614050	-0.600687
C118	C	0.273793	-1.565585	-0.611579
C119	C	0.324824	-1.468657	-0.514673
C120	C	0.324842	-1.468648	0.059502
C121	C	0.273820	-1.565585	0.059490
C122	C	0.217057	-1.614066	0.000140
C123	C	0.211318	-1.565615	-0.059212
C124	C	0.262339	-1.468687	-0.059207
C125	C	0.495512	-0.459781	0.482161
C126	C	0.495667	-0.566702	0.374837
C127	C	0.598481	-0.479219	0.481758
C128	C	0.598282	-0.371843	0.588612
C129	C	0.506874	-0.546835	0.590185
C130	C	0.505550	-0.655305	0.481518
H131	H	0.440161	-0.522041	0.001912
F132	F	0.542819	-0.514426	0.692431
F133	F	0.256221	-1.417128	-0.122367
H134	H	0.445448	-1.039705	-0.432654
H135	H	0.257673	-1.228505	-0.107531
F136	F	0.904124	-0.309078	0.704189
F137	F	0.904081	-0.309050	0.000176
H138	H	0.075097	-0.679070	0.167249
H139	H	0.278505	-1.605018	0.107827
H140	H	0.809163	-0.597032	0.308584
F141	F	0.546975	-0.508421	-0.191085
F142	F	0.634171	-0.796503	-0.478676
F143	F	0.385248	-1.417072	0.122672
H144	H	0.457632	-0.745808	0.430091
H145	H	0.608948	-1.033484	-0.431641
H146	H	0.534560	-1.190288	-0.667876
H147	H	0.534926	-0.501467	0.179704
H148	H	-0.098270	-0.797732	0.107910
H149	H	-0.190834	-0.797729	0.107900
F150	F	0.786901	-0.409129	-0.122328
H151	H	0.901737	-0.421238	0.484371
F152	F	0.527405	-1.221365	-0.516635
F153	F	0.622777	-1.020512	-0.592625
F154	F	0.633417	-0.342536	-0.026542
H155	H	0.447496	-0.497030	0.479816
F156	F	0.547445	-0.796196	-0.479411
F157	F	0.786969	-0.409090	0.726693
F158	F	-0.213139	-1.258127	-0.122283
F159	F	0.810621	-0.609093	0.122744
F160	F	0.537909	-0.697301	0.514882
F161	F	0.681619	-0.609138	0.526660
F162	F	0.279872	-1.617178	-0.726318
H163	H	0.552962	-0.813068	-0.320332
F164	F	0.162717	-1.717209	-0.703814
H165	H	-0.100819	-1.347157	-0.166812
F166	F	0.633591	-0.796817	-0.302738
F167	F	0.256245	-1.417079	-0.281258
H168	H	-0.304242	-1.228419	-0.107439
F169	F	-0.009717	-1.376852	-0.181665
F170	F	0.162760	-1.717226	0.000146
F171	F	0.150917	-1.258183	-0.122360
H172	H	0.619253	-0.529194	-0.036552
F173	F	0.150915	-1.617142	-0.481269
F174	F	0.915939	-0.409035	0.122711
H175	H	0.165095	-1.605103	-0.107534
F176	F	0.441713	-1.014983	-0.587949
F177	F	0.385222	-1.417084	-0.526286
F178	F	0.433064	-0.683501	0.303890
H179	H	0.513777	-0.370111	0.481125
F180	F	0.428594	-1.220188	-0.692093
F181	F	0.519761	-0.517730	0.304531
H182	H	0.619560	-0.281086	0.588338
H183	H	0.628088	-0.341883	0.667198
F184	F	0.637033	-0.508285	0.517364
H185	H	0.619906	-0.440655	0.430154
H186	H	0.440038	-1.191584	-0.510229
F187	F	0.547062	-0.683459	-0.190462
F188	F	0.623897	-0.253198	0.176121
H189	H	0.695785	-0.597055	-0.107479
H190	H	0.459705	-0.586417	0.594292
H191	H	0.608450	-0.440646	0.164391
F192	F	0.438220	-0.598550	-0.167417
F193	F	0.527793	-0.332684	0.197278
H194	H	0.447817	-0.745787	-0.143821
H195	H	0.371076	-0.797810	0.107792
F196	F	0.279970	-0.768112	0.122670
F197	F	0.428717	-0.697294	0.008649
H198	H	0.167644	-0.679075	0.167217
