data_functionalizedCrystal
_audit_creation_method	'MofGen! by Chris Wilmer'
_symmetry_space_group_name_H-M	'P1'
_symmetry_Int_Tables_number	1
_symmetry_cell_setting	triclinic
loop_
_symmetry_equiv_pos_as_xyz
  x,y,z
_cell_length_a	34.490303
_cell_length_b	34.489386
_cell_length_c	34.485816
_cell_angle_alpha	60.004462
_cell_angle_beta	60.008900
_cell_angle_gamma	59.994399
loop_
_atom_site_label
_atom_site_type_symbol
_atom_site_fract_x
_atom_site_fract_y
_atom_site_fract_z
O1	O	0.053846	-0.566517	0.473678
O2	O	0.020329	-0.441078	0.381663
O3	O	0.099768	-0.520436	0.381578
O4	O	-0.025592	-0.487159	0.473762
O5	O	0.126127	-0.494082	0.407849
O6	O	0.046689	-0.414724	0.407933
O7	O	0.080206	-0.540163	0.499949
Zn8	Zn	0.067632	-0.473259	0.458112
Zn9	Zn	0.032903	-0.507982	0.423499
O10	O	0.000767	-0.460805	0.500033
N11	N	0.091336	-0.449565	0.481736
N12	N	0.009203	-0.531680	0.399875
C13	C	0.142510	-0.268211	0.532817
C14	C	0.142641	-0.398441	0.662987
C15	C	0.142524	-0.398421	0.532817
C16	C	0.272762	-0.398394	0.532723
C17	C	0.156853	-0.311177	0.547124
C18	C	0.156928	-0.384109	0.620020
C19	C	0.229794	-0.384081	0.547073
C20	C	0.156863	-0.384097	0.547124
C21	C	0.124253	-0.213522	0.514606
C22	C	0.124277	-0.416652	0.514606
C23	C	0.175110	-0.365866	0.565335
C24	C	0.352285	-0.384669	0.490824
C25	C	0.401998	-0.401229	0.474223
C26	C	0.402027	-0.481671	0.504898
C27	C	0.352316	-0.465109	0.521500
C28	C	0.136220	-0.188652	0.465734
C29	C	0.119621	-0.138936	0.449181
C30	C	0.079092	-0.138961	0.530374
C31	C	0.095691	-0.188678	0.546927
C32	C	0.075398	-0.404656	0.526651
C33	C	0.058814	-0.421229	0.510091
C34	C	0.139984	-0.461794	0.469452
C35	C	0.156570	-0.445221	0.486007
C36	C	0.075593	-0.404694	0.742565
C37	C	0.059066	-0.421281	0.792280
C38	C	0.140274	-0.461856	0.792215
C39	C	0.156800	-0.445269	0.742499
C40	C	0.124458	-0.416687	0.717675
C41	C	0.327446	-0.416608	0.514460
C42	C	-0.023585	-0.564792	0.161919
C43	C	-0.023910	-0.769260	0.366530
C44	C	-0.023880	-0.564780	0.366623
C45	C	-0.228325	-0.564561	0.366222
C46	C	-0.129610	-0.597564	0.333467
C47	C	-0.056729	-0.597644	0.333613
C48	C	-0.074925	-0.615849	0.315324
C49	C	-0.088689	-0.695351	0.357144
C50	C	-0.072155	-0.745068	0.373736
C51	C	0.008283	-0.745150	0.343188
C52	C	-0.008252	-0.695435	0.326596
C53	C	-0.154529	-0.609541	0.382326
C54	C	-0.204241	-0.592916	0.398818
C55	C	-0.204114	-0.552341	0.317588
C56	C	-0.154401	-0.568966	0.301096
C57	C	-0.068707	-0.548770	0.321590
C58	C	-0.052166	-0.532225	0.338221
C59	C	-0.011669	-0.613425	0.378886
C60	C	-0.028210	-0.629972	0.362261
C61	C	-0.068581	-0.548777	0.235758
C62	C	-0.051939	-0.532234	0.186043
C63	C	-0.011379	-0.613438	0.186090
C64	C	-0.028020	-0.629981	0.235806
C65	C	-0.056622	-0.597649	0.260639
C66	C	-0.056739	-0.670537	0.333576
C67	C	-0.005614	-0.545951	0.107238
C68	C	-0.006360	-0.823943	0.385033
C69	C	-0.005995	-0.545937	0.384582
C70	C	-0.283006	-0.545971	0.383725
N71	N	0.426163	-0.449489	0.481488
O72	O	0.588601	-0.457377	0.364497
O73	O	0.588789	-0.549696	0.489801
O74	O	0.588709	-0.549485	0.410335
O75	O	0.588681	-0.457588	0.443963
O76	O	0.509731	-0.523223	0.436741
O77	O	0.509811	-0.523434	0.516207
O78	O	0.509624	-0.431115	0.390903
Zn79	Zn	0.497178	-0.473105	0.457747
Zn80	Zn	0.601234	-0.507706	0.422956
O81	O	0.509704	-0.431326	0.470368
N82	N	0.672250	-0.531322	0.399211
N83	N	0.091303	-0.114798	0.481730
O84	O	-0.025603	0.047729	0.473733
O85	O	0.099703	0.047764	0.381394
O86	O	0.020199	0.047731	0.381655
O87	O	0.053901	0.047761	0.473472
O88	O	0.046564	-0.031252	0.407974
O89	O	0.126068	-0.031219	0.407713
O90	O	0.000762	-0.031254	0.500052
Zn91	Zn	0.067601	-0.043777	0.458061
Zn92	Zn	0.032864	0.060287	0.423385
O93	O	0.080266	-0.031222	0.499791
N94	N	0.009156	0.131307	0.399717
N95	N	0.091635	-0.449614	0.816396
O96	O	0.083664	-0.566502	0.978913
O97	O	-0.008637	-0.441152	0.978954
O98	O	-0.008421	-0.520640	0.978930
O99	O	0.083448	-0.487013	0.978936
O100	O	0.017877	-0.494296	0.899950
O101	O	0.017661	-0.414807	0.899974
O102	O	0.109961	-0.540157	0.899933
Zn103	Zn	0.067986	-0.473299	0.887414
Zn104	Zn	0.033338	-0.508010	0.991473
O105	O	0.109746	-0.460669	0.899956
N106	N	0.009689	-0.531700	1.062491
C107	C	0.030367	-0.412095	0.382120
C108	C	0.128741	-0.510370	0.382016
C109	C	0.070168	-0.569147	0.499490
C110	C	-0.028207	-0.470871	0.499595
C111	C	0.549323	-0.549278	0.518791
C112	C	0.549225	-0.549017	0.420381
C113	C	0.549087	-0.431532	0.361914
C114	C	0.549188	-0.431794	0.460322
C115	C	0.128638	0.008374	0.381806
C116	C	0.030215	0.008236	0.382161
C117	C	-0.028206	0.008233	0.499608
C118	C	0.070250	0.008272	0.499285
C119	C	-0.008199	-0.412187	0.939469
C120	C	-0.007927	-0.510619	0.939425
C121	C	0.109523	-0.569121	0.939417
C122	C	0.109257	-0.470684	0.939444
H123	H	0.049253	-0.381417	0.722357
O124	O	0.078908	0.008190	0.533718
C125	C	0.127164	-0.032708	0.583596
C126	C	0.117405	-0.032677	0.544606
H127	H	0.158295	-0.065741	0.592403
H128	H	0.094265	-0.032750	0.616798
H129	H	0.136177	0.000366	0.570425
H130	H	0.108404	-0.065746	0.557731
H131	H	0.150312	-0.032610	0.511411
O132	O	0.143738	-0.462188	0.939459
C133	C	0.223771	-0.493245	0.939405
C134	C	0.184760	-0.502934	0.939400
H135	H	0.256950	-0.526177	0.939347
H136	H	0.210654	-0.484228	0.972470
H137	H	0.232597	-0.462137	0.906364
H138	H	0.175916	-0.534047	0.972419
H139	H	0.197897	-0.511922	0.906313
O140	O	-0.096425	-0.517303	0.293786
C141	C	-0.134827	-0.435015	0.255185
C142	C	-0.103443	-0.470599	0.286687
H143	H	-0.140503	-0.397248	0.249427
H144	H	-0.170616	-0.440667	0.273333
H145	H	-0.116567	-0.440790	0.219441
H146	H	-0.121662	-0.464846	0.322436
H147	H	-0.067656	-0.464938	0.268501
O148	O	0.549156	-0.397397	0.468988
C149	C	0.549233	-0.375683	0.525382
C150	C	0.549258	-0.414675	0.515635
H151	H	0.549325	-0.389641	0.563092
H152	H	0.516144	-0.343286	0.521205
H153	H	0.582248	-0.365264	0.499046
H154	H	0.516265	-0.425134	0.541963
H155	H	0.582369	-0.447046	0.519796
H156	H	0.138503	-0.605120	0.939399
H157	H	0.164745	-0.517463	0.353068
H158	H	-0.037176	-0.376187	0.939482
H159	H	0.022995	0.008233	0.353314
H160	H	0.164551	0.008603	0.352745
O161	O	0.084121	-0.212800	0.594408
C162	C	0.087949	-0.227960	0.668835
C163	C	0.101094	-0.200627	0.615064
H164	H	0.101656	-0.218121	0.685553
H165	H	0.104726	-0.267770	0.675164
H166	H	0.047698	-0.218198	0.685601
H167	H	0.141338	-0.210349	0.598261
H168	H	0.084283	-0.160823	0.608768
O169	O	0.549081	-0.396936	0.318982
C170	C	0.589907	-0.344974	0.249258
C171	C	0.589968	-0.384144	0.297873
H172	H	0.622966	-0.334627	0.232173
H173	H	0.556857	-0.312581	0.254260
H174	H	0.589868	-0.358742	0.225333
H175	H	0.590024	-0.370421	0.321823
H176	H	0.623015	-0.416530	0.292835
O177	O	-0.071173	0.008313	0.534149
C178	C	-0.155657	0.049209	0.557103
C179	C	-0.107027	0.049180	0.517949
H180	H	-0.184659	0.082241	0.544016
H181	H	-0.155723	0.049248	0.590175
H182	H	-0.162591	0.016134	0.566095
H183	H	-0.100062	0.082249	0.508916
H184	H	-0.106984	0.049115	0.484902
O185	O	0.011580	-0.409561	0.816380
C186	C	-0.067220	-0.367580	0.811191
C187	C	-0.013456	-0.380806	0.783838
H188	H	-0.087478	-0.344337	0.784893
H189	H	-0.077015	-0.347317	0.834455
H190	H	-0.076970	-0.401328	0.834479
H191	H	-0.003668	-0.347082	0.760524
H192	H	-0.003690	-0.401087	0.760604
O193	O	0.171755	-0.489630	0.816256
C194	C	0.254047	-0.528106	0.810945
C195	C	0.218448	-0.496650	0.783660
H196	H	0.291806	-0.533783	0.784603
H197	H	0.248376	-0.563892	0.834201
H198	H	0.248310	-0.509900	0.834235
H199	H	0.224164	-0.514814	0.760344
H200	H	0.224127	-0.460866	0.760434
O201	O	-0.063625	-0.484741	0.161952
C202	C	-0.105598	-0.405945	0.167156
C203	C	-0.092409	-0.459716	0.194500
H204	H	-0.128863	-0.385696	0.193460
H205	H	-0.125822	-0.396118	0.143841
H206	H	-0.071839	-0.396213	0.143920
H207	H	-0.126143	-0.469486	0.217762
H208	H	-0.072166	-0.469514	0.217785
O209	O	-0.042329	-0.519262	0.939446
C210	C	-0.092270	-0.567425	0.980309
C211	C	-0.053301	-0.557695	0.980338
H212	H	-0.101160	-0.598491	1.013371
H213	H	-0.079102	-0.576491	0.947261
H214	H	-0.125425	-0.534467	0.980285
H215	H	-0.020133	-0.590635	0.980379
H216	H	-0.066507	-0.548609	1.013383
O217	O	0.204255	-0.456893	0.718249
C218	C	0.265708	-0.449300	0.641634
C219	C	0.211954	-0.436110	0.669037
H220	H	0.271949	-0.432495	0.601841
H221	H	0.282502	-0.489552	0.651358
H222	H	0.282467	-0.435591	0.651422
H223	H	0.195153	-0.449788	0.659263
H224	H	0.195194	-0.395856	0.659310
O225	O	0.043964	-0.376889	0.554407
C226	C	-0.038298	-0.338420	0.592987
C227	C	-0.002751	-0.369861	0.561540
H228	H	-0.076075	-0.332737	0.598772
H229	H	-0.032622	-0.302636	0.574778
H230	H	-0.032509	-0.356642	0.628722
H231	H	-0.008519	-0.351681	0.525800
H232	H	-0.008436	-0.405644	0.579786
H233	H	0.019013	-0.411451	0.519888
H234	H	0.549237	-0.577886	0.413185
O235	O	0.171377	-0.489478	0.441604
C236	C	0.235671	-0.495809	0.368418
C237	C	0.200137	-0.464407	0.399905
H238	H	0.258939	-0.475555	0.334702
H239	H	0.215450	-0.505586	0.358608
H240	H	0.258952	-0.529551	0.388654
H241	H	0.176847	-0.430645	0.379698
H242	H	0.220387	-0.454668	0.409717
O243	O	0.204035	-0.456812	0.474337
C244	C	0.265561	-0.449282	0.481858
C245	C	0.211795	-0.436110	0.495100
H246	H	0.271852	-0.432559	0.498648
H247	H	0.282306	-0.435533	0.441604
H248	H	0.282331	-0.489541	0.495547
H249	H	0.194985	-0.395856	0.481443
H250	H	0.195085	-0.449893	0.535356
O251	O	0.328213	-0.496148	0.544382
C252	C	0.313036	-0.554621	0.539970
C253	C	0.340350	-0.519476	0.513999
H254	H	0.322846	-0.573499	0.515420
H255	H	0.273226	-0.534482	0.550615
H256	H	0.322841	-0.581925	0.573120
H257	H	0.330585	-0.492163	0.480832
H258	H	0.380154	-0.539648	0.503389
O259	O	0.426057	-0.370137	0.451251
C260	C	0.420788	-0.288606	0.422593
C261	C	0.393481	-0.323764	0.448611
H262	H	0.394462	-0.251108	0.420459
H263	H	0.444021	-0.290085	0.385196
H264	H	0.444102	-0.298608	0.442895
H265	H	0.370142	-0.313787	0.428349
H266	H	0.370278	-0.322279	0.486010
H267	H	0.332037	-0.345175	0.485091
O268	O	0.163894	-0.212762	0.434319
C269	C	0.170200	-0.227940	0.369996
C270	C	0.138806	-0.200612	0.405555
H271	H	0.149933	-0.218119	0.346725
H272	H	0.180000	-0.267751	0.390197
H273	H	0.203927	-0.218155	0.346720
H274	H	0.105060	-0.210357	0.428840
H275	H	0.129045	-0.160808	0.385324
O276	O	0.016410	-0.644911	0.162045
C277	C	0.054849	-0.727203	0.167346
C278	C	0.023383	-0.691611	0.194636
H279	H	0.060489	-0.764967	0.193684
H280	H	0.090648	-0.721557	0.144139
H281	H	0.036676	-0.721428	0.144006
H282	H	0.041515	-0.697364	0.218002
H283	H	-0.012414	-0.697265	0.217813
H284	H	0.129365	-0.118686	0.409385
O285	O	-0.063710	-0.484760	0.326525
C286	C	-0.035074	-0.419001	0.288309
C287	C	-0.021939	-0.472760	0.301533
H288	H	-0.001311	-0.409281	0.268092
H289	H	-0.055330	-0.409177	0.322022
H290	H	-0.058315	-0.398740	0.264994
H291	H	0.001317	-0.493058	0.324836
H292	H	-0.001707	-0.482549	0.267801
O293	O	-0.071180	-0.462465	0.534117
C294	C	-0.140904	-0.485526	0.586071
C295	C	-0.092252	-0.495091	0.546969
H296	H	-0.157951	-0.511905	0.596481
H297	H	-0.164854	-0.447822	0.572272
H298	H	-0.135910	-0.489791	0.618434
H299	H	-0.097201	-0.490853	0.514593
H300	H	-0.068320	-0.532792	0.560806
H301	H	0.055841	-0.118733	0.556693
O302	O	0.016085	-0.644875	0.406656
C303	C	0.089217	-0.709235	0.413118
C304	C	0.057828	-0.673650	0.381621
H305	H	0.122977	-0.732502	0.392887
H306	H	0.068966	-0.732514	0.446824
H307	H	0.098958	-0.689006	0.422953
H308	H	0.048077	-0.693840	0.371750
H309	H	0.078096	-0.650371	0.347938
O310	O	-0.016595	-0.677457	0.374003
C311	C	-0.020505	-0.751899	0.437006
C312	C	-0.033681	-0.698134	0.423787
H313	H	-0.034321	-0.768632	0.477255
H314	H	0.019748	-0.768724	0.423376
H315	H	-0.037217	-0.758140	0.420164
H316	H	-0.017001	-0.691851	0.440624
H317	H	-0.073938	-0.681336	0.437407
H318	H	0.422274	-0.521162	0.510626
H319	H	-0.091873	-0.522445	0.255974
H320	H	-0.018278	-0.669778	0.256062
H321	H	0.077330	-0.605181	0.528391
H322	H	0.017768	-0.675232	0.307405
O323	O	0.055399	-0.769319	0.336327
C324	C	0.134493	-0.784592	0.279561
C325	C	0.081149	-0.757200	0.287265
H326	H	0.155328	-0.774796	0.239897
H327	H	0.140852	-0.824393	0.295434
H328	H	0.146791	-0.774840	0.297656
H329	H	0.068814	-0.766912	0.269170
H330	H	0.074820	-0.717405	0.271404
O331	O	-0.103266	-0.769100	0.396695
C332	C	-0.184810	-0.763774	0.425349
C333	C	-0.149624	-0.736497	0.399314
H334	H	-0.222297	-0.737426	0.427466
H335	H	-0.183340	-0.786996	0.462753
H336	H	-0.174833	-0.787099	0.405071
H337	H	-0.159578	-0.713146	0.419552
H338	H	-0.151100	-0.713304	0.361908
O339	O	-0.130520	-0.637298	0.413833
C340	C	-0.135894	-0.675808	0.496145
C341	C	-0.163142	-0.644360	0.460514
H342	H	-0.162257	-0.681535	0.533893
H343	H	-0.112629	-0.657631	0.490500
H344	H	-0.112616	-0.711571	0.490415
H345	H	-0.186445	-0.608591	0.466222
H346	H	-0.186377	-0.662574	0.466167
O347	O	-0.135768	-0.671109	0.363833
C348	C	-0.195826	-0.614952	0.327076
C349	C	-0.142496	-0.642373	0.319438
H350	H	-0.201284	-0.591720	0.291189
H351	H	-0.209860	-0.591634	0.348908
H352	H	-0.215821	-0.641232	0.346790
H353	H	-0.122463	-0.616128	0.299711
H354	H	-0.128500	-0.665699	0.297626
H355	H	0.023205	-0.376060	0.353221
H356	H	-0.224299	-0.529059	0.291228
O357	O	-0.228505	-0.604569	0.446271
C358	C	-0.284693	-0.642772	0.512017
C359	C	-0.257253	-0.629595	0.458270
H360	H	-0.307936	-0.663016	0.521736
H361	H	-0.308000	-0.609036	0.521799
H362	H	-0.258428	-0.666049	0.532312
H363	H	-0.283484	-0.606330	0.437938
H364	H	-0.233940	-0.663350	0.448524
H365	H	0.549371	-0.578259	0.554780
O366	O	-0.130265	-0.557308	0.253616
C367	C	-0.135382	-0.515288	0.174785
C368	C	-0.162773	-0.528464	0.228542
H369	H	-0.161653	-0.491958	0.154497
H370	H	-0.112125	-0.549023	0.164996
H371	H	-0.112085	-0.495102	0.165065
H372	H	-0.186097	-0.548638	0.238300
H373	H	-0.186001	-0.494711	0.238302
