data_functionalizedCrystal
_audit_creation_method	'MofGen! by Chris Wilmer'
_symmetry_space_group_name_H-M	'P1'
_symmetry_Int_Tables_number	1
_symmetry_cell_setting	triclinic
loop_
_symmetry_equiv_pos_as_xyz
  x,y,z
_cell_length_a	12.645331
_cell_length_b	12.645330
_cell_length_c	13.032268
_cell_angle_alpha	97.151313
_cell_angle_beta	97.166696
_cell_angle_gamma	90.018103
loop_
_atom_site_label
_atom_site_type_symbol
_atom_site_fract_x
_atom_site_fract_y
_atom_site_fract_z
Zn1	Zn	1.544561	-0.498099	-0.590770
Zn2	Zn	1.566972	-0.652885	-0.416038
Zn3	Zn	1.389802	-0.475640	-0.416056
Zn4	Zn	1.367261	-0.675318	-0.590741
O5	O	1.467149	-0.575486	-0.503401
O6	O	1.695881	-0.518643	-0.567596
O7	O	1.562282	-0.610585	-0.269807
O8	O	1.410386	-0.330274	-0.439252
O9	O	1.712345	-0.632363	-0.439221
O10	O	1.524087	-0.346775	-0.567614
O11	O	1.432117	-0.480364	-0.269821
O12	O	1.238465	-0.502117	-0.439224
O13	O	1.371968	-0.670598	-0.736977
O14	O	1.221905	-0.648820	-0.567564
O15	O	1.502229	-0.540396	-0.736999
O16	O	1.540425	-0.804205	-0.439192
O17	O	1.393699	-0.820687	-0.567546
C18	C	1.191720	-0.575466	-0.503393
C19	C	1.073888	-0.575487	-0.503414
C20	C	1.018638	-0.667902	-0.584035
C21	C	0.896109	-0.668208	-0.583796
C22	C	0.920150	-0.591126	-0.393152
C23	C	1.042688	-0.591765	-0.393619
C24	C	1.025044	-0.467134	-0.532092
C25	C	0.902126	-0.468066	-0.534520
C26	C	1.467074	-0.850913	-0.503387
C27	C	1.467134	-0.968747	-0.503415
C28	C	1.375134	-1.146756	-0.584411
C29	C	1.374750	-1.024163	-0.584151
C30	C	1.451088	-0.999159	-0.393288
C31	C	1.450526	-1.121821	-0.393780
C32	C	1.575794	-1.139472	-0.531653
C33	C	1.574796	-1.017175	-0.534061
C34	C	1.743653	-0.575506	-0.503410
C35	C	1.861483	-0.575514	-0.503414
C36	C	1.432085	-0.610504	-0.775965
C37	C	1.417142	-0.625427	-0.892115
C38	C	1.467251	-0.298985	-0.503439
C39	C	1.467294	-0.181157	-0.503455
C40	C	1.474931	-0.567659	-0.943909
C41	C	1.459489	-0.583081	-1.063957
C42	C	1.502138	-0.540526	-0.231898
C43	C	1.517286	-0.525305	-0.115748
H44	H	1.037584	-0.660080	-0.666033
H45	H	1.045807	-0.450075	-0.611139
H46	H	1.051839	-0.748036	-0.565240
O47	O	0.883656	-0.694205	-0.360483
H48	H	0.902114	-0.761885	-0.417950
H49	H	1.398570	-0.643954	-1.108484
H50	H	1.294027	-0.992523	-0.565470
H51	H	0.862615	-0.456027	-0.615666
O52	O	1.268846	-1.184534	-0.559994
H53	H	1.217431	-1.114805	-0.544014
O54	O	0.860457	-0.774938	-0.558570
H55	H	0.930768	-0.826532	-0.546486
H56	H	1.578192	-0.464419	-1.071222
H57	H	0.898965	-0.525262	-0.331434
O58	O	1.669036	-0.967251	-0.461644
H59	H	1.743666	-1.003211	-0.485465
H60	H	1.644282	-1.160866	-0.472688
O61	O	1.555622	-0.487025	-0.884938
H62	H	1.555097	-0.487574	-0.799902
H63	H	1.356228	-0.686295	-0.936647
O64	O	1.073525	-0.376161	-0.454345
H65	H	1.038644	-0.299952	-0.475119
O66	O	0.842327	-0.657510	-0.692068
H67	H	0.903802	-0.652076	-0.745073
O68	O	1.084678	-0.696101	-0.361522
H69	H	1.017442	-0.745628	-0.345819
O70	O	1.346025	-1.155767	-0.362147
H71	H	1.296364	-1.084592	-0.346649
H72	H	0.878514	-0.396718	-0.480127
H73	H	1.383145	-1.004525	-0.665810
O74	O	1.092619	-0.505436	-0.311300
H75	H	1.029217	-0.463422	-0.271328
H76	H	1.515508	-1.143445	-0.331404
O77	O	1.385920	-1.200196	-0.692766
H78	H	1.463553	-1.176984	-0.715522
O79	O	1.538005	-0.949966	-0.311194
H80	H	1.593692	-0.903202	-0.348102
O81	O	1.347790	-0.954470	-0.361071
H82	H	1.337341	-0.976498	-0.283084
H83	H	1.593206	-1.180481	-0.610592
H84	H	1.587155	-0.998462	-0.615108
