data_functionalizedCrystal
_audit_creation_method	'MofGen! by Chris Wilmer'
_symmetry_space_group_name_H-M	'P1'
_symmetry_Int_Tables_number	1
_symmetry_cell_setting	triclinic
loop_
_symmetry_equiv_pos_as_xyz
  x,y,z
_cell_length_a	15.944551
_cell_length_b	15.944551
_cell_length_c	14.421503
_cell_angle_alpha	90.003141
_cell_angle_beta	90.003340
_cell_angle_gamma	96.501262
loop_
_atom_site_label
_atom_site_type_symbol
_atom_site_fract_x
_atom_site_fract_y
_atom_site_fract_z
O1	O	0.108320	-1.114529	-0.077017
O2	O	0.121677	-0.869980	-0.077040
O3	O	-0.007276	-0.998933	-0.077020
O4	O	0.237273	-0.985576	-0.077038
O5	O	-0.007257	-0.998911	0.077204
O6	O	0.121696	-0.869958	0.077183
O7	O	0.108340	-1.114508	0.077206
Cu8	Cu	0.115020	-0.992231	0.091277
Cu9	Cu	0.114997	-0.992256	-0.091110
O10	O	0.237293	-0.985555	0.077186
C11	C	-0.038561	-0.998367	0.000092
C12	C	-0.131807	-0.996705	0.000093
C13	C	0.121132	-0.838675	0.000069
C14	C	0.119470	-0.745429	0.000060
C15	C	0.108885	-1.145813	0.000096
C16	C	0.110547	-1.239059	0.000098
C17	C	-0.346663	-0.912801	0.000072
C18	C	-0.407671	-0.951753	0.076117
C19	C	-0.302533	-0.993698	0.000085
C20	C	-0.407674	-0.951793	-0.075935
C21	C	-0.467445	-0.990787	0.000074
C22	C	-0.362312	-1.032672	0.076193
C23	C	-0.362308	-1.032701	-0.075927
C24	C	-0.423298	-1.071711	0.000136
C25	C	-0.207530	-0.995372	0.000092
C26	C	-0.562446	-0.989119	0.000073
C27	C	0.268577	-0.986120	0.000072
C28	C	0.361823	-0.987782	0.000066
N29	N	0.115035	-0.992219	0.219558
C30	C	0.035565	-0.530572	0.000084
C31	C	0.074518	-0.469563	-0.075959
C32	C	0.116462	-0.574703	0.000071
C33	C	0.074556	-0.469564	0.076093
C34	C	0.113551	-0.409790	0.000086
C35	C	0.155437	-0.514922	-0.076035
C36	C	0.155464	-0.514929	0.076086
C37	C	0.194476	-0.453937	0.000024
C38	C	0.118137	-0.669705	0.000062
C39	C	0.111883	-0.314789	0.000089
N40	N	0.114975	-0.992275	-0.219392
C41	C	0.174636	-0.932581	0.469202
C42	C	0.190943	-1.008481	0.531011
C43	C	0.115015	-0.992240	0.408719
C44	C	0.098727	-0.916359	0.531005
C45	C	0.114997	-0.992253	0.591441
C46	C	0.131360	-1.068178	0.469167
C47	C	0.039111	-0.976007	0.469156
C48	C	0.055386	-1.051961	0.530936
C49	C	0.115027	-0.992231	0.303458
C50	C	0.114985	-0.992270	0.696700
H51	H	-0.313356	-0.845652	0.000141
H52	H	-0.456457	-1.138919	0.000186
H53	H	0.145205	-1.132368	0.442119
H54	H	0.189620	-0.534918	-0.140394
H55	H	0.004956	-1.102474	0.557872
H56	H	-0.427758	-0.917575	-0.140230
H57	H	-0.342186	-1.066897	-0.140214
H58	H	0.225096	-0.882181	0.442096
H59	H	0.040333	-0.449469	0.140379
H60	H	-0.031573	-0.563905	-0.000005
H61	H	0.261683	-0.420779	-0.000023
H62	H	0.040294	-0.449461	-0.140243
H63	H	-0.025051	-0.962240	0.441965
H64	H	0.189660	-0.535052	0.140373
H65	H	0.084959	-0.852183	0.558170
H66	H	0.255126	-1.022224	0.558180
H67	H	-0.342314	-1.066850	0.140554
H68	H	-0.427771	-0.917527	0.140401
