data_functionalizedCrystal
_audit_creation_method	'MofGen! by Chris Wilmer'
_symmetry_space_group_name_H-M	'P1'
_symmetry_Int_Tables_number	1
_symmetry_cell_setting	triclinic
loop_
_symmetry_equiv_pos_as_xyz
  x,y,z
_cell_length_a	18.878441
_cell_length_b	15.698487
_cell_length_c	18.878441
_cell_angle_alpha	60.000646
_cell_angle_beta	90.000195
_cell_angle_gamma	59.997505
loop_
_atom_site_label
_atom_site_type_symbol
_atom_site_fract_x
_atom_site_fract_y
_atom_site_fract_z
Zr1	Zr	0.682403	0.932365	-0.092938
O2	O	0.569291	1.110086	-0.206042
O3	O	0.717078	0.754651	-0.058268
O4	O	0.717072	0.932368	-0.206045
O5	O	0.569301	0.932364	0.058307
O6	O	0.833645	0.932361	-0.206044
O7	O	0.569296	0.932369	-0.058265
O8	O	0.833655	0.614458	0.058302
O9	O	0.569290	1.250268	-0.206040
O10	O	0.818863	0.827739	-0.043478
O11	O	0.731870	0.827740	0.043518
O12	O	0.731863	1.036979	-0.130471
O13	O	0.644869	1.036980	-0.043475
Zr14	Zr	0.868330	0.932347	0.092982
Zr15	Zr	0.868323	0.932355	-0.092937
Zr16	Zr	0.682410	0.932357	0.092981
Zr17	Zr	0.682403	1.155938	-0.092934
Zr18	Zr	0.868330	0.708774	0.092978
O19	O	0.833655	1.110061	0.058312
O20	O	0.833644	1.110072	-0.206041
O21	O	0.569301	1.110075	0.058310
O22	O	0.981442	0.754625	0.206087
O23	O	0.981432	0.754636	-0.058266
O24	O	0.717088	0.754639	0.206085
O25	O	0.981432	0.932347	-0.058263
O26	O	0.833660	0.932344	0.206089
O27	O	0.717088	0.932350	0.206088
O28	O	0.981436	0.932342	0.058309
O29	O	0.717072	1.250260	-0.206039
O30	O	0.833661	0.614452	0.206083
O31	O	0.981442	0.614444	0.206084
O32	O	0.981436	0.614450	0.058303
O33	O	0.569296	1.250261	-0.058259
O34	O	0.717077	1.250253	-0.058258
O35	O	0.818870	0.827732	0.130515
O36	O	0.905863	0.827731	0.043519
O37	O	0.818863	1.036971	-0.043474
O38	O	0.731869	1.036972	0.043522
C39	C	0.775367	0.652700	0.000017
C40	C	0.775367	0.557787	0.000015
C41	C	0.542809	0.932368	0.000021
C42	C	0.463881	0.932373	0.000020
C43	C	0.169346	0.823120	0.045432
C44	C	0.243503	0.823125	0.045427
C45	C	0.235164	0.932351	0.000020
C46	C	0.152661	1.041578	-0.045394
C47	C	0.078505	1.041572	-0.045394
C48	C	0.307227	1.041585	-0.045389
C49	C	0.381387	1.041592	-0.045388
C50	C	0.472224	0.823138	0.045433
C51	C	0.398069	0.823131	0.045432
C52	C	0.315571	0.932359	0.000020
C53	C	0.775364	0.384005	0.000030
C54	C	0.775364	0.480710	0.000024
C55	C	1.007923	0.932343	0.000023
C56	C	1.086851	0.932339	0.000024
C57	C	0.775357	0.932366	-0.232534
C58	C	0.775354	0.932369	-0.311461
C59	C	0.775366	1.212011	0.000027
C60	C	0.775366	1.306924	0.000029
C61	C	0.729941	1.041589	-0.393951
C62	C	0.729950	1.041585	-0.468109
C63	C	0.775367	0.932360	-0.459775
C64	C	0.820785	0.823131	-0.377277
C65	C	0.820782	0.823137	-0.303121
C66	C	0.820789	0.823128	-0.531844
C67	C	0.820791	0.823122	-0.606005
C68	C	0.729957	1.041576	-0.696832
C69	C	0.729953	1.041582	-0.622676
C70	C	0.775370	0.932353	-0.540183
C71	C	0.775375	0.932346	0.232578
C72	C	0.775378	0.932342	0.311506
C73	C	1.007924	0.652687	0.000018
C74	C	1.086852	0.557770	0.000017
C75	C	0.775375	0.652690	0.232573
C76	C	0.775379	0.557774	0.311498
C77	C	1.007933	0.652677	0.232574
C78	C	1.086864	0.557757	0.311500
C79	C	0.542800	1.212034	-0.232530
C80	C	0.463869	1.306954	-0.311456
C81	C	0.542809	1.212024	0.000026
C82	C	0.463881	1.306941	0.000027
C83	C	0.775357	1.212021	-0.232529
C84	C	0.775354	1.306937	-0.311454
C85	C	1.078504	0.513201	-0.045403
C86	C	1.152658	0.424029	-0.045422
C87	C	1.235159	0.379422	-0.000015
C88	C	1.243505	0.424000	0.045406
C89	C	1.169352	0.513177	0.045419
C90	C	0.820793	0.513196	0.393982
C91	C	0.820793	0.424025	0.468148
C92	C	0.775382	0.379427	0.459829
C93	C	0.729962	0.424014	0.377337
C94	C	0.729958	0.513190	0.303172
C95	C	1.169348	0.513181	0.303154
C96	C	1.243519	0.424006	0.377306
C97	C	1.235204	0.379402	0.459804
C98	C	1.152711	0.423987	0.468149
C99	C	1.078542	0.513167	0.393997
C100	C	0.381385	1.351541	-0.303110
C101	C	0.307214	1.440744	-0.377262
C102	C	0.315529	1.485352	-0.459760
C103	C	0.398022	1.440762	-0.468105
C104	C	0.472191	1.351567	-0.393953
C105	C	0.472229	1.351520	0.045440
C106	C	0.398075	1.440717	0.045438
C107	C	0.315574	1.485327	0.000028
C108	C	0.307228	1.440744	-0.045390
C109	C	0.381381	1.351555	-0.045392
C110	C	0.820773	1.351507	-0.303107
C111	C	0.820787	1.440679	-0.377259
C112	C	0.775376	1.485285	-0.459757
C113	C	0.729956	1.440707	-0.468103
C114	C	0.729947	1.351531	-0.393952
H115	H	0.176146	0.734175	0.082412
Cl116	Cl	1.142146	0.368001	-0.102523
H117	H	1.295604	0.306786	0.520176
H118	H	0.692958	1.315252	-0.400760
H119	H	0.539398	1.315205	0.082423
Cl120	Cl	1.328373	0.267310	-0.000038
Cl121	Cl	0.370908	1.295480	-0.199407
H122	H	1.145953	0.387658	0.535328
Cl123	Cl	0.672841	1.178909	-0.404439
H124	H	1.011382	0.549449	0.400805
H125	H	0.857774	0.734182	-0.464675
Cl126	Cl	0.347210	0.685814	0.102514
Cl127	Cl	0.877886	1.496708	-0.366748
H128	H	0.240045	1.477080	-0.082361
H129	H	0.240054	1.130530	-0.082373
Cl130	Cl	1.179861	0.569188	0.102532
Cl131	Cl	0.408554	0.685817	0.102528
H132	H	0.692972	1.130515	-0.764003
H133	H	0.374572	1.315261	-0.082370
H134	H	0.775393	0.306815	0.520225
Cl135	Cl	0.877870	1.295447	-0.199404
H136	H	0.692990	0.387689	0.370576
H137	H	1.310687	0.387668	0.082375
H138	H	0.240052	1.477035	-0.370451
Cl139	Cl	0.408587	1.496739	0.102543
H140	H	0.539399	0.734200	0.082409
Cl141	Cl	0.877890	0.569240	0.404464
Cl142	Cl	0.222278	1.597483	-0.552972
H143	H	0.857782	0.387733	0.535310
H144	H	0.775390	1.557899	-0.520129
Cl145	Cl	0.408460	1.496849	-0.571823
H146	H	0.692979	0.549473	0.236013
Cl147	Cl	0.575883	1.295517	-0.404461
H148	H	1.176135	0.549484	0.235986
Cl149	Cl	0.877883	0.685819	-0.366800
H150	H	0.857762	0.734199	-0.235954
H151	H	0.692983	1.477040	-0.535283
Cl152	Cl	0.370902	1.178906	-0.102476
Cl153	Cl	0.142177	1.178892	-0.102471
H154	H	0.255200	1.557950	0.000038
Cl155	Cl	-0.025205	1.178882	-0.102486
H156	H	0.692966	1.130522	-0.629468
Cl157	Cl	0.672854	1.178897	-0.571810
H158	H	0.857773	0.734182	-0.599213
H159	H	1.011334	0.549519	-0.082389
Cl160	Cl	1.347213	0.367969	0.366796
