data_functionalizedCrystal
_audit_creation_method	'MofGen! by Chris Wilmer'
_symmetry_space_group_name_H-M	'P1'
_symmetry_Int_Tables_number	1
_symmetry_cell_setting	triclinic
loop_
_symmetry_equiv_pos_as_xyz
  x,y,z
_cell_length_a	19.805407
_cell_length_b	18.050588
_cell_length_c	19.805399
_cell_angle_alpha	90.025240
_cell_angle_beta	90.020409
_cell_angle_gamma	90.031501
loop_
_atom_site_label
_atom_site_type_symbol
_atom_site_fract_x
_atom_site_fract_y
_atom_site_fract_z
Zn1	Zn	1.034721	-0.295638	0.382746
Zn2	Zn	1.368054	0.037695	0.716079
Zn3	Zn	1.701388	0.371028	1.049412
Zn4	Zn	1.034629	-0.419830	0.269562
Zn5	Zn	1.367963	-0.086497	0.602895
Zn6	Zn	1.701296	0.246836	0.936229
Zn7	Zn	0.921536	-0.295663	0.269569
Zn8	Zn	1.254869	0.037670	0.602902
Zn9	Zn	1.588202	0.371004	0.936235
Zn10	Zn	0.921493	-0.419795	0.382707
Zn11	Zn	1.254826	-0.086462	0.716041
Zn12	Zn	1.588159	0.246872	1.049374
O13	O	0.978095	-0.357732	0.326146
O14	O	1.311428	-0.024398	0.659479
O15	O	1.644761	0.308935	0.992813
O16	O	1.129425	-0.312117	0.367745
O17	O	1.462759	0.021216	0.701078
O18	O	1.796092	0.354550	1.034412
O19	O	1.019607	-0.403384	0.174846
O20	O	1.352940	-0.070051	0.508180
O21	O	1.686274	0.263282	0.841513
O22	O	0.936606	-0.191735	0.284601
O23	O	1.269939	0.141598	0.617934
O24	O	1.603273	0.474932	0.951267
O25	O	1.129358	-0.403360	0.284590
O26	O	1.462692	-0.070027	0.617923
O27	O	1.796025	0.263306	0.951256
O28	O	1.019763	-0.191717	0.367751
O29	O	1.353096	0.141616	0.701085
O30	O	1.686429	0.474950	1.034418
O31	O	0.936517	-0.312159	0.174851
O32	O	1.269851	0.021174	0.508185
O33	O	1.603184	0.354508	0.841518
O34	O	0.826813	-0.312125	0.284563
O35	O	1.160147	0.021208	0.617897
O36	O	1.493480	0.354542	0.951230
O37	O	0.936533	-0.403300	0.477429
O38	O	1.269866	-0.069967	0.810762
O39	O	1.603200	0.263366	1.144096
O40	O	0.826782	-0.403324	0.367686
O41	O	1.160115	-0.069991	0.701019
O42	O	1.493449	0.263342	1.034352
O43	O	1.019721	-0.312083	0.477457
O44	O	1.353055	0.021251	0.810791
O45	O	1.686388	0.354584	1.144124
O46	O	1.019566	-0.523750	0.284552
O47	O	1.352899	-0.190417	0.617886
O48	O	1.686232	0.142916	0.951219
O49	O	0.936445	-0.523724	0.367679
O50	O	1.269778	-0.190391	0.701013
O51	O	1.603111	0.142942	1.034346
C52	C	0.802239	-0.357724	0.326122
C53	C	1.135572	-0.024391	0.659455
C54	C	1.468905	0.308943	0.992788
C55	C	0.727007	-0.357739	0.326127
C56	C	1.060340	-0.024405	0.659460
C57	C	1.393673	0.308928	0.992794
C58	C	0.265254	-0.310310	0.369538
C59	C	0.598587	0.023023	0.702871
C60	C	0.931921	0.356357	1.036204
C61	C	0.335943	-0.310311	0.369533
C62	C	0.669276	0.023022	0.702866
C63	C	1.002609	0.356355	1.036199
C64	C	0.371245	-0.357743	0.326168
C65	C	0.704578	-0.024410	0.659501
C66	C	1.037912	0.308924	0.992834
C67	C	0.335855	-0.405182	0.282810
C68	C	0.669189	-0.071848	0.616143
C69	C	1.002522	0.261485	0.949477
C70	C	0.265168	-0.405183	0.282819
C71	C	0.598501	-0.071850	0.616152
C72	C	0.931835	0.261483	0.949485
C73	C	0.620929	-0.405176	0.282774
C74	C	0.954262	-0.071843	0.616107
C75	C	1.287595	0.261491	0.949441
C76	C	0.691621	-0.405169	0.282767
C77	C	1.024954	-0.071835	0.616101
C78	C	1.358287	0.261498	0.949434
C79	C	0.691703	-0.310304	0.369488
C80	C	1.025036	0.023029	0.702821
C81	C	1.358370	0.356363	1.036155
C82	C	0.621016	-0.310306	0.369497
C83	C	0.954349	0.023028	0.702830
C84	C	1.287682	0.356361	1.036163
C85	C	0.585632	-0.357747	0.326142
C86	C	0.918966	-0.024413	0.659475
C87	C	1.252299	0.308920	0.992808
C88	C	0.508984	-0.357746	0.326148
C89	C	0.842317	-0.024412	0.659482
C90	C	1.175651	0.308921	0.992815
C91	C	0.447892	-0.357741	0.326157
C92	C	0.781225	-0.024407	0.659491
C93	C	1.114559	0.308926	0.992824
C94	C	0.978009	-0.550684	0.326126
C95	C	1.311342	-0.217351	0.659459
C96	C	1.644676	0.115983	0.992792
C97	C	0.978034	-0.633230	0.326140
C98	C	1.311367	-0.299896	0.659473
C99	C	1.644701	0.033437	0.992806
C100	C	0.932904	-0.882068	0.371345
C101	C	1.266237	-0.548735	0.704678
C102	C	1.599571	-0.215401	1.038011
C103	C	0.994622	-0.832596	0.387956
C104	C	1.327955	-0.499262	0.721289
C105	C	1.661288	-0.165929	1.054623
C106	C	0.978175	-0.930350	0.326177
C107	C	1.311508	-0.597017	0.659511
C108	C	1.644841	-0.263683	0.992844
C109	C	0.916391	-0.832740	0.309579
C110	C	1.249724	-0.499407	0.642913
C111	C	1.583058	-0.166074	0.976246
C112	C	0.978102	-0.784365	0.326160
C113	C	1.311436	-0.451032	0.659494
C114	C	1.644769	-0.117698	0.992827
C115	C	1.039925	-0.881965	0.342821
C116	C	1.373259	-0.548632	0.676154
C117	C	1.706592	-0.215298	1.009488
C118	C	0.961653	-0.882114	0.264415
C119	C	1.294987	-0.548781	0.597749
C120	C	1.628320	-0.215447	0.931082
C121	C	1.023413	-0.832664	0.281003
C122	C	1.356747	-0.499331	0.614337
C123	C	1.690080	-0.165997	0.947670
C124	C	0.978215	-1.014448	0.326189
C125	C	1.311549	-0.681115	0.659522
C126	C	1.644882	-0.347781	0.992855
C127	C	0.978068	-0.700268	0.326149
C128	C	1.311402	-0.366935	0.659482
C129	C	1.644735	-0.033602	0.992816
C130	C	1.154637	-0.357740	0.326171
C131	C	1.487971	-0.024407	0.659504
C132	C	1.821304	0.308927	0.992838
C133	C	1.229869	-0.357743	0.326182
C134	C	1.563203	-0.024410	0.659515
C135	C	1.896536	0.308923	0.992848
C136	C	0.978133	-0.357685	0.502689
C137	C	1.311466	-0.024352	0.836022
C138	C	1.644799	0.308982	1.169355
C139	C	0.978149	-0.357665	0.577921
C140	C	1.311482	-0.024332	0.911254
C141	C	1.644815	0.309002	1.244587
C142	C	0.978199	-0.164026	0.326181
C143	C	1.311533	0.169307	0.659514
C144	C	1.644866	0.502641	0.992848
C145	C	0.978244	-0.081480	0.326196
C146	C	1.311577	0.251853	0.659529
C147	C	1.644911	0.585186	0.992863
C148	C	0.978096	-0.357725	0.150290
C149	C	1.311429	-0.024391	0.483623
C150	C	1.644762	0.308942	0.816957
C151	C	0.978211	-0.357535	0.075058
C152	C	1.311544	-0.024202	0.408392
C153	C	1.644877	0.309131	0.741725
C154	C	1.021466	-0.310166	0.613281
C155	C	1.354799	0.023168	0.946614
C156	C	1.688133	0.356501	1.279947
C157	C	1.021473	-0.310144	0.683969
C158	C	1.354806	0.023189	1.017303
C159	C	1.688139	0.356523	1.350636
C160	C	0.978166	-0.357626	0.719296
C161	C	1.311499	-0.024293	1.052630
C162	C	1.644832	0.309041	1.385963
C163	C	0.934844	-0.405128	0.683931
C164	C	1.268177	-0.071794	1.017265
C165	C	1.601510	0.261539	1.350598
C166	C	0.934834	-0.405145	0.613244
C167	C	1.268167	-0.071812	0.946578
C168	C	1.601501	0.261522	1.279911
C169	C	0.934882	-0.405058	0.969005
C170	C	1.268215	-0.071725	1.302338
C171	C	1.601549	0.261608	1.635672
C172	C	0.934897	-0.405039	1.039697
C173	C	1.268230	-0.071706	1.373030
C174	C	1.601563	0.261628	1.706364
C175	C	1.021521	-0.310058	1.039730
C176	C	1.354854	0.023276	1.373063
C177	C	1.688188	0.356609	1.706397
C178	C	1.021511	-0.310075	0.969043
C179	C	1.354844	0.023258	1.302376
C180	C	1.688178	0.356592	1.635709
C181	C	0.978187	-0.357573	0.933684
C182	C	1.311520	-0.024240	1.267017
C183	C	1.644854	0.309094	1.600351
C184	C	0.978179	-0.357595	0.857035
C185	C	1.311512	-0.024262	1.190369
C186	C	1.644846	0.309072	1.523702
C187	C	0.978176	-0.357609	0.795944
C188	C	1.311510	-0.024275	1.129277
C189	C	1.644843	0.309058	1.462610
H190	H	0.720521	-0.271677	0.404792
H191	H	1.053854	0.061656	0.738125
H192	H	1.387187	0.394989	1.071458
H193	H	0.899615	-0.443745	0.940224
H194	H	1.232948	-0.110412	1.273558
H195	H	1.566281	0.222921	1.606891
F196	F	0.848138	-0.804473	0.291238
F197	F	1.181471	-0.471140	0.624571
F198	F	1.514804	-0.137807	0.957905
H199	H	0.236359	-0.443810	0.247515
H200	H	0.569692	-0.110477	0.580848
H201	H	0.903025	0.222857	0.914182
H202	H	1.008569	-0.810847	0.440180
H203	H	1.341903	-0.477514	0.773513
H204	H	1.675236	-0.144180	1.106846
F205	F	1.067564	-0.259632	0.575689
F206	F	1.400897	0.073702	0.909022
F207	F	1.734230	0.407035	1.242356
F208	F	0.888728	-0.455698	0.575612
F209	F	1.222062	-0.122365	0.908945
F210	F	1.555395	0.210968	1.242279
H211	H	1.056795	-0.271380	1.068527
H212	H	1.390128	0.061954	1.401861
H213	H	1.723462	0.395287	1.735194
F214	F	0.373429	-0.455665	0.236661
F215	F	0.706762	-0.122332	0.569994
F216	F	1.040095	0.211001	0.903327
F217	F	0.729191	-0.455654	0.236610
F218	F	1.062524	-0.122321	0.569943
F219	F	1.395857	0.211012	0.903277
H220	H	0.899580	-0.443786	0.712701
H221	H	1.232913	-0.110452	1.046034
H222	H	1.566247	0.222881	1.379367
H223	H	0.364750	-0.271689	0.404840
H224	H	0.698083	0.061644	0.738173
H225	H	1.031416	0.394978	1.071506
H226	H	0.592276	-0.271679	0.404806
H227	H	0.925609	0.061654	0.738140
H228	H	1.258943	0.394987	1.071473
H229	H	0.894698	-0.903758	0.409577
H230	H	1.228031	-0.570425	0.742911
H231	H	1.561365	-0.237091	1.076244
F232	F	0.943399	-0.910565	0.196174
F233	F	1.276733	-0.577231	0.529508
F234	F	1.610066	-0.243898	0.862841
H235	H	0.899628	-0.443706	1.068459
H236	H	1.232961	-0.110373	1.401792
H237	H	1.566294	0.222961	1.735125
H238	H	0.592128	-0.443803	0.247470
H239	H	0.925461	-0.110470	0.580803
H240	H	1.258794	0.222863	0.914136
F241	F	1.108200	-0.910108	0.361240
F242	F	1.441533	-0.576775	0.694573
F243	F	1.774867	-0.243442	1.027906
H244	H	1.061710	-0.811109	0.242800
H245	H	1.395044	-0.477776	0.576133
H246	H	1.728377	-0.144443	0.909466
F247	F	0.227689	-0.259822	0.415690
F248	F	0.561022	0.073511	0.749023
F249	F	0.894356	0.406845	1.082356
F250	F	1.067600	-0.259614	0.721599
F251	F	1.400933	0.073719	1.054932
F252	F	1.734267	0.407052	1.388266
H253	H	1.056779	-0.271413	0.940283
H254	H	1.390112	0.061921	1.273616
H255	H	1.723445	0.395254	1.606949
