data_functionalizedCrystal
_audit_creation_method	'MofGen! by Chris Wilmer'
_symmetry_space_group_name_H-M	'P1'
_symmetry_Int_Tables_number	1
_symmetry_cell_setting	triclinic
loop_
_symmetry_equiv_pos_as_xyz
  x,y,z
_cell_length_a	19.805407
_cell_length_b	19.805404
_cell_length_c	12.759393
_cell_angle_alpha	90.035437
_cell_angle_beta	90.020862
_cell_angle_gamma	90.026910
loop_
_atom_site_label
_atom_site_type_symbol
_atom_site_fract_x
_atom_site_fract_y
_atom_site_fract_z
Zn1	Zn	1.034741	-0.269472	0.594019
Zn2	Zn	1.034644	-0.382677	0.418328
Zn3	Zn	0.921550	-0.269502	0.418351
Zn4	Zn	0.921513	-0.382619	0.593962
O5	O	0.978112	-0.326067	0.506165
O6	O	1.129445	-0.284500	0.570728
O7	O	1.019616	-0.367700	0.271310
O8	O	0.936621	-0.174781	0.441688
O9	O	1.129373	-0.367671	0.441648
O10	O	1.019782	-0.174759	0.570751
O11	O	0.936526	-0.284551	0.271327
O12	O	0.826828	-0.284495	0.441632
O13	O	0.936558	-0.367573	0.740991
O14	O	0.826801	-0.367602	0.570653
O15	O	1.019747	-0.284444	0.741033
O16	O	1.019580	-0.477385	0.441592
O17	O	0.936464	-0.477343	0.570629
C18	C	0.802256	-0.326046	0.506140
C19	C	0.727024	-0.326053	0.506154
C20	C	0.978026	-0.501923	0.506125
C21	C	0.978051	-0.577155	0.506142
C22	C	1.021557	-1.038946	0.439122
C23	C	1.021525	-0.968257	0.439102
C24	C	0.978201	-0.932917	0.506221
C25	C	0.934900	-0.968268	0.573357
C26	C	0.934929	-1.038956	0.573372
C27	C	0.934782	-0.683195	0.573299
C28	C	0.934758	-0.612503	0.573282
C29	C	1.021379	-0.612497	0.439030
C30	C	1.021407	-0.683184	0.439044
C31	C	0.978105	-0.718530	0.506176
C32	C	0.978139	-0.795178	0.506196
C33	C	0.978170	-0.856270	0.506207
C34	C	0.691718	-0.282823	0.573468
C35	C	0.621029	-0.282826	0.573472
C36	C	0.585648	-0.326064	0.506166
C37	C	0.620959	-0.369297	0.438845
C38	C	0.691647	-0.369289	0.438836
C39	C	0.335886	-0.369327	0.438877
C40	C	0.265194	-0.369333	0.438893
C41	C	0.265269	-0.282864	0.573513
C42	C	0.335956	-0.282857	0.573504
C43	C	0.371261	-0.326086	0.506179
C44	C	0.447909	-0.326081	0.506174
C45	C	0.509001	-0.326073	0.506176
C46	C	1.154655	-0.326089	0.506191
C47	C	1.229887	-0.326098	0.506202
C48	C	0.978159	-0.325999	0.780199
C49	C	0.978179	-0.325970	0.896975
C50	C	0.978217	-0.149524	0.506229
C51	C	0.978261	-0.074292	0.506256
C52	C	0.978104	-0.326086	0.233198
C53	C	0.978215	-0.325925	0.116422
C54	C	1.021502	-0.282681	0.951861
C55	C	1.021518	-0.282656	1.061585
C56	C	0.934888	-0.369216	1.061528
C57	C	0.934869	-0.369236	0.951806
C58	C	1.071519	-0.232708	0.951895
C59	C	1.071535	-0.232683	1.061619
H60	H	1.056841	-1.067715	0.384472
C61	C	0.730630	-0.235256	0.647510
N62	N	0.759937	-0.199425	0.703277
H63	H	1.056689	-0.711955	0.384393
H64	H	1.052792	-0.182877	1.095671
C65	C	0.582038	-0.416858	0.364806
N66	N	0.552723	-0.452684	0.309041
H67	H	0.899621	-0.939490	0.628003
H68	H	1.056636	-0.583711	0.384363
C69	C	1.052586	-0.161896	0.911697
N70	N	1.038324	-0.108561	0.881420
C71	C	0.887247	-0.416806	1.121852
N72	N	0.851364	-0.452651	1.167287
H73	H	0.899476	-0.583730	0.627940
C74	C	0.374871	-0.235289	0.647541
N75	N	0.404181	-0.199457	0.703303
H76	H	0.899518	-0.711965	0.627955
H77	H	0.592286	-0.247625	0.628288
H78	H	1.056779	-0.939478	0.384436
H79	H	0.236515	-0.247662	0.628328
H80	H	0.899677	-1.067734	0.628044
C81	C	0.226276	-0.416895	0.364839
N82	N	0.196964	-0.452715	0.309063
H83	H	1.121295	-0.251502	0.917860
C84	C	0.374712	-0.416884	0.364822
N85	N	0.403959	-0.452707	0.309041
C86	C	0.730483	-0.416848	0.364787
N87	N	0.759734	-0.452669	0.309010
C88	C	0.887201	-0.416848	0.891435
N89	N	0.851294	-0.452709	0.845965
H90	H	1.123953	-0.246726	1.091399
