data_functionalizedCrystal
_audit_creation_method	'MofGen! by Chris Wilmer'
_symmetry_space_group_name_H-M	'P1'
_symmetry_Int_Tables_number	1
_symmetry_cell_setting	triclinic
loop_
_symmetry_equiv_pos_as_xyz
  x,y,z
_cell_length_a	14.971506
_cell_length_b	19.288857
_cell_length_c	13.448316
_cell_angle_alpha	89.991240
_cell_angle_beta	89.992937
_cell_angle_gamma	83.377748
loop_
_atom_site_label
_atom_site_type_symbol
_atom_site_fract_x
_atom_site_fract_y
_atom_site_fract_z
O1	O	1.186443	0.090585	-0.082704
O2	O	0.925987	0.101410	-0.082705
O3	O	1.063744	-0.005109	-0.082692
O4	O	1.048685	0.197103	-0.082716
O5	O	1.063727	-0.005115	0.082692
O6	O	0.925969	0.101403	0.082679
O7	O	1.186426	0.090578	0.082680
Cu8	Cu	1.056196	0.095990	0.097780
Cu9	Cu	1.056217	0.095998	-0.097805
O10	O	1.048668	0.197096	0.082668
C11	C	0.892656	0.100920	-0.000013
C12	C	0.793368	0.099461	-0.000013
C13	C	0.354775	0.156474	-0.000030
C14	C	0.448068	0.157838	-0.000034
C15	C	0.505629	0.095255	-0.000022
C16	C	0.469892	0.031302	-0.000016
C17	C	0.376601	0.029938	-0.000019
C18	C	0.664340	0.034150	-0.000008
C19	C	0.757637	0.035514	-0.000004
C20	C	0.735807	0.162050	-0.000023
C21	C	0.642516	0.160686	-0.000026
C22	C	0.606786	0.096733	-0.000018
C23	C	1.063252	-0.030990	0.000001
C24	C	1.061801	-0.108099	0.000003
C25	C	1.061134	-0.144308	-0.090147
C26	C	1.059757	-0.216759	-0.090155
C27	C	1.059067	-0.252999	-0.000006
C28	C	1.059730	-0.216780	0.090157
C29	C	1.061097	-0.144330	0.090161
C30	C	1.109283	-0.373067	0.069053
C31	C	1.107922	-0.445516	0.069045
C32	C	1.054846	-0.476459	-0.000017
C33	C	1.003144	-0.434945	-0.069088
C34	C	1.004511	-0.362495	-0.069083
C35	C	1.057584	-0.331559	-0.000001
C36	C	1.052685	-0.591227	-0.090183
C37	C	1.051303	-0.663679	-0.090186
C38	C	1.051285	-0.663700	0.090128
C39	C	1.052657	-0.591249	0.090129
C40	C	1.053362	-0.555017	-0.000029
C41	C	1.219756	0.091068	-0.000014
C42	C	1.319045	0.092526	-0.000021
C43	C	1.049160	0.222978	-0.000027
C44	C	1.050611	0.300086	-0.000037
N45	N	1.056188	0.095984	0.235345
N46	N	1.056231	0.095998	-0.235369
C47	C	1.117206	0.048837	0.287391
C48	C	1.117212	0.048837	0.391494
C49	C	1.056203	0.095987	0.443549
C50	C	0.995179	0.143136	0.391496
C51	C	0.995170	0.143132	0.287395
C52	C	0.995203	0.143140	0.608476
C53	C	0.995213	0.143145	0.712585
C54	C	1.117246	0.048845	0.712575
C55	C	1.117237	0.048841	0.608474
C56	C	1.056213	0.095991	0.556428
H57	H	1.061704	-0.114813	-0.163561
H58	H	1.166919	0.010452	0.566091
O59	O	0.292700	0.223978	-0.000033
H60	H	0.221824	0.212289	-0.000021
H61	H	0.945509	0.181533	0.566104
O62	O	0.580433	0.228187	-0.000036
H63	H	0.537406	0.230590	0.067375
O64	O	1.183006	-0.002021	0.231246
H65	H	1.225429	-0.034810	0.284931
O66	O	1.183072	-0.002004	0.768709
H67	H	1.225505	-0.034782	0.715023
O68	O	0.929380	0.193998	0.447634
H69	H	0.886038	0.164708	0.495094
O70	O	1.059039	-0.255827	-0.187392
H71	H	1.059762	-0.218461	-0.250082
O72	O	0.948738	-0.317714	-0.143558
H73	H	0.911591	-0.351396	-0.191579
O74	O	0.929362	0.193986	0.231251
H75	H	0.886946	0.226779	0.284936
H76	H	0.635252	-0.017927	-0.000007
O77	O	0.486610	0.226810	-0.000021
H78	H	0.430912	0.270098	-0.000009
O79	O	0.774330	0.231033	-0.000033
H80	H	0.816310	0.234692	-0.067446
O81	O	0.819726	-0.031984	-0.000008
H82	H	0.779210	-0.076684	-0.000022
O83	O	0.531974	-0.036199	0.000007
H84	H	0.575019	-0.038604	-0.067390
O85	O	0.338055	-0.039033	0.000001
H86	H	0.393752	-0.082323	0.000022
H87	H	0.959925	-0.460136	-0.125325
H88	H	1.053253	-0.561725	-0.163595
H89	H	1.050755	-0.693158	-0.163601
O90	O	1.050547	-0.702776	0.187364
H91	H	1.049491	-0.759240	0.172218
O92	O	1.053400	-0.552189	0.187363
H93	H	1.052700	-0.589560	0.250050
O94	O	1.163680	-0.490291	0.143538
H95	H	1.200801	-0.456603	0.191577
H96	H	1.152503	-0.347879	0.125300
H97	H	1.059165	-0.246292	0.163556
H98	H	1.061637	-0.114849	0.163575
O99	O	1.183040	-0.002002	0.447633
H100	H	1.225474	-0.034778	0.393947
O101	O	0.929395	0.193984	0.768737
H102	H	0.886946	0.226759	0.715059
