data_functionalizedCrystal
_audit_creation_method	'MofGen! by Chris Wilmer'
_symmetry_space_group_name_H-M	'P1'
_symmetry_Int_Tables_number	1
_symmetry_cell_setting	triclinic
loop_
_symmetry_equiv_pos_as_xyz
  x,y,z
_cell_length_a	15.995350
_cell_length_b	14.519709
_cell_length_c	12.996460
_cell_angle_alpha	89.992910
_cell_angle_beta	89.998063
_cell_angle_gamma	83.586260
loop_
_atom_site_label
_atom_site_type_symbol
_atom_site_fract_x
_atom_site_fract_y
_atom_site_fract_z
O1	O	1.111165	0.118875	-0.085482
O2	O	0.867411	0.133554	-0.085503
O3	O	0.995751	-0.008036	-0.085483
O4	O	0.982825	0.260465	-0.085502
O5	O	0.995737	-0.008044	0.085651
O6	O	0.867398	0.133546	0.085630
O7	O	1.111151	0.118867	0.085652
Cu8	Cu	0.989273	0.126206	0.101267
Cu9	Cu	0.989289	0.126215	-0.101118
O10	O	0.982812	0.260457	0.085631
C11	C	0.995142	-0.042398	0.000084
C12	C	0.993337	-0.144776	0.000085
C13	C	0.836209	0.132943	0.000061
C14	C	0.743256	0.131124	0.000053
C15	C	0.986691	-0.519660	0.000057
C16	C	0.988537	-0.415355	0.000065
C17	C	0.990014	-0.332221	0.000072
C18	C	0.991859	-0.227910	0.000078
C19	C	0.405499	0.124590	0.000075
C20	C	0.452782	0.023752	0.000464
C21	C	0.549475	0.025572	0.000071
C22	C	0.573064	0.127831	0.000065
C23	C	0.532059	0.177572	-0.097661
C24	C	0.435419	0.175039	-0.097735
C25	C	0.435068	0.177113	0.096876
C26	C	0.532014	0.177089	0.098160
C27	C	0.667764	0.129668	0.000055
C28	C	0.310798	0.122756	0.000077
C29	C	1.142354	0.119478	0.000085
C30	C	1.235307	0.121297	0.000087
C31	C	0.983421	0.294819	0.000062
C32	C	0.985226	0.397197	0.000055
N33	N	0.989268	0.126199	0.243614
N34	N	0.989301	0.126215	-0.243466
C35	C	0.989288	0.126216	0.663428
C36	C	0.989280	0.126214	0.546623
C37	C	0.989279	0.126208	0.453525
C38	C	0.989270	0.126205	0.336712
H39	H	0.577839	-0.013527	0.070125
H40	H	0.547490	0.251660	0.104058
H41	H	0.577279	-0.013784	-0.070099
C42	C	0.426226	-0.030455	-0.093673
N43	N	0.406220	-0.071282	-0.164577
H44	H	0.560387	0.143031	-0.170385
H45	H	0.417062	0.138772	-0.170783
C46	C	0.551297	0.279065	-0.102583
N47	N	0.565790	0.355509	-0.106290
C48	C	0.392001	0.275052	-0.103755
N49	N	0.359303	0.350380	-0.108299
H50	H	0.414478	0.144144	0.170949
C51	C	0.392308	0.277551	0.097766
N52	N	0.360095	0.353197	0.098429
C53	C	0.427661	-0.030707	0.095141
N54	N	0.408734	-0.071727	0.166453
C55	C	0.568804	0.128008	0.195831
N56	N	0.596513	0.091031	0.269396
