data_functionalizedCrystal
_audit_creation_method	'MofGen! by Chris Wilmer'
_symmetry_space_group_name_H-M	'P1'
_symmetry_Int_Tables_number	1
_symmetry_cell_setting	triclinic
loop_
_symmetry_equiv_pos_as_xyz
  x,y,z
_cell_length_a	13.033409
_cell_length_b	16.625545
_cell_length_c	13.032268
_cell_angle_alpha	97.146495
_cell_angle_beta	105.162573
_cell_angle_gamma	82.856342
loop_
_atom_site_label
_atom_site_type_symbol
_atom_site_fract_x
_atom_site_fract_y
_atom_site_fract_z
Zn1	Zn	1.547353	-0.511038	-0.393923
Zn2	Zn	1.880686	-0.177705	-0.060589
Zn3	Zn	2.214019	0.155629	0.272744
Zn4	Zn	1.569785	-0.630683	-0.216326
Zn5	Zn	1.903118	-0.297349	0.117007
Zn6	Zn	2.236451	0.035984	0.450340
Zn7	Zn	1.392311	-0.480710	-0.238930
Zn8	Zn	1.725644	-0.147377	0.094403
Zn9	Zn	2.058977	0.185956	0.427736
Zn10	Zn	1.369702	-0.630653	-0.416478
Zn11	Zn	1.703035	-0.297319	-0.083144
Zn12	Zn	2.036369	0.036014	0.250189
O13	O	1.469787	-0.563271	-0.316414
O14	O	1.803121	-0.229938	0.016919
O15	O	2.136454	0.103396	0.350252
O16	O	1.698949	-0.539614	-0.351465
O17	O	2.032283	-0.206281	-0.018132
O18	O	2.365616	0.127053	0.315201
O19	O	1.565092	-0.598109	-0.070696
O20	O	1.898425	-0.264776	0.262637
O21	O	2.231759	0.068558	0.595971
O22	O	1.412951	-0.371910	-0.259511
O23	O	1.746284	-0.038577	0.073822
O24	O	2.079618	0.294756	0.407156
O25	O	1.715430	-0.627516	-0.220986
O26	O	2.048763	-0.294183	0.112347
O27	O	2.382097	0.039150	0.445681
O28	O	1.526860	-0.394192	-0.373383
O29	O	1.860193	-0.060858	-0.040050
O30	O	2.193526	0.272475	0.293283
O31	O	1.434702	-0.487925	-0.087303
O32	O	1.768036	-0.154592	0.246030
O33	O	2.101369	0.178742	0.579364
O34	O	1.240691	-0.487896	-0.281381
O35	O	1.574024	-0.154562	0.051952
O36	O	1.907357	0.178771	0.385285
O37	O	1.374418	-0.627465	-0.562114
O38	O	1.707752	-0.294132	-0.228781
O39	O	2.041085	0.039202	0.104552
O40	O	1.224080	-0.598058	-0.411825
O41	O	1.557414	-0.264724	-0.078491
O42	O	1.890747	0.068609	0.254842
O43	O	1.504937	-0.539585	-0.545544
O44	O	1.838271	-0.206251	-0.212210
O45	O	2.171604	0.127082	0.121123
O46	O	1.543170	-0.743502	-0.242856
O47	O	1.876503	-0.410169	0.090477
O48	O	2.209836	-0.076835	0.423810
O49	O	1.396170	-0.743480	-0.389906
O50	O	1.729503	-0.410146	-0.056573
O51	O	2.062836	-0.076813	0.276760
C52	C	1.193850	-0.539683	-0.351504
C53	C	1.527183	-0.206350	-0.018171
C54	C	1.860516	0.126984	0.315163
C55	C	1.075799	-0.529614	-0.366541
C56	C	1.409132	-0.196280	-0.033207
C57	C	1.742466	0.137053	0.300126
C58	C	0.909320	-0.558126	-0.324128
C59	C	1.242654	-0.224793	0.009205
C60	C	1.575987	0.108541	0.342539
C61	C	1.031333	-0.568536	-0.308582
C62	C	1.364666	-0.235202	0.024752
C63	C	1.697999	0.098131	0.358085
C64	C	1.469676	-0.772749	-0.316396
C65	C	1.803010	-0.439416	0.016938
C66	C	2.136343	-0.106082	0.350271
C67	C	1.469721	-0.862376	-0.316411
C68	C	1.803055	-0.529043	0.016923
C69	C	2.136388	-0.195709	0.350256
C70	C	1.469760	-0.935164	-0.316427
C71	C	1.803093	-0.601831	0.016907
C72	C	2.136427	-0.268497	0.350240
C73	C	1.469819	-1.026480	-0.316442
C74	C	1.803152	-0.693146	0.016891
C75	C	2.136486	-0.359813	0.350225
C76	C	1.469872	-1.099262	-0.316449
C77	C	1.803206	-0.765929	0.016885
C78	C	2.136539	-0.432595	0.350218
C79	C	1.469930	-1.190583	-0.316463
C80	C	1.803264	-0.857250	0.016871
C81	C	2.136597	-0.523916	0.350204
C82	C	1.746803	-0.586952	-0.281188
C83	C	2.080136	-0.253618	0.052145
C84	C	2.413469	0.079715	0.385478
C85	C	1.864850	-0.597043	-0.266177
C86	C	2.198184	-0.263709	0.067156
C87	C	2.531517	0.069624	0.400490
C88	C	1.434654	-0.586905	-0.593444
C89	C	1.767987	-0.253571	-0.260111
C90	C	2.101320	0.079762	0.073222
C91	C	1.419682	-0.596976	-0.711498
C92	C	1.753015	-0.263642	-0.378165
C93	C	2.086348	0.069691	-0.044831
C94	C	1.469925	-0.352979	-0.316453
C95	C	1.803258	-0.019646	0.016881
C96	C	2.136592	0.313687	0.350214
C97	C	1.469984	-0.263365	-0.316469
C98	C	1.803317	0.069968	0.016864
C99	C	2.136650	0.403301	0.350198
C100	C	1.477585	-0.557984	-0.755931
C101	C	1.810918	-0.224651	-0.422598
C102	C	2.144252	0.108682	-0.089264
C103	C	1.462112	-0.568392	-0.877946
C104	C	1.795445	-0.235059	-0.544612
C105	C	2.128779	0.098274	-0.211279
C106	C	1.504846	-0.539676	-0.040454
C107	C	1.838179	-0.206343	0.292879
C108	C	2.171512	0.126990	0.626212
C109	C	1.520023	-0.529396	0.077625
C110	C	1.853357	-0.196062	0.410958
C111	C	2.186690	0.137271	0.744292
H112	H	0.857063	-0.517105	-0.385256
H113	H	1.190396	-0.183772	-0.051922
H114	H	1.523730	0.149561	0.281411
H115	H	1.401073	-0.609477	-0.930233
H116	H	1.734406	-0.276144	-0.596900
H117	H	2.067740	0.057190	-0.263566
H118	H	1.083585	-0.609568	-0.247460
H119	H	1.416918	-0.276235	0.085874
H120	H	1.750252	0.057099	0.419207
C121	C	1.005960	-0.474913	-0.447962
C122	C	1.339293	-0.141580	-0.114628
C123	C	1.672627	0.191753	0.218705
C124	C	0.898829	-0.475441	-0.447174
C125	C	1.232162	-0.142108	-0.113841
C126	C	1.565496	0.191225	0.219492
C127	C	0.834465	-0.425055	-0.522154
C128	C	1.167798	-0.091722	-0.188821
C129	C	1.501132	0.241612	0.144512
H130	H	1.014922	-0.494363	-0.517060
H131	H	1.348255	-0.161029	-0.183727
H132	H	1.681589	0.172304	0.149607
H133	H	1.025999	-0.420917	-0.430245
H134	H	1.359333	-0.087584	-0.096912
H135	H	1.692666	0.245749	0.236421
H136	H	0.878796	-0.529426	-0.464897
H137	H	1.212130	-0.196093	-0.131564
H138	H	1.545463	0.137241	0.201769
H139	H	0.889834	-0.455984	-0.378094
H140	H	1.223167	-0.122651	-0.044761
H141	H	1.556501	0.210682	0.288572
H142	H	0.854504	-0.371059	-0.504438
H143	H	1.187838	-0.037726	-0.171104
H144	H	1.521171	0.295608	0.162229
H145	H	0.843436	-0.444509	-0.591247
H146	H	1.176769	-0.111176	-0.257914
H147	H	1.510103	0.222158	0.075420
H148	H	0.761771	-0.425400	-0.521623
H149	H	1.095104	-0.092067	-0.188290
H150	H	1.428438	0.241266	0.145044
H151	H	1.538609	-0.516894	-0.703642
H152	H	1.871943	-0.183560	-0.370308
H153	H	2.205276	0.149773	-0.036975
C154	C	0.934704	-0.651679	-0.184689
C155	C	1.268037	-0.318346	0.148644
C156	C	1.601370	0.014987	0.481977
C157	C	1.041838	-0.651121	-0.185445
C158	C	1.375171	-0.317787	0.147888
C159	C	1.708505	0.015546	0.481221
C160	C	1.106216	-0.701435	-0.110382
C161	C	1.439549	-0.368102	0.222951
C162	C	1.772882	-0.034769	0.556285
H163	H	0.914739	-0.705689	-0.202319
H164	H	1.248072	-0.372355	0.131014
H165	H	1.581405	-0.039022	0.464347
H166	H	0.925678	-0.632167	-0.115618
H167	H	1.259011	-0.298834	0.217716
H168	H	1.592345	0.034499	0.551049
H169	H	1.050859	-0.670636	-0.254502
H170	H	1.384192	-0.337303	0.078832
H171	H	1.717525	-0.003970	0.412165
H172	H	1.061836	-0.597124	-0.167804
H173	H	1.395169	-0.263791	0.165530
H174	H	1.728502	0.069542	0.498863
H175	H	1.097190	-0.681923	-0.041310
H176	H	1.430523	-0.348590	0.292023
H177	H	1.763857	-0.015257	0.625356
H178	H	1.086241	-0.755441	-0.128019
H179	H	1.419575	-0.422108	0.205315
H180	H	1.752908	-0.088774	0.538648
H181	H	1.178914	-0.701057	-0.110878
H182	H	1.512247	-0.367724	0.222455
H183	H	1.845580	-0.034391	0.555789
H184	H	1.581050	-0.488300	-0.870091
H185	H	1.914384	-0.154967	-0.536757
H186	H	2.247717	0.178367	-0.203424
H187	H	1.358647	-0.638057	-0.763789
H188	H	1.691980	-0.304724	-0.430456
H189	H	2.025313	0.028609	-0.097122
