data_functionalizedCrystal
_audit_creation_method	'MofGen! by Chris Wilmer'
_symmetry_space_group_name_H-M	'P1'
_symmetry_Int_Tables_number	1
_symmetry_cell_setting	triclinic
loop_
_symmetry_equiv_pos_as_xyz
  x,y,z
_cell_length_a	14.853567
_cell_length_b	13.930277
_cell_length_c	14.853567
_cell_angle_alpha	89.999243
_cell_angle_beta	96.365070
_cell_angle_gamma	90.004245
loop_
_atom_site_label
_atom_site_type_symbol
_atom_site_fract_x
_atom_site_fract_y
_atom_site_fract_z
O1	O	1.196368	0.079756	-0.117704
O2	O	1.696368	0.579756	0.382296
O3	O	0.933909	0.079772	-0.131725
O4	O	1.433909	0.579772	0.368275
O5	O	1.072149	0.079767	0.006516
O6	O	1.572149	0.579767	0.506516
O7	O	1.058128	0.079762	-0.255944
O8	O	1.558128	0.579762	0.244056
O9	O	1.072130	-0.079895	0.006519
O10	O	1.572130	0.420105	0.506519
O11	O	0.933890	-0.079890	-0.131722
O12	O	1.433890	0.420110	0.368278
O13	O	1.196349	-0.079905	-0.117701
O14	O	1.696349	0.420095	0.382299
Zn15	Zn	1.065116	-0.105247	-0.124711
Zn16	Zn	1.565116	0.394753	0.375289
Zn17	Zn	1.065142	0.105114	-0.124715
Zn18	Zn	1.565142	0.605114	0.375285
O19	O	1.058109	-0.079900	-0.255941
O20	O	1.558109	0.420100	0.244059
C21	C	0.900311	-0.000057	-0.131088
C22	C	1.400311	0.499943	0.368912
C23	C	0.800227	-0.000051	-0.129184
C24	C	1.300227	0.499949	0.370816
N25	N	1.065106	-0.248814	-0.124708
N26	N	1.565106	0.251186	0.375292
C27	C	0.387693	-0.000070	-0.039019
C28	C	0.887693	0.499930	0.460981
C29	C	0.366412	-0.000073	-0.203251
C30	C	0.866412	0.499927	0.296749
C31	C	0.460446	-0.000070	-0.205042
C32	C	0.960446	0.499930	0.294958
C33	C	0.518108	-0.000066	-0.123819
C34	C	1.018108	0.499934	0.376181
C35	C	0.481736	-0.000065	-0.040806
C36	C	0.981736	0.499935	0.459194
C37	C	0.496825	-0.000061	-0.288053
C38	C	0.996825	0.499939	0.211947
C39	C	0.590864	-0.000057	-0.289846
C40	C	1.090864	0.499943	0.210154
C41	C	0.648528	-0.000060	-0.208623
C42	C	1.148528	0.499940	0.291377
C43	C	0.612150	-0.000060	-0.125607
C44	C	1.112150	0.499940	0.374393
C45	C	0.669812	-0.000056	-0.044384
C46	C	1.169812	0.499944	0.455616
C47	C	0.633437	-0.000063	0.038633
C48	C	1.133437	0.499937	0.538633
C49	C	0.539399	-0.000067	0.040417
C50	C	1.039399	0.499933	0.540417
C51	C	0.742565	-0.000055	-0.210407
C52	C	1.242565	0.499945	0.289593
C53	C	0.763855	-0.000050	-0.046172
C54	C	1.263855	0.499950	0.453828
C55	C	1.003926	-0.701081	-0.185904
C56	C	1.503926	-0.201081	0.314096
C57	C	1.126382	-0.701055	-0.063519
C58	C	1.626382	-0.201055	0.436481
C59	C	1.126371	-0.600559	-0.063516
C60	C	1.626371	-0.100559	0.436484
C61	C	1.065138	-0.550319	-0.124709
C62	C	1.565138	-0.050319	0.375291
C63	C	1.003916	-0.600576	-0.185904
C64	C	1.503916	-0.100576	0.314096
C65	C	1.187598	-0.550295	-0.002328
C66	C	1.687598	-0.050295	0.497672
C67	C	1.187591	-0.449793	-0.002323
C68	C	1.687591	0.050207	0.497677
C69	C	1.126353	-0.399552	-0.063512
C70	C	1.626353	0.100448	0.436488
C71	C	1.065127	-0.449814	-0.124710
C72	C	1.565127	0.050186	0.375290
C73	C	1.003894	-0.399575	-0.185902
C74	C	1.503894	0.100425	0.314098
C75	C	0.942664	-0.449835	-0.247096
C76	C	1.442664	0.050165	0.252904
C77	C	0.942677	-0.550334	-0.247094
C78	C	1.442677	-0.050334	0.252906
C79	C	1.126339	-0.299053	-0.063515
C80	C	1.626339	0.200947	0.436485
C81	C	1.003883	-0.299070	-0.185903
C82	C	1.503883	0.200930	0.314097
C83	C	1.229947	-0.000075	-0.118337
C84	C	1.729947	0.499925	0.381663
C85	C	1.330031	-0.000075	-0.120241
C86	C	1.830031	0.499925	0.379759
C87	C	1.071504	-0.000061	0.040106
C88	C	1.571504	0.499939	0.540106
C89	C	1.069601	-0.000053	0.140189
C90	C	1.569601	0.499947	0.640189
N91	N	1.065160	0.248680	-0.124711
N92	N	1.565160	0.748680	0.375289
C93	C	1.058754	-0.000070	-0.289531
C94	C	1.558754	0.499930	0.210469
C95	C	1.060657	-0.000072	-0.389615
C96	C	1.560657	0.499928	0.110385
C97	C	0.979435	-0.000066	0.552723
C98	C	1.479435	0.499934	1.052723
C99	C	1.143668	-0.000076	0.574004
C100	C	1.643668	0.499924	1.074004
C101	C	1.145458	-0.000070	0.479971
C102	C	1.645458	0.499930	0.979971
C103	C	1.064235	-0.000064	0.422309
C104	C	1.564235	0.499936	0.922309
C105	C	0.981223	-0.000063	0.458680
C106	C	1.481223	0.499937	0.958680
C107	C	1.228469	-0.000080	0.443591
C108	C	1.728469	0.499920	0.943591
C109	C	1.230262	-0.000076	0.349552
C110	C	1.730262	0.499924	0.849552
C111	C	1.149039	-0.000063	0.291889
C112	C	1.649039	0.499937	0.791889
C113	C	1.066023	-0.000061	0.328266
C114	C	1.566023	0.499939	0.828266
C115	C	0.984800	-0.000055	0.270604
C116	C	1.484800	0.499945	0.770604
C117	C	0.901783	-0.000047	0.306979
C118	C	1.401783	0.499953	0.806979
C119	C	0.899999	-0.000050	0.401017
C120	C	1.399999	0.499950	0.901017
C121	C	1.150823	-0.000059	0.197851
C122	C	1.650823	0.499941	0.697851
C123	C	0.986588	-0.000052	0.176561
C124	C	1.486588	0.499948	0.676561
H125	H	0.680397	-0.000053	0.104764
H126	H	1.180397	0.499947	0.604764
H127	H	1.176196	-0.258136	-0.013696
H128	H	1.676196	0.241864	0.486304
H129	H	0.810798	-0.000050	0.019971
H130	H	1.310798	0.499950	0.519971
H131	H	0.772178	-0.000051	-0.277998
H132	H	1.272178	0.499949	0.222002
H133	H	0.892827	-0.591263	-0.296916
H134	H	1.392827	-0.091263	0.203084
H135	H	0.449870	-0.000054	-0.354180
H136	H	0.949870	0.499946	0.145820
N137	N	1.253627	-0.395587	0.063675
N138	N	1.753627	0.104413	0.563675
H139	H	1.292418	-0.442665	0.102439
H140	H	1.792418	0.057335	0.602439
H141	H	1.219059	-0.353901	0.103597
H142	H	1.719059	0.146099	0.603597
H143	H	1.297860	-0.000082	0.319944
H144	H	1.797860	0.499918	0.819944
N145	N	0.348458	-0.000087	0.050513
N146	N	0.848458	0.499913	0.550513
H147	H	0.309913	0.059094	0.054919
H148	H	0.809913	0.559094	0.554919
H149	H	0.399304	-0.000121	0.101644
H150	H	0.899304	0.499879	0.601644
N151	N	0.937831	-0.244885	-0.251898
N152	N	1.437831	0.255115	0.248102
H153	H	0.899046	-0.291976	-0.290658
H154	H	1.399046	0.208024	0.209342
H155	H	0.972383	-0.203181	-0.291823
H156	H	1.472383	0.296819	0.208177
N157	N	0.630083	-0.000060	-0.379386
N158	N	1.130083	0.499940	0.120614
H159	H	0.668620	-0.059247	-0.383789
H160	H	1.168620	0.440753	0.116211
H161	H	0.668583	0.059166	-0.383742
H162	H	1.168583	0.559166	0.116258
N163	N	0.898975	-0.000056	0.114382
N164	N	1.398975	0.499944	0.614382
H165	H	0.896049	-0.059246	0.074895
H166	H	1.396049	0.440754	0.574895
H167	H	0.896107	0.059167	0.074945
H168	H	1.396107	0.559167	0.574945
N169	N	0.937890	-0.755277	-0.251909
N170	N	1.437890	-0.255277	0.248091
H171	H	0.873895	-0.737795	-0.241406
H172	H	1.373895	-0.237795	0.258594
H173	H	0.947259	-0.826550	-0.242595
H174	H	1.447259	-0.326550	0.257405
H175	H	0.892811	-0.408919	-0.296924
H176	H	1.392811	0.091081	0.203076
N177	N	0.500156	-0.000077	0.129945
N178	N	1.000156	0.499923	0.629945
H179	H	0.461616	0.059108	0.134343
H180	H	0.961616	0.559108	0.634343
H181	H	0.550996	-0.000115	0.181081
H182	H	1.050996	0.499885	0.681081
N183	N	0.304223	-0.000067	-0.290850
N184	N	0.804223	0.499933	0.209150
H185	H	0.315929	-0.059252	-0.327065
H186	H	0.815929	0.440748	0.172935
H187	H	0.315972	0.059161	-0.326985
H188	H	0.815972	0.559161	0.173015
H189	H	1.176240	-0.741963	-0.013702
H190	H	1.676240	-0.241963	0.486298
H191	H	1.237457	-0.591203	0.047489
H192	H	1.737457	-0.091203	0.547489
H193	H	0.835652	-0.000048	0.260019
H194	H	1.335652	0.499952	0.760019
N195	N	0.810466	-0.000045	0.440249
N196	N	1.310466	0.499955	0.940249
H197	H	0.821661	-0.000054	0.508571
H198	H	1.321661	0.499946	1.008571
H199	H	0.774915	-0.059232	0.419161
H200	H	1.274915	0.440768	0.919161
N201	N	0.889898	-0.000052	0.591948
N202	N	1.389898	0.499948	1.091948
H203	H	0.901085	-0.000052	0.660270
H204	H	1.401085	0.499948	1.160270
H205	H	0.854345	-0.059239	0.570863
H206	H	1.354345	0.440761	1.070863
N207	N	1.231263	-0.000093	0.636199
N208	N	1.731263	0.499907	1.136199
H209	H	1.234187	0.059089	0.675695
H210	H	1.734187	0.559089	1.175695
H211	H	1.284074	-0.000131	0.598828
H212	H	1.784074	0.499869	1.098828
N213	N	1.316062	-0.000099	0.505790
N214	N	1.816062	0.499901	1.005790
H215	H	1.318988	0.059087	0.545281
H216	H	1.818988	0.559087	1.045281
H217	H	1.368876	-0.000145	0.468423
H218	H	1.868876	0.499855	0.968423
N219	N	1.240350	-0.000078	0.158615
N220	N	1.740350	0.499922	0.658615
H221	H	1.291533	-0.000089	0.209413
H222	H	1.791533	0.499911	0.709413
H223	H	1.244682	0.059112	0.120065
H224	H	1.744682	0.559112	0.620065
