data_functionalizedCrystal
_audit_creation_method	'MofGen! by Chris Wilmer'
_symmetry_space_group_name_H-M	'P1'
_symmetry_Int_Tables_number	1
_symmetry_cell_setting	triclinic
loop_
_symmetry_equiv_pos_as_xyz
  x,y,z
_cell_length_a	22.610064
_cell_length_b	23.532407
_cell_length_c	23.532407
_cell_angle_alpha	82.848713
_cell_angle_beta	90.019125
_cell_angle_gamma	89.987421
loop_
_atom_site_label
_atom_site_type_symbol
_atom_site_fract_x
_atom_site_fract_y
_atom_site_fract_z
O1	O	-0.049122	-0.755249	-0.069141
O2	O	0.284212	-0.421916	0.264192
O3	O	0.617545	-0.088582	0.597526
O4	O	-0.049140	-0.589386	-0.079144
O5	O	0.284193	-0.256052	0.254189
O6	O	0.617526	0.077281	0.587523
O7	O	-0.049114	-0.677319	0.008789
O8	O	0.284220	-0.343986	0.342122
O9	O	0.617553	-0.010652	0.675456
O10	O	-0.049148	-0.667316	-0.157074
O11	O	0.284185	-0.333983	0.176259
O12	O	0.617519	-0.000649	0.509592
O13	O	0.049255	-0.677332	0.008804
O14	O	0.382589	-0.343999	0.342137
O15	O	0.715922	-0.010666	0.675471
O16	O	0.049229	-0.589399	-0.079129
O17	O	0.382562	-0.256066	0.254204
O18	O	0.715895	0.077268	0.587537
O19	O	0.049248	-0.755262	-0.069126
O20	O	0.382581	-0.421929	0.264207
O21	O	0.715914	-0.088596	0.597541
Zn22	Zn	0.064856	-0.672333	-0.074125
Zn23	Zn	0.398190	-0.339000	0.259208
Zn24	Zn	0.731523	-0.005666	0.592541
Zn25	Zn	-0.064749	-0.672315	-0.074145
Zn26	Zn	0.268584	-0.338982	0.259188
Zn27	Zn	0.601917	-0.005649	0.592522
O28	O	0.049221	-0.667329	-0.157059
O29	O	0.382554	-0.333996	0.176274
O30	O	0.715888	-0.000663	0.509607
C31	C	0.000042	-0.568176	-0.078882
C32	C	0.333375	-0.234843	0.254451
C33	C	0.666709	0.098490	0.587785
C34	C	0.000036	-0.504959	-0.078116
C35	C	0.333369	-0.171626	0.255217
C36	C	0.666702	0.161707	0.588551
N37	N	-0.153202	-0.672304	-0.074154
N38	N	0.180132	-0.338970	0.259179
N39	N	0.513465	-0.005637	0.592512
C40	C	0.000074	-0.677071	0.030013
C41	C	0.333407	-0.343738	0.363346
C42	C	0.666740	-0.010404	0.696679
C43	C	0.000083	-0.676305	0.093230
C44	C	0.333416	-0.342972	0.426563
C45	C	0.666749	-0.009638	0.759896
C46	C	-0.561831	-0.711350	-0.035273
C47	C	-0.228498	-0.378017	0.298060
C48	C	0.104835	-0.044684	0.631393
C49	C	-0.623751	-0.711354	-0.035270
C50	C	-0.290418	-0.378021	0.298063
C51	C	0.042915	-0.044688	0.631396
O52	O	-0.655760	-0.744544	-0.002236
O53	O	-0.322427	-0.411211	0.331097
O54	O	0.010907	-0.077877	0.664431
N55	N	-0.654739	-0.672345	-0.074126
N56	N	-0.321405	-0.339011	0.259208
N57	N	0.011928	-0.005678	0.592541
C58	C	-0.623803	-0.633332	-0.112990
C59	C	-0.290470	-0.299999	0.220343
C60	C	0.042863	0.033335	0.553677
O61	O	-0.655846	-0.600152	-0.146040
O62	O	-0.322513	-0.266819	0.187294
O63	O	0.010820	0.066515	0.520627
C64	C	-0.561884	-0.633331	-0.112995
C65	C	-0.228551	-0.299998	0.220338
C66	C	0.104782	0.033336	0.553672
C67	C	-0.530900	-0.672339	-0.074133
C68	C	-0.197567	-0.339006	0.259200
C69	C	0.135767	-0.005673	0.592533
C70	C	-0.530847	-0.750356	0.003585
C71	C	-0.197514	-0.417023	0.336918
C72	C	0.135820	-0.083689	0.670252
C73	C	-0.468931	-0.750351	0.003583
C74	C	-0.135598	-0.417017	0.336916
C75	C	0.197735	-0.083684	0.670249
C76	C	-0.438000	-0.711340	-0.035278
C77	C	-0.104667	-0.378007	0.298056
C78	C	0.228667	-0.044673	0.631389
C79	C	-0.468984	-0.672334	-0.074136
C80	C	-0.135651	-0.339001	0.259198
C81	C	0.197682	-0.005668	0.592531
C82	C	-0.530950	-0.594321	-0.151862
C83	C	-0.197617	-0.260988	0.181472
C84	C	0.135717	0.072345	0.514805
C85	C	-0.469027	-0.594324	-0.151864
C86	C	-0.135694	-0.260991	0.181470
C87	C	0.197640	0.072343	0.514803
C88	C	-0.438043	-0.633332	-0.113002
C89	C	-0.104709	-0.299999	0.220331
C90	C	0.228624	0.033334	0.553665
C91	C	-0.376138	-0.633318	-0.112998
C92	C	-0.042804	-0.299985	0.220335
C93	C	0.290529	0.033348	0.553669
N94	N	-0.345150	-0.672328	-0.074143
N95	N	-0.011817	-0.338995	0.259190
N96	N	0.321517	-0.005661	0.592524
C97	C	-0.376081	-0.711339	-0.035283
C98	C	-0.042748	-0.378005	0.298051
C99	C	0.290585	-0.044672	0.631384
C100	C	-0.753837	-0.633338	-0.112977
C101	C	-0.420504	-0.300005	0.220356
C102	C	-0.087170	0.033329	0.553690
C103	C	-0.815755	-0.633336	-0.112970
C104	C	-0.482421	-0.300003	0.220363
C105	C	-0.149088	0.033331	0.553697
C106	C	-0.815698	-0.711359	-0.035251
C107	C	-0.482365	-0.378026	0.298083
C108	C	-0.149032	-0.044693	0.631416
C109	C	-0.753779	-0.711358	-0.035256
C110	C	-0.420446	-0.378025	0.298078
C111	C	-0.087113	-0.044692	0.631411
C112	C	-0.722849	-0.672348	-0.074122
C113	C	-0.389516	-0.339014	0.259211
C114	C	-0.056183	-0.005681	0.592545
C115	C	-0.246054	-0.711325	-0.035290
C116	C	0.087279	-0.377991	0.298043
C117	C	0.420613	-0.044658	0.631377
C118	C	-0.184133	-0.711315	-0.035294
C119	C	0.149201	-0.377981	0.298039
C120	C	0.482534	-0.044648	0.631373
C121	C	-0.184195	-0.633293	-0.113015
C122	C	0.149139	-0.299960	0.220319
C123	C	0.482472	0.033373	0.553652
C124	C	-0.246110	-0.633301	-0.113009
C125	C	0.087223	-0.299968	0.220324
C126	C	0.420556	0.033365	0.553658
C127	C	-0.277038	-0.672322	-0.074144
C128	C	0.056295	-0.338988	0.259189
C129	C	0.389628	-0.005655	0.592522
O130	O	-0.344090	-0.600147	-0.146017
O131	O	-0.010756	-0.266814	0.187316
O132	O	0.322577	0.066519	0.520649
O133	O	-0.344031	-0.744518	-0.002244
O134	O	-0.010697	-0.411185	0.331090
O135	O	0.322636	-0.077852	0.664423
N136	N	0.153309	-0.672349	-0.074111
N137	N	0.486642	-0.339016	0.259222
N138	N	0.819976	-0.005682	0.592555
C139	C	0.000064	-0.776472	-0.069388
C140	C	0.333397	-0.443138	0.263945
C141	C	0.666731	-0.109805	0.597279
C142	C	0.000066	-0.839689	-0.070154
C143	C	0.333400	-0.506356	0.263179
C144	C	0.666733	-0.173022	0.596513
C145	C	0.000053	-0.105856	-0.125350
C146	C	0.333386	0.227477	0.207984
C147	C	0.666719	0.560810	0.541317
C148	C	0.000056	-0.046456	-0.124638
C149	C	0.333390	0.286877	0.208695
C150	C	0.666723	0.620211	0.542029
O151	O	0.000069	-0.009712	-0.168424
O152	O	0.333402	0.323622	0.164909
O153	O	0.666735	0.656955	0.498243
N154	N	0.000066	-0.023830	-0.072362
N155	N	0.333400	0.309503	0.260972
N156	N	0.666733	0.642837	0.594305
C157	C	0.000078	-0.060607	-0.020794
C158	C	0.333412	0.272726	0.312540
C159	C	0.666745	0.606059	0.645873
O160	O	0.000088	-0.035908	0.023737
O161	O	0.333421	0.297426	0.357070
O162	O	0.666754	0.630759	0.690404
C163	C	0.000079	-0.120007	-0.021506
C164	C	0.333412	0.213327	0.311828
C165	C	0.666745	0.546660	0.645161
C166	C	0.000063	-0.142629	-0.073785
C167	C	0.333396	0.190704	0.259548
C168	C	0.666730	0.524038	0.592881
C169	C	0.000037	-0.128480	-0.177625
C170	C	0.333371	0.204854	0.155708
C171	C	0.666704	0.538187	0.489042
C172	C	0.000033	-0.187876	-0.178336
C173	C	0.333366	0.145458	0.154997
C174	C	0.666699	0.478791	0.488330
C175	C	0.000043	-0.224649	-0.126772
C176	C	0.333376	0.108685	0.206561
C177	C	0.666710	0.442018	0.539895
C178	C	0.000058	-0.202025	-0.074496
C179	C	0.333391	0.131308	0.258837
C180	C	0.666725	0.464641	0.592170
C181	C	0.000095	-0.156783	0.030062
C182	C	0.333428	0.176550	0.363395
C183	C	0.666762	0.509884	0.696729
C184	C	0.000096	-0.216185	0.029345
C185	C	0.333429	0.117148	0.362679
C186	C	0.666763	0.450481	0.696012
C187	C	0.000080	-0.238808	-0.022934
C188	C	0.333413	0.094525	0.310399
C189	C	0.666747	0.427859	0.643732
C190	C	0.000063	-0.298194	-0.023643
C191	C	0.333397	0.035139	0.309690
C192	C	0.666730	0.368472	0.643023
N193	N	0.000054	-0.320821	-0.075920
N194	N	0.333387	0.012513	0.257414
N195	N	0.666720	0.345846	0.590747
C196	C	0.000043	-0.284048	-0.127484
C197	C	0.333377	0.049286	0.205849
C198	C	0.666710	0.382619	0.539183
C199	C	0.000078	0.064135	-0.019302
C200	C	0.333412	0.397468	0.314031
C201	C	0.666745	0.730802	0.647365
C202	C	0.000074	0.123533	-0.018589
C203	C	0.333407	0.456866	0.314744
C204	C	0.666740	0.790200	0.648077
C205	C	0.000053	0.137680	-0.122434
C206	C	0.333386	0.471014	0.210899
C207	C	0.666720	0.804347	0.544232
C208	C	0.000053	0.078281	-0.123146
C209	C	0.333387	0.411615	0.210187
C210	C	0.666720	0.744948	0.543520
C211	C	0.000069	0.041509	-0.071578
C212	C	0.333402	0.374842	0.261755
C213	C	0.666735	0.708176	0.595088
C214	C	0.000033	-0.408784	-0.128974
C215	C	0.333366	-0.075451	0.204360
C216	C	0.666699	0.257882	0.537693
C217	C	0.000025	-0.468186	-0.129680
C218	C	0.333359	-0.134853	0.203653
C219	C	0.666692	0.198480	0.536986
C220	C	0.000049	-0.482329	-0.025836
C221	C	0.333383	-0.148995	0.307497
C222	C	0.666716	0.184338	0.640831
C223	C	0.000053	-0.422932	-0.025129
C224	C	0.333387	-0.089598	0.308204
C225	C	0.666720	0.243735	0.641538
C226	C	0.000047	-0.386161	-0.076702
C227	C	0.333380	-0.052827	0.256631
C228	C	0.666714	0.280506	0.589964
O229	O	0.000053	-0.334974	0.020119
O230	O	0.333387	-0.001640	0.353453
O231	O	0.666720	0.331693	0.686786
O232	O	0.000042	-0.308756	-0.172007
O233	O	0.333375	0.024578	0.161326
O234	O	0.666709	0.357911	0.494660
C235	C	0.000032	-0.667577	-0.178283
C236	C	0.333366	-0.334244	0.155051
C237	C	0.666699	-0.000911	0.488384
C238	C	0.000019	-0.668343	-0.241500
C239	C	0.333353	-0.335010	0.091834
C240	C	0.666686	-0.001677	0.425167
C241	C	0.000039	-0.621110	0.359397
C242	C	0.333373	-0.287776	0.692730
C243	C	0.666706	0.045557	1.026064
C244	C	0.000044	-0.621821	0.299997
C245	C	0.333377	-0.288488	0.633330
C246	C	0.666711	0.044846	0.966664
O247	O	0.000020	-0.578035	0.263252
O248	O	0.333354	-0.244702	0.596586
O249	O	0.666687	0.088632	0.929919
N250	N	0.000057	-0.674097	0.277371
N251	N	0.333390	-0.340764	0.610704
N252	N	0.666724	-0.007431	0.944037
C253	C	0.000059	-0.725666	0.314148
C254	C	0.333392	-0.392332	0.647482
C255	C	0.666726	-0.058999	0.980815
O256	O	0.000070	-0.770196	0.289449
O257	O	0.333403	-0.436863	0.622782
O258	O	0.666736	-0.103529	0.956115
C259	C	0.000050	-0.724954	0.373547
C260	C	0.333383	-0.391620	0.706881
C261	C	0.666717	-0.058287	1.040214
C262	C	0.000043	-0.672674	0.396170
C263	C	0.333377	-0.339341	0.729503
C264	C	0.666710	-0.006007	1.062837
C265	C	0.000032	-0.568834	0.382020
C266	C	0.333365	-0.235501	0.715354
C267	C	0.666699	0.097833	1.048687
C268	C	0.000029	-0.568123	0.441417
C269	C	0.333362	-0.234790	0.774750
C270	C	0.666695	0.098544	1.108083
C271	C	0.000032	-0.619687	0.478189
C272	C	0.333366	-0.286354	0.811523
C273	C	0.666699	0.046979	1.144856
C274	C	0.000040	-0.671963	0.455566
C275	C	0.333373	-0.338629	0.788899
C276	C	0.666706	-0.005296	1.122233
C277	C	0.000048	-0.776521	0.410324
C278	C	0.333381	-0.443188	0.743657
C279	C	0.666715	-0.109854	1.076990
C280	C	0.000039	-0.775805	0.469726
C281	C	0.333372	-0.442471	0.803060
C282	C	0.666705	-0.109138	1.136393
C283	C	0.000032	-0.723525	0.492349
C284	C	0.333365	-0.390192	0.825682
C285	C	0.666699	-0.056858	1.159016
C286	C	0.000040	-0.722816	0.551735
C287	C	0.333374	-0.389482	0.885069
C288	C	0.666707	-0.056149	1.218402
N289	N	0.000027	-0.670539	0.574361
N290	N	0.333361	-0.337206	0.907695
N291	N	0.666694	-0.003873	1.241028
C292	C	0.000024	-0.618975	0.537589
C293	C	0.333357	-0.285642	0.870922
C294	C	0.666690	0.047691	1.204255
C295	C	0.000077	-0.727157	0.189406
C296	C	0.333410	-0.393824	0.522739
C297	C	0.666743	-0.060490	0.856072
C298	C	0.000090	-0.727870	0.130008
C299	C	0.333423	-0.394536	0.463341
C300	C	0.666756	-0.061203	0.796674
C301	C	0.000074	-0.624025	0.115861
C302	C	0.333407	-0.290691	0.449194
C303	C	0.666740	0.042642	0.782527
C304	C	0.000065	-0.623313	0.175260
C305	C	0.333398	-0.289979	0.508593
C306	C	0.666731	0.043354	0.841926
C307	C	0.000064	-0.674881	0.212032
C308	C	0.333397	-0.341547	0.545365
C309	C	0.666730	-0.008214	0.878699
C310	C	0.000017	-0.617486	0.662325
C311	C	0.333350	-0.284152	0.995659
C312	C	0.666683	0.049181	1.328992
C313	C	0.000016	-0.616779	0.721727
C314	C	0.333349	-0.283446	1.055061
C315	C	0.666682	0.049888	1.388394
C316	C	0.000028	-0.720623	0.735869
C317	C	0.333362	-0.387290	1.069203
C318	C	0.666695	-0.053957	1.402536
C319	C	0.000033	-0.721330	0.676473
C320	C	0.333366	-0.387997	1.009806
C321	C	0.666699	-0.054664	1.343139
C322	C	0.000025	-0.669757	0.639701
C323	C	0.333358	-0.336423	0.973035
C324	C	0.666691	-0.003090	1.306368
O325	O	0.000061	-0.766579	0.588514
O326	O	0.333395	-0.433245	0.921848
O327	O	0.666728	-0.099912	1.255181
O328	O	0.000005	-0.574452	0.562296
O329	O	0.333338	-0.241119	0.895630
O330	O	0.666672	0.092215	1.228963
H331	H	-0.158907	-0.743080	-0.003646
H332	H	0.174426	-0.409747	0.329687
H333	H	0.507759	-0.076413	0.663020
H334	H	0.000058	-0.404512	0.017441
H335	H	0.333391	-0.071178	0.350775
H336	H	0.666724	0.262155	0.684108
Br337	Br	-0.288018	-0.764282	0.017455
Br338	Br	0.045316	-0.430948	0.350789
Br339	Br	0.378649	-0.097615	0.684122
Br340	Br	0.000033	-0.845794	0.519629
Br341	Br	0.333367	-0.512461	0.852962
Br342	Br	0.666700	-0.179127	1.186295
Br343	Br	0.000104	-0.126096	0.101018
Br344	Br	0.333437	0.207237	0.434351
Br345	Br	0.666770	0.540570	0.767684
H346	H	-0.159001	-0.601530	-0.144653
H347	H	0.174333	-0.268196	0.188681
H348	H	0.507666	0.065137	0.522014
H349	H	0.000012	-0.486602	-0.172255
H350	H	0.333345	-0.153269	0.161079
H351	H	0.666679	0.180065	0.494412
H352	H	-0.443847	-0.562557	-0.183515
H353	H	-0.110513	-0.229224	0.149818
H354	H	0.222820	0.104109	0.483152
H355	H	0.000029	-0.378852	-0.170970
H356	H	0.333363	-0.045518	0.162363
H357	H	0.666696	0.287815	0.495697
Br358	Br	0.000040	0.187598	-0.192415
Br359	Br	0.333374	0.520931	0.140918
Br360	Br	0.666707	0.854265	0.474252
Br361	Br	-0.426888	-0.803295	0.056322
Br362	Br	-0.093554	-0.469962	0.389656
Br363	Br	0.239779	-0.136629	0.722989
H364	H	0.000019	-0.206289	-0.220908
H365	H	0.333353	0.127044	0.112426
H366	H	0.666686	0.460378	0.445759
H367	H	0.000047	-0.763901	0.658053
H368	H	0.333380	-0.430567	0.991386
H369	H	0.666713	-0.097234	1.324719
H370	H	0.000080	-0.769152	0.219343
H371	H	0.333413	-0.435819	0.552677
H372	H	0.666747	-0.102486	0.886010
H373	H	-0.840978	-0.601566	-0.144609
H374	H	-0.507644	-0.268232	0.188725
H375	H	-0.174311	0.065101	0.522058
Br376	Br	0.000065	-0.532246	0.044141
Br377	Br	0.333398	-0.198912	0.377474
Br378	Br	0.666731	0.134421	0.710807
Br379	Br	0.000077	0.154227	0.052364
Br380	Br	0.333411	0.487561	0.385698
Br381	Br	0.666744	0.820894	0.719031
Br382	Br	0.000120	-0.266088	0.099335
Br383	Br	0.333453	0.067245	0.432668
Br384	Br	0.666786	0.400579	0.766001
Br385	Br	0.000009	-0.545823	0.752425
Br386	Br	0.333343	-0.212490	1.085759
Br387	Br	0.666676	0.120843	1.419092
H388	H	-0.556169	-0.562558	-0.183507
H389	H	-0.222836	-0.229224	0.149827
H390	H	0.110498	0.104109	0.483160
Br391	Br	-0.288159	-0.580352	-0.165744
Br392	Br	0.045174	-0.247019	0.167590
Br393	Br	0.378508	0.086314	0.500923
H394	H	-0.840894	-0.743125	-0.003609
H395	H	-0.507560	-0.409792	0.329724
H396	H	-0.174227	-0.076458	0.663057
H397	H	0.000053	-0.819093	0.391915
H398	H	0.333386	-0.485759	0.725249
H399	H	0.666720	-0.152426	1.058582
Br400	Br	0.000023	-0.078583	-0.247615
Br401	Br	0.333357	0.254750	0.085718
Br402	Br	0.666690	0.588083	0.419052
Br403	Br	0.000013	-0.497168	0.472109
Br404	Br	0.333346	-0.163835	0.805442
Br405	Br	0.666680	0.169498	1.138776
H406	H	-0.556026	-0.782126	0.035230
H407	H	-0.222692	-0.448792	0.368563
H408	H	0.110641	-0.115459	0.701896
Br409	Br	0.000006	-0.547492	0.612431
Br410	Br	0.333340	-0.214159	0.945764
Br411	Br	0.666673	0.119174	1.279097
H412	H	-0.728657	-0.601566	-0.144625
H413	H	-0.395323	-0.268233	0.188708
H414	H	-0.061990	0.065100	0.522041
H415	H	0.000034	-0.762606	0.765820
H416	H	0.333368	-0.429272	1.099154
H417	H	0.666701	-0.095939	1.432487
H418	H	0.000044	0.059866	-0.165717
H419	H	0.333377	0.393200	0.167616
H420	H	0.666710	0.726533	0.500950
H421	H	0.000027	-0.526842	0.352085
H422	H	0.333360	-0.193509	0.685418
H423	H	0.666694	0.139825	1.018752
Br424	Br	0.000094	0.014235	0.050690
Br425	Br	0.333427	0.347568	0.384023
Br426	Br	0.666760	0.680901	0.717357
H427	H	-0.728556	-0.743122	-0.003612
H428	H	-0.395222	-0.409789	0.329722
H429	H	-0.061889	-0.076456	0.663055
H430	H	0.000062	-0.580742	0.193674
H431	H	0.333395	-0.247409	0.527008
H432	H	0.666728	0.085925	0.860341
Br433	Br	0.000110	-0.798823	0.099313
Br434	Br	0.333443	-0.465490	0.432647
Br435	Br	0.666777	-0.132157	0.765980
H436	H	0.000071	-0.582038	0.085909
H437	H	0.333404	-0.248705	0.419242
H438	H	0.666738	0.084628	0.752576
