data_functionalizedCrystal
_audit_creation_method	'MofGen! by Chris Wilmer'
_symmetry_space_group_name_H-M	'P1'
_symmetry_Int_Tables_number	1
_symmetry_cell_setting	triclinic
loop_
_symmetry_equiv_pos_as_xyz
  x,y,z
_cell_length_a	12.645331
_cell_length_b	18.101397
_cell_length_c	12.645323
_cell_angle_alpha	89.967526
_cell_angle_beta	89.977178
_cell_angle_gamma	90.020680
loop_
_atom_site_label
_atom_site_type_symbol
_atom_site_fract_x
_atom_site_fract_y
_atom_site_fract_z
Zn1	Zn	1.620711	-0.294819	-0.599394
Zn2	Zn	1.620584	-0.418670	-0.422111
Zn3	Zn	1.443425	-0.294847	-0.422138
Zn4	Zn	1.443399	-0.418624	-0.599326
O5	O	1.532030	-0.356740	-0.510742
O6	O	1.769041	-0.311256	-0.575895
O7	O	1.597042	-0.402275	-0.273767
O8	O	1.467007	-0.191211	-0.445692
O9	O	1.768948	-0.402248	-0.445645
O10	O	1.597258	-0.191190	-0.575921
O11	O	1.466884	-0.311303	-0.273787
O12	O	1.295075	-0.311259	-0.445625
O13	O	1.466961	-0.402170	-0.747682
O14	O	1.295055	-0.402197	-0.575804
O15	O	1.597232	-0.311212	-0.747733
O16	O	1.597016	-0.522297	-0.445579
O17	O	1.466838	-0.522263	-0.575778
C18	C	1.256600	-0.356727	-0.510711
C19	C	1.138770	-0.356739	-0.510723
C20	C	1.093865	-0.299440	-0.428961
C21	C	0.971305	-0.299229	-0.429241
C22	C	0.970942	-0.335926	-0.622634
C23	C	1.093540	-0.335498	-0.622124
C24	C	1.093549	-0.435021	-0.481629
C25	C	0.970942	-0.434612	-0.479204
C26	C	1.531939	-0.549151	-0.510691
C27	C	1.531997	-0.631465	-0.510704
C28	C	1.532132	-0.930556	-0.510801
C29	C	1.613808	-0.899221	-0.428664
C30	C	1.614091	-0.813602	-0.428877
C31	C	1.532065	-0.782173	-0.510752
C32	C	1.562356	-0.813178	-0.622494
C33	C	1.562988	-0.898823	-0.622047
C34	C	1.419948	-0.899066	-0.482164
C35	C	1.420502	-0.813416	-0.479670
C36	C	1.532026	-0.698314	-0.510732
C37	C	1.532175	-1.014415	-0.510829
C38	C	1.808535	-0.356754	-0.510774
C39	C	1.926365	-0.356760	-0.510788
C40	C	1.532108	-0.356683	-0.787248
C41	C	1.532141	-0.356659	-0.905078
C42	C	1.532150	-0.163578	-0.510817
C43	C	1.532201	-0.081264	-0.510849
C44	C	1.449935	-0.413611	-1.072610
C45	C	1.450150	-0.413893	-0.950050
C46	C	1.643839	-0.377838	-0.949594
C47	C	1.643388	-0.378195	-1.072192
C48	C	1.503705	-0.278208	-1.072291
C49	C	1.501213	-0.278678	-0.949684
C50	C	1.532013	-0.356744	-0.235313
C51	C	1.532185	-0.356560	-0.117483
H52	H	0.942000	-0.241229	-0.448563
N53	N	1.343596	-0.924501	-0.557189
N54	N	1.266421	-0.962180	-0.526978
H55	H	1.212504	-0.980149	-0.579966
H56	H	1.595085	-0.919866	-0.345561
N57	N	1.590271	-0.787306	-0.324948
N58	N	1.510868	-0.747544	-0.310000
H59	H	1.494031	-0.728980	-0.236597
H60	H	1.123267	-0.312289	-0.345761
N61	N	1.722888	-0.328353	-1.109460
N62	N	1.736723	-0.319742	-1.206570
H63	H	1.792874	-0.284546	-1.232889
H64	H	1.667529	-0.435472	-1.100792
N65	N	1.473825	-0.486760	-0.913317
N66	N	1.559506	-0.516599	-0.937879
H67	H	1.576243	-0.568068	-0.911956
N68	N	1.129437	-0.263727	-0.652982
N69	N	1.063947	-0.214301	-0.674743
H70	H	1.089293	-0.163610	-0.696539
H71	H	1.504687	-0.792817	-0.685338
H72	H	1.556744	-0.233924	-0.919071
H73	H	1.356374	-0.792030	-0.535113
N74	N	1.346250	-0.397274	-0.912264
N75	N	1.328633	-0.394644	-0.815066
H76	H	1.255249	-0.382909	-0.788382
N77	N	1.132551	-0.227088	-0.452884
N78	N	1.193050	-0.217540	-0.529889
H79	H	1.220375	-0.166443	-0.546788
N80	N	1.718343	-0.787835	-0.452644
N81	N	1.791117	-0.833105	-0.469135
H82	H	1.864750	-0.814908	-0.485923
H83	H	1.366861	-0.400485	-1.102086
H84	H	1.668394	-0.434515	-0.918895
N85	N	1.403307	-0.253994	-1.111071
N86	N	1.351521	-0.294196	-1.172498
H87	H	1.280611	-0.277103	-1.199890
N88	N	1.473290	-0.486020	-1.111272
N89	N	1.550247	-0.495789	-1.171729
H90	H	1.566745	-0.546927	-1.199037
H91	H	1.122586	-0.477707	-0.541181
H92	H	1.419013	-0.262705	-0.920588
H93	H	1.706764	-0.337599	-0.920467
H94	H	0.940341	-0.479568	-0.534379
H95	H	1.644990	-0.918741	-0.646305
N96	N	0.933498	-0.315541	-0.325219
N97	N	0.997657	-0.327160	-0.251905
H98	H	0.970962	-0.338680	-0.178434
N99	N	1.130805	-0.385605	-0.701186
N100	N	1.066264	-0.420775	-0.756570
H101	H	1.092577	-0.456160	-0.812410
N102	N	1.578852	-0.224888	-1.108716
N103	N	1.590160	-0.213742	-1.205625
H104	H	1.643235	-0.176090	-1.231357
N105	N	0.934432	-0.386692	-0.701174
N106	N	0.875008	-0.438917	-0.675530
H107	H	0.849220	-0.474772	-0.730997
N108	N	0.932450	-0.264953	-0.654030
N109	N	0.872202	-0.229593	-0.594226
H110	H	0.845017	-0.179466	-0.616393
N111	N	1.132234	-0.458880	-0.381001
N112	N	1.068857	-0.472354	-0.307593
H113	H	1.096176	-0.489198	-0.236519
N114	N	1.664072	-0.786207	-0.653467
N115	N	1.673575	-0.748539	-0.735804
H116	H	1.745413	-0.729491	-0.757676
H117	H	1.696454	-0.920688	-0.447394
N118	N	0.934366	-0.454327	-0.375948
N119	N	0.875684	-0.411242	-0.325749
H120	H	0.849840	-0.425166	-0.252827
H121	H	1.506106	-0.919548	-0.685354
H122	H	1.392393	-0.920728	-0.402095
H123	H	1.397662	-0.793160	-0.397437
