data_functionalizedCrystal
_audit_creation_method	'MofGen! by Chris Wilmer'
_symmetry_space_group_name_H-M	'P1'
_symmetry_Int_Tables_number	1
_symmetry_cell_setting	triclinic
loop_
_symmetry_equiv_pos_as_xyz
  x,y,z
_cell_length_a	11.792241
_cell_length_b	14.519731
_cell_length_c	10.268362
_cell_angle_alpha	89.993732
_cell_angle_beta	89.999626
_cell_angle_gamma	83.941135
loop_
_atom_site_label
_atom_site_type_symbol
_atom_site_fract_x
_atom_site_fract_y
_atom_site_fract_z
O1	O	1.506220	0.126403	-0.108177
O2	O	2.006220	0.626403	0.391823
O3	O	1.175808	0.139431	-0.108208
O4	O	1.675808	0.639431	0.391792
O5	O	1.349762	-0.001288	-0.108180
O6	O	1.849762	0.498712	0.391820
O7	O	1.332266	0.267122	-0.108205
O8	O	1.832266	0.767122	0.391795
O9	O	1.349747	-0.001294	0.108421
O10	O	1.849747	0.498706	0.608421
O11	O	1.175793	0.139425	0.108393
O12	O	1.675793	0.639425	0.608393
O13	O	1.506205	0.126398	0.108424
O14	O	2.006205	0.626398	0.608424
Cu15	Cu	1.340997	0.132911	0.128186
Cu16	Cu	1.840997	0.632911	0.628186
Cu17	Cu	1.341015	0.132917	-0.127970
Cu18	Cu	1.841015	0.632917	0.372030
O19	O	1.332251	0.267116	0.108396
O20	O	1.832251	0.767116	0.608396
C21	C	1.133514	0.138609	0.000089
C22	C	1.633514	0.638609	0.500089
C23	C	1.007513	0.136160	0.000078
C24	C	1.507513	0.636160	0.500078
C25	C	1.348934	-0.035654	0.000121
C26	C	1.848934	0.464346	0.500121
C27	C	1.346478	-0.138043	0.000121
C28	C	1.846478	0.361957	0.500121
C29	C	0.776826	0.131656	0.000115
C30	C	1.276826	0.631656	0.500115
C31	C	0.905197	0.134159	0.000095
C32	C	1.405197	0.634159	0.500095
C33	C	1.344482	-0.221194	0.000118
C34	C	1.844482	0.278806	0.500118
C35	C	1.341988	-0.325512	0.000108
C36	C	1.841988	0.174488	0.500108
C37	C	1.340008	-0.408658	0.000100
C38	C	1.840008	0.091342	0.500100
C39	C	1.337514	-0.512983	0.000092
C40	C	1.837514	-0.012983	0.500092
C41	C	1.548499	0.127219	0.000124
C42	C	2.048499	0.627219	0.500124
C43	C	1.674499	0.129668	0.000127
C44	C	2.174499	0.629668	0.500127
C45	C	1.333078	0.301482	0.000092
C46	C	1.833078	0.801482	0.500092
C47	C	1.335535	0.403871	0.000083
C48	C	1.835535	0.903871	0.500083
N49	N	1.340993	0.132905	0.308352
N50	N	1.840993	0.632905	0.808352
N51	N	1.341029	0.132916	-0.308135
N52	N	1.841029	0.632916	0.191865
C53	C	1.341010	0.132916	0.574022
C54	C	1.841010	0.632916	1.074022
C55	C	1.340997	0.132912	0.426184
C56	C	1.840997	0.632912	0.926184
