data_functionalizedCrystal
_audit_creation_method	'MofGen! by Chris Wilmer'
_symmetry_space_group_name_H-M	'P1'
_symmetry_Int_Tables_number	1
_symmetry_cell_setting	triclinic
loop_
_symmetry_equiv_pos_as_xyz
  x,y,z
_cell_length_a	14.519731
_cell_length_b	18.366186
_cell_length_c	19.288865
_cell_angle_alpha	89.988521
_cell_angle_beta	83.412550
_cell_angle_gamma	89.990864
loop_
_atom_site_label
_atom_site_type_symbol
_atom_site_fract_x
_atom_site_fract_y
_atom_site_fract_z
O1	O	1.223283	-0.060560	0.091121
O2	O	0.954741	-0.060562	0.101828
O3	O	1.096772	-0.060547	-0.004627
O4	O	1.081253	-0.060575	0.197577
O5	O	1.096748	0.060553	-0.004633
O6	O	0.954717	0.060537	0.101823
O7	O	1.223259	0.060539	0.091116
Zn8	Zn	1.088984	0.079766	0.096469
Zn9	Zn	1.089016	-0.079788	0.096476
O10	O	1.081229	0.060524	0.197571
C11	C	0.920373	-0.000012	0.101324
C12	C	0.818002	-0.000013	0.099820
C13	C	1.096260	0.000005	-0.030508
C14	C	1.094761	0.000012	-0.107617
C15	C	0.734866	-0.000015	0.098599
C16	C	0.630567	-0.000015	0.097073
C17	C	0.547435	-0.000015	0.095861
C18	C	0.443130	-0.000017	0.094335
C19	C	1.257627	-0.000012	0.091620
C20	C	1.359998	-0.000016	0.093124
N21	N	1.088969	0.188657	0.096463
N22	N	1.089038	-0.188679	0.096475
C23	C	1.151881	0.226764	0.049348
C24	C	1.151887	0.302992	0.049345
C25	C	1.088990	0.341109	0.096469
C26	C	1.026066	0.302993	0.143588
C27	C	1.026056	0.226767	0.143585
C28	C	1.076645	0.461861	0.159712
C29	C	1.076661	0.538086	0.159716
C30	C	1.089016	0.576217	0.096478
C31	C	1.101374	0.538114	0.033234
C32	C	1.101364	0.461888	0.033231
C33	C	1.088994	0.423764	0.096477
C34	C	1.151938	0.696979	0.049356
C35	C	1.151937	0.773208	0.049351
C36	C	1.026121	0.773208	0.143600
C37	C	1.026117	0.696980	0.143598
C38	C	1.089030	0.658870	0.096477
C39	C	1.178099	0.000016	-0.152009
C40	C	1.176690	0.000004	-0.224461
C41	C	1.091940	0.000003	-0.252518
C42	C	1.008592	-0.000005	-0.208117
C43	C	1.010003	-0.000001	-0.135666
C44	C	1.025308	0.042421	-0.361051
C45	C	1.023901	0.042422	-0.433501
C46	C	1.087586	-0.000013	-0.475980
C47	C	1.152693	-0.042438	-0.446002
C48	C	1.154104	-0.042434	-0.373551
C49	C	1.090401	-0.000002	-0.331078
C50	C	1.169402	-0.000022	-0.598933
C51	C	1.167990	-0.000038	-0.671386
C52	C	0.999889	-0.000041	-0.655041
C53	C	1.001303	-0.000032	-0.582589
C54	C	1.086062	-0.000019	-0.554540
C55	C	1.081740	-0.000030	0.223452
C56	C	1.083239	-0.000041	0.300561
H57	H	1.203119	0.334024	0.010977
H58	H	0.973446	0.076981	-0.326470
N59	N	1.113985	0.422977	-0.031372
N60	N	1.125019	0.457024	-0.087833
H61	H	1.133930	0.429544	-0.133460
H62	H	0.942137	-0.000004	-0.099522
H63	H	1.235856	-0.000039	-0.707530
N64	N	0.957386	0.085754	-0.464107
N65	N	0.900456	0.056122	-0.499069
H66	H	0.853476	0.086729	-0.520679
N67	N	0.922012	-0.000009	-0.236760
N68	N	0.865904	-0.051056	-0.223185
H69	H	0.804752	-0.051062	-0.243412
N70	N	1.217768	-0.085776	-0.489382
N71	N	1.273117	-0.056139	-0.535273
H72	H	1.319080	-0.086742	-0.565912
N73	N	0.961809	0.187826	0.191719
N74	N	0.961816	0.119767	0.191715
H75	H	0.916444	0.092262	0.225712
N76	N	1.113997	0.577048	-0.031371
N77	N	1.186559	0.568538	-0.072127
H78	H	1.195475	0.596038	-0.117753
N79	N	1.255984	-0.000008	-0.570287
N80	N	1.330389	-0.000009	-0.609935
H81	H	1.391539	0.000003	-0.589707
N82	N	1.216089	0.658057	0.001133
N83	N	1.272176	0.692095	-0.040995
H84	H	1.317441	0.664608	-0.075086
N85	N	1.264683	0.000027	-0.123370
N86	N	1.339086	0.000028	-0.163019
H87	H	1.400238	0.000035	-0.142793
H88	H	1.244556	0.000005	-0.260612
N89	N	0.961859	0.812122	0.191738
N90	N	0.876626	0.803621	0.190637
H91	H	0.831236	0.831106	0.224635
N92	N	1.064051	0.576992	0.224321
N93	N	1.053011	0.542940	0.280778
H94	H	1.044106	0.570416	0.326409
N95	N	0.961848	0.658061	0.191731
N96	N	0.905689	0.692100	0.233801
H97	H	0.860293	0.664615	0.267796
N98	N	1.220610	-0.085761	-0.342930
N99	N	1.305337	-0.075066	-0.359272
H100	H	1.352307	-0.105668	-0.337645
N101	N	1.216226	0.187848	0.001270
N102	N	1.272446	0.221888	-0.040756
H103	H	1.317920	0.194403	-0.074690
H104	H	1.203164	0.804236	0.010981
H105	H	0.974853	0.334032	0.181956
H106	H	1.066568	0.430820	0.211211
H107	H	0.933441	-0.000031	-0.546444
N108	N	0.913326	-0.000050	-0.683703
N109	N	0.912076	-0.000058	-0.748391
H110	H	0.850938	-0.000068	-0.768638
