data_functionalizedCrystal
_audit_creation_method	'MofGen! by Chris Wilmer'
_symmetry_space_group_name_H-M	'P1'
_symmetry_Int_Tables_number	1
_symmetry_cell_setting	triclinic
loop_
_symmetry_equiv_pos_as_xyz
  x,y,z
_cell_length_a	12.759395
_cell_length_b	18.050589
_cell_length_c	12.759387
_cell_angle_alpha	90.029987
_cell_angle_beta	90.020509
_cell_angle_gamma	90.029758
loop_
_atom_site_label
_atom_site_type_symbol
_atom_site_fract_x
_atom_site_fract_y
_atom_site_fract_z
Zn1	Zn	1.606170	-0.295590	0.594011
Zn2	Zn	1.606019	-0.419799	0.418334
Zn3	Zn	1.430468	-0.295630	0.418348
Zn4	Zn	1.430419	-0.419746	0.593973
O5	O	1.518269	-0.357691	0.506166
O6	O	1.753171	-0.312072	0.570717
O7	O	1.582689	-0.403367	0.271315
O8	O	1.453859	-0.191700	0.441672
O9	O	1.753060	-0.403327	0.441648
O10	O	1.582946	-0.191671	0.570731
O11	O	1.453713	-0.312141	0.271325
O12	O	1.283441	-0.312089	0.441635
O13	O	1.453775	-0.403237	0.740999
O14	O	1.283405	-0.403277	0.570666
O15	O	1.582899	-0.312020	0.741027
O16	O	1.582642	-0.523716	0.441611
O17	O	1.453629	-0.523677	0.570652
C18	C	1.245302	-0.357682	0.506148
C19	C	1.128525	-0.357696	0.506166
C20	C	1.128526	-0.452803	0.640308
C21	C	1.073666	-0.500362	0.707383
C22	C	0.963944	-0.500371	0.707395
C23	C	0.909080	-0.452814	0.640329
C24	C	0.963940	-0.405255	0.573255
C25	C	1.073665	-0.405253	0.573247
C26	C	0.963939	-0.310146	0.439119
C27	C	1.073661	-0.310139	0.439099
C28	C	0.909076	-0.262589	0.372052
C29	C	0.963936	-0.215032	0.304971
C30	C	1.073664	-0.215026	0.304960
C31	C	1.128521	-0.262580	0.372025
C32	C	1.518142	-0.550643	0.506149
C33	C	1.518184	-0.633189	0.506177
C34	C	1.448096	-0.832646	0.576325
C35	C	1.422480	-0.882094	0.480456
C36	C	1.518287	-0.784319	0.506190
C37	C	1.543955	-0.881953	0.602070
C38	C	1.518385	-0.930304	0.506212
C39	C	1.492621	-0.832681	0.410271
C40	C	1.614141	-0.832535	0.531950
C41	C	1.588561	-0.881961	0.436015
C42	C	1.518228	-0.700221	0.506179
C43	C	1.518444	-1.014401	0.506212
C44	C	1.792302	-0.357701	0.506185
C45	C	1.909079	-0.357705	0.506193
C46	C	1.518348	-0.357618	0.780200
C47	C	1.518382	-0.357587	0.896977
C48	C	1.518425	-0.163986	0.506207
C49	C	1.518492	-0.081440	0.506224
C50	C	1.518251	-0.357710	0.233199
C51	C	1.518420	-0.357532	0.116423
C52	C	1.652848	-0.262609	0.897026
C53	C	1.720095	-0.215109	0.951911
C54	C	1.720121	-0.215082	1.061633
C55	C	1.652889	-0.262559	1.116472
C56	C	1.585642	-0.310059	1.061586
C57	C	1.585626	-0.310082	0.951862
C58	C	1.451173	-0.405032	1.061538
C59	C	1.451151	-0.405064	0.951816
C60	C	1.383942	-0.452509	1.116376
C61	C	1.316698	-0.500013	1.061491
C62	C	1.316676	-0.500039	0.951763
C63	C	1.383904	-0.452564	0.896931
H64	H	0.819735	-0.262596	0.372072
O65	O	1.659293	-0.907728	0.365127
C66	C	1.607395	-0.951743	0.289953
H67	H	1.530981	-0.973566	0.324445
H68	H	1.659618	-1.000343	0.267032
H69	H	1.589620	-0.916912	0.217596
H70	H	1.470856	-0.811126	0.329173
O71	O	1.710735	-0.806576	0.558152
C72	C	1.737455	-0.831650	0.659324
H73	H	1.662991	-0.845554	0.704587
H74	H	1.782517	-0.786390	0.702450
H75	H	1.788463	-0.883278	0.652746
O76	O	1.569693	-0.907686	0.698869
C77	C	1.495413	-0.882575	0.772539
H78	H	1.455374	-0.830616	0.741366
H79	H	1.536554	-0.869201	0.849590
H80	H	1.434249	-0.927599	0.786234
H81	H	0.919257	-0.176312	0.250376
H82	H	1.383897	-0.452583	0.807589
O83	O	1.653077	-0.262594	1.223054
C84	C	1.753765	-0.281644	1.259730
H85	H	1.797160	-0.314042	1.196503
H86	H	1.746223	-0.317232	1.333128
H87	H	1.799330	-0.229063	1.279216
O88	O	0.802497	-0.452818	0.640539
C89	C	0.765902	-0.433817	0.741277
H90	H	0.829155	-0.446555	0.801752
H91	H	0.692485	-0.467335	0.759879
H92	H	0.746473	-0.372200	0.743659
H93	H	1.118325	-0.176292	0.250347
O94	O	1.235104	-0.262711	0.372006
C95	C	1.271703	-0.333856	0.344811
H96	H	1.208453	-0.376652	0.362656
H97	H	1.345122	-0.347097	0.392157
H98	H	1.291130	-0.335348	0.257631
O99	O	1.377041	-0.806840	0.646863
C100	C	1.276140	-0.832113	0.619330
H101	H	1.274213	-0.846006	0.532184
H102	H	1.216165	-0.786977	0.636793
H103	H	1.256449	-0.883789	0.666746
H104	H	0.919277	-0.539094	0.762019
H105	H	1.118348	-0.539081	0.761988
O106	O	1.251298	-0.546151	1.114597
C107	C	1.191963	-0.588101	1.042631
H108	H	1.188338	-0.557707	0.964420
H109	H	1.109184	-0.596008	1.074318
H110	H	1.230385	-0.644511	1.030962
H111	H	1.341466	-0.903879	0.458688
H112	H	1.652843	-0.262634	0.807684
H113	H	1.774831	-0.176454	0.907249
O114	O	1.785541	-0.168918	1.114791
C115	C	1.844853	-0.127003	1.042868
H116	H	1.848451	-0.157436	0.964644
H117	H	1.927643	-0.119083	1.074591
H118	H	1.806429	-0.070599	1.031213
O119	O	1.383970	-0.452620	1.222959
C120	C	1.410914	-0.523787	1.259596
H121	H	1.392907	-0.566575	1.196349
H122	H	1.363530	-0.536967	1.332991
H123	H	1.498091	-0.525369	1.279074
H124	H	1.261904	-0.538712	0.907082
H125	H	1.217867	-0.452806	0.640297
