data_functionalizedCrystal
_audit_creation_method	'MofGen! by Chris Wilmer'
_symmetry_space_group_name_H-M	'P1'
_symmetry_Int_Tables_number	1
_symmetry_cell_setting	triclinic
loop_
_symmetry_equiv_pos_as_xyz
  x,y,z
_cell_length_a	29.839134
_cell_length_b	13.897448
_cell_length_c	13.897441
_cell_angle_alpha	89.969401
_cell_angle_beta	90.031618
_cell_angle_gamma	89.987446
loop_
_atom_site_label
_atom_site_type_symbol
_atom_site_fract_x
_atom_site_fract_y
_atom_site_fract_z
Zn1	Zn	0.686836	0.384116	0.545661
Zn2	Zn	0.686787	0.545438	0.384363
Zn3	Zn	0.611707	0.384144	0.384349
Zn4	Zn	0.611698	0.545357	0.545585
O5	O	0.649257	0.464764	0.464989
O6	O	0.749697	0.405538	0.524302
O7	O	0.676810	0.524088	0.249379
O8	O	0.621697	0.249159	0.405774
O9	O	0.749661	0.524061	0.405797
O10	O	0.676895	0.249138	0.524289
O11	O	0.621649	0.405586	0.249369
O12	O	0.548838	0.405507	0.405699
O13	O	0.621682	0.523922	0.680576
O14	O	0.548832	0.523949	0.524159
O15	O	0.676886	0.405459	0.680633
O16	O	0.676802	0.680409	0.405723
O17	O	0.621635	0.680349	0.524172
C18	C	0.649224	0.715378	0.464961
C19	C	0.649251	0.822592	0.464982
C20	C	0.532535	0.464723	0.464920
C21	C	0.482600	0.464729	0.464913
C22	C	0.649289	0.464678	0.716582
C23	C	0.649303	0.464642	0.823796
C24	C	0.172963	0.526528	0.526595
C25	C	-0.014710	0.526555	0.526638
O26	O	-0.038970	0.579053	0.579042
N27	N	-0.038185	0.464799	0.465062
C28	C	-0.014739	0.403028	0.403475
O29	O	-0.039012	0.350494	0.351109
C30	C	0.172933	0.402996	0.403438
C31	C	0.196406	0.464763	0.465011
C32	C	0.196435	0.588289	0.588165
C33	C	0.243351	0.588285	0.588150
C34	C	0.266794	0.526520	0.526565
C35	C	0.243321	0.464759	0.464996
C36	C	0.196379	0.341221	0.341856
C37	C	0.243300	0.341217	0.341854
C38	C	0.266772	0.402983	0.403428
C39	C	0.313680	0.402991	0.403397
N40	N	0.337155	0.464747	0.464973
C41	C	0.313712	0.526511	0.526557
C42	C	-0.113269	0.403050	0.403498
C43	C	-0.160187	0.403059	0.403506
C44	C	-0.160155	0.526585	0.526670
C45	C	-0.113237	0.526580	0.526657
C46	C	-0.089794	0.464806	0.465074
C47	C	0.412238	0.526500	0.526521
C48	C	0.459157	0.526493	0.526497
C49	C	0.459121	0.402964	0.403336
C50	C	0.412206	0.402973	0.403356
C51	C	0.388765	0.464744	0.464956
O52	O	0.337968	0.350512	0.351028
O53	O	0.337993	0.579022	0.578931
C54	C	0.126047	0.526531	0.526610
C55	C	0.102575	0.464770	0.465041
C56	C	0.126018	0.403006	0.403457
C57	C	0.055657	0.464779	0.465049
C58	C	0.032214	0.526544	0.526633
C59	C	0.055689	0.588300	0.588210
C60	C	0.102604	0.588296	0.588195
C61	C	0.102543	0.341250	0.341881
C62	C	0.055628	0.341259	0.341900
C63	C	0.032185	0.403024	0.403484
C64	C	0.766435	0.464805	0.465060
C65	C	0.816370	0.464823	0.465090
C66	C	0.649302	0.213171	0.465039
C67	C	0.649321	0.105957	0.465059
C68	C	0.649299	1.018887	0.465042
C69	C	0.649271	0.909655	0.465012
C70	C	0.649251	0.464779	0.214375
C71	C	0.649325	0.464544	0.107162
C72	C	0.649315	0.464577	1.020092
C73	C	0.649307	0.464616	0.910859
H74	H	0.478266	0.576795	0.576638
H75	H	0.262458	0.638580	0.638291
C76	C	0.170834	0.274138	0.275142
C77	C	0.143901	0.212395	0.329843
C78	C	0.120355	0.150608	0.268406
H79	H	0.191462	0.237260	0.238430
H80	H	0.152497	0.310990	0.233080
H81	H	0.162237	0.175547	0.371888
H82	H	0.123266	0.249246	0.366553
H83	H	0.102017	0.187460	0.226344
H84	H	0.140985	0.113737	0.231697
H85	H	0.102075	0.108714	0.305511
C86	C	0.268832	0.274184	0.275092
C87	C	0.314945	0.287375	0.288268
C88	C	0.338478	0.225635	0.226792
H89	H	0.261174	0.288159	0.210221
H90	H	0.261177	0.209372	0.289338
H91	H	0.322597	0.352172	0.274016
H92	H	0.322617	0.273393	0.353127
H93	H	0.330823	0.160824	0.241038
H94	H	0.330816	0.239616	0.161925
H95	H	0.369768	0.234571	0.235730
H96	H	0.177353	0.638585	0.638319
H97	H	-0.094187	0.352744	0.353345
C98	C	0.386873	0.593669	0.593437
C99	C	0.417479	0.647766	0.647330
C100	C	0.394130	0.709663	0.708970
H101	H	0.368586	0.556936	0.635625
H102	H	0.368565	0.635711	0.556497
H103	H	0.435780	0.605729	0.684267
H104	H	0.435767	0.684519	0.605167
H105	H	0.375822	0.751705	0.672030
H106	H	0.375844	0.672921	0.751152
H107	H	0.414893	0.746381	0.745537
C108	C	-0.087836	0.593671	0.593621
C109	C	-0.118414	0.647744	0.647566
C110	C	-0.095034	0.709549	0.709277
H111	H	-0.069543	0.635739	0.556759
H112	H	-0.069530	0.556842	0.635766
H113	H	-0.136712	0.684570	0.605425
H114	H	-0.136707	0.605701	0.684447
H115	H	-0.076728	0.672720	0.751422
H116	H	-0.076742	0.751611	0.672407
H117	H	-0.115777	0.746238	0.745892
C118	C	-0.185587	0.335899	0.336609
C119	C	-0.155009	0.281792	0.282699
C120	C	-0.178389	0.219900	0.221075
H121	H	-0.203907	0.372637	0.294431
H122	H	-0.203866	0.293864	0.373562
H123	H	-0.136738	0.323822	0.245748
H124	H	-0.136688	0.245034	0.324851
H125	H	-0.196668	0.177865	0.258028
H126	H	-0.196708	0.256645	0.178903
H127	H	-0.157646	0.183174	0.184496
H128	H	0.393093	0.352680	0.353216
H129	H	0.121626	0.290952	0.291730
C130	C	0.484660	0.335941	0.336584
C131	C	0.530772	0.349143	0.349780
C132	C	0.554313	0.287404	0.288320
H133	H	0.477008	0.349908	0.271708
H134	H	0.477008	0.271129	0.350833
H135	H	0.538421	0.413941	0.335525
H136	H	0.538438	0.335169	0.414643
H137	H	0.546661	0.222591	0.302568
H138	H	0.546657	0.301376	0.223448
H139	H	0.585602	0.296347	0.297271
C140	C	-0.185637	0.593479	0.593660
C141	C	-0.212540	0.538923	0.655589
C142	C	-0.236017	0.600502	0.717323
H143	H	-0.203991	0.635486	0.556808
H144	H	-0.164955	0.630242	0.630396
H145	H	-0.233220	0.502176	0.618856
H146	H	-0.194197	0.496919	0.692462
H147	H	-0.215335	0.637266	0.754059
H148	H	-0.254369	0.642506	0.680463
H149	H	-0.254271	0.563495	0.759354
C150	C	0.128004	0.655390	0.655159
C151	C	0.097424	0.709456	0.709105
C152	C	0.120802	0.771265	0.770816
H153	H	0.146294	0.697462	0.618297
H154	H	0.146312	0.618564	0.697303
H155	H	0.079123	0.746279	0.666966
H156	H	0.079132	0.667409	0.745987
H157	H	0.139109	0.734439	0.812961
H158	H	0.139091	0.813331	0.733947
H159	H	0.100056	0.807949	0.807433
H160	H	0.036594	0.638594	0.638351
H161	H	0.036520	0.290963	0.291751
