data_functionalizedCrystal
_audit_creation_method	'MofGen! by Chris Wilmer'
_symmetry_space_group_name_H-M	'P1'
_symmetry_Int_Tables_number	1
_symmetry_cell_setting	triclinic
loop_
_symmetry_equiv_pos_as_xyz
  x,y,z
_cell_length_a	16.120490
_cell_length_b	16.120444
_cell_length_c	11.169409
_cell_angle_alpha	92.861473
_cell_angle_beta	87.080796
_cell_angle_gamma	90.165174
loop_
_atom_site_label
_atom_site_type_symbol
_atom_site_fract_x
_atom_site_fract_y
_atom_site_fract_z
Zn1	Zn	1.254505	-0.395597	-0.798889
Zn2	Zn	1.754505	0.104403	-0.298889
Zn3	Zn	1.247337	-0.534676	-0.607813
Zn4	Zn	1.747337	-0.034676	-0.107813
Zn5	Zn	1.115435	-0.388577	-0.587565
Zn6	Zn	1.615435	0.111423	-0.087565
Zn7	Zn	1.108354	-0.527542	-0.797798
Zn8	Zn	1.608354	-0.027542	-0.297798
O9	O	1.181408	-0.461598	-0.698017
O10	O	1.681408	0.038402	-0.198017
O11	O	1.369920	-0.419969	-0.782473
O12	O	1.869920	0.080031	-0.282473
O13	O	1.229803	-0.515343	-0.437178
O14	O	1.729803	-0.015343	0.062822
O15	O	1.139846	-0.273146	-0.607581
O16	O	1.639846	0.226854	-0.107581
O17	O	1.364653	-0.522150	-0.642091
O18	O	1.864653	-0.022150	-0.142091
O19	O	1.242020	-0.278303	-0.762840
O20	O	1.742020	0.221697	-0.262840
O21	O	1.132895	-0.408006	-0.422302
O22	O	1.632895	0.091994	0.077698
O23	O	0.998129	-0.401088	-0.606523
O24	O	1.498129	0.098912	-0.106523
O25	O	1.127778	-0.509992	-0.965892
O26	O	1.627778	-0.009992	-0.465892
O27	O	0.992928	-0.503185	-0.760980
O28	O	1.492928	-0.003185	-0.260980
O29	O	1.235154	-0.413052	-0.966694
O30	O	1.735154	0.086948	-0.466694
O31	O	1.222937	-0.650092	-0.641032
O32	O	1.722937	-0.150092	-0.141032
O33	O	1.120828	-0.644851	-0.780613
O34	O	1.620828	-0.144851	-0.280613
C35	C	0.965356	-0.450602	-0.681436
C36	C	1.465356	0.049398	-0.181436
C37	C	0.872927	-0.445917	-0.674373
C38	C	1.372927	0.054083	-0.174373
C39	C	0.659960	-0.485890	-0.734656
C40	C	1.159960	0.014110	-0.234656
C41	C	0.703703	-0.437373	-0.661476
C42	C	1.203703	0.062627	-0.161476
C43	C	0.797868	-0.442128	-0.668654
C44	C	1.297868	0.057872	-0.168654
C45	C	0.565786	-0.481135	-0.727480
C46	C	1.065786	0.018865	-0.227480
C47	C	1.170359	-0.677644	-0.712929
C48	C	1.670359	-0.177644	-0.212929
C49	C	1.165708	-0.770073	-0.719355
C50	C	1.665708	-0.270073	-0.219355
C51	C	1.205736	-0.983054	-0.664956
C52	C	1.705736	-0.483054	-0.164956
C53	C	1.157233	-0.939298	-0.731101
C54	C	1.657233	-0.439298	-0.231101
C55	C	1.161950	-0.845133	-0.724564
C56	C	1.661950	-0.345133	-0.224564
C57	C	1.201020	-1.077229	-0.671492
C58	C	1.701020	-0.577229	-0.171492
C59	C	1.398303	-0.472638	-0.714662
C60	C	1.898303	0.027362	-0.214662
C61	C	1.490730	-0.477343	-0.721756
C62	C	1.990730	0.022657	-0.221756
C63	C	1.181476	-0.461509	-1.011058
C64	C	1.681476	0.038491	-0.511058
C65	C	1.181505	-0.461471	-1.144457
C66	C	1.681505	0.038529	-0.644457
C67	C	1.192522	-0.244710	-0.683073
C68	C	1.692522	0.255290	-0.183073
C69	C	1.197258	-0.152285	-0.676706
C70	C	1.697258	0.347715	-0.176706
C71	C	1.181390	-0.461629	-0.386193
C72	C	1.681390	0.038371	0.113807
C73	C	1.181534	-0.461441	-0.252790
C74	C	1.681534	0.038559	0.247210
H75	H	0.693227	-0.530995	-0.802692
H76	H	1.193227	-0.030995	-0.302692
H77	H	0.670434	-0.392265	-0.593434
H78	H	1.170434	0.107735	-0.093434
H79	H	1.112165	-0.972558	-0.792638
H80	H	1.612165	-0.472558	-0.292638
H81	H	1.250800	-0.949798	-0.603422
H82	H	1.750800	-0.449798	-0.103422
