data_functionalizedCrystal
_audit_creation_method	'MofGen! by Chris Wilmer'
_symmetry_space_group_name_H-M	'P1'
_symmetry_Int_Tables_number	1
_symmetry_cell_setting	triclinic
loop_
_symmetry_equiv_pos_as_xyz
  x,y,z
_cell_length_a	16.109302
_cell_length_b	16.109304
_cell_length_c	13.448316
_cell_angle_alpha	89.996206
_cell_angle_beta	89.991297
_cell_angle_gamma	83.462209
loop_
_atom_site_label
_atom_site_type_symbol
_atom_site_fract_x
_atom_site_fract_y
_atom_site_fract_z
O1	O	1.103135	0.106872	-0.082730
O2	O	1.353135	0.356872	0.167270
O3	O	1.603135	0.606872	0.417270
O4	O	1.853135	0.856872	0.667270
O5	O	0.861073	0.120171	-0.082722
O6	O	1.111073	0.370171	0.167278
O7	O	1.361073	0.620171	0.417278
O8	O	1.611073	0.870171	0.667278
O9	O	0.988753	-0.007510	-0.082727
O10	O	1.238753	0.242490	0.167273
O11	O	1.488753	0.492490	0.417273
O12	O	1.738753	0.742490	0.667273
O13	O	0.975456	0.234552	-0.082725
O14	O	1.225456	0.484552	0.167275
O15	O	1.475456	0.734552	0.417275
O16	O	1.725456	0.984552	0.667275
O17	O	0.988737	-0.007517	0.082657
O18	O	1.238737	0.242483	0.332657
O19	O	1.488737	0.492483	0.582657
O20	O	1.738737	0.742483	0.832657
O21	O	0.861057	0.120163	0.082662
O22	O	1.111057	0.370163	0.332662
O23	O	1.361057	0.620163	0.582662
O24	O	1.611057	0.870163	0.832662
O25	O	1.103119	0.106864	0.082654
O26	O	1.353119	0.356864	0.332654
O27	O	1.603119	0.606864	0.582654
O28	O	1.853119	0.856864	0.832654
Cu29	Cu	0.982087	0.113513	0.097759
Cu30	Cu	1.232087	0.363513	0.347759
Cu31	Cu	1.482087	0.613513	0.597759
Cu32	Cu	1.732087	0.863513	0.847759
Cu33	Cu	0.982106	0.113522	-0.097827
Cu34	Cu	1.232106	0.363522	0.152173
Cu35	Cu	1.482106	0.613522	0.402173
Cu36	Cu	1.732106	0.863522	0.652173
O37	O	0.975440	0.234544	0.082659
O38	O	1.225440	0.484544	0.332659
O39	O	1.475440	0.734544	0.582659
O40	O	1.725440	0.984544	0.832659
C41	C	0.830090	0.119628	-0.000029
C42	C	1.080090	0.369628	0.249971
C43	C	1.330090	0.619628	0.499971
C44	C	1.580090	0.869628	0.749971
C45	C	0.737795	0.118012	-0.000026
C46	C	0.987795	0.368012	0.249974
C47	C	1.237795	0.618012	0.499974
C48	C	1.487795	0.868012	0.749974
C49	C	0.988206	-0.038488	-0.000037
C50	C	1.238206	0.211512	0.249963
C51	C	1.488206	0.461512	0.499963
C52	C	1.738206	0.711512	0.749963
C53	C	0.986590	-0.130784	-0.000044
C54	C	1.236590	0.119216	0.249956
C55	C	1.486590	0.369216	0.499956
C56	C	1.736590	0.619216	0.749956
C57	C	0.525445	0.114273	0.090115
C58	C	0.775445	0.364273	0.340115
C59	C	1.025445	0.614273	0.590115
C60	C	1.275445	0.864273	0.840115
C61	C	0.438725	0.112746	0.090112
C62	C	0.688725	0.362746	0.340112
C63	C	0.938725	0.612746	0.590112
C64	C	1.188725	0.862746	0.840112
C65	C	0.438753	0.112759	-0.090199
C66	C	0.688753	0.362759	0.159801
C67	C	0.938753	0.612759	0.409801
C68	C	1.188753	0.862759	0.659801
C69	C	0.525473	0.114280	-0.090194
C70	C	0.775473	0.364280	0.159806
C71	C	1.025473	0.614280	0.409806
C72	C	1.275473	0.864280	0.659806
C73	C	0.568816	0.115041	-0.000034
C74	C	0.818816	0.365041	0.249966
C75	C	1.068816	0.615041	0.499966
C76	C	1.318816	0.865041	0.749966
C77	C	0.395377	0.111994	-0.000042
C78	C	0.645377	0.361994	0.249958
C79	C	0.895377	0.611994	0.499958
C80	C	1.145377	0.861994	0.749958
C81	C	0.301351	0.110338	-0.000047
C82	C	0.551351	0.360338	0.249953
C83	C	0.801351	0.610338	0.499953
C84	C	1.051351	0.860338	0.749953
C85	C	0.662848	0.116695	-0.000030
C86	C	0.912848	0.366695	0.249970
C87	C	1.162848	0.616695	0.499970
C88	C	1.412848	0.866695	0.749970
C89	C	0.982865	-0.343117	-0.090191
C90	C	1.232865	-0.093117	0.159809
C91	C	1.482865	0.156883	0.409809
C92	C	1.732865	0.406883	0.659809
C93	C	0.981339	-0.429837	-0.090190
C94	C	1.231339	-0.179837	0.159810
C95	C	1.481339	0.070163	0.409810
C96	C	1.731339	0.320163	0.659810
C97	C	0.981325	-0.429842	0.090121
C98	C	1.231325	-0.179842	0.340121
C99	C	1.481325	0.070158	0.590121
C100	C	1.731325	0.320158	0.840121
C101	C	0.982845	-0.343123	0.090119
C102	C	1.232845	-0.093123	0.340119
C103	C	1.482845	0.156877	0.590119
C104	C	1.732845	0.406877	0.840119
C105	C	0.983619	-0.299763	-0.000040
C106	C	1.233619	-0.049763	0.249960
C107	C	1.483619	0.200237	0.499960
C108	C	1.733619	0.450237	0.749960
C109	C	0.980573	-0.473202	-0.000037
C110	C	1.230573	-0.223202	0.249963
C111	C	1.480573	0.026798	0.499963
C112	C	1.730573	0.276798	0.749963
C113	C	0.978918	-0.567228	-0.000035
C114	C	1.228918	-0.317228	0.249965
C115	C	1.478918	-0.067228	0.499965
C116	C	1.728918	0.182772	0.749965
C117	C	0.985272	-0.205731	-0.000042
C118	C	1.235272	0.044269	0.249958
C119	C	1.485272	0.294269	0.499958
C120	C	1.735272	0.544269	0.749958
C121	C	1.134102	0.107407	-0.000041
C122	C	1.384102	0.357407	0.249959
C123	C	1.634102	0.607407	0.499959
C124	C	1.884102	0.857407	0.749959
C125	C	1.226397	0.109022	-0.000051
C126	C	1.476397	0.359022	0.249949
C127	C	1.726397	0.609022	0.499949
C128	C	1.976397	0.859022	0.749949
C129	C	0.975987	0.265523	-0.000033
C130	C	1.225987	0.515523	0.249967
C131	C	1.475987	0.765523	0.499967
C132	C	1.725987	1.015523	0.749967
C133	C	0.977603	0.357818	-0.000033
C134	C	1.227603	0.607818	0.249967
C135	C	1.477603	0.857818	0.499967
C136	C	1.727603	1.107818	0.749967
N137	N	0.982079	0.113506	0.235323
N138	N	1.232079	0.363506	0.485323
N139	N	1.482079	0.613506	0.735323
N140	N	1.732079	0.863506	0.985323
N141	N	0.982120	0.113522	-0.235391
N142	N	1.232120	0.363522	0.014609
N143	N	1.482120	0.613522	0.264609
N144	N	1.732120	0.863522	0.514609
C145	C	1.038633	0.056992	0.287361
C146	C	1.288633	0.306992	0.537361
C147	C	1.538633	0.556992	0.787361
C148	C	1.788633	0.806992	1.037361
C149	C	1.038639	0.056991	0.391464
C150	C	1.288639	0.306991	0.641464
C151	C	1.538639	0.556991	0.891464
C152	C	1.788639	0.806991	1.141464
C153	C	0.982093	0.113509	0.443528
C154	C	1.232093	0.363509	0.693528
C155	C	1.482093	0.613509	0.943528
C156	C	1.732093	0.863509	1.193528
C157	C	0.925533	0.170025	0.391482
C158	C	1.175533	0.420025	0.641482
C159	C	1.425533	0.670025	0.891482
C160	C	1.675533	0.920025	1.141482
C161	C	0.925525	0.170021	0.287381
C162	C	1.175525	0.420021	0.537381
C163	C	1.425525	0.670021	0.787381
C164	C	1.675525	0.920021	1.037381
C165	C	0.925556	0.170031	0.608462
C166	C	1.175556	0.420031	0.858462
C167	C	1.425556	0.670031	1.108462
C168	C	1.675556	0.920031	1.358462
C169	C	0.925566	0.170036	0.712571
C170	C	1.175566	0.420036	0.962571
C171	C	1.425566	0.670036	1.212571
C172	C	1.675566	0.920036	1.462571
C173	C	1.038670	0.057001	0.712546
C174	C	1.288670	0.307001	0.962546
C175	C	1.538670	0.557001	1.212546
C176	C	1.788670	0.807001	1.462546
C177	C	1.038662	0.056997	0.608444
C178	C	1.288662	0.306997	0.858444
C179	C	1.538662	0.556997	1.108444
C180	C	1.788662	0.806997	1.358444
C181	C	0.982103	0.113514	0.556406
C182	C	1.232103	0.363514	0.806406
C183	C	1.482103	0.613514	1.056406
C184	C	1.732103	0.863514	1.306406
H185	H	0.560733	0.114893	0.163529
H186	H	0.810733	0.364893	0.413529
H187	H	1.060733	0.614893	0.663529
H188	H	1.310733	0.864893	0.913529
F189	F	0.983641	-0.296979	0.186075
F190	F	1.233641	-0.046979	0.436075
F191	F	1.483641	0.203021	0.686075
F192	F	1.733641	0.453021	0.936075
H193	H	1.084722	0.010982	0.754921
H194	H	1.334722	0.260982	1.004921
H195	H	1.584722	0.510982	1.254921
H196	H	1.834722	0.760982	1.504921
F197	F	0.392571	0.111930	0.186061
F198	F	0.642571	0.361930	0.436061
F199	F	0.892571	0.611930	0.686061
F200	F	1.142571	0.861930	0.936061
F201	F	0.392619	0.111932	-0.186148
F202	F	0.642619	0.361932	0.063852
F203	F	0.892619	0.611932	0.313852
F204	F	1.142619	0.861932	0.563852
H205	H	1.084683	0.010972	0.244978
H206	H	1.334683	0.260972	0.494978
H207	H	1.584683	0.510972	0.744978
H208	H	1.834683	0.760972	0.994978
F209	F	0.571634	0.115092	-0.186149
F210	F	0.821634	0.365092	0.063851
F211	F	1.071634	0.615092	0.313851
F212	F	1.321634	0.865092	0.563851
H213	H	0.983492	-0.307815	-0.163604
H214	H	1.233492	-0.057815	0.086396
H215	H	1.483492	0.192185	0.336396
H216	H	1.733492	0.442185	0.586396
H217	H	0.980722	-0.465131	-0.163599
H218	H	1.230722	-0.215131	0.086401
H219	H	1.480722	0.034869	0.336401
H220	H	1.730722	0.284869	0.586401
F221	F	0.980501	-0.475996	0.186069
F222	F	1.230501	-0.225996	0.436069
F223	F	1.480501	0.024004	0.686069
F224	F	1.730501	0.274004	0.936069
F225	F	1.098828	-0.003157	0.446848
F226	F	1.348828	0.246843	0.696848
F227	F	1.598828	0.496843	0.946848
F228	F	1.848828	0.746843	1.196848
H229	H	1.084709	0.010980	0.566055
H230	H	1.334709	0.260980	0.816055
H231	H	1.584709	0.510980	1.066055
H232	H	1.834709	0.760980	1.316055
F233	F	0.865348	0.230172	0.446893
F234	F	1.115348	0.480172	0.696893
F235	F	1.365348	0.730172	0.946893
F236	F	1.615348	0.980172	1.196893
H237	H	0.879520	0.216057	0.754955
H238	H	1.129520	0.466057	1.004955
H239	H	1.379520	0.716057	1.254955
H240	H	1.629520	0.966057	1.504955
H241	H	0.879497	0.216051	0.566096
H242	H	1.129497	0.466051	0.816096
H243	H	1.379497	0.716051	1.066096
H244	H	1.629497	0.966051	1.316096
H245	H	0.879472	0.216039	0.245012
H246	H	1.129472	0.466039	0.495012
H247	H	1.379472	0.716039	0.745012
H248	H	1.629472	0.966039	0.995012
