data_functionalizedCrystal
_audit_creation_method	'MofGen! by Chris Wilmer'
_symmetry_space_group_name_H-M	'P1'
_symmetry_Int_Tables_number	1
_symmetry_cell_setting	triclinic
loop_
_symmetry_equiv_pos_as_xyz
  x,y,z
_cell_length_a	18.215405
_cell_length_b	25.639243
_cell_length_c	18.215407
_cell_angle_alpha	89.987300
_cell_angle_beta	90.013686
_cell_angle_gamma	89.973500
loop_
_atom_site_label
_atom_site_type_symbol
_atom_site_fract_x
_atom_site_fract_y
_atom_site_fract_z
Zn1	Zn	-0.293053	-0.799262	0.416156
Zn2	Zn	0.206947	-0.299262	0.916156
Zn3	Zn	-0.416091	-0.799213	0.293087
Zn4	Zn	0.083909	-0.299213	0.793087
Zn5	Zn	-0.293049	-0.711843	0.293099
Zn6	Zn	0.206951	-0.211843	0.793099
Zn7	Zn	-0.416089	-0.711806	0.416107
Zn8	Zn	0.083911	-0.211806	0.916107
O9	O	-0.354570	-0.755531	0.354612
O10	O	0.145430	-0.255531	0.854612
O11	O	-0.309378	-0.872421	0.399847
O12	O	0.190622	-0.372421	0.899847
O13	O	-0.399768	-0.787619	0.190104
O14	O	0.100232	-0.287619	0.690104
O15	O	-0.190065	-0.723476	0.309448
O16	O	0.309935	-0.223476	0.809448
O17	O	-0.399773	-0.872385	0.309429
O18	O	0.100227	-0.372385	0.809429
O19	O	-0.190069	-0.787702	0.399858
O20	O	0.309931	-0.287702	0.899858
O21	O	-0.309369	-0.723428	0.190113
O22	O	0.190631	-0.223428	0.690113
O23	O	-0.309367	-0.638673	0.309400
O24	O	0.190633	-0.138673	0.809400
O25	O	-0.399769	-0.723412	0.519098
O26	O	0.100231	-0.223412	1.019098
O27	O	-0.399764	-0.638646	0.399773
O28	O	0.100236	-0.138646	0.899773
O29	O	-0.309375	-0.787666	0.519134
O30	O	0.190625	-0.287666	1.019134
O31	O	-0.519075	-0.787582	0.309380
O32	O	-0.019075	-0.287582	0.809380
O33	O	-0.519073	-0.723365	0.399762
O34	O	-0.019073	-0.223365	0.899762
C35	C	-0.354565	-0.619689	0.354583
C36	C	0.145435	-0.119689	0.854583
C37	C	-0.354581	-0.561575	0.354588
C38	C	0.145419	-0.061575	0.854588
C39	C	-0.307575	-0.201225	0.401771
C40	C	0.192425	0.298775	0.901771
C41	C	-0.307574	-0.146620	0.401776
C42	C	0.192426	0.353380	0.901776
O43	O	-0.267595	-0.118395	0.441856
O44	O	0.232405	0.381605	0.941856
N45	N	-0.354568	-0.119292	0.354632
N46	N	0.145432	0.380708	0.854632
C47	C	-0.401559	-0.146571	0.307475
C48	C	0.098441	0.353429	0.807475
O49	O	-0.441530	-0.118312	0.267376
O50	O	0.058470	0.381688	0.767376
C51	C	-0.401556	-0.201174	0.307467
C52	C	0.098444	0.298826	0.807467
C53	C	-0.354565	-0.228500	0.354620
C54	C	0.145435	0.271500	0.854620
C55	C	-0.260587	-0.228550	0.448919
C56	C	0.239413	0.271450	0.948919
C57	C	-0.260589	-0.283151	0.448915
C58	C	0.239411	0.216849	0.948915
C59	C	-0.307579	-0.310426	0.401764
C60	C	0.192421	0.189574	0.901764
C61	C	-0.354566	-0.283100	0.354616
C62	C	0.145434	0.216900	0.854616
C63	C	-0.448543	-0.228452	0.260308
C64	C	0.051457	0.271548	0.760308
C65	C	-0.448535	-0.283059	0.260304
C66	C	0.051465	0.216941	0.760304
C67	C	-0.401544	-0.310385	0.307456
C68	C	0.098456	0.189615	0.807456
C69	C	-0.401558	-0.364976	0.307461
C70	C	0.098442	0.135024	0.807461
N71	N	-0.354565	-0.392304	0.354604
N72	N	0.145435	0.107696	0.854604
C73	C	-0.307575	-0.365029	0.401756
C74	C	0.192425	0.134971	0.901756
C75	C	-0.401562	-0.031900	0.307494
C76	C	0.098438	0.468100	0.807494
C77	C	-0.401570	0.022702	0.307505
C78	C	0.098430	0.522702	0.807505
C79	C	-0.307584	0.022649	0.401804
C80	C	0.192416	0.522649	0.901804
C81	C	-0.307580	-0.031954	0.401797
C82	C	0.192420	0.468046	0.901797
C83	C	-0.354569	-0.059229	0.354638
C84	C	0.145431	0.440771	0.854638
C85	C	-0.307583	-0.479694	0.401745
C86	C	0.192417	0.020306	0.901745
C87	C	-0.307591	-0.534299	0.401739
C88	C	0.192409	-0.034299	0.901739
C89	C	-0.401574	-0.534242	0.307437
C90	C	0.098426	-0.034242	0.807437
C91	C	-0.401569	-0.479641	0.307445
C92	C	0.098431	0.020359	0.807445
C93	C	-0.354567	-0.452369	0.354602
C94	C	0.145433	0.047631	0.854602
O95	O	-0.441515	-0.393236	0.267398
O96	O	0.058485	0.106764	0.767398
O97	O	-0.267604	-0.393294	0.441842
O98	O	0.232396	0.106706	0.941842
C99	C	-0.545777	-0.755478	0.354581
C100	C	-0.045777	-0.255478	0.854581
C101	C	-0.627576	-0.755504	0.354592
C102	C	-0.127576	-0.255504	0.854592
C103	C	-0.892610	-0.789040	0.307629
C104	C	-0.392610	-0.289040	0.807629
C105	C	-0.815751	-0.789018	0.307612
C106	C	-0.315751	-0.289018	0.807612
C107	C	-0.815790	-0.722087	0.401645
C108	C	-0.315790	-0.222087	0.901645
C109	C	-0.892647	-0.722106	0.401658
C110	C	-0.392647	-0.222106	0.901658
C111	C	-0.931055	-0.755586	0.354651
C112	C	-0.431055	-0.255586	0.854651
C113	C	-0.777339	-0.755545	0.354621
C114	C	-0.277339	-0.255545	0.854621
C115	C	-0.694005	-0.755521	0.354603
C116	C	-0.194005	-0.255521	0.854603
C117	C	-1.014394	-0.755609	0.354668
C118	C	-0.514394	-0.255609	0.854668
C119	C	-0.162617	-0.755598	0.354660
C120	C	0.337383	-0.255598	0.854660
C121	C	-0.080819	-0.755627	0.354680
C122	C	0.419181	-0.255627	0.854680
C123	C	-0.354572	-0.755540	0.546565
C124	C	0.145428	-0.255540	1.046565
C125	C	-0.354573	-0.755544	0.628364
C126	C	0.145427	-0.255544	1.128364
C127	C	-0.354576	0.108096	0.354642
C128	C	0.145424	0.608096	0.854642
C129	C	-0.354577	0.049982	0.354654
C130	C	0.145423	0.549982	0.854654
C131	C	-0.307513	-0.788990	0.816578
C132	C	0.192487	-0.288990	1.316578
C133	C	-0.307513	-0.788987	0.893437
C134	C	0.192487	-0.288987	1.393437
C135	C	-0.401644	-0.722081	0.893388
C136	C	0.098356	-0.222081	1.393388
C137	C	-0.401640	-0.722081	0.816530
C138	C	0.098360	-0.222081	1.316530
C139	C	-0.354576	-0.755539	0.778127
C140	C	0.145424	-0.255539	1.278127
C141	C	-0.354579	-0.755536	0.931844
C142	C	0.145421	-0.255536	1.431844
C143	C	-0.354579	-0.755532	1.015177
C144	C	0.145421	-0.255532	1.515177
C145	C	-0.354575	-0.755542	0.694789
C146	C	0.145425	-0.255542	1.194789
C147	C	-0.354584	-0.755522	1.163406
C148	C	0.145416	-0.255522	1.663406
C149	C	-0.354582	-0.755531	1.081607
C150	C	0.145418	-0.255531	1.581607
H151	H	-0.269325	-0.556545	0.440139
H152	H	0.230675	-0.056545	0.940139
F153	F	-0.498549	-0.312083	0.210110
F154	F	0.001451	0.187917	0.710110
H155	H	-0.439841	-0.457392	0.269059
H156	H	0.060159	0.042608	0.769059
H157	H	-0.269315	-0.054199	0.440191
H158	H	0.230685	0.445801	0.940191
F159	F	-0.451733	-0.686476	0.934265
F160	F	0.048267	-0.186476	1.434265
H161	H	-0.269321	0.044866	0.440196
H162	H	0.230679	0.544866	0.940196
H163	H	-0.269188	-0.816226	0.924740
H164	H	0.230812	-0.316226	1.424740
H165	H	-0.439964	-0.694838	0.785223
H166	H	0.060036	-0.194838	1.285223
H167	H	-0.439843	0.044946	0.269117
H168	H	0.060157	0.544946	0.769117
F169	F	-0.498547	-0.199382	0.210110
F170	F	0.001453	0.300618	0.710110
H171	H	-0.269308	-0.457495	0.440142
H172	H	0.230692	0.042505	0.940142
H173	H	-0.222319	-0.206348	0.487315
H174	H	0.277681	0.293652	0.987315
F175	F	-0.210572	-0.312225	0.499099
F176	F	0.289428	0.187775	0.999099
H177	H	-0.439833	-0.054104	0.269093
H178	H	0.060167	0.445896	0.769093
H179	H	-0.923879	-0.816301	0.269353
H180	H	-0.423879	-0.316301	0.769353
F181	F	-0.451582	-0.563279	0.257259
F182	F	0.048418	-0.063279	0.757259
H183	H	-0.784451	-0.816259	0.269322
H184	H	-0.284451	-0.316259	0.769322
H185	H	-0.784511	-0.694830	0.439918
H186	H	-0.284511	-0.194830	0.939918
F187	F	-0.257421	-0.824598	0.775710
F188	F	0.242579	-0.324598	1.275710
F189	F	-0.933566	-0.686497	0.451706
F190	F	-0.433566	-0.186497	0.951706
