data_functionalizedCrystal
_audit_creation_method	'MofGen! by Chris Wilmer'
_symmetry_space_group_name_H-M	'P1'
_symmetry_Int_Tables_number	1
_symmetry_cell_setting	triclinic
loop_
_symmetry_equiv_pos_as_xyz
  x,y,z
_cell_length_a	19.188925
_cell_length_b	23.532357
_cell_length_c	18.266242
_cell_angle_alpha	89.988103
_cell_angle_beta	89.990012
_cell_angle_gamma	82.985420
loop_
_atom_site_label
_atom_site_type_symbol
_atom_site_fract_x
_atom_site_fract_y
_atom_site_fract_z
O1	O	0.925909	0.071089	-0.060906
O2	O	1.259242	0.404422	0.272428
O3	O	1.592576	0.737755	0.605761
O4	O	0.722565	0.080664	-0.060905
O5	O	1.055898	0.413997	0.272429
O6	O	1.389231	0.747330	0.605762
O7	O	0.830387	-0.007044	-0.060890
O8	O	1.163720	0.326289	0.272443
O9	O	1.497054	0.659622	0.605777
O10	O	0.818087	0.158797	-0.060920
O11	O	1.151420	0.492130	0.272413
O12	O	1.484754	0.825464	0.605747
O13	O	0.830369	-0.007049	0.060872
O14	O	1.163702	0.326284	0.394205
O15	O	1.497035	0.659618	0.727539
O16	O	0.722547	0.080659	0.060857
O17	O	1.055880	0.413993	0.394191
O18	O	1.389213	0.747326	0.727524
O19	O	0.925891	0.071084	0.060856
O20	O	1.259224	0.404418	0.394190
O21	O	1.592558	0.737751	0.727523
Zn22	Zn	0.824216	0.075871	0.080189
Zn23	Zn	1.157549	0.409204	0.413523
Zn24	Zn	1.490883	0.742538	0.746856
Zn25	Zn	0.824240	0.075877	-0.080237
Zn26	Zn	1.157573	0.409210	0.253096
Zn27	Zn	1.490906	0.742544	0.586429
O28	O	0.818069	0.158793	0.060842
O29	O	1.151402	0.492126	0.394175
O30	O	1.484735	0.825459	0.727509
C31	C	0.696546	0.080352	-0.000023
C32	C	1.029879	0.413685	0.333310
C33	C	1.363212	0.747019	0.666643
C34	C	0.619044	0.079423	-0.000022
C35	C	0.952377	0.412756	0.333311
C36	C	1.285711	0.746089	0.666644
C37	C	0.057119	0.124665	-0.000032
C38	C	0.390453	0.457998	0.333301
C39	C	0.723786	0.791331	0.666634
C40	C	0.129940	0.125543	-0.000036
C41	C	0.463273	0.458876	0.333297
C42	C	0.796606	0.792210	0.666630
C43	C	0.175050	0.074079	-0.000026
C44	C	0.508383	0.407412	0.333308
C45	C	0.841716	0.740745	0.666641
C46	C	0.147334	0.021732	-0.000030
C47	C	0.480668	0.355066	0.333303
C48	C	0.814001	0.688399	0.666637
C49	C	0.074515	0.020856	-0.000033
C50	C	0.407849	0.354189	0.333300
C51	C	0.741182	0.687522	0.666634
N52	N	0.295848	0.036819	0.041430
N53	N	0.629181	0.370152	0.374763
N54	N	0.962514	0.703486	0.708096
N55	N	0.365022	0.037655	0.041434
N56	N	0.698356	0.370988	0.374768
N57	N	1.031689	0.704322	0.708101
C58	C	0.394450	0.076717	-0.000018
C59	C	0.727783	0.410050	0.333316
C60	C	1.061117	0.743383	0.666649
N61	N	0.352088	0.114919	-0.041465
N62	N	0.685422	0.448252	0.291868
N63	N	1.018755	0.781585	0.625202
N64	N	0.282907	0.114084	-0.041466
N65	N	0.616241	0.447417	0.291867
N66	N	0.949574	0.780751	0.625200
C67	C	0.254011	0.075023	-0.000023
C68	C	0.587344	0.408357	0.333311
C69	C	0.920677	0.741690	0.666644
C70	C	0.501117	0.130012	-0.000023
C71	C	0.834450	0.463345	0.333310
C72	C	1.167784	0.796678	0.666643
C73	C	0.573939	0.130888	-0.000032
C74	C	0.907272	0.464221	0.333301
C75	C	1.240606	0.797554	0.666635
C76	C	0.591332	0.027075	-0.000018
C77	C	0.924666	0.360409	0.333315
C78	C	1.257999	0.693742	0.666649
C79	C	0.518512	0.026201	-0.000017
C80	C	0.851845	0.359534	0.333317
C81	C	1.185178	0.692868	0.666650
C82	C	0.473408	0.077671	-0.000016
C83	C	0.806741	0.411004	0.333318
C84	C	1.140075	0.744337	0.666651
C85	C	0.830070	-0.028264	-0.000007
C86	C	1.163404	0.305069	0.333327
C87	C	1.496737	0.638403	0.666660
C88	C	0.829145	-0.091484	0.000000
C89	C	1.162479	0.241849	0.333333
C90	C	1.495812	0.575182	0.666667
C91	C	0.823348	-0.483506	-0.066412
C92	C	1.156681	-0.150172	0.266921
C93	C	1.490015	0.183161	0.600255
C94	C	0.822469	-0.542907	-0.066416
C95	C	1.155802	-0.209574	0.266917
C96	C	1.489135	0.123760	0.600251
O97	O	0.821999	-0.573622	-0.122863
O98	O	1.155332	-0.240289	0.210470
O99	O	1.488665	0.093045	0.543803
N100	N	0.822023	-0.572621	-0.000045
N101	N	1.155356	-0.239288	0.333289
N102	N	1.488689	0.094045	0.666622
C103	C	0.822449	-0.542931	0.066336
C104	C	1.155782	-0.209597	0.399669
C105	C	1.489116	0.123736	0.733002
O106	O	0.821988	-0.573660	0.122789
O107	O	1.155322	-0.240326	0.456123
O108	O	1.488655	0.093007	0.789456
C109	C	0.823323	-0.483530	0.066339
C110	C	1.156657	-0.150197	0.399672
C111	C	1.489990	0.183137	0.733006
C112	C	0.823776	-0.453819	-0.000037
C113	C	1.157110	-0.120486	0.333296
C114	C	1.490443	0.212847	0.666630
C115	C	0.823800	-0.453795	-0.132782
C116	C	1.157134	-0.120461	0.200551
C117	C	1.490467	0.212872	0.533884
C118	C	0.824681	-0.394398	-0.132778
C119	C	1.158014	-0.061064	0.200555
C120	C	1.491347	0.272269	0.533889
C121	C	0.825109	-0.364711	-0.066403
C122	C	1.158442	-0.031378	0.266930
C123	C	1.491776	0.301955	0.600264
C124	C	0.824657	-0.394422	-0.000033
C125	C	1.157990	-0.061089	0.333301
C126	C	1.491324	0.272244	0.666634
C127	C	0.823745	-0.453840	0.132718
C128	C	1.157078	-0.120507	0.466052
C129	C	1.490411	0.212827	0.799385
C130	C	0.824618	-0.394435	0.132716
C131	C	1.157952	-0.061102	0.466049
C132	C	1.491285	0.272232	0.799383
C133	C	0.825071	-0.364724	0.066340
C134	C	1.158405	-0.031391	0.399673
C135	C	1.491738	0.301942	0.733007
C136	C	0.825966	-0.305339	0.066347
C137	C	1.159299	0.027994	0.399680
C138	C	1.492633	0.361328	0.733014
N139	N	0.826412	-0.275624	-0.000025
N140	N	1.159745	0.057709	0.333309
N141	N	1.493078	0.391042	0.666642
C142	C	0.825983	-0.305311	-0.066400
C143	C	1.159317	0.028023	0.266934
C144	C	1.492650	0.361356	0.600267
C145	C	0.820612	-0.667676	0.066323
C146	C	1.153945	-0.334343	0.399657
C147	C	1.487278	-0.001010	0.732990
C148	C	0.819743	-0.727076	0.066321
C149	C	1.153076	-0.393743	0.399654
C150	C	1.486409	-0.060410	0.732987
C151	C	0.819761	-0.727048	-0.066431
C152	C	1.153094	-0.393715	0.266902
C153	C	1.486428	-0.060382	0.600235
C154	C	0.820635	-0.667648	-0.066428
C155	C	1.153969	-0.334314	0.266906
C156	C	1.487302	-0.000981	0.600239
C157	C	0.821058	-0.637962	-0.000048
C158	C	1.154391	-0.304628	0.333285
C159	C	1.487724	0.028705	0.666618
C160	C	0.827833	-0.180573	-0.066385
C161	C	1.161167	0.152761	0.266948
C162	C	1.494500	0.486094	0.600281
C163	C	0.828717	-0.121171	-0.066375
C164	C	1.162050	0.212163	0.266958
C165	C	1.495384	0.545496	0.600292
C166	C	0.828695	-0.121204	0.066377
C167	C	1.162028	0.212130	0.399710
C168	C	1.495361	0.545463	0.733043
C169	C	0.827815	-0.180601	0.066367
C170	C	1.161148	0.152732	0.399700
C171	C	1.494482	0.486066	0.733033
C172	C	0.827382	-0.210284	-0.000020
C173	C	1.160715	0.123050	0.333313
C174	C	1.494049	0.456383	0.666647
O175	O	0.826434	-0.274586	0.122765
O176	O	1.159767	0.058748	0.456099
O177	O	1.493100	0.392081	0.789432
O178	O	0.826435	-0.274574	-0.122844
O179	O	1.159768	0.058760	0.210489
O180	O	1.493102	0.392093	0.543823
C181	C	0.951910	0.071396	-0.000026
C182	C	1.285243	0.404729	0.333307
C183	C	1.618577	0.738063	0.666640
C184	C	1.029412	0.072325	-0.000032
C185	C	1.362745	0.405659	0.333301
C186	C	1.696078	0.738992	0.666634
C187	C	0.818385	0.180012	-0.000043
C188	C	1.151719	0.513345	0.333290
C189	C	1.485052	0.846679	0.666624
C190	C	0.819310	0.243233	-0.000055
C191	C	1.152644	0.576566	0.333279
C192	C	1.485977	0.909899	0.666612
N193	N	0.824205	0.075867	0.189676
N194	N	1.157538	0.409200	0.523009
N195	N	1.490871	0.742533	0.856343
N196	N	0.824257	0.075877	-0.189724
N197	N	1.157590	0.409210	0.143609
N198	N	1.490923	0.742544	0.476942
C199	C	0.871964	0.037049	0.227991
C200	C	1.205297	0.370382	0.561325
C201	C	1.538630	0.703715	0.894658
C202	C	0.871968	0.037046	0.304636
C203	C	1.205302	0.370379	0.637970
C204	C	1.538635	0.703712	0.971303
C205	C	0.824220	0.075871	0.342963
C206	C	1.157554	0.409205	0.676296
C207	C	1.490887	0.742538	1.009630
C208	C	0.776452	0.114692	0.304638
C209	C	1.109785	0.448026	0.637972
C210	C	1.443119	0.781359	0.971305
C211	C	0.776444	0.114690	0.227995
C212	C	1.109778	0.448023	0.561328
C213	C	1.443111	0.781357	0.894662
N214	N	0.814973	0.126288	0.463286
N215	N	1.148306	0.459621	0.796620
N216	N	1.481639	0.792954	1.129953
N217	N	0.814984	0.126288	0.536094
N218	N	1.148317	0.459621	0.869428
N219	N	1.481651	0.792955	1.202761
C220	C	0.824240	0.075879	0.573885
C221	C	1.157573	0.409213	0.907219
C222	C	1.490906	0.742546	1.240552
N223	N	0.833497	0.025469	0.536118
N224	N	1.166830	0.358802	0.869451
N225	N	1.500164	0.692135	1.202785
N226	N	0.833489	0.025469	0.463303
N227	N	1.166822	0.358802	0.796636
N228	N	1.500156	0.692136	1.129970
C229	C	0.824223	0.075878	0.426070
C230	C	1.157556	0.409211	0.759403
C231	C	1.490890	0.742544	1.092737
C232	C	0.872006	0.037055	0.695308
C233	C	1.205340	0.370388	1.028641
C234	C	1.538673	0.703722	1.361975
C235	C	0.872006	0.037052	0.771954
C236	C	1.205339	0.370385	1.105288
C237	C	1.538673	0.703718	1.438621
C238	C	0.776493	0.114703	0.771955
C239	C	1.109826	0.448037	1.105288
C240	C	1.443160	0.781370	1.438622
C241	C	0.776490	0.114702	0.695310
C242	C	1.109823	0.448035	1.028643
C243	C	1.443157	0.781368	1.361977
C244	C	0.824250	0.075878	0.656991
C245	C	1.157584	0.409212	0.990324
C246	C	1.490917	0.742545	1.323658
H247	H	0.152504	0.168165	-0.000030
H248	H	0.485837	0.501499	0.333304
H249	H	0.819171	0.834832	0.666637
H250	H	0.910895	0.005438	0.803151
H251	H	1.244228	0.338772	1.136484
H252	H	1.577562	0.672105	1.469818
H253	H	0.819384	-0.751263	0.120371
H254	H	1.152718	-0.417930	0.453704
H255	H	1.486051	-0.084596	0.787037
N256	N	0.821101	-0.637311	-0.134235
N257	N	1.154434	-0.303977	0.199098
N258	N	1.487768	0.029356	0.532432
N259	N	0.820724	-0.663831	-0.193490
N260	N	1.154057	-0.330498	0.139843
N261	N	1.487390	0.002836	0.473177
H262	H	0.821052	-0.642409	-0.241383
H263	H	1.154386	-0.309075	0.091951
H264	H	1.487719	0.024258	0.425284
H265	H	0.737613	0.146313	0.803160
H266	H	1.070946	0.479647	1.136493
H267	H	1.404280	0.812980	1.469826
N268	N	0.727678	0.154359	0.343773
N269	N	1.061011	0.487692	0.677106
N270	N	1.394344	0.821025	1.010440
N271	N	0.685038	0.189017	0.309550
N272	N	1.018371	0.522351	0.642883
N273	N	1.351704	0.855684	0.976216
H274	H	0.650586	0.217032	0.337187
H275	H	0.983919	0.550365	0.670520
H276	H	1.317253	0.883698	1.003854
H277	H	0.020400	0.166576	-0.000035
H278	H	0.353733	0.499909	0.333298
H279	H	0.687067	0.833242	0.666631
N280	N	0.727710	0.154367	0.656181
N281	N	1.061043	0.487701	0.989514
N282	N	1.394376	0.821034	1.322847
N283	N	0.728289	0.207008	0.664727
N284	N	1.061622	0.540341	0.998061
N285	N	1.394955	0.873674	1.331394
H286	H	0.693834	0.235024	0.637094
H287	H	1.027167	0.568357	0.970427
H288	H	1.360500	0.901690	1.303760
N289	N	0.193420	-0.030832	-0.000009
N290	N	0.526754	0.302502	0.333324
N291	N	0.860087	0.635835	0.666657
N292	N	0.235983	-0.041925	0.051322
N293	N	0.569316	0.291408	0.384655
N294	N	0.902650	0.624742	0.717989
H295	H	0.268533	-0.079050	0.051334
H296	H	0.601866	0.254283	0.384668
H297	H	0.935199	0.587617	0.718001
N298	N	0.046221	-0.032615	-0.000036
N299	N	0.379554	0.300718	0.333297
N300	N	0.712887	0.634051	0.666631
N301	N	0.086501	-0.078564	-0.000033
N302	N	0.419834	0.254770	0.333300
N303	N	0.753168	0.588103	0.666633
H304	H	0.066518	-0.116329	-0.000035
H305	H	0.399851	0.217004	0.333299
H306	H	0.733184	0.550338	0.666632
H307	H	0.464392	0.171921	-0.000024
H308	H	0.797725	0.505255	0.333309
H309	H	1.131058	0.838588	0.666643
H310	H	0.827453	-0.204793	0.120415
H311	H	1.160786	0.128540	0.453749
H312	H	1.494119	0.461873	0.787082
N313	N	0.825131	-0.364043	-0.200574
N314	N	1.158464	-0.030710	0.132760
N315	N	1.491797	0.302623	0.466093
N316	N	0.825911	-0.311008	-0.200574
N317	N	1.159244	0.022326	0.132759
N318	N	1.492577	0.355659	0.466092
H319	H	0.826226	-0.289572	-0.248458
H320	H	1.159560	0.043762	0.084875
H321	H	1.492893	0.377095	0.418209
N322	N	0.821046	-0.637364	0.134140
N323	N	1.154380	-0.304031	0.467473
N324	N	1.487713	0.029302	0.800807
N325	N	0.820647	-0.663908	0.193391
N326	N	1.153980	-0.330574	0.526724
N327	N	1.487314	0.002759	0.860057
H328	H	0.820952	-0.642503	0.241287
H329	H	1.154285	-0.309170	0.574620
H330	H	1.487619	0.024164	0.907953
H331	H	0.495952	-0.016419	-0.000012
H332	H	0.829286	0.316914	0.333321
H333	H	1.162619	0.650247	0.666654
N334	N	0.637392	-0.025500	-0.000015
N335	N	0.970726	0.307833	0.333318
N336	N	1.304059	0.641166	0.666651
N337	N	0.635089	-0.060347	-0.051338
N338	N	0.968423	0.272986	0.281996
N339	N	1.301756	0.606319	0.615329
H340	H	0.667622	-0.097481	-0.051339
H341	H	1.000955	0.235852	0.281994
H342	H	1.334289	0.569186	0.615327
N343	N	0.602232	0.184359	-0.000042
N344	N	0.935566	0.517693	0.333291
N345	N	1.268899	0.851026	0.666624
N346	N	0.561950	0.230306	-0.000045
N347	N	0.895284	0.563640	0.333289
N348	N	1.228617	0.896973	0.666622
H349	H	0.581932	0.268072	-0.000053
H350	H	0.915265	0.601406	0.333280
H351	H	1.248599	0.934739	0.666614
N352	N	0.829185	-0.090832	-0.134186
N353	N	1.162518	0.242501	0.199147
N354	N	1.495852	0.575834	0.532481
N355	N	0.828802	-0.117349	-0.193443
N356	N	1.162135	0.215984	0.139890
N357	N	1.495469	0.549317	0.473224
H358	H	0.829133	-0.095925	-0.241334
H359	H	1.162466	0.237408	0.091999
H360	H	1.495799	0.570741	0.425333
H361	H	0.827477	-0.204733	-0.120444
H362	H	1.160811	0.128600	0.212890
H363	H	1.494144	0.461934	0.546223
H364	H	0.823449	-0.477959	-0.186836
H365	H	1.156782	-0.144625	0.146498
H366	H	1.490116	0.188708	0.479831
H367	H	0.819410	-0.751229	-0.120477
H368	H	1.152743	-0.417896	0.212856
H369	H	1.486076	-0.084563	0.546189
H370	H	0.823377	-0.478020	0.186769
H371	H	1.156710	-0.144687	0.520102
H372	H	1.490044	0.188646	0.853435
H373	H	0.829047	-0.097023	0.120417
H374	H	1.162380	0.236311	0.453751
H375	H	1.495713	0.569644	0.787084
N376	N	0.825043	-0.364121	0.200530
N377	N	1.158376	-0.030788	0.533863
N378	N	1.491709	0.302546	0.867197
N379	N	0.824635	-0.390660	0.259783
N380	N	1.157968	-0.057326	0.593116
N381	N	1.491302	0.276007	0.926450
H382	H	0.824935	-0.369252	0.307677
H383	H	1.158268	-0.035919	0.641011
H384	H	1.491601	0.297415	0.974344
N385	N	0.920811	-0.002563	0.188862
N386	N	1.254144	0.330770	0.522196
N387	N	1.587478	0.664103	0.855529
N388	N	0.963489	-0.037189	0.223088
N389	N	1.296823	0.296145	0.556421
N390	N	1.630156	0.629478	0.889755
H391	H	0.998010	-0.065148	0.195453
H392	H	1.331344	0.268186	0.528786
H393	H	1.664677	0.601519	0.862119
H394	H	0.910861	0.005434	0.335838
H395	H	1.244194	0.338767	0.669172
H396	H	1.577527	0.672101	1.002505
N397	N	0.727651	0.154346	0.188864
N398	N	1.060984	0.487680	0.522198
N399	N	1.394317	0.821013	0.855531
N400	N	0.685016	0.189007	0.223089
N401	N	1.018349	0.522340	0.556422
N402	N	1.351683	0.855673	0.889755
H403	H	0.650555	0.217015	0.195452
H404	H	0.983888	0.550349	0.528785
H405	H	1.317221	0.883682	0.862119
N406	N	0.920707	-0.002675	0.656172
N407	N	1.254040	0.330659	0.989505
N408	N	1.587374	0.663992	1.322839
N409	N	0.963285	-0.037383	0.690396
N410	N	1.296619	0.295950	1.023729
N411	N	1.629952	0.629283	1.357062
H412	H	0.997649	-0.065470	0.662759
H413	H	1.330982	0.267863	0.996092
H414	H	1.664315	0.601197	1.329425
