data_functionalizedCrystal
_audit_creation_method	'MofGen! by Chris Wilmer'
_symmetry_space_group_name_H-M	'P1'
_symmetry_Int_Tables_number	1
_symmetry_cell_setting	triclinic
loop_
_symmetry_equiv_pos_as_xyz
  x,y,z
_cell_length_a	17.699077
_cell_length_b	12.837942
_cell_length_c	16.776229
_cell_angle_alpha	89.994225
_cell_angle_beta	89.993415
_cell_angle_gamma	89.054758
loop_
_atom_site_label
_atom_site_type_symbol
_atom_site_fract_x
_atom_site_fract_y
_atom_site_fract_z
O1	O	1.013708	0.131037	-0.066277
O2	O	0.794582	0.148096	-0.066281
O3	O	0.899286	-0.011324	-0.066274
O4	O	0.909004	0.290457	-0.066284
O5	O	0.899270	-0.011333	0.066302
O6	O	0.794566	0.148086	0.066295
O7	O	1.013692	0.131028	0.066299
Zn8	Zn	0.904126	0.139555	0.087347
Zn9	Zn	0.904148	0.139568	-0.087328
O10	O	0.908988	0.290447	0.066293
C11	C	0.766332	0.147481	0.000007
C12	C	0.682179	0.145650	0.000005
C13	C	0.642640	0.144782	0.072274
C14	C	0.563570	0.143046	0.072275
C15	C	0.524040	0.142185	0.000006
C16	C	0.563586	0.143049	-0.072268
C17	C	0.642654	0.144779	-0.072268
C18	C	0.244710	0.136075	-0.072269
C19	C	0.165635	0.134349	-0.072263
C20	C	0.165625	0.134342	0.072273
C21	C	0.244694	0.136071	0.072273
C22	C	0.284232	0.136930	-0.000000
C23	C	0.369969	0.138811	-0.000000
C24	C	0.438305	0.140311	0.000006
C25	C	0.895995	-0.049941	0.000013
C26	C	0.886204	-0.164993	0.000012
C27	C	1.003909	-0.406251	-0.000003
C28	C	0.994713	-0.514354	-0.000004
C29	C	0.858617	-0.489302	0.000002
C30	C	0.867813	-0.381200	0.000003
C31	C	0.940461	-0.339679	0.000002
C32	C	0.949656	-0.231574	0.000010
C33	C	0.813562	-0.206525	0.000010
C34	C	0.804366	-0.314627	0.000008
C35	C	1.041942	0.131643	0.000010
C36	C	1.126095	0.133473	0.000006
C37	C	0.912279	0.329064	0.000003
C38	C	0.922070	0.444117	-0.000001
N39	N	0.904117	0.139546	0.206558
N40	N	0.904162	0.139569	-0.206540
C41	C	0.950498	0.068984	0.248278
C42	C	0.950502	0.068983	0.331730
C43	C	0.904129	0.139550	0.373461
C44	C	0.857743	0.210115	0.331735
C45	C	0.857736	0.210111	0.248284
C46	C	0.857772	0.210136	0.668282
C47	C	0.857785	0.210137	0.751739
C48	C	0.950539	0.069008	0.751728
C49	C	0.950531	0.069003	0.668277
C50	C	0.904142	0.139565	0.626559
C51	C	0.904137	0.139563	0.536071
C52	C	0.904137	0.139557	0.463948
H53	H	0.276875	0.136778	0.131122
N54	N	1.028008	-0.186785	0.000013
H55	H	1.066805	-0.245367	0.000008
H56	H	1.034791	-0.142469	-0.049133
H57	H	0.133453	0.133646	-0.131116
N58	N	0.685307	0.145722	-0.150212
H59	H	0.719618	0.082214	-0.153429
H60	H	0.648222	0.144954	-0.195950
H61	H	0.988308	0.011550	0.785704
N62	N	0.685266	0.145712	0.150225
H63	H	0.719579	0.082207	0.153450
H64	H	0.716518	0.210695	0.153400
H65	H	0.819981	0.267569	0.365717
N66	N	0.807707	0.286211	0.203282
H67	H	0.778330	0.330917	0.242379
H68	H	0.839973	0.331980	0.168643
N69	N	0.780269	-0.534101	-0.000004
H70	H	0.752112	-0.509827	0.049143
H71	H	0.752189	-0.509789	-0.049182
N72	N	0.745123	-0.134722	0.000019
H73	H	0.761969	-0.059938	0.000022
H74	H	0.713803	-0.148137	-0.049127
H75	H	0.531381	0.142322	0.131123
H76	H	0.531395	0.142341	-0.131110
H77	H	0.133424	0.133638	0.131122
H78	H	0.276893	0.136771	-0.131118
N79	N	1.082259	-0.361458	0.000009
H80	H	1.121059	-0.420037	0.000010
H81	H	1.089047	-0.317143	-0.049137
N82	N	1.063144	-0.586159	-0.000011
H83	H	1.110559	-0.543448	-0.000011
H84	H	1.062290	-0.631564	0.049137
N85	N	0.726014	-0.359414	0.000007
H86	H	0.729814	-0.437998	0.000004
H87	H	0.697906	-0.335057	0.049158
H88	H	0.988264	0.011524	0.214306
H89	H	0.988268	0.011525	0.365698
N90	N	1.000551	-0.007103	0.623268
H91	H	1.029933	-0.051807	0.662361
H92	H	0.968273	-0.052873	0.588656
H93	H	0.820019	0.267604	0.785714
H94	H	0.820002	0.267591	0.634321
