data_functionalizedCrystal
_audit_creation_method	'MofGen! by Chris Wilmer'
_symmetry_space_group_name_H-M	'P1'
_symmetry_Int_Tables_number	1
_symmetry_cell_setting	triclinic
loop_
_symmetry_equiv_pos_as_xyz
  x,y,z
_cell_length_a	10.654546
_cell_length_b	12.837942
_cell_length_c	11.892095
_cell_angle_alpha	85.697431
_cell_angle_beta	86.062353
_cell_angle_gamma	90.343788
loop_
_atom_site_label
_atom_site_type_symbol
_atom_site_fract_x
_atom_site_fract_y
_atom_site_fract_z
O1	O	1.690988	-0.139129	-0.094028
O2	O	1.327025	-0.153016	-0.094025
O3	O	1.500936	0.004888	-0.094019
O4	O	1.517078	-0.297033	-0.094033
O5	O	1.486433	-0.008257	0.093988
O6	O	1.312522	-0.166161	0.093982
O7	O	1.676486	-0.152274	0.093979
Zn8	Zn	1.492201	-0.161305	0.123831
Zn9	Zn	1.511309	-0.143985	-0.123877
O10	O	1.502575	-0.310178	0.093974
C11	C	1.272864	-0.158570	-0.000021
C12	C	1.133088	-0.155522	-0.000019
C13	C	1.075341	-0.146913	-0.102507
C14	C	0.944008	-0.144040	-0.102516
C15	C	0.928178	-0.158380	0.102459
C16	C	1.059509	-0.161261	0.102467
C17	C	1.148920	-0.141174	-0.204994
C18	C	1.091174	-0.132564	-0.307490
C19	C	0.959841	-0.129691	-0.307499
C20	C	0.886253	-0.135428	-0.205012
C21	C	1.488232	0.036975	-0.000016
C22	C	1.471969	0.152169	-0.000018
C23	C	1.730647	-0.146720	-0.000027
C24	C	1.870423	-0.149768	-0.000036
C25	C	1.515279	-0.342265	-0.000032
C26	C	1.531542	-0.457458	-0.000038
N27	N	1.479170	-0.173124	0.292885
C28	C	1.667476	0.391726	-0.000043
C29	C	1.652202	0.499961	-0.000045
C30	C	1.426149	0.476878	-0.000031
C31	C	1.441423	0.368643	-0.000030
C32	C	1.562090	0.326070	-0.000034
C33	C	1.577362	0.217832	-0.000024
C34	C	1.351311	0.194752	-0.000019
C35	C	1.336037	0.302988	-0.000020
N36	N	1.524350	-0.132158	-0.292930
C37	C	1.615023	-0.049853	0.529537
C38	C	1.605924	-0.058122	0.647878
C39	C	1.451867	-0.197927	0.647911
C40	C	1.460966	-0.189657	0.529570
C41	C	1.542548	-0.115619	0.470387
C42	C	1.551653	-0.107355	0.352043
C43	C	1.397590	-0.247154	0.352078
C44	C	1.388491	-0.255424	0.470420
H45	H	1.151097	-0.127902	-0.390931
H46	H	1.338579	-0.300709	0.303905
H47	H	1.255859	-0.143511	-0.204998
H48	H	1.618084	-0.047072	0.303857
Cl49	Cl	1.132110	-0.172085	0.231311
H50	H	0.868253	-0.163049	0.185899
Cl51	Cl	0.721146	-0.131828	-0.205027
Cl52	Cl	1.697037	0.024562	0.722235
Cl53	Cl	0.887249	-0.118879	-0.436348
Cl54	Cl	1.729055	0.164313	-0.000022
H55	H	1.327908	0.511561	-0.000040
H56	H	1.765727	0.357062	-0.000036
Cl57	Cl	1.349298	-0.290987	0.722325
Cl58	Cl	1.285932	-0.348494	0.544830
Cl59	Cl	1.784693	0.582497	-0.000060
Cl60	Cl	1.717595	0.043211	0.455133
Cl61	Cl	1.184351	0.356519	-0.000025
H62	H	1.265498	0.141283	-0.000002
