data_functionalizedCrystal
_audit_creation_method	'MofGen! by Chris Wilmer'
_symmetry_space_group_name_H-M	'P1'
_symmetry_Int_Tables_number	1
_symmetry_cell_setting	triclinic
loop_
_symmetry_equiv_pos_as_xyz
  x,y,z
_cell_length_a	12.837943
_cell_length_b	14.519731
_cell_length_c	11.295483
_cell_angle_alpha	94.102025
_cell_angle_beta	85.461227
_cell_angle_gamma	89.258897
loop_
_atom_site_label
_atom_site_type_symbol
_atom_site_fract_x
_atom_site_fract_y
_atom_site_fract_z
O1	O	1.382889	0.234188	-0.099009
O2	O	1.081061	0.222343	-0.099016
O3	O	1.239966	0.094719	-0.099002
O4	O	1.223985	0.361811	-0.099024
O5	O	1.226009	0.105909	0.099048
O6	O	1.067104	0.233533	0.099034
O7	O	1.368933	0.245378	0.099040
Cu8	Cu	1.216744	0.240477	0.117120
Cu9	Cu	1.233250	0.227243	-0.117096
O10	O	1.210028	0.373001	0.099026
C11	C	1.035455	0.223936	0.000008
C12	C	0.920354	0.212002	0.000006
C13	C	0.679674	0.355472	0.000011
C14	C	0.571527	0.344263	0.000010
C15	C	0.595909	0.178376	0.000011
C16	C	0.704057	0.189585	0.000012
C17	C	0.745935	0.278136	0.000010
C18	C	0.854085	0.289344	0.000003
C19	C	0.878465	0.123458	0.000012
C20	C	0.770318	0.112249	0.000011
C21	C	1.232238	0.065890	0.000023
C22	C	1.229994	-0.036684	0.000024
C23	C	1.228171	-0.119986	0.000021
C24	C	1.225893	-0.224492	0.000012
C25	C	1.224086	-0.307788	0.000004
C26	C	1.221808	-0.412300	-0.000002
C27	C	1.414539	0.243784	0.000014
C28	C	1.529640	0.255718	0.000008
C29	C	1.217756	0.401830	-0.000002
C30	C	1.220000	0.504404	-0.000010
N31	N	1.205142	0.249785	0.281856
N32	N	1.244860	0.217929	-0.281831
C33	C	1.328375	0.150873	0.531156
C34	C	1.319615	0.157914	0.655819
C35	C	1.178858	0.270904	0.655847
C36	C	1.187618	0.263863	0.531184
C37	C	1.262380	0.203846	0.468843
C38	C	1.271144	0.196810	0.344178
C39	C	1.130383	0.309795	0.344207
C40	C	1.121623	0.316836	0.468870
H41	H	0.561786	0.106288	0.000110
H42	H	1.389256	0.102012	0.480398
O43	O	0.500056	0.427676	0.000018
H44	H	0.455880	0.421981	-0.080697
H45	H	0.932428	0.060485	0.000004
H46	H	0.736204	0.040154	0.000026
O47	O	1.059201	0.366935	0.276992
H48	H	1.005752	0.409855	0.341289
H49	H	1.332022	0.147944	0.293421
O50	O	0.899261	0.384847	0.000017
H51	H	0.835011	0.436741	0.000034
H52	H	1.373353	0.114777	0.706551
H53	H	0.713772	0.427574	0.000008
O54	O	1.098226	0.335632	0.723093
H55	H	1.103229	0.331629	0.820247
O56	O	1.040996	0.381572	0.536110
H57	H	1.045995	0.377576	0.633265
