data_functionalizedCrystal
_audit_creation_method	'MofGen! by Chris Wilmer'
_symmetry_space_group_name_H-M	'P1'
_symmetry_Int_Tables_number	1
_symmetry_cell_setting	triclinic
loop_
_symmetry_equiv_pos_as_xyz
  x,y,z
_cell_length_a	27.732048
_cell_length_b	14.519709
_cell_length_c	13.596369
_cell_angle_alpha	90.006934
_cell_angle_beta	89.999836
_cell_angle_gamma	83.161400
loop_
_atom_site_label
_atom_site_type_symbol
_atom_site_fract_x
_atom_site_fract_y
_atom_site_fract_z
O1	O	-0.641452	-0.109733	-0.081667
O2	O	-0.500738	-0.126418	-0.081697
O3	O	-0.574826	0.016228	-0.081672
O4	O	-0.567364	-0.252379	-0.081692
O5	O	-0.574819	0.016236	0.081911
O6	O	-0.500731	-0.126410	0.081886
O7	O	-0.641445	-0.109725	0.081916
Zn8	Zn	-0.571087	-0.118067	0.107873
Zn9	Zn	-0.571096	-0.118076	-0.107654
O10	O	-0.567357	-0.252371	0.081891
C11	C	-0.482726	-0.126064	0.000091
C12	C	-0.429066	-0.125009	0.000080
C13	C	-0.574475	0.050586	0.000119
C14	C	-0.573433	0.152949	0.000120
C15	C	-0.659457	-0.110079	0.000126
C16	C	-0.713117	-0.111134	0.000131
C17	C	-0.090622	-0.202664	0.000117
C18	C	0.111056	-0.198751	0.000126
O19	O	0.141972	-0.269761	0.000163
N20	N	0.130584	-0.114168	0.000130
C21	C	0.099689	-0.030557	0.000139
O22	O	0.120926	0.041476	0.000153
C23	C	-0.101988	-0.034471	0.000137
C24	C	-0.121513	-0.119060	0.000122
C25	C	-0.110148	-0.287246	0.000103
C26	C	-0.160564	-0.288223	0.000096
C27	C	-0.191455	-0.204619	0.000101
C28	C	-0.171930	-0.120037	0.000115
C29	C	-0.132882	0.049139	0.000152
C30	C	-0.183304	0.048153	0.000154
C31	C	-0.202829	-0.036436	0.000140
C32	C	-0.253238	-0.037410	0.000113
N33	N	-0.272766	-0.121993	0.000108
C34	C	-0.241875	-0.205597	0.000103
C35	C	0.205573	-0.028508	0.000138
C36	C	0.255992	-0.027530	0.000136
C37	C	0.267356	-0.195724	0.000125
C38	C	0.216936	-0.196702	0.000120
C39	C	0.186045	-0.113091	0.000133
C40	C	-0.347754	-0.207643	0.000086
C41	C	-0.398175	-0.208613	0.000074
C42	C	-0.409534	-0.040420	0.000090
C43	C	-0.359117	-0.039449	0.000097
C44	C	-0.328227	-0.123069	0.000098
O45	O	-0.284182	0.033562	0.000086
O46	O	-0.263121	-0.277620	0.000110
C47	C	-0.040206	-0.201687	0.000124
C48	C	-0.020680	-0.117105	0.000137
C49	C	-0.051571	-0.033501	0.000143
C50	C	0.029739	-0.116126	0.000136
C51	C	0.060630	-0.199731	0.000131
C52	C	0.041102	-0.284314	0.000126
C53	C	-0.009315	-0.285291	0.000119
C54	C	-0.032043	0.051082	0.000147
C55	C	0.018374	0.052053	0.000154
C56	C	0.049265	-0.031552	0.000148
C57	C	-0.567708	-0.286729	0.000098
C58	C	-0.568751	-0.389092	0.000091
N59	N	-0.571084	-0.118059	0.254965
C60	C	-0.569596	0.527778	0.000093
C61	C	-0.570662	0.423488	0.000101
C62	C	-0.571514	0.340367	0.000107
C63	C	-0.572580	0.236071	0.000113
N64	N	-0.571103	-0.118076	-0.254746
C65	C	-0.571096	-0.118077	0.656256
C66	C	-0.571091	-0.118075	0.544605
C67	C	-0.571090	-0.118069	0.455614
C68	C	-0.571085	-0.118066	0.343956
H69	H	-0.414069	-0.277498	0.000062
H70	H	-0.208454	0.116240	0.000166
H71	H	0.180425	0.039581	0.000149
O72	O	-0.062026	0.132325	-0.000026
C73	C	-0.087128	0.275800	-0.084749
C74	C	-0.053156	0.183810	-0.084678
H75	H	-0.079961	0.317461	-0.153172
H76	H	-0.126530	0.260644	-0.084820
H77	H	-0.080020	0.317429	-0.016257
H78	H	-0.060220	0.142136	-0.153159
H79	H	-0.013765	0.199033	-0.084556
H80	H	0.066263	-0.352387	0.000118
H81	H	-0.343219	0.029430	0.000094
O82	O	0.037360	0.134206	-0.000009
C83	C	0.087708	0.232918	-0.084695
C84	C	0.066232	0.139861	-0.084655
H85	H	0.111064	0.237512	-0.153114
H86	H	0.056982	0.292535	-0.084754
H87	H	0.111003	0.237571	-0.016198
H88	H	0.042942	0.135117	-0.153140
H89	H	0.096981	0.080289	-0.084545
H90	H	-0.025207	-0.354171	0.000108
O91	O	-0.113865	0.131249	0.000301
C92	C	-0.063573	0.230003	0.085103
C93	C	-0.085067	0.136966	0.085045
H94	H	-0.040293	0.234664	0.153622
H95	H	-0.040219	0.234692	0.016694
H96	H	-0.094326	0.289566	0.085065
H97	H	-0.054345	0.077350	0.085117
H98	H	-0.108433	0.132358	0.153448
O99	O	-0.179546	-0.370374	-0.000098
C100	C	-0.229873	-0.469097	-0.084850
C101	C	-0.208408	-0.376030	-0.084759
H102	H	-0.253221	-0.473691	-0.153281
H103	H	-0.199142	-0.528703	-0.084920
H104	H	-0.253175	-0.473768	-0.016366
H105	H	-0.185112	-0.371268	-0.153232
H106	H	-0.239162	-0.316468	-0.084638
O107	O	-0.317732	-0.288846	0.000254
C108	C	-0.254199	-0.385354	0.084954
C109	C	-0.288178	-0.293371	0.084908
H110	H	-0.230289	-0.389035	0.153379
H111	H	-0.276799	-0.446004	0.085004
H112	H	-0.230332	-0.389094	0.016464
H113	H	-0.312052	-0.289542	0.153386
H114	H	-0.265549	-0.232766	0.084807
H115	H	0.201042	-0.265581	0.000114
H116	H	0.271885	0.041351	0.000133
O117	O	-0.080213	-0.368550	0.000051
C118	C	-0.074281	-0.535477	0.000080
C119	C	-0.108232	-0.443461	0.000127
H120	H	-0.096920	-0.596065	0.000162
H121	H	-0.050403	-0.539295	-0.068399
H122	H	-0.050379	-0.539186	0.068519
H123	H	-0.132164	-0.439690	-0.068266
H124	H	-0.132077	-0.439681	0.068651
H125	H	0.292516	-0.263798	0.000121
H126	H	-0.434695	0.027649	0.000091
