data_functionalizedCrystal
_audit_creation_method	'MofGen! by Chris Wilmer'
_symmetry_space_group_name_H-M	'P1'
_symmetry_Int_Tables_number	1
_symmetry_cell_setting	triclinic
loop_
_symmetry_equiv_pos_as_xyz
  x,y,z
_cell_length_a	23.532407
_cell_length_b	23.532361
_cell_length_c	22.610064
_cell_angle_alpha	89.989007
_cell_angle_beta	89.996958
_cell_angle_gamma	97.160828
loop_
_atom_site_label
_atom_site_type_symbol
_atom_site_fract_x
_atom_site_fract_y
_atom_site_fract_z
O1	O	-0.069007	0.755286	-0.049116
O2	O	0.264326	1.088619	0.284217
O3	O	0.597659	1.421952	0.617551
O4	O	-0.079038	0.589419	-0.049129
O5	O	0.254295	0.922752	0.284205
O6	O	0.587629	1.256085	0.617538
O7	O	0.008910	0.677354	-0.049129
O8	O	0.342243	1.010687	0.284204
O9	O	0.675577	1.344021	0.617537
O10	O	-0.156955	0.667350	-0.049115
O11	O	0.176378	1.000684	0.284218
O12	O	0.509711	1.334017	0.617551
O13	O	0.008910	0.677328	0.049240
O14	O	0.342243	1.010662	0.382573
O15	O	0.675577	1.343995	0.715906
O16	O	-0.079038	0.589393	0.049240
O17	O	0.254295	0.922726	0.382574
O18	O	0.587629	1.256060	0.715907
O19	O	-0.069007	0.755260	0.049253
O20	O	0.264326	1.088593	0.382587
O21	O	0.597659	1.421927	0.715920
Zn22	Zn	-0.074023	0.672322	0.064865
Zn23	Zn	0.259311	1.005656	0.398198
Zn24	Zn	0.592644	1.338989	0.731532
Zn25	Zn	-0.074023	0.672356	-0.064741
Zn26	Zn	0.259311	1.005690	0.268593
Zn27	Zn	0.592644	1.339023	0.601926
O28	O	-0.156955	0.667325	0.049254
O29	O	0.176378	1.000658	0.382587
O30	O	0.509711	1.333991	0.715921
C31	C	-0.078787	0.568189	0.000054
C32	C	0.254546	0.901523	0.333387
C33	C	0.587880	1.234856	0.666721
C34	C	-0.078032	0.504971	0.000049
C35	C	0.255302	0.838304	0.333382
C36	C	0.588635	1.171637	0.666715
C37	C	-0.074728	0.231741	-0.053569
C38	C	0.258605	0.565074	0.279764
C39	C	0.591938	0.898408	0.613097
C40	C	-0.075443	0.291141	-0.053571
C41	C	0.257890	0.624474	0.279763
C42	C	0.591224	0.957807	0.613096
O43	O	-0.075793	0.321879	-0.099172
O44	O	0.257540	0.655212	0.234161
O45	O	0.590873	0.988545	0.567495
N46	N	-0.075804	0.320832	0.000051
N47	N	0.257529	0.654166	0.333384
N48	N	0.590862	0.987499	0.666717
C49	C	-0.075445	0.291122	0.053677
C50	C	0.257889	0.624455	0.387010
C51	C	0.591222	0.957789	0.720344
O52	O	-0.075817	0.321832	0.099286
O53	O	0.257516	0.655165	0.432619
O54	O	0.590850	0.988498	0.765953
C55	C	-0.074726	0.231724	0.053678
C56	C	0.258608	0.565057	0.387011
C57	C	0.591941	0.898391	0.720344
C58	C	-0.074370	0.202035	0.000053
C59	C	0.258963	0.535368	0.333386
C60	C	0.592296	0.868701	0.666720
C61	C	-0.074372	0.202052	-0.107190
C62	C	0.258961	0.535385	0.226144
C63	C	0.592294	0.868718	0.559477
C64	C	-0.073658	0.142656	-0.107188
C65	C	0.259675	0.475989	0.226145
C66	C	0.593008	0.809323	0.559479
C67	C	-0.073301	0.112949	-0.053566
C68	C	0.260033	0.446283	0.279767
C69	C	0.593366	0.779616	0.613101
C70	C	-0.073657	0.142639	0.000055
C71	C	0.259677	0.475972	0.333388
C72	C	0.593010	0.809305	0.666721
C73	C	-0.074362	0.202015	0.107303
C74	C	0.258971	0.535349	0.440637
C75	C	0.592305	0.868682	0.773970
C76	C	-0.073642	0.142613	0.107299
C77	C	0.259691	0.475947	0.440633
C78	C	0.593024	0.809280	0.773966
C79	C	-0.073287	0.112924	0.053675
C80	C	0.260046	0.446257	0.387008
C81	C	0.593380	0.779590	0.720341
C82	C	-0.072585	0.053537	0.053678
C83	C	0.260748	0.386870	0.387012
C84	C	0.594082	0.720203	0.720345
N85	N	-0.072224	0.023845	0.000057
N86	N	0.261110	0.357178	0.333390
N87	N	0.594443	0.690512	0.666724
C88	C	-0.072582	0.053551	-0.053565
C89	C	0.260752	0.386885	0.279768
C90	C	0.594085	0.720218	0.613101
C91	C	-0.076954	0.415862	0.053671
C92	C	0.256380	0.749196	0.387005
C93	C	0.589713	1.082529	0.720338
C94	C	-0.077677	0.475259	0.053671
C95	C	0.255657	0.808592	0.387004
C96	C	0.588990	1.141925	0.720338
C97	C	-0.077674	0.475273	-0.053577
C98	C	0.255659	0.808607	0.279757
C99	C	0.588993	1.141940	0.613090
C100	C	-0.076955	0.415875	-0.053576
C101	C	0.256378	0.749209	0.279757
C102	C	0.589712	1.082542	0.613091
C103	C	-0.076593	0.386171	0.000050
C104	C	0.256741	0.719504	0.333383
C105	C	0.590074	1.052837	0.666717
C106	C	-0.071083	-0.071184	-0.053558
C107	C	0.262250	0.262149	0.279776
C108	C	0.595584	0.595482	0.613109
C109	C	-0.070372	-0.130586	-0.053551
C110	C	0.262962	0.202748	0.279782
C111	C	0.596295	0.536081	0.613115
C112	C	-0.070371	-0.130595	0.053696
C113	C	0.262962	0.202739	0.387029
C114	C	0.596295	0.536072	0.720363
C115	C	-0.071086	-0.071199	0.053690
C116	C	0.262248	0.262134	0.387023
C117	C	0.595581	0.595468	0.720357
C118	C	-0.071440	-0.041495	0.000058
C119	C	0.261894	0.291838	0.333392
C120	C	0.595227	0.625172	0.666725
O121	O	-0.072232	0.022761	0.099256
O122	O	0.261101	0.356095	0.432590
O123	O	0.594435	0.689428	0.765923
O124	O	-0.072202	0.022836	-0.099166
O125	O	0.261132	0.356169	0.234167
O126	O	0.594465	0.689502	0.567500
C127	C	-0.178171	0.667592	0.000071
C128	C	0.155162	1.000926	0.333405
C129	C	0.488495	1.334259	0.666738
C130	C	-0.241388	0.668358	0.000077
C131	C	0.091945	1.001692	0.333410
C132	C	0.425279	1.335025	0.666744
C133	C	-0.640499	0.621124	0.000043
C134	C	-0.307166	0.954457	0.333376
C135	C	0.026168	1.287790	0.666710
C136	C	-0.699899	0.621835	0.000039
C137	C	-0.366566	0.955169	0.333372
C138	C	-0.033233	1.288502	0.666706
O139	O	-0.736651	0.578048	0.000014
O140	O	-0.403318	0.911382	0.333347
O141	O	-0.069984	1.244715	0.666680
N142	N	-0.722517	0.674113	0.000044
N143	N	-0.389183	1.007446	0.333377
N144	N	-0.055850	1.340779	0.666710
C145	C	-0.685730	0.725682	0.000047
C146	C	-0.352397	1.059015	0.333380
C147	C	-0.019064	1.392349	0.666713
O148	O	-0.710423	0.770214	0.000050
O149	O	-0.377089	1.103547	0.333383
O150	O	-0.043756	1.436880	0.666716
C151	C	-0.626331	0.724970	0.000046
C152	C	-0.292998	1.058303	0.333380
C153	C	0.040335	1.391637	0.666713
C154	C	-0.603718	0.672689	0.000048
C155	C	-0.270384	1.006022	0.333381
C156	C	0.062949	1.339356	0.666714
C157	C	-0.617885	0.568847	0.000044
C158	C	-0.284551	0.902180	0.333377
C159	C	0.048782	1.235514	0.666710
C160	C	-0.558489	0.568136	0.000049
C161	C	-0.225155	0.901469	0.333382
C162	C	0.108178	1.234803	0.666715
C163	C	-0.521707	0.619701	0.000053
C164	C	-0.188374	0.953035	0.333387
C165	C	0.144960	1.286368	0.666720
C166	C	-0.544322	0.671978	0.000053
C167	C	-0.210988	1.005311	0.333386
C168	C	0.122345	1.338645	0.666719
C169	C	-0.589546	0.776539	0.000045
C170	C	-0.256213	1.109872	0.333378
C171	C	0.077120	1.443205	0.666712
C172	C	-0.530144	0.775822	0.000044
C173	C	-0.196811	1.109156	0.333378
C174	C	0.136523	1.442489	0.666711
C175	C	-0.507530	0.723541	0.000046
C176	C	-0.174197	1.056875	0.333379
C177	C	0.159137	1.390208	0.666712
C178	C	-0.448144	0.722832	0.000063
C179	C	-0.114811	1.056165	0.333396
C180	C	0.218523	1.389499	0.666729
N181	N	-0.425527	0.670555	0.000058
N182	N	-0.092193	1.003888	0.333391
N183	N	0.241140	1.337221	0.666725
C184	C	-0.462308	0.618989	0.000053
C185	C	-0.128975	0.952323	0.333387
C186	C	0.204359	1.285656	0.666720
C187	C	-0.810473	0.727174	0.000046
C188	C	-0.477139	1.060507	0.333379
C189	C	-0.143806	1.393840	0.666713
C190	C	-0.869870	0.727886	0.000050
C191	C	-0.536537	1.061220	0.333384
C192	C	-0.203204	1.394553	0.666717
C193	C	-0.884035	0.624039	0.000041
C194	C	-0.550702	0.957372	0.333375
C195	C	-0.217369	1.290706	0.666708
C196	C	-0.824636	0.623327	0.000041
C197	C	-0.491303	0.956660	0.333375
C198	C	-0.157970	1.289994	0.666708
C199	C	-0.787855	0.674896	0.000041
C200	C	-0.454522	1.008229	0.333374
C201	C	-0.121189	1.341563	0.666708
C202	C	-0.337572	0.617499	0.000065
C203	C	-0.004238	0.950833	0.333398
C204	C	0.329095	1.284166	0.666731
C205	C	-0.278170	0.616793	0.000072
C206	C	0.055164	0.950126	0.333406
C207	C	0.388497	1.283459	0.666739
C208	C	-0.264010	0.720640	0.000078
C209	C	0.069323	1.053973	0.333411
C210	C	0.402657	1.387306	0.666745
C211	C	-0.323407	0.721347	0.000073
C212	C	0.009927	1.054680	0.333407
C213	C	0.343260	1.388013	0.666740
C214	C	-0.360187	0.669772	0.000065
C215	C	-0.026853	1.003105	0.333398
C216	C	0.306480	1.336439	0.666731
O217	O	-0.411357	0.766596	0.000085
O218	O	-0.078024	1.099929	0.333419
O219	O	0.255309	1.433263	0.666752
O220	O	-0.437608	0.574465	0.000042
O221	O	-0.104274	0.907798	0.333376
O222	O	0.229059	1.241132	0.666709
C223	C	0.030126	0.677086	0.000052
C224	C	0.363459	1.010420	0.333385
C225	C	0.696793	1.343753	0.666719
C226	C	0.093343	0.676320	0.000042
C227	C	0.426676	1.009654	0.333376
C228	C	0.760009	1.342987	0.666709
C229	C	-0.069258	0.776489	0.000069
C230	C	0.264075	1.109823	0.333403
C231	C	0.597408	1.443156	0.666736
C232	C	-0.070014	0.839708	0.000071
C233	C	0.263320	1.173041	0.333404
C234	C	0.596653	1.506375	0.666737
N235	N	-0.074022	0.672304	0.153318
N236	N	0.259311	1.005637	0.486651
N237	N	0.592644	1.338970	0.819984
N238	N	-0.074018	0.672380	-0.153193
N239	N	0.259315	1.005713	0.180140
N240	N	0.592648	1.339046	0.513474
C241	C	-0.108377	0.706702	0.561965
C242	C	0.224956	1.040035	0.895298
C243	C	0.558289	1.373368	1.228632
C244	C	-0.108376	0.706709	0.623885
C245	C	0.224957	1.040042	0.957218
C246	C	0.558291	1.373376	1.290552
O247	O	-0.137582	0.735933	0.655909
O248	O	0.195751	1.069266	0.989242
O249	O	0.529085	1.402599	1.322575
N250	N	-0.074016	0.672367	0.654855
N251	N	0.259317	1.005701	0.988188
N252	N	0.592651	1.339034	1.321521
C253	C	-0.039651	0.638021	0.623901
C254	C	0.293682	0.971354	0.957235
C255	C	0.627016	1.304687	1.290568
O256	O	-0.010425	0.608811	0.655929
O257	O	0.322909	0.942145	0.989263
O258	O	0.656242	1.275478	1.322596
C259	C	-0.039650	0.638017	0.561983
C260	C	0.293683	0.971350	0.895316
C261	C	0.627017	1.304684	1.228649
C262	C	-0.074016	0.672356	0.531016
C263	C	0.259317	1.005690	0.864349
C264	C	0.592650	1.339023	1.197683
C265	C	-0.142741	0.741039	0.530998
C266	C	0.190593	1.074372	0.864332
C267	C	0.523926	1.407706	1.197665
C268	C	-0.142743	0.741031	0.469083
C269	C	0.190591	1.074364	0.802416
C270	C	0.523924	1.407697	1.135749
C271	C	-0.108382	0.706685	0.438134
C272	C	0.224952	1.040019	0.771467
C273	C	0.558285	1.373352	1.104800
C274	C	-0.074018	0.672348	0.469100
C275	C	0.259315	1.005682	0.802434
C276	C	0.592648	1.339015	1.135767
C277	C	-0.005282	0.603674	0.531030
C278	C	0.328051	0.937007	0.864364
C279	C	0.661385	1.270340	1.197697
C280	C	-0.005284	0.603673	0.469107
C281	C	0.328050	0.937007	0.802441
C282	C	0.661383	1.270340	1.135774
C283	C	-0.039650	0.638013	0.438141
C284	C	0.293683	0.971346	0.771474
C285	C	0.627017	1.304679	1.104807
C286	C	-0.039659	0.637995	0.376236
C287	C	0.293674	0.971328	0.709569
C288	C	0.627007	1.304662	1.042902
N289	N	-0.074019	0.672336	0.345266
N290	N	0.259314	1.005670	0.678599
N291	N	0.592647	1.339003	1.011933
C292	C	-0.108380	0.706682	0.376215
C293	C	0.224953	1.040015	0.709548
C294	C	0.558286	1.373348	1.042882
C295	C	-0.039656	0.638032	0.753935
C296	C	0.293678	0.971365	1.087268
C297	C	0.627011	1.304698	1.420602
C298	C	-0.039659	0.638032	0.815853
C299	C	0.293674	0.971365	1.149186
C300	C	0.627007	1.304699	1.482519
C301	C	-0.108384	0.706721	0.815832
C302	C	0.224950	1.040054	1.149165
C303	C	0.558283	1.373388	1.482499
C304	C	-0.108382	0.706717	0.753913
C305	C	0.224951	1.040051	1.087246
C306	C	0.558284	1.373384	1.420580
C307	C	-0.074015	0.672373	0.722965
C308	C	0.259318	1.005707	1.056299
C309	C	0.592651	1.339040	1.389632
C310	C	-0.108383	0.706662	0.246188
C311	C	0.224951	1.039995	0.579521
C312	C	0.558284	1.373328	0.912854
C313	C	-0.108383	0.706649	0.184266
C314	C	0.224950	1.039982	0.517600
C315	C	0.558283	1.373316	0.850933
C316	C	-0.039657	0.637962	0.184293
C317	C	0.293676	0.971295	0.517626
C318	C	0.627010	1.304629	0.850959
C319	C	-0.039658	0.637973	0.246208
C320	C	0.293675	0.971306	0.579542
C321	C	0.627008	1.304639	0.912875
C322	C	-0.074023	0.672327	0.277154
C323	C	0.259311	1.005660	0.610488
C324	C	0.592644	1.338994	0.943821
O325	O	-0.010466	0.608788	0.344173
O326	O	0.322867	0.942121	0.677506
O327	O	0.656200	1.275454	1.010839
O328	O	-0.137596	0.735892	0.344179
O329	O	0.195737	1.069225	0.677513
O330	O	0.529071	1.402558	1.010846
H331	H	-0.070084	-0.154756	-0.097221
H332	H	0.263249	0.178577	0.236112
H333	H	0.596583	0.511910	0.569446
C334	C	-0.894742	0.785393	0.000059
C335	C	-0.561409	1.118727	0.333392
C336	C	-0.228076	1.452060	0.666726
H337	H	-0.935386	0.778438	0.000061
H338	H	-0.602053	1.111771	0.333394
H339	H	-0.268720	1.445104	0.666728
H340	H	-0.882090	0.806622	-0.034241
H341	H	-0.548757	1.139955	0.299093
H342	H	-0.215423	1.473288	0.632426
H343	H	-0.882099	0.806597	0.034371
H344	H	-0.548766	1.139930	0.367704
H345	H	-0.215433	1.473264	0.701037
H346	H	-0.780528	0.769170	0.000050
H347	H	-0.447195	1.102503	0.333383
H348	H	-0.113861	1.435837	0.666716
H349	H	-0.071386	-0.047026	0.097356
H350	H	0.261947	0.286307	0.430689
H351	H	0.595280	0.619641	0.764022
H352	H	-0.500199	0.817817	0.000041
H353	H	-0.166866	1.151150	0.333374
H354	H	0.166468	1.484484	0.666708
H355	H	-0.136365	0.734637	0.271376
H356	H	0.196968	1.067970	0.604710
H357	H	0.530302	1.401303	0.938043
C358	C	-0.658336	0.512120	0.000043
C359	C	-0.325003	0.845453	0.333376
C360	C	0.008331	1.178787	0.666710
H361	H	-0.636352	0.480889	0.000048
H362	H	-0.303018	0.814222	0.333381
H363	H	0.030315	1.147556	0.666715
H364	H	-0.681803	0.510238	-0.034258
H365	H	-0.348470	0.843571	0.299075
H366	H	-0.015136	1.176904	0.632409
H367	H	-0.681801	0.510230	0.034353
H368	H	-0.348468	0.843563	0.367687
H369	H	-0.015134	1.176896	0.701020
H370	H	-0.071372	-0.047006	-0.097230
H371	H	0.261961	0.286327	0.236104
H372	H	0.595295	0.619660	0.569437
H373	H	0.022703	0.575711	0.556233
H374	H	0.356037	0.909045	0.889566
H375	H	0.689370	1.242378	1.222899
C376	C	-0.799766	0.565819	0.000034
C377	C	-0.466433	0.899152	0.333367
C378	C	-0.133099	1.232486	0.666701
H379	H	-0.830184	0.535213	0.000027
H380	H	-0.496851	0.868547	0.333361
H381	H	-0.163517	1.201880	0.666694
H382	H	-0.776890	0.563368	0.034335
H383	H	-0.443556	0.896702	0.367668
H384	H	-0.110223	1.230035	0.701001
H385	H	-0.776890	0.563392	-0.034277
H386	H	-0.443557	0.896725	0.299057
H387	H	-0.110224	1.230058	0.632390
C388	C	-0.078075	0.507912	0.112657
C389	C	0.255258	0.841246	0.445990
C390	C	0.588592	1.174579	0.779323
H391	H	-0.078556	0.547543	0.104982
H392	H	0.254777	0.880877	0.438315
H393	H	0.588110	1.214210	0.771649
H394	H	-0.044743	0.502705	0.134688
H395	H	0.288590	0.836038	0.468021
H396	H	0.621923	1.169372	0.801354
H397	H	-0.111179	0.493637	0.134688
H398	H	0.222154	0.826971	0.468022
H399	H	0.555488	1.160304	0.801355
H400	H	-0.076666	0.391706	-0.097242
H401	H	0.256668	0.725039	0.236091
H402	H	0.590001	1.058373	0.569425
C403	C	-0.076566	0.383190	0.112663
C404	C	0.256767	0.716524	0.445997
C405	C	0.590100	1.049857	0.779330
H406	H	-0.076890	0.409384	0.144594
H407	H	0.256443	0.742717	0.477928
H408	H	0.589777	1.076051	0.811261
H409	H	-0.043072	0.364552	0.114898
H410	H	0.290261	0.697885	0.448232
H411	H	0.623595	1.031219	0.781565
H412	H	-0.109508	0.355486	0.114895
H413	H	0.223826	0.688819	0.448228
H414	H	0.557159	1.022152	0.781562
C415	C	-0.078065	0.507959	-0.112561
C416	C	0.255268	0.841292	0.220773
C417	C	0.588602	1.174625	0.554106
H418	H	-0.078539	0.547586	-0.104877
H419	H	0.254795	0.880919	0.228457
H420	H	0.588128	1.214253	0.561790
H421	H	-0.111162	0.493696	-0.134594
H422	H	0.222171	0.827030	0.198740
H423	H	0.555504	1.160363	0.532073
H424	H	-0.044727	0.502766	-0.134595
H425	H	0.288607	0.836099	0.198739
H426	H	0.621940	1.169432	0.532072
H427	H	-0.234052	0.762623	0.000085
H428	H	0.099281	1.095956	0.333418
H429	H	0.432615	1.429289	0.666751
H430	H	0.022703	0.575706	0.443913
H431	H	0.356037	0.909039	0.777246
H432	H	0.689370	1.242372	1.110579
C433	C	-0.146185	0.744425	0.150204
C434	C	0.187148	1.077758	0.483537
C435	C	0.520482	1.411091	0.816870
H436	H	-0.141271	0.739500	0.108894
H437	H	0.192062	1.072833	0.442227
H438	H	0.525395	1.406166	0.775561
H439	H	-0.135399	0.783452	0.160339
H440	H	0.197934	1.116785	0.493672
H441	H	0.531268	1.450118	0.827006
H442	H	-0.185210	0.733617	0.160359
H443	H	0.148123	1.066951	0.493693
H444	H	0.481456	1.400284	0.827026
H445	H	-0.074662	0.226233	-0.150858
H446	H	0.258672	0.559566	0.182476
H447	H	0.592005	0.892899	0.515809
H448	H	-0.341820	0.763918	0.000081
H449	H	-0.008486	1.097251	0.333414
H450	H	0.324847	1.430585	0.666748
H451	H	-0.136367	0.734679	0.728704
H452	H	0.196966	1.068013	1.062037
H453	H	0.530300	1.401346	1.395371
C454	C	-0.074754	0.234661	0.166292
C455	C	0.258579	0.567994	0.499625
C456	C	0.591912	0.901327	0.832958
H457	H	-0.074432	0.208454	0.198222
H458	H	0.258901	0.541787	0.531555
H459	H	0.592234	0.875121	0.864888
H460	H	-0.108249	0.253297	0.168529
H461	H	0.225084	0.586630	0.501863
H462	H	0.558417	0.919963	0.835196
H463	H	-0.041814	0.262366	0.168522
H464	H	0.291520	0.595699	0.501855
H465	H	0.624853	0.929032	0.835188
H466	H	-0.073352	0.118430	0.150969
H467	H	0.259981	0.451763	0.484302
H468	H	0.593314	0.785097	0.817636
H469	H	-0.073367	0.118488	-0.150855
H470	H	0.259967	0.451822	0.182478
H471	H	0.593300	0.785155	0.515812
C472	C	-0.001862	0.600253	0.849909
C473	C	0.331471	0.933586	1.183243
C474	C	0.664804	1.266919	1.516576
H475	H	0.018602	0.579801	0.822604
H476	H	0.351936	0.913135	1.155937
H477	H	0.685269	1.246468	1.489270
H478	H	-0.025335	0.573911	0.874074
H479	H	0.307998	0.907245	1.207408
H480	H	0.641331	1.240578	1.540741
H481	H	0.024477	0.623744	0.874053
H482	H	0.357810	0.957078	1.207386
H483	H	0.691144	1.290411	1.540720
C484	C	-0.069929	-0.163273	0.112676
C485	C	0.263404	0.170061	0.446009
C486	C	0.596738	0.503394	0.779342
H487	H	-0.069432	-0.202897	0.104992
H488	H	0.263901	0.130436	0.438325
H489	H	0.597235	0.463770	0.771658
H490	H	-0.103245	-0.158095	0.134747
H491	H	0.230088	0.175238	0.468081
H492	H	0.563421	0.508572	0.801414
H493	H	-0.036810	-0.148990	0.134671
H494	H	0.296523	0.184344	0.468004
H495	H	0.629857	0.517677	0.801337
H496	H	-0.607948	0.819111	0.000044
H497	H	-0.274614	1.152445	0.333377
H498	H	0.058719	1.485778	0.666710
H499	H	-0.170725	0.768996	0.443875
H500	H	0.162608	1.102329	0.777208
H501	H	0.495942	1.435663	1.110542
H502	H	-0.136363	0.734686	0.841042
H503	H	0.196970	1.068020	1.174375
H504	H	0.530304	1.401353	1.507708
H505	H	-0.913994	0.582052	0.000038
H506	H	-0.580661	0.915385	0.333371
H507	H	-0.247327	1.248718	0.666705
C508	C	-0.253298	0.559282	0.000069
C509	C	0.080036	0.892615	0.333402
C510	C	0.413369	1.225948	0.666735
H511	H	-0.283714	0.528675	0.000058
H512	H	0.049619	0.862008	0.333392
H513	H	0.382953	1.195341	0.666725
H514	H	-0.230425	0.556832	0.034373
H515	H	0.102908	0.890166	0.367706
H516	H	0.436241	1.223499	0.701039
H517	H	-0.230417	0.556856	-0.034239
H518	H	0.102916	0.890189	0.299095
H519	H	0.436249	1.223522	0.632428
C520	C	-0.378021	0.560769	0.000060
C521	C	-0.044688	0.894102	0.333393
C522	C	0.288646	1.227435	0.666726
H523	H	-0.356038	0.529537	0.000066
H524	H	-0.022705	0.862870	0.333399
H525	H	0.310629	1.196203	0.666733
H526	H	-0.401484	0.558889	-0.034244
H527	H	-0.068151	0.892222	0.299089
H528	H	0.265182	1.225556	0.632423
H529	H	-0.401490	0.558878	0.034367
H530	H	-0.068156	0.892212	0.367701
H531	H	0.265177	1.225545	0.701034
C532	C	-0.180545	0.778818	0.565033
C533	C	0.152789	1.112152	0.898366
C534	C	0.486122	1.445485	1.231700
H535	H	-0.201010	0.799261	0.537714
H536	H	0.132324	1.132594	0.871047
H537	H	0.465657	1.465928	1.204380
H538	H	-0.157078	0.805168	0.589182
H539	H	0.176255	1.138501	0.922516
H540	H	0.509589	1.471834	1.255849
H541	H	-0.206883	0.755328	0.589190
H542	H	0.126450	1.088661	0.922523
H543	H	0.459783	1.421994	1.255857
C544	C	-0.001874	0.600183	0.280273
C545	C	0.331460	0.933517	0.613606
C546	C	0.664793	1.266850	0.946940
H547	H	0.018587	0.579725	0.252970
H548	H	0.351921	0.913058	0.586304
H549	H	0.685254	1.246392	0.919637
H550	H	-0.025357	0.573848	0.304435
H551	H	0.307976	0.907181	0.637768
H552	H	0.641310	1.240515	0.971102
H553	H	0.024469	0.623668	0.304420
H554	H	0.357802	0.957001	0.637753
H555	H	0.691135	1.290334	0.971087
H556	H	-0.011672	0.610059	0.728741
H557	H	0.321662	0.943392	1.062074
H558	H	0.654995	1.276726	1.395408
C559	C	-0.533621	0.510627	0.000042
C560	C	-0.200287	0.843960	0.333375
C561	C	0.133046	1.177293	0.666708
H562	H	-0.564040	0.480022	0.000032
H563	H	-0.230707	0.813356	0.333365
H564	H	0.102627	1.146689	0.666699
H565	H	-0.510747	0.508173	0.034344
H566	H	-0.177413	0.841507	0.367677
H567	H	0.155920	1.174840	0.701010
H568	H	-0.510743	0.508199	-0.034268
H569	H	-0.177410	0.841532	0.299066
H570	H	0.155924	1.174866	0.632399
C571	C	-0.001856	0.600192	0.150241
C572	C	0.331478	0.933526	0.483574
C573	C	0.664811	1.266859	0.816908
H574	H	-0.006775	0.605116	0.108930
H575	H	0.326558	0.938449	0.442263
H576	H	0.659891	1.271782	0.775597
H577	H	-0.012631	0.561164	0.160394
H578	H	0.320703	0.894497	0.493727
H579	H	0.654036	1.227831	0.827061
H580	H	0.037169	0.611010	0.160384
H581	H	0.370502	0.944343	0.493717
H582	H	0.703835	1.277677	0.827051
