data_functionalizedCrystal
_audit_creation_method	'MofGen! by Chris Wilmer'
_symmetry_space_group_name_H-M	'P1'
_symmetry_Int_Tables_number	1
_symmetry_cell_setting	triclinic
loop_
_symmetry_equiv_pos_as_xyz
  x,y,z
_cell_length_a	19.077105
_cell_length_b	12.759400
_cell_length_c	12.759393
_cell_angle_alpha	90.030742
_cell_angle_beta	92.318723
_cell_angle_gamma	87.711168
loop_
_atom_site_label
_atom_site_type_symbol
_atom_site_fract_x
_atom_site_fract_y
_atom_site_fract_z
Zn1	Zn	1.076054	-0.482843	0.658529
Zn2	Zn	1.576054	0.017157	1.158529
Zn3	Zn	1.075984	-0.658555	0.482845
Zn4	Zn	1.575984	-0.158555	0.982845
Zn5	Zn	0.958352	-0.475825	0.475808
Zn6	Zn	1.458352	0.024175	0.975808
Zn7	Zn	0.958343	-0.651410	0.651429
Zn8	Zn	1.458343	-0.151410	1.151429
O9	O	1.017183	-0.567158	0.567153
O10	O	1.517183	-0.067158	1.067153
O11	O	1.174536	-0.512078	0.641140
O12	O	1.674536	-0.012078	1.141140
O13	O	1.060354	-0.634369	0.334888
O14	O	1.560354	-0.134369	0.834888
O15	O	0.973998	-0.329737	0.500072
O16	O	1.473998	0.170263	1.000072
O17	O	1.174485	-0.641173	0.512066
O18	O	1.674485	-0.141173	1.012066
O19	O	1.060473	-0.334893	0.634316
O20	O	1.560473	0.165107	1.134316
O21	O	0.973930	-0.500118	0.329718
O22	O	1.473930	-0.000118	0.829718
O23	O	0.859859	-0.493190	0.493188
O24	O	1.359859	0.006810	0.993188
O25	O	0.973984	-0.628996	0.799394
O26	O	1.473984	-0.128996	1.299394
O27	O	0.859853	-0.622192	0.622217
O28	O	1.359853	-0.122192	1.122217
O29	O	1.060465	-0.505150	0.804610
O30	O	1.560465	-0.005150	1.304610
O31	O	1.060346	-0.804626	0.505182
O32	O	1.560346	-0.304626	1.005182
O33	O	0.973916	-0.799377	0.629040
O34	O	1.473916	-0.299377	1.129040
C35	C	0.834318	-0.556155	0.556169
C36	C	1.334318	-0.056155	1.056169
C37	C	0.756087	-0.551473	0.551495
C38	C	1.256087	-0.051473	1.051495
C39	C	1.017141	-0.840123	0.567128
C40	C	1.517141	-0.340123	1.067128
C41	C	1.017188	-0.956903	0.567157
C42	C	1.517188	-0.456903	1.067157
C43	C	0.719350	-0.616539	0.616372
C44	C	1.219350	-0.116539	1.116372
C45	C	0.645844	-0.612126	0.611986
C46	C	1.145844	-0.112126	1.111986
C47	C	0.609077	-0.542651	0.542716
C48	C	1.109077	-0.042651	1.042716
C49	C	0.645820	-0.477578	0.477837
C50	C	1.145820	0.022422	0.977837
C51	C	0.719324	-0.481987	0.482229
C52	C	1.219324	0.018013	0.982229
C53	C	0.389240	-0.522248	0.522392
C54	C	0.889240	-0.022248	1.022392
C55	C	0.315731	-0.517847	0.518002
C56	C	0.815731	-0.017847	1.018002
C57	C	0.315760	-0.652394	0.652153
C58	C	0.815760	-0.152394	1.152153
C59	C	0.389266	-0.656800	0.656534
C60	C	0.889266	-0.156800	1.156534
C61	C	0.426002	-0.591724	0.591659
C62	C	0.926002	-0.091724	1.091659
N63	N	0.533942	-0.538141	0.538228
N64	N	1.033942	-0.038141	1.038228
N65	N	0.501136	-0.596229	0.596153
N66	N	1.001136	-0.096229	1.096153
C67	C	1.062242	-1.014466	0.502741
C68	C	1.562242	-0.514466	1.002741
C69	C	1.062285	-1.124192	0.502776
C70	C	1.562285	-0.624192	1.002776
C71	C	0.972214	-1.118782	0.631645
C72	C	1.472214	-0.618782	1.131645
C73	C	0.972175	-1.009058	0.631615
C74	C	1.472175	-0.509058	1.131615
C75	C	1.107255	-0.962310	0.438283
C76	C	1.607255	-0.462310	0.938283
C77	C	1.152312	-1.019874	0.373861
C78	C	1.652312	-0.519874	0.873861
C79	C	1.152355	-1.129601	0.373896
C80	C	1.652355	-0.629601	0.873896
C81	C	1.107341	-1.181764	0.438353
C82	C	1.607341	-0.681764	0.938353
C83	C	1.200762	-0.578205	0.578180
C84	C	1.700762	-0.078205	1.078180
C85	C	1.278993	-0.582913	0.582879
C86	C	1.778993	-0.082913	1.082879
C87	C	1.017231	-0.567059	0.841189
C88	C	1.517231	-0.067059	1.341189
C89	C	1.017252	-0.567017	0.957967
C90	C	1.517252	-0.067017	1.457967
C91	C	1.017244	-0.293129	0.567201
C92	C	1.517244	0.206871	1.067201
C93	C	1.017270	-0.176354	0.567222
C94	C	1.517270	0.323646	1.067222
C95	C	1.017176	-0.567184	0.294185
C96	C	1.517176	-0.067184	0.794185
C97	C	1.017291	-0.566938	0.177416
C98	C	1.517291	-0.066938	0.677416
C99	C	0.972257	-0.631439	1.119842
C100	C	1.472257	-0.131439	1.619842
C101	C	0.972236	-0.631476	1.010116
C102	C	1.472236	-0.131476	1.510116
C103	C	1.062288	-0.502508	1.015548
C104	C	1.562288	-0.002508	1.515548
C105	C	1.062306	-0.502467	1.125272
C106	C	1.562306	-0.002467	1.625272
C107	C	0.927243	-0.695911	1.171986
C108	C	1.427243	-0.195911	1.671986
C109	C	0.882206	-0.760418	1.114412
C110	C	1.382206	-0.260418	1.614412
C111	C	0.882184	-0.760455	1.004686
C112	C	1.382184	-0.260455	1.504686
C113	C	0.927200	-0.695985	0.952535
C114	C	1.427200	-0.195985	1.452535
H115	H	0.749280	-0.673116	0.672775
H116	H	1.249280	-0.173116	1.172775
F117	F	0.606688	-0.403631	0.404121
F118	F	1.106688	0.096369	0.904121
H119	H	0.935566	-1.161262	0.684122
H120	H	1.435566	-0.661262	1.184122
F121	F	0.758423	-0.412733	0.413180
F122	F	1.258423	0.087267	0.913180
H123	H	0.615935	-0.665110	0.664814
H124	H	1.115935	-0.165110	1.164814
F125	F	1.110191	-0.433896	0.960041
F126	F	1.610191	0.066104	1.460041
F127	F	0.927171	-0.696023	0.835754
F128	F	1.427171	-0.196023	1.335754
H129	H	0.419197	-0.713376	0.712939
H130	H	0.919197	-0.213376	1.212939
H131	H	0.845551	-0.812899	1.156881
H132	H	1.345551	-0.312899	1.656881
H133	H	1.188965	-0.977397	0.321388
H134	H	1.688965	-0.477397	0.821388
F135	F	1.110221	-0.433794	1.186548
F136	F	1.610221	0.066206	1.686548
H137	H	0.285841	-0.705374	0.704972
H138	H	0.785841	-0.205374	1.204972
H139	H	1.189048	-1.176466	0.321448
H140	H	1.689048	-0.676466	0.821448
F141	F	0.276602	-0.443906	0.444266
F142	F	0.776602	0.056094	0.944266
H143	H	1.107385	-1.271111	0.438385
H144	H	1.607385	-0.771111	0.938385
F145	F	0.924225	-0.947792	0.700175
F146	F	1.424225	-0.447792	1.200175
H147	H	0.927257	-0.695890	1.261330
H148	H	1.427257	-0.195890	1.761330
F149	F	0.428329	-0.452985	0.453347
F150	F	0.928329	0.047015	0.953347
H151	H	1.107223	-0.872966	0.438244
H152	H	1.607223	-0.372966	0.938244
F153	F	0.834247	-0.829098	0.943414
F154	F	1.334247	-0.329098	1.443414
