data_functionalizedCrystal
_audit_creation_method	'MofGen! by Chris Wilmer'
_symmetry_space_group_name_H-M	'P1'
_symmetry_Int_Tables_number	1
_symmetry_cell_setting	triclinic
loop_
_symmetry_equiv_pos_as_xyz
  x,y,z
_cell_length_a	16.992694
_cell_length_b	10.654550
_cell_length_c	16.053802
_cell_angle_alpha	92.591674
_cell_angle_beta	87.249047
_cell_angle_gamma	87.576563
loop_
_atom_site_label
_atom_site_type_symbol
_atom_site_fract_x
_atom_site_fract_y
_atom_site_fract_z
O1	O	1.045116	0.261481	-0.069321
O2	O	0.816816	0.258556	-0.069346
O3	O	0.936215	0.077733	-0.069330
O4	O	0.925717	0.442304	-0.069337
O5	O	0.929643	0.087643	0.069528
O6	O	0.810244	0.268466	0.069512
O7	O	1.038544	0.271390	0.069537
Zn8	Zn	0.923350	0.271501	0.091571
Zn9	Zn	0.932009	0.258446	-0.091380
O10	O	0.919145	0.452213	0.069521
C11	C	0.784297	0.259751	0.000080
C12	C	0.697192	0.248531	0.000071
C13	C	0.932158	0.035823	0.000098
C14	C	0.929852	-0.103819	0.000095
C15	C	0.647540	0.356781	0.000069
C16	C	0.565696	0.346233	0.000081
C17	C	0.533505	0.227432	0.000088
C18	C	0.583163	0.119174	0.000092
C19	C	0.665006	0.129724	0.000087
C20	C	0.289668	0.183707	0.000112
C21	C	0.207819	0.173165	0.000115
C22	C	0.190358	0.400225	0.000105
C23	C	0.272203	0.410765	0.000094
C24	C	0.321854	0.302506	0.000103
N25	N	0.449847	0.216647	0.000098
N26	N	0.405510	0.313293	0.000099
C27	C	1.000152	-0.177229	0.000105
C28	C	0.997981	-0.308438	0.000099
C29	C	0.855203	-0.292815	0.000076
C30	C	0.857375	-0.161609	0.000077
C31	C	1.072629	-0.119440	0.000124
C32	C	1.142935	-0.192850	0.000135
C33	C	1.140763	-0.324059	0.000129
C34	C	1.068286	-0.381858	0.000112
C35	C	1.071063	0.270196	0.000109
C36	C	1.158168	0.281416	0.000113
C37	C	0.923202	0.494123	0.000091
C38	C	0.925508	0.633766	0.000089
N39	N	0.917446	0.280411	0.216431
N40	N	0.937920	0.249526	-0.216239
C41	C	0.968269	0.203502	0.260132
C42	C	0.964147	0.209747	0.347538
C43	C	0.909204	0.292909	0.391242
C44	C	0.858376	0.369822	0.347535
C45	C	0.862495	0.363569	0.260130
C46	C	0.891210	0.320186	0.652649
C47	C	0.887096	0.326435	0.740060
C48	C	0.992867	0.166359	0.740057
C49	C	0.996985	0.160119	0.652650
C50	C	0.946153	0.237026	0.608951
N51	N	0.904991	0.299298	0.480585
N52	N	0.950364	0.230631	0.519610
H53	H	0.673743	0.453521	0.000063
C54	C	0.547750	-0.011509	0.000102
N55	N	0.521078	-0.109941	0.000106
C56	C	1.028711	0.112016	0.212066
N57	N	1.074234	0.043102	0.175864
C58	C	0.172412	0.042470	0.000122
N59	N	0.145743	-0.055965	0.000125
C60	C	1.020038	0.125108	0.395605
N61	N	1.062131	0.061342	0.431808
C62	C	0.826650	0.417920	0.788132
N63	N	0.781125	0.486823	0.824341
H64	H	0.800130	-0.101836	0.000069
C65	C	1.057422	0.068627	0.604583
N66	N	1.102944	-0.000285	0.568378
C67	C	0.511081	0.465320	0.000094
N68	N	0.469945	0.555022	0.000110
H69	H	1.034251	0.103743	0.775645
H70	H	0.298407	0.507504	0.000079
C71	C	1.075024	0.024892	0.000131
N72	N	1.076827	0.133603	0.000137
H73	H	0.813636	0.437530	0.383124
H74	H	0.705432	0.041574	0.000087
H75	H	0.796195	-0.339885	0.000064
C76	C	1.065902	-0.526193	0.000100
N77	N	1.064107	-0.634905	0.000096
H78	H	1.201944	-0.145783	0.000128
C79	C	0.344274	0.064618	0.000115
N80	N	0.385406	-0.025087	0.000117
H81	H	0.849823	0.382810	0.617076
H82	H	0.149924	0.488363	0.000100
C83	C	0.806591	0.448187	0.212060
N84	N	0.764483	0.511924	0.175855
H85	H	1.198010	-0.383827	0.000129
