data_functionalizedCrystal
_audit_creation_method	'MofGen! by Chris Wilmer'
_symmetry_space_group_name_H-M	'P1'
_symmetry_Int_Tables_number	1
_symmetry_cell_setting	triclinic
loop_
_symmetry_equiv_pos_as_xyz
  x,y,z
_cell_length_a	13.262390
_cell_length_b	13.339070
_cell_length_c	11.804365
_cell_angle_alpha	105.112168
_cell_angle_beta	62.657606
_cell_angle_gamma	99.429367
loop_
_atom_site_label
_atom_site_type_symbol
_atom_site_fract_x
_atom_site_fract_y
_atom_site_fract_z
O1	O	1.523840	0.014587	-0.592574
O2	O	1.206727	0.050539	-0.489867
O3	O	1.328888	-0.112422	-0.529429
O4	O	1.401678	0.177548	-0.553011
O5	O	1.296715	-0.069561	-0.320954
O6	O	1.174553	0.093399	-0.281392
O7	O	1.491667	0.057448	-0.384098
Cu8	Cu	1.330172	0.079337	-0.313710
Cu9	Cu	1.368221	0.028650	-0.560256
O10	O	1.369505	0.220409	-0.344536
C11	C	1.149224	0.073896	-0.372216
C12	C	1.025813	0.079625	-0.332245
C13	C	0.748097	0.002302	-0.674154
C14	C	0.864046	-0.003086	-0.711709
C15	C	0.904494	0.017592	-0.616847
C16	C	0.828980	0.043657	-0.484422
C17	C	0.713017	0.049038	-0.446862
C18	C	0.869415	0.064327	-0.389555
C19	C	0.793901	0.090393	-0.257130
C20	C	0.677950	0.095773	-0.219577
C21	C	0.637502	0.075096	-0.314439
C22	C	0.985378	0.058947	-0.427115
C23	C	0.950298	0.105683	-0.199823
C24	C	0.834348	0.111070	-0.162267
C25	C	1.300506	-0.127911	-0.421211
C26	C	1.263857	-0.237920	-0.409346
C27	C	1.548826	-0.620550	-0.501641
C28	C	1.583262	-0.517190	-0.512783
C29	C	1.503414	-0.447368	-0.486925
C30	C	1.389124	-0.480915	-0.449923
C31	C	1.354683	-0.584282	-0.438770
C32	C	1.309271	-0.411101	-0.424054
C33	C	1.194981	-0.444647	-0.387051
C34	C	1.160546	-0.548006	-0.375901
C35	C	1.240394	-0.617828	-0.401759
C36	C	1.343712	-0.307733	-0.435207
C37	C	1.149568	-0.271466	-0.372335
C38	C	1.115132	-0.374825	-0.361193
C39	C	1.549170	0.034091	-0.501753
C40	C	1.672582	0.028360	-0.541731
C41	C	1.397887	0.235898	-0.452757
C42	C	1.434537	0.345905	-0.464630
N43	N	1.303419	0.114987	-0.140305
N44	N	1.394980	-0.007009	-0.733663
C45	C	1.459219	-0.092637	0.183188
C46	C	1.479455	-0.119610	0.051973
C47	C	1.435448	-0.060963	0.003897
C48	C	1.371201	0.024662	0.087049
C49	C	1.350970	0.051643	0.218275
C50	C	1.327199	0.083316	0.038984
C51	C	1.262952	0.168942	0.122136
C52	C	1.242724	0.195918	0.253348
C53	C	1.286731	0.137271	0.301424
C54	C	1.347429	0.056336	-0.092242
C55	C	1.239180	0.200615	-0.057155
C56	C	1.218944	0.227589	0.074060
H57	H	0.543088	0.079484	-0.283868
H58	H	1.495052	-0.140375	0.222339
F59	F	1.064580	-0.197158	-0.344806
F60	F	1.415803	-0.034790	-0.180724
F61	F	1.203767	-0.727862	-0.390021
H62	H	1.613825	-0.677405	-0.522680
F63	F	1.027900	0.011859	-0.656821
F64	F	0.993499	-0.410542	-0.321816
F65	F	1.465343	-0.272041	-0.474585
H66	H	1.203348	0.248373	-0.096297
H67	H	1.190421	0.265645	0.321049
H68	H	0.616465	0.116979	-0.111747
F69	F	1.065732	0.031207	-0.568046
F70	F	0.944405	-0.030829	-0.852639
F71	F	0.705034	-0.019743	-0.775095
H72	H	1.531459	-0.363209	-0.495999
H73	H	0.772849	0.132293	-0.054445
H74	H	1.451927	-0.082929	-0.102945
F75	F	0.993338	0.127683	-0.098855
H76	H	1.676317	-0.489884	-0.542909
F77	F	1.038905	-0.583702	-0.336504
F78	F	1.547829	-0.210733	-0.036519
F79	F	1.265189	0.165975	0.441082
F80	F	1.150570	0.318716	0.162570
