data_functionalizedCrystal
_audit_creation_method	'MofGen! by Chris Wilmer'
_symmetry_space_group_name_H-M	'P1'
_symmetry_Int_Tables_number	1
_symmetry_cell_setting	triclinic
loop_
_symmetry_equiv_pos_as_xyz
  x,y,z
_cell_length_a	16.120490
_cell_length_b	18.101397
_cell_length_c	16.120297
_cell_angle_alpha	92.869027
_cell_angle_beta	90.129683
_cell_angle_gamma	87.112663
loop_
_atom_site_label
_atom_site_type_symbol
_atom_site_fract_x
_atom_site_fract_y
_atom_site_fract_z
Zn1	Zn	1.247471	-0.375252	-0.534508
Zn2	Zn	1.580804	-0.041919	-0.201175
Zn3	Zn	1.914137	0.291414	0.132159
Zn4	Zn	1.254429	-0.493146	-0.395442
Zn5	Zn	1.587762	-0.159813	-0.062109
Zn6	Zn	1.921096	0.173521	0.271225
Zn7	Zn	1.115459	-0.362732	-0.388430
Zn8	Zn	1.448793	-0.029398	-0.055097
Zn9	Zn	1.782126	0.303935	0.278236
Zn10	Zn	1.108384	-0.492457	-0.527415
Zn11	Zn	1.441718	-0.159123	-0.194082
Zn12	Zn	1.775051	0.174210	0.139252
O13	O	1.181436	-0.430897	-0.461449
O14	O	1.514769	-0.097563	-0.128116
O15	O	1.848103	0.235770	0.205218
O16	O	1.364761	-0.396420	-0.521964
O17	O	1.698094	-0.063086	-0.188630
O18	O	2.031428	0.270247	0.144703
O19	O	1.241867	-0.470895	-0.278147
O20	O	1.575201	-0.137561	0.055187
O21	O	1.908534	0.195772	0.388520
O22	O	1.133020	-0.260764	-0.407842
O23	O	1.466353	0.072570	-0.074508
O24	O	1.799687	0.405903	0.258825
O25	O	1.369873	-0.483035	-0.419793
O26	O	1.703206	-0.149702	-0.086459
O27	O	2.036540	0.183631	0.246874
O28	O	1.230008	-0.269962	-0.515165
O29	O	1.563341	0.063371	-0.181831
O30	O	1.896675	0.396704	0.151502
O31	O	1.139767	-0.375080	-0.272995
O32	O	1.473100	-0.041747	0.060338
O33	O	1.806434	0.291587	0.393672
O34	O	0.998154	-0.374412	-0.400964
O35	O	1.331487	-0.041079	-0.067630
O36	O	1.664820	0.292255	0.265703
O37	O	1.120962	-0.481861	-0.644721
O38	O	1.454295	-0.148528	-0.311388
O39	O	1.787628	0.184806	0.021946
O40	O	0.992956	-0.469720	-0.503075
O41	O	1.326289	-0.136387	-0.169742
O42	O	1.659622	0.196946	0.163591
O43	O	1.223148	-0.395751	-0.649932
O44	O	1.556481	-0.062418	-0.316599
O45	O	1.889814	0.270915	0.016734
O46	O	1.235007	-0.596684	-0.412915
O47	O	1.568340	-0.263350	-0.079581
O48	O	1.901674	0.069983	0.253752
O49	O	1.127709	-0.596177	-0.509874
O50	O	1.461042	-0.262844	-0.176541
O51	O	1.794375	0.070489	0.156792
C52	C	0.965382	-0.420633	-0.450489
C53	C	1.298715	-0.087300	-0.117156
C54	C	1.632049	0.246034	0.216177
C55	C	0.872952	-0.416261	-0.445821
C56	C	1.206285	-0.082928	-0.112487
C57	C	1.539619	0.250406	0.220846
C58	C	0.659993	-0.453570	-0.485668
C59	C	0.993326	-0.120237	-0.152334
C60	C	1.326659	0.213097	0.180999
C61	C	0.703727	-0.408285	-0.437296
C62	C	1.037060	-0.074952	-0.103962
C63	C	1.370394	0.258381	0.229371
C64	C	0.797893	-0.412724	-0.442040
C65	C	1.131226	-0.079391	-0.108707
C66	C	1.464559	0.253942	0.224626
C67	C	0.565818	-0.449132	-0.480924
C68	C	0.899152	-0.115799	-0.147591
C69	C	1.232485	0.217535	0.185743
C70	C	1.181367	-0.623302	-0.461405
C71	C	1.514700	-0.289969	-0.128072
C72	C	1.848033	0.043364	0.205262
C73	C	1.181412	-0.705619	-0.461418
C74	C	1.514745	-0.372286	-0.128084
C75	C	1.848079	-0.038952	0.205249
C76	C	1.181514	-1.004718	-0.461499
C77	C	1.514847	-0.671385	-0.128166
C78	C	1.848181	-0.338051	0.205168
C79	C	1.248853	-0.973665	-0.400313
C80	C	1.582186	-0.640331	-0.066980
C81	C	1.915519	-0.306998	0.266353
C82	C	1.249066	-0.888064	-0.400491
C83	C	1.582400	-0.554730	-0.067158
C84	C	1.915733	-0.221397	0.266175
C85	C	1.181463	-0.856331	-0.461458
C86	C	1.514797	-0.522998	-0.128125
C87	C	1.848130	-0.189665	0.205209
C88	C	1.200776	-0.892215	-0.550311
C89	C	1.534109	-0.558882	-0.216977
C90	C	1.867443	-0.225548	0.116356
C91	C	1.201290	-0.977868	-0.549985
C92	C	1.534623	-0.644535	-0.216652
C93	C	1.867956	-0.311202	0.116682
C94	C	1.094654	-0.968092	-0.434582
C95	C	1.427987	-0.634759	-0.101249
C96	C	1.761320	-0.301425	0.232085
C97	C	1.095187	-0.882379	-0.432648
C98	C	1.428521	-0.549046	-0.099314
C99	C	1.761854	-0.215713	0.234019
C100	C	1.181433	-0.772470	-0.461440
C101	C	1.514766	-0.439136	-0.128107
C102	C	1.848100	-0.105803	0.205227
C103	C	1.181546	-1.088580	-0.461523
C104	C	1.514880	-0.755247	-0.128190
C105	C	1.848213	-0.421913	0.205144
C106	C	1.398333	-0.441201	-0.472452
C107	C	1.731667	-0.107868	-0.139118
C108	C	2.065000	0.225466	0.194215
C109	C	1.490762	-0.445592	-0.477140
C110	C	1.824095	-0.112259	-0.143807
C111	C	2.157429	0.221075	0.189526
C112	C	1.170489	-0.440126	-0.678343
C113	C	1.503823	-0.106793	-0.345009
C114	C	1.837156	0.226541	-0.011676
C115	C	1.165824	-0.444059	-0.770770
C116	C	1.499158	-0.110726	-0.437437
C117	C	1.832491	0.222608	-0.104103
C118	C	1.181527	-0.237742	-0.461512
C119	C	1.514860	0.095592	-0.128179
C120	C	1.848194	0.428925	0.205154
C121	C	1.181566	-0.155431	-0.461539
C122	C	1.514899	0.177903	-0.128206
C123	C	1.848232	0.511236	0.205127
C124	C	1.157277	-0.451222	-0.939994
C125	C	1.490610	-0.117888	-0.606661
C126	C	1.823944	0.215445	-0.273327
C127	C	1.205758	-0.410358	-0.983764
C128	C	1.539092	-0.077024	-0.650430
C129	C	1.872425	0.256309	-0.317097
C130	C	1.201003	-0.414343	-1.077926
C131	C	1.534336	-0.081010	-0.744593
C132	C	1.867669	0.252324	-0.411259
C133	C	1.162032	-0.447237	-0.845823
C134	C	1.495365	-0.113904	-0.512490
C135	C	1.828698	0.219430	-0.179157
C136	C	1.192388	-0.421652	-0.245401
C137	C	1.525721	-0.088319	0.087932
C138	C	1.859054	0.245014	0.421265
C139	C	1.197214	-0.417518	-0.152983
C140	C	1.530547	-0.084185	0.180351
C141	C	1.863880	0.249148	0.513684
H142	H	0.670448	-0.366182	-0.392319
H143	H	1.003782	-0.032849	-0.058986
H144	H	1.337115	0.300484	0.274347
F145	F	1.026549	-0.853741	-0.486163
F146	F	1.359882	-0.520407	-0.152830
F147	F	1.693215	-0.187074	0.180503
H148	H	0.693269	-0.495670	-0.530640
H149	H	1.026602	-0.162337	-0.197306
H150	H	1.359936	0.170997	0.136027
F151	F	1.098363	-0.500860	-0.983446
F152	F	1.431696	-0.167527	-0.650113
F153	F	1.765030	0.165807	-0.316780
F154	F	1.233987	-0.996095	-0.314138
F155	F	1.567320	-0.662762	0.019196
F156	F	1.900653	-0.329429	0.352529
F157	F	1.233903	-0.856106	-0.314568
F158	F	1.567236	-0.522773	0.018766
F159	F	1.900569	-0.189440	0.352099
H160	H	1.312937	-0.998836	-0.418286
H161	H	1.646270	-0.665503	-0.084953
H162	H	1.979603	-0.332170	0.248381
H163	H	1.313498	-0.871248	-0.418653
H164	H	1.646831	-0.537915	-0.085320
H165	H	1.980164	-0.204581	0.248013
F166	F	1.284104	-1.008958	-0.579109
F167	F	1.617437	-0.675625	-0.245776
F168	F	1.950771	-0.342291	0.087557
H169	H	1.154149	-0.998603	-0.597385
H170	H	1.487482	-0.665269	-0.264052
H171	H	1.820815	-0.331936	0.069282
F172	F	1.138373	-0.865564	-0.611751
F173	F	1.471706	-0.532230	-0.278418
F174	F	1.805040	-0.198897	0.054916
F175	F	1.282628	-0.869131	-0.579812
F176	F	1.615962	-0.535797	-0.246478
F177	F	1.949295	-0.202464	0.086855
H178	H	1.076226	-0.986041	-0.370682
H179	H	1.409559	-0.652707	-0.037349
H180	H	1.742893	-0.319374	0.295985
F181	F	1.076043	-0.851180	-0.347154
F182	F	1.409377	-0.517846	-0.013820
F183	F	1.742710	-0.184513	0.319513
H184	H	1.044536	-0.988101	-0.479092
H185	H	1.377869	-0.654767	-0.145759
H186	H	1.711203	-0.321434	0.187575
H187	H	1.250836	-0.372379	-0.950518
H188	H	1.584169	-0.039046	-0.617184
H189	H	1.917502	0.294287	-0.283851
