data_functionalizedCrystal
_audit_creation_method	'MofGen! by Chris Wilmer'
_symmetry_space_group_name_H-M	'P1'
_symmetry_Int_Tables_number	1
_symmetry_cell_setting	triclinic
loop_
_symmetry_equiv_pos_as_xyz
  x,y,z
_cell_length_a	10.654550
_cell_length_b	10.723024
_cell_length_c	9.130313
_cell_angle_alpha	90.001829
_cell_angle_beta	90.000488
_cell_angle_gamma	84.476400
loop_
_atom_site_label
_atom_site_type_symbol
_atom_site_fract_x
_atom_site_fract_y
_atom_site_fract_z
O1	O	1.667814	0.175272	0.121686
O2	O	1.302333	0.191971	0.121712
O3	O	1.493504	0.002047	0.121693
O4	O	1.476643	0.365196	0.121705
O5	O	1.493489	0.002047	-0.121906
O6	O	1.302318	0.191971	-0.121886
O7	O	1.667799	0.175272	-0.121913
Cu8	Cu	1.485057	0.183622	-0.144142
Cu9	Cu	1.485075	0.183622	0.143942
O10	O	1.476628	0.365197	-0.121894
C11	C	1.255528	0.190745	-0.000084
C12	C	1.116085	0.187077	-0.000073
C13	C	1.492269	-0.044453	-0.000104
C14	C	1.488598	-0.183008	-0.000099
C15	C	1.036583	0.298901	-0.000074
C16	C	0.905562	0.295447	-0.000100
C17	C	0.933560	0.068334	-0.000118
C18	C	1.064577	0.071789	-0.000103
C19	C	1.595567	-0.257975	-0.000105
C20	C	1.591776	-0.401179	-0.000099
C21	C	1.714604	0.176498	-0.000114
C22	C	1.854047	0.180167	-0.000114
C23	C	1.477863	0.411696	-0.000093
C24	C	1.481534	0.550251	-0.000089
N25	N	1.485054	0.183621	-0.346765
C26	C	1.561874	0.260013	-0.423414
C27	C	1.561894	0.260006	-0.576751
C28	C	1.408265	0.107212	-0.576775
C29	C	1.408252	0.107213	-0.423441
N30	N	1.485087	0.183612	0.346564
H31	H	0.840836	0.386506	-0.000103
H32	H	1.389955	-0.385337	-0.000094
H33	H	1.624412	0.322229	-0.360989
H34	H	1.129312	-0.019278	-0.000107
H35	H	1.689955	-0.216138	-0.000121
H36	H	1.394211	-0.224844	-0.000083
H37	H	1.345733	0.045004	-0.639224
C38	C	1.818065	-0.415829	-0.000121
C39	C	1.715407	-0.488131	-0.000108
H40	H	1.894391	-0.469514	-0.000135
H41	H	1.814727	-0.364478	0.084822
H42	H	1.814707	-0.364475	-0.085075
H43	H	1.718759	-0.539478	0.084853
H44	H	1.718747	-0.539504	-0.085060
H45	H	1.624450	0.322211	-0.639153
H46	H	1.345695	0.044999	-0.361031
C47	C	1.224992	0.405046	-0.000023
C48	C	1.093203	0.425622	-0.000047
H49	H	1.259941	0.483282	0.000001
H50	H	1.252217	0.358969	-0.084967
H51	H	1.252194	0.358950	0.084930
H52	H	1.066000	0.471710	-0.085006
H53	H	1.065967	0.471719	0.084906
C54	C	0.745149	-0.037808	-0.000134
C55	C	0.876937	-0.058386	-0.000131
H56	H	0.710198	-0.116043	-0.000130
H57	H	0.717938	0.008274	-0.085077
H58	H	0.717935	0.008285	0.084820
H59	H	0.904152	-0.104471	-0.085091
H60	H	0.904160	-0.104488	0.084821
