data_functionalizedCrystal
_audit_creation_method	'MofGen! by Chris Wilmer'
_symmetry_space_group_name_H-M	'P1'
_symmetry_Int_Tables_number	1
_symmetry_cell_setting	triclinic
loop_
_symmetry_equiv_pos_as_xyz
  x,y,z
_cell_length_a	10.540510
_cell_length_b	10.654550
_cell_length_c	9.130313
_cell_angle_alpha	89.999724
_cell_angle_beta	90.005059
_cell_angle_gamma	95.500879
loop_
_atom_site_label
_atom_site_type_symbol
_atom_site_fract_x
_atom_site_fract_y
_atom_site_fract_z
O1	O	-0.178303	1.667883	-0.121692
O2	O	0.321697	2.167883	0.378308
O3	O	-0.195291	1.302409	-0.121719
O4	O	0.304709	1.802409	0.378281
O5	O	-0.002085	1.493504	-0.121693
O6	O	0.497915	1.993504	0.378307
O7	O	-0.371509	1.476789	-0.121718
O8	O	0.128491	1.976789	0.378282
O9	O	-0.002079	1.493491	0.121906
O10	O	0.497921	1.993491	0.621906
O11	O	-0.195285	1.302396	0.121880
O12	O	0.304715	1.802396	0.621880
O13	O	-0.178297	1.667870	0.121907
O14	O	0.321703	2.167870	0.621907
Cu15	Cu	-0.186791	1.485132	0.144136
Cu16	Cu	0.313209	1.985132	0.644136
Cu17	Cu	-0.186797	1.485147	-0.143948
Cu18	Cu	0.313203	1.985147	0.356052
O19	O	-0.371503	1.476775	0.121881
O20	O	0.128497	1.976775	0.621881
C21	C	-0.194040	1.255604	0.000077
C22	C	0.305960	1.755604	0.500077
C23	C	-0.190309	1.116160	0.000067
C24	C	0.309691	1.616160	0.500067
C25	C	-0.304065	1.036702	0.000063
C26	C	0.195935	1.536702	0.500063
C27	C	-0.300551	0.905681	0.000089
C28	C	0.199449	1.405681	0.500089
C29	C	-0.069514	0.933587	0.000116
C30	C	0.430486	1.433587	0.500116
C31	C	-0.073029	1.064606	0.000100
C32	C	0.426971	1.564606	0.500100
C33	C	-0.418809	1.478028	0.000078
C34	C	0.081191	1.978028	0.500078
C35	C	-0.559758	1.481754	0.000069
C36	C	-0.059758	1.981754	0.500069
C37	C	-0.777261	1.349001	0.000637
C38	C	-0.277261	1.849001	0.500637
C39	C	-0.630667	1.345026	0.000065
C40	C	-0.130667	1.845026	0.500065
C41	C	-0.604512	1.551754	-0.139024
C42	C	-0.104512	2.051754	0.360976
C43	C	-0.751272	1.554761	-0.139117
C44	C	-0.251272	2.054761	0.360883
C45	C	-0.751038	1.557592	0.137900
C46	C	-0.251038	2.057592	0.637900
C47	C	-0.604699	1.551107	0.139716
C48	C	-0.104699	2.051107	0.639716
C49	C	0.045221	1.492252	0.000106
C50	C	0.545221	1.992252	0.500106
C51	C	0.186170	1.488525	0.000105
C52	C	0.686170	1.988525	0.500105
C53	C	-0.179547	1.714675	0.000107
C54	C	0.320453	2.214675	0.500107
C55	C	-0.183279	1.854119	0.000108
C56	C	0.316721	2.354119	0.500108
N57	N	-0.186785	1.485130	0.346758
N58	N	0.313215	1.985130	0.846758
N59	N	-0.186793	1.485159	-0.346571
N60	N	0.313207	1.985159	0.153429
C61	C	-0.101270	1.569776	0.423422
C62	C	0.398730	2.069776	0.923422
C63	C	-0.101270	1.569788	0.576759
C64	C	0.398730	2.069788	1.076759
C65	C	-0.272312	1.400504	0.576755
C66	C	0.227688	1.900504	1.076755
C67	C	-0.272305	1.400487	0.423421
C68	C	0.227695	1.900487	0.923421
H69	H	0.025971	0.891595	0.000152
H70	H	0.525971	1.391595	0.500152
O71	O	0.049670	1.150323	0.000107
O72	O	0.549670	1.650323	0.500107
H73	H	0.131812	1.092465	0.000113
H74	H	0.631812	1.592465	0.500113
H75	H	-0.601329	1.290246	0.099762
H76	H	-0.101329	1.790246	0.599762
O77	O	-0.430558	1.092303	0.000042
O78	O	0.069442	1.592303	0.500042
H79	H	-0.413896	1.196759	0.000018
H80	H	0.086104	1.696759	0.500018
H81	H	-0.393183	0.840991	0.000089
H82	H	0.106817	1.340991	0.500089
H83	H	-0.031635	1.638712	0.639174
H84	H	0.468365	2.138712	1.139174
O85	O	-0.832847	1.278414	0.132764
O86	O	-0.332847	1.778414	0.632764
H87	H	-0.887141	1.342012	0.199466
H88	H	-0.387141	1.842012	0.699466
H89	H	-0.820797	1.296048	-0.098560
H90	H	-0.320797	1.796048	0.401440
H91	H	-0.341942	1.331553	0.360998
H92	H	0.158058	1.831553	0.860998
H93	H	-0.341942	1.331592	0.639189
H94	H	0.158058	1.831592	1.139189
O95	O	-0.781709	1.690211	-0.147491
O96	O	-0.281709	2.190211	0.352509
H97	H	-0.740894	1.733733	-0.249652
H98	H	-0.240894	2.233733	0.250348
O99	O	-0.593067	1.272069	-0.132249
O100	O	-0.093067	1.772069	0.367751
H101	H	-0.679639	1.239505	-0.196086
H102	H	-0.179639	1.739505	0.303914
O103	O	-0.539660	1.683335	0.150851
O104	O	-0.039660	2.183335	0.650851
H105	H	-0.573515	1.729551	0.250538
H106	H	-0.073515	2.229551	0.750538
O107	O	-0.804604	1.491392	-0.276836
O108	O	-0.304604	1.991392	0.223164
H109	H	-0.725537	1.458888	-0.342738
H110	H	-0.225537	1.958888	0.157262
H111	H	-0.557086	1.652410	-0.144193
H112	H	-0.057086	2.152410	0.355807
O113	O	-0.563707	1.487378	-0.276171
O114	O	-0.063707	1.987378	0.223829
H115	H	-0.511566	1.405541	-0.245620
H116	H	-0.011566	1.905541	0.254380
H117	H	-0.793483	1.514374	0.243337
H118	H	-0.293483	2.014374	0.743337
H119	H	-0.576087	1.500174	0.242616
H120	H	-0.076087	2.000174	0.742616
H121	H	-0.773159	1.660246	0.138855
H122	H	-0.273159	2.160246	0.638855
H123	H	-0.031633	1.638695	0.361006
H124	H	0.468367	2.138695	0.861006
