data_functionalizedCrystal
_audit_creation_method	'MofGen! by Chris Wilmer'
_symmetry_space_group_name_H-M	'P1'
_symmetry_Int_Tables_number	1
_symmetry_cell_setting	triclinic
loop_
_symmetry_equiv_pos_as_xyz
  x,y,z
_cell_length_a	19.188905
_cell_length_b	19.188930
_cell_length_c	17.666332
_cell_angle_alpha	90.006765
_cell_angle_beta	90.013693
_cell_angle_gamma	83.139668
loop_
_atom_site_label
_atom_site_type_symbol
_atom_site_fract_x
_atom_site_fract_y
_atom_site_fract_z
O1	O	0.926158	0.087081	0.063081
O2	O	1.176158	0.337081	0.313081
O3	O	1.426158	0.587081	0.563081
O4	O	1.676158	0.837081	0.813081
O5	O	0.722845	0.098833	0.063057
O6	O	0.972845	0.348833	0.313057
O7	O	1.222845	0.598833	0.563057
O8	O	1.472845	0.848833	0.813057
O9	O	0.830369	-0.008699	0.063055
O10	O	1.080369	0.241301	0.313055
O11	O	1.330369	0.491301	0.563055
O12	O	1.580369	0.741301	0.813055
O13	O	0.818634	0.194613	0.063083
O14	O	1.068634	0.444613	0.313083
O15	O	1.318634	0.694613	0.563083
O16	O	1.568634	0.944613	0.813083
O17	O	0.830355	-0.008695	-0.062842
O18	O	1.080355	0.241305	0.187158
O19	O	1.330355	0.491305	0.437158
O20	O	1.580355	0.741305	0.687158
O21	O	0.722830	0.098837	-0.062840
O22	O	0.972830	0.348837	0.187160
O23	O	1.222830	0.598837	0.437160
O24	O	1.472830	0.848837	0.687160
O25	O	0.926144	0.087085	-0.062815
O26	O	1.176144	0.337085	0.187185
O27	O	1.426144	0.587085	0.437185
O28	O	1.676144	0.837085	0.687185
Cu29	Cu	0.824486	0.092961	-0.074323
Cu30	Cu	1.074486	0.342961	0.175677
Cu31	Cu	1.324486	0.592961	0.425677
Cu32	Cu	1.574486	0.842961	0.675677
Cu33	Cu	0.824503	0.092957	0.074565
Cu34	Cu	1.074503	0.342957	0.324565
Cu35	Cu	1.324503	0.592957	0.574565
Cu36	Cu	1.574503	0.842957	0.824565
O37	O	0.818620	0.194617	-0.062814
O38	O	1.068620	0.444617	0.187186
O39	O	1.318620	0.694617	0.437186
O40	O	1.568620	0.944617	0.687186
C41	C	0.696826	0.098458	0.000105
C42	C	0.946826	0.348458	0.250105
C43	C	1.196826	0.598458	0.500105
C44	C	1.446826	0.848458	0.750105
C45	C	0.619321	0.097324	0.000095
C46	C	0.869321	0.347324	0.250095
C47	C	1.119321	0.597324	0.500095
C48	C	1.369321	0.847324	0.750095
C49	C	0.829982	-0.034708	0.000104
C50	C	1.079982	0.215292	0.250104
C51	C	1.329982	0.465292	0.500104
C52	C	1.579982	0.715292	0.750104
C53	C	0.828841	-0.112213	0.000098
C54	C	1.078841	0.137787	0.250098
C55	C	1.328841	0.387787	0.500098
C56	C	1.578841	0.637787	0.750098
C57	C	0.582937	0.096777	0.068723
C58	C	0.832937	0.346777	0.318723
C59	C	1.082937	0.596777	0.568723
C60	C	1.332937	0.846777	0.818723
C61	C	0.510113	0.095704	0.068732
C62	C	0.760113	0.345704	0.318732
C63	C	1.010113	0.595704	0.568732
C64	C	1.260113	0.845704	0.818732
C65	C	0.473678	0.095164	0.000110
C66	C	0.723678	0.345164	0.250110
C67	C	0.973678	0.595164	0.500110
C68	C	1.223678	0.845164	0.750110
C69	C	0.510070	0.095714	-0.068528
C70	C	0.760070	0.345714	0.181472
C71	C	1.010070	0.595714	0.431472
C72	C	1.260070	0.845714	0.681472
C73	C	0.582892	0.096794	-0.068535
C74	C	0.832892	0.346794	0.181465
C75	C	1.082892	0.596794	0.431465
C76	C	1.332892	0.846794	0.681465
N77	N	0.364652	0.053737	-0.050966
N78	N	0.614652	0.303737	0.199034
N79	N	0.864652	0.553737	0.449034
N80	N	1.114652	0.803737	0.699034
N81	N	0.295475	0.052709	-0.050954
N82	N	0.545475	0.302709	0.199046
N83	N	0.795475	0.552709	0.449046
N84	N	1.045475	0.802709	0.699046
C85	C	0.254272	0.091911	0.000127
C86	C	0.504272	0.341911	0.250127
C87	C	0.754272	0.591911	0.500127
C88	C	1.004272	0.841911	0.750127
N89	N	0.284859	0.132171	0.051208
N90	N	0.534859	0.382171	0.301208
N91	N	0.784859	0.632171	0.551208
N92	N	1.034859	0.882171	0.801208
N93	N	0.354043	0.133195	0.051199
N94	N	0.604043	0.383195	0.301199
N95	N	0.854043	0.633195	0.551199
N96	N	1.104043	0.883195	0.801199
C97	C	0.394716	0.093993	0.000110
C98	C	0.644716	0.343993	0.250110
C99	C	0.894716	0.593993	0.500110
C100	C	1.144716	0.843993	0.750110
C101	C	0.138924	0.090202	0.068770
C102	C	0.388924	0.340202	0.318770
C103	C	0.638924	0.590202	0.568770
C104	C	0.888924	0.840202	0.818770
C105	C	0.066098	0.089133	0.068777
C106	C	0.316098	0.339133	0.318777
C107	C	0.566098	0.589133	0.568777
C108	C	0.816098	0.839133	0.818777
C109	C	0.066058	0.089136	-0.068485
C110	C	0.316058	0.339136	0.181515
C111	C	0.566058	0.589136	0.431515
C112	C	0.816058	0.839136	0.681515
C113	C	0.138881	0.090212	-0.068490
C114	C	0.388881	0.340212	0.181510
C115	C	0.638881	0.590212	0.431510
C116	C	0.888881	0.840212	0.681510
C117	C	0.175310	0.090742	0.000140
C118	C	0.425310	0.340742	0.250140
C119	C	0.675310	0.590742	0.500140
C120	C	0.925310	0.840742	0.750140
C121	C	0.891933	-0.157142	0.000102
C122	C	1.141933	0.092858	0.250102
C123	C	1.391933	0.342858	0.500102
C124	C	1.641933	0.592858	0.750102
C125	C	0.890861	-0.229966	0.000114
C126	C	1.140861	0.020034	0.250114
C127	C	1.390861	0.270034	0.500114
C128	C	1.640861	0.520034	0.750114
C129	C	0.826694	-0.257857	0.000107
C130	C	1.076694	-0.007857	0.250107
C131	C	1.326694	0.242143	0.500107
C132	C	1.576694	0.492143	0.750107
C133	C	0.763594	-0.212917	0.000107
C134	C	1.013594	0.037083	0.250107
C135	C	1.263594	0.287083	0.500107
C136	C	1.513594	0.537083	0.750107
C137	C	0.764668	-0.140095	0.000102
C138	C	1.014668	0.109905	0.250102
C139	C	1.264668	0.359905	0.500102
C140	C	1.514668	0.609905	0.750102
N141	N	0.777641	-0.365856	-0.042744
N142	N	1.027641	-0.115856	0.207256
N143	N	1.277641	0.134144	0.457256
N144	N	1.527641	0.384144	0.707256
N145	N	0.776626	-0.435035	-0.042742
N146	N	1.026626	-0.185035	0.207258
N147	N	1.276626	0.064965	0.457258
N148	N	1.526626	0.314965	0.707258
C149	C	0.823456	-0.477265	0.000122
C150	C	1.073456	-0.227265	0.250122
C151	C	1.323456	0.022735	0.500122
C152	C	1.573456	0.272735	0.750122
N153	N	0.871350	-0.447705	0.042973
N154	N	1.121350	-0.197705	0.292973
N155	N	1.371350	0.052295	0.542973
N156	N	1.621350	0.302295	0.792973
N157	N	0.872368	-0.378520	0.042967
N158	N	1.122368	-0.128520	0.292967
N159	N	1.372368	0.121480	0.542967
N160	N	1.622368	0.371480	0.792967
C161	C	0.825523	-0.336819	0.000112
C162	C	1.075523	-0.086819	0.250112
C163	C	1.325523	0.163181	0.500112
C164	C	1.575523	0.413181	0.750112
C165	C	0.885390	-0.601159	0.000140
C166	C	1.135390	-0.351159	0.250140
C167	C	1.385390	-0.101159	0.500140
C168	C	1.635390	0.148841	0.750140
C169	C	0.884315	-0.673984	0.000156
C170	C	1.134315	-0.423984	0.250156
C171	C	1.384315	-0.173984	0.500156
C172	C	1.634315	0.076016	0.750156
C173	C	0.757047	-0.656933	0.000142
C174	C	1.007047	-0.406933	0.250142
C175	C	1.257047	-0.156933	0.500142
C176	C	1.507047	0.093067	0.750142
C177	C	0.758123	-0.584110	0.000133
C178	C	1.008123	-0.334110	0.250133
C179	C	1.258123	-0.084110	0.500133
C180	C	1.508123	0.165890	0.750133
C181	C	0.822296	-0.556228	0.000128
C182	C	1.072296	-0.306228	0.250128
C183	C	1.322296	-0.056228	0.500128
C184	C	1.572296	0.193772	0.750128
C185	C	0.952163	0.087460	0.000138
C186	C	1.202163	0.337460	0.250138
C187	C	1.452163	0.587460	0.500138
C188	C	1.702163	0.837460	0.750138
C189	C	1.029668	0.088594	0.000153
C190	C	1.279668	0.338594	0.250153
C191	C	1.529668	0.588594	0.500153
C192	C	1.779668	0.838594	0.750153
C193	C	0.819007	0.220626	0.000139
C194	C	1.069007	0.470626	0.250139
C195	C	1.319007	0.720626	0.500139
C196	C	1.569007	0.970626	0.750139
C197	C	0.820148	0.298131	0.000150
C198	C	1.070148	0.548131	0.250150
C199	C	1.320148	0.798131	0.500150
C200	C	1.570148	1.048131	0.750150
N201	N	0.824479	0.092964	-0.179042
N202	N	1.074479	0.342964	0.070958
N203	N	1.324479	0.592964	0.320958
N204	N	1.574479	0.842964	0.570958
C205	C	0.866730	0.135181	-0.781080
C206	C	1.116730	0.385181	-0.531080
C207	C	1.366730	0.635181	-0.281080
C208	C	1.616730	0.885181	-0.031080
C209	C	0.866723	0.135188	-0.701832
C210	C	1.116723	0.385188	-0.451832
C211	C	1.366723	0.635188	-0.201832
C212	C	1.616723	0.885188	0.048168
C213	C	0.824509	0.092950	-0.662224
C214	C	1.074509	0.342950	-0.412224
C215	C	1.324509	0.592950	-0.162224
C216	C	1.574509	0.842950	0.087776
C217	C	0.782286	0.050715	-0.701869
C218	C	1.032286	0.300715	-0.451869
C219	C	1.282286	0.550715	-0.201869
C220	C	1.532286	0.800715	0.048131
C221	C	0.782289	0.050715	-0.781116
C222	C	1.032289	0.300715	-0.531116
C223	C	1.282289	0.550715	-0.281116
C224	C	1.532289	0.800715	-0.031116
N225	N	0.822819	0.031789	-0.537808
N226	N	1.072819	0.281789	-0.287808
N227	N	1.322819	0.531789	-0.037808
N228	N	1.572819	0.781789	0.212192
N229	N	0.822820	0.031792	-0.462528
N230	N	1.072820	0.281792	-0.212528
N231	N	1.322820	0.531792	0.037472
N232	N	1.572820	0.781792	0.287472
C233	C	0.824497	0.092950	-0.423460
C234	C	1.074497	0.342950	-0.173460
C235	C	1.324497	0.592950	0.076540
C236	C	1.574497	0.842950	0.326540
N237	N	0.826186	0.154106	-0.462516
N238	N	1.076186	0.404106	-0.212516
N239	N	1.326186	0.654106	0.037484
N240	N	1.576186	0.904106	0.287484
N241	N	0.826189	0.154103	-0.537804
N242	N	1.076189	0.404103	-0.287804
N243	N	1.326189	0.654103	-0.037804
N244	N	1.576189	0.904103	0.212196
C245	C	0.824501	0.092946	-0.576295
C246	C	1.074501	0.342946	-0.326295
C247	C	1.324501	0.592946	-0.076295
C248	C	1.574501	0.842946	0.173705
C249	C	0.866706	0.135193	-0.297895
C250	C	1.116706	0.385193	-0.047895
C251	C	1.366706	0.635193	0.202105
C252	C	1.616706	0.885193	0.452105
C253	C	0.866694	0.135201	-0.218646
C254	C	1.116694	0.385201	0.031354
C255	C	1.366694	0.635201	0.281354
C256	C	1.616694	0.885201	0.531354
C257	C	0.782261	0.050722	-0.218684
C258	C	1.032261	0.300722	0.031316
C259	C	1.282261	0.550722	0.281316
C260	C	1.532261	0.800722	0.531316
C261	C	0.782269	0.050720	-0.297932
C262	C	1.032269	0.300720	-0.047932
C263	C	1.282269	0.550720	0.202068
C264	C	1.532269	0.800720	0.452068
C265	C	0.824495	0.092954	-0.337532
C266	C	1.074495	0.342954	-0.087532
C267	C	1.324495	0.592954	0.162468
C268	C	1.574495	0.842954	0.412468
N269	N	0.824515	0.092949	0.179284
N270	N	1.074515	0.342949	0.429284
N271	N	1.324515	0.592949	0.679284
N272	N	1.574515	0.842949	0.929284
H273	H	0.612593	0.097209	0.124607
H274	H	0.862593	0.347209	0.374607
H275	H	1.112593	0.597209	0.624607
H276	H	1.362593	0.847209	0.874607
H277	H	0.706747	-0.547527	0.000125
H278	H	0.956747	-0.297527	0.250125
H279	H	1.206747	-0.047527	0.500125
H280	H	1.456747	0.202473	0.750125
H281	H	0.935694	-0.710565	0.000164
H282	H	1.185694	-0.460565	0.250164
H283	H	1.435694	-0.210565	0.500164
H284	H	1.685694	0.039435	0.750164
Br285	Br	0.924010	0.192510	-0.351643
Br286	Br	1.174010	0.442510	-0.101643
Br287	Br	1.424010	0.692510	0.148357
Br288	Br	1.674010	0.942510	0.398357
Br289	Br	0.188367	0.090926	0.161908
Br290	Br	0.438367	0.340926	0.411908
Br291	Br	0.688367	0.590926	0.661908
Br292	Br	0.938367	0.840926	0.911908
Br293	Br	0.460624	0.094989	-0.161660
Br294	Br	0.710624	0.344989	0.088340
Br295	Br	0.960624	0.594989	0.338340
Br296	Br	1.210624	0.844989	0.588340
Br297	Br	0.016717	0.088401	0.161924
Br298	Br	0.266717	0.338401	0.411924
Br299	Br	0.516717	0.588401	0.661924
Br300	Br	0.766717	0.838401	0.911924
H301	H	0.704801	-0.679641	0.000140
H302	H	0.954801	-0.429641	0.250140
H303	H	1.204801	-0.179641	0.500140
H304	H	1.454801	0.070359	0.750140
H305	H	0.901069	0.169596	-0.186375
H306	H	1.151069	0.419596	0.063625
H307	H	1.401069	0.669596	0.313625
H308	H	1.651069	0.919596	0.563625
Br309	Br	0.676510	-0.250767	0.000107
Br310	Br	0.926510	-0.000767	0.250107
Br311	Br	1.176510	0.249233	0.500107
Br312	Br	1.426510	0.499233	0.750107
Br313	Br	0.632274	0.097538	-0.161681
Br314	Br	0.882274	0.347538	0.088319
Br315	Br	1.132274	0.597538	0.338319
Br316	Br	1.382274	0.847538	0.588319
Br317	Br	0.188263	0.090952	-0.161634
Br318	Br	0.438263	0.340952	0.088366
Br319	Br	0.688263	0.590952	0.338366
Br320	Br	0.938263	0.840952	0.588366
Br321	Br	0.924032	0.192502	-0.834820
Br322	Br	1.174032	0.442502	-0.584820
Br323	Br	1.424032	0.692502	-0.334820
Br324	Br	1.674032	0.942502	-0.084820
Br325	Br	0.460723	0.094964	0.161877
Br326	Br	0.710723	0.344964	0.411877
Br327	Br	0.960723	0.594964	0.661877
Br328	Br	1.210723	0.844964	0.911877
H329	H	0.944187	-0.134445	0.000101
H330	H	1.194187	0.115555	0.250101
H331	H	1.444187	0.365555	0.500101
H332	H	1.694187	0.615555	0.750101
H333	H	0.747914	0.016326	-0.669615
H334	H	0.997914	0.266326	-0.419615
H335	H	1.247914	0.516326	-0.169615
H336	H	1.497914	0.766326	0.080385
Br337	Br	0.924029	0.192495	-0.648029
Br338	Br	1.174029	0.442495	-0.398029
Br339	Br	1.424029	0.692495	-0.148029
Br340	Br	1.674029	0.942495	0.101971
Br341	Br	0.016617	0.088413	-0.161619
Br342	Br	0.266617	0.338413	0.088381
Br343	Br	0.516617	0.588413	0.338381
Br344	Br	0.766617	0.838413	0.588381
H345	H	0.942239	-0.266555	0.000120
H346	H	1.192239	-0.016555	0.250120
H347	H	1.442239	0.233445	0.500120
H348	H	1.692239	0.483445	0.750120
H349	H	0.713289	-0.103513	0.000099
H350	H	0.963289	0.146487	0.250099
H351	H	1.213289	0.396487	0.500099
H352	H	1.463289	0.646487	0.750099
H353	H	0.747897	0.016327	-0.330204
H354	H	0.997897	0.266327	-0.080204
H355	H	1.247897	0.516327	0.169796
H356	H	1.497897	0.766327	0.419796
H357	H	0.747886	0.016336	-0.186436
H358	H	0.997886	0.266336	0.063564
H359	H	1.247886	0.516336	0.313564
H360	H	1.497886	0.766336	0.563564
Br361	Br	0.972480	-0.563314	0.000126
Br362	Br	1.222480	-0.313314	0.250126
Br363	Br	1.472480	-0.063314	0.500126
Br364	Br	1.722480	0.186686	0.750126
Br365	Br	0.724992	-0.006603	-0.834911
Br366	Br	0.974992	0.243397	-0.584911
Br367	Br	1.224992	0.493397	-0.334911
Br368	Br	1.474992	0.743397	-0.084911
