data_functionalizedCrystal
_audit_creation_method	'MofGen! by Chris Wilmer'
_symmetry_space_group_name_H-M	'P1'
_symmetry_Int_Tables_number	1
_symmetry_cell_setting	triclinic
loop_
_symmetry_equiv_pos_as_xyz
  x,y,z
_cell_length_a	14.971486
_cell_length_b	15.538191
_cell_length_c	14.048226
_cell_angle_alpha	89.996115
_cell_angle_beta	89.998499
_cell_angle_gamma	65.443111
loop_
_atom_site_label
_atom_site_type_symbol
_atom_site_fract_x
_atom_site_fract_y
_atom_site_fract_z
O1	O	1.146981	0.122716	-0.079045
O2	O	0.881795	0.137412	-0.079071
O3	O	1.066008	-0.007007	-0.079057
O4	O	0.962767	0.267135	-0.079058
O5	O	1.065995	-0.007016	0.079264
O6	O	0.881781	0.137403	0.079251
O7	O	1.146967	0.122708	0.079276
Zn8	Zn	1.014372	0.130054	0.104400
Zn9	Zn	1.014390	0.130065	-0.104195
O10	O	0.962753	0.267127	0.079263
C11	C	0.848677	0.136750	0.000087
C12	C	0.750021	0.134781	0.000077
C13	C	0.665165	0.219623	0.000078
C14	C	0.572470	0.217767	0.000092
C15	C	0.564634	0.131067	0.000099
C16	C	0.649500	0.046219	0.000100
C17	C	0.742193	0.048076	0.000093
C18	C	0.456296	0.042354	0.000113
C19	C	0.363597	0.040496	0.000119
C20	C	0.286573	0.212045	0.000113
C21	C	0.379266	0.213902	0.000105
C22	C	0.464126	0.129053	0.000105
C23	C	1.076803	-0.042095	0.000101
C24	C	1.108978	-0.146632	0.000095
C25	C	0.789329	-0.434783	0.000085
C26	C	0.819585	-0.533015	0.000090
C27	C	0.989766	-0.555266	0.000105
C28	C	0.959525	-0.457034	0.000096
C29	C	0.859305	-0.396800	0.000086
C30	C	1.029501	-0.419051	0.000098
C31	C	0.999261	-0.320828	0.000093
C32	C	0.899046	-0.260588	0.000086
C33	C	0.829066	-0.298577	0.000082
C34	C	1.129720	-0.479287	0.000114
C35	C	1.199696	-0.441304	0.000115
C36	C	1.169457	-0.343079	0.000104
C37	C	1.069242	-0.282839	0.000097
C38	C	1.239438	-0.305090	0.000109
C39	C	1.209198	-0.206867	0.000104
C40	C	1.039002	-0.184615	0.000093
C41	C	1.180085	0.123369	0.000117
C42	C	1.278740	0.125339	0.000120
C43	C	0.951958	0.302214	0.000102
C44	C	0.919784	0.406752	0.000103
N45	N	1.014366	0.130046	0.246761
N46	N	1.014405	0.130066	-0.246555
C47	C	1.095947	0.066124	0.296585
C48	C	1.095953	0.066123	0.396243
C49	C	1.014381	0.130050	0.446075
C50	C	0.932793	0.193975	0.396244
C51	C	0.932785	0.193971	0.296588
C52	C	0.932816	0.193982	0.603958
C53	C	0.932825	0.193988	0.703621
C54	C	1.095984	0.066135	0.703613
C55	C	1.095976	0.066130	0.603957
C56	C	1.014389	0.130057	0.554133
H57	H	0.643113	-0.024374	0.000119
C58	C	0.193235	0.305380	0.000118
H59	H	0.211178	0.357280	0.000101
H60	H	0.155477	0.308224	0.055332
H61	H	0.155472	0.308221	-0.055095
C62	C	0.718826	-0.232309	0.000065
H63	H	0.710843	-0.168372	0.000057
H64	H	0.688805	-0.243832	0.055270
H65	H	0.688826	-0.243832	-0.055158
C66	C	0.742608	-0.574797	0.000088
H67	H	0.774968	-0.641923	0.000100
H68	H	0.702688	-0.554129	-0.055123
H69	H	0.702689	-0.554128	0.055304
H70	H	0.957393	-0.135569	0.000078
C71	C	1.349671	-0.371353	0.000123
H72	H	1.357658	-0.435291	0.000123
H73	H	1.379676	-0.359824	0.055333
H74	H	1.379685	-0.359832	-0.055094
C75	C	1.185703	-0.004189	0.549143
H76	H	1.234291	-0.042267	0.593087
H77	H	1.211908	0.029749	0.510255
H78	H	1.166263	-0.043447	0.510280
C79	C	1.185679	-0.004188	0.241774
H80	H	1.173998	0.004969	0.175286
H81	H	1.196388	-0.067055	0.258112
H82	H	1.242014	0.006156	0.258101
C83	C	0.865775	-0.152543	0.000082
H84	H	0.796067	-0.122112	0.000083
H85	H	0.890365	-0.134427	-0.055125
H86	H	0.890354	-0.134432	0.055302
C87	C	1.286168	-0.165081	0.000105
H88	H	1.350186	-0.215022	0.000102
H89	H	1.277903	-0.127227	0.055314
H90	H	1.277911	-0.127226	-0.055114
H91	H	0.503380	0.286854	0.000092
H92	H	0.525390	-0.026740	0.000115
H93	H	0.385640	0.284500	0.000091
H94	H	0.357223	-0.030102	0.000126
H95	H	0.811286	-0.021012	0.000092
C96	C	1.185724	-0.004191	0.758414
H97	H	1.174044	0.004957	0.824903
H98	H	1.242062	0.006139	0.742076
H99	H	1.196417	-0.067058	0.742086
C100	C	1.100001	-0.621527	0.000111
H101	H	1.107990	-0.685466	0.000107
H102	H	1.130011	-0.610002	0.055319
H103	H	1.130007	-0.610000	-0.055109
H104	H	0.707720	-0.385736	0.000070
H105	H	1.154338	-0.559266	0.000109
H106	H	0.866377	0.246035	0.563395
C107	C	0.843045	0.264267	0.451052
H108	H	0.794449	0.302323	0.407103
H109	H	0.862443	0.303537	0.489933
H110	H	0.816857	0.230295	0.489921
H111	H	1.281296	-0.490360	0.000127
H112	H	0.866400	0.246043	0.744189
H113	H	1.162381	0.014072	0.436809
C114	C	0.843050	0.264285	0.241777
H115	H	0.854724	0.255121	0.175289
H116	H	0.832348	0.327151	0.258098
H117	H	0.786714	0.253947	0.258120
C118	C	0.673776	0.314994	0.000071
H119	H	0.609959	0.365256	0.000082
H120	H	0.708330	0.319289	-0.055142
H121	H	0.708337	0.319280	0.055285
