data_functionalizedCrystal
_audit_creation_method	'MofGen! by Chris Wilmer'
_symmetry_space_group_name_H-M	'P1'
_symmetry_Int_Tables_number	1
_symmetry_cell_setting	triclinic
loop_
_symmetry_equiv_pos_as_xyz
  x,y,z
_cell_length_a	12.759401
_cell_length_b	19.121063
_cell_length_c	12.759393
_cell_angle_alpha	92.405086
_cell_angle_beta	89.980186
_cell_angle_gamma	92.470439
loop_
_atom_site_label
_atom_site_type_symbol
_atom_site_fract_x
_atom_site_fract_y
_atom_site_fract_z
Zn1	Zn	1.588321	-0.279558	-0.611809
Zn2	Zn	1.580680	-0.397023	-0.443604
Zn3	Zn	1.412621	-0.279594	-0.436147
Zn4	Zn	1.405080	-0.396976	-0.619238
O5	O	1.496676	-0.338288	-0.527699
O6	O	1.734328	-0.295145	-0.589508
O7	O	1.558346	-0.381480	-0.295596
O8	O	1.442282	-0.181305	-0.453219
O9	O	1.728715	-0.381446	-0.465928
O10	O	1.571368	-0.181279	-0.582277
O11	O	1.434873	-0.295205	-0.290117
O12	O	1.264600	-0.295160	-0.460422
O13	O	1.429428	-0.381366	-0.765272
O14	O	1.259059	-0.381400	-0.594939
O15	O	1.564055	-0.295100	-0.759814
O16	O	1.551033	-0.495301	-0.473132
O17	O	1.422020	-0.495267	-0.602170
C18	C	1.223709	-0.338279	-0.527678
C19	C	1.106931	-0.338293	-0.527695
C20	C	1.049207	-0.383266	-0.597636
C21	C	0.939483	-0.383269	-0.597657
C22	C	0.945217	-0.293322	-0.457786
C23	C	1.054939	-0.293316	-0.457771
C24	C	0.787968	-0.408472	-0.723121
C25	C	0.730240	-0.453457	-0.793054
C26	C	0.761440	-0.522000	-0.813364
C27	C	0.850366	-0.545572	-0.763726
C28	C	0.908089	-0.500591	-0.693785
C29	C	0.876890	-0.432038	-0.673495
C30	C	1.206456	-0.268120	-0.332306
C31	C	1.264180	-0.223142	-0.262360
C32	C	1.232982	-0.154599	-0.242039
C33	C	1.144052	-0.131029	-0.291659
C34	C	1.086328	-0.176007	-0.361605
C35	C	1.117533	-0.244550	-0.381927
C36	C	1.484907	-0.520768	-0.539289
C37	C	1.479969	-0.598834	-0.544282
C38	C	1.544871	-0.635504	-0.479501
C39	C	1.540233	-0.708855	-0.484203
C40	C	1.470686	-0.745535	-0.553682
C41	C	1.405781	-0.708860	-0.618471
C42	C	1.410425	-0.635510	-0.613773
C43	C	1.453305	-0.967004	-0.571230
C44	C	1.448663	-1.040359	-0.575921
C45	C	1.583117	-1.040350	-0.441653
C46	C	1.587751	-0.966998	-0.436957
C47	C	1.522849	-0.930329	-0.501750
C48	C	1.465941	-0.820512	-0.558488
C49	C	1.527601	-0.855354	-0.496949
C50	C	1.770708	-0.338297	-0.527722
C51	C	1.887485	-0.338301	-0.527731
C52	C	1.496753	-0.338224	-0.801729
C53	C	1.496786	-0.338197	-0.918504
C54	C	1.508519	-0.155095	-0.516087
C55	C	1.513565	-0.077029	-0.511139
C56	C	1.561083	-0.383100	-0.976221
C57	C	1.561116	-0.383065	-1.085943
C58	C	1.432546	-0.293222	-1.080221
C59	C	1.432519	-0.293254	-0.970500
C60	C	1.683434	-0.408122	-1.237500
C61	C	1.747721	-0.453036	-1.295222
C62	C	1.759411	-0.521579	-1.263966
C63	C	1.706797	-0.545221	-1.174991
C64	C	1.642502	-0.500310	-1.117275
C65	C	1.630833	-0.431758	-1.148529
C66	C	1.310199	-0.268204	-0.818942
C67	C	1.245898	-0.223297	-0.761224
C68	C	1.234198	-0.154753	-0.792478
C69	C	1.286793	-0.131113	-0.881456
C70	C	1.351094	-0.176021	-0.939174
C71	C	1.362796	-0.244564	-0.907913
C72	C	1.496662	-0.338301	-0.254733
C73	C	1.496846	-0.338130	-0.137946
H74	H	1.013922	-0.156809	-0.402015
C75	C	1.240783	-0.343523	-0.354657
N76	N	1.266639	-0.400317	-0.371486
H77	H	1.336591	-0.242339	-0.221956
C78	C	1.654506	-1.080691	-0.370390
N79	N	1.708282	-1.111077	-0.316713
C80	C	1.670588	-0.332719	-1.271885
N81	N	1.660910	-0.275926	-1.297791
H82	H	1.392042	-1.070222	-0.632517
H83	H	1.393933	-0.156764	-1.011615
C84	C	1.805604	-0.427025	-1.393085
N85	N	1.849201	-0.407436	-1.466795
H86	H	1.400458	-0.937154	-0.623985
C87	C	1.296463	-0.105131	-0.165065
N88	N	1.344268	-0.067874	-0.107083
C89	C	1.604098	-0.815004	-0.420522
N90	N	1.661712	-0.784606	-0.362952
H91	H	0.902871	-0.256705	-0.400855
C92	C	1.273925	-0.055711	-0.915838
N93	N	1.264228	0.001083	-0.941731
H94	H	1.811748	-0.558150	-1.310976
H95	H	1.349159	-0.738730	-0.675047
C96	C	1.339028	-0.595173	-0.685039
N97	N	1.285252	-0.564792	-0.738721
H98	H	1.118637	-0.075219	-0.275097
H99	H	1.409314	-0.850384	-0.615057
H100	H	1.601499	-0.605644	-0.422919
H101	H	1.613423	-0.419689	-0.933889
C102	C	1.584637	-0.526310	-1.019402
N103	N	1.541061	-0.545894	-0.945677
C104	C	1.719663	-0.620623	-1.140614
N105	N	1.729362	-0.677416	-1.114714
H106	H	1.380221	-0.256632	-1.122570
C107	C	0.753646	-0.333068	-0.700796
N108	N	0.727789	-0.276274	-0.683979
C109	C	1.163503	-0.105344	-0.728952
N110	N	1.110278	-0.068124	-0.681093
H111	H	1.203062	-0.242552	-0.688780
C112	C	0.884672	-0.620978	-0.786061
N113	N	0.910515	-0.677775	-0.802887
C114	C	1.664230	-0.926656	-0.360498
N115	N	1.721824	-0.896270	-0.302895
H116	H	1.091536	-0.419887	-0.654575
C117	C	1.005905	-0.526515	-0.639189
N118	N	1.079587	-0.546041	-0.598074
C119	C	1.323065	-0.343607	-0.784555
N120	N	1.332749	-0.400401	-0.758655
C121	C	0.697936	-0.571481	-0.890294
N122	N	0.650104	-0.608746	-0.948243
H123	H	1.593083	-0.738709	-0.431450
H124	H	0.657837	-0.434258	-0.833470
