data_functionalizedCrystal
_audit_creation_method	'MofGen! by Chris Wilmer'
_symmetry_space_group_name_H-M	'P1'
_symmetry_Int_Tables_number	1
_symmetry_cell_setting	triclinic
loop_
_symmetry_equiv_pos_as_xyz
  x,y,z
_cell_length_a	16.625546
_cell_length_b	17.640112
_cell_length_c	17.640618
_cell_angle_alpha	87.865353
_cell_angle_beta	78.766403
_cell_angle_gamma	78.752230
loop_
_atom_site_label
_atom_site_type_symbol
_atom_site_fract_x
_atom_site_fract_y
_atom_site_fract_z
Zn1	Zn	-0.023164	-1.247794	-0.195083
Zn2	Zn	-0.189520	-1.222013	-0.068092
Zn3	Zn	-0.075616	-1.095118	-0.093725
Zn4	Zn	-0.178904	-1.120767	-0.220678
O5	O	-0.116801	-1.171423	-0.144395
O6	O	-0.027723	-1.350642	-0.156799
O7	O	-0.200805	-1.183657	0.034783
O8	O	0.044189	-1.115426	-0.107187
O9	O	-0.149944	-1.331701	-0.063499
O10	O	0.082726	-1.227596	-0.181654
O11	O	-0.117120	-1.090427	0.015951
O12	O	-0.106825	-0.992252	-0.132005
O13	O	-0.131850	-1.159141	-0.323559
O14	O	-0.182710	-1.011097	-0.225276
O15	O	-0.017429	-1.252467	-0.304754
O16	O	-0.300959	-1.208528	-0.088317
O17	O	-0.293159	-1.134142	-0.200421
C18	C	-0.149308	-0.974121	-0.184200
C19	C	-0.163230	-0.889717	-0.201247
C20	C	-0.326311	-1.171345	-0.144377
C21	C	-0.415923	-1.171386	-0.144381
C22	C	-0.067604	-1.211541	-0.342483
C23	C	-0.046639	-1.228636	-0.426897
C24	C	-0.744057	-1.171534	-0.144434
C25	C	-0.652760	-1.171491	-0.144422
C26	C	-0.579993	-1.171459	-0.144407
C27	C	-0.488690	-1.171417	-0.144396
C28	C	0.093536	-1.171526	-0.144424
C29	C	0.183168	-1.171569	-0.144437
C30	C	-0.084167	-1.369496	-0.104435
C31	C	-0.070260	-1.453903	-0.087406
C32	C	-0.011024	-0.563040	-0.014898
C33	C	-0.024119	-0.483733	-0.030926
C34	C	-0.103322	-0.503376	-0.127882
C35	C	-0.090229	-0.582687	-0.111865
C36	C	-0.044081	-0.612512	-0.055371
C37	C	-0.123286	-0.632159	-0.152338
C38	C	-0.110199	-0.711463	-0.136319
C39	C	-0.064054	-0.741295	-0.079826
C40	C	-0.030993	-0.691816	-0.039352
C41	C	-0.169440	-0.602331	-0.208828
C42	C	-0.202497	-0.651804	-0.249301
C43	C	-0.189405	-0.731110	-0.233285
C44	C	-0.143260	-0.760941	-0.176793
C45	C	-0.222466	-0.780588	-0.273760
C46	C	-0.209379	-0.859892	-0.257740
C47	C	-0.130173	-0.840245	-0.160773
C48	C	0.042478	-1.301317	-0.536086
C49	C	0.022771	-1.285247	-0.456768
C50	C	-0.096368	-1.188069	-0.476340
C51	C	-0.076669	-1.204128	-0.555662
C52	C	-0.007246	-1.260753	-0.585528
C53	C	-0.126393	-1.163564	-0.605105
C54	C	-0.106697	-1.179625	-0.684419
C55	C	-0.037279	-1.236249	-0.714292
C56	C	0.012449	-1.276814	-0.664843
C57	C	-0.195819	-1.106943	-0.575236
C58	C	-0.245543	-1.066379	-0.624679
C59	C	-0.225844	-1.082435	-0.703996
C60	C	-0.156426	-1.139060	-0.733868
C61	C	-0.275572	-1.041871	-0.753444
C62	C	-0.255877	-1.057931	-0.832759
C63	C	-0.136730	-1.155120	-0.813183
C64	C	-0.165741	-1.131505	0.052932
C65	C	-0.186454	-1.114556	0.137375
H66	H	-0.092579	-0.864533	-0.114782
H67	H	-0.211856	-1.093872	-0.510652
H68	H	-0.236296	-0.900174	-0.290699
H69	H	-0.332101	-0.995772	-0.729114
H70	H	-0.302069	-1.020277	-0.600350
H71	H	-0.180095	-0.537756	-0.221868
O72	O	0.071184	-1.324578	-0.408784
C73	C	0.153644	-1.311970	-0.431530
H74	H	0.153144	-1.255722	-0.465574
H75	H	0.181603	-1.307970	-0.378053
H76	H	0.192863	-1.362021	-0.469355
H77	H	0.068989	-1.322915	-0.689163
O78	O	0.109993	-1.356220	-0.565163
C79	C	0.166333	-1.322303	-0.619790
H80	H	0.155528	-1.257657	-0.607949
H81	H	0.233144	-1.349985	-0.615169
H82	H	0.155885	-1.331842	-0.680422
H83	H	-0.296367	-1.024900	-0.873017
H84	H	-0.240074	-0.627508	-0.295296
H85	H	-0.080191	-1.201221	-0.837503
O86	O	-0.051489	-0.818328	-0.064254
C87	C	-0.129240	-0.840826	-0.039250
H88	H	-0.180044	-0.797738	-0.061385
H89	H	-0.126368	-0.900824	-0.062755
H90	H	-0.144179	-0.842110	0.026607
H91	H	-0.140899	-0.479080	-0.173877
H92	H	0.006601	-0.716104	0.006640
O93	O	0.033685	-0.591967	0.040083
C94	C	-0.005808	-0.557220	0.111884
H95	H	-0.074792	-0.534600	0.111417
H96	H	0.000479	-0.601773	0.159923
H97	H	0.024952	-0.507191	0.122371
O98	O	0.007867	-0.435620	0.008451
C99	C	-0.057722	-0.379756	0.048292
H100	H	-0.118472	-0.402668	0.057933
H101	H	-0.043104	-0.367008	0.106496
H102	H	-0.064627	-0.324421	0.012664
O103	O	-0.267165	-0.751589	-0.328721
C104	C	-0.216713	-0.715662	-0.387097
H105	H	-0.148078	-0.740544	-0.387067
H106	H	-0.231615	-0.726590	-0.445675
H107	H	-0.229648	-0.650800	-0.375753
H108	H	-0.152895	-1.141967	-0.452012
O109	O	-0.018290	-1.251857	-0.791337
C110	C	-0.085775	-1.276704	-0.813888
H111	H	-0.145714	-1.254448	-0.770794
H112	H	-0.092570	-1.253191	-0.873859
H113	H	-0.073610	-1.342563	-0.815247
