data_functionalizedCrystal
_audit_creation_method	'MofGen! by Chris Wilmer'
_symmetry_space_group_name_H-M	'P1'
_symmetry_Int_Tables_number	1
_symmetry_cell_setting	triclinic
loop_
_symmetry_equiv_pos_as_xyz
  x,y,z
_cell_length_a	23.096457
_cell_length_b	20.919309
_cell_length_c	20.919327
_cell_angle_alpha	55.760361
_cell_angle_beta	86.844369
_cell_angle_gamma	62.591463
loop_
_atom_site_label
_atom_site_type_symbol
_atom_site_fract_x
_atom_site_fract_y
_atom_site_fract_z
Zr1	Zr	0.588017	0.700773	-0.111345
O2	O	0.505631	0.834332	-0.218770
O3	O	0.609828	0.567212	-0.074804
O4	O	0.621453	0.700772	-0.213571
O5	O	0.488756	0.700774	0.025352
O6	O	0.716734	0.700774	-0.213575
O7	O	0.494007	0.700772	-0.080004
O8	O	0.695939	0.461859	0.034653
O9	O	0.509550	0.939689	-0.222876
O10	O	0.694399	0.622150	-0.063583
O11	O	0.619374	0.622150	0.015046
O12	O	0.633060	0.779400	-0.148334
O13	O	0.558034	0.779400	-0.069705
Zr14	Zr	0.731604	0.700779	0.056680
Zr15	Zr	0.739979	0.700776	-0.111351
Zr16	Zr	0.579643	0.700776	0.056686
Zr17	Zr	0.594267	0.868805	-0.117893
Zr18	Zr	0.725355	0.532748	0.063227
O19	O	0.709793	0.834340	0.020139
O20	O	0.721701	0.834336	-0.218779
O21	O	0.493723	0.834336	0.020148
O22	O	0.813990	0.567220	0.164105
O23	O	0.825898	0.567216	-0.074813
O24	O	0.597921	0.567216	0.164114
O25	O	0.830866	0.700778	-0.080018
O26	O	0.698169	0.700780	0.158906
O27	O	0.602888	0.700778	0.158910
O28	O	0.825615	0.700780	0.025339
O29	O	0.630339	0.939691	-0.222881
O30	O	0.689283	0.461861	0.168216
O31	O	0.810072	0.461864	0.168211
O32	O	0.816729	0.461861	0.034648
O33	O	0.502893	0.939691	-0.089314
O34	O	0.623682	0.939693	-0.089319
O35	O	0.686562	0.622153	0.093669
O36	O	0.761587	0.622153	0.015040
O37	O	0.700248	0.779402	-0.069711
O38	O	0.625222	0.779402	0.008918
C39	C	0.651993	0.490595	-0.019143
C40	C	0.649340	0.419261	-0.016363
C41	C	0.687255	0.385748	-0.056101
C42	C	0.684763	0.318718	-0.053481
C43	C	0.644353	0.285206	-0.011128
C44	C	0.606437	0.318722	0.028614
C45	C	0.608933	0.385746	0.025999
C46	C	0.634862	0.082831	-0.001175
C47	C	0.632367	0.015804	0.001435
C48	C	0.710694	0.015804	-0.080659
C49	C	0.713183	0.082833	-0.083275
C50	C	0.675270	0.116340	-0.043528
C51	C	0.641804	0.216692	-0.008452
C52	C	0.677824	0.184848	-0.046200
C53	C	0.469730	0.700773	-0.027325
C54	C	0.405218	0.700771	-0.027322
C55	C	0.406932	0.618691	0.016909
C56	C	0.346316	0.618690	0.016913
C57	C	0.283988	0.700774	-0.027331
C58	C	0.282278	0.782865	-0.071564
C59	C	0.342893	0.782864	-0.071560
N60	N	0.166794	0.761872	-0.096510
N61	N	0.109215	0.761868	-0.096513
C62	C	0.101357	0.700782	-0.027345
N63	N	0.153259	0.639687	0.041825
N64	N	0.210845	0.639689	0.041826
C65	C	0.218258	0.700784	-0.027340
C66	C	0.037345	0.618694	0.016894
C67	C	-0.023273	0.618696	0.016900
C68	C	-0.087310	0.782874	-0.071585
C69	C	-0.026692	0.782869	-0.071583
C70	C	0.035633	0.700777	-0.027345
C71	C	0.849892	0.700780	-0.027340
C72	C	0.914403	0.700781	-0.027343
C73	C	0.670286	0.700773	-0.237514
C74	C	0.673842	0.700771	-0.308847
C75	C	0.667628	0.910958	-0.035523
C76	C	0.670281	0.982291	-0.038302
C77	C	0.623023	0.700769	-0.342360
C78	C	0.626366	0.700776	-0.409389
C79	C	0.680530	0.700779	-0.442902
C80	C	0.731351	0.700784	-0.409386
C81	C	0.728006	0.700783	-0.342361
C82	C	0.693256	0.700786	-0.645277
C83	C	0.696598	0.700783	-0.712305
C84	C	0.591612	0.700777	-0.712305
C85	C	0.588273	0.700771	-0.645276
C86	C	0.639093	0.700781	-0.611769
C87	C	0.683949	0.700783	-0.511415
C88	C	0.635670	0.700784	-0.543260
C89	C	0.649335	0.700780	0.182848
C90	C	0.645780	0.700781	0.254182
C91	C	0.842074	0.490598	-0.019150
C92	C	0.903933	0.419266	-0.016373
C93	C	0.641518	0.490598	0.191038
C94	C	0.635309	0.419266	0.265152
C95	C	0.831599	0.490602	0.191031
C96	C	0.889902	0.419271	0.265141
C97	C	0.488023	0.910951	-0.245696
C98	C	0.429720	0.982282	-0.319806
C99	C	0.477547	0.910954	-0.035515
C100	C	0.415689	0.982287	-0.038292
C101	C	0.678104	0.910954	-0.245704
C102	C	0.684312	0.982287	-0.319817
C103	C	0.897911	0.385766	-0.056117
C104	C	0.956029	0.318751	-0.053524
C105	C	1.020168	0.285232	-0.011182
C106	C	1.026188	0.318739	0.028563
C107	C	0.968071	0.385757	0.025964
C108	C	0.667465	0.385769	0.341004
C109	C	0.661629	0.318754	0.410647
C110	C	0.623641	0.285232	0.404437
C111	C	0.591481	0.318736	0.328577
C112	C	0.597314	0.385754	0.258935
C113	C	0.956451	0.385773	0.258901
C114	C	1.011239	0.318759	0.328529
C115	C	0.999477	0.285239	0.404396
C116	C	0.932922	0.318744	0.410635
C117	C	0.878135	0.385761	0.341008
C118	C	0.363171	1.015788	-0.313566
C119	C	0.308384	1.082823	-0.383195
C120	C	0.320146	1.116346	-0.459063
C121	C	0.386701	1.082837	-0.465301
C122	C	0.441488	1.015808	-0.395674
C123	C	0.421711	1.015793	0.001444
C124	C	0.363595	1.082827	-0.001168
C125	C	0.299456	1.116348	-0.043512
C126	C	0.293436	1.082838	-0.083254
C127	C	0.351552	1.015811	-0.080645
C128	C	0.722306	1.015787	-0.313581
C129	C	0.728152	1.082802	-0.383211
C130	C	0.696001	1.116321	-0.459077
C131	C	0.658007	1.082814	-0.465311
C132	C	0.652164	1.015795	-0.395682
H133	H	0.720157	0.413033	-0.090593
H134	H	0.775451	0.700792	-0.436679
H135	H	0.254196	1.110094	-0.378100
H136	H	0.368510	1.110099	0.031197
O137	O	0.348160	0.530153	0.064616
H138	H	0.295539	0.543948	0.057182
O139	O	0.702301	1.188616	-0.534172
H140	H	0.726340	1.162900	-0.568567
H141	H	0.823949	0.413026	0.346100
H142	H	0.353581	0.988497	-0.251797
H143	H	0.687820	0.291483	0.472408
H144	H	1.067485	0.230661	-0.009072
O145	O	0.708436	0.421921	0.347711
H146	H	0.729805	0.387368	0.412161
H147	H	0.346639	0.988531	-0.113001
O148	O	0.920247	0.282572	0.492471
H149	H	0.892574	0.338818	0.497119
H150	H	0.396270	1.110140	-0.527081
O151	O	0.490887	0.979659	0.047104
H152	H	0.485301	1.014240	0.074280
O153	O	1.083025	0.282618	0.321809
H154	H	1.089685	0.252063	0.290469
O155	O	0.474150	0.530149	0.064628
H156	H	0.516014	0.543934	0.057197
O157	O	0.623323	1.118979	-0.547141
H158	H	0.633765	1.171217	-0.594504
O159	O	1.058572	0.212943	0.479493
H160	H	1.091542	0.238667	0.478437
H161	H	0.275529	1.170925	-0.515752
H162	H	0.495673	0.988528	-0.400764
H163	H	0.599457	-0.011478	0.035924
H164	H	0.252140	1.170926	-0.045630
H165	H	0.241206	1.110142	-0.117729
O166	O	0.564602	0.700754	-0.306219
H167	H	0.584511	0.639370	-0.242609
H168	H	0.748488	0.988506	-0.251813
O169	O	0.611174	0.979676	-0.402412
H170	H	0.589796	1.014256	-0.466866
O171	O	0.782831	0.700763	-0.306209
H172	H	0.807753	0.639384	-0.242595
H173	H	-0.028090	0.849708	-0.107607
H174	H	0.591568	0.700786	-0.515975
O175	O	0.215055	0.871398	-0.119293
H176	H	0.183734	0.875325	-0.078017
H177	H	-0.021872	0.551854	0.052924
H178	H	0.341493	0.849705	-0.107577
H179	H	0.608902	0.189400	0.026032
H180	H	1.078418	0.291438	0.063036
H181	H	0.088093	0.551850	0.052932
O182	O	0.529847	0.700782	-0.609140
H183	H	0.549750	0.639404	-0.545527
H184	H	-0.138057	0.849708	-0.107610
O185	O	0.571531	0.700835	-0.445571
H186	H	0.533301	0.700845	-0.411014
O187	O	0.562677	0.421890	0.177098
H188	H	0.601332	0.409002	0.145148
H189	H	0.550237	0.700770	-0.739594
O190	O	0.550531	0.282546	0.321897
H191	H	0.508567	0.295388	0.349983
O192	O	0.617365	0.212932	0.479554
H193	H	0.646118	0.195266	0.533339
O194	O	0.725657	0.282568	-0.096339
H195	H	0.690922	0.295418	-0.142191
H196	H	0.759090	1.110076	-0.378119
H197	H	0.746088	0.110118	-0.117762
O198	O	0.974575	0.421870	0.068848
H199	H	0.923392	0.474106	0.059932
H200	H	0.966040	0.413054	0.197132
O201	O	0.755017	0.700797	-0.748459
H202	H	0.803491	0.639431	-0.702517
O203	O	0.751586	-0.020334	-0.123526
H204	H	0.743066	-0.072574	-0.114591
O205	O	0.593964	0.118972	0.041685
H206	H	0.539235	0.149513	0.016768
O207	O	0.562847	0.282585	0.074293
H208	H	0.567474	0.230357	0.069428
O209	O	0.949528	0.282611	-0.096385
H210	H	0.895162	0.317170	-0.126249
O211	O	0.568037	0.421902	0.068853
H212	H	0.539512	0.387347	0.098737
H213	H	0.728052	0.700783	-0.538706
O214	O	0.721403	0.220998	-0.091884
H215	H	0.775179	0.164744	-0.065979
O216	O	0.748071	0.700780	-0.609131
H217	H	0.786300	0.700769	-0.643690
O218	O	0.828737	0.421920	-0.101797
H219	H	0.834326	0.387367	-0.129003
