data_functionalizedCrystal
_audit_creation_method	'MofGen! by Chris Wilmer'
_symmetry_space_group_name_H-M	'P1'
_symmetry_Int_Tables_number	1
_symmetry_cell_setting	triclinic
loop_
_symmetry_equiv_pos_as_xyz
  x,y,z
_cell_length_a	17.699083
_cell_length_b	17.699092
_cell_length_c	16.776229
_cell_angle_alpha	89.995030
_cell_angle_beta	90.006428
_cell_angle_gamma	96.715475
loop_
_atom_site_label
_atom_site_type_symbol
_atom_site_fract_x
_atom_site_fract_y
_atom_site_fract_z
O1	O	-1.004082	0.095710	-0.066272
O2	O	-0.783704	0.108163	-0.066276
O3	O	-0.900116	-0.008253	-0.066272
O4	O	-0.887670	0.212125	-0.066276
O5	O	-0.900100	-0.008260	0.066305
O6	O	-0.783688	0.108156	0.066301
O7	O	-1.004066	0.095703	0.066305
Zn8	Zn	-0.893875	0.101928	0.087352
Zn9	Zn	-0.893895	0.101937	-0.087323
O10	O	-0.887654	0.212118	0.066301
C11	C	-0.755499	0.107713	0.000012
C12	C	-0.671481	0.106375	0.000010
C13	C	-0.632005	0.105740	0.072278
C14	C	-0.553063	0.104471	0.072279
C15	C	-0.513597	0.103841	0.000011
C16	C	-0.553078	0.104473	-0.072263
C17	C	-0.632020	0.105737	-0.072263
C18	C	-0.234716	0.099374	-0.072266
C19	C	-0.155768	0.098112	-0.072260
C20	C	-0.155758	0.098107	0.072276
C21	C	-0.234700	0.099371	0.072277
C22	C	-0.274175	0.100000	0.000003
C23	C	-0.359774	0.101375	0.000004
C24	C	-0.427999	0.102471	0.000010
C25	C	-0.899661	-0.036453	0.000015
C26	C	-0.898320	-0.120471	0.000011
C27	C	-0.897700	-0.159934	-0.072257
C28	C	-0.896435	-0.238877	-0.072258
C29	C	-0.895795	-0.278356	0.000010
C30	C	-0.896413	-0.238887	0.072284
C31	C	-0.897673	-0.159944	0.072284
C32	C	-0.891333	-0.557252	0.072285
C33	C	-0.890075	-0.636200	0.072280
C34	C	-0.890095	-0.636185	-0.072257
C35	C	-0.891355	-0.557242	-0.072257
C36	C	-0.891968	-0.517779	0.000017
C37	C	-0.893338	-0.432180	0.000017
C38	C	-0.894431	-0.363954	0.000011
C39	C	-0.032272	0.096148	0.000015
C40	C	-0.116292	0.097472	0.000009
C41	C	-0.888109	0.240318	0.000012
C42	C	-0.889450	0.324336	0.000010
N43	N	-0.893866	0.101921	0.206563
N44	N	-0.893909	0.101938	-0.206534
C45	C	-0.945429	0.050393	0.248282
C46	C	-0.945434	0.050393	0.331734
C47	C	-0.893878	0.101924	0.373466
C48	C	-0.842309	0.153454	0.331741
C49	C	-0.842302	0.153450	0.248291
C50	C	-0.842337	0.153469	0.668289
C51	C	-0.842350	0.153470	0.751745
C52	C	-0.945468	0.050411	0.751732
C53	C	-0.945461	0.050408	0.668282
C54	C	-0.893890	0.101935	0.626564
C55	C	-0.893885	0.101934	0.536076
C56	C	-0.893886	0.101929	0.463953
H57	H	-0.520939	0.103955	-0.131105
Br58	Br	-0.685596	0.106592	-0.170345
Br59	Br	-0.898576	-0.106365	-0.170341
Br60	Br	-0.772316	0.223379	0.191672
H61	H	-0.987419	0.008435	0.365701
Br62	Br	-0.102207	0.097259	-0.170346
H63	H	-0.891847	-0.525132	0.131135
Br64	Br	-0.892229	-0.503669	-0.170338
H65	H	-0.123609	0.097592	0.131125
Br66	Br	-0.895593	-0.292432	-0.170341
H67	H	-0.889592	-0.668324	-0.131106
Br68	Br	-0.889208	-0.689778	0.170365
Br69	Br	-1.015458	-0.019521	0.808352
Br70	Br	-0.895533	-0.292462	0.170364
Br71	Br	-1.015435	-0.019525	0.611648
Br72	Br	-0.685557	0.106602	0.170363
Br73	Br	-0.772377	0.223411	0.808382
H74	H	-0.898167	-0.127813	0.131133
Br75	Br	-1.015408	-0.019541	0.191655
H76	H	-0.800348	0.195425	0.634329
H77	H	-0.800328	0.195409	0.365724
H78	H	-0.266829	0.099888	0.131125
Br79	Br	-0.288279	0.100226	-0.170351
Br80	Br	-0.499489	0.103622	0.170362
