data_functionalizedCrystal
_audit_creation_method	'MofGen! by Chris Wilmer'
_symmetry_space_group_name_H-M	'P1'
_symmetry_Int_Tables_number	1
_symmetry_cell_setting	triclinic
loop_
_symmetry_equiv_pos_as_xyz
  x,y,z
_cell_length_a	10.723024
_cell_length_b	10.723024
_cell_length_c	9.798715
_cell_angle_alpha	90.001978
_cell_angle_beta	90.003391
_cell_angle_gamma	84.467869
loop_
_atom_site_label
_atom_site_type_symbol
_atom_site_fract_x
_atom_site_fract_y
_atom_site_fract_z
O1	O	-1.657187	-0.175024	-0.113478
O2	O	-1.294035	-0.191778	-0.113483
O3	O	-1.483988	-0.001825	-0.113475
O4	O	-1.467234	-0.364977	-0.113486
O5	O	-1.483974	-0.001824	0.113507
O6	O	-1.294021	-0.191777	0.113499
O7	O	-1.657173	-0.175024	0.113504
Zn8	Zn	-1.475595	-0.183401	0.149540
Zn9	Zn	-1.475613	-0.183401	-0.149519
O10	O	-1.467220	-0.364977	0.113496
C11	C	-1.247528	-0.190558	0.000008
C12	C	-1.108974	-0.186911	0.000006
C13	C	-1.482762	0.044675	0.000014
C14	C	-1.479114	0.183229	0.000009
C15	C	-1.703680	-0.176243	0.000010
C16	C	-1.842234	-0.179891	0.000003
C17	C	-1.468447	-0.411477	0.000004
C18	C	-1.472094	-0.550031	-0.000000
C19	C	-1.033991	-0.293198	0.000002
C20	C	-0.890788	-0.289431	0.000001
C21	C	-1.585401	0.258212	0.000009
C22	C	-1.581634	0.401415	0.000004
N23	N	-1.475591	-0.183399	0.353640
N24	N	-1.475627	-0.183393	-0.353619
C25	C	-1.555347	-0.103292	0.421420
C26	C	-1.555367	-0.103288	0.578582
H27	H	-0.826355	-0.380421	-0.000008
H28	H	-1.067152	-0.093125	-0.000026
H29	H	-1.407345	-0.251984	0.588102
O30	O	-1.697186	0.208125	0.000072
C31	C	-1.802864	0.019730	-0.000005
C32	C	-1.676178	0.076282	-0.000045
H33	H	-1.785923	-0.086872	-0.000129
H34	H	-1.858237	0.052026	0.095010
H35	H	-1.858228	0.052185	-0.094973
H36	H	-1.620712	0.043853	0.094859
H37	H	-1.620900	0.043991	-0.095123
H38	H	-1.385328	0.225051	-0.000001
O39	O	-1.690275	0.478145	-0.000180
C40	C	-1.883256	0.542026	-0.117818
C41	C	-1.760276	0.455035	-0.117763
H42	H	-1.939874	0.523390	-0.212888
H43	H	-1.940042	0.523349	-0.022891
H44	H	-1.860846	0.643814	-0.117755
H45	H	-1.782573	0.353216	-0.117874
H46	H	-1.703525	0.473819	-0.212681
O47	O	-1.636669	-0.021323	0.351885
C48	C	-1.707400	0.195075	0.307856
C49	C	-1.615208	0.102398	0.386678
H50	H	-1.690099	0.295123	0.335979
H51	H	-1.692847	0.180568	0.193491
H52	H	-1.807577	0.178131	0.335817
H53	H	-1.514995	0.119285	0.358832
H54	H	-1.629870	0.116927	0.501024
H55	H	-1.381099	0.385544	0.000010
H56	H	-1.407319	-0.251975	0.411961
O57	O	-0.919212	-0.071412	-0.000176
C58	C	-1.082423	0.056371	-0.117810
C59	C	-0.995327	-0.066540	-0.117760
H60	H	-1.143966	0.060362	-0.212880
H61	H	-1.144147	0.060383	-0.022884
H62	H	-1.023559	0.139410	-0.117741
H63	H	-1.054092	-0.149648	-0.117877
H64	H	-0.933598	-0.070442	-0.212678
H65	H	-1.075814	-0.386984	0.000007
O66	O	-1.637003	-0.021584	0.648046
C67	C	-1.853180	0.050171	0.691919
C68	C	-1.760866	-0.042453	0.613191
H69	H	-1.953343	0.033349	0.663747
H70	H	-1.838793	0.035601	0.806299
H71	H	-1.835733	0.150208	0.663924
H72	H	-1.778257	-0.142526	0.641071
H73	H	-1.775274	-0.027773	0.498830
