data_functionalizedCrystal
_audit_creation_method	'MofGen! by Chris Wilmer'
_symmetry_space_group_name_H-M	'P1'
_symmetry_Int_Tables_number	1
_symmetry_cell_setting	triclinic
loop_
_symmetry_equiv_pos_as_xyz
  x,y,z
_cell_length_a	18.215407
_cell_length_b	21.295417
_cell_length_c	18.215399
_cell_angle_alpha	89.967848
_cell_angle_beta	89.980167
_cell_angle_gamma	90.030955
loop_
_atom_site_label
_atom_site_type_symbol
_atom_site_fract_x
_atom_site_fract_y
_atom_site_fract_z
Zn1	Zn	1.125043	-0.250608	-0.416094
Zn2	Zn	1.124940	-0.355879	-0.293019
Zn3	Zn	1.001976	-0.250629	-0.293042
Zn4	Zn	1.001930	-0.355844	-0.416044
O5	O	1.063472	-0.303240	-0.354550
O6	O	1.228014	-0.264579	-0.399780
O7	O	1.108604	-0.341941	-0.190038
O8	O	1.018364	-0.162537	-0.309396
O9	O	1.227938	-0.341921	-0.309357
O10	O	1.108781	-0.162521	-0.399802
O11	O	1.018263	-0.264614	-0.190054
O12	O	0.898985	-0.264580	-0.309347
O13	O	1.018285	-0.341861	-0.519035
O14	O	0.898951	-0.341881	-0.399716
O15	O	1.108736	-0.264545	-0.519072
O16	O	1.108559	-0.443964	-0.309308
O17	O	1.018184	-0.443938	-0.399694
C18	C	0.872266	-0.303229	-0.354529
C19	C	0.790467	-0.303240	-0.354537
C20	C	0.602275	-0.343554	-0.401533
C21	C	0.525416	-0.343556	-0.401542
C22	C	0.525422	-0.262938	-0.307582
C23	C	0.602279	-0.262933	-0.307577
C24	C	0.640703	-0.303245	-0.354552
C25	C	0.486987	-0.303251	-0.354566
C26	C	0.403654	-0.303253	-0.354575
C27	C	0.724042	-0.303242	-0.354543
C28	C	1.063376	-0.466792	-0.354509
C29	C	1.063402	-0.536760	-0.354516
C30	C	1.110502	-0.569619	-0.307500
C31	C	1.110536	-0.635361	-0.307517
C32	C	1.063457	-0.668242	-0.354542
C33	C	1.016354	-0.635375	-0.401566
C34	C	1.016326	-0.569634	-0.401554
N35	N	0.999079	-0.771508	-0.360145
N36	N	0.999107	-0.833960	-0.360153
C37	C	1.063540	-0.866317	-0.354584
N38	N	1.127944	-0.833863	-0.348993
N39	N	1.127915	-0.771406	-0.348981
C40	C	1.063483	-0.739528	-0.354561
C41	C	1.110681	-0.970462	-0.307584
C42	C	1.110717	-1.036205	-0.307605
C43	C	1.016528	-1.036218	-0.401651
C44	C	1.016499	-0.970475	-0.401633
C45	C	1.063575	-0.937601	-0.354595
C46	C	1.255425	-0.303251	-0.354571
C47	C	1.337224	-0.303256	-0.354581
C48	C	1.063517	-0.303197	-0.546503
C49	C	1.063536	-0.303178	-0.628302
C50	C	1.063589	-0.139050	-0.354607
C51	C	1.063639	-0.069082	-0.354631
C52	C	1.110651	-0.262882	-0.816516
C53	C	1.110660	-0.262863	-0.893375
C54	C	1.016473	-0.343377	-0.893325
C55	C	1.016461	-0.343392	-0.816468
C56	C	1.063554	-0.303145	-0.778065
C57	C	1.063575	-0.303112	-0.931781
C58	C	1.063584	-0.303093	-1.015115
C59	C	1.063544	-0.303164	-0.694726
C60	C	1.063470	-0.303238	-0.163344
C61	C	1.063593	-0.303079	-0.081545
H62	H	0.494127	-0.230118	-0.269336
C63	C	1.161876	-0.219126	-0.934989
C64	C	1.203125	-0.183896	-0.884904
C65	C	1.250322	-0.143603	-0.923212
H66	H	1.133831	-0.191634	-0.964978
H67	H	1.193968	-0.243188	-0.964953
H68	H	1.171037	-0.159837	-0.854953
H69	H	1.231185	-0.211372	-0.854914
H70	H	1.282414	-0.167664	-0.953176
H71	H	1.222270	-0.116115	-0.953199
H72	H	1.278319	-0.119699	-0.889235
C73	C	0.965267	-0.671185	-0.452541
C74	C	0.975357	-0.735792	-0.442475
C75	C	0.928302	-0.768798	-0.489418
H76	H	0.975958	-0.660449	-0.502026
H77	H	0.915806	-0.660491	-0.441717
H78	H	1.024807	-0.746482	-0.453305
H79	H	0.964660	-0.746546	-0.393000
H80	H	0.878841	-0.758104	-0.478594
H81	H	0.938998	-0.758058	-0.538900
H82	H	0.935137	-0.812637	-0.482590
H83	H	0.633557	-0.376377	-0.439785
H84	H	0.494130	-0.376379	-0.439801
C85	C	0.965272	-0.387101	-0.934888
C86	C	0.924010	-0.422354	-0.884761
C87	C	0.876830	-0.462636	-0.923021
H88	H	0.993330	-0.414580	-0.964866
H89	H	0.933187	-0.363030	-0.964860
H90	H	0.956091	-0.446423	-0.854803
H91	H	0.895937	-0.394892	-0.854782
H92	H	0.844745	-0.438564	-0.952992
H93	H	0.904894	-0.490110	-0.952997
H94	H	0.848823	-0.486555	-0.889015
C95	C	0.965103	-0.534068	-0.452627
C96	C	0.923868	-0.576931	-0.493805
C97	C	0.876666	-0.544189	-0.540854
H98	H	0.993143	-0.508376	-0.484777
H99	H	0.933002	-0.508480	-0.424456
H100	H	0.955965	-0.602508	-0.521974
H101	H	0.895813	-0.602624	-0.461675
H102	H	0.844565	-0.518601	-0.512682
H103	H	0.904712	-0.518498	-0.572998
H104	H	0.848678	-0.573267	-0.568794
C105	C	0.643875	-0.219142	-0.256484
C106	C	0.593776	-0.183856	-0.215329
C107	C	0.632067	-0.143516	-0.168252
H108	H	0.673886	-0.191688	-0.284612
H109	H	0.673815	-0.243173	-0.224328
H110	H	0.563848	-0.159826	-0.247481
H111	H	0.563763	-0.211293	-0.187186
H112	H	0.662008	-0.167547	-0.136096
H113	H	0.662077	-0.116066	-0.196386
H114	H	0.598081	-0.119573	-0.140318
H115	H	1.148835	-0.542855	-0.269202
H116	H	0.978104	-0.376179	-0.785160
C117	C	1.161700	-0.670934	-0.256385
C118	C	1.202908	-0.628073	-0.215177
C119	C	1.250039	-0.660817	-0.168059
H120	H	1.193827	-0.696542	-0.284485
H121	H	1.133587	-0.696606	-0.224263
H122	H	1.231019	-0.602412	-0.247295
H123	H	1.170801	-0.602464	-0.187062
H124	H	1.221926	-0.686489	-0.135937
H125	H	1.282161	-0.686424	-0.196165
H126	H	1.277999	-0.631741	-0.140090
H127	H	1.149015	-0.943694	-0.269285
H128	H	0.978143	-0.943720	-0.439914
C129	C	1.161886	-1.071770	-0.256476
C130	C	1.203089	-1.028906	-0.215269
C131	C	1.250227	-1.061646	-0.168154
H132	H	1.194016	-1.097374	-0.284578
H133	H	1.133778	-1.097446	-0.224354
H134	H	1.231196	-1.003241	-0.247387
H135	H	1.170979	-1.003301	-0.187152
H136	H	1.222119	-1.087322	-0.136032
H137	H	1.282352	-1.087249	-0.196262
H138	H	1.278184	-1.032568	-0.140184
H139	H	0.978199	-1.062989	-0.439942
H140	H	1.148995	-0.230109	-0.785251
