data_functionalizedCrystal
_audit_creation_method	'MofGen! by Chris Wilmer'
_symmetry_space_group_name_H-M	'P1'
_symmetry_Int_Tables_number	1
_symmetry_cell_setting	triclinic
loop_
_symmetry_equiv_pos_as_xyz
  x,y,z
_cell_length_a	10.654550
_cell_length_b	10.489741
_cell_length_c	9.130313
_cell_angle_alpha	89.995761
_cell_angle_beta	89.999724
_cell_angle_gamma	84.512052
loop_
_atom_site_label
_atom_site_type_symbol
_atom_site_fract_x
_atom_site_fract_y
_atom_site_fract_z
O1	O	1.667923	0.179162	-0.121689
O2	O	1.302453	0.196231	-0.121716
O3	O	1.493504	0.002095	-0.121693
O4	O	1.476872	0.373299	-0.121712
O5	O	1.493491	0.002089	0.121906
O6	O	1.302440	0.196226	0.121883
O7	O	1.667910	0.179156	0.121910
Cu8	Cu	1.485174	0.187691	0.144139
Cu9	Cu	1.485189	0.187697	-0.143945
O10	O	1.476859	0.373293	0.121887
C11	C	1.255648	0.194975	0.000080
C12	C	1.116203	0.191225	0.000070
C13	C	1.036771	0.305530	0.000068
C14	C	0.905748	0.301999	0.000094
C15	C	0.933603	0.069849	0.000117
C16	C	1.064623	0.073381	0.000102
C17	C	1.492241	-0.045439	0.000105
C18	C	1.488483	-0.187067	0.000102
C19	C	1.366923	-0.255148	0.000083
C20	C	1.424340	-0.347301	0.120194
C21	C	1.424382	-0.347270	-0.119976
C22	C	1.545951	-0.277354	0.120313
C23	C	1.545976	-0.277314	-0.119965
C24	C	1.603481	-0.369439	0.000176
C25	C	1.714715	0.180413	0.000110
C26	C	1.854160	0.184162	0.000111
C27	C	1.478122	0.420827	0.000085
C28	C	1.481880	0.562454	0.000079
N29	N	1.485172	0.187685	0.346761
N30	N	1.485201	0.187693	-0.346568
C31	C	1.569798	0.101758	0.423423
C32	C	1.569810	0.101758	0.576760
C33	C	1.400565	0.273624	0.576760
C34	C	1.400548	0.273617	0.423426
H35	H	1.078762	0.401486	0.000054
H36	H	1.597372	-0.246292	-0.221508
H37	H	1.331629	0.343589	0.361003
H38	H	0.891590	-0.026096	0.000151
H39	H	0.841079	0.395078	0.000096
H40	H	1.372937	-0.378207	-0.221530
C41	C	1.662904	0.007241	0.661090
C42	C	1.756002	-0.087257	0.576759
C43	C	1.849099	-0.181780	0.661089
C44	C	1.849097	-0.181805	0.829751
C45	C	1.755995	-0.087304	0.914091
C46	C	1.662899	0.007219	0.829761
H47	H	1.756007	-0.087242	0.451897
H48	H	1.918019	-0.251736	0.598654
H49	H	1.918013	-0.251776	0.892177
H50	H	1.755991	-0.087319	1.038953
H51	H	1.593979	0.077175	0.892197
C52	C	1.662872	0.007226	0.339092
C53	C	1.612913	-0.090798	0.233701
C54	C	1.705987	-0.185336	0.149375
C55	C	1.849019	-0.181850	0.170440
C56	C	1.898985	-0.083822	0.275836
C57	C	1.805911	0.010716	0.360162
H58	H	1.507026	-0.093382	0.218103
H59	H	1.668998	-0.257903	0.071354
H60	H	1.917917	-0.251833	0.108017
H61	H	2.004872	-0.081239	0.291433
H62	H	1.842900	0.083282	0.438182
H63	H	1.266977	-0.205449	0.000196
C64	C	1.354851	-0.389177	0.257361
C65	C	1.300631	-0.288274	0.368741
C66	C	1.231132	-0.330143	0.505901
C67	C	1.215854	-0.472914	0.531681
C68	C	1.270076	-0.573826	0.420298
C69	C	1.339574	-0.531957	0.283138
H70	H	1.311939	-0.182578	0.349660
H71	H	1.190994	-0.255440	0.588354
H72	H	1.164407	-0.503908	0.633215
H73	H	1.258767	-0.679522	0.439379
H74	H	1.379713	-0.606660	0.200685
H75	H	1.129300	-0.019705	0.000107
H76	H	1.331669	0.343589	0.639195
H77	H	1.597335	-0.246549	0.221971
H78	H	1.703517	-0.418912	0.000250
