data_functionalizedCrystal
_audit_creation_method	'MofGen! by Chris Wilmer'
_symmetry_space_group_name_H-M	'P1'
_symmetry_Int_Tables_number	1
_symmetry_cell_setting	triclinic
loop_
_symmetry_equiv_pos_as_xyz
  x,y,z
_cell_length_a	20.919309
_cell_length_b	23.196402
_cell_length_c	23.196401
_cell_angle_alpha	59.999265
_cell_angle_beta	90.004269
_cell_angle_gamma	57.441790
loop_
_atom_site_label
_atom_site_type_symbol
_atom_site_fract_x
_atom_site_fract_y
_atom_site_fract_z
Zr1	Zr	0.641771	0.585964	-0.053121
O2	O	0.535384	0.713713	-0.148907
O3	O	0.674382	0.463405	-0.023762
O4	O	0.674360	0.583693	-0.144037
O5	O	0.535426	0.593408	0.066248
O6	O	0.783991	0.575998	-0.140192
O7	O	0.535406	0.593425	-0.028632
O8	O	0.784030	0.360825	0.074959
O9	O	0.535387	0.808580	-0.148903
O10	O	0.770110	0.506151	-0.008366
O11	O	0.688309	0.511880	0.059572
O12	O	0.688283	0.653503	-0.082037
O13	O	0.606482	0.659233	-0.014099
Zr14	Zr	0.816651	0.573663	0.104334
Zr15	Zr	0.816619	0.573692	-0.046988
Zr16	Zr	0.641804	0.585936	0.098200
Zr17	Zr	0.641776	0.737267	-0.053115
Zr18	Zr	0.816647	0.422361	0.104327
O19	O	0.784041	0.696223	0.074974
O20	O	0.783995	0.696263	-0.140186
O21	O	0.535430	0.713673	0.066253
O22	O	0.923039	0.445915	0.200119
O23	O	0.922993	0.445955	-0.015041
O24	O	0.674428	0.463365	0.191399
O25	O	0.922997	0.566220	-0.015036
O26	O	0.784062	0.575935	0.195249
O27	O	0.674432	0.583630	0.191404
O28	O	0.923017	0.566202	0.079844
O29	O	0.674367	0.798825	-0.144028
O30	O	0.784056	0.360803	0.195240
O31	O	0.923036	0.351048	0.200115
O32	O	0.923010	0.351070	0.079834
O33	O	0.535413	0.808558	-0.028622
O34	O	0.674393	0.798802	-0.023747
O35	O	0.770140	0.506124	0.133249
O36	O	0.851940	0.500395	0.065312
O37	O	0.770114	0.647747	-0.008360
O38	O	0.688313	0.653477	0.059578
C39	C	0.729205	0.390558	0.025598
C40	C	0.729203	0.326326	0.025595
C41	C	0.771897	0.293166	-0.009871
C42	C	0.771905	0.232804	-0.009865
C43	C	0.729203	0.205618	0.025597
C44	C	0.686508	0.238783	0.061070
C45	C	0.686508	0.299137	0.061069
C46	C	0.657667	0.148611	0.017813
C47	C	0.657664	0.088262	0.017808
C48	C	0.729204	0.019463	0.025604
C49	C	0.800746	0.011029	0.033389
C50	C	0.800746	0.071383	0.033388
C51	C	0.729199	0.140174	0.025602
C52	C	0.771910	-0.079149	-0.009857
C53	C	0.771920	-0.139516	-0.009846
C54	C	0.686515	-0.133529	0.061084
C55	C	0.686513	-0.073170	0.061078
C56	C	0.729209	-0.045981	0.025604
C57	C	0.510504	0.595165	0.017934
C58	C	0.436276	0.600375	0.015331
C59	C	0.444115	0.525909	0.052559
C60	C	0.374367	0.530809	0.050111
C61	C	0.296783	0.610177	0.010430
C62	C	0.288946	0.684649	-0.026800
C63	C	0.358692	0.679748	-0.024347
C64	C	0.084056	0.628824	0.001104
C65	C	0.014308	0.633719	-0.001347
C66	C	0.099735	0.479878	0.075565
C67	C	0.169479	0.474984	0.078011
C68	C	0.161636	0.549456	0.040784
C69	C	0.225489	0.615188	0.007925
C70	C	0.232929	0.544445	0.043294
C71	C	0.947919	0.564463	0.033278
C72	C	1.022146	0.559253	0.035882
C73	C	0.729171	0.579849	-0.163675
C74	C	0.729157	0.579861	-0.227915
C75	C	0.729217	0.769070	0.025614
C76	C	0.729219	0.833301	0.025617
C77	C	0.789555	0.575623	-0.255959
C78	C	0.789574	0.575606	-0.316305
C79	C	0.729181	0.579843	-0.348613
C80	C	0.668777	0.584077	-0.320559
C81	C	0.668766	0.584086	-0.260210
C82	C	0.655476	0.632511	-0.470578
C83	C	0.655488	0.632507	-0.530929
C84	C	0.729217	0.579812	-0.534748
C85	C	0.802940	0.527130	-0.478214
C86	C	0.802928	0.527139	-0.417865
C87	C	0.729187	0.579833	-0.414051
C88	C	0.789640	0.575553	-0.628226
C89	C	0.789658	0.575530	-0.688570
C90	C	0.668856	0.584010	-0.692827
C91	C	0.668843	0.584024	-0.632480
C92	C	0.729235	0.579800	-0.600184
C93	C	0.729252	0.579779	0.214887
C94	C	0.729266	0.579767	0.279127
C95	C	0.947913	0.375207	0.033270
C96	C	1.022138	0.305765	0.035870
C97	C	0.729246	0.390523	0.214878
C98	C	0.729258	0.326279	0.279116
C99	C	0.947954	0.375172	0.222550
C100	C	1.022193	0.305718	0.289391
C101	C	0.510469	0.784456	-0.171338
C102	C	0.436230	0.853910	-0.238179
C103	C	0.510510	0.784421	0.017943
C104	C	0.436284	0.853863	0.015342
C105	C	0.729177	0.769105	-0.163666
C106	C	0.729165	0.833349	-0.227903
C107	C	1.014281	0.276159	-0.001373
C108	C	1.084016	0.210920	0.001056
C109	C	1.161609	0.175284	0.040734
C110	C	1.169466	0.204896	0.077979
C111	C	1.099731	0.270138	0.075545
C112	C	0.771978	0.293105	0.347747
C113	C	0.771986	0.232750	0.408111
C114	C	0.729278	0.205565	0.399841
C115	C	0.686552	0.238746	0.331202
C116	C	0.686540	0.299104	0.270840
C117	C	1.099762	0.270110	0.285318
C118	C	1.169525	0.204859	0.348117
C119	C	1.161715	0.175212	0.414988
C120	C	1.084137	0.210826	0.419059
C121	C	1.014377	0.276080	0.356261
C122	C	0.358660	0.889525	-0.234106
C123	C	0.288898	0.954795	-0.296904
C124	C	0.296708	0.984445	-0.363776
C125	C	0.374286	0.948827	-0.367847
C126	C	0.444046	0.883562	-0.305049
C127	C	0.444142	0.883475	0.052579
C128	C	0.374406	0.948731	0.050133
C129	C	0.296813	0.984369	0.010453
C130	C	0.288957	0.954754	-0.026789
C131	C	0.358692	0.889504	-0.024346
C132	C	0.771882	0.860514	-0.219611
C133	C	0.771887	0.920868	-0.279962
C134	C	0.729170	0.954062	-0.348606
C135	C	0.686452	0.926891	-0.356897
C136	C	0.686452	0.866533	-0.296546
H137	H	0.806678	-0.057014	-0.038740
H138	H	0.240037	1.037500	0.008471
H139	H	0.507205	0.854565	-0.308374
Cl140	Cl	0.825677	0.327264	0.358162
Cl141	Cl	1.074333	0.173545	0.503132
H142	H	0.106110	0.419247	0.105874
Cl143	Cl	0.729175	1.029944	-0.424469
Cl144	Cl	0.191405	0.999562	-0.076666
Cl145	Cl	0.895635	0.460884	-0.483009
Cl146	Cl	0.348799	0.852279	-0.071159
H147	H	0.352286	0.865388	-0.179662
H148	H	1.218386	0.122159	0.042710
Cl149	Cl	1.109624	0.307343	0.122377
H150	H	0.619685	0.587456	-0.719129
Cl151	Cl	0.825706	0.191047	0.494391
Cl152	Cl	0.209000	1.066492	-0.442716
H153	H	0.806667	0.833496	-0.163723
Cl154	Cl	0.632746	0.968637	-0.443198
H155	H	0.729294	0.156417	0.448998
Cl156	Cl	0.384302	0.985944	0.096960
Cl157	Cl	0.916863	0.320832	0.361395
Cl158	Cl	0.865509	0.570279	-0.351568
H159	H	1.232651	0.175872	0.110283
Cl160	Cl	0.384227	0.437189	0.096923
H161	H	0.806671	0.942984	-0.273197
H162	H	0.806664	0.315299	-0.038754
Cl163	Cl	0.865478	0.570306	-0.215357
H164	H	0.651664	0.844423	-0.303308
H165	H	0.838816	0.572109	-0.601928
Cl166	Cl	0.191382	0.999555	-0.291769
H167	H	0.838846	0.572074	-0.711402
Cl168	Cl	0.825589	0.191100	-0.054446
H169	H	0.595459	0.675408	-0.576957
Cl170	Cl	0.890680	0.060778	0.043180
H171	H	0.380635	0.972976	-0.422301
H172	H	0.859003	-0.044994	0.039746
Cl173	Cl	0.541680	0.838690	0.102464
H174	H	0.232648	0.410354	0.110310
Cl175	Cl	0.632867	0.204560	0.320818
H176	H	1.106137	0.294239	0.230874
Cl177	Cl	0.825594	-0.181201	-0.054439
H178	H	0.651747	-0.155664	0.089958
Cl179	Cl	0.562785	0.698822	-0.465815
Cl180	Cl	0.632836	-0.031478	0.105664
H181	H	0.651754	0.326107	0.214959
H182	H	0.599410	0.095138	0.011465
H183	H	0.599402	0.204638	0.011450
Cl184	Cl	-0.083230	0.733504	-0.051244
H185	H	1.232686	0.175868	0.344789
Cl186	Cl	1.249423	0.093175	0.493928
H187	H	0.651741	0.216644	0.089944
H188	H	0.077660	0.689464	-0.029221
H189	H	0.651740	0.326138	0.089950
H190	H	0.507284	0.461278	0.084875
H191	H	0.225770	0.749272	-0.059105
H192	H	0.352305	0.740387	-0.054654
H193	H	0.296101	0.479824	0.075605
H194	H	0.162311	0.679810	-0.024384
H195	H	0.862955	0.484243	-0.371836
H196	H	0.619659	0.587480	-0.609647
Cl197	Cl	0.592830	0.589416	-0.224952
Cl198	Cl	0.592858	0.589399	-0.361170
Cl199	Cl	1.074121	0.173704	-0.045767
Cl200	Cl	0.916743	0.320949	-0.051263
