data_functionalizedCrystal
_audit_creation_method	'MofGen! by Chris Wilmer'
_symmetry_space_group_name_H-M	'P1'
_symmetry_Int_Tables_number	1
_symmetry_cell_setting	triclinic
loop_
_symmetry_equiv_pos_as_xyz
  x,y,z
_cell_length_a	15.944564
_cell_length_b	9.065218
_cell_length_c	15.021413
_cell_angle_alpha	89.994080
_cell_angle_beta	90.002828
_cell_angle_gamma	84.259910
loop_
_atom_site_label
_atom_site_type_symbol
_atom_site_fract_x
_atom_site_fract_y
_atom_site_fract_z
O1	O	-1.115964	-0.190342	-0.073936
O2	O	-0.871594	-0.213780	-0.073957
O3	O	-0.998830	0.012699	-0.073944
O4	O	-0.988728	-0.416821	-0.073949
O5	O	-0.998810	0.012667	0.074120
O6	O	-0.871573	-0.213813	0.074107
O7	O	-1.115944	-0.190374	0.074129
Zn8	Zn	-0.993755	-0.202098	0.097626
Zn9	Zn	-0.993782	-0.202056	-0.097455
O10	O	-0.988708	-0.416853	0.074116
C11	C	-0.840282	-0.212820	0.000072
C12	C	-0.747015	-0.209893	0.000064
N13	N	-0.993743	-0.202127	0.230764
C14	C	-0.997849	0.067647	0.000086
C15	C	-0.994946	0.231422	0.000082
C16	C	-0.531043	-0.062508	0.000083
C17	C	-0.470551	-0.130920	-0.072922
C18	C	-0.576250	-0.204598	0.000074
C19	C	-0.470554	-0.130986	0.073058
C20	C	-0.411299	-0.199472	0.000088
C21	C	-0.516987	-0.273048	-0.072990
C22	C	-0.516995	-0.273094	0.073055
C23	C	-0.456523	-0.341609	0.000033
C24	C	-0.671274	-0.207546	0.000065
C25	C	-0.316276	-0.196534	0.000091
C26	C	-0.147257	-0.191314	0.000097
C27	C	-0.240528	-0.194181	0.000100
C28	C	-0.989689	-0.471801	0.000083
C29	C	-0.992592	-0.635577	0.000082
N30	N	-0.993801	-0.202016	-0.230592
C31	C	-0.934900	-0.306802	0.470441
C32	C	-1.011017	-0.335449	0.529782
C33	C	-0.993765	-0.202090	0.412371
C34	C	-0.917668	-0.173475	0.529771
C35	C	-0.993778	-0.202058	0.587795
C36	C	-1.069920	-0.230803	0.470405
C37	C	-0.976522	-0.068772	0.470390
C38	C	-1.052693	-0.097363	0.529704
C39	C	-0.993755	-0.202112	0.311313
C40	C	-0.993796	-0.202034	0.688850
H41	H	-0.563482	0.055409	-0.000007
Br42	Br	-0.952155	0.119062	0.426871
H43	H	-0.449994	-0.070809	-0.134640
Br44	Br	-0.551066	-0.373122	-0.175973
H45	H	-0.424258	-0.459648	-0.000009
Br46	Br	-0.810402	-0.133158	0.573241
Br47	Br	-0.551296	-0.373205	0.175929
Br48	Br	-1.035349	-0.523336	0.573263
Br49	Br	-0.436302	-0.030802	0.175925
H50	H	-1.134294	-0.255127	0.444438
H51	H	-0.885171	-0.395425	0.444420
H52	H	-1.102534	-0.008792	0.555561
