data_functionalizedCrystal
_audit_creation_method	'MofGen! by Chris Wilmer'
_symmetry_space_group_name_H-M	'P1'
_symmetry_Int_Tables_number	1
_symmetry_cell_setting	triclinic
loop_
_symmetry_equiv_pos_as_xyz
  x,y,z
_cell_length_a	19.188905
_cell_length_b	19.188924
_cell_length_c	17.666332
_cell_angle_alpha	90.003714
_cell_angle_beta	90.013693
_cell_angle_gamma	83.138260
loop_
_atom_site_label
_atom_site_type_symbol
_atom_site_fract_x
_atom_site_fract_y
_atom_site_fract_z
O1	O	0.926156	0.087081	0.063076
O2	O	0.722842	0.098834	0.063051
O3	O	0.830369	-0.008699	0.063056
O4	O	0.818630	0.194614	0.063072
O5	O	0.830355	-0.008695	-0.062841
O6	O	0.722828	0.098837	-0.062846
O7	O	0.926142	0.087085	-0.062820
Cu8	Cu	0.824484	0.092961	-0.074328
Cu9	Cu	0.824501	0.092957	0.074559
O10	O	0.818615	0.194618	-0.062825
C11	C	0.696824	0.098458	0.000099
C12	C	0.619318	0.097324	0.000089
C13	C	0.582934	0.096778	0.068718
C14	C	0.510111	0.095705	0.068727
C15	C	0.473676	0.095164	0.000104
C16	C	0.510068	0.095715	-0.068533
C17	C	0.582889	0.096795	-0.068541
N18	N	0.364651	0.053737	-0.050969
N19	N	0.295474	0.052709	-0.050957
C20	C	0.254269	0.091911	0.000122
N21	N	0.284856	0.132171	0.051201
N22	N	0.354040	0.133196	0.051191
C23	C	0.394713	0.093993	0.000104
C24	C	0.138921	0.090202	0.068765
C25	C	0.066096	0.089134	0.068772
C26	C	0.066056	0.089137	-0.068491
C27	C	0.138879	0.090212	-0.068495
C28	C	0.175308	0.090742	0.000135
C29	C	0.829982	-0.034708	0.000106
C30	C	0.828844	-0.112213	0.000104
C31	C	0.828320	-0.148614	0.068731
C32	C	0.827240	-0.221436	0.068736
C33	C	0.826698	-0.257857	0.000112
C34	C	0.827218	-0.221447	-0.068524
C35	C	0.828291	-0.148625	-0.068528
N36	N	0.864740	-0.377522	-0.050959
N37	N	0.863723	-0.446701	-0.050951
C38	C	0.823464	-0.477266	0.000119
N39	N	0.784270	-0.436041	0.051191
N40	N	0.785291	-0.366857	0.051185
C41	C	0.825534	-0.336821	0.000108
C42	C	0.821768	-0.592629	0.068756
C43	C	0.820684	-0.665453	0.068759
C44	C	0.820669	-0.665463	-0.068504
C45	C	0.821746	-0.592640	-0.068504
C46	C	0.822299	-0.556228	0.000127
C47	C	0.952160	0.087461	0.000133
C48	C	1.029666	0.088594	0.000148
C49	C	0.819002	0.220627	0.000126
C50	C	0.820141	0.298132	0.000133
N51	N	0.824477	0.092964	-0.179048
C52	C	0.866727	0.135181	-0.781088
C53	C	0.866720	0.135188	-0.701840
C54	C	0.824507	0.092950	-0.662229
C55	C	0.782285	0.050715	-0.701872
C56	C	0.782288	0.050715	-0.781118
N57	N	0.822818	0.031789	-0.537810
N58	N	0.822819	0.031792	-0.462530
C59	C	0.824495	0.092950	-0.423465
N60	N	0.826182	0.154106	-0.462525
N61	N	0.826185	0.154103	-0.537812
C62	C	0.824499	0.092946	-0.576300
C63	C	0.866703	0.135193	-0.297902
C64	C	0.866691	0.135201	-0.218653
C65	C	0.782260	0.050722	-0.218687
C66	C	0.782268	0.050721	-0.297935
C67	C	0.824493	0.092955	-0.337537
N68	N	0.824513	0.092949	0.179279
H69	H	0.168504	0.090653	-0.124380
H70	H	0.036390	0.088701	-0.124365
O71	O	0.741382	0.009646	-0.819706
C72	C	0.784105	-0.038121	-0.865517
H73	H	0.835843	-0.016528	-0.877369
H74	H	0.756068	-0.045827	-0.921254
H75	H	0.794952	-0.090633	-0.834975
H76	H	0.480481	0.095261	0.124614
H77	H	0.822178	-0.563003	-0.124388
H78	H	0.901082	0.169586	-0.330149
H79	H	0.168583	0.090641	0.124648
H80	H	0.820222	-0.695116	-0.124379
O81	O	0.826740	-0.256699	0.135471
C82	C	0.827423	-0.208941	0.196045
H83	H	0.850306	-0.160000	0.175939
H84	H	0.860985	-0.234526	0.244061
H85	H	0.771532	-0.193677	0.217116
O86	O	0.741239	0.009785	-0.663315
C87	C	0.693456	0.052485	-0.617501
H88	H	0.715025	0.104233	-0.605617
H89	H	0.685762	0.024437	-0.561780
H90	H	0.640942	0.063313	-0.648057
H91	H	0.826774	-0.251105	-0.124399
O92	O	0.741188	0.009794	-0.336474
C93	C	0.693430	0.052487	-0.382341
H94	H	0.685757	0.108066	-0.358458
H95	H	0.640908	0.030308	-0.383260
H96	H	0.715005	0.053611	-0.442392
O97	O	0.907639	0.176249	-0.819643
C98	C	0.864922	0.224015	-0.865477
H99	H	0.813184	0.202424	-0.877364
H100	H	0.892966	0.231717	-0.921194
H101	H	0.854074	0.276528	-0.834936
H102	H	0.901065	0.169596	-0.186385
O103	O	0.907795	0.176230	-0.663447
C104	C	0.945048	0.213521	-0.715395
H105	H	0.949212	0.184610	-0.771887
H106	H	0.999936	0.217702	-0.692479
H107	H	0.916123	0.268405	-0.723824
H108	H	0.612590	0.097209	0.124602
H109	H	0.820254	-0.695089	0.124645
O110	O	0.741144	0.009774	-0.180258
C111	C	0.670223	0.029297	-0.199667
H112	H	0.663307	0.085622	-0.221448
H113	H	0.635878	0.025320	-0.147568
H114	H	0.654136	-0.007261	-0.245678
O115	O	0.474665	0.095062	-0.135174
C116	C	0.440635	0.033989	-0.139274
H117	H	0.468259	-0.007942	-0.100334
H118	H	0.442511	0.013685	-0.199973
H119	H	0.383618	0.046835	-0.120829
H120	H	0.612513	0.097240	-0.124428
H121	H	0.036473	0.088693	0.124659
O122	O	0.828831	-0.113374	-0.135262
C123	C	0.828098	-0.161128	-0.195834
H124	H	0.849434	-0.215999	-0.175713
H125	H	0.862290	-0.144632	-0.243831
H126	H	0.771978	-0.161369	-0.216939
H127	H	0.828768	-0.118971	0.124616
H128	H	0.822214	-0.562981	0.124640
