data_functionalizedCrystal
_audit_creation_method	'MofGen! by Chris Wilmer'
_symmetry_space_group_name_H-M	'P1'
_symmetry_Int_Tables_number	1
_symmetry_cell_setting	triclinic
loop_
_symmetry_equiv_pos_as_xyz
  x,y,z
_cell_length_a	14.519731
_cell_length_b	17.019294
_cell_length_c	13.596369
_cell_angle_alpha	86.115041
_cell_angle_beta	89.994584
_cell_angle_gamma	83.541199
loop_
_atom_site_label
_atom_site_type_symbol
_atom_site_fract_x
_atom_site_fract_y
_atom_site_fract_z
O1	O	1.223521	0.103487	-0.090557
O2	O	1.723521	0.603487	0.409443
O3	O	0.955007	0.115647	-0.091588
O4	O	1.455007	0.615647	0.408412
O5	O	1.096754	-0.005255	-0.081343
O6	O	1.596754	0.494745	0.418657
O7	O	1.081774	0.224389	-0.100802
O8	O	1.581774	0.724389	0.399198
O9	O	1.096740	-0.005261	0.082241
O10	O	1.596740	0.494739	0.582241
O11	O	0.954993	0.115640	0.071995
O12	O	1.454993	0.615640	0.571995
O13	O	1.223507	0.103481	0.073027
O14	O	1.723507	0.603481	0.573027
Zn15	Zn	1.089248	0.109560	0.098483
Zn16	Zn	1.589248	0.609560	0.598483
Zn17	Zn	1.089266	0.109568	-0.117045
Zn18	Zn	1.589266	0.609568	0.382955
O19	O	1.081759	0.224382	0.062781
O20	O	1.581759	0.724382	0.562781
C21	C	0.920643	0.115074	-0.009748
C22	C	1.420643	0.615074	0.490252
C23	C	0.818268	0.113367	-0.009604
C24	C	1.318268	0.613367	0.490396
C25	C	0.735128	0.111979	-0.009490
C26	C	1.235128	0.611979	0.490510
C27	C	0.630825	0.110246	-0.009344
C28	C	1.130825	0.610246	0.490656
C29	C	0.547690	0.108870	-0.009227
C30	C	1.047690	0.608870	0.490773
C31	C	0.443381	0.107137	-0.009083
C32	C	0.943381	0.607137	0.490917
C33	C	1.096179	-0.034648	0.002937
C34	C	1.596179	0.465352	0.502937
C35	C	1.094475	-0.122221	0.010352
C36	C	1.594475	0.377779	0.510352
C37	C	1.093684	-0.163355	-0.075334
C38	C	1.593684	0.336645	0.424666
C39	C	1.092077	-0.245639	-0.068364
C40	C	1.592077	0.254361	0.431636
C41	C	1.091267	-0.286788	0.024292
C42	C	1.591267	0.213212	0.524292
C43	C	1.092055	-0.245648	0.109984
C44	C	1.592055	0.254352	0.609984
C45	C	1.093656	-0.163365	0.103013
C46	C	1.593656	0.336635	0.603013
C47	C	1.086428	-0.535228	0.049800
C48	C	1.586428	-0.035228	0.549800
C49	C	1.084830	-0.617517	0.056764
C50	C	1.584830	-0.117517	0.556764
C51	C	1.084850	-0.617503	-0.121585
C52	C	1.584850	-0.117503	0.378415
C53	C	1.086456	-0.535219	-0.128547
C54	C	1.586456	-0.035219	0.371453
C55	C	1.087239	-0.494085	-0.042856
C56	C	1.587239	0.005915	0.457144
C57	C	1.089627	-0.370895	0.031418
C58	C	1.589627	0.129105	0.531418
C59	C	1.088872	-0.409979	-0.049983
C60	C	1.588872	0.090021	0.450017
C61	C	1.257871	0.104054	-0.008815
C62	C	1.757871	0.604054	0.491185
C63	C	1.360246	0.105761	-0.008966
C64	C	1.860246	0.605761	0.491034
C65	C	1.082335	0.253776	-0.021501
C66	C	1.582335	0.753776	0.478499
C67	C	1.084039	0.341349	-0.028922
C68	C	1.584039	0.841349	0.471078
N69	N	1.089242	0.109553	0.245576
N70	N	1.589242	0.609553	0.745576
N71	N	1.089279	0.109568	-0.264137
N72	N	1.589279	0.609568	0.235863
C73	C	1.089265	0.109569	0.646865
C74	C	1.589265	0.609569	1.146865
C75	C	1.089256	0.109567	0.535214
C76	C	1.589256	0.609567	1.035214
C77	C	1.089254	0.109562	0.446224
C78	C	1.589254	0.609562	0.946224
C79	C	1.089244	0.109559	0.334566
C80	C	1.589244	0.609559	0.834566
H81	H	1.094348	-0.129859	-0.150784
H82	H	1.594348	0.370141	0.349216
H83	H	1.091437	-0.279127	-0.138138
H84	H	1.591437	0.220873	0.361862
H85	H	1.084210	-0.651002	-0.191350
H86	H	1.584210	-0.151002	0.308650
O87	O	1.083964	-0.661891	0.156713
O88	O	1.583964	-0.161891	0.656713
H89	H	1.146072	-0.706304	0.164743
H90	H	1.646072	-0.206304	0.664743
O91	O	1.087310	-0.490834	-0.228483
O92	O	1.587310	0.009166	0.271517
H93	H	1.086478	-0.533260	-0.286897
H94	H	1.586478	-0.033260	0.213103
O95	O	1.087296	-0.490869	0.142219
O96	O	1.587296	0.009131	0.642219
H97	H	1.086481	-0.533311	0.207817
H98	H	1.586481	-0.033311	0.707817
H99	H	1.091390	-0.279157	0.185426
H100	H	1.591390	0.220843	0.685426
H101	H	1.094287	-0.129873	0.172787
H102	H	1.594287	0.370127	0.672787
H103	H	1.089525	-0.376471	-0.125423
H104	H	1.589525	0.123529	0.374577
H105	H	1.088971	-0.404408	0.106859
H106	H	1.588971	0.095592	0.606859
