data_functionalizedCrystal
_audit_creation_method	'MofGen! by Chris Wilmer'
_symmetry_space_group_name_H-M	'P1'
_symmetry_Int_Tables_number	1
_symmetry_cell_setting	triclinic
loop_
_symmetry_equiv_pos_as_xyz
  x,y,z
_cell_length_a	21.395364
_cell_length_b	21.395362
_cell_length_c	21.395355
_cell_angle_alpha	89.980094
_cell_angle_beta	90.025600
_cell_angle_gamma	89.975000
loop_
_atom_site_label
_atom_site_type_symbol
_atom_site_fract_x
_atom_site_fract_y
_atom_site_fract_z
Zn1	Zn	-0.957873	-0.249553	-0.354273
Zn2	Zn	-0.624540	0.083780	-0.020940
Zn3	Zn	-0.291206	0.417114	0.312394
Zn4	Zn	-0.957781	-0.354313	-0.249493
Zn5	Zn	-0.624448	-0.020979	0.083840
Zn6	Zn	-0.291115	0.312354	0.417174
Zn7	Zn	-0.853088	-0.249548	-0.249508
Zn8	Zn	-0.519755	0.083785	0.083826
Zn9	Zn	-0.186421	0.417118	0.417159
Zn10	Zn	-0.853063	-0.354292	-0.354231
Zn11	Zn	-0.519730	-0.020959	-0.020898
Zn12	Zn	-0.186396	0.312375	0.312436
O13	O	-0.905451	-0.301926	-0.301876
O14	O	-0.572118	0.031407	0.031457
O15	O	-0.238785	0.364740	0.364791
O16	O	-1.045539	-0.263460	-0.340385
O17	O	-0.712205	0.069873	-0.007052
O18	O	-0.378872	0.403207	0.326282
O19	O	-0.943866	-0.340422	-0.161817
O20	O	-0.610532	-0.007089	0.171516
O21	O	-0.277199	0.326244	0.504850
O22	O	-0.867037	-0.161871	-0.263429
O23	O	-0.533703	0.171462	0.069905
O24	O	-0.200370	0.504796	0.403238
O25	O	-1.045471	-0.340427	-0.263403
O26	O	-0.712138	-0.007093	0.069930
O27	O	-0.378805	0.326240	0.403263
O28	O	-0.944022	-0.161874	-0.340399
O29	O	-0.610688	0.171459	-0.007066
O30	O	-0.277355	0.504792	0.326267
O31	O	-0.866948	-0.263452	-0.161828
O32	O	-0.533615	0.069881	0.171506
O33	O	-0.200281	0.403214	0.504839
O34	O	-0.765407	-0.263432	-0.263388
O35	O	-0.432073	0.069901	0.069945
O36	O	-0.098740	0.403234	0.403278
O37	O	-0.866994	-0.340391	-0.441915
O38	O	-0.533661	-0.007058	-0.108581
O39	O	-0.200328	0.326275	0.224752
O40	O	-0.765388	-0.340387	-0.340328
O41	O	-0.432055	-0.007054	-0.006995
O42	O	-0.098722	0.326280	0.326339
O43	O	-0.943998	-0.263440	-0.441945
O44	O	-0.610664	0.069893	-0.108612
O45	O	-0.277331	0.403227	0.224721
O46	O	-0.943841	-0.441988	-0.263363
O47	O	-0.610508	-0.108654	0.069970
O48	O	-0.277175	0.224679	0.403304
O49	O	-0.866905	-0.441973	-0.340314
O50	O	-0.533572	-0.108639	-0.006980
O51	O	-0.200239	0.224694	0.326353
C52	C	-0.742664	-0.301907	-0.301856
C53	C	-0.409330	0.031426	0.031478
C54	C	-0.075997	0.364759	0.364811
C55	C	-0.673022	-0.301914	-0.301862
C56	C	-0.339689	0.031419	0.031472
C57	C	-0.006356	0.364752	0.364805
C58	C	-0.171233	-0.342059	-0.341889
C59	C	0.162100	-0.008726	-0.008555
C60	C	0.495433	0.324607	0.324778
C61	C	-0.236669	-0.342061	-0.341883
C62	C	0.096665	-0.008727	-0.008550
C63	C	0.429998	0.324606	0.324783
C64	C	-0.269384	-0.301931	-0.301886
C65	C	0.063949	0.031402	0.031447
C66	C	0.397282	0.364736	0.364780
C67	C	-0.236659	-0.261809	-0.261881
C68	C	0.096674	0.071525	0.071453
C69	C	0.430008	0.404858	0.404786
C70	C	-0.171225	-0.261813	-0.261883
C71	C	0.162109	0.071520	0.071450
C72	C	0.495442	0.404854	0.404784
C73	C	-0.373070	-0.245467	-0.297038
C74	C	-0.039737	0.087866	0.036295
C75	C	0.293597	0.421199	0.369629
C76	C	-0.438503	-0.245462	-0.297040
C77	C	-0.105169	0.087872	0.036293
C78	C	0.228164	0.421205	0.369627
C79	C	-0.471205	-0.301917	-0.301876
C80	C	-0.137872	0.031416	0.031458
C81	C	0.195462	0.364749	0.364791
C82	C	-0.438466	-0.358380	-0.306722
C83	C	-0.105133	-0.025047	0.026611
C84	C	0.228201	0.308286	0.359944
C85	C	-0.373032	-0.358385	-0.306724
C86	C	-0.039699	-0.025052	0.026609
C87	C	0.293635	0.308282	0.359942
C88	C	-0.340337	-0.301922	-0.301879
C89	C	-0.007003	0.031411	0.031454
C90	C	0.326330	0.364745	0.364788
C91	C	-0.574875	-0.342041	-0.341870
C92	C	-0.241541	-0.008708	-0.008536
C93	C	0.091792	0.324625	0.324797
C94	C	-0.640311	-0.342044	-0.341860
C95	C	-0.306978	-0.008710	-0.008526
C96	C	0.026355	0.324623	0.324807
C97	C	-0.640301	-0.261786	-0.261860
C98	C	-0.306967	0.071547	0.071473
C99	C	0.026366	0.404881	0.404806
C100	C	-0.574865	-0.261790	-0.261867
C101	C	-0.241532	0.071544	0.071466
C102	C	0.091802	0.404877	0.404800
C103	C	-0.542156	-0.301916	-0.301875
C104	C	-0.208823	0.031417	0.031458
C105	C	0.124510	0.364750	0.364792
C106	C	-0.905378	-0.464714	-0.301846
C107	C	-0.572044	-0.131381	0.031488
C108	C	-0.238711	0.201953	0.364821
C109	C	-0.905404	-0.534355	-0.301854
C110	C	-0.572070	-0.201022	0.031480
C111	C	-0.238737	0.132311	0.364813
C112	C	-0.068875	-0.301942	-0.301893
C113	C	0.264459	0.031391	0.031440
C114	C	0.597792	0.364724	0.364773
C115	C	-0.138516	-0.301940	-0.301891
C116	C	0.194817	0.031393	0.031442
C117	C	0.528151	0.364727	0.364776
C118	C	-0.945663	-1.036139	-0.261910
C119	C	-0.612329	-0.702805	0.071424
C120	C	-0.278996	-0.369472	0.404757
C121	C	-0.945639	-0.970703	-0.261895
C122	C	-0.612306	-0.637370	0.071438
C123	C	-0.278972	-0.304036	0.404772
C124	C	-0.905540	-0.937994	-0.301921
C125	C	-0.572207	-0.604660	0.031412
C126	C	-0.238874	-0.271327	0.364746
C127	C	-0.865451	-0.970725	-0.341953
C128	C	-0.532117	-0.637392	-0.008620
C129	C	-0.198784	-0.304058	0.324713
C130	C	-0.865471	-1.036159	-0.341962
C131	C	-0.532138	-0.702826	-0.008629
C132	C	-0.198804	-0.369492	0.324704
C133	C	-0.900532	-0.834303	-0.358351
C134	C	-0.567199	-0.500969	-0.025018
C135	C	-0.233866	-0.167636	0.308315
C136	C	-0.900516	-0.768870	-0.358343
C137	C	-0.567183	-0.435536	-0.025010
C138	C	-0.233850	-0.102203	0.308323
C139	C	-0.905474	-0.736173	-0.301893
C140	C	-0.572140	-0.402840	0.031441
C141	C	-0.238807	-0.069506	0.364774
C142	C	-0.910460	-0.768917	-0.245448
C143	C	-0.577127	-0.435584	0.087885
C144	C	-0.243793	-0.102250	0.421218
C145	C	-0.910480	-0.834351	-0.245457
C146	C	-0.577147	-0.501018	0.087876
C147	C	-0.243814	-0.167685	0.421209
C148	C	-0.905513	-0.867041	-0.301915
C149	C	-0.572180	-0.533708	0.031418
C150	C	-0.238847	-0.200375	0.364751
C151	C	-0.945532	-0.632497	-0.261844
C152	C	-0.612198	-0.299164	0.071489
C153	C	-0.278865	0.034170	0.404823
C154	C	-0.945504	-0.567060	-0.261828
C155	C	-0.612170	-0.233727	0.071505
C156	C	-0.278837	0.099606	0.404839
C157	C	-0.865318	-0.567083	-0.341892
C158	C	-0.531985	-0.233750	-0.008559
C159	C	-0.198652	0.099583	0.324775
C160	C	-0.865343	-0.632519	-0.341902
C161	C	-0.532010	-0.299185	-0.008569
C162	C	-0.198677	0.034148	0.324765
C163	C	-0.905453	-0.665222	-0.301879
C164	C	-0.572120	-0.331888	0.031454
C165	C	-0.238787	0.001445	0.364788
C166	C	-0.905503	-0.301914	-0.465299
C167	C	-0.572170	0.031420	-0.131966
C168	C	-0.238837	0.364753	0.201367
C169	C	-0.905526	-0.301908	-0.534941
C170	C	-0.572192	0.031425	-0.201607
C171	C	-0.238859	0.364758	0.131726
C172	C	-0.905542	-0.138503	-0.301920
C173	C	-0.572209	0.194830	0.031413
C174	C	-0.238876	0.528163	0.364746
C175	C	-0.905581	-0.068862	-0.301939
C176	C	-0.572248	0.264471	0.031394
C177	C	-0.238914	0.597805	0.364728
C178	C	-0.945619	-0.261838	-0.567671
C179	C	-0.612286	0.071495	-0.234338
C180	C	-0.278953	0.404829	0.098996
C181	C	-0.945619	-0.261811	-0.633106
C182	C	-0.612285	0.071522	-0.299773
C183	C	-0.278952	0.404855	0.033560
C184	C	-0.905530	-0.301866	-0.665809
C185	C	-0.572197	0.031468	-0.332476
C186	C	-0.238864	0.364801	0.000858
C187	C	-0.865429	-0.341939	-0.633071
C188	C	-0.532095	-0.008605	-0.299738
C189	C	-0.198762	0.324728	0.033596
C190	C	-0.865426	-0.341960	-0.567637
C191	C	-0.532093	-0.008627	-0.234304
C192	C	-0.198760	0.324707	0.099030
C193	C	-0.900558	-0.358281	-0.769473
C194	C	-0.567224	-0.024947	-0.436140
C195	C	-0.233891	0.308386	-0.102807
C196	C	-0.900564	-0.358261	-0.834906
C197	C	-0.567231	-0.024927	-0.501573
C198	C	-0.233898	0.308406	-0.168240
C199	C	-0.905534	-0.301799	-0.867630
C200	C	-0.572201	0.031534	-0.534297
C201	C	-0.238868	0.364867	-0.200963
C202	C	-0.910510	-0.245357	-0.834913
C203	C	-0.577177	0.087976	-0.501579
C204	C	-0.243844	0.421310	-0.168246
C205	C	-0.910508	-0.245378	-0.769479
C206	C	-0.577175	0.087955	-0.436145
C207	C	-0.243841	0.421288	-0.102812
C208	C	-0.905528	-0.301847	-0.736762
C209	C	-0.572195	0.031487	-0.403428
C210	C	-0.238862	0.364820	-0.070095
C211	C	-0.945629	-0.261697	-0.971313
C212	C	-0.612296	0.071637	-0.637979
C213	C	-0.278963	0.404970	-0.304646
C214	C	-0.945624	-0.261669	-1.036749
C215	C	-0.612291	0.071665	-0.703416
C216	C	-0.278958	0.404998	-0.370083
C217	C	-0.865438	-0.341802	-1.036713
C218	C	-0.532104	-0.008468	-0.703380
C219	C	-0.198771	0.324865	-0.370046
C220	C	-0.865439	-0.341824	-0.971278
C221	C	-0.532106	-0.008491	-0.637944
C222	C	-0.198773	0.324842	-0.304611
C223	C	-0.905539	-0.301772	-0.938581
C224	C	-0.572205	0.031561	-0.605248
C225	C	-0.238872	0.364894	-0.271915
C226	C	-0.905436	-0.301894	-0.139089
C227	C	-0.572102	0.031439	0.194245
C228	C	-0.238769	0.364773	0.527578
C229	C	-0.905535	-0.301723	-0.069448
C230	C	-0.572202	0.031611	0.263886
C231	C	-0.238868	0.364944	0.597219
H232	H	-0.465091	-0.404352	-0.310664
H233	H	-0.131757	-0.071018	0.022669
H234	H	0.201576	0.262315	0.356002
F235	F	-0.895274	-0.418331	-0.869720
F236	F	-0.561941	-0.084998	-0.536387
F237	F	-0.228607	0.248335	-0.203054
H238	H	-0.978267	-0.229178	-0.659760
H239	H	-0.644933	0.104156	-0.326427
H240	H	-0.311600	0.437489	0.006906
F241	F	-0.988216	-0.667304	-0.219245
F242	F	-0.654883	-0.333971	0.114088
F243	F	-0.321550	-0.000637	0.447421
H244	H	-0.914498	-0.742296	-0.199481
H245	H	-0.581165	-0.408963	0.133852
H246	H	-0.247831	-0.075629	0.467185
H247	H	-0.832706	-0.659162	-0.374500
H248	H	-0.499373	-0.325829	-0.041167
H249	H	-0.166039	0.007504	0.292166
F250	F	-0.915801	-0.185310	-0.734661
F251	F	-0.582467	0.148023	-0.401328
F252	F	-0.249134	0.481357	-0.067994
F253	F	-0.988350	-1.070940	-0.219311
F254	F	-0.655017	-0.737606	0.114022
F255	F	-0.321683	-0.404273	0.447355
F256	F	-0.822810	-1.070987	-0.384570
F257	F	-0.489476	-0.737653	-0.051237
F258	F	-0.156143	-0.404320	0.282096
F259	F	-0.822635	-0.532276	-0.384485
F260	F	-0.489302	-0.198942	-0.051151
F261	F	-0.155969	0.134391	0.282182
F262	F	-0.822751	-0.384610	-0.532802
F263	F	-0.489417	-0.051277	-0.199469
F264	F	-0.156084	0.282056	0.133865
H265	H	-0.548226	-0.229118	-0.229298
H266	H	-0.214893	0.104216	0.104035
H267	H	0.118440	0.437549	0.437368
H268	H	-0.978271	-0.229224	-0.541054
H269	H	-0.644937	0.104109	-0.207720
H270	H	-0.311604	0.437443	0.125613
F271	F	-0.136426	-0.384769	-0.384466
F272	F	0.196908	-0.051436	-0.051133
F273	F	0.530241	0.281898	0.282200
H274	H	-0.978141	-0.540417	-0.229228
H275	H	-0.644808	-0.207083	0.104105
H276	H	-0.311474	0.126250	0.437439
H277	H	-0.914558	-0.199381	-0.861555
H278	H	-0.581225	0.133952	-0.528222
H279	H	-0.247892	0.467286	-0.194888
H280	H	-0.832800	-0.944090	-0.374542
H281	H	-0.499467	-0.610756	-0.041209
H282	H	-0.166134	-0.277423	0.292125
F283	F	-0.895214	-0.734027	-0.418416
F284	F	-0.561881	-0.400694	-0.085082
F285	F	-0.228548	-0.067360	0.248251
H286	H	-0.896609	-0.860919	-0.404333
H287	H	-0.563275	-0.527585	-0.071000
H288	H	-0.229942	-0.194252	0.262333
H289	H	-0.832791	-0.374409	-1.063339
H290	H	-0.499457	-0.041075	-0.730006
H291	H	-0.166124	0.292258	-0.396672
H292	H	-0.978277	-0.229081	-0.944690
H293	H	-0.644944	0.104253	-0.611357
H294	H	-0.311611	0.437586	-0.278023
H295	H	-0.263312	-0.374731	-0.374456
H296	H	0.070021	-0.041397	-0.041123
H297	H	0.403354	0.291936	0.292210
F298	F	-0.988307	-0.219025	-1.071583
F299	F	-0.654974	0.114308	-0.738250
F300	F	-0.321641	0.447642	-0.404916
H301	H	-0.832794	-0.374458	-0.944628
H302	H	-0.499461	-0.041124	-0.611295
H303	H	-0.166128	0.292209	-0.277962
F304	F	-0.895282	-0.418380	-0.734652
F305	F	-0.561949	-0.085046	-0.401319
F306	F	-0.228615	0.248287	-0.067986
F307	F	-0.473340	-0.185369	-0.291890
F308	F	-0.140007	0.147964	0.041443
F309	F	0.193327	0.481298	0.374777
H310	H	-0.346379	-0.404359	-0.310669
H311	H	-0.013045	-0.071026	0.022664
H312	H	0.320288	0.262308	0.355997
F313	F	-0.540061	-0.384750	-0.384447
F314	F	-0.206728	-0.051416	-0.051113
F315	F	0.126605	0.281917	0.282220
H316	H	-0.666949	-0.374718	-0.374429
H317	H	-0.333615	-0.041385	-0.041096
H318	H	-0.000282	0.291949	0.292238
F319	F	-0.675114	-0.219082	-0.219287
F320	F	-0.341781	0.114252	0.114046
F321	F	-0.008448	0.447585	0.447379
H322	H	-0.346449	-0.199492	-0.293090
H323	H	-0.013116	0.133842	0.040244
H324	H	0.320217	0.467175	0.373577
F325	F	-0.271478	-0.219102	-0.219311
F326	F	0.061855	0.114232	0.114022
F327	F	0.395189	0.447565	0.447355
F328	F	-0.136404	-0.219110	-0.219310
F329	F	0.196930	0.114224	0.114023
F330	F	0.530263	0.447557	0.447356
H331	H	-0.978279	-0.944055	-0.229297
H332	H	-0.644946	-0.610722	0.104037
H333	H	-0.311613	-0.277388	0.437370
H334	H	-0.832787	-0.374549	-0.659702
H335	H	-0.499453	-0.041216	-0.326369
H336	H	-0.166120	0.292117	0.006965
H337	H	-0.914539	-0.861009	-0.199498
H338	H	-0.581206	-0.527675	0.133835
H339	H	-0.247872	-0.194342	0.467168
