data_functionalizedCrystal
_audit_creation_method	'MofGen! by Chris Wilmer'
_symmetry_space_group_name_H-M	'P1'
_symmetry_Int_Tables_number	1
_symmetry_cell_setting	triclinic
loop_
_symmetry_equiv_pos_as_xyz
  x,y,z
_cell_length_a	17.077404
_cell_length_b	13.897447
_cell_length_c	17.077396
_cell_angle_alpha	89.976703
_cell_angle_beta	90.019501
_cell_angle_gamma	89.978579
loop_
_atom_site_label
_atom_site_type_symbol
_atom_site_fract_x
_atom_site_fract_y
_atom_site_fract_z
Zn1	Zn	1.200064	0.384009	0.443871
Zn2	Zn	1.199975	0.545322	0.312617
Zn3	Zn	1.068796	0.384043	0.312619
Zn4	Zn	1.068768	0.545264	0.443840
O5	O	1.134400	0.464660	0.378237
O6	O	1.309899	0.405417	0.426472
O7	O	1.182548	0.523966	0.202770
O8	O	1.086258	0.249057	0.330043
O9	O	1.309834	0.523933	0.330040
O10	O	1.182700	0.249032	0.426474
O11	O	1.086171	0.405475	0.202772
O12	O	0.958945	0.405420	0.330014
O13	O	1.086210	0.523835	0.553691
O14	O	0.958924	0.523868	0.426422
O15	O	1.182673	0.405362	0.553714
O16	O	1.182521	0.680296	0.330010
O17	O	1.086123	0.680254	0.426420
C18	C	0.930453	0.464642	0.378215
C19	C	0.843203	0.464658	0.378224
C20	C	0.802222	0.526427	0.428344
C21	C	0.720242	0.526429	0.428356
C22	C	0.679243	0.464666	0.378245
C23	C	0.720230	0.402890	0.328124
C24	C	0.802208	0.402884	0.328116
C25	C	0.549359	0.402909	0.328143
C26	C	0.467375	0.402916	0.328149
C27	C	0.467393	0.526454	0.428383
C28	C	0.549372	0.526448	0.428375
C29	C	0.590352	0.464673	0.378252
C30	C	1.134331	0.715274	0.378229
C31	C	1.134373	0.822488	0.378251
C32	C	1.134409	0.909558	0.378273
C33	C	1.134461	1.018790	0.378297
C34	C	1.339145	0.464678	0.378259
C35	C	1.426394	0.464686	0.378268
C36	C	1.134448	0.464588	0.582981
C37	C	1.134468	0.464558	0.670231
C38	C	1.134486	1.213067	0.378272
C39	C	1.134507	1.105853	0.378313
C40	C	1.134398	0.464661	0.174289
C41	C	1.134530	0.464419	0.087040
C42	C	1.184698	0.402864	0.711234
C43	C	1.184708	0.402832	0.793215
C44	C	1.134490	0.464500	0.834191
C45	C	1.084255	0.526197	0.793182
C46	C	1.084242	0.526223	0.711203
C47	C	1.084287	0.526139	0.964052
C48	C	1.084300	0.526114	1.046036
C49	C	1.184752	0.402747	1.046064
C50	C	1.184739	0.402774	0.964085
C51	C	1.134505	0.464472	0.923082
H52	H	0.582751	0.576746	0.469176
C53	C	1.239965	0.334973	0.838315
H54	H	1.269877	0.298259	0.802170
H55	H	1.209962	0.292927	0.870294
H56	H	1.274159	0.371873	0.870296
H57	H	0.434023	0.576751	0.469197
H58	H	0.835574	0.352580	0.287308
H59	H	1.043364	0.576404	0.826551
H60	H	0.835598	0.576725	0.469147
C61	C	1.240018	0.334891	1.091164
H62	H	1.232833	0.343702	1.145856
H63	H	1.292748	0.349034	1.077732
H64	H	1.228561	0.270076	1.077737
H65	H	1.225635	0.352564	0.930724
H66	H	1.043407	0.576327	1.079397
H67	H	1.043332	0.576451	0.677819
H68	H	0.686879	0.576729	0.469167
C69	C	1.029055	0.594037	0.918950
H70	H	0.999162	0.630778	0.955093
H71	H	0.994853	0.557178	0.886953
H72	H	1.059093	0.636071	0.886986
H73	H	0.582723	0.352597	0.287335
C74	C	0.422277	0.334969	0.273037
H75	H	0.458424	0.298166	0.243193
H76	H	0.390272	0.371810	0.238784
H77	H	0.390323	0.292995	0.303138
C78	C	0.675137	0.334948	0.273003
H79	H	0.711287	0.298153	0.243158
H80	H	0.643132	0.371793	0.238753
H81	H	0.643182	0.292967	0.303097
H82	H	1.225593	0.352650	0.677877
