data_functionalizedCrystal
_audit_creation_method	'MofGen! by Chris Wilmer'
_symmetry_space_group_name_H-M	'P1'
_symmetry_Int_Tables_number	1
_symmetry_cell_setting	triclinic
loop_
_symmetry_equiv_pos_as_xyz
  x,y,z
_cell_length_a	16.992694
_cell_length_b	15.995300
_cell_length_c	16.053802
_cell_angle_alpha	92.569602
_cell_angle_beta	87.249047
_cell_angle_gamma	87.070015
loop_
_atom_site_label
_atom_site_type_symbol
_atom_site_fract_x
_atom_site_fract_y
_atom_site_fract_z
O1	O	1.043664	0.174246	-0.069311
O2	O	0.815380	0.172297	-0.069335
O3	O	0.935783	0.051800	-0.069327
O4	O	0.923261	0.294744	-0.069320
O5	O	0.929156	0.058404	0.069532
O6	O	0.808753	0.178901	0.069523
O7	O	1.037037	0.180850	0.069548
Zn8	Zn	0.921843	0.180924	0.091582
Zn9	Zn	0.930574	0.172224	-0.091370
O10	O	0.916634	0.301347	0.069539
C11	C	0.782855	0.173093	0.000090
C12	C	0.695812	0.165616	0.000081
C13	C	0.645559	0.237753	0.000083
C14	C	0.563774	0.230724	0.000095
C15	C	0.532242	0.151557	0.000097
C16	C	0.582501	0.079415	0.000097
C17	C	0.664285	0.086446	0.000092
C18	C	0.288648	0.122419	0.000119
C19	C	0.206858	0.115394	0.000122
C20	C	0.188136	0.266703	0.000121
C21	C	0.269922	0.273726	0.000110
C22	C	0.320174	0.201585	0.000115
N23	N	0.448644	0.144370	0.000106
N24	N	0.403770	0.208773	0.000112
C25	C	0.931959	0.023872	0.000100
C26	C	0.930428	-0.069183	0.000091
C27	C	0.927600	-0.239555	0.000099
C28	C	1.013330	-0.281284	0.000107
C29	C	1.011751	-0.378061	0.000425
C30	C	0.924817	-0.407298	0.000106
C31	C	0.878507	-0.365246	0.079240
C32	C	0.880673	-0.268465	0.079303
C33	C	0.886940	-0.275784	-0.078611
C34	C	0.886998	-0.372777	-0.079648
C35	C	0.923239	-0.502098	0.000113
C36	C	0.929175	-0.144754	0.000098
C37	C	1.069563	0.180054	0.000120
C38	C	1.156605	0.187530	0.000124
C39	C	0.920458	0.329275	0.000111
C40	C	0.921989	0.422330	0.000114
N41	N	0.915889	0.186861	0.216442
N42	N	0.936534	0.166280	-0.216230
C43	C	0.967140	0.135610	0.260140
C44	C	0.962982	0.139772	0.347546
C45	C	0.907578	0.195190	0.391253
C46	C	0.856322	0.246443	0.347549
C47	C	0.860476	0.242276	0.260145
C48	C	0.889432	0.213366	0.652662
C49	C	0.885284	0.217531	0.740073
C50	C	0.991943	0.110858	0.740063
C51	C	0.996096	0.106700	0.652657
C52	C	0.944837	0.157950	0.608960
N53	N	0.903329	0.199447	0.480597
N54	N	0.949083	0.153688	0.519619
H55	H	1.047879	-0.406987	-0.056288
H56	H	0.671225	0.302219	0.000081
H57	H	0.847697	0.255098	0.617091
N58	N	0.512437	0.304407	0.000118
N59	N	0.461939	0.320148	0.058666
H60	H	0.425683	0.372192	0.058690
N61	N	1.050076	-0.406823	0.072004
N62	N	1.109500	-0.456361	0.062942
H63	H	1.136568	-0.476676	0.113499
N64	N	1.023724	0.078999	0.215485
N65	N	1.027426	0.075282	0.137446
H66	H	1.067388	0.035297	0.105909
N67	N	0.799715	0.303045	0.392182
N68	N	0.727710	0.296531	0.382428
H69	H	0.687729	0.336508	0.413948
H70	H	0.823848	-0.392602	-0.084671
N71	N	0.929480	-0.408045	-0.153048
N72	N	0.961939	-0.361292	-0.203093
H73	H	0.991952	-0.386241	-0.254911
N74	N	0.550308	-0.001458	0.000109
N75	N	0.562928	-0.048542	0.058642
H76	H	0.540193	-0.105661	0.058649
N77	N	0.302116	0.354600	0.000097
N78	N	0.257238	0.419002	0.000094
H79	H	0.279973	0.476121	0.000079
N80	N	1.052677	0.050086	0.608001
N81	N	1.056376	0.046373	0.529962
H82	H	1.096338	0.006389	0.498421
N83	N	0.798199	-0.388138	0.082663
N84	N	0.771601	-0.425800	0.143599
H85	H	0.714882	-0.441966	0.146017
H86	H	0.904872	-0.388834	0.138360
H87	H	1.044590	-0.256650	0.056734
N88	N	0.136794	0.340381	0.000116
N89	N	0.063774	0.334097	0.000119
H90	H	0.027512	0.386135	0.000118
H91	H	1.004714	0.098039	0.383124
H92	H	0.181189	0.050924	0.000123
N93	N	0.925948	-0.251278	-0.153874
N94	N	0.984196	-0.206808	-0.150414
H95	H	1.011755	-0.189502	-0.203565
H96	H	1.033675	0.069132	0.775649
H97	H	0.329554	0.063676	0.000123
N98	N	0.828677	0.274141	0.784707
N99	N	0.782911	0.319890	0.745684
H100	H	0.742932	0.359867	0.777207
H101	H	0.818742	0.284009	0.224567
H102	H	0.705201	0.027704	0.000089
H103	H	0.908492	-0.245269	0.138688
N104	N	1.059956	-0.258551	-0.071053
N105	N	1.121537	-0.220480	-0.061337
H106	H	1.154467	-0.204412	-0.111593
N107	N	0.801504	-0.233051	0.083517
N108	N	0.755896	-0.251228	0.027429
H109	H	0.699984	-0.226218	0.030408
N110	N	0.807696	-0.241260	-0.079569
N111	N	0.781192	-0.190194	-0.022596
H112	H	0.725228	-0.165807	-0.023266
