data_functionalizedCrystal
_audit_creation_method	'MofGen! by Chris Wilmer'
_symmetry_space_group_name_H-M	'P1'
_symmetry_Int_Tables_number	1
_symmetry_cell_setting	triclinic
loop_
_symmetry_equiv_pos_as_xyz
  x,y,z
_cell_length_a	19.121414
_cell_length_b	19.120786
_cell_length_c	19.121242
_cell_angle_alpha	89.925866
_cell_angle_beta	90.121862
_cell_angle_gamma	95.006361
loop_
_atom_site_label
_atom_site_type_symbol
_atom_site_fract_x
_atom_site_fract_y
_atom_site_fract_z
Zn1	Zn	1.077614	-0.248194	0.340649
Zn2	Zn	1.327614	0.001806	0.590649
Zn3	Zn	1.577614	0.251806	0.840649
Zn4	Zn	1.827614	0.501806	1.090649
Zn5	Zn	1.067536	-0.360890	0.218817
Zn6	Zn	1.317536	-0.110890	0.468817
Zn7	Zn	1.567536	0.139110	0.718817
Zn8	Zn	1.817536	0.389110	0.968817
Zn9	Zn	0.955370	-0.248644	0.228398
Zn10	Zn	1.205370	0.001356	0.478398
Zn11	Zn	1.455370	0.251356	0.728398
Zn12	Zn	1.705370	0.501356	0.978398
Zn13	Zn	0.954896	-0.370849	0.340595
Zn14	Zn	1.204896	-0.120849	0.590595
Zn15	Zn	1.454896	0.129151	0.840595
Zn16	Zn	1.704896	0.379151	1.090595
O17	O	1.013854	-0.307144	0.282115
O18	O	1.263854	-0.057144	0.532115
O19	O	1.513854	0.192856	0.782115
O20	O	1.763854	0.442856	1.032115
O21	O	1.174577	-0.258788	0.320500
O22	O	1.424577	-0.008788	0.570500
O23	O	1.674577	0.241212	0.820500
O24	O	1.924577	0.491212	1.070500
O25	O	1.048637	-0.342021	0.122146
O26	O	1.298637	-0.092021	0.372146
O27	O	1.548637	0.157979	0.622146
O28	O	1.798637	0.407979	0.872146
O29	O	0.976003	-0.150278	0.247320
O30	O	1.226003	0.099722	0.497320
O31	O	1.476003	0.349722	0.747320
O32	O	1.726003	0.599722	0.997320
O33	O	1.167172	-0.341585	0.230991
O34	O	1.417172	-0.091585	0.480991
O35	O	1.667172	0.158415	0.730991
O36	O	1.917172	0.408415	0.980991
O37	O	1.065815	-0.149947	0.329790
O38	O	1.315815	0.100053	0.579790
O39	O	1.565815	0.350053	0.829790
O40	O	1.815815	0.600053	1.079790
O41	O	0.966230	-0.259554	0.129185
O42	O	1.216230	-0.009554	0.379185
O43	O	1.466230	0.240446	0.629185
O44	O	1.716230	0.490446	0.879185
O45	O	0.857008	-0.269211	0.247269
O46	O	1.107008	-0.019211	0.497269
O47	O	1.357008	0.230789	0.747269
O48	O	1.607008	0.480789	0.997269
O49	O	0.975195	-0.358558	0.438544
O50	O	1.225195	-0.108558	0.688544
O51	O	1.475195	0.141442	0.938544
O52	O	1.725195	0.391442	1.188544
O53	O	0.856660	-0.358994	0.329699
O54	O	1.106660	-0.108994	0.579699
O55	O	1.356660	0.141006	0.829699
O56	O	1.606660	0.391006	1.079699
O57	O	1.065355	-0.268444	0.438583
O58	O	1.315355	-0.018444	0.688583
O59	O	1.565355	0.231556	0.938583
O60	O	1.815355	0.481556	1.188583
O61	O	1.048177	-0.460518	0.230939
O62	O	1.298177	-0.210518	0.480939
O63	O	1.548177	0.039482	0.730939
O64	O	1.798177	0.289482	0.980939
O65	O	0.965422	-0.467834	0.320409
O66	O	1.215422	-0.217834	0.570409
O67	O	1.465422	0.032166	0.820409
O68	O	1.715422	0.282166	1.070409
C69	C	0.831346	-0.315232	0.289518
C70	C	1.081346	-0.065232	0.539518
C71	C	1.331346	0.184768	0.789518
C72	C	1.581346	0.434768	1.039518
C73	C	0.753268	-0.318710	0.292701
C74	C	1.003268	-0.068710	0.542701
C75	C	1.253268	0.181290	0.792701
C76	C	1.503268	0.431290	1.042701
C77	C	0.716754	-0.273534	0.251356
C78	C	0.966754	-0.023534	0.501356
C79	C	1.216754	0.226466	0.751356
C80	C	1.466754	0.476466	1.001356
C81	C	0.643391	-0.276808	0.254346
C82	C	0.893391	-0.026808	0.504346
C83	C	1.143391	0.223192	0.754346
C84	C	1.393391	0.473192	1.004346
C85	C	0.606545	-0.325255	0.298686
C86	C	0.856545	-0.075255	0.548686
C87	C	1.106545	0.174745	0.798686
C88	C	1.356545	0.424745	1.048686
C89	C	0.643064	-0.370436	0.340033
C90	C	0.893064	-0.120436	0.590033
C91	C	1.143064	0.129564	0.840033
C92	C	1.393064	0.379564	1.090033
C93	C	0.716425	-0.367165	0.337039
C94	C	0.966425	-0.117165	0.587039
C95	C	1.216425	0.132835	0.837039
C96	C	1.466425	0.382835	1.087039
C97	C	0.385033	-0.337475	0.309868
C98	C	0.635033	-0.087475	0.559868
C99	C	0.885033	0.162525	0.809868
C100	C	1.135033	0.412525	1.059868
C101	C	0.311667	-0.340741	0.312861
C102	C	0.561667	-0.090741	0.562861
C103	C	0.811667	0.159259	0.812861
C104	C	1.061667	0.409259	1.062861
C105	C	0.311999	-0.247114	0.227173
C106	C	0.561999	0.002886	0.477173
C107	C	0.811999	0.252886	0.727173
C108	C	1.061999	0.502886	0.977173
C109	C	0.385362	-0.243844	0.224185
C110	C	0.635362	0.006156	0.474185
C111	C	0.885362	0.256156	0.724185
C112	C	1.135362	0.506156	0.974185
C113	C	0.421875	-0.289028	0.265529
C114	C	0.671875	-0.039028	0.515529
C115	C	0.921875	0.210972	0.765529
C116	C	1.171875	0.460972	1.015529
C117	C	0.531556	-0.328601	0.301746
C118	C	0.781556	-0.078601	0.551746
C119	C	1.031556	0.171399	0.801746
C120	C	1.281556	0.421399	1.051746
C121	C	0.496861	-0.285685	0.262466
C122	C	0.746861	-0.035685	0.512466
C123	C	0.996861	0.214315	0.762466
C124	C	1.246861	0.464315	1.012466
C125	C	1.005674	-0.489666	0.274643
C126	C	1.255674	-0.239666	0.524643
C127	C	1.505674	0.010334	0.774643
C128	C	1.755674	0.260334	1.024643
C129	C	1.002240	-0.567747	0.271468
C130	C	1.252240	-0.317747	0.521468
C131	C	1.502240	-0.067747	0.771468
C132	C	1.752240	0.182253	1.021468
C133	C	1.047355	-0.604201	0.312951
C134	C	1.297355	-0.354201	0.562951
C135	C	1.547355	-0.104201	0.812951
C136	C	1.797355	0.145799	1.062951
C137	C	1.044125	-0.677567	0.309969
C138	C	1.294125	-0.427567	0.559969
C139	C	1.544125	-0.177567	0.809969
C140	C	1.794125	0.072433	1.059969
C141	C	0.995784	-0.714478	0.265498
C142	C	1.245784	-0.464478	0.515498
C143	C	1.495784	-0.214478	0.765498
C144	C	1.745784	0.035522	1.015498
C145	C	0.950664	-0.678020	0.224013
C146	C	1.200664	-0.428020	0.474013
C147	C	1.450664	-0.178020	0.724013
C148	C	1.700664	0.071980	0.974013
C149	C	0.953891	-0.604655	0.227000
C150	C	1.203891	-0.354655	0.477000
C151	C	1.453891	-0.104655	0.727000
C152	C	1.703891	0.145345	0.977000
C153	C	0.983701	-0.936003	0.254334
C154	C	1.233701	-0.686003	0.504334
C155	C	1.483701	-0.436003	0.754334
C156	C	1.733701	-0.186003	1.004334
C157	C	0.980479	-1.009373	0.251349
C158	C	1.230479	-0.759373	0.501349
C159	C	1.480479	-0.509373	0.751349
C160	C	1.730479	-0.259373	1.001349
C161	C	1.073939	-1.008915	0.337306
C162	C	1.323939	-0.758915	0.587306
C163	C	1.573939	-0.508915	0.837306
C164	C	1.823939	-0.258915	1.087306
C165	C	1.077165	-0.935549	0.340285
C166	C	1.327165	-0.685549	0.590285
C167	C	1.577165	-0.435549	0.840285
C168	C	1.827165	-0.185549	1.090285
C169	C	1.032043	-0.899097	0.298803
C170	C	1.282043	-0.649097	0.548803
C171	C	1.532043	-0.399097	0.798803
C172	C	1.782043	-0.149097	1.048803
C173	C	0.992483	-0.789470	0.262447
C174	C	1.242483	-0.539470	0.512447
C175	C	1.492483	-0.289470	0.762447
C176	C	1.742483	-0.039470	1.012447
C177	C	1.035340	-0.824107	0.301858
C178	C	1.285340	-0.574107	0.551858
C179	C	1.535340	-0.324107	0.801858
C180	C	1.785340	-0.074107	1.051858
C181	C	1.197075	-0.299025	0.274683
C182	C	1.447075	-0.049025	0.524683
C183	C	1.697075	0.200975	0.774683
C184	C	1.947075	0.450975	1.024683
C185	C	1.275153	-0.295565	0.271516
C186	C	1.525153	-0.045565	0.521516
C187	C	1.775153	0.204435	0.771516
C188	C	2.025153	0.454435	1.021516
C189	C	1.021346	-0.314562	0.464669
C190	C	1.271346	-0.064562	0.714669
C191	C	1.521346	0.185438	0.964669
C192	C	1.771346	0.435438	1.214669
C193	C	1.024539	-0.317722	0.542463
C194	C	1.274539	-0.067722	0.792463
C195	C	1.524539	0.182278	1.042463
C196	C	1.774539	0.432278	1.292463
C197	C	1.022086	-0.123910	0.289630
C198	C	1.272086	0.126090	0.539630
C199	C	1.522086	0.376090	0.789630
C200	C	1.772086	0.626090	1.039630
C201	C	1.025594	-0.045826	0.292833
C202	C	1.275594	0.204174	0.542833
C203	C	1.525594	0.454174	0.792833
C204	C	1.775594	0.704174	1.042833
C205	C	1.006434	-0.299703	0.100271
C206	C	1.256434	-0.049703	0.350271
C207	C	1.506434	0.200297	0.600271
C208	C	1.756434	0.450297	0.850271
C209	C	1.003386	-0.296338	0.022480
C210	C	1.253386	-0.046338	0.272480
C211	C	1.503386	0.203662	0.522480
C212	C	1.753386	0.453662	0.772480
C213	C	1.044785	-0.337787	0.982262
C214	C	1.294785	-0.087787	1.232262
C215	C	1.544785	0.162213	1.482262
C216	C	1.794785	0.412213	1.732262
C217	C	1.041775	-0.334813	0.909167
C218	C	1.291775	-0.084813	1.159167
C219	C	1.541775	0.165187	1.409167
C220	C	1.791775	0.415187	1.659167
C221	C	0.997370	-0.290387	0.876292
C222	C	1.247370	-0.040387	1.126292
C223	C	1.497370	0.209613	1.376292
C224	C	1.747370	0.459613	1.626292
C225	C	0.955966	-0.248937	0.916516
C226	C	1.205966	0.001063	1.166516
C227	C	1.455966	0.251063	1.416516
C228	C	1.705966	0.501063	1.666516
C229	C	0.958973	-0.251915	0.989609
C230	C	1.208973	-0.001915	1.239609
C231	C	1.458973	0.248085	1.489609
C232	C	1.708973	0.498085	1.739609
C233	C	0.986142	-0.279250	0.655780
C234	C	1.236142	-0.029250	0.905780
C235	C	1.486142	0.220750	1.155780
C236	C	1.736142	0.470750	1.405780
C237	C	0.983140	-0.276274	0.582681
C238	C	1.233140	-0.026274	0.832681
C239	C	1.483140	0.223726	1.082681
C240	C	1.733140	0.473726	1.332681
C241	C	1.068948	-0.362152	0.575337
C242	C	1.318948	-0.112152	0.825337
C243	C	1.568948	0.137848	1.075337
C244	C	1.818948	0.387848	1.325337
C245	C	1.071954	-0.365123	0.648433
C246	C	1.321954	-0.115123	0.898433
C247	C	1.571954	0.134877	1.148433
C248	C	1.821954	0.384877	1.398433
C249	C	1.030548	-0.323675	0.688650
C250	C	1.280548	-0.073675	0.938650
C251	C	1.530548	0.176325	1.188650
C252	C	1.780548	0.426325	1.438650
C253	C	0.994294	-0.287344	0.801577
C254	C	1.244294	-0.037344	1.051577
C255	C	1.494294	0.212656	1.301577
C256	C	1.744294	0.462656	1.551577
C257	C	1.033621	-0.326722	0.763363
C258	C	1.283621	-0.076722	1.013363
C259	C	1.533621	0.173278	1.263363
C260	C	1.783621	0.423278	1.513363
H261	H	0.746154	-0.403952	0.370707
H262	H	0.996154	-0.153952	0.620707
H263	H	1.246154	0.096048	0.870707
H264	H	1.496154	0.346048	1.120707
H265	H	0.613057	-0.409885	0.376133
H266	H	0.863057	-0.159885	0.626133
H267	H	1.113057	0.090115	0.876133
H268	H	1.363057	0.340115	1.126133
H269	H	1.108114	-0.401300	0.675194
H270	H	1.358114	-0.151300	0.925194
H271	H	1.608114	0.098700	1.175194
H272	H	1.858114	0.348700	1.425194
H273	H	0.414753	-0.374267	0.343534
H274	H	0.664753	-0.124267	0.593534
H275	H	0.914753	0.125733	0.843534
H276	H	1.164753	0.375733	1.093534
H277	H	0.415357	-0.204398	0.188074
H278	H	0.665357	0.045602	0.438074
H279	H	0.915357	0.295602	0.688074
H280	H	1.165357	0.545602	0.938074
H281	H	0.526865	-0.246242	0.226362
H282	H	0.776865	0.003758	0.476362
H283	H	1.026865	0.253758	0.726362
H284	H	1.276865	0.503758	0.976362
H285	H	0.917153	-0.574976	0.193221
H286	H	1.167153	-0.324976	0.443221
H287	H	1.417153	-0.074976	0.693221
H288	H	1.667153	0.175024	0.943221
H289	H	1.074698	-0.794052	0.338069
H290	H	1.324698	-0.544052	0.588069
H291	H	1.574698	-0.294052	0.838069
H292	H	1.824698	-0.044052	1.088069
H293	H	1.110674	-1.038602	0.371079
H294	H	1.360674	-0.788602	0.621079
H295	H	1.610674	-0.538602	0.871079
H296	H	1.860674	-0.288602	1.121079
H297	H	1.075478	-0.368574	0.876424
H298	H	1.325478	-0.118574	1.126424
H299	H	1.575478	0.131426	1.376424
H300	H	1.825478	0.381426	1.626424
H301	H	0.501548	-0.368046	0.337848
H302	H	0.751548	-0.118046	0.587848
H303	H	1.001548	0.131954	0.837848
H304	H	1.251548	0.381954	1.087848
H305	H	1.086723	-0.574152	0.349160
H306	H	1.336723	-0.324152	0.599160
H307	H	1.586723	-0.074152	0.849160
H308	H	1.836723	0.175848	1.099160
H309	H	0.946981	-0.240092	0.555917
H310	H	1.196981	0.009908	0.805917
H311	H	1.446981	0.259908	1.055917
H312	H	1.696981	0.509908	1.305917
H313	H	0.953125	-0.819531	0.226237
H314	H	1.203125	-0.569531	0.476237
H315	H	1.453125	-0.319531	0.726237
H316	H	1.703125	-0.069531	0.976237
H317	H	1.080949	-0.373960	1.009023
H318	H	1.330949	-0.123960	1.259023
H319	H	1.580949	0.126040	1.509023
H320	H	1.830949	0.376040	1.759023
H321	H	1.102658	-0.395896	0.542584
H322	H	1.352658	-0.145896	0.792584
H323	H	1.602658	0.104104	1.042584
H324	H	1.852658	0.354104	1.292584
H325	H	0.946962	-0.906330	0.220556
H326	H	1.196962	-0.656330	0.470556
H327	H	1.446962	-0.406330	0.720556
H328	H	1.696962	-0.156330	0.970556
H329	H	1.116528	-0.905497	0.376496
H330	H	1.366528	-0.655497	0.626496
H331	H	1.616528	-0.405497	0.876496
H332	H	1.866528	-0.155497	1.126496
H333	H	1.080868	-0.707244	0.343743
H334	H	1.330868	-0.457244	0.593743
H335	H	1.580868	-0.207244	0.843743
H336	H	1.830868	0.042756	1.093743
H337	H	0.941110	-1.039424	0.215136
H338	H	1.191110	-0.789424	0.465136
H339	H	1.441110	-0.539424	0.715136
H340	H	1.691110	-0.289424	0.965136
H341	H	0.281669	-0.380192	0.348973
H342	H	0.531669	-0.130192	0.598973
H343	H	0.781669	0.119808	0.848973
H344	H	1.031669	0.369808	1.098973
H345	H	0.911301	-0.708079	0.187808
H346	H	1.161301	-0.458079	0.437808
H347	H	1.411301	-0.208079	0.687808
H348	H	1.661301	0.041921	0.937808
H349	H	0.952425	-0.245502	0.688517
H350	H	1.202425	0.004498	0.938517
H351	H	1.452425	0.254498	1.188517
H352	H	1.702425	0.504498	1.438517
H353	H	0.919807	-0.212767	0.889744
H354	H	1.169807	0.037233	1.139744
H355	H	1.419807	0.287233	1.389744
H356	H	1.669807	0.537233	1.639744
H357	H	0.925262	-0.218162	1.022355
H358	H	1.175262	0.031838	1.272355
H359	H	1.425262	0.281838	1.522355
H360	H	1.675262	0.531838	1.772355
H361	H	1.069774	-0.362895	0.790133
H362	H	1.319774	-0.112895	1.040133
H363	H	1.569774	0.137105	1.290133
H364	H	1.819774	0.387105	1.540133
H365	H	0.958139	-0.251171	0.774802
H366	H	1.208139	-0.001171	1.024802
H367	H	1.458139	0.248829	1.274802
H368	H	1.708139	0.498829	1.524802
H369	H	0.746750	-0.234078	0.215255
H370	H	0.996750	0.015922	0.465255
H371	H	1.246750	0.265922	0.715255
H372	H	1.496750	0.515922	0.965255
H373	H	0.613664	-0.240024	0.220674
H374	H	0.863664	0.009976	0.470674
H375	H	1.113664	0.259976	0.720674
H376	H	1.363664	0.509976	0.970674
H377	H	0.282263	-0.210329	0.193512
H378	H	0.532263	0.039671	0.443512
H379	H	0.782263	0.289671	0.693512
H380	H	1.032263	0.539671	0.943512
