data_functionalizedCrystal
_audit_creation_method	'MofGen! by Chris Wilmer'
_symmetry_space_group_name_H-M	'P1'
_symmetry_Int_Tables_number	1
_symmetry_cell_setting	triclinic
loop_
_symmetry_equiv_pos_as_xyz
  x,y,z
_cell_length_a	25.639242
_cell_length_b	25.639239
_cell_length_c	16.625539
_cell_angle_alpha	90.031810
_cell_angle_beta	90.029355
_cell_angle_gamma	90.034811
loop_
_atom_site_label
_atom_site_type_symbol
_atom_site_fract_x
_atom_site_fract_y
_atom_site_fract_z
Zn1	Zn	0.799260	-0.208212	0.456079
Zn2	Zn	1.299260	0.291788	0.956079
Zn3	Zn	0.799172	-0.295650	0.321238
Zn4	Zn	1.299172	0.204350	0.821238
Zn5	Zn	0.711825	-0.208224	0.321238
Zn6	Zn	1.211825	0.291776	0.821238
Zn7	Zn	0.711781	-0.295612	0.456007
Zn8	Zn	1.211781	0.204388	0.956007
O9	O	0.755509	-0.251924	0.388640
O10	O	1.255509	0.248076	0.888640
O11	O	0.872413	-0.219822	0.438221
O12	O	1.372413	0.280178	0.938221
O13	O	0.787567	-0.284074	0.208405
O14	O	1.287567	0.215926	0.708405
O15	O	0.723480	-0.135057	0.339156
O16	O	1.223480	0.364943	0.839156
O17	O	0.872349	-0.284063	0.339154
O18	O	1.372349	0.215937	0.839154
O19	O	0.787717	-0.135048	0.438222
O20	O	1.287717	0.364952	0.938222
O21	O	0.723394	-0.219842	0.208406
O22	O	1.223394	0.280158	0.708406
O23	O	0.638654	-0.219805	0.339086
O24	O	1.138654	0.280195	0.839086
O25	O	0.723403	-0.283997	0.568849
O26	O	1.223403	0.216003	1.068849
O27	O	0.638621	-0.284008	0.438100
O28	O	1.138621	0.215992	0.938100
O29	O	0.787674	-0.219785	0.568902
O30	O	1.287674	0.280215	1.068902
O31	O	0.787523	-0.368810	0.339085
O32	O	1.287523	0.131190	0.839085
O33	O	0.723317	-0.368782	0.438099
O34	O	1.223317	0.131218	0.938099
C35	C	0.619667	-0.251904	0.388586
C36	C	1.119667	0.248096	0.888586
C37	C	0.561553	-0.251908	0.388581
C38	C	1.061553	0.248092	0.888581
C39	C	0.201181	-0.285411	0.440148
C40	C	0.701181	0.214589	0.940148
C41	C	0.146577	-0.285414	0.440161
C42	C	0.646577	0.214586	0.940161
O43	O	0.118333	-0.313875	0.483958
O44	O	0.618333	0.186125	0.983958
N45	N	0.119270	-0.251939	0.388693
N46	N	0.619270	0.248061	0.888693
C47	C	0.146571	-0.218454	0.337215
C48	C	0.646571	0.281546	0.837215
O49	O	0.118330	-0.189981	0.293439
O50	O	0.618330	0.310019	0.793439
C51	C	0.201174	-0.218449	0.337207
C52	C	0.701174	0.281551	0.837207
C53	C	0.228478	-0.251930	0.388672
C54	C	0.728478	0.248070	0.888672
C55	C	0.228485	-0.318889	0.491610
C56	C	0.728485	0.181111	0.991610
C57	C	0.283086	-0.318887	0.491596
C58	C	0.783086	0.181113	0.991596
C59	C	0.310383	-0.285406	0.440120
C60	C	0.810383	0.214594	0.940120
C61	C	0.283078	-0.251928	0.388658
C62	C	0.783078	0.248072	0.888658
C63	C	0.228473	-0.184962	0.285734
C64	C	0.728473	0.315038	0.785734
C65	C	0.283080	-0.184959	0.285730
C66	C	0.783080	0.315041	0.785730
C67	C	0.310384	-0.218440	0.337196
C68	C	0.810384	0.281560	0.837196
C69	C	0.364976	-0.218444	0.337169
C70	C	0.864976	0.281556	0.837169
N71	N	0.392282	-0.251919	0.388636
N72	N	0.892282	0.248081	0.888636
C73	C	0.364986	-0.285400	0.440112
C74	C	0.864986	0.214600	0.940112
C75	C	0.031900	-0.218468	0.337237
C76	C	0.531900	0.281532	0.837237
C77	C	-0.022702	-0.218475	0.337240
C78	C	0.477298	0.281525	0.837240
C79	C	-0.022692	-0.285435	0.440187
C80	C	0.477308	0.214565	0.940187
C81	C	0.031911	-0.285429	0.440179
C82	C	0.531911	0.214571	0.940179
C83	C	0.059207	-0.251943	0.388705
C84	C	0.559207	0.248057	0.888705
C85	C	0.479651	-0.285393	0.440078
C86	C	0.979651	0.214607	0.940078
C87	C	0.534256	-0.285388	0.440057
C88	C	1.034256	0.214612	0.940057
C89	C	0.534241	-0.218427	0.337114
C90	C	1.034241	0.281573	0.837114
C91	C	0.479641	-0.218433	0.337131
C92	C	0.979641	0.281567	0.837131
C93	C	0.452347	-0.251917	0.388620
C94	C	0.952347	0.248083	0.888620
O95	O	0.393254	-0.189997	0.293396
O96	O	0.893254	0.310003	0.793396
O97	O	0.393233	-0.313864	0.483888
O98	O	0.893233	0.186136	0.983888
C99	C	0.755420	-0.387767	0.388601
C100	C	1.255420	0.112233	0.888601
C101	C	0.755430	-0.445881	0.388612
C102	C	1.255430	0.054119	0.888612
C103	C	0.722071	-0.697072	0.440181
C104	C	1.222071	-0.197072	0.940181
C105	C	0.722052	-0.642468	0.440171
C106	C	1.222052	-0.142468	0.940171
O107	O	0.693603	-0.614229	0.483990
O108	O	1.193603	-0.114229	0.983990
N109	N	0.755495	-0.615155	0.388654
N110	N	1.255495	-0.115155	0.888654
C111	C	0.788964	-0.642449	0.337148
C112	C	1.288964	-0.142449	0.837148
O113	O	0.817410	-0.614203	0.293328
O114	O	1.317410	-0.114203	0.793328
C115	C	0.788986	-0.697052	0.337162
C116	C	1.288986	-0.197052	0.837162
C117	C	0.755536	-0.724362	0.388677
C118	C	1.255536	-0.224362	0.888677
C119	C	0.688625	-0.724382	0.491692
C120	C	1.188625	-0.224382	0.991692
C121	C	0.688643	-0.778983	0.491700
C122	C	1.188643	-0.278983	0.991700
C123	C	0.722109	-0.806273	0.440197
C124	C	1.222109	-0.306273	0.940197
C125	C	0.755555	-0.778963	0.388685
C126	C	1.255555	-0.278963	0.888685
C127	C	0.822457	-0.724345	0.285661
C128	C	1.322457	-0.224345	0.785661
C129	C	0.822476	-0.778952	0.285680
C130	C	1.322476	-0.278952	0.785680
C131	C	0.789027	-0.806263	0.337195
C132	C	1.289027	-0.306263	0.837195
C133	C	0.789039	-0.860854	0.337190
C134	C	1.289039	-0.360854	0.837190
N135	N	0.755596	-0.888167	0.388708
N136	N	1.255596	-0.388167	0.888708
C137	C	0.722130	-0.860877	0.440211
C138	C	1.222130	-0.360877	0.940211
C139	C	0.788917	-0.527778	0.337124
C140	C	1.288917	-0.027778	0.837124
C141	C	0.788893	-0.473176	0.337105
C142	C	1.288893	0.026824	0.837105
C143	C	0.721981	-0.473199	0.440129
C144	C	1.221981	0.026801	0.940129
C145	C	0.722003	-0.527802	0.440143
C146	C	1.222003	-0.027802	0.940143
C147	C	0.755473	-0.555091	0.388641
C148	C	1.255473	-0.055091	0.888641
C149	C	0.722172	-0.975542	0.440224
C150	C	1.222172	-0.475542	0.940224
C151	C	0.722192	-1.030147	0.440225
C152	C	1.222192	-0.530147	0.940225
C153	C	0.789106	-1.030120	0.337204
C154	C	1.289106	-0.530120	0.837204
C155	C	0.789084	-0.975519	0.337199
C156	C	1.289084	-0.475519	0.837199
C157	C	0.755615	-0.948231	0.388716
C158	C	1.255615	-0.448231	0.888716
O159	O	0.817475	-0.889127	0.293396
O160	O	1.317475	-0.389127	0.793396
O161	O	0.693695	-0.889129	0.484031
O162	O	1.193695	-0.389129	0.984031
C163	C	0.891882	-0.251945	0.388696
C164	C	1.391882	0.248055	0.888696
C165	C	0.949996	-0.251954	0.388719
C166	C	1.449996	0.248046	0.888719
C167	C	0.755543	-0.251885	0.598949
C168	C	1.255543	0.248115	1.098949
C169	C	0.755558	-0.251869	0.688571
C170	C	1.255558	0.248131	1.188571
C171	C	0.755613	-0.115551	0.388697
C172	C	1.255613	0.384449	0.888697
C173	C	0.755658	-0.057437	0.388721
C174	C	1.255658	0.442563	0.888721
C175	C	0.755506	-0.251925	0.179150
C176	C	1.255506	0.248075	0.679150
C177	C	0.755592	-0.251795	0.089529
C178	C	1.255592	0.248205	0.589529
C179	C	0.755582	-0.251810	1.016746
C180	C	1.255582	0.248190	1.516746
C181	C	0.755574	-0.251828	0.925438
C182	C	1.255574	0.248172	1.425438
C183	C	0.755570	-0.251840	0.852661
C184	C	1.255570	0.248160	1.352661
C185	C	0.755561	-0.251857	0.761347
C186	C	1.255561	0.248143	1.261347
H187	H	0.206266	-0.346154	0.533532
H188	H	0.706266	0.153846	1.033532
H189	H	0.816125	-0.450944	0.295148
H190	H	1.316125	0.049056	0.795148
H191	H	0.661404	-0.801214	0.533648
H192	H	1.161404	-0.301214	1.033648
H193	H	0.661373	-0.702167	0.533636
H194	H	1.161373	-0.202167	1.033636
H195	H	0.816317	-0.953283	0.295243
H196	H	1.316317	-0.453283	0.795243
Cl197	Cl	0.830995	-0.562080	0.272364
Cl198	Cl	1.330995	-0.062080	0.772364
H199	H	0.694732	-0.450969	0.482067
H200	H	1.194732	0.049031	0.982067
H201	H	0.849735	-0.801169	0.243742
H202	H	1.349735	-0.301169	0.743742
H203	H	0.206252	-0.157699	0.243823
H204	H	0.706252	0.342301	0.743823
H205	H	-0.044929	-0.191216	0.295324
H206	H	0.455071	0.308784	0.795324
H207	H	0.816351	-1.052349	0.295268
H208	H	1.316351	-0.552349	0.795268
H209	H	0.054121	-0.191199	0.295314
H210	H	0.554121	0.308801	0.795314
Cl211	Cl	-0.057018	-0.327520	0.504908
Cl212	Cl	0.442982	0.172480	1.004908
Cl213	Cl	0.864517	-0.690026	0.220904
Cl214	Cl	1.364517	-0.190026	0.720904
Cl215	Cl	0.317391	-0.142859	0.221016
Cl216	Cl	0.817391	0.357141	0.721016
Cl217	Cl	0.445315	-0.176350	0.272419
Cl218	Cl	0.945315	0.323650	0.772419
H219	H	0.694952	-1.052380	0.482177
H220	H	1.194952	-0.552380	0.982177
Cl221	Cl	0.568578	-0.327484	0.504760
Cl222	Cl	1.068578	0.172516	1.004760
H223	H	0.556476	-0.191170	0.295201
H224	H	1.056476	0.308830	0.795201
Cl225	Cl	0.679951	-0.562129	0.504909
Cl226	Cl	1.179951	-0.062129	1.004909
Cl227	Cl	0.445347	-0.327489	0.504807
Cl228	Cl	0.945347	0.172511	1.004807
Cl229	Cl	0.317403	-0.360977	0.556304
Cl230	Cl	0.817403	0.139023	1.056304
H231	H	0.054139	-0.312692	0.482088
H232	H	0.554139	0.187308	0.982088
Cl233	Cl	0.680095	-0.941246	0.504987
Cl234	Cl	1.180095	-0.441246	1.004987
