data_functionalizedCrystal
_audit_creation_method	'MofGen! by Chris Wilmer'
_symmetry_space_group_name_H-M	'P1'
_symmetry_Int_Tables_number	1
_symmetry_cell_setting	triclinic
loop_
_symmetry_equiv_pos_as_xyz
  x,y,z
_cell_length_a	14.560438
_cell_length_b	21.606444
_cell_length_c	21.606444
_cell_angle_alpha	60.003167
_cell_angle_beta	90.001342
_cell_angle_gamma	60.000320
loop_
_atom_site_label
_atom_site_type_symbol
_atom_site_fract_x
_atom_site_fract_y
_atom_site_fract_z
Zr1	Zr	0.884745	0.677454	-0.081188
O2	O	0.738100	0.806567	-0.180008
O3	O	0.929701	0.548338	-0.050897
O4	O	0.929703	0.677451	-0.180010
O5	O	0.738094	0.677458	0.050955
O6	O	1.080841	0.677452	-0.180008
O7	O	0.738098	0.677454	-0.050895
O8	O	1.080837	0.446493	0.050951
O9	O	0.738098	0.908417	-0.180004
O10	O	1.061665	0.601448	-0.037974
O11	O	0.948870	0.601450	0.038034
O12	O	0.948872	0.753464	-0.113979
O13	O	0.836077	0.753466	-0.037971
Zr14	Zr	1.125787	0.677464	0.081253
Zr15	Zr	1.125793	0.677457	-0.081185
Zr16	Zr	0.884739	0.677461	0.081251
Zr17	Zr	0.884742	0.839895	-0.081182
Zr18	Zr	1.125790	0.515024	0.081248
O19	O	1.080831	0.806581	0.050963
O20	O	1.080839	0.806571	-0.180004
O21	O	0.738092	0.806577	0.050959
O22	O	1.272432	0.548352	0.180073
O23	O	1.272440	0.548342	-0.050893
O24	O	0.929693	0.548348	0.180070
O25	O	1.272438	0.677460	-0.050889
O26	O	1.080829	0.677468	0.180076
O27	O	0.929691	0.677466	0.180074
O28	O	1.272434	0.677464	0.050961
O29	O	0.929699	0.908420	-0.180002
O30	O	1.080833	0.446499	0.180068
O31	O	1.272434	0.446501	0.180070
O32	O	1.272438	0.446495	0.050953
O33	O	0.738094	0.908423	-0.050887
O34	O	0.929695	0.908425	-0.050885
O35	O	1.061660	0.601455	0.114045
O36	O	1.174455	0.601453	0.038037
O37	O	1.061663	0.753468	-0.037969
O38	O	0.948867	0.753470	0.038039
C39	C	1.005269	0.474271	0.000026
C40	C	1.005270	0.405311	0.000024
C41	C	0.703752	0.677456	0.000030
C42	C	0.601420	0.677454	0.000029
C43	C	1.064146	0.372912	-0.039652
C44	C	1.064150	0.308112	-0.039647
C45	C	1.005271	0.275717	0.000030
C46	C	0.946394	0.308118	0.039712
C47	C	0.946397	0.372912	0.039711
C48	C	0.946381	0.046809	0.039718
C49	C	0.946379	-0.017988	0.039714
C50	C	1.064133	-0.017991	-0.039640
C51	C	1.064137	0.046803	-0.039641
C52	C	1.005265	0.079195	0.000043
C53	C	1.005263	0.149458	0.000039
C54	C	1.005266	0.205460	0.000031
C55	C	0.612219	0.598105	0.039702
C56	C	0.516064	0.598110	0.039709
C57	C	0.398316	0.756819	-0.039638
C58	C	0.494470	0.756814	-0.039640
C59	C	0.719169	0.518746	0.079371
C60	C	0.729972	0.439390	0.119047
C61	C	0.633817	0.439395	0.119054
C62	C	0.526859	0.518754	0.079384
C63	C	1.306780	0.677463	0.000036
C64	C	1.409112	0.677464	0.000037
C65	C	1.005273	0.677450	-0.203153
C66	C	1.005275	0.677447	-0.272112
C67	C	1.005263	0.880647	0.000039
C68	C	1.005262	0.949607	0.000042
C69	C	0.946384	0.756821	-0.735097
C70	C	0.946381	0.756818	-0.670299
C71	C	1.005259	0.677465	-0.598228
C72	C	1.064134	0.598109	-0.590955
C73	C	1.064129	0.598112	-0.655751
C74	C	1.064153	0.598094	-0.329636
C75	C	1.064156	0.598096	-0.264838
C76	C	0.946404	0.756800	-0.344185
C77	C	0.946400	0.756803	-0.408981
C78	C	1.005270	0.677448	-0.401702
C79	C	1.005270	0.677451	-0.471963
C80	C	1.005266	0.677461	-0.527968
C81	C	1.005259	0.677468	0.203219
C82	C	1.005257	0.677471	0.272178
C83	C	1.306784	0.474275	0.000030
C84	C	1.409116	0.405316	0.000028
C85	C	1.005262	0.474280	0.203212
C86	C	1.005261	0.405323	0.272169
C87	C	1.306777	0.474283	0.203215
C88	C	1.409107	0.405327	0.272174
C89	C	0.703755	0.880635	-0.203150
C90	C	0.601425	0.949591	-0.272108
C91	C	0.703748	0.880644	0.000036
C92	C	0.601416	0.949603	0.000037
C93	C	1.005270	0.880638	-0.203146
C94	C	1.005271	0.949596	-0.272104
C95	C	1.398297	0.372929	-0.039656
C96	C	1.494440	0.308144	-0.039672
C97	C	1.601400	0.275742	0.000001
C98	C	1.612217	0.308134	0.039686
C99	C	1.516075	0.372923	0.039697
C100	C	1.064136	0.372942	0.344236
C101	C	1.064130	0.308159	0.409035
C102	C	1.005256	0.275752	0.401765
C103	C	0.946374	0.308139	0.329691
C104	C	0.946374	0.372926	0.264894
C105	C	1.516050	0.372944	0.264882
C106	C	1.612209	0.308161	0.329669
C107	C	1.601422	0.275759	0.401748
C108	C	1.494468	0.308149	0.409038
C109	C	1.398311	0.372935	0.344252
C110	C	0.494482	0.981982	-0.264816
C111	C	0.398323	1.046785	-0.329604
C112	C	0.409110	1.079191	-0.401682
C113	C	0.516064	1.046796	-0.408973
C114	C	0.612221	0.981999	-0.344186
C115	C	0.612235	0.981996	0.039715
C116	C	0.516092	1.046799	0.039713
C117	C	0.409132	1.079203	0.000038
C118	C	0.398315	1.046808	-0.039644
C119	C	0.494457	0.982010	-0.039647
C120	C	1.064157	0.981981	-0.264810
C121	C	1.064180	1.046765	-0.329596
C122	C	1.005310	1.079167	-0.401676
C123	C	0.946422	1.046775	-0.408968
C124	C	0.946407	0.981988	-0.344182
H125	H	1.112086	0.399289	-0.071966
O126	O	1.005281	0.205860	0.471657
H127	H	1.056130	0.188783	0.522988
H128	H	1.112092	0.533478	-0.323700
H129	H	0.898450	0.955626	-0.350131
H130	H	1.699287	0.281796	0.323720
H131	H	1.524854	0.399316	0.206198
H132	H	0.485678	0.955601	-0.206132
O133	O	1.127638	0.407886	0.352093
H134	H	1.192730	0.395439	0.324485
H135	H	0.817061	0.374779	0.151350
H136	H	0.485674	0.821427	-0.071931
H137	H	1.112076	0.073181	-0.071953
O138	O	0.727595	0.947064	0.082497
H139	H	0.718947	0.980496	0.110072
O140	O	0.882886	0.842396	-0.352040
H141	H	0.892764	0.829068	-0.294877
O142	O	0.305438	1.149068	0.000068
H143	H	0.330942	1.166130	0.034340
O144	O	1.127635	-0.052929	-0.082444
H145	H	1.192721	-0.124401	-0.042393
H146	H	0.642618	0.374780	0.151367
H147	H	1.112091	0.281733	-0.071954
H148	H	0.485632	0.955638	-0.071954
H149	H	1.112083	0.281797	0.467714
H150	H	1.112095	0.955610	-0.206125
O151	O	0.882912	0.273160	0.321854
H152	H	0.892834	0.222656	0.379024
H153	H	0.699296	0.955627	-0.350132
H154	H	1.311213	0.399311	-0.071971
H155	H	0.898435	0.399282	0.206217
H156	H	0.524922	1.073165	0.072030
O157	O	1.482848	0.273181	0.486784
H158	H	1.523850	0.285606	0.518209
H159	H	1.679729	0.223006	0.454495
O160	O	0.282947	1.081761	-0.082436
H161	H	0.217922	1.132254	-0.075757
O162	O	1.282964	0.407843	0.352120
H163	H	1.291630	0.374412	0.413127
O164	O	1.127715	0.512517	-0.513223
H165	H	1.117866	0.525843	-0.469387
O166	O	0.882885	0.842404	-0.678146
H167	H	0.817801	0.846203	-0.650532
O168	O	0.282973	1.081702	-0.321733
H169	H	0.291636	1.048263	-0.260726
H170	H	1.112131	1.073132	-0.323644
H171	H	0.898431	-0.044364	0.072027
H172	H	1.112067	0.533497	-0.649823
H173	H	0.330804	1.131952	-0.454429
H174	H	0.524834	1.073190	-0.467667
O175	O	0.423147	0.518761	0.079388
H176	H	0.423217	0.484502	0.138471
H177	H	1.524900	0.399284	0.072017
H178	H	0.797470	0.518734	0.079368
H179	H	1.005332	1.131921	-0.454422
H180	H	0.898492	1.073166	-0.467664
H181	H	0.898448	0.073172	0.072035
H182	H	0.898460	0.281732	0.072022
H183	H	0.311226	0.821430	-0.071937
O184	O	0.882940	0.407846	0.082525
H185	H	0.817876	0.479324	0.042487
O186	O	0.882876	0.842410	-0.812831
H187	H	0.841928	0.897585	-0.807000
O188	O	1.727585	0.273183	0.082474
H189	H	1.737371	0.243663	0.143455
H190	H	1.112102	0.533474	-0.206153
O191	O	0.882893	0.842390	-0.486717
H192	H	0.841944	0.897569	-0.480890
H193	H	1.485610	0.281778	-0.071988
H194	H	1.679676	0.222986	-0.000014
