data_functionalizedCrystal
_audit_creation_method	'MofGen! by Chris Wilmer'
_symmetry_space_group_name_H-M	'P1'
_symmetry_Int_Tables_number	1
_symmetry_cell_setting	triclinic
loop_
_symmetry_equiv_pos_as_xyz
  x,y,z
_cell_length_a	6.817900
_cell_length_b	17.982959
_cell_length_c	12.908943
_cell_angle_alpha	95.935468
_cell_angle_beta	100.860631
_cell_angle_gamma	102.451857
loop_
_atom_site_label
_atom_site_type_symbol
_atom_site_fract_x
_atom_site_fract_y
_atom_site_fract_z
V1	V	-3.991120	-0.104460	-0.329118
O2	O	-3.984602	0.005998	-0.322400
O3	O	-3.937793	-0.208068	-0.327303
O4	O	-3.929497	-0.102424	-0.472459
O5	O	-3.992956	-0.100377	-0.176239
V6	V	-4.477100	-0.091299	-0.310780
O7	O	-4.246989	-0.133331	-0.369345
O8	O	-4.671428	-0.062428	-0.270553
O9	O	-4.307221	0.012309	-0.312595
O10	O	-4.601015	-0.201757	-0.317498
O11	O	-4.592661	-0.095382	-0.463659
O12	O	-4.315518	-0.093335	-0.167439
C13	C	-3.782023	-0.233339	-0.322223
C14	C	-3.819621	-0.318037	-0.321695
C15	C	-4.018715	-0.361694	-0.326721
C16	C	-4.054032	-0.441277	-0.326230
C17	C	-3.890250	-0.477202	-0.320706
C18	C	-3.691141	-0.433540	-0.315683
C19	C	-3.655829	-0.353959	-0.316181
C20	C	-3.833546	-0.754481	-0.313675
C21	C	-3.868874	-0.834068	-0.313174
C22	C	-4.231749	-0.841800	-0.323724
C23	C	-4.196437	-0.762219	-0.324222
C24	C	-3.997334	-0.718564	-0.319204
C25	C	-3.959042	-0.632271	-0.319738
C26	C	-3.928537	-0.563492	-0.320164
C27	C	-3.771439	-0.098578	-0.507383
C28	C	-3.802306	-0.097599	-0.624568
C29	C	-4.223199	-0.103320	-0.855539
C30	C	-4.252210	-0.102400	-0.965645
C31	C	-3.889340	-0.094835	-0.954887
C32	C	-3.860329	-0.095754	-0.844781
C33	C	-4.027267	-0.099998	-0.795111
C34	C	-3.998255	-0.100923	-0.685004
C35	C	-3.635385	-0.093352	-0.674247
C36	C	-3.664396	-0.092433	-0.784353
C37	C	-4.126333	0.037576	-0.317672
C38	C	-4.067973	0.122273	-0.318207
C39	C	-4.136917	-0.097183	-0.132509
C40	C	-4.085290	-0.098159	-0.015323
H41	H	-4.216151	-0.476820	-0.330324
C42	C	-4.374113	-0.723151	-0.330000
C43	C	-4.335440	-0.667697	-0.239426
C44	C	-4.499086	-0.631702	-0.244709
H45	H	-4.387696	-0.698983	-0.392136
H46	H	-4.497777	-0.760522	-0.332870
H47	H	-4.211811	-0.630332	-0.236567
H48	H	-4.321878	-0.691845	-0.177277
H49	H	-4.622751	-0.669073	-0.247579
H50	H	-4.512657	-0.607539	-0.306848
H51	H	-4.472879	-0.594078	-0.183252
H52	H	-3.475840	-0.090651	-0.625036
C53	C	-3.691053	-0.873091	-0.306965
C54	C	-3.671651	-0.908527	-0.215197
C55	C	-3.507861	-0.944474	-0.209434
H56	H	-3.716791	-0.910810	-0.368259
H57	H	-3.567350	-0.835712	-0.303991
H58	H	-3.795325	-0.945903	-0.218180
H59	H	-3.645883	-0.870825	-0.153887
H60	H	-3.384158	-0.907095	-0.206460
H61	H	-3.533614	-0.982189	-0.270732
H62	H	-3.494663	-0.968516	-0.147165
H63	H	-4.393873	-0.877353	-0.327811
C64	C	-4.196391	-0.322627	-0.332496
C65	C	-4.157715	-0.267174	-0.241919
C66	C	-4.321362	-0.231180	-0.247198
H67	H	-4.209978	-0.298458	-0.394630
H68	H	-4.320054	-0.359998	-0.335365
H69	H	-4.034087	-0.229809	-0.239061
H70	H	-4.144150	-0.291323	-0.179771
H71	H	-4.445025	-0.268551	-0.250068
H72	H	-4.334936	-0.207015	-0.309336
H73	H	-4.295152	-0.193557	-0.185740
C74	C	-3.513326	-0.472559	-0.309466
C75	C	-3.493935	-0.507996	-0.217698
C76	C	-3.330133	-0.543937	-0.211925
H77	H	-3.539047	-0.510277	-0.370760
H78	H	-3.389626	-0.435177	-0.306486
H79	H	-3.617606	-0.545375	-0.220687
H80	H	-3.468183	-0.470295	-0.156389
H81	H	-3.206433	-0.506555	-0.208945
H82	H	-3.355869	-0.581651	-0.273223
H83	H	-3.316942	-0.567979	-0.149657
C84	C	-4.179497	-0.105687	-0.631051
C85	C	-4.206911	-0.172257	-0.582664
C86	C	-4.373871	-0.176673	-0.532967
H87	H	-4.153262	-0.061653	-0.578434
H88	H	-4.300412	-0.107574	-0.682790
H89	H	-4.086024	-0.170363	-0.530929
H90	H	-4.233178	-0.216302	-0.635258
H91	H	-4.494786	-0.178561	-0.584706
H92	H	-4.347621	-0.132636	-0.480355
H93	H	-4.392505	-0.221844	-0.500139
H94	H	-3.671428	-0.718946	-0.309583
H95	H	-3.493710	-0.318414	-0.312093
H96	H	-4.359131	-0.106783	-0.815099
H97	H	-4.411755	-0.105105	-1.014841
H98	H	-3.753434	-0.091374	-0.995346
H99	H	-3.528486	-0.088975	-0.824809
