data_functionalizedCrystal
_audit_creation_method	'MofGen! by Chris Wilmer'
_symmetry_space_group_name_H-M	'P1'
_symmetry_Int_Tables_number	1
_symmetry_cell_setting	triclinic
loop_
_symmetry_equiv_pos_as_xyz
  x,y,z
_cell_length_a	9.065218
_cell_length_b	9.730223
_cell_length_c	10.654550
_cell_angle_alpha	90.007376
_cell_angle_beta	95.249375
_cell_angle_gamma	90.000310
loop_
_atom_site_label
_atom_site_type_symbol
_atom_site_fract_x
_atom_site_fract_y
_atom_site_fract_z
O1	O	1.959387	0.114263	-0.184154
O2	O	1.530020	0.114262	-0.199259
O3	O	1.754575	0.114284	-0.009007
O4	O	1.734832	0.114241	-0.374407
O5	O	1.754572	-0.114296	-0.009011
O6	O	1.530017	-0.114318	-0.199264
O7	O	1.959385	-0.114317	-0.184159
Zn8	Zn	1.744700	-0.150609	-0.191712
Zn9	Zn	1.744704	0.150555	-0.191706
O10	O	1.734830	-0.114339	-0.374411
C11	C	1.475040	-0.000027	-0.197810
C12	C	1.311221	-0.000026	-0.193469
N13	N	1.744709	-0.356146	-0.191716
C14	C	1.844168	-0.428062	-0.107501
C15	C	1.844164	-0.571945	-0.107486
C16	C	1.645238	-0.571982	-0.275911
C17	C	1.645236	-0.428102	-0.275919
C18	C	1.943641	-0.356106	-0.023297
C19	C	2.043109	-0.428022	0.060923
C20	C	2.043105	-0.571905	0.060939
C21	C	1.943633	-0.643872	-0.023267
C22	C	2.014365	-0.000024	-0.185608
C23	C	2.178184	-0.000017	-0.189949
C24	C	1.753123	0.000002	0.037795
C25	C	1.748785	0.000027	0.177255
N26	N	1.744707	0.356091	-0.191692
C27	C	1.876928	0.000077	0.387256
C28	C	1.881005	0.000043	0.256219
C29	C	1.612480	0.000033	0.229335
C30	C	1.608404	0.000057	0.360371
C31	C	2.009157	0.000106	0.466214
C32	C	2.145463	0.000098	0.414143
C33	C	2.149540	0.000064	0.283105
C34	C	2.017311	0.000037	0.204139
C35	C	1.736285	-0.000015	0.578788
C36	C	1.740633	0.000086	0.439328
H37	H	1.943656	-0.238949	-0.023305
Cl38	Cl	1.520193	-0.337690	-0.381790
Cl39	Cl	2.311684	0.000111	0.513412
H40	H	1.504825	0.000012	0.165031
H41	H	2.260527	0.000044	0.240713
Cl42	Cl	1.520201	-0.662454	-0.381766
H43	H	2.020642	-0.000006	0.097440
Cl44	Cl	1.437058	0.000060	0.425839
H45	H	2.124087	-0.369420	0.129488
H46	H	2.005853	0.000138	0.572913
H47	H	2.124085	-0.630458	0.129523
Cl48	Cl	1.943623	-0.824755	-0.023231
