data_functionalizedCrystal
_audit_creation_method	'MofGen! by Chris Wilmer'
_symmetry_space_group_name_H-M	'P1'
_symmetry_Int_Tables_number	1
_symmetry_cell_setting	triclinic
loop_
_symmetry_equiv_pos_as_xyz
  x,y,z
_cell_length_a	16.956995
_cell_length_b	16.992700
_cell_length_c	16.053802
_cell_angle_alpha	92.734161
_cell_angle_beta	87.607939
_cell_angle_gamma	83.360821
loop_
_atom_site_label
_atom_site_type_symbol
_atom_site_fract_x
_atom_site_fract_y
_atom_site_fract_z
O1	O	1.063242	0.028855	-0.069491
O2	O	1.563242	0.528855	0.430509
O3	O	0.832832	0.056269	-0.069484
O4	O	1.332832	0.556269	0.430516
O5	O	0.947113	-0.071519	-0.069466
O6	O	1.447113	0.428481	0.430534
O7	O	0.948961	0.156644	-0.069509
O8	O	1.448961	0.656644	0.430491
O9	O	0.940821	-0.064513	0.069392
O10	O	1.440821	0.435487	0.569392
O11	O	0.826540	0.063276	0.069374
O12	O	1.326540	0.563276	0.569374
O13	O	1.056950	0.035862	0.069367
O14	O	1.556950	0.535862	0.569367
Zn15	Zn	0.940746	0.050682	0.091417
Zn16	Zn	1.440746	0.550682	0.591417
Zn17	Zn	0.949036	0.041450	-0.091534
Zn18	Zn	1.449036	0.541450	0.408466
O19	O	0.942669	0.163651	0.069349
O20	O	1.442669	0.663651	0.569349
C21	C	0.800067	0.061176	-0.000054
C22	C	1.300067	0.561176	0.499946
C23	C	0.711812	0.065350	-0.000050
C24	C	1.211812	0.565350	0.499950
C25	C	0.214503	0.096566	-0.000087
C26	C	0.714503	0.596566	0.499913
C27	C	0.297428	0.092639	-0.000085
C28	C	0.797428	0.592639	0.499915
C29	C	0.343818	0.018927	-0.000065
C30	C	0.843818	0.518927	0.499935
C31	C	0.307280	-0.050863	-0.000055
C32	C	0.807280	0.449137	0.499945
C33	C	0.224357	-0.046935	-0.000063
C34	C	0.724357	0.453065	0.499937
C35	C	0.592351	-0.000513	-0.000047
C36	C	1.092351	0.499487	0.499953
C37	C	0.675280	-0.004435	-0.000037
C38	C	1.175280	0.495565	0.499963
C39	C	0.665421	0.139067	-0.000069
C40	C	1.165421	0.639067	0.499931
C41	C	0.582497	0.142988	-0.000071
C42	C	1.082497	0.642988	0.499929
C43	C	0.545966	0.073199	-0.000066
C44	C	1.045966	0.573199	0.499934
N45	N	0.428581	0.014912	-0.000061
N46	N	0.928581	0.514912	0.499939
N47	N	0.461205	0.077215	-0.000076
N48	N	0.961205	0.577215	0.499924
C49	C	0.941591	-0.097074	-0.000033
C50	C	1.441591	0.402926	0.499967
C51	C	0.934501	-0.183658	-0.000022
C52	C	1.434501	0.316342	0.499978
C53	C	1.089715	0.030955	-0.000065
C54	C	1.589715	0.530955	0.499935
C55	C	1.177970	0.026782	-0.000074
C56	C	1.677970	0.526782	0.499926
C57	C	0.886867	-0.669534	-0.000097
C58	C	1.386867	-0.169534	0.499903
C59	C	0.893534	-0.588180	-0.000089
C60	C	1.393534	-0.088180	0.499911
C61	C	0.968617	-0.561502	-0.000080
C62	C	1.468617	-0.061502	0.499920
C63	C	1.037037	-0.616185	-0.000087
C64	C	1.537037	-0.116185	0.499913
C65	C	1.030369	-0.697538	-0.000101
C66	C	1.530369	-0.197538	0.499899
C67	C	0.996253	-0.319695	-0.000044
C68	C	1.496253	0.180305	0.499956
C69	C	1.002916	-0.238334	-0.000027
C70	C	1.502916	0.261666	0.499973
C71	C	0.859412	-0.210335	-0.000030
C72	C	1.359412	0.289665	0.499970
C73	C	0.852751	-0.291691	-0.000039
C74	C	1.352751	0.208309	0.499961
C75	C	0.921171	-0.346366	-0.000051
C76	C	1.421171	0.153634	0.499949
N77	N	0.975434	-0.478345	-0.000069
N78	N	1.475434	0.021655	0.499931
N79	N	0.914354	-0.429522	-0.000068
N80	N	1.414354	0.070478	0.499932
C81	C	0.948191	0.189206	-0.000085
C82	C	1.448191	0.689206	0.499915
C83	C	0.955282	0.275790	-0.000102
C84	C	1.455282	0.775790	0.499898
N85	N	0.935094	0.056981	0.216277
N86	N	1.435094	0.556981	0.716277
N87	N	0.954694	0.035144	-0.216393
N88	N	1.454694	0.535144	0.283607
C89	C	0.983741	0.002624	0.259978
C90	C	1.483741	0.502624	0.759978
C91	C	0.979795	0.007037	0.347384
C92	C	1.479795	0.507037	0.847384
C93	C	0.927206	0.065812	0.391087
C94	C	1.427206	0.565812	0.891087
C95	C	0.878553	0.120172	0.347380
C96	C	1.378553	0.620172	0.847380
C97	C	0.882496	0.115755	0.259975
C98	C	1.382496	0.615755	0.759975
C99	C	0.909984	0.085086	0.652494
C100	C	1.409984	0.585086	1.152494
C101	C	0.906047	0.089501	0.739905
C102	C	1.406047	0.589501	1.239905
C103	C	1.007288	-0.023635	0.739904
C104	C	1.507288	0.476365	1.239904
C105	C	1.011229	-0.028044	0.652497
C106	C	1.511229	0.471956	1.152497
C107	C	0.962574	0.026313	0.608797
C108	C	1.462574	0.526313	1.108797
N109	N	0.923173	0.070326	0.480431
N110	N	1.423173	0.570326	0.980431
N111	N	0.966603	0.021795	0.519456
N112	N	1.466603	0.521795	1.019456
H113	H	0.713050	-0.064463	-0.000025
H114	H	1.213050	0.435537	0.499975
N115	N	0.532457	0.222497	0.000018
N116	N	1.032457	0.722497	0.500018
H117	H	0.568182	0.266113	0.000046
H118	H	1.068182	0.766113	0.500046
H119	H	0.500126	0.224728	-0.051426
H120	H	1.000126	0.724728	0.448574
H121	H	0.863220	0.137366	0.775484
H122	H	1.363220	0.637366	1.275484
N123	N	0.819745	-0.529207	-0.000085
N124	N	1.319745	-0.029207	0.499915
H125	H	0.771169	-0.558452	-0.000088
H126	H	1.271169	-0.058452	0.499912
H127	H	0.817052	-0.492260	0.051396
H128	H	1.317052	0.007740	0.551396
H129	H	0.842881	0.160017	0.224394
H130	H	1.342881	0.660017	0.724394
N131	N	1.032274	-0.051585	0.394517
N132	N	1.532274	0.448415	0.894517
H133	H	1.021796	-0.039873	0.456519
H134	H	1.521796	0.460127	0.956519
H135	H	1.020268	-0.107166	0.379258
H136	H	1.520268	0.392834	0.879258
H137	H	0.562618	-0.057340	-0.000040
H138	H	1.062618	0.442660	0.499960
N139	N	0.857511	0.143725	0.605379
N140	N	1.357511	0.643725	1.105379
H141	H	0.891691	0.174519	0.569095
H142	H	1.391691	0.674519	1.069095
H143	H	0.822086	0.114263	0.569185
H144	H	1.322086	0.614263	1.069185
H145	H	0.791611	-0.313405	-0.000056
H146	H	1.291611	0.186595	0.499944
N147	N	0.785619	-0.151364	-0.000006
N148	N	1.285619	0.348636	0.499994
H149	H	0.801233	-0.095778	0.000008
H150	H	1.301233	0.404222	0.500008
H151	H	0.755451	-0.162047	-0.051482
H152	H	1.255451	0.337953	0.448518
H153	H	0.825726	-0.691247	-0.000095
H154	H	1.325726	-0.191247	0.499905
N155	N	0.704821	0.214337	-0.000078
N156	N	1.204821	0.714337	0.499922
H157	H	0.764392	0.200667	-0.000072
H158	H	1.264392	0.700667	0.499928
H159	H	0.690512	0.243752	-0.051565
H160	H	1.190512	0.743752	0.448435
N161	N	1.083901	-0.209558	-0.000014
N162	N	1.583901	0.290442	0.499986
H163	H	1.126234	-0.256539	-0.000025
H164	H	1.626234	0.243461	0.499975
H165	H	1.092125	-0.178991	-0.051482
H166	H	1.592125	0.321009	0.448518
N167	N	1.070045	-0.378659	-0.000046
N168	N	1.570045	0.121341	0.499954
H169	H	1.118619	-0.349411	-0.000032
H170	H	1.618619	0.150589	0.499968
H171	H	1.068064	-0.410439	0.051426
H172	H	1.568064	0.089561	0.551426
N173	N	1.067957	-0.091436	0.605368
N174	N	1.567957	0.408564	1.105368
H175	H	1.106653	-0.065678	0.569092
H176	H	1.606653	0.434322	1.069092
H177	H	1.098121	-0.125176	0.646374
H178	H	1.598121	0.374824	1.146374
H179	H	1.098171	-0.594458	-0.000078
H180	H	1.598171	-0.094458	0.499922
H181	H	1.026568	-0.045234	0.224401
H182	H	1.526568	0.454766	0.724401
N183	N	0.336821	0.167912	-0.000108
N184	N	0.836821	0.667912	0.499892
H185	H	0.317898	0.202564	0.051359
H186	H	0.817898	0.702564	0.551359
H187	H	0.396384	0.154183	-0.000139
H188	H	0.896384	0.654183	0.499861
N189	N	0.357312	-0.130368	-0.000037
N190	N	0.857312	0.369632	0.499963
H191	H	0.415387	-0.122268	-0.000031
H192	H	0.915387	0.377732	0.499969
H193	H	0.342627	-0.158411	0.051446
H194	H	0.842627	0.341589	0.551446
H195	H	1.046900	-0.067891	0.775492
H196	H	1.546900	0.432109	1.275492
N197	N	0.164481	0.176078	-0.000089
N198	N	0.664481	0.676078	0.499911
H199	H	0.179096	0.204168	-0.051566
H200	H	0.679096	0.704168	0.448434
H201	H	0.106420	0.167926	-0.000053
H202	H	0.606420	0.667926	0.499947
H203	H	0.194614	-0.103761	-0.000054
H204	H	0.694614	0.396239	0.499946
H205	H	1.086080	-0.742056	-0.000109
H206	H	1.586080	-0.242056	0.499891
N207	N	0.821825	0.183561	0.394512
N208	N	1.321825	0.683561	0.894512
H209	H	0.826709	0.178114	0.456514
H210	H	1.326709	0.678114	0.956514
H211	H	0.835212	0.237596	0.379213
H212	H	1.335212	0.737596	0.879213
