data_functionalizedCrystal
_audit_creation_method	'MofGen! by Chris Wilmer'
_symmetry_space_group_name_H-M	'P1'
_symmetry_Int_Tables_number	1
_symmetry_cell_setting	triclinic
loop_
_symmetry_equiv_pos_as_xyz
  x,y,z
_cell_length_a	29.839134
_cell_length_b	19.805407
_cell_length_c	19.805399
_cell_angle_alpha	90.019573
_cell_angle_beta	89.983892
_cell_angle_gamma	89.993986
loop_
_atom_site_label
_atom_site_type_symbol
_atom_site_fract_x
_atom_site_fract_y
_atom_site_fract_z
Zn1	Zn	0.178864	1.034832	0.382774
Zn2	Zn	0.253991	1.034787	0.269608
Zn3	Zn	0.178876	0.921646	0.269598
Zn4	Zn	0.253967	0.921650	0.382755
O5	O	0.216425	0.978229	0.326184
O6	O	0.188834	1.129542	0.367774
O7	O	0.244042	1.019758	0.174890
O8	O	0.116007	0.936678	0.284615
O9	O	0.244030	1.129509	0.284632
O10	O	0.115998	1.019835	0.367764
O11	O	0.188855	0.936634	0.174883
O12	O	0.188832	0.826930	0.284597
O13	O	0.243989	0.936684	0.477474
O14	O	0.244002	0.826933	0.367732
O15	O	0.188811	1.019838	0.477488
O16	O	0.316855	1.019762	0.284613
O17	O	0.316838	0.936641	0.367742
C18	C	0.216416	0.802373	0.326162
C19	C	0.216423	0.727141	0.326168
C20	C	0.099246	0.978261	0.326191
C21	C	0.049312	0.978274	0.326194
C22	C	0.245193	0.691816	0.369387
C23	C	0.245194	0.621127	0.369397
C24	C	0.216427	0.585765	0.326184
C25	C	0.187654	0.621095	0.282963
C26	C	0.187651	0.691782	0.282957
C27	C	0.187664	0.336022	0.282985
C28	C	0.187669	0.265330	0.282993
C29	C	0.245206	0.265367	0.369425
C30	C	0.245204	0.336054	0.369419
C31	C	0.216429	0.371378	0.326201
C32	C	0.216428	0.448026	0.326192
C33	C	0.216430	0.509118	0.326189
C34	C	-0.260330	0.934963	0.282918
C35	C	-0.448003	0.934967	0.282924
O36	O	-0.472266	0.898128	0.246129
N37	N	-0.471473	0.978264	0.326215
C38	C	-0.448023	1.021561	0.369510
O39	O	-0.472292	1.058383	0.406336
C40	C	-0.260350	1.021553	0.369506
C41	C	-0.236882	0.978257	0.326208
C42	C	-0.236862	0.891671	0.239624
C43	C	-0.189946	0.891673	0.239620
C44	C	-0.166499	0.934967	0.282911
C45	C	-0.189967	0.978259	0.326204
C46	C	-0.236900	1.064845	0.412804
C47	C	-0.189979	1.064838	0.412801
C48	C	-0.166511	1.021543	0.369503
C49	C	-0.119604	1.021556	0.369491
N50	N	-0.096134	0.978259	0.326201
C51	C	-0.119581	0.934964	0.282910
C52	C	-0.546553	1.021563	0.369507
C53	C	-0.593471	1.021566	0.369508
C54	C	-0.593448	0.934971	0.282923
C55	C	-0.546529	0.934972	0.282920
C56	C	-0.523083	0.978265	0.326217
C57	C	-0.021055	0.934972	0.282905
C58	C	0.025864	0.934980	0.282904
C59	C	0.025837	1.021572	0.369490
C60	C	-0.021078	1.021567	0.369490
C61	C	-0.044523	0.978261	0.326195
O62	O	-0.095312	1.058370	0.406272
O63	O	-0.095304	0.898137	0.246100
C64	C	-0.307245	0.934961	0.282922
C65	C	-0.330713	0.978253	0.326216
C66	C	-0.307266	1.021548	0.369506
C67	C	-0.377631	0.978256	0.326216
C68	C	-0.401079	0.934962	0.282926
C69	C	-0.377608	0.891665	0.239635
C70	C	-0.330693	0.891667	0.239632
C71	C	-0.330736	1.064845	0.412796
C72	C	-0.377652	1.064840	0.412796
C73	C	-0.401099	1.021546	0.369506
C74	C	0.333147	0.978215	0.326191
C75	C	0.383082	0.978271	0.326217
C76	C	0.216396	0.978267	0.502726
C77	C	0.216384	0.978283	0.577958
C78	C	0.216434	1.154771	0.326206
C79	C	0.216437	1.230003	0.326216
C80	C	0.216420	0.978230	0.150328
C81	C	0.216306	0.978345	0.075096
C82	C	0.187651	1.021582	0.613311
C83	C	0.187638	1.021589	0.683999
C84	C	0.216361	0.978300	0.719334
C85	C	0.245095	0.934996	0.683977
C86	C	0.245105	0.934986	0.613290
C87	C	0.245053	0.935034	0.969050
C88	C	0.245041	0.935048	1.039742
C89	C	0.187586	1.021637	1.039760
C90	C	0.187597	1.021627	0.969073
C91	C	0.216329	0.978321	0.933722
C92	C	0.216342	0.978313	0.857073
C93	C	0.216350	0.978310	0.795981
H94	H	0.268620	0.720603	0.404574
Cl95	Cl	-0.266330	0.837234	0.185197
Cl96	Cl	0.281152	0.880622	1.084162
Cl97	Cl	-0.160507	1.119268	0.467235
Cl98	Cl	-0.160451	0.837236	0.185191
Cl99	Cl	-0.407094	0.837240	0.185212
Cl100	Cl	0.281202	0.880572	0.728398
Cl101	Cl	-0.407148	1.119276	0.467231
Cl102	Cl	0.151501	0.220875	0.228665
Cl103	Cl	-0.517084	1.075993	0.423946
Cl104	Cl	0.281371	0.380505	0.423744
Cl105	Cl	0.281174	0.880592	0.924618
H106	H	0.044970	0.899723	0.247643
H107	H	0.268498	0.899720	0.584506
H108	H	-0.311650	1.100101	0.448049
H109	H	0.164189	1.056897	1.068552
Cl110	Cl	0.151535	1.076055	0.728440
H111	H	0.268622	0.592369	0.404589
H112	H	0.268634	0.236598	0.404617
Cl113	Cl	0.151489	0.380420	0.228656
H114	H	0.164209	1.056880	0.940307
Cl115	Cl	0.151486	0.576640	0.228642
Cl116	Cl	0.151480	0.736191	0.228625
H117	H	-0.040139	0.899708	0.247652
Cl118	Cl	-0.517032	0.880540	0.228488
H119	H	-0.612547	0.899720	0.247673
Cl120	Cl	-0.622968	1.076005	0.423932
H121	H	-0.256002	1.100099	0.448061
Cl122	Cl	-0.301197	0.837234	0.185198
H123	H	-0.040186	1.056829	0.404740
H124	H	0.044937	1.056823	0.404734
H125	H	0.164264	1.056835	0.584546
