data_functionalizedCrystal
_audit_creation_method	'MofGen! by Chris Wilmer'
_symmetry_space_group_name_H-M	'P1'
_symmetry_Int_Tables_number	1
_symmetry_cell_setting	triclinic
loop_
_symmetry_equiv_pos_as_xyz
  x,y,z
_cell_length_a	14.519709
_cell_length_b	10.654550
_cell_length_c	9.730223
_cell_angle_alpha	90.003749
_cell_angle_beta	89.997715
_cell_angle_gamma	95.917476
loop_
_atom_site_label
_atom_site_type_symbol
_atom_site_fract_x
_atom_site_fract_y
_atom_site_fract_z
O1	O	0.129528	-1.666589	-0.114406
O2	O	0.629528	-1.166589	0.385594
O3	O	0.141869	-1.300991	-0.114384
O4	O	0.641869	-0.800991	0.385616
O5	O	0.001510	-1.493483	-0.114384
O6	O	0.501510	-0.993483	0.385616
O7	O	0.269887	-1.474097	-0.114407
O8	O	0.769887	-0.974097	0.385593
O9	O	0.001514	-1.493481	0.114196
O10	O	0.501514	-0.993481	0.614196
O11	O	0.141873	-1.300989	0.114195
O12	O	0.641873	-0.800989	0.614195
O13	O	0.129532	-1.666586	0.114174
O14	O	0.629532	-1.166586	0.614174
Zn15	Zn	0.135703	-1.483787	0.150477
Zn16	Zn	0.635703	-0.983787	0.650477
Zn17	Zn	0.135698	-1.483790	-0.150687
Zn18	Zn	0.635698	-0.983790	0.349313
O19	O	0.269890	-1.474094	0.114173
O20	O	0.769890	-0.974094	0.614173
C21	C	0.140965	-1.254201	-0.000092
C22	C	0.640965	-0.754201	0.499908
C23	C	0.138254	-1.114784	-0.000083
C24	C	0.638254	-0.614784	0.499917
C25	C	0.130436	-1.713377	-0.000122
C26	C	0.630436	-1.213377	0.499878
C27	C	0.133147	-1.852794	-0.000140
C28	C	0.633147	-1.352794	0.499860
C29	C	-0.032852	-1.492579	-0.000093
C30	C	0.467148	-0.992579	0.499907
C31	C	-0.135247	-1.489871	-0.000092
C32	C	0.364753	-0.989871	0.499908
C33	C	-0.510195	-1.479904	-0.000127
C34	C	-0.010195	-0.979904	0.499873
C35	C	-0.405873	-1.482672	-0.000117
C36	C	0.094127	-0.982672	0.499883
C37	C	-0.322725	-1.484887	-0.000109
C38	C	0.177275	-0.984887	0.499891
C39	C	-0.218396	-1.487656	-0.000101
C40	C	0.281604	-0.987656	0.499899
C41	C	0.304253	-1.474999	-0.000120
C42	C	0.804253	-0.974999	0.499880
C43	C	0.406648	-1.477707	-0.000130
C44	C	0.906648	-0.977707	0.499870
N45	N	0.135705	-1.483795	0.356013
N46	N	0.635705	-0.983795	0.856013
C47	C	0.220895	-1.034504	-0.000110
C48	C	0.720895	-0.534504	0.499890
C49	C	0.218342	-0.903507	-0.000134
C50	C	0.718342	-0.403507	0.499866
C51	C	0.050500	-0.933085	-0.000108
C52	C	0.550500	-0.433085	0.499892
C53	C	0.053054	-1.064078	-0.000075
C54	C	0.553054	-0.564078	0.499925
C55	C	0.306095	-1.085209	-0.000118
C56	C	0.806095	-0.585209	0.499882
C57	C	0.388743	-1.004928	-0.000147
C58	C	0.888743	-0.504928	0.499853
C59	C	0.386190	-0.873931	-0.000170
C60	C	0.886190	-0.373931	0.499830
C61	C	0.300989	-0.823217	-0.000165
C62	C	0.800989	-0.323217	0.499835
N63	N	0.135688	-1.483793	-0.356224
N64	N	0.635688	-0.983793	0.143776
C65	C	0.073576	-1.569052	0.427939
C66	C	0.573576	-1.069052	0.927939
C67	C	0.073565	-1.569048	0.571822
C68	C	0.573565	-1.069048	1.071822
C69	C	0.197821	-1.398527	0.571840
C70	C	0.697821	-0.898527	1.071840
C71	C	0.197827	-1.398525	0.427959
C72	C	0.697827	-0.898525	0.927959
C73	C	0.011455	-1.654321	0.355993
C74	C	0.511455	-1.154321	0.855993
C75	C	-0.050679	-1.739586	0.427920
C76	C	0.449321	-1.239586	0.927920
C77	C	-0.050691	-1.739583	0.571803
C78	C	0.449309	-1.239583	1.071803
C79	C	0.011432	-1.654315	0.643759
C80	C	0.511432	-1.154315	1.143759
H81	H	0.308183	-1.191871	-0.000105
H82	H	0.808183	-0.691871	0.499895
Br83	Br	0.297527	-0.645434	-0.000171
Br84	Br	0.797527	-0.145434	0.499829
H85	H	0.458110	-1.046228	-0.000140
H86	H	0.958110	-0.546228	0.499860
Br87	Br	0.011473	-1.654337	0.160724
Br88	Br	0.511473	-1.154337	0.660724
H89	H	-0.101263	-1.809002	0.369325
H90	H	0.398737	-1.309002	0.869325
H91	H	0.453485	-0.808569	-0.000180
H92	H	0.953485	-0.308569	0.499820
Br93	Br	-0.135022	-1.855282	0.669417
Br94	Br	0.364978	-1.355282	1.169417
H95	H	0.011411	-1.654311	0.760918
H96	H	0.511411	-1.154311	1.260918
Br97	Br	-0.065122	-0.864257	-0.000105
Br98	Br	0.434878	-0.364257	0.499895
H99	H	0.248399	-1.329106	0.630436
H100	H	0.748399	-0.829106	1.130436
H101	H	0.248418	-1.329100	0.369396
H102	H	0.748418	-0.829100	0.869396
H103	H	-0.014240	-1.129445	-0.000056
H104	H	0.485760	-0.629445	0.499944
