data_functionalizedCrystal
_audit_creation_method	'MofGen! by Chris Wilmer'
_symmetry_space_group_name_H-M	'P1'
_symmetry_Int_Tables_number	1
_symmetry_cell_setting	triclinic
loop_
_symmetry_equiv_pos_as_xyz
  x,y,z
_cell_length_a	13.033293
_cell_length_b	18.101397
_cell_length_c	13.033288
_cell_angle_alpha	97.192978
_cell_angle_beta	103.342055
_cell_angle_gamma	97.189579
loop_
_atom_site_label
_atom_site_type_symbol
_atom_site_fract_x
_atom_site_fract_y
_atom_site_fract_z
Zn1	Zn	1.700130	-0.069492	0.807184
Zn2	Zn	1.677480	-0.211329	0.629535
Zn3	Zn	1.499968	-0.105491	0.606978
Zn4	Zn	1.522451	-0.211307	0.784512
O5	O	1.600007	-0.149405	0.707052
O6	O	1.845774	-0.073251	0.802547
O7	O	1.635044	-0.212365	0.477898
O8	O	1.526589	0.002927	0.633585
O9	O	1.829134	-0.177458	0.672029
O10	O	1.673648	0.029376	0.780675
O11	O	1.504627	-0.134606	0.461326
O12	O	1.354301	-0.134585	0.611600
O13	O	1.564909	-0.177420	0.936164
O14	O	1.370820	-0.212327	0.742033
O15	O	1.695449	-0.073229	0.952821
O16	O	1.656846	-0.314970	0.650045
O17	O	1.542947	-0.314954	0.763905
C18	C	1.324018	-0.177360	0.671909
C19	C	1.205951	-0.189335	0.656900
C20	C	1.161560	-0.143174	0.714886
C21	C	1.039532	-0.155549	0.699374
C22	C	1.599910	-0.341830	0.706989
C23	C	1.599970	-0.424137	0.707010
C24	C	1.600118	-0.723204	0.707124
C25	C	1.671523	-0.691904	0.635237
C26	C	1.671834	-0.606235	0.635487
C27	C	1.600044	-0.574833	0.707067
C28	C	1.644592	-0.591434	0.822890
C29	C	1.645169	-0.677060	0.822522
C30	C	1.484069	-0.706008	0.664129
C31	C	1.484307	-0.620555	0.661701
C32	C	1.600002	-0.490980	0.707041
C33	C	1.600164	-0.807056	0.707158
C34	C	1.877075	-0.121341	0.742333
C35	C	1.995144	-0.109382	0.757368
C36	C	1.635214	-0.121307	0.984112
C37	C	1.650216	-0.109333	1.102179
C38	C	1.600137	0.043777	0.707143
C39	C	1.600192	0.126099	0.707181
C40	C	1.607820	-0.143175	1.268603
C41	C	1.592311	-0.155551	1.146574
C42	C	1.564929	-0.177412	1.431069
C43	C	1.549922	-0.189387	1.313002
H44	H	0.987200	-0.204233	0.638240
C45	C	1.036175	0.024713	0.813783
C46	C	1.065781	-0.043655	0.839894
H47	H	1.079789	0.065288	0.864727
H48	H	0.963447	0.025015	0.814192
H49	H	1.045228	0.030208	0.744725
H50	H	1.056720	-0.049153	0.908949
H51	H	1.138526	-0.043957	0.839495
C52	C	1.365693	-0.247157	1.255728
C53	C	1.467508	-0.255175	1.242378
H54	H	1.314817	-0.287777	1.212135
H55	H	1.347892	-0.200804	1.235631
H56	H	1.365318	-0.247465	1.328472
H57	H	1.467885	-0.254861	1.169635
H58	H	1.485313	-0.301540	1.262469
C59	C	1.792053	-0.085419	1.325885
C60	C	1.690240	-0.077394	1.339234
H61	H	1.842936	-0.044810	1.369493
H62	H	1.792435	-0.085103	1.253153
H63	H	1.809841	-0.131785	1.345972
H64	H	1.672448	-0.031031	1.319139
H65	H	1.689854	-0.077703	1.411981
C66	C	1.536160	-0.289671	1.105564
C67	C	1.509897	-0.221340	1.075942
H68	H	1.485287	-0.330284	1.061951
H69	H	1.535757	-0.289981	1.178291
H70	H	1.605243	-0.295092	1.096520
H71	H	1.440817	-0.215916	1.084993
H72	H	1.510289	-0.221028	1.003197
H73	H	1.446286	-0.738586	0.580390
H74	H	1.642205	-0.722875	0.549584
C75	C	1.028100	-0.254598	0.574989
C76	C	1.135312	-0.255059	0.574380
H77	H	0.984495	-0.295178	0.524048
H78	H	1.008032	-0.208218	0.557282
H79	H	1.019063	-0.260100	0.644050
H80	H	1.144351	-0.249552	0.505321
H81	H	1.155387	-0.301451	0.592081
H82	H	1.642318	-0.595600	0.550053
H83	H	1.450974	-0.610955	0.576394
H84	H	1.756715	-0.703081	0.664540
H85	H	1.427093	-0.600059	0.709078
H86	H	1.730418	-0.686193	0.857282
C87	C	1.706382	0.024785	1.143166
C88	C	1.732641	-0.043544	1.172797
H89	H	1.757271	0.065399	1.186758
H90	H	1.637317	0.030217	1.152224
H91	H	1.706768	0.025084	1.070423
H92	H	1.732247	-0.043845	1.245539
H93	H	1.801724	-0.048977	1.163748
H94	H	1.213894	-0.094490	0.776009
H95	H	1.596214	-0.697142	0.878703
H96	H	1.757508	-0.575332	0.665065
C97	C	1.494863	-0.530523	0.840948
C98	C	1.577374	-0.563247	0.897981
H99	H	1.453370	-0.513117	0.887308
H100	H	1.450776	-0.566987	0.784008
H101	H	1.524488	-0.489262	0.812864
H102	H	1.547748	-0.604511	0.926059
H103	H	1.621467	-0.526780	0.954940
C104	C	1.829256	-0.599027	0.894895
C105	C	1.758509	-0.547919	0.870218
H106	H	1.899583	-0.572163	0.924115
H107	H	1.827543	-0.632225	0.831806
H108	H	1.808629	-0.627346	0.945517
H109	H	1.779131	-0.519604	0.819590
H110	H	1.760226	-0.514708	0.933316
C111	C	1.372124	-0.672350	0.779471
C112	C	1.411999	-0.733516	0.734564
H113	H	1.327641	-0.689333	0.822961
H114	H	1.331781	-0.650488	0.724110
H115	H	1.429910	-0.635751	0.821813
H116	H	1.354212	-0.770112	0.692215
H117	H	1.452343	-0.755389	0.789933
