data_functionalizedCrystal
_audit_creation_method	'MofGen! by Chris Wilmer'
_symmetry_space_group_name_H-M	'P1'
_symmetry_Int_Tables_number	1
_symmetry_cell_setting	triclinic
loop_
_symmetry_equiv_pos_as_xyz
  x,y,z
_cell_length_a	27.440280
_cell_length_b	14.560432
_cell_length_c	14.560432
_cell_angle_alpha	90.001726
_cell_angle_beta	59.998013
_cell_angle_gamma	60.006229
loop_
_atom_site_label
_atom_site_type_symbol
_atom_site_fract_x
_atom_site_fract_y
_atom_site_fract_z
Zr1	Zr	0.533384	0.884894	-0.120492
O2	O	0.635048	0.738267	-0.267143
O3	O	0.431721	0.929827	-0.075537
O4	O	0.533385	0.929846	-0.267140
O5	O	0.533382	0.738251	0.075602
O6	O	0.533384	1.080987	-0.267136
O7	O	0.533384	0.738247	-0.075540
O8	O	0.351525	1.080952	0.075607
O9	O	0.715241	0.738286	-0.267141
O10	O	0.473534	1.061805	-0.056360
O11	O	0.473534	0.949013	0.056433
O12	O	0.593230	0.949037	-0.169155
O13	O	0.593230	0.836245	-0.056363
Zr14	Zr	0.533378	1.125953	0.120568
Zr15	Zr	0.533381	1.125947	-0.120486
Zr16	Zr	0.533380	0.884901	0.120561
Zr17	Zr	0.661281	0.884926	-0.120489
Zr18	Zr	0.405480	1.125922	0.120565
O19	O	0.635041	1.081021	0.075613
O20	O	0.635045	1.081012	-0.267134
O21	O	0.635044	0.738276	0.075604
O22	O	0.431713	1.272581	0.267219
O23	O	0.431718	1.272572	-0.075528
O24	O	0.431716	0.929835	0.267210
O25	O	0.533379	1.272597	-0.075526
O26	O	0.533376	1.081001	0.267216
O27	O	0.533378	0.929860	0.267212
O28	O	0.533377	1.272600	0.075616
O29	O	0.715239	0.929891	-0.267136
O30	O	0.351522	1.080957	0.267212
O31	O	0.351521	1.272561	0.267217
O32	O	0.351523	1.272556	0.075611
O33	O	0.715238	0.738291	-0.075536
O34	O	0.715237	0.929895	-0.075531
O35	O	0.473531	1.061811	0.169231
O36	O	0.473532	1.174603	0.056439
O37	O	0.593228	1.061834	-0.056357
O38	O	0.593227	0.949042	0.056435
C39	C	0.373400	1.005385	0.000034
C40	C	0.319104	1.005372	0.000033
C41	C	-0.017637	1.064331	-0.058829
C42	C	-0.068661	1.064341	-0.058826
O43	O	-0.095067	1.114448	-0.108863
N44	N	-0.094178	1.005464	0.000048
C45	C	-0.068673	0.946582	0.058933
O46	O	-0.095062	0.896504	0.109011
C47	C	-0.017653	0.946579	0.058936
C48	C	0.007866	1.005451	0.000048
C49	C	0.007881	1.123199	-0.117710
C50	C	0.058902	1.123187	-0.117715
C51	C	0.084405	1.064307	-0.058838
C52	C	0.058887	1.005439	0.000044
C53	C	0.007848	0.887705	0.117826
C54	C	0.058870	0.887707	0.117824
C55	C	0.084389	0.946579	0.058937
C56	C	0.135411	0.946547	0.058916
N57	N	0.160928	1.005424	0.000042
C58	C	0.135425	1.064304	-0.058835
C59	C	-0.175818	0.946595	0.058924
C60	C	-0.226833	0.946590	0.058915
C61	C	-0.226819	1.064351	-0.058842
C62	C	-0.175799	1.064348	-0.058839
C63	C	-0.150301	1.005472	0.000050
C64	C	0.242574	1.064273	-0.058841
C65	C	0.293601	1.064252	-0.058844
C66	C	0.293580	0.946496	0.058917
C67	C	0.242560	0.946512	0.058916
C68	C	0.217056	1.005409	0.000035
O69	O	0.161848	0.896470	0.108932
O70	O	0.161814	1.114385	-0.108893
C71	C	0.533383	0.703904	0.000030
C72	C	0.533384	0.601571	0.000027
C73	C	0.533395	0.601542	-0.166517
C74	C	0.533403	0.553451	-0.249789
C75	C	0.533403	0.457301	-0.249786
C76	C	0.533393	0.409243	-0.166499
C77	C	0.533385	0.457334	-0.083227
C78	C	0.533387	0.553484	-0.083242
C79	C	0.533369	0.457368	0.083320
C80	C	0.533374	0.553513	0.083314
C81	C	0.533360	0.409309	0.166607
C82	C	0.533357	0.457396	0.249876
C83	C	0.533358	0.553551	0.249868
C84	C	0.533367	0.601604	0.166586
C85	C	0.693361	1.005463	0.000041
C86	C	0.747657	1.005476	0.000043
C87	C	0.533385	1.005416	-0.301483
C88	C	0.533386	1.005413	-0.403817
C89	C	0.533378	1.306943	0.000046
C90	C	0.533377	1.409276	0.000048
C91	C	0.658350	0.887671	-0.521594
C92	C	0.720830	0.828798	-0.628555
C93	C	0.720827	0.828802	-0.724702
C94	C	0.658338	0.887686	-0.713883
C95	C	0.595858	0.946558	-0.606922
C96	C	0.595868	0.946546	-0.510779
C97	C	0.470895	1.064306	-0.489146
C98	C	0.470897	1.064298	-0.392998
C99	C	0.408406	1.123191	-0.478328
C100	C	0.345925	1.182058	-0.371365
C101	C	0.345930	1.182051	-0.275215
C102	C	0.408417	1.123170	-0.286037
C103	C	0.533377	1.005431	0.301559
C104	C	0.533375	1.005434	0.403892
C105	C	0.373398	1.306904	0.000042
C106	C	0.319101	1.409224	0.000044
C107	C	0.373396	1.005392	0.301555
C108	C	0.319099	1.005382	0.403887
C109	C	0.373393	1.306912	0.301563
C110	C	0.319095	1.409234	0.403898
C111	C	0.693368	0.703935	-0.301487
C112	C	0.747666	0.601613	-0.403822
C113	C	0.693364	0.703943	0.000034
C114	C	0.747661	0.601623	0.000032
C115	C	0.693365	1.005455	-0.301480
C116	C	0.747663	1.005465	-0.403812
C117	C	0.293604	1.398395	-0.058845
C118	C	0.242593	1.494527	-0.058867
C119	C	0.217077	1.601485	0.000008
C120	C	0.242579	1.612312	0.058899
C121	C	0.293592	1.516182	0.058913
C122	C	0.293599	1.064256	0.510833
C123	C	0.242588	1.064242	0.606995
C124	C	0.217074	1.005359	0.596208
C125	C	0.242579	0.946478	0.489250
C126	C	0.293593	0.946486	0.393092
C127	C	0.293596	1.516172	0.393079
C128	C	0.242585	1.612324	0.489224
C129	C	0.217069	1.601536	0.596187
C130	C	0.242573	1.494587	0.607004
C131	C	0.293587	1.398437	0.510860
C132	C	0.773171	0.494675	-0.393003
C133	C	0.824199	0.398523	-0.489149
C134	C	0.849717	0.409311	-0.596112
C135	C	0.824210	0.516261	-0.606928
C136	C	0.773187	0.612410	-0.510784
C137	C	0.773163	0.612452	0.058911
C138	C	0.824188	0.516321	0.058906
C139	C	0.849706	0.409362	0.000027
C140	C	0.824201	0.398536	-0.058859
C141	C	0.773181	0.494666	-0.058859
C142	C	0.773160	1.064359	-0.392989
C143	C	0.824172	1.064391	-0.489131
C144	C	0.849688	1.005522	-0.596096
C145	C	0.824186	0.946626	-0.606917
C146	C	0.773172	0.946602	-0.510776
H147	H	0.221813	1.112234	-0.106786
H148	H	0.844930	1.112349	-0.480299
Br149	Br	0.918948	0.278910	0.000040
Br150	Br	0.918923	1.005565	-0.726565
H151	H	0.752421	0.699481	-0.519607
H152	H	0.844986	0.311437	-0.106796
Br153	Br	0.147834	1.732038	0.726660
H154	H	0.314364	1.524978	0.305993
Br155	Br	0.858788	0.531040	0.138831
Br156	Br	0.328223	1.253249	-0.138760
H157	H	0.752418	0.485833	-0.106802
Br158	Br	0.328202	0.866590	0.138817
H159	H	0.752393	1.112298	-0.305901
Br160	Br	0.858828	0.866726	-0.752093
Br161	Br	0.147841	1.005359	0.726722
Br162	Br	0.328210	1.144184	0.525504
H163	H	0.221799	0.898537	0.480484
Br164	Br	0.858848	0.530883	-0.752102
Br165	Br	0.328183	1.253310	0.525563
Br166	Br	0.533405	0.392039	-0.362791
Br167	Br	0.533374	0.732087	0.166562
H168	H	0.408428	1.123153	-0.207757
H169	H	0.314378	1.112191	-0.106801
Br170	Br	0.093525	1.203092	-0.197634
H171	H	0.295051	1.230003	-0.362569
H172	H	0.752417	0.898638	-0.519604
Br173	Br	0.207984	1.144160	0.752136
H174	H	0.221790	1.485819	0.694106
H175	H	0.221836	1.485689	-0.106822
Br176	Br	0.918964	0.278810	-0.726584
H177	H	0.221825	1.699398	0.480397
Br178	Br	0.738549	0.480002	-0.247851
Br179	Br	-0.026717	1.203113	-0.197632
H180	H	0.295051	1.229996	-0.188125
H181	H	0.314348	0.898548	0.306015
H182	H	-0.155025	1.112287	-0.106789
H183	H	0.752390	0.699534	0.106864
Br184	Br	-0.261440	1.144262	-0.138747
Br185	Br	-0.261447	0.866668	0.138815
H186	H	-0.155055	0.898638	0.106872
Br187	Br	0.328186	1.530899	0.138849
Br188	Br	-0.026773	0.807804	0.197751
H189	H	0.533409	0.592590	-0.317599
H190	H	0.844958	0.311450	-0.480320
H191	H	0.221797	1.699410	0.106833
Br192	Br	0.093470	0.807802	0.197753
H193	H	0.533404	0.679824	-0.166537
Br194	Br	0.533376	0.278769	-0.166477
Br195	Br	0.207936	0.866595	0.138816
H196	H	0.533355	0.331023	0.166610
H197	H	0.533344	0.418265	0.317686
H198	H	0.771704	0.780866	-0.811795
Br199	Br	0.533339	0.618818	0.362895
Br200	Br	0.805633	0.748895	-0.643231
Br201	Br	0.658335	0.887709	-0.844371
Br202	Br	0.658359	0.887637	-0.391112
Br203	Br	0.147844	1.731938	-0.000022
Br204	Br	0.408401	1.123204	-0.608813
