data_functionalizedCrystal
_audit_creation_method	'MofGen! by Chris Wilmer'
_symmetry_space_group_name_H-M	'P1'
_symmetry_Int_Tables_number	1
_symmetry_cell_setting	triclinic
loop_
_symmetry_equiv_pos_as_xyz
  x,y,z
_cell_length_a	12.594516
_cell_length_b	16.120566
_cell_length_c	16.120297
_cell_angle_alpha	89.874982
_cell_angle_beta	92.873262
_cell_angle_gamma	92.890314
loop_
_atom_site_label
_atom_site_type_symbol
_atom_site_fract_x
_atom_site_fract_y
_atom_site_fract_z
Zn1	Zn	-0.539236	-1.247510	-0.534637
Zn2	Zn	-0.708679	-1.254484	-0.395581
Zn3	Zn	-0.521251	-1.115498	-0.388548
Zn4	Zn	-0.707700	-1.108441	-0.527543
O5	O	-0.619216	-1.181483	-0.461577
O6	O	-0.569649	-1.364802	-0.522104
O7	O	-0.676699	-1.241920	-0.278283
O8	O	-0.374695	-1.133045	-0.407952
O9	O	-0.694138	-1.369926	-0.419940
O10	O	-0.387908	-1.230034	-0.515283
O11	O	-0.538997	-1.139807	-0.273116
O12	O	-0.538048	-0.998195	-0.401073
O13	O	-0.692470	-1.121016	-0.644849
O14	O	-0.675031	-0.993010	-0.503192
O15	O	-0.568700	-1.223190	-0.650061
O16	O	-0.857491	-1.235076	-0.413061
O17	O	-0.856772	-1.127778	-0.510012
C18	C	-0.604482	-0.965430	-0.450600
C19	C	-0.598206	-0.873000	-0.445924
C20	C	-0.895753	-1.181440	-0.461549
C21	C	-1.014063	-1.181496	-0.461569
C22	C	-0.586722	-0.703770	-0.437393
C23	C	-0.651803	-0.660037	-0.485768
C24	C	-0.645413	-0.565872	-0.481022
C25	C	-0.593110	-0.797944	-0.442138
C26	C	-1.154445	-1.239952	-0.408939
C27	C	-1.077335	-1.165103	-0.384656
C28	C	-1.089599	-1.256337	-0.485814
C29	C	-1.147744	-1.106691	-0.437321
C30	C	-1.160019	-1.197974	-0.538517
C31	C	-1.082939	-1.123072	-0.514260
C32	C	-0.341603	-1.181549	-0.461625
C33	C	-0.223301	-1.181577	-0.461645
C34	C	-0.632482	-1.170538	-0.678471
C35	C	-0.638135	-1.165874	-0.770898
C36	C	-0.634012	-0.398381	-0.472584
C37	C	-0.640323	-0.490812	-0.477240
C38	C	-0.648430	-1.157327	-0.940122
C39	C	-0.589695	-1.205803	-0.983892
C40	C	-0.595423	-1.201048	-1.078054
C41	C	-0.642703	-1.162082	-0.845952
C42	C	-0.605929	-1.192434	-0.245530
C43	C	-0.599987	-1.197259	-0.153111
H44	H	-0.712318	-0.693318	-0.530749
N45	N	-1.181664	-1.022883	-0.410086
H46	H	-1.116579	-0.984894	-0.397750
H47	H	-1.227707	-0.998065	-0.455859
H48	H	-1.196166	-1.211907	-0.603543
N49	N	-0.517389	-1.265515	-0.939869
H50	H	-0.463608	-1.233523	-0.902110
H51	H	-0.561205	-1.305810	-0.905842
N52	N	-0.506588	-0.659696	-0.377795
H53	H	-0.513342	-0.597701	-0.382803
H54	H	-0.520440	-0.677814	-0.319138
N55	N	-1.196013	-1.305317	-0.349899
H56	H	-1.165762	-1.292787	-0.291811
H57	H	-1.276246	-1.305213	-0.350808
N58	N	-1.029478	-1.146671	-0.298504
H59	H	-1.055495	-1.190826	-0.258758
H60	H	-0.949319	-1.146224	-0.299300
H61	H	-1.051749	-1.073617	-0.558797
N62	N	-0.720719	-1.097614	-0.984150
H63	H	-0.714605	-1.102638	-1.046150
H64	H	-0.796720	-1.111278	-0.969684
H65	H	-1.063845	-1.319595	-0.506287
