data_functionalizedCrystal
_audit_creation_method	'MofGen! by Chris Wilmer'
_symmetry_space_group_name_H-M	'P1'
_symmetry_Int_Tables_number	1
_symmetry_cell_setting	triclinic
loop_
_symmetry_equiv_pos_as_xyz
  x,y,z
_cell_length_a	21.295420
_cell_length_b	21.295416
_cell_length_c	19.120904
_cell_angle_alpha	87.589183
_cell_angle_beta	92.422698
_cell_angle_gamma	89.971418
loop_
_atom_site_label
_atom_site_type_symbol
_atom_site_fract_x
_atom_site_fract_y
_atom_site_fract_z
Zn1	Zn	0.947123	0.265835	-0.397109
Zn2	Zn	1.280456	0.599169	-0.063775
Zn3	Zn	1.613790	0.932502	0.269558
Zn4	Zn	0.951531	0.366614	-0.279658
Zn5	Zn	1.284864	0.699947	0.053676
Zn6	Zn	1.618198	1.033280	0.387009
Zn7	Zn	0.846351	0.261360	-0.279674
Zn8	Zn	1.179684	0.594693	0.053659
Zn9	Zn	1.513018	0.928026	0.386992
Zn10	Zn	0.841817	0.371066	-0.397066
Zn11	Zn	1.175151	0.704399	-0.063732
Zn12	Zn	1.508484	1.037732	0.269601
O13	O	0.896706	0.316219	-0.338377
O14	O	1.230039	0.649552	-0.005043
O15	O	1.563372	0.982885	0.328290
O16	O	1.035797	0.279214	-0.381540
O17	O	1.369130	0.612547	-0.048206
O18	O	1.702463	0.945880	0.285127
O19	O	0.941321	0.348915	-0.181378
O20	O	1.274654	0.682249	0.151956
O21	O	1.607987	1.015582	0.485289
O22	O	0.859771	0.173865	-0.295277
O23	O	1.193104	0.507198	0.038056
O24	O	1.526438	0.840532	0.371389
O25	O	1.039035	0.353255	-0.295249
O26	O	1.372369	0.686588	0.038084
O27	O	1.705702	1.019922	0.371418
O28	O	0.933808	0.177153	-0.381556
O29	O	1.267141	0.510487	-0.048222
O30	O	1.600474	0.843820	0.285111
O31	O	0.864045	0.271586	-0.181390
O32	O	1.197379	0.604919	0.151944
O33	O	1.530712	0.938252	0.485277
O34	O	0.757661	0.275903	-0.295235
O35	O	1.090994	0.609236	0.038098
O36	O	1.424327	0.942569	0.371431
O37	O	0.852044	0.360843	-0.495354
O38	O	1.185378	0.694176	-0.162020
O39	O	1.518711	1.027510	0.171313
O40	O	0.754330	0.356503	-0.381482
O41	O	1.087663	0.689837	-0.048149
O42	O	1.420997	1.023170	0.285184
O43	O	0.929412	0.283531	-0.495385
O44	O	1.262745	0.616864	-0.162052
O45	O	1.596078	0.950197	0.171281
O46	O	0.936925	0.455293	-0.295207
O47	O	1.270258	0.788626	0.038126
O48	O	1.603592	1.121959	0.371459
O49	O	0.856319	0.458564	-0.381466
O50	O	1.189652	0.791897	-0.048133
O51	O	1.522985	1.125230	0.285200
C52	C	0.733155	0.316201	-0.338356
C53	C	1.066488	0.649534	-0.005023
C54	C	1.399821	0.982868	0.328310
C55	C	0.663186	0.316209	-0.338364
C56	C	0.996520	0.649542	-0.005031
C57	C	1.329853	0.982876	0.328302
C58	C	0.162012	0.358260	-0.383242
C59	C	0.495345	0.691593	-0.049908
C60	C	0.828678	1.024927	0.283425
C61	C	0.227755	0.358260	-0.383234
C62	C	0.561088	0.691593	-0.049901
C63	C	0.894421	1.024926	0.283432
C64	C	0.262346	0.316234	-0.338399
C65	C	0.595679	0.649567	-0.005065
C66	C	0.929012	0.982900	0.328268
C67	C	0.231189	0.274216	-0.293554
C68	C	0.564522	0.607549	0.039779
C69	C	0.897856	0.940882	0.373112
C70	C	0.165448	0.274221	-0.293558
C71	C	0.498781	0.607555	0.039775
C72	C	0.832114	0.940888	0.373109
N73	N	0.365789	0.260915	-0.333116
N74	N	0.699122	0.594248	0.000218
N75	N	1.032455	0.927582	0.333551
N76	N	0.428240	0.260912	-0.333116
N77	N	0.761574	0.594245	0.000217
N78	N	1.094907	0.927579	0.333550
C79	C	0.460421	0.316216	-0.338384
C80	C	0.793754	0.649549	-0.005050
C81	C	1.127088	0.982882	0.328283
N82	N	0.427790	0.371524	-0.343664
N83	N	0.761124	0.704858	-0.010331
N84	N	1.094457	1.038191	0.323003
N85	N	0.365333	0.371527	-0.343667
N86	N	0.698666	0.704860	-0.010334
N87	N	1.032000	1.038194	0.322999
C88	C	0.333631	0.316223	-0.338389
C89	C	0.666965	0.649557	-0.005056
C90	C	1.000298	0.982890	0.328277
C91	C	0.562856	0.358234	-0.383214
C92	C	0.896189	0.691567	-0.049880
C93	C	1.229522	1.024901	0.283453
C94	C	0.628600	0.358235	-0.383201
C95	C	0.961933	0.691568	-0.049868
C96	C	1.295266	1.024901	0.283465
C97	C	0.632033	0.274185	-0.293525
C98	C	0.965366	0.607519	0.039808
C99	C	1.298700	0.940852	0.373142
C100	C	0.566290	0.274190	-0.293534
C101	C	0.899623	0.607523	0.039800
C102	C	1.232957	0.940857	0.373133
C103	C	0.531705	0.316213	-0.338382
C104	C	0.865039	0.649547	-0.005048
C105	C	1.198372	0.982880	0.328285
C106	C	0.896625	0.479769	-0.338346
C107	C	1.229958	0.813102	-0.005012
C108	C	1.563291	1.146436	0.328321
C109	C	0.896647	0.549738	-0.338356
C110	C	1.229980	0.883071	-0.005022
C111	C	1.563314	1.216404	0.328311
C112	C	0.938653	0.580882	-0.293488
C113	C	1.271986	0.914215	0.039845
C114	C	1.605319	1.247549	0.373178
C115	C	0.938681	0.646625	-0.293507
C116	C	1.272015	0.979959	0.039826
C117	C	1.605348	1.313292	0.373159
C118	C	0.896694	0.681221	-0.338386
C119	C	1.230027	1.014555	-0.005053
C120	C	1.563361	1.347888	0.328280
C121	C	0.854685	0.650069	-0.383263
C122	C	1.188018	0.983403	-0.049929
C123	C	1.521352	1.316736	0.283404
C124	C	0.854662	0.584327	-0.383247
C125	C	1.187995	0.917661	-0.049914
C126	C	1.521328	1.250994	0.283419
N127	N	0.841422	0.784690	-0.343739
N128	N	1.174755	1.118023	-0.010405
N129	N	1.508088	1.451357	0.322928
N130	N	0.841446	0.847142	-0.343749
N131	N	1.174779	1.180475	-0.010416
N132	N	1.508113	1.513809	0.322918
C133	C	0.896763	0.879298	-0.338436
C134	C	1.230096	1.212631	-0.005103
C135	C	1.563430	1.545965	0.328231
N136	N	0.952057	0.846642	-0.333099
N137	N	1.285390	1.179976	0.000235
N138	N	1.618723	1.513309	0.333568
N139	N	0.952032	0.784184	-0.333085
N140	N	1.285365	1.117518	0.000249
N141	N	1.618698	1.450851	0.333582
C142	C	0.896715	0.752507	-0.338408
C143	C	1.230048	1.085841	-0.005075
C144	C	1.563382	1.419174	0.328258
C145	C	0.938804	0.981729	-0.293587
C146	C	1.272137	1.315062	0.039747
C147	C	1.605470	1.648395	0.373080
C148	C	0.938833	1.047473	-0.293611
C149	C	1.272167	1.380806	0.039723
C150	C	1.605500	1.714140	0.373056
C151	C	0.854832	1.050916	-0.383362
C152	C	1.188165	1.384249	-0.050029
C153	C	1.521498	1.717582	0.283304
C154	C	0.854807	0.985173	-0.383342
C155	C	1.188141	1.318506	-0.050009
C156	C	1.521474	1.651839	0.283325
C157	C	0.896793	0.950583	-0.338451
C158	C	1.230126	1.283916	-0.005117
C159	C	1.563459	1.617249	0.328216
C160	C	1.060895	0.316237	-0.338397
C161	C	1.394228	0.649570	-0.005064
C162	C	1.727562	0.982904	0.328269
C163	C	1.130863	0.316245	-0.338406
C164	C	1.464196	0.649578	-0.005073
C165	C	1.797529	0.982912	0.328261
C166	C	0.896804	1.152031	-0.338435
C167	C	1.230137	1.485364	-0.005102
C168	C	1.563470	1.818697	0.328231
C169	C	0.896846	1.082065	-0.338491
C170	C	1.230179	1.415398	-0.005158
C171	C	1.563513	1.748731	0.328176
C172	C	0.889731	0.323183	-0.521565
C173	C	1.223064	0.656516	-0.188232
C174	C	1.556397	0.989849	0.145101
C175	C	0.886758	0.326150	-0.599630
C176	C	1.220092	0.659484	-0.266296
C177	C	1.553425	0.992817	0.067037
C178	C	0.925641	0.287294	-0.636322
C179	C	1.258974	0.620627	-0.302989
C180	C	1.592308	0.953961	0.030345
C181	C	0.922840	0.290080	-0.709672
C182	C	1.256174	0.623413	-0.376338
C183	C	1.589507	0.956747	-0.043005
C184	C	0.881160	0.331726	-0.746327
C185	C	1.214493	0.665059	-0.412994
C186	C	1.547827	0.998393	-0.079661
C187	C	0.842273	0.370584	-0.709630
C188	C	1.175607	0.703917	-0.376297
C189	C	1.508940	1.037251	-0.042963
C190	C	0.845071	0.367794	-0.636282
C191	C	1.178404	0.701128	-0.302948
C192	C	1.511738	1.034461	0.030385
C193	C	0.870695	0.342160	-0.967791
C194	C	1.204028	0.675493	-0.634458
C195	C	1.537361	1.008826	-0.301124
C196	C	0.867901	0.344948	-1.041144
C197	C	1.201235	0.678281	-0.707811
C198	C	1.534568	1.011614	-0.374478
C199	C	0.948468	0.264443	-1.041181
C200	C	1.281801	0.597776	-0.707847
C201	C	1.615135	0.931109	-0.374514
C202	C	0.951265	0.261659	-0.967831
C203	C	1.284598	0.594993	-0.634498
C204	C	1.617931	0.928326	-0.301164
C205	C	0.912376	0.300515	-0.931140
C206	C	1.245709	0.633848	-0.597807
C207	C	1.579042	0.967182	-0.264473
C208	C	0.878298	0.334576	-0.821303
C209	C	1.211631	0.667910	-0.487969
C210	C	1.544965	1.001243	-0.154636
C211	C	0.915235	0.297661	-0.856166
C212	C	1.248568	0.630994	-0.522833
C213	C	1.581902	0.964328	-0.189500
C214	C	0.903690	0.309236	-0.155900
C215	C	1.237023	0.642570	0.177433
C216	C	1.570356	0.975903	0.510766
C217	C	0.906784	0.306091	-0.077837
C218	C	1.240117	0.639425	0.255497
C219	C	1.573451	0.972758	0.588830
H220	H	0.653960	0.392453	-0.419710
H221	H	0.987293	0.725786	-0.086377
H222	H	1.320627	1.059119	0.246957
H223	H	0.820455	0.558969	-0.419785
H224	H	1.153788	0.892303	-0.086451
H225	H	1.487122	1.225636	0.246882
H226	H	0.540928	0.239975	-0.257026
H227	H	0.874262	0.573308	0.076307
H228	H	1.207595	0.906641	0.409641
H229	H	0.972841	0.552721	-0.256937
H230	H	1.306174	0.886054	0.076397
H231	H	1.639508	1.219388	0.409730
O232	O	0.955739	0.257153	-0.820671
O233	O	1.289072	0.590486	-0.487338
O234	O	1.622405	0.923819	-0.154004
C235	C	1.035388	0.177629	-0.828439
C236	C	1.368721	0.510962	-0.495105
C237	C	1.702054	0.844296	-0.161772
C238	C	0.989534	0.223462	-0.868732
C239	C	1.322867	0.556796	-0.535399
C240	C	1.656200	0.890129	-0.202066
H241	H	1.062733	0.150387	-0.867279
H242	H	1.396066	0.483721	-0.533945
H243	H	1.729399	0.817054	-0.200612
H244	H	1.007846	0.143363	-0.794122
H245	H	1.341180	0.476696	-0.460789
H246	H	1.674513	0.810030	-0.127455
H247	H	1.069563	0.205242	-0.794077
H248	H	1.402896	0.538576	-0.460744
H249	H	1.736230	0.871909	-0.127410
H250	H	0.955348	0.195901	-0.903132
H251	H	1.288681	0.529234	-0.569799
H252	H	1.622014	0.862568	-0.236465
H253	H	1.017116	0.257729	-0.903005
H254	H	1.350449	0.591062	-0.569671
H255	H	1.683782	0.924395	-0.236338
H256	H	0.820600	0.959813	-0.419874
H257	H	1.153933	1.293146	-0.086541
H258	H	1.487266	1.626480	0.246792
O259	O	0.979648	0.948220	-0.249962
O260	O	1.312982	1.281553	0.083371
O261	O	1.646315	1.614887	0.416704
C262	C	1.062939	0.951741	-0.160910
C263	C	1.396272	1.285075	0.172423
C264	C	1.729605	1.618408	0.505756
C265	C	1.016727	0.989764	-0.210292
C266	C	1.350061	1.323097	0.123041
C267	C	1.683394	1.656431	0.456375
H268	H	1.092920	0.985313	-0.128814
H269	H	1.426253	1.318646	0.204520
H270	H	1.759587	1.651980	0.537853
H271	H	1.094633	0.922159	-0.193144
H272	H	1.427966	1.255492	0.140189
H273	H	1.761300	1.588826	0.473522
H274	H	1.035438	0.919594	-0.124179
H275	H	1.368771	1.252927	0.209155
H276	H	1.702104	1.586261	0.542488
H277	H	1.044177	1.021946	-0.247034
H278	H	1.377510	1.355279	0.086300
H279	H	1.710844	1.688612	0.419633
H280	H	0.985033	1.019305	-0.178015
H281	H	1.318366	1.352638	0.155319
H282	H	1.651700	1.685972	0.488652
O283	O	0.979508	0.676788	-0.249852
O284	O	1.312841	1.010121	0.083481
O285	O	1.646174	1.343455	0.416815
C286	C	1.062837	0.666441	-0.160848
C287	C	1.396171	0.999774	0.172485
C288	C	1.729504	1.333108	0.505819
C289	C	1.016627	0.632205	-0.210240
C290	C	1.349961	0.965538	0.123093
C291	C	1.683294	1.298871	0.456426
H292	H	1.092870	0.630411	-0.128820
H293	H	1.426203	0.963744	0.204514
H294	H	1.759536	1.297078	0.537847
H295	H	1.035399	0.695842	-0.124059
H296	H	1.368732	1.029175	0.209274
H297	H	1.702066	1.362509	0.542608
H298	H	1.094485	0.698425	-0.193141
H299	H	1.427818	1.031758	0.140192
H300	H	1.761152	1.365091	0.473525
H301	H	0.984969	0.600189	-0.178004
H302	H	1.318302	0.933522	0.155330
H303	H	1.651635	1.266856	0.488663
H304	H	1.044105	0.602843	-0.247031
H305	H	1.377438	0.936177	0.086302
H306	H	1.710771	1.269510	0.419636
H307	H	0.813402	0.399429	-0.606408
H308	H	1.146736	0.732762	-0.273074
H309	H	1.480069	1.066096	0.060259
O310	O	0.979754	1.077733	-0.250157
O311	O	1.313087	1.411067	0.083177
O312	O	1.646420	1.744400	0.416510
C313	C	1.065194	1.151471	-0.240913
C314	C	1.398528	1.484804	0.092420
C315	C	1.731861	1.818137	0.425754
C316	C	1.018865	1.117249	-0.290185
C317	C	1.352199	1.450582	0.043149
C318	C	1.685532	1.783916	0.376482
H319	H	1.096819	1.183437	-0.273255
H320	H	1.430153	1.516770	0.060078
H321	H	1.763486	1.850104	0.393412
H322	H	1.095237	1.115450	-0.208881
H323	H	1.428570	1.448783	0.124453
H324	H	1.761904	1.782117	0.457786
H325	H	1.037790	1.180893	-0.204116
H326	H	1.371123	1.514226	0.129217
H327	H	1.704456	1.847560	0.462551
H328	H	1.046220	1.087827	-0.327024
H329	H	1.379553	1.421161	0.006309
H330	H	1.712886	1.754494	0.339643
H331	H	0.988823	1.153302	-0.322168
H332	H	1.322156	1.486635	0.011166
H333	H	1.655490	1.819968	0.344499
H334	H	0.820647	1.079083	-0.419907
H335	H	1.153980	1.412417	-0.086574
H336	H	1.487314	1.745750	0.246760
H337	H	0.820500	0.678242	-0.419805
H338	H	1.153833	1.011575	-0.086471
H339	H	1.487166	1.344908	0.246862
H340	H	0.660196	0.239969	-0.257016
H341	H	0.993530	0.573302	0.076317
H342	H	1.326863	0.906636	0.409650
H343	H	0.259357	0.239999	-0.257048
H344	H	0.592691	0.573332	0.076286
H345	H	0.926024	0.906665	0.409619
O346	O	0.966146	0.246783	-0.600826
O347	O	1.299479	0.580117	-0.267493
O348	O	1.632813	0.913450	0.065841
C349	C	1.045785	0.167252	-0.608612
C350	C	1.379118	0.500585	-0.275279
C351	C	1.712451	0.833919	0.058054
C352	C	0.999932	0.213094	-0.648896
C353	C	1.333265	0.546427	-0.315562
C354	C	1.666599	0.879760	0.017771
H355	H	1.073122	0.140011	-0.647459
H356	H	1.406455	0.473344	-0.314126
H357	H	1.739789	0.806677	0.019208
H358	H	1.018243	0.132986	-0.574296
H359	H	1.351576	0.466319	-0.240962
H360	H	1.684910	0.799653	0.092371
H361	H	1.079967	0.194859	-0.574252
H362	H	1.413300	0.528192	-0.240918
H363	H	1.746633	0.861525	0.092415
H364	H	0.965739	0.185539	-0.683294
H365	H	1.299073	0.518872	-0.349961
H366	H	1.632406	0.852206	-0.016628
H367	H	1.027514	0.247359	-0.683168
H368	H	1.360848	0.580693	-0.349835
H369	H	1.694181	0.914026	-0.016501
H370	H	0.954504	0.258441	-0.739543
H371	H	1.287838	0.591774	-0.406210
H372	H	1.621171	0.925107	-0.072877
O373	O	0.991767	0.221147	-0.932334
O374	O	1.325101	0.554480	-0.599001
O375	O	1.658434	0.887814	-0.265668
C376	C	1.071409	0.141618	-0.940114
C377	C	1.404742	0.474951	-0.606780
C378	C	1.738076	0.808284	-0.273447
C379	C	1.025556	0.187456	-0.980401
C380	C	1.358889	0.520790	-0.647067
C381	C	1.692223	0.854123	-0.313734
H382	H	1.098749	0.114376	-0.978958
H383	H	1.432082	0.447709	-0.645624
H384	H	1.765416	0.781042	-0.312291
H385	H	1.043868	0.107352	-0.905796
H386	H	1.377201	0.440686	-0.572463
H387	H	1.710534	0.774019	-0.239130
H388	H	1.105589	0.169227	-0.905753
H389	H	1.438923	0.502560	-0.572420
H390	H	1.772256	0.835894	-0.239087
H391	H	0.991366	0.159899	-1.014799
H392	H	1.324699	0.493232	-0.681466
H393	H	1.658032	0.826566	-0.348132
H394	H	1.053138	0.221722	-1.014674
H395	H	1.386471	0.555055	-0.681340
H396	H	1.719805	0.888388	-0.348007
O397	O	0.827354	0.385420	-1.076645
O398	O	1.160687	0.718753	-0.743311
O399	O	1.494021	1.052087	-0.409978
C400	C	0.747762	0.465001	-1.068873
C401	C	1.081096	0.798334	-0.735539
C402	C	1.414429	1.131667	-0.402206
C403	C	0.793637	0.419186	-1.028581
C404	C	1.126970	0.752519	-0.695248
C405	C	1.460304	1.085853	-0.361915
H406	H	0.720499	0.492322	-1.030031
H407	H	1.053833	0.825656	-0.696698
H408	H	1.387166	1.158989	-0.363364
H409	H	0.713518	0.437430	-1.103199
H410	H	1.046851	0.770764	-0.769865
H411	H	1.380185	1.104097	-0.436532
H412	H	0.775345	0.499199	-1.103224
H413	H	1.108679	0.832533	-0.769891
H414	H	1.442012	1.165866	-0.436558
H415	H	0.766106	0.384977	-0.994192
H416	H	1.099440	0.718310	-0.660858
H417	H	1.432773	1.051644	-0.327525
H418	H	0.827882	0.446797	-0.994299
H419	H	1.161215	0.780131	-0.660966
H420	H	1.494548	1.113464	-0.327633
O421	O	0.833009	0.379935	-0.932085
O422	O	1.166342	0.713269	-0.598752
O423	O	1.499675	1.046602	-0.265419
C424	C	0.827627	0.461810	-0.849294
C425	C	1.160960	0.795143	-0.515960
C426	C	1.494294	1.128477	-0.182627
C427	C	0.870384	0.419054	-0.889673
C428	C	1.203717	0.752387	-0.556339
C429	C	1.537050	1.085720	-0.223006
H430	H	0.857828	0.493457	-0.815005
H431	H	1.191161	0.826791	-0.481671
H432	H	1.524494	1.160124	-0.148338
H433	H	0.796045	0.431636	-0.814912
H434	H	1.129378	0.764969	-0.481579
H435	H	1.462711	1.098302	-0.148246
H436	H	0.797349	0.492022	-0.888116
H437	H	1.130682	0.825355	-0.554783
H438	H	1.464016	1.158688	-0.221449
H439	H	0.900701	0.388834	-0.850901
H440	H	1.234034	0.722168	-0.517568
H441	H	1.567367	1.055501	-0.184234
H442	H	0.901924	0.449265	-0.924065
H443	H	1.235258	0.782598	-0.590731
H444	H	1.568591	1.115931	-0.257398
O445	O	0.801873	0.411106	-0.745268
O446	O	1.135206	0.744440	-0.411934
O447	O	1.468539	1.077773	-0.078601
C448	C	0.790192	0.499219	-0.828084
C449	C	1.123525	0.832552	-0.494751
C450	C	1.456859	1.165885	-0.161418
C451	C	0.836015	0.453376	-0.787758
C452	C	1.169348	0.786709	-0.454425
C453	C	1.502682	1.120042	-0.121091
H454	H	0.817777	0.533396	-0.862459
H455	H	1.151110	0.866730	-0.529125
H456	H	1.484443	1.200063	-0.195792
H457	H	0.762890	0.526558	-0.789290
H458	H	1.096223	0.859891	-0.455957
H459	H	1.429557	1.193225	-0.122623
H460	H	0.755975	0.471605	-0.862396
H461	H	1.089308	0.804938	-0.529063
H462	H	1.422641	1.138272	-0.195729
H463	H	0.870270	0.480941	-0.753446
H464	H	1.203604	0.814274	-0.420112
H465	H	1.536937	1.147607	-0.086779
H466	H	0.863272	0.426036	-0.826590
H467	H	1.196605	0.759369	-0.493257
H468	H	1.529938	1.092702	-0.159923
H469	H	0.133857	0.392481	-0.419758
H470	H	0.467190	0.725814	-0.086425
H471	H	0.800523	1.059148	0.246908
H472	H	0.253121	0.392473	-0.419747
H473	H	0.586454	0.725807	-0.086414
H474	H	0.919788	1.059140	0.246919
H475	H	0.140087	0.240006	-0.257047
H476	H	0.473420	0.573339	0.076286
H477	H	0.806753	0.906672	0.409620
H478	H	0.980129	0.232808	-1.071063
H479	H	1.313462	0.566141	-0.737729
H480	H	1.646795	0.899475	-0.404396
H481	H	0.534695	0.392453	-0.419731
H482	H	0.868028	0.725786	-0.086398
H483	H	1.201362	1.059119	0.246936
H484	H	0.844365	0.368487	-0.851156
H485	H	1.177698	0.701821	-0.517823
H486	H	1.511031	1.035154	-0.184489
