data_functionalizedCrystal
_audit_creation_method	'MofGen! by Chris Wilmer'
_symmetry_space_group_name_H-M	'P1'
_symmetry_Int_Tables_number	1
_symmetry_cell_setting	triclinic
loop_
_symmetry_equiv_pos_as_xyz
  x,y,z
_cell_length_a	17.699083
_cell_length_b	16.109301
_cell_length_c	14.586319
_cell_angle_alpha	89.998390
_cell_angle_beta	90.000185
_cell_angle_gamma	83.372248
loop_
_atom_site_label
_atom_site_type_symbol
_atom_site_fract_x
_atom_site_fract_y
_atom_site_fract_z
O1	O	-1.004228	-0.105132	0.076115
O2	O	-0.670895	0.228202	0.409448
O3	O	-0.337561	0.561535	0.742781
O4	O	-0.783869	-0.118811	0.076145
O5	O	-0.450536	0.214523	0.409478
O6	O	-0.117202	0.547856	0.742812
O7	O	-0.900102	0.009070	0.076120
O8	O	-0.566769	0.342404	0.409453
O9	O	-0.233435	0.675737	0.742786
O10	O	-0.887995	-0.233013	0.076140
O11	O	-0.554662	0.100321	0.409473
O12	O	-0.221328	0.433654	0.742807
O13	O	-0.900088	0.009063	-0.076361
O14	O	-0.566754	0.342396	0.256972
O15	O	-0.233421	0.675729	0.590306
O16	O	-0.783855	-0.118818	-0.076336
O17	O	-0.450522	0.214515	0.256998
O18	O	-0.117188	0.547848	0.590331
O19	O	-1.004214	-0.105139	-0.076366
O20	O	-0.670880	0.228194	0.256967
O21	O	-0.337547	0.561527	0.590301
Cu22	Cu	-0.894033	-0.111979	-0.090274
Cu23	Cu	-0.560700	0.221354	0.243060
Cu24	Cu	-0.227366	0.554687	0.576393
Cu25	Cu	-0.894050	-0.111971	0.090053
Cu26	Cu	-0.560716	0.221363	0.423386
Cu27	Cu	-0.227383	0.554696	0.756719
O28	O	-0.887981	-0.233020	-0.076341
O29	O	-0.554648	0.100313	0.256993
O30	O	-0.221314	0.433646	0.590326
C31	C	-0.755664	-0.118324	-0.000091
C32	C	-0.422331	0.215009	0.333242
C33	C	-0.088998	0.548342	0.666575
C34	C	-0.671644	-0.116854	-0.000080
C35	C	-0.338311	0.216479	0.333253
C36	C	-0.004977	0.549813	0.666586
C37	C	-0.899604	0.040040	-0.000121
C38	C	-0.566271	0.373374	0.333212
C39	C	-0.232938	0.706707	0.666546
C40	C	-0.898134	0.132333	-0.000122
C41	C	-0.564801	0.465667	0.333211
C42	C	-0.231467	0.799000	0.666544
C43	C	-1.032419	-0.105626	-0.000127
C44	C	-0.699085	0.227708	0.333206
C45	C	-0.365752	0.561041	0.666539
C46	C	-1.116439	-0.107096	-0.000133
C47	C	-0.783105	0.226237	0.333201
C48	C	-0.449772	0.559571	0.666534
C49	C	-0.623130	-0.191917	-0.000074
C50	C	-0.289797	0.141416	0.333259
C51	C	0.043536	0.474749	0.666592
C52	C	-0.544185	-0.190531	-0.000086
C53	C	-0.210852	0.142803	0.333247
C54	C	0.122482	0.476136	0.666581
C55	C	-0.513755	-0.114080	-0.000098
C56	C	-0.180422	0.219254	0.333236
C57	C	0.152912	0.552587	0.666569
C58	C	-0.562275	-0.039011	-0.000106
C59	C	-0.228942	0.294323	0.333227
C60	C	0.104392	0.627656	0.666560
C61	C	-0.641219	-0.040398	-0.000101
C62	C	-0.307886	0.292935	0.333232
C63	C	0.025448	0.626269	0.666566
C64	C	-0.243904	-0.033414	-0.000130
C65	C	0.089429	0.299920	0.333204
C66	C	0.422763	0.633253	0.666537
C67	C	-0.164954	-0.032032	-0.000132
C68	C	0.168379	0.301301	0.333201
C69	C	0.501713	0.634635	0.666534
C70	C	-0.146870	-0.183546	-0.000115
C71	C	0.186463	0.149787	0.333219
C72	C	0.519796	0.483121	0.666552
C73	C	-0.225814	-0.184934	-0.000109
C74	C	0.107519	0.148400	0.333224
C75	C	0.440853	0.481733	0.666557
C76	C	-0.274327	-0.109865	-0.000123
C77	C	0.059006	0.223468	0.333210
C78	C	0.392340	0.556802	0.666544
C79	C	-0.359928	-0.111369	-0.000112
C80	C	-0.026595	0.221964	0.333222
C81	C	0.306738	0.555297	0.666555
C82	C	-0.428155	-0.112575	-0.000102
C83	C	-0.094822	0.220759	0.333231
C84	C	0.238511	0.554092	0.666564
C85	C	-0.888478	-0.263990	-0.000098
C86	C	-0.555145	0.069343	0.333235
C87	C	-0.221812	0.402676	0.666569
C88	C	-0.889949	-0.356283	-0.000091
C89	C	-0.556615	-0.022950	0.333243
C90	C	-0.223282	0.310383	0.666576
N91	N	-0.894027	-0.111985	-0.217105
N92	N	-0.560693	0.221348	0.116228
N93	N	-0.227360	0.554681	0.449561
C94	C	-0.963686	0.354719	-0.000117
C95	C	-0.630352	0.688052	0.333217
C96	C	-0.297019	1.021385	0.666550
C97	C	-0.962298	0.441437	-0.000109
C98	C	-0.628965	0.774770	0.333224
C99	C	-0.295632	1.108103	0.666558
C100	C	-0.824392	0.421325	-0.000093
C101	C	-0.491059	0.754658	0.333240
C102	C	-0.157725	1.087991	0.666573
C103	C	-0.825780	0.334608	-0.000095
C104	C	-0.492447	0.667942	0.333239
C105	C	-0.159113	1.001275	0.666572
C106	C	-0.895429	0.301308	-0.000111
C107	C	-0.562096	0.634641	0.333222
C108	C	-0.228763	0.967975	0.666556
C109	C	-0.892654	0.474742	-0.000102
C110	C	-0.559320	0.808075	0.333231
C111	C	-0.225987	1.141409	0.666565
C112	C	-0.891149	0.568766	-0.000094
C113	C	-0.557815	0.902099	0.333240
C114	C	-0.224482	1.235432	0.666573
C115	C	-0.896934	0.207278	-0.000118
C116	C	-0.563601	0.540612	0.333216
C117	C	-0.230268	0.873945	0.666549
C118	C	-0.939929	-0.162335	-0.452114
C119	C	-0.606595	0.170999	-0.118781
C120	C	-0.273262	0.504332	0.214553
C121	C	-0.939937	-0.162329	-0.548095
C122	C	-0.606603	0.171004	-0.214762
C123	C	-0.273270	0.504338	0.118571
C124	C	-0.848158	-0.061603	-0.548100
C125	C	-0.514825	0.271730	-0.214767
C126	C	-0.181492	0.605064	0.118566
C127	C	-0.848155	-0.061605	-0.452121
C128	C	-0.514822	0.271729	-0.118787
C129	C	-0.181488	0.605062	0.214546
C130	C	-0.894039	-0.111976	-0.404130
C131	C	-0.560705	0.221358	-0.070797
C132	C	-0.227372	0.554691	0.262537
C133	C	-0.894050	-0.111968	-0.596091
C134	C	-0.560717	0.221365	-0.262758
C135	C	-0.227383	0.554699	0.070576
C136	C	-0.894058	-0.111961	-0.700158
C137	C	-0.560725	0.221372	-0.366825
C138	C	-0.227392	0.554705	-0.033491
C139	C	-0.894032	-0.111981	-0.300056
C140	C	-0.560699	0.221352	0.033277
C141	C	-0.227365	0.554685	0.366610
N142	N	-0.894062	-0.111958	0.216884
N143	N	-0.560729	0.221375	0.550218
N144	N	-0.227395	0.554709	0.883551
H145	H	-0.647900	-0.254172	-0.000064
H146	H	-0.314566	0.079161	0.333269
H147	H	0.018767	0.412494	0.666603
Cl148	Cl	-0.264064	-0.281047	-0.000090
Cl149	Cl	0.069269	0.052287	0.333244
Cl150	Cl	0.402603	0.385620	0.666577
H151	H	-0.810800	-0.020594	-0.587186
H152	H	-0.477467	0.312740	-0.253853
H153	H	-0.144134	0.646073	0.079481
H154	H	-0.680719	0.020726	-0.000105
H155	H	-0.347385	0.354060	0.333228
H156	H	-0.014052	0.687393	0.666561
H157	H	-0.504688	-0.251655	-0.000080
H158	H	-0.171354	0.081678	0.333253
H159	H	0.161979	0.415012	0.666586
H160	H	-0.107361	-0.244671	-0.000109
H161	H	0.225972	0.088663	0.333225
H162	H	0.559306	0.421996	0.666558
H163	H	-1.020398	0.327608	-0.000128
H164	H	-0.687065	0.660942	0.333205
H165	H	-0.353732	0.994275	0.666539
Cl166	Cl	-0.997617	-0.225651	-0.391786
Cl167	Cl	-0.664284	0.107682	-0.058453
Cl168	Cl	-0.330951	0.441016	0.274881
Cl169	Cl	-0.739965	0.267458	-0.000079
Cl170	Cl	-0.406631	0.600791	0.333254
Cl171	Cl	-0.073298	0.934125	0.666587
Cl172	Cl	-0.997631	-0.225640	-0.608414
Cl173	Cl	-0.664297	0.107694	-0.275080
Cl174	Cl	-0.330964	0.441027	0.058253
H175	H	-0.140182	0.030227	-0.000143
H176	H	0.193152	0.363560	0.333191
H177	H	0.526485	0.696894	0.666524
Cl178	Cl	-1.048111	0.508578	-0.000114
Cl179	Cl	-0.714777	0.841912	0.333219
Cl180	Cl	-0.381444	1.175245	0.666552
H181	H	-0.767686	0.448449	-0.000082
H182	H	-0.434353	0.781782	0.333251
H183	H	-0.101019	1.115115	0.666585
H184	H	-0.810785	-0.020592	-0.413051
H185	H	-0.477452	0.312741	-0.079718
H186	H	-0.144119	0.646075	0.253615
H187	H	-0.283394	0.027712	-0.000141
H188	H	0.049939	0.361045	0.333192
H189	H	0.383272	0.694379	0.666525
Cl190	Cl	-0.524020	0.057100	-0.000127
Cl191	Cl	-0.190687	0.390433	0.333207
Cl192	Cl	0.142646	0.723766	0.666540
