data_functionalizedCrystal
_audit_creation_method	'MofGen! by Chris Wilmer'
_symmetry_space_group_name_H-M	'P1'
_symmetry_Int_Tables_number	1
_symmetry_cell_setting	triclinic
loop_
_symmetry_equiv_pos_as_xyz
  x,y,z
_cell_length_a	14.971486
_cell_length_b	14.971491
_cell_length_c	9.130313
_cell_angle_alpha	90.004085
_cell_angle_beta	89.992949
_cell_angle_gamma	96.384818
loop_
_atom_site_label
_atom_site_type_symbol
_atom_site_fract_x
_atom_site_fract_y
_atom_site_fract_z
O1	O	0.116588	-1.186939	-0.121863
O2	O	0.130542	-0.926539	-0.121852
O3	O	-0.006635	-1.063718	-0.121847
O4	O	0.253765	-1.049759	-0.121868
O5	O	-0.006646	-1.063713	0.121752
O6	O	0.130531	-0.926534	0.121747
O7	O	0.116577	-1.186933	0.121736
Cu8	Cu	0.123553	-1.056733	0.143984
Cu9	Cu	0.123566	-1.056739	-0.144100
O10	O	0.253754	-1.049754	0.121731
C11	C	-0.039965	-1.063091	-0.000048
C12	C	-0.139262	-1.061221	-0.000050
C13	C	0.129912	-0.893212	-0.000051
C14	C	0.128039	-0.793915	-0.000047
C15	C	0.117207	-1.220261	-0.000068
C16	C	0.119080	-1.319557	-0.000082
C17	C	-0.196486	-1.141810	-0.000052
C18	C	-0.289786	-1.140046	-0.000066
C19	C	-0.325859	-1.057693	-0.000068
C20	C	-0.268628	-0.977098	-0.000070
C21	C	-0.175331	-0.978862	-0.000066
C22	C	-0.463091	-0.973427	-0.000076
C23	C	-0.556395	-0.971663	-0.000077
C24	C	-0.577546	-1.134611	-0.000076
C25	C	-0.484248	-1.136375	-0.000072
C26	C	-0.427023	-1.055780	-0.000071
C27	C	0.287084	-1.050381	-0.000071
C28	C	0.386381	-1.052252	-0.000079
C29	C	0.119965	-0.366212	-0.132866
C30	C	0.121721	-0.459513	-0.132860
C31	C	0.122600	-0.506155	-0.000070
C32	C	0.121712	-0.459494	0.132724
C33	C	0.119949	-0.366197	0.132717
C34	C	0.125390	-0.653956	0.132729
C35	C	0.127155	-0.747260	0.132737
C36	C	0.127162	-0.747272	-0.132848
C37	C	0.125398	-0.653974	-0.132855
C38	C	0.124513	-0.607319	-0.000061
N39	N	0.123568	-1.056744	-0.346723
C40	C	0.062933	-1.117596	-0.576719
C41	C	0.062942	-1.117598	-0.423382
C42	C	0.184182	-0.995877	-0.423408
C43	C	0.184168	-0.995871	-0.576742
N44	N	0.123544	-1.056735	0.346607
H45	H	-0.167123	-1.208871	-0.000041
C46	C	-0.640495	-1.223268	-0.000088
N47	N	-0.687912	-1.290041	-0.000094
H48	H	0.233525	-0.946307	-0.639174
H49	H	-0.585763	-0.904604	-0.000055
H50	H	-0.128739	-0.913238	-0.000065
H51	H	-0.336374	-1.205670	-0.000065
C52	C	-0.003743	-1.184543	-0.339047
N53	N	-0.053976	-1.234965	-0.275527
H54	H	-0.454880	-1.203434	-0.000059
H55	H	0.124679	-0.615971	0.240865
C56	C	-0.400145	-0.884767	-0.000068
N57	N	-0.352735	-0.817990	-0.000051
H58	H	0.122422	-0.497479	0.240845
C59	C	0.128111	-0.798567	0.278813
N60	N	0.128830	-0.837211	0.388841
C61	C	0.118980	-0.314876	0.278790
N62	N	0.118248	-0.276223	0.388817
H63	H	0.233542	-0.946324	-0.360983
H64	H	0.013568	-1.167154	-0.639125
H65	H	-0.298007	-0.910045	-0.000081
H66	H	0.122436	-0.497496	-0.240986
C67	C	0.118997	-0.314914	-0.278949
N68	N	0.118264	-0.276279	-0.388983
H69	H	0.124689	-0.615999	-0.240985
H70	H	0.127884	-0.785263	-0.240975
