data_functionalizedCrystal
_audit_creation_method	'MofGen! by Chris Wilmer'
_symmetry_space_group_name_H-M	'P1'
_symmetry_Int_Tables_number	1
_symmetry_cell_setting	triclinic
loop_
_symmetry_equiv_pos_as_xyz
  x,y,z
_cell_length_a	12.837943
_cell_length_b	12.837942
_cell_length_c	11.295483
_cell_angle_alpha	94.530417
_cell_angle_beta	85.461227
_cell_angle_gamma	94.828940
loop_
_atom_site_label
_atom_site_type_symbol
_atom_site_fract_x
_atom_site_fract_y
_atom_site_fract_z
O1	O	1.408689	0.265788	-0.099003
O2	O	1.105556	0.252345	-0.099010
O3	O	1.250401	0.107500	-0.098999
O4	O	1.263845	0.410633	-0.099013
O5	O	1.237676	0.120201	0.099051
O6	O	1.092832	0.265045	0.099040
O7	O	1.395965	0.278489	0.099047
Cu8	Cu	1.243237	0.272927	0.117127
Cu9	Cu	1.258285	0.257907	-0.117090
O10	O	1.251121	0.423333	0.099037
C11	C	1.060125	0.254153	0.000014
C12	C	0.943710	0.240609	0.000012
C13	C	1.239497	0.074781	0.000025
C14	C	1.225953	-0.041634	0.000023
C15	C	0.718835	0.403439	0.000021
C16	C	0.609453	0.390717	0.000020
C17	C	0.615561	0.202446	0.000016
C18	C	0.724943	0.215167	0.000017
C19	C	0.776576	0.315667	0.000018
C20	C	0.885961	0.328387	0.000011
C21	C	0.892066	0.140117	0.000016
C22	C	0.782684	0.127396	0.000015
C23	C	1.388784	-0.266509	0.000002
C24	C	1.376062	-0.375892	-0.000000
C25	C	1.187791	-0.369784	0.000008
C26	C	1.200512	-0.260402	0.000010
C27	C	1.301011	-0.208768	0.000009
C28	C	1.313731	-0.099383	0.000020
C29	C	1.125461	-0.093278	0.000019
C30	C	1.112740	-0.202660	0.000017
C31	C	1.441396	0.276680	0.000021
C32	C	1.557812	0.290224	0.000015
C33	C	1.262024	0.456052	0.000010
C34	C	1.275569	0.572467	0.000004
N35	N	1.232661	0.283491	0.281863
N36	N	1.268868	0.247335	-0.281825
C37	C	1.344996	0.171231	0.531161
C38	C	1.337012	0.179223	0.655824
C39	C	1.208702	0.307459	0.655854
C40	C	1.216687	0.299467	0.531191
C41	C	1.284837	0.231353	0.468849
C42	C	1.292826	0.223367	0.344183
C43	C	1.164512	0.351597	0.344216
C44	C	1.156528	0.359589	0.468879
H45	H	0.928000	0.410219	0.000014
O46	O	1.461432	-0.431820	0.000049
C47	C	1.649519	-0.426335	-0.000034
C48	C	1.552922	-0.362868	-0.000059
H49	H	1.723515	-0.370616	-0.000147
H50	H	1.643024	-0.472360	0.082867
H51	H	1.653529	-0.483034	-0.082900
H52	H	1.548853	-0.306113	0.082751
H53	H	1.559457	-0.316914	-0.083015
H54	H	0.760876	0.485269	0.000020
O55	O	1.040121	-0.037312	-0.000133
C56	C	0.889716	-0.005154	-0.102755
C57	C	0.986310	-0.068624	-0.102725
H58	H	0.846194	-0.030430	-0.185704
H59	H	0.835405	-0.019873	-0.019926
H60	H	0.916085	0.081893	-0.102691
H61	H	0.960036	-0.155690	-0.102831
H62	H	1.040599	-0.053816	-0.185547
H63	H	0.562444	0.462191	0.000025
H64	H	0.939091	0.068646	0.000006
H65	H	0.573495	0.120630	0.000114
O66	O	1.411078	0.104932	0.470634
C67	C	1.456956	-0.073426	0.432483
C68	C	1.382026	0.001531	0.501089
H69	H	1.433509	-0.157038	0.457101
H70	H	1.452312	-0.068887	0.332669
H71	H	1.540578	-0.049823	0.456953
H72	H	1.298372	-0.022020	0.476720
H73	H	1.386762	-0.003018	0.600887
H74	H	1.385998	0.130265	0.706555
H75	H	1.153209	0.362909	0.706630
H76	H	1.101038	0.415044	0.519653
H77	H	1.115530	0.400555	0.293468
H78	H	1.470613	-0.224468	0.000013
O79	O	0.732361	0.029846	-0.000041
C80	C	0.566555	-0.073188	0.000028
C81	C	0.623410	0.037345	0.000067
H82	H	0.478457	-0.067161	0.000140
H83	H	0.594813	-0.122440	-0.082879
H84	H	0.584309	-0.111794	0.082888
H85	H	0.605681	0.076042	-0.082737
H86	H	0.595145	0.086521	0.083029
H87	H	1.395563	-0.057344	0.000023
O88	O	1.090168	-0.419922	-0.000214
C89	C	0.931939	-0.454710	-0.102799
C90	C	1.042483	-0.397889	-0.102705
H91	H	0.893344	-0.436899	-0.185640
H92	H	0.937879	-0.542821	-0.102887
H93	H	0.882725	-0.426414	-0.019877
H94	H	1.091757	-0.426098	-0.185612
H95	H	1.036464	-0.309786	-0.102554
O96	O	1.015056	-0.252692	0.000176
C97	C	0.843683	-0.274411	0.102826
C98	C	0.954265	-0.217661	0.102777
H99	H	0.794509	-0.246127	0.185782
H100	H	0.805011	-0.256678	0.020004
H101	H	0.849694	-0.362508	0.102762
H102	H	0.948348	-0.129551	0.102883
H103	H	0.992896	-0.235481	0.185592
H104	H	1.348320	0.167908	0.293425
