data_functionalizedCrystal
_audit_creation_method	'MofGen! by Chris Wilmer'
_symmetry_space_group_name_H-M	'P1'
_symmetry_Int_Tables_number	1
_symmetry_cell_setting	triclinic
loop_
_symmetry_equiv_pos_as_xyz
  x,y,z
_cell_length_a	12.759400
_cell_length_b	12.827893
_cell_length_c	12.827885
_cell_angle_alpha	90.019272
_cell_angle_beta	89.969506
_cell_angle_gamma	89.985345
loop_
_atom_site_label
_atom_site_type_symbol
_atom_site_fract_x
_atom_site_fract_y
_atom_site_fract_z
Zn1	Zn	-0.418216	-1.597675	-0.590844
Zn2	Zn	0.081784	-1.097675	-0.090844
Zn3	Zn	-0.593932	-1.597571	-0.416102
Zn4	Zn	-0.093932	-1.097571	0.083898
Zn5	Zn	-0.418267	-1.422916	-0.416117
Zn6	Zn	0.081733	-0.922916	0.083883
Zn7	Zn	-0.593854	-1.422904	-0.590802
Zn8	Zn	-0.093854	-0.922904	-0.090802
O9	O	-0.506067	-1.510266	-0.503466
O10	O	-0.006067	-1.010266	-0.003466
O11	O	-0.441537	-1.743897	-0.567675
O12	O	0.058463	-1.243897	-0.067675
O13	O	-0.570684	-1.574365	-0.269868
O14	O	-0.070684	-1.074365	0.230132
O15	O	-0.271240	-1.446147	-0.439319
O16	O	0.228760	-0.946147	0.060681
O17	O	-0.570634	-1.743821	-0.439293
O18	O	-0.070634	-1.243821	0.060707
O19	O	-0.271202	-1.574541	-0.567690
O20	O	0.228798	-1.074541	-0.067690
O21	O	-0.441624	-1.446046	-0.269879
O22	O	0.058376	-0.946046	0.230121
O23	O	-0.441548	-1.276678	-0.439278
O24	O	0.058452	-0.776678	0.060722
O25	O	-0.570501	-1.446125	-0.737043
O26	O	-0.070501	-0.946125	-0.237043
O27	O	-0.570550	-1.276669	-0.567618
O28	O	-0.070550	-0.776669	-0.067618
O29	O	-0.441461	-1.574529	-0.737074
O30	O	0.058539	-1.074529	-0.237074
O31	O	-0.740942	-1.574352	-0.439252
O32	O	-0.240942	-1.074352	0.060748
O33	O	-0.740885	-1.446025	-0.567603
O34	O	-0.240885	-0.946025	-0.067603
C35	C	-0.506047	-1.238756	-0.503446
C36	C	-0.006047	-0.738756	-0.003446
C37	C	-0.506064	-1.122603	-0.503462
C38	C	-0.006064	-0.622603	-0.003462
C39	C	-0.779035	-1.510204	-0.503444
C40	C	-0.279035	-1.010204	-0.003444
C41	C	-0.895811	-1.510273	-0.503470
C42	C	-0.395811	-1.010273	-0.003470
C43	C	-0.505966	-1.510337	-0.776036
C44	C	-0.005966	-1.010337	-0.276036
C45	C	-0.505923	-1.510368	-0.892190
C46	C	-0.005923	-1.010368	-0.392190
C47	C	-0.950668	-1.577168	-0.436711
C48	C	-0.450668	-1.077168	0.063289
C49	C	-1.060392	-1.577232	-0.436743
C50	C	-0.560392	-1.077232	0.063257
C51	C	-1.060393	-1.443499	-0.570296
C52	C	-0.560393	-0.943499	-0.070296
C53	C	-0.950671	-1.443440	-0.570268
C54	C	-0.450671	-0.943440	-0.070268
C55	C	-0.895809	-1.644001	-0.369913
C56	C	-0.395809	-1.144001	0.130087
C57	C	-0.950666	-1.710899	-0.303148
C58	C	-0.450666	-1.210899	0.196852
C59	C	-1.060390	-1.710964	-0.303180
C60	C	-0.560390	-1.210964	0.196820
C61	C	-1.115257	-1.644129	-0.369977
C62	C	-0.615257	-1.144129	0.130023
C63	C	-0.232034	-1.510357	-0.503511
C64	C	0.267966	-1.010357	-0.003511
C65	C	-0.115257	-1.510396	-0.503530
C66	C	0.384743	-1.010396	-0.003530
C67	C	-0.506088	-1.782836	-0.503487
C68	C	-0.006088	-1.282836	-0.003487
C69	C	-0.506097	-1.898990	-0.503495
C70	C	-0.006097	-1.398990	-0.003495
C71	C	-0.569998	-1.070842	-0.566871
C72	C	-0.069998	-0.570842	-0.066871
C73	C	-0.570017	-0.950791	-0.566889
C74	C	-0.070017	-0.450791	-0.066889
C75	C	-0.442058	-1.573913	-0.943989
C76	C	0.057942	-1.073913	-0.443989
C77	C	-0.442012	-1.573946	-1.064040
C78	C	0.057988	-1.073946	-0.564040
C79	C	-0.506092	-1.510256	-0.231956
C80	C	-0.006092	-1.010256	0.268044
C81	C	-0.505839	-1.510428	-0.115803
C82	C	-0.005839	-1.010428	0.384197
H83	H	-0.806466	-1.643953	-0.369876
H84	H	-0.306466	-1.143953	0.130124
C85	C	-0.368139	-1.647442	-1.124217
C86	C	0.131861	-1.147442	-0.624217
N87	N	-0.312493	-1.702800	-1.169546
N88	N	0.187507	-1.202800	-0.669546
C89	C	-0.579711	-1.436925	-1.055633
C90	C	-0.079711	-0.936925	-0.555633
N91	N	-0.635350	-1.381560	-1.010304
N92	N	-0.135350	-0.881560	-0.510304
H93	H	-1.204602	-1.644195	-0.370006
H94	H	-0.704602	-1.144195	0.129994
C95	C	-0.643966	-0.890658	-0.640231
C96	C	-0.143966	-0.390658	-0.140231
N97	N	-0.699666	-0.845363	-0.695475
N98	N	-0.199666	-0.345363	-0.195475
C99	C	-0.890324	-1.369838	-0.643691
C100	C	-0.390324	-0.869838	-0.143691
N101	N	-0.844872	-1.314395	-0.698991
N102	N	-0.344872	-0.814395	-0.198991
H103	H	-0.905988	-1.765320	-0.248770
H104	H	-0.405988	-1.265320	0.251230
H105	H	-0.451337	-1.078042	-0.449194
H106	H	0.048663	-0.578042	0.050806
H107	H	-1.105052	-1.765443	-0.248825
H108	H	-0.605052	-1.265443	0.251175
H109	H	-1.105074	-1.389084	-0.624678
H110	H	-0.605074	-0.889084	-0.124678
H111	H	-0.624717	-1.115403	-0.621148
H112	H	-0.124717	-0.615403	-0.121148
H113	H	-0.560560	-1.455982	-0.936718
H114	H	-0.060560	-0.955982	-0.436718
H115	H	-0.451362	-0.943497	-0.449202
H116	H	0.048638	-0.443497	0.050798
C117	C	-0.368231	-1.647376	-0.883838
C118	C	0.131769	-1.147376	-0.383838
N119	N	-0.312622	-1.702711	-0.838533
N120	N	0.187378	-1.202711	-0.338533
