data_functionalizedCrystal
_audit_creation_method	'MofGen! by Chris Wilmer'
_symmetry_space_group_name_H-M	'P1'
_symmetry_Int_Tables_number	1
_symmetry_cell_setting	triclinic
loop_
_symmetry_equiv_pos_as_xyz
  x,y,z
_cell_length_a	16.793024
_cell_length_b	16.793047
_cell_length_c	33.586455
_cell_angle_alpha	113.253857
_cell_angle_beta	66.219990
_cell_angle_gamma	112.758327
loop_
_atom_site_label
_atom_site_type_symbol
_atom_site_fract_x
_atom_site_fract_y
_atom_site_fract_z
O1	O	0.005016	-0.570216	-0.583573
O2	O	-0.034529	-0.474528	-0.453458
O3	O	0.114723	-0.474535	-0.528082
O4	O	-0.144235	-0.570209	-0.508949
O5	O	0.108729	-0.346329	-0.530229
O6	O	-0.040523	-0.346322	-0.455605
O7	O	-0.000977	-0.442010	-0.585721
Zn8	Zn	-0.021701	-0.373810	-0.521004
Zn9	Zn	-0.013805	-0.542728	-0.518175
O10	O	-0.150229	-0.442003	-0.511097
C11	C	0.005100	-0.790970	-0.238461
C12	C	-0.040584	-0.395375	-0.435637
C13	C	-0.044693	-0.353446	-0.386631
C14	C	-0.039275	-0.401741	-0.363054
C15	C	-0.040566	-0.125547	-0.300731
C16	C	-0.044689	-0.223451	-0.321635
C17	C	-0.039266	-0.270752	-0.297563
C18	C	0.005118	-0.521142	-0.103554
C19	C	-0.046224	-0.263935	-0.366370
C20	C	-0.036476	-0.360146	-0.318399
C21	C	-0.030850	-0.408530	-0.294565
C22	C	-0.028014	-0.367522	-0.249895
C23	C	-0.030804	-0.278128	-0.229058
C24	C	-0.036430	-0.229743	-0.252892
C25	C	-0.027971	-0.237122	-0.184383
C26	C	-0.022345	-0.285507	-0.160550
C27	C	-0.019555	-0.374900	-0.181386
C28	C	-0.022391	-0.415909	-0.226057
C29	C	-0.019601	-0.505302	-0.246894
C30	C	-0.013975	-0.553687	-0.223060
C31	C	-0.011142	-0.512684	-0.178391
C32	C	-0.013932	-0.423291	-0.157554
C33	C	-0.005516	-0.561069	-0.154557
C34	C	-0.002726	-0.650463	-0.175394
C35	C	-0.005562	-0.691471	-0.220064
C36	C	-0.011185	-0.643081	-0.243897
C37	C	-0.022434	-0.546309	-0.291568
C38	C	-0.019644	-0.635702	-0.312405
C39	C	-0.014021	-0.684089	-0.288567
C40	C	-0.022480	-0.676711	-0.357076
C41	C	-0.028106	-0.628326	-0.380910
C42	C	-0.030896	-0.538933	-0.360073
C43	C	-0.028060	-0.497924	-0.315402
C44	C	-0.036522	-0.490548	-0.383907
C45	C	0.815184	-0.521162	-0.508596
C46	C	0.415541	-0.125553	-0.528781
C47	C	0.375032	-0.223457	-0.531493
C48	C	0.423813	-0.270761	-0.529101
C49	C	0.149318	-0.395376	-0.530584
C50	C	0.246774	-0.353455	-0.532364
C51	C	0.294574	-0.401748	-0.529976
C52	C	0.548961	-0.790984	-0.510398
C53	C	0.286104	-0.263940	-0.532530
C54	C	0.383336	-0.360149	-0.528302
C55	C	0.432207	-0.407971	-0.525810
C56	C	0.392316	-0.497392	-0.524993
C57	C	0.303554	-0.538991	-0.526667
C58	C	0.254683	-0.491169	-0.529159
C59	C	0.263666	-0.628421	-0.525851
C60	C	0.312537	-0.676243	-0.523359
C61	C	0.401299	-0.634644	-0.521685
C62	C	0.441190	-0.545223	-0.522502
C63	C	0.529952	-0.503624	-0.520828
C64	C	0.578823	-0.551446	-0.518336
C65	C	0.538939	-0.640864	-0.517520
C66	C	0.450177	-0.682463	-0.519194
C67	C	0.587810	-0.688687	-0.515028
C68	C	0.676572	-0.647088	-0.513354
C69	C	0.716463	-0.557666	-0.514172
C70	C	0.667586	-0.509847	-0.516662
C71	C	0.569840	-0.414195	-0.521644
C72	C	0.658602	-0.372596	-0.519970
C73	C	0.707476	-0.420426	-0.517480
C74	C	0.698493	-0.283174	-0.520788
C75	C	0.649622	-0.235352	-0.523280
C76	C	0.560860	-0.276951	-0.524954
C77	C	0.520969	-0.366372	-0.524136
C78	C	0.511989	-0.229129	-0.527446
C79	C	-0.040530	-0.395407	-0.935652
C80	C	0.005063	-0.791004	-0.738448
C81	C	0.009186	-0.693099	-0.717543
C82	C	0.003779	-0.645796	-0.741620
C83	C	0.005077	-0.521171	-0.603544
C84	C	0.009198	-0.563096	-0.652550
C85	C	0.003786	-0.514804	-0.676131
C86	C	-0.040516	-0.125574	-0.800747
C87	C	0.010719	-0.652613	-0.672809
C88	C	0.000994	-0.556406	-0.720789
C89	C	-0.004621	-0.508585	-0.744908
C90	C	-0.007444	-0.419162	-0.724369
C91	C	-0.004651	-0.377560	-0.679711
C92	C	0.000964	-0.425381	-0.655592
C93	C	-0.007471	-0.288129	-0.659174
C94	C	-0.013086	-0.240308	-0.683293
C95	C	-0.015878	-0.281910	-0.727951
C96	C	-0.013056	-0.371333	-0.748490
C97	C	-0.015848	-0.412935	-0.793148
C98	C	-0.021463	-0.365114	-0.817267
C99	C	-0.024282	-0.275694	-0.796731
C100	C	-0.021490	-0.234092	-0.752073
C101	C	-0.029897	-0.227873	-0.820850
C102	C	-0.032690	-0.269476	-0.865508
C103	C	-0.029867	-0.358899	-0.886047
C104	C	-0.024255	-0.406717	-0.861925
C105	C	-0.013028	-0.502367	-0.813685
C106	C	-0.015821	-0.543969	-0.858343
C107	C	-0.021433	-0.496140	-0.882464
C108	C	-0.012998	-0.633392	-0.878882
C109	C	-0.007383	-0.681213	-0.854763
C110	C	-0.004591	-0.639611	-0.810105
C111	C	-0.007414	-0.550188	-0.789566
C112	C	0.001024	-0.687432	-0.785986
O113	O	-0.000965	0.173549	-0.277957
O114	O	-0.040516	-0.085616	-0.325254
O115	O	0.108737	0.059592	-0.327284
O116	O	-0.150219	0.028341	-0.275927
O117	O	0.114753	0.055151	-0.263265
O118	O	-0.034500	-0.090057	-0.261234
O119	O	0.005051	0.169108	-0.213937
Zn120	Zn	-0.013769	0.038820	-0.227421
Zn121	Zn	-0.021696	0.044672	-0.311770
O122	O	-0.144202	0.023900	-0.211907
O123	O	-0.034458	-0.474571	0.046517
O124	O	0.005076	-0.570190	-0.083599
O125	O	-0.144170	-0.570237	-0.008972
O126	O	0.114787	-0.474523	-0.028110
O127	O	-0.150200	-0.442024	-0.011093
O128	O	-0.000954	-0.441976	-0.085720
O129	O	-0.040488	-0.346357	0.044396
Zn130	Zn	-0.021679	-0.373810	-0.020999
Zn131	Zn	-0.013734	-0.542737	-0.018204
O132	O	0.108757	-0.346309	-0.030231
C133	C	-0.850734	0.086244	-0.289716
C134	C	-0.450996	0.035117	-0.097351
C135	C	-0.410501	0.028587	-0.146852
C136	C	-0.459292	0.034683	-0.169840
C137	C	-0.184802	0.024283	-0.235878
C138	C	-0.282257	0.023363	-0.213592
C139	C	-0.330068	0.029423	-0.237088
C140	C	-0.584541	0.075410	-0.428242
C141	C	-0.321573	0.024104	-0.168302
C142	C	-0.418828	0.035176	-0.215083
C143	C	-0.467711	0.041476	-0.238329
C144	C	-0.427833	0.042022	-0.283580
C145	C	-0.339073	0.036269	-0.305586
C146	C	-0.290190	0.029970	-0.282340
C147	C	-0.299198	0.036812	-0.350842
C148	C	-0.348081	0.043111	-0.374088
C149	C	-0.436841	0.048864	-0.352082
C150	C	-0.476719	0.048318	-0.306830
C151	C	-0.565480	0.054071	-0.284825
C152	C	-0.614362	0.060370	-0.308071
C153	C	-0.574491	0.060913	-0.353321
C154	C	-0.485730	0.055160	-0.375326
C155	C	-0.623374	0.067212	-0.376567
C156	C	-0.712134	0.072965	-0.354561
C157	C	-0.752012	0.072419	-0.309309
C158	C	-0.703123	0.066123	-0.286065
C159	C	-0.605355	0.053528	-0.239569
C160	C	-0.694115	0.059281	-0.217564
C161	C	-0.743001	0.065577	-0.240813
C162	C	-0.733993	0.058735	-0.172312
C163	C	-0.685110	0.052436	-0.149066
C164	C	-0.596350	0.046683	-0.171072
C165	C	-0.556472	0.047229	-0.216323
C166	C	-0.547467	0.040383	-0.147826
O167	O	0.585213	0.169090	-0.504004
O168	O	0.494056	-0.090076	-0.525516
O169	O	0.488081	0.055124	-0.449918
O170	O	0.591189	0.023889	-0.579602
O171	O	0.359978	0.059584	-0.452885
O172	O	0.365953	-0.085616	-0.528483
O173	O	0.457110	0.173550	-0.506971
Zn174	Zn	0.391193	0.044675	-0.518198
Zn175	Zn	0.559974	0.038798	-0.514289
O176	O	0.463086	0.028349	-0.582569
C177	C	0.815354	-0.521094	-0.008709
C178	C	0.415547	-0.125494	-0.028771
C179	C	0.375059	-0.223405	-0.031498
C180	C	0.423859	-0.270708	-0.029121
C181	C	0.149365	-0.395355	-0.030599
C182	C	0.246820	-0.353421	-0.032381
C183	C	0.294640	-0.401713	-0.030008
C184	C	0.549171	-0.790955	-0.010537
C185	C	0.286131	-0.263897	-0.032533
C186	C	0.383402	-0.360104	-0.028335
C187	C	0.432293	-0.407926	-0.025859
C188	C	0.392422	-0.497356	-0.025055
C189	C	0.303660	-0.538965	-0.026727
C190	C	0.254769	-0.491143	-0.029204
C191	C	0.263791	-0.628403	-0.025925
C192	C	0.312683	-0.676224	-0.023448
C193	C	0.401445	-0.634615	-0.021775
C194	C	0.441316	-0.545185	-0.022579
C195	C	0.530078	-0.503576	-0.020906
C196	C	0.578969	-0.551398	-0.018429
C197	C	0.539104	-0.640825	-0.017627
C198	C	0.450342	-0.682434	-0.019300
C199	C	0.587995	-0.688646	-0.015150
C200	C	0.676757	-0.647037	-0.013477
C201	C	0.716628	-0.557607	-0.014281
C202	C	0.667731	-0.509789	-0.016757
C203	C	0.569946	-0.414138	-0.021709
C204	C	0.658708	-0.372530	-0.020036
C205	C	0.707602	-0.420359	-0.017561
C206	C	0.698579	-0.283100	-0.020840
C207	C	0.649688	-0.235278	-0.023317
C208	C	0.560926	-0.276887	-0.024990
C209	C	0.521055	-0.366317	-0.024186
C210	C	0.512035	-0.229066	-0.027467
O211	O	-0.620614	0.089309	0.052274
O212	O	-0.529507	0.043784	-0.078544
O213	O	-0.523494	0.194833	-0.006033
O214	O	-0.626628	-0.061740	-0.020236
O215	O	-0.395386	0.185419	-0.005549
O216	O	-0.401400	0.034370	-0.078059
O217	O	-0.492507	0.079895	0.052758
Zn218	Zn	-0.426614	0.055638	-0.012574
Zn219	Zn	-0.595401	0.068041	-0.013212
O220	O	-0.498521	-0.071154	-0.019752
C221	C	-0.437537	0.048335	0.402491
C222	C	-0.837226	0.099430	0.210091
C223	C	-0.739773	0.100339	0.187806
C224	C	-0.691967	0.094287	0.211308
C225	C	-0.571027	0.088563	0.071568
C226	C	-0.611521	0.095108	0.121070
C227	C	-0.562739	0.089011	0.144061
C228	C	-0.171338	0.037467	0.263967
C229	C	-0.700452	0.099593	0.142516
C230	C	-0.603213	0.088528	0.189308
C231	C	-0.554892	0.082255	0.212848
C232	C	-0.466098	0.076466	0.191141
C233	C	-0.425624	0.076949	0.145894
C234	C	-0.473945	0.083222	0.122354
C235	C	-0.336822	0.071163	0.124188
C236	C	-0.288502	0.064890	0.147728
C237	C	-0.328975	0.064407	0.192975
C238	C	-0.417770	0.070196	0.214682
C239	C	-0.458244	0.069713	0.259929
C240	C	-0.409923	0.063441	0.283469
C241	C	-0.321132	0.057655	0.261765
C242	C	-0.280658	0.058138	0.216518
C243	C	-0.272811	0.051382	0.285305
C244	C	-0.313285	0.050899	0.330552
C245	C	-0.402079	0.056688	0.352259
C246	C	-0.450397	0.062957	0.328716
C247	C	-0.547046	0.075500	0.281635
C248	C	-0.587520	0.075016	0.326882
C249	C	-0.539191	0.068747	0.350423
C250	C	-0.676314	0.080806	0.348589
C251	C	-0.724634	0.087078	0.325049
C252	C	-0.684160	0.087561	0.279802
C253	C	-0.595366	0.081772	0.258095
C254	C	-0.732481	0.093834	0.256262
O255	O	-0.040608	-1.085661	-0.825229
O256	O	-0.001018	-0.826491	-0.777938
O257	O	-0.150287	-0.971682	-0.775894
O258	O	0.108661	-0.940470	-0.827272
O259	O	-0.144253	-0.976123	-0.711878
O260	O	0.005016	-0.830932	-0.713922
O261	O	-0.034575	-1.090102	-0.761213
Zn262	Zn	-0.013821	-0.961222	-0.727403
Zn263	Zn	-0.021771	-0.955371	-0.811747
O264	O	0.114695	-0.944911	-0.763256
C265	C	0.026348	-0.135723	-0.395666
C266	C	-0.049775	-0.210057	-0.393259
H267	H	0.024160	-0.102464	-0.412269
H268	H	0.027009	-0.098361	-0.365887
H269	H	0.079502	-0.155933	-0.410481
H270	H	-0.102929	-0.189846	-0.378441
H271	H	-0.050444	-0.247425	-0.423043
H272	H	-0.038719	-0.156659	-0.235851
H273	H	-0.805083	0.098565	0.274011
H274	H	0.682288	-0.162154	-0.023969
H275	H	-0.023718	-0.530163	-0.918978
H276	H	0.544632	-0.155941	-0.028119
H277	H	-0.740818	0.102779	0.123104
C278	C	0.062310	-0.090148	-0.647615
C279	C	-0.016195	-0.141606	-0.660625
H280	H	0.060389	-0.029214	-0.633624
H281	H	0.066060	-0.112766	-0.626775
H282	H	0.113723	-0.093556	-0.673627
H283	H	-0.067607	-0.138203	-0.634613
H284	H	-0.019954	-0.118981	-0.681467
C285	C	0.811079	-0.645236	-0.003320
C286	C	0.722954	-0.697519	-0.003611
H287	H	0.839595	-0.676400	0.002774
H288	H	0.844330	-0.634357	-0.032052
H289	H	0.809075	-0.589497	0.019523
H290	H	0.724958	-0.753256	-0.026457
H291	H	0.689695	-0.708410	0.025125
C292	C	0.084535	-0.794524	-0.809388
C293	C	0.004142	-0.786134	-0.808654
H294	H	0.086458	-0.855458	-0.823382
H295	H	0.134660	-0.757300	-0.826065
H296	H	0.087000	-0.776517	-0.779214
H297	H	0.001680	-0.804135	-0.838829
H298	H	-0.045996	-0.823370	-0.791978
C299	C	0.317739	-0.807683	-0.020423
C300	C	0.406334	-0.781149	-0.018420
H301	H	0.290579	-0.868627	-0.019883
H302	H	0.283885	-0.770480	0.004899
H303	H	0.318673	-0.801951	-0.047648
H304	H	0.405399	-0.786875	0.008807
H305	H	0.440196	-0.818363	-0.043744
C306	C	-0.012386	-0.768258	-0.941164
C307	C	-0.016068	-0.679306	-0.928176
H308	H	-0.014288	-0.796603	-0.971594
H309	H	0.042144	-0.768488	-0.938944
H310	H	-0.062529	-0.800013	-0.921766
H311	H	0.034079	-0.647548	-0.947572
H312	H	-0.070605	-0.679071	-0.930399
C313	C	-0.353116	0.049357	-0.439740
C314	C	-0.441709	0.055764	-0.425274
H315	H	-0.325947	0.049726	-0.470575
H316	H	-0.319269	0.099071	-0.421588
H317	H	-0.354053	-0.005081	-0.436873
H318	H	-0.440772	0.110205	-0.428138
H319	H	-0.475565	0.006045	-0.443431
H320	H	-0.030255	-0.164038	-0.167345
H321	H	0.544602	-0.156012	-0.528109
C322	C	-0.078177	-0.834774	-0.852840
C323	C	-0.004270	-0.779917	-0.877430
H324	H	-0.076255	-0.895708	-0.866837
H325	H	-0.075693	-0.816766	-0.822673
H326	H	-0.132709	-0.829062	-0.852341
H327	H	0.050262	-0.785624	-0.877926
H328	H	-0.006747	-0.797931	-0.907605
C329	C	-0.340771	0.077312	0.058274
C330	C	-0.429275	0.083747	0.072413
H331	H	-0.313198	0.077626	0.027440
H332	H	-0.307150	0.127045	0.076527
H333	H	-0.341946	0.022892	0.061258
H334	H	-0.428100	0.138171	0.069432
H335	H	-0.462904	0.034011	0.054154
C336	C	-0.143425	0.103420	-0.352502
C337	C	-0.201235	0.030455	-0.375127
H338	H	-0.082947	0.099486	-0.367496
H339	H	-0.147857	0.158063	-0.352568
H340	H	-0.160256	0.102184	-0.322100
H341	H	-0.184407	0.031695	-0.405528
H342	H	-0.196798	-0.024203	-0.375066
H343	H	-0.217624	0.025258	-0.300336
C344	C	0.863369	-0.421243	-0.053018
C345	C	0.805588	-0.374425	-0.015734
H346	H	0.923862	-0.392881	-0.051897
H347	H	0.846564	-0.481579	-0.052171
H348	H	0.858875	-0.421005	-0.080271
H349	H	0.810076	-0.374668	0.011519
H350	H	0.822397	-0.314072	-0.016577
H351	H	-0.023809	-0.160979	-0.735279
C352	C	0.673686	-0.713460	-0.461064
C353	C	0.722755	-0.697503	-0.503436
H354	H	0.702200	-0.744569	-0.454933
H355	H	0.671672	-0.657696	-0.438253
H356	H	0.613911	-0.748951	-0.461274
H357	H	0.782529	-0.662007	-0.503225
H358	H	0.724780	-0.753276	-0.526254
C359	C	-0.188569	-0.018351	0.086437
C360	C	-0.190495	0.058505	0.123768
H361	H	-0.128063	-0.022291	0.071644
H362	H	-0.224671	-0.070355	0.096485
H363	H	-0.211655	-0.014522	0.065862
H364	H	-0.167416	0.054672	0.144344
H365	H	-0.154380	0.110521	0.113721
H366	H	-0.005182	-0.254109	-0.622664
H367	H	-0.047834	-0.232081	-0.882358
H368	H	-0.806568	0.063430	-0.154318
H369	H	-0.815575	0.070280	-0.222817
C370	C	0.718922	-0.085200	-0.484557
C371	C	0.693615	-0.136638	-0.524161
H372	H	0.746078	-0.024257	-0.485098
H373	H	0.666943	-0.088638	-0.458883
H374	H	0.760921	-0.107814	-0.482837
H375	H	0.651611	-0.114028	-0.525880
H376	H	0.745601	-0.133195	-0.549843
C377	C	-0.239968	-0.059848	-0.163255
C378	C	-0.267056	0.019805	-0.142107
H379	H	-0.206306	-0.062495	-0.147085
H380	H	-0.291825	-0.110095	-0.163479
H381	H	-0.203389	-0.060965	-0.193543
H382	H	-0.303641	0.020919	-0.111821
H383	H	-0.215192	0.070065	-0.141878
C384	C	-0.249662	-0.056204	0.329246
C385	C	-0.262739	0.029720	0.352896
H386	H	-0.218453	-0.069274	0.343040
H387	H	-0.306628	-0.099575	0.330014
H388	H	-0.215020	-0.058028	0.298646
H389	H	-0.297387	0.031542	0.383496
H390	H	-0.205763	0.073102	0.352133
C391	C	0.047293	-0.701709	-0.457009
C392	C	-0.031216	-0.673573	-0.430219
H393	H	0.045373	-0.729644	-0.487450
H394	H	0.098697	-0.651081	-0.456000
H395	H	0.051045	-0.743497	-0.445750
H396	H	-0.034964	-0.631779	-0.441477
H397	H	-0.082634	-0.724207	-0.431231
H398	H	0.245727	-0.224039	-0.533582
H399	H	-0.303725	0.071562	0.087197
C400	C	-0.013848	-0.809329	-0.349593
C401	C	-0.019408	-0.775382	-0.380072
H402	H	-0.011954	-0.870244	-0.363790
H403	H	0.039421	-0.774632	-0.340755
H404	H	-0.065252	-0.806147	-0.323567
H405	H	0.031999	-0.778558	-0.406097
H406	H	-0.072683	-0.810089	-0.388917
H407	H	-0.011748	-0.757184	-0.305606
C408	C	-0.061865	-0.709227	-0.607717
C409	C	0.014258	-0.706488	-0.645915
H410	H	-0.059684	-0.742492	-0.591115
H411	H	-0.062518	-0.649648	-0.589030
H412	H	-0.115019	-0.737413	-0.617102
H413	H	0.067413	-0.678295	-0.636529
H414	H	0.014919	-0.766078	-0.664605
H415	H	-0.797237	0.091807	0.342798
C416	C	0.061119	-0.240981	-0.108114
C417	C	-0.019262	-0.240279	-0.111237
H418	H	0.063012	-0.213066	-0.077668
H419	H	0.063600	-0.301386	-0.117160
H420	H	0.111259	-0.208954	-0.127392
H421	H	-0.069402	-0.272312	-0.091961
H422	H	-0.021752	-0.179863	-0.102185
C423	C	-0.817718	0.058232	-0.084654
C424	C	-0.729124	0.051828	-0.099119
H425	H	-0.844892	0.057849	-0.053821
H426	H	-0.816785	0.112665	-0.087517
H427	H	-0.851565	0.008513	-0.102811
H428	H	-0.695275	0.101551	-0.080964
H429	H	-0.730052	-0.002611	-0.096253
C430	C	0.000368	-0.290509	-0.593315
C431	C	0.004045	-0.379463	-0.606302
H432	H	0.002263	-0.262165	-0.562884
H433	H	0.050506	-0.258759	-0.612711
H434	H	-0.054168	-0.290279	-0.595537
H435	H	0.058585	-0.379692	-0.604084
H436	H	-0.046097	-0.411221	-0.586901
C437	C	0.159215	-0.674005	-0.567916
C438	C	0.165711	-0.674359	-0.527715
H439	H	0.098745	-0.702382	-0.569072
H440	H	0.176020	-0.613662	-0.568754
H441	H	0.198467	-0.705745	-0.593186
H442	H	0.126464	-0.642613	-0.502444
H443	H	0.148896	-0.734713	-0.526873
C444	C	0.821325	-0.148216	-0.020227
C445	C	0.796552	-0.237175	-0.018994
H446	H	0.881805	-0.119863	-0.019083
H447	H	0.816884	-0.147971	-0.047488
H448	H	0.782094	-0.116477	0.005058
H449	H	0.835779	-0.268916	-0.044282
H450	H	0.801000	-0.237424	0.008270
H451	H	-0.580066	0.039960	-0.110823
H452	H	0.245737	-0.223998	-0.033572
H453	H	-0.011621	-0.389765	-0.121028
C454	C	-0.672375	0.074631	0.414505
C455	C	-0.583868	0.068204	0.400364
H456	H	-0.699954	0.074288	0.445334
H457	H	-0.671207	0.129052	0.411533
H458	H	-0.705991	0.024901	0.396241
H459	H	-0.550249	0.117938	0.418625
H460	H	-0.585030	0.013776	0.403340
C461	C	0.150201	-0.536734	-0.571208
C462	C	0.156719	-0.537092	-0.531013
H463	H	0.089722	-0.565092	-0.572353
H464	H	0.167021	-0.476391	-0.572049
H465	H	0.189431	-0.568492	-0.596483
H466	H	0.117493	-0.505328	-0.505737
H467	H	0.139888	-0.597446	-0.530168
H468	H	0.012418	-0.684570	-0.156900
H469	H	-0.315470	0.043557	-0.411085
H470	H	-0.709407	0.080425	0.385586
C471	C	-0.709273	0.177371	-0.387843
C472	C	-0.758320	0.093978	-0.379170
H473	H	-0.737786	0.190340	-0.403037
H474	H	-0.707285	0.222978	-0.359998
H475	H	-0.649489	0.175344	-0.406384
H476	H	-0.818103	0.096007	-0.360627
H477	H	-0.760319	0.048359	-0.407020
H478	H	0.182201	-0.525171	-0.030575
H479	H	-0.038841	-0.524079	-0.420431
H480	H	0.279916	-0.749353	-0.522691
H481	H	0.417564	-0.755580	-0.518528
C482	C	0.141055	-0.763284	-0.026536
C483	C	0.165824	-0.674325	-0.027769
H484	H	0.080570	-0.791635	-0.027672
H485	H	0.180276	-0.795021	-0.051820
H486	H	0.145507	-0.763524	0.000727
H487	H	0.161378	-0.674086	-0.055034
H488	H	0.126592	-0.642580	-0.002483
C489	C	0.830246	-0.285556	-0.516878
C490	C	0.805449	-0.374509	-0.515630
H491	H	0.890726	-0.257213	-0.515733
H492	H	0.825815	-0.285325	-0.544143
H493	H	0.791021	-0.253801	-0.491598
H494	H	0.844670	-0.406267	-0.540912
H495	H	0.809888	-0.374746	-0.488361
H496	H	-0.208057	0.053400	0.198770
H497	H	0.771070	-0.249160	-0.519423
H498	H	0.280077	-0.749342	-0.022791
