data_functionalizedCrystal
_audit_creation_method	'MofGen! by Chris Wilmer'
_symmetry_space_group_name_H-M	'P1'
_symmetry_Int_Tables_number	1
_symmetry_cell_setting	triclinic
loop_
_symmetry_equiv_pos_as_xyz
  x,y,z
_cell_length_a	13.033748
_cell_length_b	21.295417
_cell_length_c	13.033429
_cell_angle_alpha	82.774985
_cell_angle_beta	105.146268
_cell_angle_gamma	97.225772
loop_
_atom_site_label
_atom_site_type_symbol
_atom_site_fract_x
_atom_site_fract_y
_atom_site_fract_z
Zn1	Zn	1.547446	-0.101829	-0.394588
Zn2	Zn	2.047446	0.398171	0.105412
Zn3	Zn	1.569841	-0.218988	-0.216978
Zn4	Zn	2.069841	0.281012	0.283022
Zn5	Zn	1.392375	-0.125607	-0.239520
Zn6	Zn	1.892375	0.374393	0.260480
Zn7	Zn	1.369777	-0.218956	-0.417051
Zn8	Zn	1.869777	0.281044	0.082949
O9	O	1.469860	-0.166345	-0.317034
O10	O	1.969860	0.333655	0.182966
O11	O	1.699042	-0.107432	-0.352193
O12	O	2.199042	0.392568	0.147807
O13	O	1.565129	-0.216565	-0.071341
O14	O	2.065129	0.283435	0.428659
O15	O	1.413030	-0.034355	-0.260123
O16	O	1.913030	0.465645	0.239877
O17	O	1.715495	-0.193508	-0.221704
O18	O	2.215495	0.306492	0.278296
O19	O	1.526960	-0.016885	-0.374050
O20	O	2.026960	0.483115	0.125950
O21	O	1.434746	-0.147959	-0.087902
O22	O	1.934746	0.352041	0.412098
O23	O	1.240752	-0.147928	-0.281904
O24	O	1.740752	0.352072	0.218096
O25	O	1.374516	-0.193454	-0.562699
O26	O	1.874516	0.306546	-0.062699
O27	O	1.224150	-0.216511	-0.412336
O28	O	1.724150	0.283489	0.087664
O29	O	1.505048	-0.107401	-0.546195
O30	O	2.005048	0.392599	-0.046195
O31	O	1.543217	-0.307082	-0.243486
O32	O	2.043217	0.192918	0.256514
O33	O	1.396231	-0.307059	-0.390478
O34	O	1.896231	0.192941	0.109522
C35	C	1.193914	-0.184797	-0.352004
C36	C	1.693914	0.315203	0.147996
C37	C	1.075861	-0.192705	-0.366990
C38	C	1.575861	0.307295	0.133010
C39	C	1.031402	-0.162232	-0.309240
C40	C	1.531402	0.337768	0.190760
C41	C	0.909388	-0.170404	-0.324727
C42	C	1.409388	0.329596	0.175273
C43	C	1.469728	-0.329910	-0.316993
C44	C	1.969728	0.170090	0.183007
C45	C	1.469764	-0.399875	-0.316999
C46	C	1.969764	0.100125	0.183001
C47	C	1.546351	-0.432724	-0.240522
C48	C	2.046351	0.067276	0.259478
C49	C	1.546398	-0.498461	-0.240539
C50	C	2.046398	0.001539	0.259461
C51	C	1.469840	-0.531349	-0.317025
C52	C	1.969840	-0.031349	0.182975
C53	C	1.393247	-0.498492	-0.393516
C54	C	1.893247	0.001508	0.106484
C55	C	1.393209	-0.432754	-0.393503
C56	C	1.893209	0.067246	0.106497
N57	N	1.375902	-0.640291	-0.336897
N58	N	1.875902	-0.140291	0.163103
N59	N	1.375942	-0.702738	-0.336903
N60	N	1.875942	-0.202738	0.163097
C61	C	1.469951	-0.729412	-0.317071
C62	C	1.969951	-0.229412	0.182929
N63	N	1.563924	-0.691280	-0.297212
N64	N	2.063924	-0.191280	0.202788
N65	N	1.563883	-0.628827	-0.297201
N66	N	2.063883	-0.128827	0.202799
C67	C	1.469873	-0.602630	-0.317048
C68	C	1.969873	-0.102630	0.182952
C69	C	1.546595	-0.833541	-0.240609
C70	C	2.046595	-0.333541	0.259391
C71	C	1.546643	-0.899279	-0.240633
C72	C	2.046643	-0.399279	0.259367
C73	C	1.393483	-0.899309	-0.393606
C74	C	1.893483	-0.399309	0.106394
C75	C	1.393444	-0.833572	-0.393585
C76	C	1.893444	-0.333572	0.106415
C77	C	1.470000	-0.800692	-0.317081
C78	C	1.970000	-0.300692	0.182919
C79	C	1.746882	-0.147821	-0.281928
C80	C	2.246882	0.352179	0.218072
C81	C	1.864933	-0.139928	-0.266968
C82	C	2.364933	0.360072	0.233032
C83	C	1.434763	-0.147772	-0.594062
C84	C	1.934763	0.352228	-0.094062
C85	C	1.419807	-0.139857	-0.712115
C86	C	1.919807	0.360143	-0.212115
C87	C	1.470018	-0.002138	-0.317095
C88	C	1.970018	0.497862	0.182905
C89	C	1.470085	0.067837	-0.317121
C90	C	1.970085	0.567837	0.182879
C91	C	1.462200	-0.162102	-0.878562
C92	C	1.962200	0.337898	-0.378562
C93	C	1.477658	-0.170279	-0.756548
C94	C	1.977658	0.329721	-0.256548
C95	C	1.504881	-0.184796	-0.041076
C96	C	2.004881	0.315204	0.458924
C97	C	1.520042	-0.192520	0.077002
C98	C	2.020042	0.307480	0.577002
H99	H	1.608689	-0.405955	-0.178230
H100	H	2.108689	0.094045	0.321770
H101	H	0.857123	-0.202547	-0.385635
H102	H	1.357123	0.297453	0.114365
H103	H	1.581012	-0.224612	-0.870711
H104	H	2.081012	0.275388	-0.370711
H105	H	1.538632	-0.202374	-0.704264
H106	H	2.038632	0.297626	-0.204264
H107	H	1.609016	-0.926023	-0.178358
H108	H	2.109016	-0.426023	0.321642
H109	H	1.023592	-0.224845	-0.427894
H110	H	1.523592	0.275155	0.072106
H111	H	1.608768	-0.525212	-0.178262
H112	H	2.108768	-0.025212	0.321738
H113	H	1.358843	-0.107756	-0.764396
H114	H	1.858843	0.392244	-0.264396
H115	H	1.330915	-0.525273	-0.455793
H116	H	1.830915	-0.025273	0.044207
H117	H	1.330841	-0.406008	-0.455781
H118	H	1.830841	0.093992	0.044219
H119	H	1.608934	-0.806769	-0.178317
H120	H	2.108934	-0.306769	0.321683
H121	H	1.083671	-0.130097	-0.248328
H122	H	1.583671	0.369903	0.251672
H123	H	1.331152	-0.926086	-0.455886
H124	H	1.831152	-0.426086	0.044114
H125	H	0.917197	-0.107789	-0.206053
H126	H	1.417197	0.392211	0.293947
H127	H	1.331076	-0.806825	-0.455856
H128	H	1.831076	-0.306825	0.044144
H129	H	1.401239	-0.130004	-0.930848
H130	H	1.901239	0.369996	-0.430848
