data_functionalizedCrystal
_audit_creation_method	'MofGen! by Chris Wilmer'
_symmetry_space_group_name_H-M	'P1'
_symmetry_Int_Tables_number	1
_symmetry_cell_setting	triclinic
loop_
_symmetry_equiv_pos_as_xyz
  x,y,z
_cell_length_a	15.944493
_cell_length_b	10.654541
_cell_length_c	9.130307
_cell_angle_alpha	90.003083
_cell_angle_beta	90.000953
_cell_angle_gamma	83.979486
loop_
_atom_site_label
_atom_site_type_symbol
_atom_site_fract_x
_atom_site_fract_y
_atom_site_fract_z
O1	O	-1.115486	-0.161617	-0.121779
O2	O	-0.871045	-0.181662	-0.121786
O3	O	-0.998887	0.011174	-0.121774
O4	O	-0.987644	-0.354454	-0.121792
O5	O	-0.998882	0.011176	0.121825
O6	O	-0.871041	-0.181660	0.121813
O7	O	-1.115481	-0.161616	0.121820
Cu8	Cu	-0.993261	-0.171638	0.144059
Cu9	Cu	-0.993266	-0.171640	-0.144025
O10	O	-0.987640	-0.354452	0.121807
C11	C	-0.998059	0.057962	0.000025
C12	C	-0.995591	0.197373	0.000022
C13	C	-0.839743	-0.180842	0.000012
C14	C	-0.746481	-0.178386	0.000010
C15	C	-1.146783	-0.162436	0.000018
C16	C	-1.240046	-0.164892	0.000011
C17	C	-0.511377	-0.291894	0.000003
C18	C	-0.460463	-0.230683	0.120119
C19	C	-0.575733	-0.173835	0.000013
C20	C	-0.460471	-0.230656	-0.120050
C21	C	-0.410798	-0.169447	0.000009
C22	C	-0.526047	-0.112655	0.120228
C23	C	-0.526059	-0.112646	-0.120049
C24	C	-0.475177	-0.051348	0.000097
C25	C	-0.670748	-0.176366	0.000016
C26	C	-0.315787	-0.166907	0.000017
C27	C	-0.988467	-0.401240	0.000005
C28	C	-0.990935	-0.540651	-0.000002
N29	N	-0.993263	-0.171635	0.346681
C30	C	-1.148460	0.227369	0.000045
C31	C	-1.223731	0.307861	0.000060
C32	C	-1.221407	0.438848	0.000055
C33	C	-1.143803	0.489345	0.000032
C34	C	-1.068531	0.408854	0.000017
C35	C	-1.070864	0.277865	0.000026
C36	C	-0.915664	0.378858	-0.000016
C37	C	-0.917987	0.247870	-0.000001
C38	C	-0.838060	0.429355	-0.000040
C39	C	-0.762787	0.348863	-0.000044
C40	C	-0.765114	0.217868	-0.000037
C41	C	-0.842715	0.167378	-0.000016
N42	N	-0.993270	-0.171632	-0.346648
C43	C	-1.106514	-0.000928	0.346683
C44	C	-1.163144	0.084422	0.423350
C45	C	-1.163153	0.084423	0.576683
C46	C	-1.106523	-0.000933	0.653353
C47	C	-1.049892	-0.086283	0.576686
C48	C	-1.049891	-0.086277	0.423349
C49	C	-0.936639	-0.256983	0.576685
C50	C	-0.936633	-0.256992	0.423351
C51	C	-0.880009	-0.342339	0.653354
C52	C	-0.823381	-0.427697	0.576687
C53	C	-0.823376	-0.427695	0.423344
C54	C	-0.880003	-0.342342	0.346684
H55	H	-0.527589	-0.393589	0.000110
Br56	Br	-1.329047	0.239325	0.000077
Br57	Br	-0.746526	-0.543515	0.680741
Br58	Br	-0.448410	0.118273	0.000216
H59	H	-0.554719	-0.062827	-0.221597
H60	H	-1.150360	0.120714	0.000069
Br61	Br	-0.573606	-0.029603	0.289654
Br62	Br	-0.880006	-0.342340	0.138587
H63	H	-1.282700	0.504386	0.000055
H64	H	-1.106519	-0.000930	0.221831
Br65	Br	-1.140649	0.667115	-0.000089
Br66	Br	-0.412709	-0.313776	0.289365
Br67	Br	-0.834904	0.607124	-0.000154
Br68	Br	-0.412720	-0.313794	-0.289280
H69	H	-0.699607	0.389989	-0.000072
Br70	Br	-0.662954	0.108639	-0.000074
H71	H	-0.844618	0.060724	-0.000002
Br72	Br	-1.239992	0.200267	0.319299
H73	H	-1.106526	-0.000916	0.778205
H74	H	-1.209263	0.153927	0.639106
Br75	Br	-0.880011	-0.342333	0.861451
Br76	Br	-0.746508	-0.543524	0.319309
