data_functionalizedCrystal
_audit_creation_method	'MofGen! by Chris Wilmer'
_symmetry_space_group_name_H-M	'P1'
_symmetry_Int_Tables_number	1
_symmetry_cell_setting	triclinic
loop_
_symmetry_equiv_pos_as_xyz
  x,y,z
_cell_length_a	10.654544
_cell_length_b	27.732048
_cell_length_c	26.809956
_cell_angle_alpha	90.000636
_cell_angle_beta	90.009967
_cell_angle_gamma	83.563753
loop_
_atom_site_label
_atom_site_type_symbol
_atom_site_fract_x
_atom_site_fract_y
_atom_site_fract_z
O1	O	1.664998	0.067879	0.041498
O2	O	1.299248	0.074347	0.041497
O3	O	1.493483	0.000787	0.041488
O4	O	1.470764	0.141439	0.041507
O5	O	1.493446	0.000798	-0.041471
O6	O	1.299211	0.074358	-0.041462
O7	O	1.664962	0.067890	-0.041461
Zn8	Zn	1.482081	0.071126	-0.054633
Zn9	Zn	1.482129	0.071111	0.054669
O10	O	1.470727	0.141450	-0.041452
C11	C	1.252452	0.073877	0.000017
C12	C	1.113068	0.072457	0.000016
C13	C	1.113003	0.072474	-0.090429
C14	C	1.047488	0.071817	-0.135649
C15	C	0.916526	0.070481	-0.135647
C16	C	0.851076	0.069801	-0.090420
C17	C	0.916590	0.070459	-0.045199
C18	C	1.047555	0.071796	-0.045206
C19	C	0.916656	0.070437	0.045245
C20	C	1.047617	0.071777	0.045244
C21	C	0.851206	0.069757	0.090473
C22	C	0.916719	0.070418	0.135695
C23	C	1.047689	0.071754	0.135691
C24	C	1.113132	0.072434	0.090465
C25	C	1.492987	-0.017218	0.000007
C26	C	1.491551	-0.070881	0.000003
C27	C	1.597291	-0.409038	0.000029
C28	C	1.591963	-0.610731	0.000036
O29	O	1.688654	-0.641384	0.000058
N30	N	1.476790	-0.630572	0.000035
C31	C	1.362940	-0.599986	0.000036
O32	O	1.264856	-0.621490	0.000040
C33	C	1.368270	-0.398294	0.000032
C34	C	1.483450	-0.378456	0.000028
C35	C	1.712462	-0.389200	0.000025
C36	C	1.713793	-0.338779	0.000021
C37	C	1.599952	-0.308198	0.000020
C38	C	1.484781	-0.328036	0.000024
C39	C	1.254422	-0.367710	0.000037
C40	C	1.255764	-0.317284	0.000037
C41	C	1.370945	-0.297446	0.000033
C42	C	1.372271	-0.247034	0.000018
N43	N	1.487445	-0.227193	0.000019
C44	C	1.601285	-0.257775	0.000020
C45	C	1.360151	-0.705878	0.000037
C46	C	1.358818	-0.756300	0.000036
C47	C	1.587841	-0.767042	0.000038
C48	C	1.589172	-0.716618	0.000034
C49	C	1.475324	-0.686037	0.000037
C50	C	1.604071	-0.151888	0.000010
C51	C	1.605392	-0.101463	0.000004
C52	C	1.376370	-0.090726	0.000005
C53	C	1.375048	-0.141147	0.000009
C54	C	1.488909	-0.171727	0.000013
O55	O	1.275632	-0.216352	0.000002
O56	O	1.699355	-0.236262	0.000027
C57	C	1.595960	-0.459458	0.000033
C58	C	1.480789	-0.479297	0.000037
C59	C	1.366948	-0.448715	0.000036
C60	C	1.479456	-0.529719	0.000037
C61	C	1.593297	-0.560301	0.000038
C62	C	1.708470	-0.540460	0.000039
C63	C	1.709801	-0.490040	0.000034
C64	C	1.251775	-0.468556	0.000035
C65	C	1.250454	-0.518977	0.000039
C66	C	1.364294	-0.549558	0.000040
C67	C	1.711758	0.068359	0.000020
C68	C	1.851142	0.069780	0.000024
C69	C	1.471222	0.159454	0.000030
C70	C	1.472658	0.213118	0.000037
N71	N	1.482057	0.071135	-0.129229
C72	C	1.568125	0.038547	-0.473859
C73	C	1.568155	0.038539	-0.682737
O74	O	1.641282	0.010834	-0.709744
N75	N	1.482136	0.071100	-0.708856
C76	C	1.396098	0.103663	-0.682753
O77	O	1.322926	0.131355	-0.709762
C78	C	1.396063	0.103668	-0.473876
C79	C	1.482096	0.071108	-0.447760
C80	C	1.654150	0.005989	-0.447742
C81	C	1.654146	0.005993	-0.395526
C82	C	1.568117	0.038555	-0.369427
C83	C	1.482092	0.071112	-0.395543
C84	C	1.310020	0.136228	-0.447774
C85	C	1.310017	0.136225	-0.395552
C86	C	1.396050	0.103666	-0.369435
C87	C	1.396060	0.103677	-0.317228
N88	N	1.482079	0.071116	-0.291108
C89	C	1.568108	0.038555	-0.317208
C90	C	1.396124	0.103659	-0.792416
C91	C	1.396134	0.103659	-0.844635
C92	C	1.568190	0.038534	-0.844616
C93	C	1.568185	0.038537	-0.792396
C94	C	1.482143	0.071098	-0.766297
C95	C	1.568094	0.038566	-0.207550
C96	C	1.568086	0.038574	-0.155329
C97	C	1.396026	0.103697	-0.155353
C98	C	1.396038	0.103690	-0.207569
C99	C	1.482077	0.071121	-0.233666
O100	O	1.322962	0.131364	-0.290188
O101	O	1.641250	0.010860	-0.290190
C102	C	1.568129	0.038543	-0.526075
C103	C	1.482104	0.071100	-0.552192
C104	C	1.396075	0.103661	-0.526093
C105	C	1.482114	0.071100	-0.604411
C106	C	1.568143	0.038538	-0.630511
C107	C	1.654161	0.005978	-0.604391
C108	C	1.654158	0.005981	-0.552175
C109	C	1.310056	0.136222	-0.552212
C110	C	1.310068	0.136216	-0.604428
C111	C	1.396097	0.103655	-0.630528
N112	N	1.482163	0.071097	0.129265
H113	H	1.219767	0.073525	0.090457
H114	H	1.219637	0.073569	-0.090435
H115	H	1.239964	0.162741	-0.469031
H116	H	0.744570	0.068666	0.090471
H117	H	1.283684	-0.065818	0.000003
H118	H	0.863420	0.069861	0.172515
H119	H	1.100793	0.072369	-0.172473
H120	H	1.325994	0.130208	-0.228834
H121	H	0.863183	0.069950	-0.172470
H122	H	1.325986	0.130209	-0.134095
H123	H	1.281259	-0.157300	-0.000001
H124	H	0.744441	0.068708	-0.090422
H125	H	1.638239	0.012024	-0.771134
H126	H	1.101023	0.072288	0.172515
H127	H	1.326057	0.130175	-0.771170
H128	H	1.159070	-0.443661	0.000036
H129	H	1.699190	-0.085314	-0.000001
H130	H	1.638149	0.012060	-0.134066
H131	H	1.239947	0.162740	-0.374305
H132	H	1.696788	-0.176781	0.000016
H133	H	1.801163	-0.565369	0.000037
H134	H	1.807585	-0.322632	0.000019
H135	H	1.267436	-0.680982	0.000039
H136	H	1.805170	-0.414095	0.000028
H137	H	1.638240	0.012022	-0.865874
H138	H	1.265026	-0.772448	0.000031
H139	H	1.682962	-0.700470	0.000031
H140	H	1.680534	-0.791950	0.000038
H141	H	1.160630	-0.383852	0.000043
H142	H	1.239999	0.162737	-0.530966
H143	H	1.163053	-0.292387	0.000041
H144	H	1.803592	-0.473893	0.000031
H145	H	1.156653	-0.535124	0.000038
H146	H	1.724198	-0.020521	-0.374265
H147	H	1.638153	0.012044	-0.228792
H148	H	1.724205	-0.020528	-0.468988
H149	H	1.326091	0.130177	-0.865896
H150	H	1.724214	-0.020532	-0.530915
H151	H	1.724214	-0.020534	-0.625650
H152	H	1.240012	0.162734	-0.625689
