data_functionalizedCrystal
_audit_creation_method	'MofGen! by Chris Wilmer'
_symmetry_space_group_name_H-M	'P1'
_symmetry_Int_Tables_number	1
_symmetry_cell_setting	triclinic
loop_
_symmetry_equiv_pos_as_xyz
  x,y,z
_cell_length_a	10.654550
_cell_length_b	17.699083
_cell_length_c	9.130313
_cell_angle_alpha	89.994594
_cell_angle_beta	89.999724
_cell_angle_gamma	83.883973
loop_
_atom_site_label
_atom_site_type_symbol
_atom_site_fract_x
_atom_site_fract_y
_atom_site_fract_z
O1	O	1.665979	0.106303	-0.121693
O2	O	1.300323	0.116430	-0.121721
O3	O	1.493481	0.001243	-0.121693
O4	O	1.472820	0.221490	-0.121721
O5	O	1.493468	0.001240	0.121906
O6	O	1.300310	0.116427	0.121878
O7	O	1.665966	0.106299	0.121906
Cu8	Cu	1.483136	0.111363	0.144134
Cu9	Cu	1.483152	0.111367	-0.143949
O10	O	1.472807	0.221487	0.121878
C11	C	1.253531	0.115685	0.000076
C12	C	1.114127	0.113460	0.000066
C13	C	1.033454	0.181281	0.000061
C14	C	0.902470	0.179186	0.000087
C15	C	0.932844	0.041444	0.000115
C16	C	1.063826	0.043539	0.000100
C17	C	1.492735	-0.026960	0.000106
C18	C	1.490514	-0.110993	0.000107
C19	C	1.603894	-0.158893	0.000117
C20	C	1.601799	-0.237849	0.000104
C21	C	1.486323	-0.268904	0.000091
C22	C	1.372935	-0.220998	0.000076
C23	C	1.375030	-0.142043	0.000079
C24	C	1.364481	-0.539415	0.000064
C25	C	1.362394	-0.618376	0.000065
C26	C	1.591249	-0.635221	0.000089
C27	C	1.593345	-0.556266	0.000092
C28	C	1.479957	-0.508367	0.000069
C29	C	1.482229	-0.422753	0.000080
C30	C	1.484050	-0.354516	0.000090
C31	C	1.712757	0.107045	0.000106
C32	C	1.852161	0.109269	0.000107
C33	C	1.473554	0.249690	0.000075
C34	C	1.475775	0.333722	0.000065
N35	N	1.483135	0.111360	0.346757
N36	N	1.483164	0.111364	-0.346572
C37	C	1.568694	0.060376	0.423421
C38	C	1.568706	0.060376	0.576758
C39	C	1.397596	0.162350	0.576753
C40	C	1.397579	0.162345	0.423419
H41	H	1.074405	0.238215	0.000044
H42	H	0.836791	0.234412	0.000087
Br43	Br	1.750067	-0.514124	0.000108
H44	H	1.697927	-0.133614	0.000137
Br45	Br	0.864570	-0.053444	0.000156
H46	H	1.683575	-0.674231	0.000100
Br47	Br	1.281445	0.231536	0.319363
H48	H	1.694125	-0.276847	0.000116
H49	H	1.129514	-0.011692	0.000108
H50	H	1.278912	-0.246289	0.000056
H51	H	1.268354	-0.643657	0.000058
Br52	Br	1.210596	-0.474418	0.000024
H53	H	1.327939	0.203863	0.639187
H54	H	1.282705	-0.103043	0.000070
H55	H	1.638357	0.018859	0.361006
Br56	Br	1.684820	-0.008821	0.680799
