data_functionalizedCrystal
_audit_creation_method	'MofGen! by Chris Wilmer'
_symmetry_space_group_name_H-M	'P1'
_symmetry_Int_Tables_number	1
_symmetry_cell_setting	triclinic
loop_
_symmetry_equiv_pos_as_xyz
  x,y,z
_cell_length_a	12.645330
_cell_length_b	14.908792
_cell_length_c	14.908308
_cell_angle_alpha	90.212689
_cell_angle_beta	93.270481
_cell_angle_gamma	86.693318
loop_
_atom_site_label
_atom_site_type_symbol
_atom_site_fract_x
_atom_site_fract_y
_atom_site_fract_z
Zn1	Zn	-0.370844	-1.345325	-0.587888
Zn2	Zn	-0.537358	-1.353911	-0.437539
Zn3	Zn	-0.369690	-1.203638	-0.428856
Zn4	Zn	-0.557651	-1.194938	-0.579157
O5	O	-0.458886	-1.274453	-0.508360
O6	O	-0.384923	-1.472291	-0.575232
O7	O	-0.506142	-1.341212	-0.310563
O8	O	-0.221494	-1.222481	-0.449972
O9	O	-0.507260	-1.478599	-0.464771
O10	O	-0.222341	-1.326577	-0.566812
O11	O	-0.382956	-1.230807	-0.304184
O12	O	-0.402633	-1.076657	-0.441506
O13	O	-0.541845	-1.207653	-0.706139
O14	O	-0.540727	-1.070265	-0.551932
O15	O	-0.404599	-1.318141	-0.712554
O16	O	-0.688399	-1.332776	-0.456304
O17	O	-0.703308	-1.215979	-0.560351
C18	C	-0.734319	-1.274388	-0.508344
C19	C	-0.852147	-1.274441	-0.508371
C20	C	-0.473757	-1.040835	-0.494830
C21	C	-0.480147	-0.940892	-0.489062
C22	C	-0.475615	-1.260968	-0.742883
C23	C	-0.482743	-1.255222	-0.842823
C24	C	-1.029131	-1.201238	-0.574058
C25	C	-0.906578	-1.200897	-0.573813
C26	C	-0.891582	-1.254262	-0.412131
C27	C	-1.014238	-1.253815	-0.412529
C28	C	-1.014906	-1.368290	-0.538181
C29	C	-0.892485	-1.367587	-0.540220
C30	C	-0.182377	-1.274542	-0.508397
C31	C	-0.064545	-1.274579	-0.508413
C32	C	-0.552727	-0.803316	-0.423334
C33	C	-0.546728	-0.897223	-0.428752
C34	C	-0.419557	-0.890648	-0.543956
C35	C	-0.425556	-0.796741	-0.538538
C36	C	-0.492145	-0.753079	-0.478226
C37	C	-0.498149	-0.659171	-0.472813
C38	C	-0.370973	-0.652598	-0.588012
C39	C	-0.364974	-0.746504	-0.593430
C40	C	-0.443948	-0.508983	-0.521937
C41	C	-0.437559	-0.608927	-0.527707
C42	C	-0.353200	-1.359473	-1.037302
C43	C	-0.359895	-1.354077	-1.131204
C44	C	-0.502821	-1.239029	-1.124532
C45	C	-0.496126	-1.244425	-1.030630
C46	C	-0.421315	-1.304650	-0.987018
C47	C	-0.414626	-1.310051	-0.893114
C48	C	-0.557546	-1.194999	-0.886443
C49	C	-0.564241	-1.189603	-0.980346
C50	C	-0.442142	-1.287937	-0.274752
C51	C	-0.434703	-1.293858	-0.174823
H52	H	-0.880439	-1.212888	-0.645003
C53	C	-0.270913	-1.425724	-0.989327
N54	N	-0.208931	-1.475625	-0.953194
H55	H	-0.552372	-0.623623	-0.423707
C56	C	-0.632478	-1.134691	-0.831123
N57	N	-0.688916	-1.089269	-0.789455
C58	C	-0.625979	-0.755286	-0.356996
N59	N	-0.681154	-0.719110	-0.307028
H60	H	-0.304426	-1.398717	-1.172142
C61	C	-0.854139	-1.162940	-0.378483
N62	N	-0.825940	-1.094153	-0.353144
C63	C	-0.646522	-1.123352	-1.028329
N64	N	-0.708497	-1.073451	-1.064469
C65	C	-1.074333	-1.217213	-0.670533
N66	N	-1.108388	-1.229245	-0.743201
H67	H	-0.563728	-1.189996	-1.160057
H68	H	-0.596060	-0.938123	-0.384053
H69	H	-1.063361	-1.132083	-0.554134
H70	H	-0.365338	-0.926214	-0.593054
C71	C	-0.332329	-1.376296	-0.845142
N72	N	-0.270337	-1.426191	-0.809012
H73	H	-1.049128	-1.387767	-0.607457
C74	C	-1.056999	-1.161488	-0.379330
N75	N	-1.089201	-1.091944	-0.354327
H76	H	-0.310757	-0.782067	-0.642532
H77	H	-0.880686	-1.131314	-0.553658
C78	C	-1.044949	-1.323240	-0.343793
N79	N	-1.068076	-1.375525	-0.292016
H80	H	-0.855485	-1.306229	-0.361643
C81	C	-0.841844	-1.444704	-0.480919
N82	N	-0.803702	-1.502787	-0.436246
C83	C	-0.858145	-1.388304	-0.635924
N84	N	-0.832260	-1.403912	-0.708003
H85	H	-1.036964	-1.422864	-0.490437
C86	C	-0.304334	-0.597329	-0.648402
N87	N	-0.254148	-0.555699	-0.693890
