data_functionalizedCrystal
_audit_creation_method	'MofGen! by Chris Wilmer'
_symmetry_space_group_name_H-M	'P1'
_symmetry_Int_Tables_number	1
_symmetry_cell_setting	triclinic
loop_
_symmetry_equiv_pos_as_xyz
  x,y,z
_cell_length_a	10.489716
_cell_length_b	10.489716
_cell_length_c	12.376457
_cell_angle_alpha	101.395919
_cell_angle_beta	78.591709
_cell_angle_gamma	84.529136
loop_
_atom_site_label
_atom_site_type_symbol
_atom_site_fract_x
_atom_site_fract_y
_atom_site_fract_z
O1	O	1.718292	0.155598	-0.093986
O2	O	1.347092	0.172523	-0.093989
O3	O	1.541156	-0.021541	-0.093992
O4	O	1.524228	0.349662	-0.093984
O5	O	1.492656	0.026908	0.094021
O6	O	1.298592	0.220972	0.094023
O7	O	1.669793	0.204048	0.094027
Zn8	Zn	1.476492	0.220202	0.123876
Zn9	Zn	1.540392	0.156368	-0.123839
O10	O	1.475729	0.398112	0.094029
C11	C	1.275310	0.195476	0.000016
C12	C	1.133680	0.191671	0.000015
C13	C	1.515635	-0.044849	0.000011
C14	C	1.511833	-0.186483	0.000001
C15	C	1.035996	0.310676	0.000015
C16	C	0.934741	0.271681	0.092719
C17	C	0.982564	0.223885	-0.092647
C18	C	1.034272	0.152744	0.092795
C19	C	1.082121	0.104945	-0.092654
C20	C	0.980911	0.065867	0.000073
C21	C	1.630836	-0.284164	0.000012
C22	C	1.591863	-0.385407	-0.092685
C23	C	1.544019	-0.337603	0.092680
C24	C	1.472929	-0.285879	-0.092773
C25	C	1.425081	-0.238049	0.092676
C26	C	1.386026	-0.339249	-0.000045
C27	C	1.741575	0.181094	0.000018
C28	C	1.883207	0.184897	0.000013
C29	C	1.501250	0.421419	0.000024
C30	C	1.505054	0.563051	0.000026
N31	N	1.432892	0.263767	0.292935
N32	N	1.584003	0.112794	-0.292898
C33	C	1.685213	0.011641	0.647917
C34	C	1.715722	-0.018850	0.529577
C35	C	1.645017	0.051802	0.470410
C36	C	1.543798	0.152950	0.529596
C37	C	1.513293	0.183451	0.647948
C38	C	1.473096	0.223611	0.470441
C39	C	1.371877	0.324759	0.529627
C40	C	1.341377	0.355254	0.647967
C41	C	1.412082	0.284603	0.707133
C42	C	1.503602	0.193110	0.352090
C43	C	1.331681	0.364919	0.352120
C44	C	1.301172	0.395410	0.470461
H45	H	1.060633	0.414216	0.000103
H46	H	1.218758	0.477768	0.518664
H47	H	1.442958	-0.262789	-0.171229
C48	C	1.614933	0.081842	0.286999
N49	N	1.698790	-0.001974	0.237974
H50	H	0.959291	0.253953	-0.171010
H51	H	1.669862	0.026971	0.374052
C52	C	1.168205	0.009840	-0.198542
N53	N	1.233040	-0.061791	-0.278306
H54	H	1.734375	-0.259521	-0.000081
H55	H	1.354671	-0.174331	0.171048
C56	C	1.230038	0.466525	0.713068
N57	N	1.146176	0.550333	0.762100
H58	H	1.574066	-0.360886	0.171047
C59	C	1.827053	-0.130115	0.464481
N60	N	1.910910	-0.213930	0.415451
H61	H	1.057355	0.122752	0.171246
H62	H	1.662316	-0.449101	-0.171056
C63	C	1.246097	-0.372265	-0.000112
N64	N	1.140704	-0.397136	-0.000168
C65	C	1.762979	-0.066060	0.713007
N66	N	1.821557	-0.124591	0.762035
H67	H	1.387239	0.309425	0.803496
C68	C	0.848668	0.366834	0.198593
N69	N	0.783838	0.438511	0.278332
C70	C	0.947885	-0.074059	0.000145
N71	N	0.923003	-0.179447	0.000206
C72	C	1.253897	0.442639	0.287043
N73	N	1.195316	0.501173	0.238019
