data_functionalizedCrystal
_audit_creation_method	'MofGen! by Chris Wilmer'
_symmetry_space_group_name_H-M	'P1'
_symmetry_Int_Tables_number	1
_symmetry_cell_setting	triclinic
loop_
_symmetry_equiv_pos_as_xyz
  x,y,z
_cell_length_a	11.026607
_cell_length_b	19.288864
_cell_length_c	17.766277
_cell_angle_alpha	89.971843
_cell_angle_beta	89.991734
_cell_angle_gamma	95.861132
loop_
_atom_site_label
_atom_site_type_symbol
_atom_site_fract_x
_atom_site_fract_y
_atom_site_fract_z
O1	O	1.608583	0.290662	-0.062719
O2	O	1.255458	0.257564	-0.062706
O3	O	1.442224	0.174277	-0.062666
O4	O	1.421817	0.373949	-0.062759
O5	O	1.442191	0.174267	0.062522
O6	O	1.255425	0.257555	0.062483
O7	O	1.608550	0.290652	0.062469
Cu8	Cu	1.431985	0.274103	0.073907
Cu9	Cu	1.432023	0.274114	-0.074143
O10	O	1.421784	0.373940	0.062430
C11	C	1.210264	0.251454	-0.000109
C12	C	1.075649	0.233252	-0.000102
C13	C	1.001569	0.283510	-0.000125
C14	C	0.862437	0.264699	-0.000118
C15	C	1.441551	0.148312	-0.000062
C16	C	1.439580	0.070959	-0.000031
C17	C	1.653744	0.296763	-0.000129
C18	C	1.788358	0.314965	-0.000141
C19	C	1.422457	0.399904	-0.000176
C20	C	1.424428	0.477258	-0.000212
N21	N	1.431966	0.274095	0.178037
C22	C	1.314842	0.508055	-0.000193
C23	C	1.316694	0.580737	-0.000176
C24	C	1.428138	0.622619	-0.000163
C25	C	1.537738	0.591813	-0.000187
C26	C	1.535883	0.519133	-0.000211
C27	C	1.515734	0.741977	0.043732
C28	C	1.517584	0.814656	0.043762
C29	C	1.433864	0.846791	-0.000091
C30	C	1.348273	0.806237	-0.043963
C31	C	1.346418	0.733556	-0.043988
C32	C	1.430162	0.701430	-0.000137
C33	C	1.326278	0.956398	-0.000055
C34	C	1.328135	1.029082	-0.000042
C35	C	1.549182	1.040157	-0.000045
C36	C	1.547323	0.967474	-0.000065
C37	C	1.435867	0.925599	-0.000066
N38	N	1.432051	0.274117	-0.178273
C39	C	1.514693	0.237242	0.217442
C40	C	1.514700	0.237240	0.296243
C41	C	1.431992	0.274104	0.335638
C42	C	1.349250	0.310959	0.296224
C43	C	1.349237	0.310955	0.217423
C44	C	1.415757	0.335333	0.460447
C45	C	1.415778	0.335339	0.539246
C46	C	1.432024	0.274116	0.578684
C47	C	1.448274	0.212888	0.539313
C48	C	1.448262	0.212884	0.460513
C49	C	1.431996	0.274113	0.421083
C50	C	1.514763	0.237257	0.703534
C51	C	1.514762	0.237253	0.782338
C52	C	1.349317	0.310979	0.782317
C53	C	1.349313	0.310977	0.703515
C54	C	1.432042	0.274117	0.664128
H55	H	1.036069	0.176297	-0.000095
Cl56	Cl	1.190356	1.067799	-0.000027
Cl57	Cl	1.618762	0.190914	0.831878
Cl58	Cl	1.174727	0.455416	-0.000202
H59	H	1.041149	0.340464	-0.000147
Cl60	Cl	1.186166	0.903752	-0.000060
H61	H	1.227453	0.605818	-0.000159
Cl62	Cl	1.468709	0.135918	0.588883
Cl63	Cl	1.243007	0.846626	-0.099089
H64	H	1.281905	0.340973	0.328303
Cl65	Cl	1.245332	0.357317	0.831835
H66	H	1.461490	0.163029	0.428461
H67	H	1.276728	0.700540	-0.079711
H68	H	1.582123	0.207242	0.671465
Cl69	Cl	1.245315	0.357313	0.653973
Cl70	Cl	1.395358	0.412312	0.588733
H71	H	1.625124	0.494058	-0.000228
H72	H	1.402507	0.385188	0.428343
Cl73	Cl	1.245230	0.357289	0.167883
Cl74	Cl	1.689285	1.092801	-0.000037
H75	H	1.583919	0.715819	0.079441
H76	H	1.636560	0.942399	-0.000076
H77	H	1.587272	0.847670	0.079488
H78	H	0.822863	0.207741	-0.000111
H79	H	0.827931	0.371923	-0.000163
Cl80	Cl	1.618687	0.190902	0.167928
Cl81	Cl	1.677839	0.644464	-0.000176
Cl82	Cl	1.618710	0.190906	0.345789
