data_functionalizedCrystal
_audit_creation_method	'MofGen! by Chris Wilmer'
_symmetry_space_group_name_H-M	'P1'
_symmetry_Int_Tables_number	1
_symmetry_cell_setting	triclinic
loop_
_symmetry_equiv_pos_as_xyz
  x,y,z
_cell_length_a	14.853566
_cell_length_b	13.339070
_cell_length_c	11.804365
_cell_angle_alpha	105.112168
_cell_angle_beta	78.137799
_cell_angle_gamma	99.631854
loop_
_atom_site_label
_atom_site_type_symbol
_atom_site_fract_x
_atom_site_fract_y
_atom_site_fract_z
O1	O	1.242363	0.111727	-0.098942
O2	O	1.742363	0.611727	0.401058
O3	O	0.983826	0.127463	-0.098960
O4	O	1.483826	0.627463	0.401040
O5	O	1.083422	-0.027710	-0.098950
O6	O	1.583422	0.472290	0.401050
O7	O	1.142767	0.266900	-0.098952
O8	O	1.642767	0.766900	0.401048
O9	O	1.057192	0.013100	0.099103
O10	O	1.557192	0.513100	0.599103
O11	O	0.957595	0.168273	0.099093
O12	O	1.457595	0.668273	0.599093
O13	O	1.216133	0.152537	0.099112
O14	O	1.716133	0.652537	0.599112
Cu15	Cu	1.084469	0.164131	0.117186
Cu16	Cu	1.584469	0.664131	0.617186
Cu17	Cu	1.115489	0.115869	-0.117035
Cu18	Cu	1.615489	0.615869	0.382965
O19	O	1.116536	0.307710	0.099101
O20	O	1.616536	0.807710	0.599101
C21	C	1.060283	-0.045009	0.000075
C22	C	1.560283	0.454991	0.500075
C23	C	1.030404	-0.157354	0.000068
C24	C	1.530404	0.342646	0.500068
C25	C	0.936945	0.147155	0.000064
C26	C	1.436945	0.647155	0.500064
C27	C	0.836330	0.145017	0.000056
C28	C	1.336330	0.645017	0.500056
C29	C	1.262735	-0.521818	0.000085
C30	C	1.762735	-0.021818	0.500085
C31	C	1.290810	-0.416263	0.000099
C32	C	1.790810	0.083737	0.500099
C33	C	1.225711	-0.351531	0.000090
C34	C	1.725711	0.148469	0.500090
C35	C	1.132532	-0.392363	0.000070
C36	C	1.632532	0.107637	0.500070
C37	C	1.104452	-0.497926	0.000066
C38	C	1.604452	0.002074	0.500066
C39	C	1.067428	-0.327639	0.000071
C40	C	1.567428	0.172361	0.500071
C41	C	0.974249	-0.368472	0.000050
C42	C	1.474249	0.131528	0.500050
C43	C	0.946175	-0.474025	0.000046
C44	C	1.446175	0.025975	0.500046
C45	C	1.011274	-0.538757	0.000054
C46	C	1.511274	-0.038757	0.500054
C47	C	1.095508	-0.222076	0.000075
C48	C	1.595508	0.277924	0.500075
C49	C	0.937225	-0.198185	0.000055
C50	C	1.437225	0.301815	0.500055
C51	C	0.909150	-0.303739	0.000042
C52	C	1.409150	0.196261	0.500042
C53	C	0.425190	0.113739	-0.107882
C54	C	0.925190	0.613739	0.392118
C55	C	0.396614	0.158232	0.108044
C56	C	0.896614	0.658232	0.608044
C57	C	0.491148	0.160237	0.108040
C58	C	0.991148	0.660237	0.608040
C59	C	0.552708	0.138995	0.000074
C60	C	1.052708	0.638995	0.500074
C61	C	0.519734	0.115747	-0.107889
C62	C	1.019734	0.615747	0.392111
C63	C	0.524132	0.183495	0.216000
C64	C	1.024132	0.683495	0.716000
C65	C	0.618671	0.185503	0.216001
C66	C	1.118671	0.685503	0.716001
C67	C	0.680232	0.164253	0.108034
C68	C	1.180232	0.664253	0.608034
C69	C	0.647252	0.141003	0.000067
C70	C	1.147252	0.641003	0.500067
C71	C	0.708812	0.119760	-0.107899
C72	C	1.208812	0.619760	0.392101
C73	C	0.675833	0.096503	-0.215867
C74	C	1.175833	0.596503	0.284133
C75	C	0.581294	0.094497	-0.215856
C76	C	1.081294	0.594497	0.284144
C77	C	0.774770	0.166259	0.108022
C78	C	1.274770	0.666259	0.608022
C79	C	0.803355	0.121768	-0.107906
C80	C	1.303355	0.621768	0.392094
C81	C	1.263014	0.132845	0.000085
C82	C	1.763014	0.632845	0.500085
C83	C	1.363630	0.134981	0.000085
C84	C	1.863630	0.634981	0.500085
C85	C	1.139676	0.325008	0.000074
C86	C	1.639676	0.825008	0.500074
C87	C	1.169556	0.437351	0.000073
C88	C	1.669556	0.937351	0.500073
N89	N	1.062658	0.198076	0.281924
N90	N	1.562658	0.698076	0.781924
N91	N	1.137306	0.081916	-0.281773
N92	N	1.637306	0.581916	0.218227
C93	C	1.189679	0.000383	0.655887
C94	C	1.689679	0.500383	1.155887
C95	C	1.206177	-0.025300	0.531227
C96	C	1.706177	0.474700	1.031227
C97	C	1.170298	0.030541	0.468895
C98	C	1.670298	0.530541	0.968895
C99	C	1.117919	0.112071	0.531235
C100	C	1.617919	0.612071	1.031235
C101	C	1.101425	0.137762	0.655907
C102	C	1.601425	0.637762	1.155907
C103	C	1.082045	0.167921	0.468916
C104	C	1.582045	0.667921	0.968916
C105	C	1.029665	0.249450	0.531256
C106	C	1.529665	0.749450	1.031256
C107	C	1.013174	0.275137	0.655916
C108	C	1.513174	0.775137	1.155916
C109	C	1.049052	0.219295	0.718248
C110	C	1.549052	0.719295	1.218248
C111	C	1.098539	0.142229	0.344244
C112	C	1.598539	0.642229	0.844244
C113	C	1.010285	0.279609	0.344264
C114	C	1.510285	0.779609	0.844264
C115	C	0.993787	0.305292	0.468924
C116	C	1.493787	0.805292	0.968924
H117	H	1.171374	-0.188841	0.000092
H118	H	1.671374	0.311159	0.500092
H119	H	0.346488	0.175533	0.195945
H120	H	0.846488	0.675533	0.695945
H121	H	1.315727	-0.574529	0.000102
H122	H	1.815727	-0.074529	0.500102
H123	H	0.951138	0.371676	0.519697
H124	H	1.451138	0.871676	1.019697
H125	H	1.248575	-0.265584	0.000101
H126	H	1.748575	0.234416	0.500101
H127	H	0.398333	0.094798	-0.195786
H128	H	0.898333	0.594798	0.304214
H129	H	1.183734	0.009626	0.367391
H130	H	1.683734	0.509626	0.867391
H131	H	0.474004	0.200797	0.303900
H132	H	0.974004	0.700797	0.803900
H133	H	0.645513	0.204439	0.303915
H134	H	1.145513	0.704439	0.803915
H135	H	1.366675	-0.383025	0.000117
H136	H	1.866675	0.116975	0.500117
H137	H	0.884215	-0.145478	0.000055
H138	H	1.384215	0.354522	0.500055
H139	H	0.801619	0.185205	0.195928
H140	H	1.301619	0.685205	0.695928
H141	H	0.853472	0.104467	-0.195827
H142	H	1.353472	0.604467	0.304173
H143	H	0.970532	0.341530	0.706674
H144	H	1.470532	0.841530	1.206674
H145	H	0.725968	0.079214	-0.303773
H146	H	1.225968	0.579214	0.196227
H147	H	0.981071	0.325082	0.293515
H148	H	1.481071	0.825082	0.793515
H149	H	0.870302	-0.507265	0.000038
H150	H	1.370302	-0.007265	0.500038
H151	H	0.988420	-0.624711	0.000039
H152	H	1.488420	-0.124711	0.500039
H153	H	0.554434	0.075560	-0.303758
H154	H	1.054434	0.575560	0.196242
H155	H	1.141186	0.075848	0.293497
H156	H	1.641186	0.575848	0.793497
H157	H	1.248825	-0.091680	0.480474
H158	H	1.748825	0.408320	0.980474
H159	H	0.833282	-0.337000	0.000026
H160	H	1.333282	0.163000	0.500026
H161	H	1.035617	0.240203	0.819756
H162	H	1.535617	0.740203	1.319756
H163	H	1.218893	-0.045071	0.706645
H164	H	1.718893	0.454929	1.206645
