data_functionalizedCrystal
_audit_creation_method	'MofGen! by Chris Wilmer'
_symmetry_space_group_name_H-M	'P1'
_symmetry_Int_Tables_number	1
_symmetry_cell_setting	triclinic
loop_
_symmetry_equiv_pos_as_xyz
  x,y,z
_cell_length_a	11.169417
_cell_length_b	13.897448
_cell_length_c	11.169409
_cell_angle_alpha	89.964424
_cell_angle_beta	89.978317
_cell_angle_gamma	90.016630
loop_
_atom_site_label
_atom_site_type_symbol
_atom_site_fract_x
_atom_site_fract_y
_atom_site_fract_z
Zn1	Zn	-1.834901	0.383964	0.678575
Zn2	Zn	-1.501568	0.717297	1.011909
Zn3	Zn	-1.168234	1.050631	1.345242
Zn4	Zn	-1.834765	0.545300	0.477881
Zn5	Zn	-1.501431	0.878633	0.811214
Zn6	Zn	-1.168098	1.211966	1.144547
Zn7	Zn	-1.634187	0.384017	0.477903
Zn8	Zn	-1.300854	0.717351	0.811236
Zn9	Zn	-0.967520	1.050684	1.144570
Zn10	Zn	-1.634169	0.545216	0.678519
Zn11	Zn	-1.300835	0.878549	1.011852
Zn12	Zn	-0.967502	1.211882	1.345186
O13	O	-1.734505	0.464624	0.578220
O14	O	-1.401172	0.797958	0.911553
O15	O	-1.067839	1.131291	1.244886
O16	O	-2.002833	0.405378	0.651967
O17	O	-1.669499	0.738712	0.985300
O18	O	-1.336166	1.072045	1.318633
O19	O	-1.808108	0.523963	0.309934
O20	O	-1.474775	0.857296	0.643267
O21	O	-1.141441	1.190629	0.976601
O22	O	-1.660877	0.249029	0.504555
O23	O	-1.327543	0.582362	0.837889
O24	O	-0.994210	0.915695	1.171222
O25	O	-2.002732	0.523911	0.504517
O26	O	-1.669399	0.857244	0.837851
O27	O	-1.336066	1.190578	1.171184
O28	O	-1.808341	0.248990	0.651988
O29	O	-1.475007	0.582323	0.985322
O30	O	-1.141674	0.915656	1.318655
O31	O	-1.660745	0.405469	0.309950
O32	O	-1.327411	0.738803	0.643284
O33	O	-0.994078	1.072136	0.976617
O34	O	-1.466235	0.405388	0.504501
O35	O	-1.132901	0.738721	0.837834
O36	O	-0.799568	1.072055	1.171168
O37	O	-1.660846	0.523768	0.846476
O38	O	-1.327512	0.857101	1.179810
O39	O	-0.994179	1.190435	1.513143
O40	O	-1.466221	0.523820	0.651893
O41	O	-1.132888	0.857153	0.985226
O42	O	-0.799555	1.190486	1.318560
O43	O	-1.808323	0.405297	0.846518
O44	O	-1.474990	0.738630	1.179851
O45	O	-1.141656	1.071964	1.513184
O46	O	-1.808090	0.680270	0.504463
O47	O	-1.474757	1.013604	0.837796
O48	O	-1.141424	1.346937	1.171130
O49	O	-1.660713	0.680209	0.651871
O50	O	-1.327380	1.013542	0.985205
O51	O	-0.994047	1.346875	1.318538
C52	C	-1.422681	0.464601	0.578194
C53	C	-1.089347	0.797935	0.911527
C54	C	-0.756014	1.131268	1.244861
C55	C	-1.289281	0.464615	0.578212
C56	C	-0.955947	0.797948	0.911545
C57	C	-0.622614	1.131281	1.244878
C58	C	-1.734418	0.715239	0.578185
C59	C	-1.401084	1.048572	0.911518
C60	C	-1.067751	1.381905	1.244851
C61	C	-1.734490	0.822453	0.578210
C62	C	-1.401157	1.155786	0.911543
C63	C	-1.067823	1.489119	1.244877
C64	C	-1.734597	0.464517	0.891262
C65	C	-1.401264	0.797851	1.224595
C66	C	-1.067931	1.131184	1.557929
C67	C	-1.734637	0.464472	1.024662
C68	C	-1.401303	0.797805	1.357996
C69	C	-1.067970	1.131138	1.691329
C70	C	-1.047548	0.464640	0.578236
C71	C	-0.714214	0.797973	0.911570
C72	C	-0.380881	1.131307	1.244903
C73	C	-1.180948	0.464626	0.578219
C74	C	-0.847614	0.797959	0.911553
C75	C	-0.514281	1.131293	1.244886
C76	C	-1.734626	0.213031	0.578281
C77	C	-1.401293	0.546365	0.911614
C78	C	-1.067959	0.879698	1.244947
C79	C	-1.734677	0.105817	0.578307
C80	C	-1.401344	0.439151	0.911640
C81	C	-1.068011	0.772484	1.244973
C82	C	-1.734616	1.018748	0.578285
C83	C	-1.401283	1.352081	0.911619
C84	C	-1.067949	1.685414	1.244952
C85	C	-1.734543	0.909515	0.578247
C86	C	-1.401209	1.242848	0.911580
C87	C	-1.067876	1.576182	1.244914
C88	C	-1.734483	0.464661	0.266395
C89	C	-1.401149	0.797995	0.599728
C90	C	-1.067816	1.131328	0.933061
C91	C	-1.734676	0.464435	0.132995
C92	C	-1.401342	0.797769	0.466329
C93	C	-1.068009	1.131102	0.799662
