data_functionalizedCrystal
_audit_creation_method	'MofGen! by Chris Wilmer'
_symmetry_space_group_name_H-M	'P1'
_symmetry_Int_Tables_number	1
_symmetry_cell_setting	triclinic
loop_
_symmetry_equiv_pos_as_xyz
  x,y,z
_cell_length_a	16.974829
_cell_length_b	16.992695
_cell_length_c	16.053802
_cell_angle_alpha	87.258926
_cell_angle_beta	83.771117
_cell_angle_gamma	92.974284
loop_
_atom_site_label
_atom_site_type_symbol
_atom_site_fract_x
_atom_site_fract_y
_atom_site_fract_z
O1	O	1.061820	-0.093240	-0.141172
O2	O	1.561820	0.406760	0.358828
O3	O	0.831718	-0.106701	-0.125627
O4	O	1.331718	0.393299	0.374373
O5	O	0.945846	0.014168	-0.133331
O6	O	1.445846	0.514168	0.366669
O7	O	0.947691	-0.214109	-0.133469
O8	O	1.447691	0.285891	0.366531
O9	O	0.939562	0.007542	0.005952
O10	O	1.439562	0.507542	0.505952
O11	O	0.825434	-0.113327	0.013656
O12	O	1.325434	0.386673	0.513656
O13	O	1.055536	-0.099865	-0.001889
O14	O	1.555536	0.400135	0.498111
Zn15	Zn	0.939487	-0.107648	0.027998
Zn16	Zn	1.439487	0.392352	0.527998
Zn17	Zn	0.947766	-0.098919	-0.155514
Zn18	Zn	1.447766	0.401081	0.344486
O19	O	0.941408	-0.220735	0.005814
O20	O	1.441408	0.279265	0.505814
C21	C	0.798997	-0.109624	-0.053987
C22	C	1.298997	0.390376	0.446013
C23	C	0.710860	-0.108453	-0.048033
C24	C	1.210860	0.391547	0.451967
C25	C	0.214374	-0.102275	-0.006365
C26	C	0.714374	0.397725	0.493635
C27	C	0.297188	-0.103375	-0.011962
C28	C	0.797188	0.396625	0.488038
C29	C	0.342021	-0.100308	-0.090685
C30	C	0.842021	0.399692	0.409315
C31	C	0.304035	-0.096148	-0.163816
C32	C	0.804035	0.403852	0.336184
C33	C	0.221222	-0.095053	-0.158218
C34	C	0.721222	0.404947	0.341782
C35	C	0.590062	-0.103199	-0.115566
C36	C	1.090062	0.396801	0.384434
C37	C	0.672880	-0.104291	-0.121158
C38	C	1.172880	0.395709	0.378842
C39	C	0.666027	-0.111520	0.030696
C40	C	1.166027	0.388480	0.530696
C41	C	0.583213	-0.110421	0.036287
C42	C	1.083213	0.389579	0.536287
C43	C	0.545235	-0.106265	-0.036844
C44	C	1.045235	0.393735	0.463156
N45	N	0.426670	-0.101430	-0.096407
N46	N	0.926670	0.398570	0.403593
N47	N	0.460586	-0.105149	-0.031121
N48	N	0.960586	0.394851	0.468879
C49	C	0.940331	0.040057	-0.063529
C50	C	1.440331	0.540057	0.436471
C51	C	0.933250	0.127071	-0.063051
C52	C	1.433250	0.627071	0.436949
C53	C	1.088257	-0.096942	-0.073531
C54	C	1.588257	0.403058	0.426469
C55	C	1.176394	-0.098113	-0.079491
C56	C	1.676394	0.401887	0.420509
N57	N	0.933843	-0.113605	0.153239
N58	N	1.433843	0.386395	0.653239
C59	C	0.946923	-0.246624	-0.063989
C60	C	1.446923	0.253376	0.436011
C61	C	0.954004	-0.333638	-0.064473
C62	C	1.454004	0.166362	0.435527
C63	C	1.001573	0.177603	-0.067666
C64	C	1.501573	0.677603	0.432334
C65	C	0.994915	0.259362	-0.067224
C66	C	1.494915	0.759362	0.432776
C67	C	0.919933	0.290587	-0.062161
C68	C	1.419933	0.790587	0.437839
C69	C	0.851605	0.240049	-0.057548
C70	C	1.351605	0.740049	0.442452
C71	C	0.858263	0.158292	-0.057996
C72	C	1.358263	0.658292	0.442004
C73	C	0.892335	0.534067	-0.060308
C74	C	1.392335	1.034067	0.439692
C75	C	0.885681	0.615830	-0.059858
C76	C	1.385681	1.115830	0.440142
C77	C	1.028992	0.635138	-0.069535
C78	C	1.528992	1.135138	0.430465
C79	C	1.035645	0.553378	-0.069978
C80	C	1.535645	1.053378	0.430022
C81	C	0.967316	0.502848	-0.065369
C82	C	1.467316	1.002848	0.434631
N83	N	0.913126	0.374157	-0.061707
N84	N	1.413126	0.874157	0.438293
N85	N	0.974125	0.419280	-0.065830
N86	N	1.474125	0.919280	0.434170
N87	N	0.953417	-0.092955	-0.280756
N88	N	1.453417	0.407045	0.219244
C89	C	0.982425	-0.062194	0.193654
C90	C	1.482425	0.437806	0.693654
C91	C	0.978484	-0.066368	0.281326
C92	C	1.478484	0.433632	0.781326
C93	C	0.925965	-0.121959	0.328583
C94	C	1.425965	0.378041	0.828583
C95	C	0.877378	-0.173373	0.288162
C96	C	1.377378	0.326627	0.788162
C97	C	0.881315	-0.169194	0.200491
C98	C	1.381315	0.330806	0.700491
C99	C	0.908767	-0.140191	0.591153
C100	C	1.408767	0.359809	1.091153
C101	C	0.904835	-0.144367	0.678830
C102	C	1.404835	0.355633	1.178830
C103	C	1.005940	-0.037361	0.671988
C104	C	1.505940	0.462639	1.171988
C105	C	1.009876	-0.033190	0.584315
C106	C	1.509876	0.466810	1.084315
C107	C	0.961286	-0.084601	0.543903
C108	C	1.461286	0.415399	1.043903
N109	N	0.921938	-0.126229	0.418198
N110	N	1.421938	0.373771	0.918198
N111	N	0.965310	-0.080327	0.454289
N112	N	1.465310	0.419673	0.954289
H113	H	0.546717	-0.112902	0.100391
H114	H	1.046717	0.387098	0.600391
C115	C	0.769126	0.274394	-0.051977
C116	C	1.269126	0.774394	0.448023
H117	H	0.774944	0.330322	-0.052362
H118	H	1.274944	0.830322	0.447638
H119	H	0.742964	0.259337	-0.098632
H120	H	1.242964	0.759337	0.401368
H121	H	0.738587	0.254718	-0.001484
H122	H	1.238587	0.754718	0.498516
H123	H	0.836697	0.492934	-0.056555
H124	H	1.336697	0.992934	0.443445
C125	C	0.179440	-0.090475	-0.238654
C126	C	0.679440	0.409525	0.261346
H127	H	0.123699	-0.090271	-0.224046
H128	H	0.623699	0.409729	0.275954
H129	H	0.197565	-0.043461	-0.270978
H130	H	0.697565	0.456539	0.229022
H131	H	0.191272	-0.134885	-0.270556
H132	H	0.691272	0.365115	0.229444
C133	C	0.847017	-0.205478	0.730814
C134	C	1.347017	0.294522	1.230814
H135	H	0.818624	-0.235482	0.694191
H136	H	1.318624	0.264518	1.194191
H137	H	0.876035	-0.239653	0.762958
H138	H	1.376035	0.260347	1.262958
H139	H	0.810699	-0.178981	0.767355
H140	H	1.310699	0.321019	1.267355
H141	H	1.052641	0.012077	0.545841
H142	H	1.552641	0.512077	1.045841
C143	C	0.783108	0.102707	-0.052918
C144	C	1.283108	0.602707	0.447082
H145	H	0.737497	0.133011	-0.049831
H146	H	1.237497	0.633011	0.450169
H147	H	0.784919	0.072720	-0.101463
H148	H	1.284919	0.572720	0.398537
H149	H	0.780534	0.068105	-0.004314
H150	H	1.280534	0.568105	0.495686
H151	H	0.559150	-0.099812	-0.175115
H152	H	1.059150	0.400188	0.324885
C153	C	1.059377	0.019194	0.716444
C154	C	1.559377	0.519194	1.216444
H155	H	1.049507	0.008750	0.775426
H156	H	1.549507	0.508750	1.275426
H157	H	1.113490	0.011565	0.698450
H158	H	1.613490	0.511565	1.198450
H159	H	1.048086	0.072165	0.702892
H160	H	1.548086	0.572165	1.202892
C161	C	0.707805	-0.116102	0.111132
C162	C	1.207805	0.383898	0.611132
H163	H	0.763545	-0.116321	0.096528
H164	H	1.263545	0.383679	0.596528
H165	H	0.695974	-0.071702	0.143043
H166	H	1.195974	0.428298	0.643043
H167	H	0.689676	-0.163125	0.143448
H168	H	1.189676	0.336875	0.643448
H169	H	1.050552	0.300502	-0.070980
H170	H	1.550552	0.800502	0.429020
H171	H	0.328107	-0.106763	0.047585
H172	H	0.828107	0.393237	0.547585
C173	C	1.040195	-0.001042	0.141679
C174	C	1.540195	0.498958	0.641679
H175	H	1.068558	0.028984	0.178309
H176	H	1.568558	0.528984	0.678309
H177	H	1.076531	-0.027485	0.105113
H178	H	1.576531	0.472515	0.605113
H179	H	1.011129	0.033117	0.109562
H180	H	1.511129	0.533117	0.609562
C181	C	0.353345	-0.092777	-0.250411
C182	C	0.853345	0.407223	0.249589
H183	H	0.318862	-0.090149	-0.293160
H184	H	0.818862	0.409851	0.206840
H185	H	0.388941	-0.047345	-0.255961
H186	H	0.888941	0.452655	0.244039
H187	H	0.382643	-0.138769	-0.255540
H188	H	0.882643	0.361231	0.244460
C189	C	1.031933	-0.009822	0.325778
C190	C	1.531933	0.490178	0.825778
H191	H	1.063783	0.023875	0.285077
H192	H	1.563783	0.523875	0.785077
H193	H	0.999810	0.021079	0.362060
H194	H	1.499810	0.521079	0.862060
H195	H	1.065195	-0.039541	0.357612
H196	H	1.565195	0.460459	0.857612
C197	C	0.855327	-0.196748	0.546709
C198	C	1.355327	0.303252	1.046709
H199	H	0.823493	-0.230459	0.587412
H200	H	1.323493	0.269541	1.087412
H201	H	0.822060	-0.167045	0.514873
H202	H	1.322060	0.332955	1.014873
H203	H	0.887462	-0.227647	0.510430
H204	H	1.387462	0.272353	1.010430
C205	C	0.827879	-0.225750	0.156035
C206	C	1.327879	0.274250	0.656035
H207	H	0.796042	-0.259462	0.196733
H208	H	1.296042	0.240538	0.696733
H209	H	0.794616	-0.196044	0.124198
H210	H	1.294616	0.303956	0.624198
H211	H	0.860015	-0.256649	0.119755
H212	H	1.360015	0.243351	0.619755
C213	C	0.819610	-0.234523	0.340141
C214	C	1.319610	0.265477	0.840141
H215	H	0.824229	-0.229655	0.398143
H216	H	1.324229	0.270345	0.898143
H217	H	0.766787	-0.225523	0.329402
H218	H	1.266787	0.274477	0.829402
H219	H	0.832189	-0.286125	0.324952
H220	H	1.332189	0.213875	0.824952
H221	H	0.709381	-0.101800	-0.185267
H222	H	1.209381	0.398200	0.314733
C223	C	0.165065	-0.105652	0.080231
C224	C	0.665065	0.394348	0.580231
H225	H	0.199548	-0.108296	0.122979
H226	H	0.699548	0.391704	0.622979
H227	H	0.135763	-0.059668	0.085368
H228	H	0.635763	0.440332	0.585368
H229	H	0.129472	-0.151091	0.085775
H230	H	0.629472	0.348909	0.585775
C231	C	1.118125	0.519037	-0.075558
C232	C	1.618125	1.019037	0.424442
H233	H	1.157864	0.560843	-0.078252
H234	H	1.657864	1.060843	0.421748
H235	H	1.121514	0.485236	-0.027365
H236	H	1.621514	0.985236	0.472635
H237	H	1.125888	0.489855	-0.124513
H238	H	1.625888	0.989855	0.375487
H239	H	1.084621	0.676288	-0.073288
H240	H	1.584621	1.176288	0.426712
H241	H	1.062631	0.152186	-0.071783
H242	H	1.562631	0.652186	0.428217
C243	C	0.803198	0.650177	-0.054303
C244	C	1.303198	1.150177	0.445697
H245	H	0.763457	0.608374	-0.051633
H246	H	1.263457	1.108374	0.448367
H247	H	0.795422	0.679363	-0.005357
H248	H	1.295422	1.179363	0.494643
H249	H	0.799827	0.683976	-0.102507
H250	H	1.299827	1.183976	0.397493
