data_functionalizedCrystal
_audit_creation_method	'MofGen! by Chris Wilmer'
_symmetry_space_group_name_H-M	'P1'
_symmetry_Int_Tables_number	1
_symmetry_cell_setting	triclinic
loop_
_symmetry_equiv_pos_as_xyz
  x,y,z
_cell_length_a	23.532407
_cell_length_b	23.532407
_cell_length_c	22.010155
_cell_angle_alpha	90.003069
_cell_angle_beta	89.999577
_cell_angle_gamma	97.151322
loop_
_atom_site_label
_atom_site_type_symbol
_atom_site_fract_x
_atom_site_fract_y
_atom_site_fract_z
O1	O	0.069127	-0.755264	-0.050455
O2	O	0.569127	-0.255264	0.449545
O3	O	0.079130	-0.589400	-0.050474
O4	O	0.579130	-0.089400	0.449526
O5	O	-0.008803	-0.677334	-0.050453
O6	O	0.491197	-0.177334	0.449547
O7	O	0.157060	-0.667330	-0.050476
O8	O	0.657060	-0.167330	0.449524
O9	O	-0.008790	-0.677318	0.050597
O10	O	0.491210	-0.177318	0.550597
O11	O	0.079143	-0.589384	0.050576
O12	O	0.579143	-0.089384	0.550576
O13	O	0.069140	-0.755248	0.050595
O14	O	0.569140	-0.255248	0.550595
Cu15	Cu	0.074143	-0.672315	0.059812
Cu16	Cu	0.574143	-0.172315	0.559812
Cu17	Cu	0.074127	-0.672333	-0.059691
Cu18	Cu	0.574127	-0.172333	0.440309
O19	O	0.157073	-0.667314	0.050574
O20	O	0.657073	-0.167314	0.550574
C21	C	0.078882	-0.568176	0.000049
C22	C	0.578882	-0.068176	0.500049
C23	C	0.078116	-0.504959	0.000042
C24	C	0.578116	-0.004959	0.500042
C25	C	-0.030013	-0.677071	0.000074
C26	C	0.469987	-0.177071	0.500074
C27	C	-0.093230	-0.676305	0.000078
C28	C	0.406770	-0.176305	0.500078
C29	C	0.069388	-0.776472	0.000071
C30	C	0.569388	-0.276472	0.500071
C31	C	0.070154	-0.839689	0.000073
C32	C	0.570154	-0.339689	0.500073
C33	C	-0.492333	-0.723539	0.000050
C34	C	0.007667	-0.223539	0.500050
C35	C	-0.551733	-0.722827	0.000046
C36	C	-0.051733	-0.222827	0.500046
O37	O	-0.588478	-0.766613	0.000028
O38	O	-0.088478	-0.266613	0.500028
N39	N	-0.574359	-0.670551	0.000040
N40	N	-0.074359	-0.170551	0.500040
C41	C	-0.537582	-0.618983	0.000033
C42	C	-0.037582	-0.118983	0.500033
O43	O	-0.562281	-0.574452	0.000027
O44	O	-0.062281	-0.074452	0.500027
C45	C	-0.478182	-0.619695	0.000033
C46	C	0.021818	-0.119695	0.500033
C47	C	-0.455560	-0.671974	0.000045
C48	C	0.044440	-0.171974	0.500045
C49	C	-0.469710	-0.775814	0.000061
C50	C	0.030290	-0.275814	0.500061
C51	C	-0.410313	-0.776525	0.000067
C52	C	0.089687	-0.276525	0.500067
C53	C	-0.373540	-0.724961	0.000062
C54	C	0.126460	-0.224961	0.500062
C55	C	-0.396164	-0.672685	0.000051
C56	C	0.103836	-0.172685	0.500051
C57	C	-0.441406	-0.568127	0.000022
C58	C	0.058594	-0.068127	0.500022
C59	C	-0.382004	-0.568844	0.000022
C60	C	0.117996	-0.068844	0.500022
C61	C	-0.359381	-0.621123	0.000034
C62	C	0.140619	-0.121123	0.500034
C63	C	-0.299995	-0.621832	0.000052
C64	C	0.200005	-0.121832	0.500052
N65	N	-0.277368	-0.674109	0.000057
N66	N	0.222632	-0.174109	0.500057
C67	C	-0.314141	-0.725673	0.000062
C68	C	0.185859	-0.225673	0.500062
C69	C	-0.662324	-0.617491	0.000031
C70	C	-0.162324	-0.117491	0.500031
C71	C	-0.721722	-0.616778	0.000035
C72	C	-0.221722	-0.116778	0.500035
C73	C	-0.735869	-0.720623	0.000047
C74	C	-0.235869	-0.220623	0.500047
C75	C	-0.676470	-0.721335	0.000047
C76	C	-0.176470	-0.221335	0.500047
C77	C	-0.639698	-0.669767	0.000037
C78	C	-0.139698	-0.169767	0.500037
C79	C	-0.189405	-0.727163	0.000075
C80	C	0.310595	-0.227163	0.500075
C81	C	-0.130003	-0.727869	0.000083
C82	C	0.369997	-0.227869	0.500083
C83	C	-0.115860	-0.624025	0.000069
C84	C	0.384140	-0.124025	0.500069
C85	C	-0.175257	-0.623318	0.000064
C86	C	0.324743	-0.123318	0.500064
C87	C	-0.212029	-0.674891	0.000065
C88	C	0.287971	-0.174891	0.500065
O89	O	-0.263215	-0.578070	0.000067
O90	O	0.236785	-0.078070	0.500067
O91	O	-0.289433	-0.770196	0.000060
O92	O	0.210567	-0.270196	0.500060
C93	C	0.178283	-0.667577	0.000046
C94	C	0.678283	-0.167577	0.500046
C95	C	0.241500	-0.668343	0.000037
C96	C	0.741500	-0.168343	0.500037
N97	N	0.074153	-0.672305	0.143865
N98	N	0.574153	-0.172305	0.643865
C99	C	0.125350	-0.105856	0.000063
C100	C	0.625350	0.394144	0.500063
C101	C	0.124638	-0.046456	0.000067
C102	C	0.624638	0.453544	0.500067
O103	O	0.168424	-0.009711	0.000083
O104	O	0.668424	0.490289	0.500083
N105	N	0.072362	-0.023830	0.000073
N106	N	0.572362	0.476170	0.500073
C107	C	0.020794	-0.060607	0.000082
C108	C	0.520794	0.439393	0.500082
O109	O	-0.023737	-0.035908	0.000088
O110	O	0.476263	0.464092	0.500088
C111	C	0.021506	-0.120006	0.000082
C112	C	0.521506	0.379994	0.500082
C113	C	0.073785	-0.142629	0.000070
C114	C	0.573785	0.357371	0.500070
C115	C	0.177625	-0.128479	0.000051
C116	C	0.677625	0.371521	0.500051
C117	C	0.178336	-0.187876	0.000046
C118	C	0.678336	0.312124	0.500046
C119	C	0.126772	-0.224649	0.000053
C120	C	0.626772	0.275351	0.500053
C121	C	0.074497	-0.202025	0.000065
C122	C	0.574497	0.297975	0.500065
C123	C	-0.030062	-0.156783	0.000096
C124	C	0.469938	0.343217	0.500096
C125	C	-0.029345	-0.216185	0.000097
C126	C	0.470655	0.283815	0.500097
C127	C	0.022934	-0.238808	0.000084
C128	C	0.522934	0.261192	0.500084
C129	C	0.023643	-0.298194	0.000067
C130	C	0.523643	0.201806	0.500067
N131	N	0.075920	-0.320820	0.000061
N132	N	0.575920	0.179180	0.500061
C133	C	0.127484	-0.284048	0.000054
C134	C	0.627484	0.215952	0.500054
C135	C	0.019302	0.064135	0.000082
C136	C	0.519302	0.564135	0.500082
C137	C	0.018589	0.123533	0.000077
C138	C	0.518589	0.623533	0.500077
C139	C	0.122434	0.137680	0.000063
C140	C	0.622434	0.637680	0.500063
C141	C	0.123146	0.078281	0.000064
C142	C	0.623146	0.578281	0.500064
C143	C	0.071578	0.041509	0.000076
C144	C	0.571578	0.541509	0.500076
C145	C	0.128974	-0.408784	0.000043
C146	C	0.628974	0.091216	0.500043
C147	C	0.129680	-0.468186	0.000035
C148	C	0.629680	0.031814	0.500035
C149	C	0.025836	-0.482329	0.000052
C150	C	0.525836	0.017671	0.500052
C151	C	0.025129	-0.422932	0.000057
C152	C	0.525129	0.077068	0.500057
C153	C	0.076702	-0.386160	0.000054
C154	C	0.576702	0.113840	0.500054
O155	O	-0.020119	-0.334974	0.000054
O156	O	0.479881	0.165026	0.500054
O157	O	0.172007	-0.308755	0.000055
O158	O	0.672007	0.191245	0.500055
N159	N	0.074112	-0.672347	-0.143744
N160	N	0.574112	-0.172347	0.356256
C161	C	0.035196	-0.711273	0.563653
C162	C	0.535196	-0.211273	1.063653
C163	C	0.035192	-0.711275	0.627261
C164	C	0.535192	-0.211275	1.127261
O165	O	0.002076	-0.744384	0.660160
O166	O	0.502076	-0.244384	1.160160
N167	N	0.074115	-0.672333	0.659072
N168	N	0.574115	-0.172333	1.159072
C169	C	0.113041	-0.633382	0.627272
C170	C	0.613041	-0.133382	1.127272
O171	O	0.146148	-0.600259	0.660170
O172	O	0.646148	-0.100259	1.160170
C173	C	0.113042	-0.633377	0.563665
C174	C	0.613042	-0.133377	1.063665
C175	C	0.074120	-0.672326	0.531858
C176	C	0.574120	-0.172326	1.031858
C177	C	-0.003723	-0.750217	0.531846
C178	C	0.496277	-0.250217	1.031846
C179	C	-0.003719	-0.750215	0.468243
C180	C	0.496281	-0.250215	0.968243
C181	C	0.035205	-0.711268	0.436447
C182	C	0.535205	-0.211268	0.936447
C183	C	0.074125	-0.672324	0.468255
C184	C	0.574125	-0.172324	0.968255
C185	C	0.151965	-0.594424	0.531866
C186	C	0.651965	-0.094424	1.031866
C187	C	0.151962	-0.594422	0.468256
C188	C	0.651962	-0.094422	0.968256
C189	C	0.113040	-0.633370	0.436448
C190	C	0.613040	-0.133370	0.936448
C191	C	0.113054	-0.633374	0.372856
C192	C	0.613054	-0.133374	0.872856
N193	N	0.074130	-0.672317	0.341045
N194	N	0.574130	-0.172317	0.841045
C195	C	0.035206	-0.711263	0.372841
C196	C	0.535206	-0.211263	0.872841
C197	C	0.113036	-0.633395	0.760850
C198	C	0.613036	-0.133395	1.260850
C199	C	0.113039	-0.633402	0.824455
C200	C	0.613039	-0.133402	1.324455
C201	C	0.035188	-0.711294	0.824440
C202	C	0.535188	-0.211294	1.324440
C203	C	0.035189	-0.711290	0.760833
C204	C	0.535189	-0.211290	1.260833
C205	C	0.074113	-0.672337	0.729039
C206	C	0.574113	-0.172337	1.229039
C207	C	0.035220	-0.711256	0.239269
C208	C	0.535220	-0.211256	0.739269
C209	C	0.035229	-0.711252	0.175660
C210	C	0.535229	-0.211252	0.675660
C211	C	0.113077	-0.633358	0.175681
C212	C	0.613077	-0.133358	0.675681
C213	C	0.113070	-0.633364	0.239284
C214	C	0.613070	-0.133364	0.739284
C215	C	0.074136	-0.672315	0.271077
C216	C	0.574136	-0.172315	0.771077
O217	O	0.146151	-0.600282	0.339916
O218	O	0.646151	-0.100282	0.839916
O219	O	0.002100	-0.744376	0.339935
O220	O	0.502100	-0.244376	0.839935
H221	H	-0.111587	-0.770443	0.000094
H222	H	0.388413	-0.270443	0.500094
H223	H	0.183658	-0.562700	0.442372
H224	H	0.683658	-0.062700	0.942372
H225	H	-0.632386	-0.575496	0.000028
H226	H	-0.132386	-0.075496	0.500028
C227	C	0.155886	-0.590516	0.140698
C228	C	0.655886	-0.090516	0.640698
H229	H	0.150306	-0.596091	0.098261
H230	H	0.650306	-0.096091	0.598261
H231	H	0.193869	-0.596475	0.151117
H232	H	0.693869	-0.096475	0.651117
H233	H	0.149883	-0.552544	0.151125
H234	H	0.649883	-0.052544	0.651125
H235	H	-0.459814	-0.525555	0.000009
H236	H	0.040186	-0.025555	0.500009
C237	C	-0.007629	-0.754128	0.725851
C238	C	0.492371	-0.254128	1.225851
H239	H	-0.030811	-0.777320	0.753902
H240	H	0.469189	-0.277320	1.253902
H241	H	0.012734	-0.777717	0.701032
H242	H	0.512734	-0.277717	1.201032
H243	H	-0.031237	-0.733772	0.701044
H244	H	0.468763	-0.233772	1.201044
C245	C	0.179156	0.178136	0.000060
C246	C	0.679156	0.678136	0.500060
H247	H	0.210396	0.156159	0.000051
H248	H	0.710396	0.656159	0.500051
H249	H	0.181037	0.201603	0.035299
H250	H	0.681037	0.701603	0.535299
H251	H	0.181030	0.201599	-0.035182
H252	H	0.681030	0.701599	0.464818
H253	H	-0.740136	-0.574207	0.000036
H254	H	-0.240136	-0.074207	0.500036
C255	C	-0.229845	-0.783892	0.000081
C256	C	0.270155	-0.283892	0.500081
H257	H	-0.207856	-0.815123	0.000094
H258	H	0.292144	-0.315123	0.500094
H259	H	-0.253311	-0.785787	-0.035157
H260	H	0.246689	-0.285787	0.464843
H261	H	-0.253310	-0.785768	0.035324
H262	H	0.246690	-0.285768	0.535324
C263	C	-0.038918	0.148412	0.000085
C264	C	0.461082	0.648412	0.500085
H265	H	-0.069523	0.117999	0.000092
H266	H	0.430477	0.617999	0.500092
H267	H	-0.041363	0.171289	-0.035151
H268	H	0.458637	0.671289	0.464849
H269	H	-0.041351	0.171287	0.035331
H270	H	0.458649	0.671287	0.535331
C271	C	0.155861	-0.590501	0.274274
C272	C	0.655861	-0.090501	0.774274
H273	H	0.179034	-0.567297	0.246225
H274	H	0.679034	-0.067297	0.746225
H275	H	0.179473	-0.610823	0.299105
H276	H	0.679473	-0.110823	0.799105
H277	H	0.135461	-0.566919	0.299068
H278	H	0.635461	-0.066919	0.799068
C279	C	-0.385436	-0.834033	0.000068
C280	C	0.114564	-0.334033	0.500068
H281	H	-0.415850	-0.864637	0.000063
H282	H	0.084150	-0.364637	0.500063
H283	H	-0.362558	-0.836473	0.035305
H284	H	0.137442	-0.336473	0.535305
H285	H	-0.362562	-0.836474	-0.035176
H286	H	0.137438	-0.336474	0.464824
C287	C	0.235844	-0.212753	0.000044
C288	C	0.735844	0.287247	0.500044
H289	H	0.266448	-0.182339	0.000048
H290	H	0.766448	0.317661	0.500048
H291	H	0.238286	-0.235634	-0.035192
H292	H	0.738286	0.264366	0.464808
H293	H	0.238283	-0.235625	0.035289
H294	H	0.738283	0.264375	0.535289
H295	H	-0.499645	-0.817806	0.000063
H296	H	0.000355	-0.317806	0.500063
H297	H	-0.658056	-0.763906	0.000056
H298	H	-0.158056	-0.263906	0.500056
C299	C	-0.037426	0.023690	0.000082
C300	C	0.462574	0.523690	0.500082
H301	H	-0.068658	0.045677	0.000079
H302	H	0.431342	0.545677	0.500079
H303	H	-0.039310	0.000223	0.035318
H304	H	0.460690	0.500223	0.535318
H305	H	-0.039311	0.000225	-0.035163
H306	H	0.460689	0.500225	0.464837
C307	C	-0.075406	-0.567307	0.000059
C308	C	0.424594	-0.067307	0.500059
H309	H	-0.097383	-0.536068	0.000055
H310	H	0.402617	-0.036068	0.500055
H311	H	-0.051940	-0.565439	-0.035179
H312	H	0.448060	-0.065439	0.464821
H313	H	-0.051940	-0.565420	0.035302
H314	H	0.448060	-0.065420	0.535302
C315	C	-0.776327	-0.777344	0.000041
C316	C	-0.276327	-0.277344	0.500041
H317	H	-0.814942	-0.769428	0.000031
H318	H	-0.314942	-0.269428	0.500031
H319	H	-0.769508	-0.798796	0.035279
H320	H	-0.269508	-0.298796	0.535279
H321	H	-0.769498	-0.798794	-0.035202
H322	H	-0.269498	-0.298794	0.464798
H323	H	-0.352066	-0.526850	0.000013
H324	H	0.147934	-0.026850	0.500013
H325	H	0.170970	-0.378851	0.000042
H326	H	0.670970	0.121149	0.500042
H327	H	0.144737	-0.601676	0.734966
H328	H	0.644737	-0.101676	1.234966
C329	C	-0.087571	-0.131911	0.000118
C330	C	0.412429	0.368089	0.500118
H331	H	-0.118173	-0.162326	0.000131
H332	H	0.381827	0.337674	0.500131
H333	H	-0.090024	-0.109034	-0.035117
H334	H	0.409976	0.390966	0.464883
H335	H	-0.089999	-0.109036	0.035365
H336	H	0.410001	0.390964	0.535365
C337	C	-0.086072	-0.256632	0.000103
C338	C	0.413928	0.243368	0.500103
H339	H	-0.117306	-0.234647	0.000105
H340	H	0.382694	0.265353	0.500105
H341	H	-0.087951	-0.280100	0.035338
H342	H	0.412049	0.219900	0.535338
H343	H	-0.087957	-0.280095	-0.035143
H344	H	0.412043	0.219905	0.464857
H345	H	0.172255	-0.486602	0.000025
H346	H	0.672255	0.013398	0.500025
H347	H	0.219617	-0.098544	0.000048
H348	H	0.719617	0.401456	0.500048
H349	H	-0.193677	-0.580748	0.000071
H350	H	0.306323	-0.080748	0.500071
C351	C	-0.046541	-0.793066	0.566811
C352	C	0.453459	-0.293066	1.066811
H353	H	-0.069713	-0.816258	0.538750
H354	H	0.430287	-0.316258	1.038750
H355	H	-0.070151	-0.772726	0.591630
H356	H	0.429849	-0.272726	1.091630
H357	H	-0.026170	-0.816661	0.591617
H358	H	0.473830	-0.316661	1.091617
C359	C	-0.032377	-0.398045	0.000064
C360	C	0.467623	0.101955	0.500064
H361	H	-0.062984	-0.428456	0.000069
H362	H	0.437016	0.071544	0.500069
H363	H	-0.034819	-0.375165	-0.035170
H364	H	0.465181	0.124835	0.464830
H365	H	-0.034809	-0.375172	0.035311
H366	H	0.465191	0.124828	0.535311
C367	C	0.180653	0.053402	0.000055
C368	C	0.680653	0.553402	0.500055
H369	H	0.211258	0.083814	0.000054
H370	H	0.711258	0.583814	0.500054
H371	H	0.183088	0.030520	-0.035182
H372	H	0.683088	0.530520	0.464818
H373	H	0.183096	0.030530	0.035300
H374	H	0.683096	0.530530	0.535300
C375	C	-0.030880	-0.522786	0.000065
C376	C	0.469120	-0.022786	0.500065
H377	H	-0.022964	-0.561400	0.000068
H378	H	0.477036	-0.061400	0.500068
H379	H	-0.052342	-0.515965	-0.035167
H380	H	0.447658	-0.015965	0.464833
H381	H	-0.052320	-0.515957	0.035315
H382	H	0.447680	-0.015957	0.535315
C383	C	-0.007589	-0.754095	0.140676
C384	C	0.492411	-0.254095	0.640676
H385	H	-0.030775	-0.777285	0.168725
H386	H	0.469225	-0.277285	0.668725
H387	H	0.012777	-0.777685	0.115861
H388	H	0.512777	-0.277685	0.615861
H389	H	-0.031194	-0.733740	0.115865
H390	H	0.468806	-0.233740	0.615865
C391	C	-0.007604	-0.754104	0.274232
C392	C	0.492396	-0.254104	0.774232
H393	H	-0.030776	-0.777298	0.246172
H394	H	0.469224	-0.277298	0.746172
H395	H	-0.031214	-0.733760	0.299047
H396	H	0.468786	-0.233760	0.799047
H397	H	0.012764	-0.777698	0.299042
H398	H	0.512764	-0.277698	0.799042
C399	C	-0.046540	-0.793052	0.433262
C400	C	0.453460	-0.293052	0.933262
H401	H	-0.069723	-0.816240	0.461316
H402	H	0.430277	-0.316240	0.961316
H403	H	-0.026180	-0.816645	0.408444
H404	H	0.473820	-0.316645	0.908444
H405	H	-0.070147	-0.772695	0.408455
H406	H	0.429853	-0.272695	0.908455
H407	H	0.003493	-0.743006	0.850339
H408	H	0.503493	-0.243006	1.350339
C409	C	0.155853	-0.590559	0.859436
C410	C	0.655853	-0.090559	1.359436
H411	H	0.179030	-0.567362	0.831385
H412	H	0.679030	-0.067362	1.331385
H413	H	0.179459	-0.610904	0.884252
H414	H	0.679459	-0.110904	1.384252
H415	H	0.135479	-0.566968	0.884246
H416	H	0.635479	-0.066968	1.384246
H417	H	0.183658	-0.562708	0.557755
H418	H	0.683658	-0.062708	1.057755
