data_functionalizedCrystal
_audit_creation_method	'MofGen! by Chris Wilmer'
_symmetry_space_group_name_H-M	'P1'
_symmetry_Int_Tables_number	1
_symmetry_cell_setting	triclinic
loop_
_symmetry_equiv_pos_as_xyz
  x,y,z
_cell_length_a	13.339070
_cell_length_b	15.944551
_cell_length_c	12.376457
_cell_angle_alpha	101.276265
_cell_angle_beta	75.589755
_cell_angle_gamma	99.564016
loop_
_atom_site_label
_atom_site_type_symbol
_atom_site_fract_x
_atom_site_fract_y
_atom_site_fract_z
O1	O	1.361721	0.409519	-0.094056
O2	O	1.067189	0.354248	-0.094048
O3	O	1.222496	0.261484	-0.094042
O4	O	1.206414	0.502283	-0.094062
O5	O	1.183683	0.284634	0.093969
O6	O	1.028376	0.377398	0.093963
O7	O	1.322908	0.432670	0.093955
Zn8	Zn	1.169480	0.408710	0.123810
Zn9	Zn	1.220618	0.378208	-0.123903
O10	O	1.167601	0.525433	0.093949
C11	C	1.010092	0.356487	-0.000041
C12	C	0.897788	0.328657	-0.000038
C13	C	0.533017	0.545045	-0.000074
C14	C	0.638533	0.571195	-0.000081
C15	C	0.703352	0.510563	-0.000069
C16	C	0.662645	0.423776	-0.000053
C17	C	0.557120	0.397623	-0.000055
C18	C	0.727455	0.363140	-0.000050
C19	C	0.686748	0.276354	-0.000033
C20	C	0.581233	0.250205	-0.000035
C21	C	0.516415	0.310837	-0.000046
C22	C	0.832979	0.389294	-0.000048
C23	C	0.857082	0.241871	-0.000029
C24	C	0.751566	0.215722	-0.000022
C25	C	1.202422	0.241610	-0.000036
C26	C	1.200420	0.147897	-0.000036
C27	C	1.099369	-0.090507	-0.000048
C28	C	1.127158	-0.129176	0.092651
C29	C	1.196799	-0.023674	-0.000044
C30	C	1.165448	-0.151979	-0.092713
C31	C	1.193296	-0.189405	-0.000057
C32	C	1.224599	-0.061099	0.092732
C33	C	1.262892	-0.083908	-0.092715
C34	C	1.290747	-0.122540	0.000007
C35	C	1.198814	0.071800	-0.000036
C36	C	1.191287	-0.284874	-0.000058
C37	C	1.380005	0.430431	-0.000054
C38	C	1.492311	0.458260	-0.000065
C39	C	1.187676	0.545308	-0.000059
C40	C	1.189680	0.639019	-0.000067
N41	N	1.134587	0.429527	0.292867
N42	N	1.255518	0.357386	-0.292960
C43	C	1.336516	0.309045	0.647859
C44	C	1.360931	0.294473	0.529520
C45	C	1.304347	0.328235	0.470351
C46	C	1.223343	0.376572	0.529532
C47	C	1.198930	0.391151	0.647883
C48	C	1.166762	0.410341	0.470375
C49	C	1.085758	0.458678	0.529556
C50	C	1.061349	0.473254	0.647895
C51	C	1.117933	0.439492	0.707064
C52	C	1.191175	0.395762	0.352024
C53	C	1.053590	0.477868	0.352048
C54	C	1.029174	0.492440	0.470387
H55	H	1.018478	-0.076032	0.000046
H56	H	1.324230	0.316368	0.373994
H57	H	1.257129	0.356407	0.303849
N58	N	1.334851	-0.058705	-0.191021
N59	N	1.411074	-0.002837	-0.180764
H60	H	1.461893	0.014962	-0.250200
N61	N	1.134012	-0.201336	-0.191013
N62	N	1.046490	-0.196780	-0.207501
H63	H	1.024279	-0.231638	-0.276920
N64	N	1.443773	0.245209	0.469090
N65	N	1.494354	0.215140	0.521927
H66	H	1.552903	0.180385	0.479248
H67	H	1.371680	-0.136832	0.000057
N68	N	1.394318	0.274591	0.708315
N69	N	1.372522	0.287629	0.813978
H70	H	1.413354	0.263301	0.856678
H71	H	0.480235	0.594401	-0.000092
H72	H	0.995399	0.512620	0.696080
H73	H	1.069769	-0.149237	0.171023
H74	H	1.098051	0.451353	0.803425
N75	N	0.946433	0.541808	0.530862
N76	N	0.924649	0.554812	0.636525
H77	H	0.866212	0.589678	0.679239
H78	H	1.249577	-0.021853	0.171188
N79	N	0.995801	0.512361	0.291604
N80	N	1.017610	0.499341	0.185941
H81	H	0.976805	0.523703	0.143244
H82	H	0.789267	0.531859	-0.000078
N83	N	0.874546	0.477941	-0.000033
N84	N	0.914365	0.518740	0.079224
H85	H	0.943721	0.581353	0.079240
N86	N	0.680097	0.659840	-0.000109
N87	N	0.622218	0.713967	-0.000123
H88	H	0.651573	0.776577	-0.000145
H89	H	0.430494	0.289550	-0.000040
H90	H	0.548096	0.179536	-0.000034
N91	N	0.709985	0.127070	-0.000036
N92	N	0.746198	0.070877	-0.079284
H93	H	0.716831	0.008266	-0.079296
H94	H	0.909859	0.192498	-0.000025
