data_functionalizedCrystal
_audit_creation_method	'MofGen! by Chris Wilmer'
_symmetry_space_group_name_H-M	'P1'
_symmetry_Int_Tables_number	1
_symmetry_cell_setting	triclinic
loop_
_symmetry_equiv_pos_as_xyz
  x,y,z
_cell_length_a	18.215407
_cell_length_b	12.645330
_cell_length_c	18.215398
_cell_angle_alpha	89.979496
_cell_angle_beta	89.983470
_cell_angle_gamma	90.015151
loop_
_atom_site_label
_atom_site_type_symbol
_atom_site_fract_x
_atom_site_fract_y
_atom_site_fract_z
Zn1	Zn	1.125106	-0.422149	-0.416083
Zn2	Zn	1.458439	-0.088815	-0.082750
Zn3	Zn	1.791773	0.244518	0.250583
Zn4	Zn	1.125031	-0.599423	-0.293028
Zn5	Zn	1.458364	-0.266090	0.040306
Zn6	Zn	1.791697	0.067244	0.373639
Zn7	Zn	1.002039	-0.422166	-0.293037
Zn8	Zn	1.335373	-0.088833	0.040296
Zn9	Zn	1.668706	0.244500	0.373630
Zn10	Zn	1.002020	-0.599363	-0.416059
Zn11	Zn	1.335353	-0.266029	-0.082726
Zn12	Zn	1.668687	0.067304	0.250608
O13	O	1.063549	-0.510775	-0.354552
O14	O	1.396882	-0.177442	-0.021218
O15	O	1.730216	0.155892	0.312115
O16	O	1.228080	-0.445682	-0.399766
O17	O	1.561414	-0.112349	-0.066433
O18	O	1.894747	0.220984	0.266901
O19	O	1.108692	-0.575942	-0.190045
O20	O	1.442026	-0.242609	0.143289
O21	O	1.775359	0.090725	0.476622
O22	O	1.018404	-0.273817	-0.309374
O23	O	1.351737	0.059517	0.023960
O24	O	1.685071	0.392850	0.357293
O25	O	1.228025	-0.575925	-0.309358
O26	O	1.561358	-0.242592	0.023976
O27	O	1.894692	0.090742	0.357309
O28	O	1.108821	-0.273804	-0.399775
O29	O	1.442154	0.059530	-0.066442
O30	O	1.775487	0.392863	0.266891
O31	O	1.018331	-0.445712	-0.190052
O32	O	1.351664	-0.112379	0.143282
O33	O	1.684998	0.220954	0.476615
O34	O	0.899053	-0.445654	-0.309350
O35	O	1.232386	-0.112320	0.023983
O36	O	1.565719	0.221013	0.357317
O37	O	1.018371	-0.575822	-0.519046
O38	O	1.351704	-0.242489	-0.185713
O39	O	1.685038	0.090845	0.147620
O40	O	0.899038	-0.575839	-0.399733
O41	O	1.232372	-0.242506	-0.066400
O42	O	1.565705	0.090828	0.266933
O43	O	1.108802	-0.445624	-0.519064
O44	O	1.442135	-0.112290	-0.185731
O45	O	1.775468	0.221043	0.147602
O46	O	1.108673	-0.747762	-0.309334
O47	O	1.442007	-0.414429	0.023999
O48	O	1.775340	-0.081096	0.357333
O49	O	1.018298	-0.747718	-0.399724
O50	O	1.351631	-0.414385	-0.066391
O51	O	1.684965	-0.081051	0.266942
C52	C	0.872343	-0.510743	-0.354540
C53	C	1.205676	-0.177409	-0.021207
C54	C	1.539009	0.155924	0.312126
C55	C	0.790544	-0.510754	-0.354553
C56	C	1.123877	-0.177421	-0.021220
C57	C	1.457211	0.155912	0.312114
C58	C	0.525498	-0.578674	-0.401550
C59	C	0.858831	-0.245341	-0.068217
C60	C	1.192165	0.087993	0.265117
C61	C	0.602357	-0.578665	-0.401546
C62	C	0.935690	-0.245332	-0.068213
C63	C	1.269023	0.088002	0.265120
C64	C	0.602341	-0.442900	-0.307567
C65	C	0.935674	-0.109567	0.025767
C66	C	1.269008	0.223767	0.359100
C67	C	0.525484	-0.442915	-0.307567
C68	C	0.858817	-0.109582	0.025766
C69	C	1.192150	0.223751	0.359100
C70	C	0.487064	-0.510801	-0.354563
C71	C	0.820398	-0.177467	-0.021229
C72	C	1.153731	0.155866	0.312104
C73	C	0.640780	-0.510776	-0.354559
C74	C	0.974114	-0.177443	-0.021226
C75	C	1.307447	0.155890	0.312108
C76	C	0.724114	-0.510766	-0.354555
C77	C	1.057447	-0.177433	-0.021221
C78	C	1.390781	0.155901	0.312112
C79	C	0.403725	-0.510813	-0.354566
C80	C	0.737059	-0.177479	-0.021233
C81	C	1.070392	0.155854	0.312100
C82	C	1.063495	-0.786205	-0.354541
C83	C	1.396829	-0.452871	-0.021208
C84	C	1.730162	-0.119538	0.312125
C85	C	1.063540	-0.904035	-0.354562
C86	C	1.396873	-0.570702	-0.021228
C87	C	1.730206	-0.237368	0.312105
C88	C	1.006919	-1.071615	-0.411602
C89	C	1.340252	-0.738282	-0.078268
C90	C	1.673586	-0.404948	0.255065
C91	C	1.006629	-0.949056	-0.411418
C92	C	1.339963	-0.615722	-0.078085
C93	C	1.673296	-0.282389	0.255248
C94	C	1.042547	-0.948619	-0.277004
C95	C	1.375881	-0.615286	0.056329
C96	C	1.709214	-0.281952	0.389663
C97	C	1.042202	-1.071217	-0.277350
C98	C	1.375535	-0.737884	0.055983
C99	C	1.708868	-0.404551	0.389316
C100	C	1.141499	-1.071131	-0.374450
C101	C	1.474832	-0.737798	-0.041117
C102	C	1.808166	-0.404465	0.292216
C103	C	1.141021	-0.948525	-0.376146
C104	C	1.474355	-0.615191	-0.042813
C105	C	1.807688	-0.281858	0.290521
C106	C	1.255502	-0.510808	-0.354564
C107	C	1.588835	-0.177475	-0.021230
C108	C	1.922169	0.155858	0.312103
C109	C	1.337301	-0.510823	-0.354569
C110	C	1.670634	-0.177489	-0.021235
C111	C	2.003967	0.155844	0.312098
C112	C	1.063593	-0.510714	-0.546505
C113	C	1.396926	-0.177381	-0.213171
C114	C	1.730259	0.155952	0.120162
C115	C	1.063611	-0.510688	-0.628304
C116	C	1.396945	-0.177355	-0.294970
C117	C	1.730278	0.155978	0.038363
C118	C	1.063623	-0.234270	-0.354578
C119	C	1.396956	0.099064	-0.021245
C120	C	1.730290	0.432397	0.312088
C121	C	1.063654	-0.116440	-0.354589
C122	C	1.396988	0.216894	-0.021256
C123	C	1.730321	0.550227	0.312077
C124	C	1.110696	-0.578368	-0.893362
C125	C	1.444029	-0.245035	-0.560029
C126	C	1.777362	0.088299	-0.226696
C127	C	1.110685	-0.578405	-0.816503
C128	C	1.444018	-0.245071	-0.483170
C129	C	1.777351	0.088262	-0.149837
C130	C	1.016582	-0.442804	-0.816494
C131	C	1.349915	-0.109470	-0.483161
C132	C	1.683249	0.223863	-0.149827
C133	C	1.016590	-0.442773	-0.893351
C134	C	1.349923	-0.109440	-0.560018
C135	C	1.683257	0.223894	-0.226685
C136	C	1.063651	-0.510554	-0.931783
C137	C	1.396985	-0.177220	-0.598450
C138	C	1.730318	0.156113	-0.265117
C139	C	1.063632	-0.510621	-0.778067
C140	C	1.396965	-0.177288	-0.444734
C141	C	1.730299	0.156046	-0.111401
C142	C	1.063619	-0.510660	-0.694734
C143	C	1.396953	-0.177327	-0.361400
C144	C	1.730286	0.156006	-0.028067
C145	C	1.063663	-0.510516	-1.015122
C146	C	1.396996	-0.177183	-0.681789
C147	C	1.730330	0.156151	-0.348456
C148	C	1.063548	-0.510759	-0.163346
C149	C	1.396881	-0.177426	0.169988
C150	C	1.730215	0.155907	0.503321
C151	C	1.063672	-0.510487	-0.081547
C152	C	1.397005	-0.177153	0.251786
C153	C	1.730339	0.156180	0.585120
H154	H	0.633646	-0.633935	-0.439807
H155	H	0.966980	-0.300602	-0.106474
H156	H	1.300313	0.032731	0.226859
H157	H	0.494190	-0.387643	-0.269301
H158	H	0.827523	-0.054310	0.064032
H159	H	1.160857	0.279024	0.397366
H160	H	0.978268	-0.387618	-0.785193
H161	H	1.311601	-0.054285	-0.451860
H162	H	1.644934	0.279049	-0.118526
H163	H	1.148993	-0.633626	-0.785224
H164	H	1.482326	-0.300293	-0.451891
H165	H	1.815660	0.033041	-0.118558
H166	H	0.494219	-0.633951	-0.439817
H167	H	0.827552	-0.300618	-0.106483
H168	H	1.160886	0.032716	0.226850
H169	H	0.633632	-0.387629	-0.269305
H170	H	0.966965	-0.054295	0.064028
H171	H	1.300298	0.279038	0.397361
H172	H	1.019763	-0.918909	-0.468927
H173	H	1.353096	-0.585575	-0.135593
H174	H	1.686430	-0.252242	0.197740
H175	H	0.948919	-0.919816	-0.398261
H176	H	1.282252	-0.586482	-0.064927
H177	H	1.615585	-0.253149	0.268406
H178	H	1.019932	-1.101034	-0.469299
H179	H	1.353265	-0.767701	-0.135965
H180	H	1.686599	-0.434367	0.197368
H181	H	1.081732	-1.100872	-0.233424
H182	H	1.415066	-0.767539	0.099910
H183	H	1.748399	-0.434206	0.433243
H184	H	0.986236	-0.918002	-0.259875
H185	H	1.319569	-0.584669	0.073458
H186	H	1.652902	-0.251336	0.406792
H187	H	1.149015	-0.633560	-0.924651
H188	H	1.482348	-0.300227	-0.591318
H189	H	1.815682	0.033106	-0.257985
H190	H	0.978277	-0.387549	-0.924635
H191	H	1.311610	-0.054216	-0.591301
H192	H	1.644944	0.279117	-0.257968
H193	H	1.156852	-0.919381	-0.433224
H194	H	1.490186	-0.586048	-0.099891
H195	H	1.823519	-0.252715	0.233442
H196	H	0.949569	-1.102511	-0.398612
H197	H	1.282902	-0.769177	-0.065279
H198	H	1.616236	-0.435844	0.268054
H199	H	0.985297	-1.099903	-0.260525
H200	H	1.318630	-0.766570	0.072808
H201	H	1.651963	-0.433237	0.406141
H202	H	1.082561	-0.919458	-0.233365
H203	H	1.415894	-0.586125	0.099968
H204	H	1.749227	-0.252792	0.433302
H205	H	1.160649	-1.101982	-0.430044
H206	H	1.493983	-0.768649	-0.096710
H207	H	1.827316	-0.435316	0.236623
H208	H	1.185518	-0.917873	-0.337645
H209	H	1.518851	-0.584539	-0.004312
H210	H	1.852185	-0.251206	0.329022
H211	H	1.183768	-1.100117	-0.332926
H212	H	1.517102	-0.766784	0.000408
H213	H	1.850435	-0.433451	0.333741
