data_functionalizedCrystal
_audit_creation_method	'MofGen! by Chris Wilmer'
_symmetry_space_group_name_H-M	'P1'
_symmetry_Int_Tables_number	1
_symmetry_cell_setting	triclinic
loop_
_symmetry_equiv_pos_as_xyz
  x,y,z
_cell_length_a	11.792241
_cell_length_b	13.339070
_cell_length_c	10.868271
_cell_angle_alpha	89.998695
_cell_angle_beta	90.000156
_cell_angle_gamma	99.911355
loop_
_atom_site_label
_atom_site_type_symbol
_atom_site_fract_x
_atom_site_fract_y
_atom_site_fract_z
O1	O	-1.549690	-0.138890	-0.102195
O2	O	-1.049690	0.361110	0.397805
O3	O	-1.223758	-0.153205	-0.102223
O4	O	-0.723758	0.346795	0.397777
O5	O	-1.349317	0.001421	-0.102208
O6	O	-0.849317	0.501421	0.397792
O7	O	-1.424130	-0.293516	-0.102209
O8	O	-0.924130	0.206484	0.397791
O9	O	-1.349303	0.001416	0.102436
O10	O	-0.849303	0.501416	0.602436
O11	O	-1.223744	-0.153210	0.102422
O12	O	-0.723744	0.346790	0.602422
O13	O	-1.549675	-0.138895	0.102450
O14	O	-1.049675	0.361105	0.602450
Zn15	Zn	-1.386707	-0.146053	0.134928
Zn16	Zn	-0.886707	0.353947	0.634928
Zn17	Zn	-1.386726	-0.146047	-0.134701
Zn18	Zn	-0.886726	0.353953	0.365299
O19	O	-1.424116	-0.293521	0.102435
O20	O	-0.924116	0.206479	0.602435
C21	C	-1.181183	-0.152308	0.000096
C22	C	-0.681183	0.347692	0.500096
C23	C	-1.054340	-0.149617	0.000085
C24	C	-0.554340	0.350383	0.500085
C25	C	-1.336673	0.039177	0.000111
C26	C	-0.836673	0.539177	0.500111
C27	C	-1.299004	0.151686	0.000103
C28	C	-0.799004	0.651686	0.500103
C29	C	-1.592250	-0.139792	0.000128
C30	C	-1.092250	0.360208	0.500128
C31	C	-1.719093	-0.142483	0.000131
C32	C	-1.219093	0.357517	0.500131
C33	C	-0.822104	-0.144668	0.000120
C34	C	-0.322104	0.355332	0.500120
C35	C	-0.951336	-0.147418	0.000101
C36	C	-0.451336	0.352582	0.500101
C37	C	-1.436760	-0.331277	0.000113
C38	C	-0.936760	0.168723	0.500113
C39	C	-1.474429	-0.443786	0.000113
C40	C	-0.974429	0.056214	0.500113
N41	N	-1.386703	-0.146057	0.318942
N42	N	-0.886703	0.353943	0.818942
C43	C	-1.591898	0.514872	0.000129
C44	C	-1.091898	1.014872	0.500129
C45	C	-1.627293	0.409165	0.000143
C46	C	-1.127293	0.909165	0.500143
C47	C	-1.545224	0.344790	0.000133
C48	C	-1.045224	0.844790	0.500133
C49	C	-1.427753	0.386132	0.000108
C50	C	-0.927753	0.886132	0.500108
C51	C	-1.392354	0.491849	0.000104
C52	C	-0.892354	0.991849	0.500104
C53	C	-1.345680	0.321768	0.000108
C54	C	-0.845680	0.821768	0.500108
C55	C	-1.228209	0.363110	0.000083
C56	C	-0.728209	0.863110	0.500083
C57	C	-1.192816	0.468817	0.000078
C58	C	-0.692816	0.968817	0.500078
C59	C	-1.274886	0.533192	0.000088
C60	C	-0.774886	1.033192	0.500088
C61	C	-1.381079	0.216050	0.000113
C62	C	-0.881079	0.716050	0.500113
C63	C	-1.181535	0.193028	0.000087
C64	C	-0.681535	0.693028	0.500087
C65	C	-1.146140	0.298735	0.000073
C66	C	-0.646140	0.798735	0.500073
N67	N	-1.386737	-0.146035	-0.318715
N68	N	-0.886737	0.353965	0.181285
C69	C	-1.386711	-0.146058	0.430279
C70	C	-0.886711	0.353942	0.930279
C71	C	-1.386723	-0.146048	0.569957
C72	C	-0.886723	0.353952	1.069957
H73	H	-1.574050	0.258720	0.000145
H74	H	-1.074050	0.758720	0.500145
H75	H	-1.097164	0.502474	0.000067
H76	H	-0.597164	1.002474	0.500067
H77	H	-1.114707	0.140613	0.000085
H78	H	-0.614707	0.640613	0.500085
H79	H	-1.476724	0.182401	0.000133
H80	H	-0.976724	0.682401	0.500133
H81	H	-1.246072	0.619268	0.000072
H82	H	-0.746072	1.119268	0.500072
N83	N	-1.026155	0.340987	0.000043
N84	N	-0.526155	0.840987	0.500043
N85	N	-0.994572	0.435374	0.000032
N86	N	-0.494572	0.935374	0.500032
H87	H	-0.909832	0.465217	0.000010
H88	H	-0.409832	0.965217	0.500010
H89	H	-1.722938	0.375512	0.000165
H90	H	-1.222938	0.875512	0.500165
N91	N	-1.675703	0.580641	0.000156
N92	N	-1.175703	1.080641	0.500156
N93	N	-1.644079	0.675023	0.000159
N94	N	-1.144079	1.175023	0.500159
H95	H	-1.703272	0.721476	0.000181
H96	H	-1.203272	1.221476	0.500181
