data_functionalizedCrystal
_audit_creation_method	'MofGen! by Chris Wilmer'
_symmetry_space_group_name_H-M	'P1'
_symmetry_Int_Tables_number	1
_symmetry_cell_setting	triclinic
loop_
_symmetry_equiv_pos_as_xyz
  x,y,z
_cell_length_a	29.839134
_cell_length_b	29.839131
_cell_length_c	13.033255
_cell_angle_alpha	97.151105
_cell_angle_beta	82.800535
_cell_angle_gamma	90.021992
loop_
_atom_site_label
_atom_site_type_symbol
_atom_site_fract_x
_atom_site_fract_y
_atom_site_fract_z
Zn1	Zn	0.718995	-0.211341	-0.590828
Zn2	Zn	0.709381	-0.276931	-0.416073
Zn3	Zn	0.634333	-0.201792	-0.416102
Zn4	Zn	0.643822	-0.286415	-0.590761
O5	O	0.676632	-0.244120	-0.503441
O6	O	0.780587	-0.220069	-0.567662
O7	O	0.691431	-0.258999	-0.269847
O8	O	0.645616	-0.140194	-0.439320
O9	O	0.773524	-0.268258	-0.439271
O10	O	0.707817	-0.147209	-0.567690
O11	O	0.636293	-0.203794	-0.269868
O12	O	0.572724	-0.212991	-0.439255
O13	O	0.661788	-0.284422	-0.737000
O14	O	0.579695	-0.275163	-0.567576
O15	O	0.717017	-0.229265	-0.737049
O16	O	0.700632	-0.341054	-0.439206
O17	O	0.652466	-0.348022	-0.567548
C18	C	0.559908	-0.244070	-0.503412
C19	C	0.509975	-0.244061	-0.503424
C20	C	0.157069	-0.219095	-0.570426
C21	C	0.344741	-0.219058	-0.570402
O22	O	0.372136	-0.197773	-0.627364
N23	N	0.364531	-0.244092	-0.503449
C24	C	0.337400	-0.269140	-0.436502
O25	O	0.358539	-0.290436	-0.379562
C26	C	0.149729	-0.269179	-0.436533
C27	C	0.129942	-0.244140	-0.503482
C28	C	0.137282	-0.194058	-0.637371
C29	C	0.090366	-0.194065	-0.637372
C30	C	0.063238	-0.219110	-0.570429
C31	C	0.083026	-0.244147	-0.503484
C32	C	0.122599	-0.294229	-0.369592
C33	C	0.075679	-0.294238	-0.369607
C34	C	0.055891	-0.269198	-0.436557
C35	C	0.008983	-0.269200	-0.436541
N36	N	-0.010807	-0.244166	-0.503494
C37	C	0.016321	-0.219121	-0.570438
C38	C	0.435930	-0.269116	-0.436490
C39	C	0.482847	-0.269106	-0.436481
C40	C	0.490185	-0.219024	-0.570382
C41	C	0.443267	-0.219033	-0.570385
C42	C	0.416140	-0.244082	-0.503443
C43	C	-0.082205	-0.219138	-0.570435
C44	C	-0.129125	-0.219147	-0.570427
C45	C	-0.136459	-0.269230	-0.436530
C46	C	-0.089543	-0.269220	-0.436534
C47	C	-0.062417	-0.244173	-0.503494
O48	O	-0.018438	-0.290477	-0.379617
O49	O	-0.004826	-0.197836	-0.627386
C50	C	0.203985	-0.219087	-0.570425
C51	C	0.223772	-0.244124	-0.503480
C52	C	0.196645	-0.269169	-0.436536
C53	C	0.270690	-0.244114	-0.503470
C54	C	0.297817	-0.219069	-0.570414
C55	C	0.278028	-0.194035	-0.637367
C56	C	0.231112	-0.194043	-0.637368
C57	C	0.216434	-0.294204	-0.369583
C58	C	0.263350	-0.294193	-0.369586
C59	C	0.290478	-0.269149	-0.436530
C60	C	0.676548	-0.360840	-0.503389
C61	C	0.676556	-0.410775	-0.503402
C62	C	0.701770	-0.716785	-0.436711
C63	C	0.701828	-0.904460	-0.436752
O64	O	0.723199	-0.925633	-0.380009
N65	N	0.676730	-0.931566	-0.503520
C66	C	0.651618	-0.911751	-0.570288
O67	O	0.630276	-0.939114	-0.627087
C68	C	0.651563	-0.724077	-0.570252
C69	C	0.676659	-0.696973	-0.503471
C70	C	0.726864	-0.689681	-0.369937
C71	C	0.726847	-0.642764	-0.369924
C72	C	0.701737	-0.622952	-0.436684
C73	C	0.676643	-0.650057	-0.503458
C74	C	0.626455	-0.704263	-0.637024
C75	C	0.626444	-0.657342	-0.637011
C76	C	0.651540	-0.630237	-0.570231
C77	C	0.651515	-0.583328	-0.570205
N78	N	0.676613	-0.556222	-0.503437
C79	C	0.701724	-0.576034	-0.436676
C80	C	0.651648	-1.010283	-0.570300
C81	C	0.651661	-1.057201	-0.570308
C82	C	0.701871	-1.049906	-0.436773
C83	C	0.701855	-1.002987	-0.436761
C84	C	0.676746	-0.983176	-0.503532
C85	C	0.701687	-0.477507	-0.436652
C86	C	0.701666	-0.430587	-0.436642
C87	C	0.651458	-0.437886	-0.570180
C88	C	0.651476	-0.484801	-0.570187
C89	C	0.676594	-0.504611	-0.503420
O90	O	0.630159	-0.562125	-0.626926
O91	O	0.723071	-0.548665	-0.379902
C92	C	0.701787	-0.763701	-0.436725
C93	C	0.676692	-0.790805	-0.503498
C94	C	0.651582	-0.770993	-0.570259
C95	C	0.676705	-0.837723	-0.503506
C96	C	0.701816	-0.857535	-0.436746
C97	C	0.726914	-0.830429	-0.369978
C98	C	0.726897	-0.783513	-0.369964
C99	C	0.626484	-0.798099	-0.637027
C100	C	0.626502	-0.845015	-0.637034
C101	C	0.651613	-0.864827	-0.570274
C102	C	0.793812	-0.244170	-0.503471
C103	C	0.843747	-0.244192	-0.503483
C104	C	0.691534	-0.258966	-0.776001
C105	C	0.697884	-0.265293	-0.892149
C106	C	0.676730	-0.126946	-0.503516
C107	C	0.676772	-0.077013	-0.503548
C108	C	0.680000	-0.247338	-1.063993
C109	C	0.673433	-0.240798	-0.943947
C110	C	0.661815	-0.229299	-0.231942
C111	C	0.655552	-0.222845	-0.115794
H112	H	0.159365	-0.173663	-0.691890
H113	H	0.647638	-0.214987	-0.899426
O114	O	0.516500	-0.194727	-0.635562
C115	C	0.510744	-0.210300	-0.739671
H116	H	0.476788	-0.227688	-0.741771
H117	H	0.539065	-0.235331	-0.774753
C118	C	0.553773	-0.148651	-0.800590
C119	C	0.512066	-0.170005	-0.803169
H120	H	0.554591	-0.123796	-0.839761
H121	H	0.557653	-0.138160	-0.730450
H122	H	0.577369	-0.169515	-0.829823
H123	H	0.488472	-0.149142	-0.773925
H124	H	0.508183	-0.180491	-0.873306
O125	O	0.726266	-0.976619	-0.372041
C126	C	0.758520	-0.952706	-0.431588
H127	H	0.746975	-0.949983	-0.510744
H128	H	0.792444	-0.971397	-0.443146
C129	C	0.777705	-0.908357	-0.276876
C130	C	0.763523	-0.905009	-0.374093
H131	H	0.780792	-0.878936	-0.241409
H132	H	0.755975	-0.924469	-0.236757
H133	H	0.805973	-0.923935	-0.286521
H134	H	0.735253	-0.889437	-0.364447
H135	H	0.785247	-0.888894	-0.414210
O136	O	-0.055900	-0.194837	-0.635621
C137	C	-0.061664	-0.210402	-0.739730
H138	H	-0.095617	-0.227797	-0.741820
H139	H	-0.033340	-0.235426	-0.774837
C140	C	-0.018655	-0.148739	-0.800636
C141	C	-0.060358	-0.170100	-0.803204
H142	H	-0.017848	-0.123879	-0.839792
H143	H	-0.014770	-0.138253	-0.730497
H144	H	0.004943	-0.169596	-0.829891
H145	H	-0.083956	-0.149244	-0.773938
H146	H	-0.064247	-0.180582	-0.873340
O147	O	0.728606	-0.296148	-0.945210
C148	C	0.717316	-0.339479	-0.918570
H149	H	0.679792	-0.340109	-0.888491
H150	H	0.737958	-0.347810	-0.855297
C151	C	0.773878	-0.373935	-1.052517
C152	C	0.727788	-0.374709	-1.015582
H153	H	0.780339	-0.395667	-1.112356
H154	H	0.781485	-0.344742	-1.070463
H155	H	0.791074	-0.380876	-0.999781
H156	H	0.710593	-0.367763	-1.068313
H157	H	0.720178	-0.403902	-0.997647
O158	O	0.624719	-0.192104	-1.062732
C159	C	0.581381	-0.203335	-1.089337
H160	H	0.580717	-0.240849	-1.119386
H161	H	0.573095	-0.182666	-1.152622
C162	C	0.546949	-0.146773	-0.955413
C163	C	0.546132	-0.192849	-0.992311
H164	H	0.525205	-0.140303	-0.895565
H165	H	0.576147	-0.139205	-0.937491
H166	H	0.540045	-0.129554	-1.008160
H167	H	0.553042	-0.210066	-0.939569
H168	H	0.516935	-0.200420	-1.010222
H169	H	-0.145233	-0.198754	-0.624945
O170	O	0.071223	-0.169736	-0.702513
C171	C	0.105234	-0.147625	-0.761574
H172	H	0.138867	-0.166217	-0.765097
H173	H	0.108145	-0.111402	-0.723452
C174	C	0.051715	-0.124451	-0.868500
C175	C	0.093022	-0.147289	-0.872834
H176	H	0.044181	-0.124242	-0.937129
H177	H	0.028800	-0.139346	-0.828707
H178	H	0.054145	-0.094267	-0.836727
H179	H	0.090589	-0.177473	-0.904594
H180	H	0.115936	-0.132398	-0.912634
O181	O	0.726093	-0.496670	-0.371693
C182	C	0.748243	-0.462680	-0.312779
H183	H	0.729629	-0.429052	-0.309127
H184	H	0.784445	-0.459747	-0.351114
C185	C	0.771544	-0.516243	-0.206060
C186	C	0.748679	-0.474941	-0.201567
H187	H	0.771815	-0.523806	-0.137461
H188	H	0.756622	-0.539144	-0.245754
H189	H	0.801710	-0.513793	-0.238010
H190	H	0.718513	-0.477393	-0.169630
H191	H	0.763596	-0.452041	-0.161865
O192	O	0.710720	-0.278192	-1.117053
C193	C	0.699427	-0.321522	-1.090404
H194	H	0.661902	-0.322148	-1.060329
H195	H	0.720067	-0.329851	-1.027127
C196	C	0.755989	-0.355985	-1.224341
C197	C	0.709899	-0.356755	-1.187410
H198	H	0.762450	-0.377719	-1.284176
H199	H	0.763599	-0.326793	-1.242292
H200	H	0.773183	-0.362924	-1.171600
H201	H	0.692705	-0.349810	-1.240145
H202	H	0.702286	-0.385947	-1.169469
H203	H	0.631221	-1.079265	-0.624678
H204	H	0.427159	-0.198643	-0.624900
H205	H	0.747333	-0.761448	-0.315586
H206	H	0.053594	-0.314638	-0.315096
H207	H	0.498953	-0.289490	-0.381952
H208	H	0.747284	-0.620699	-0.315549
O209	O	-0.070390	-0.293583	-0.371466
C210	C	-0.104398	-0.315679	-0.312360
H211	H	-0.135503	-0.319592	-0.355151
H212	H	-0.113719	-0.294860	-0.233060
C213	C	-0.048734	-0.357846	-0.244558
C214	C	-0.086937	-0.362656	-0.297119
H215	H	-0.037963	-0.386823	-0.235152
H216	H	-0.025822	-0.342958	-0.284375
H217	H	-0.056507	-0.340495	-0.178480
H218	H	-0.079162	-0.380002	-0.363200
H219	H	-0.109847	-0.377548	-0.257312
O220	O	0.602188	-0.871394	-0.701963
C221	C	0.631448	-0.902172	-0.769537
H222	H	0.663495	-0.907183	-0.732749
H223	H	0.640590	-0.888286	-0.846974
C224	C	0.568410	-0.941626	-0.833626
C225	C	0.607769	-0.947784	-0.788438
H226	H	0.553804	-0.969761	-0.845290
H227	H	0.548696	-0.920890	-0.788103
H228	H	0.576034	-0.930054	-0.898152
H229	H	0.600145	-0.959351	-0.723908
H230	H	0.627481	-0.968524	-0.833951
H231	H	0.747315	-0.705806	-0.315572
H232	H	-0.158555	-0.289619	-0.382022
O233	O	0.409634	-0.293514	-0.371502
C234	C	0.422329	-0.339536	-0.394164
H235	H	0.458591	-0.342671	-0.434338
H236	H	0.398856	-0.357636	-0.447818
C237	C	0.374381	-0.357273	-0.242833
C238	C	0.418920	-0.361123	-0.292167
H239	H	0.372277	-0.370589	-0.179918
H240	H	0.365827	-0.326267	-0.227566
H241	H	0.354825	-0.372356	-0.287555
H242	H	0.438474	-0.346035	-0.247451
H243	H	0.427477	-0.392126	-0.307424
O244	O	0.141742	-0.318595	-0.304525
C245	C	0.107728	-0.340692	-0.245437
H246	H	0.076629	-0.344606	-0.288247
H247	H	0.098399	-0.319873	-0.166140
C248	C	0.163383	-0.382859	-0.177602
C249	C	0.125187	-0.387669	-0.230186
H250	H	0.174152	-0.411835	-0.168190
H251	H	0.186299	-0.367971	-0.217408
H252	H	0.155603	-0.365508	-0.111527
H253	H	0.132968	-0.405014	-0.296265
H254	H	0.102273	-0.402561	-0.190391
H255	H	0.194351	-0.314599	-0.315069
O256	O	0.211969	-0.169712	-0.702507
C257	C	0.245980	-0.147600	-0.761567
H258	H	0.279612	-0.166193	-0.765093
H259	H	0.248891	-0.111378	-0.723442
C260	C	0.192460	-0.124423	-0.868488
C261	C	0.233767	-0.147262	-0.872826
H262	H	0.184926	-0.124213	-0.937116
H263	H	0.169546	-0.139319	-0.828696
H264	H	0.194891	-0.094240	-0.836712
H265	H	0.231334	-0.177446	-0.904588
H266	H	0.256681	-0.132371	-0.912625
O267	O	0.726286	-1.069234	-0.372083
C268	C	0.720919	-1.116458	-0.386432
H269	H	0.710544	-1.127238	-0.467011
H270	H	0.693664	-1.126439	-0.324349
C271	C	0.778632	-1.126756	-0.278153
C272	C	0.765893	-1.139997	-0.377125
H273	H	0.806373	-1.141276	-0.272407
H274	H	0.782247	-1.094940	-0.268481
H275	H	0.755916	-1.135074	-0.226428
H276	H	0.788606	-1.131673	-0.428847
H277	H	0.762283	-1.171811	-0.386805
O278	O	0.751378	-0.849627	-0.305179
C279	C	0.797395	-0.839382	-0.328145
H280	H	0.800490	-0.807496	-0.368307
H281	H	0.815454	-0.868695	-0.381916
C282	C	0.815282	-0.870827	-0.177014
C283	C	0.819084	-0.831662	-0.226334
H284	H	0.828662	-0.866067	-0.114213
H285	H	0.784280	-0.877731	-0.161543
H286	H	0.830332	-0.895251	-0.221834
H287	H	0.804030	-0.807240	-0.181519
H288	H	0.850084	-0.824754	-0.241795
H289	H	0.300123	-0.173640	-0.691871
O290	O	0.602058	-0.778800	-0.701732
C291	C	0.569789	-0.748457	-0.642165
H292	H	0.581333	-0.737115	-0.563010
H293	H	0.535877	-0.765939	-0.630608
C294	C	0.550575	-0.720950	-0.796855
C295	C	0.564756	-0.707016	-0.699638
H296	H	0.547468	-0.695388	-0.832308
H297	H	0.572314	-0.741394	-0.836987
H298	H	0.522316	-0.735519	-0.787210
H299	H	0.593016	-0.692453	-0.709285
H300	H	0.543021	-0.686569	-0.659509
H301	H	0.631200	-0.994156	-0.624675
H302	H	0.279456	-0.314582	-0.315058
H303	H	0.606017	-0.726324	-0.691398
H304	H	0.722102	-0.408519	-0.382258
O305	O	0.602122	-0.638083	-0.701984
C306	C	0.631359	-0.614584	-0.769505
H307	H	0.667102	-0.629052	-0.776034
H308	H	0.631138	-0.577270	-0.737191
C309	C	0.571412	-0.602008	-0.870073
C310	C	0.615311	-0.619780	-0.878099
H311	H	0.561513	-0.605211	-0.937058
H312	H	0.551714	-0.617838	-0.824581
H313	H	0.571234	-0.570914	-0.843141
H314	H	0.615488	-0.650874	-0.905018
H315	H	0.635009	-0.603955	-0.923598
O316	O	0.627140	-0.418620	-0.635142
C317	C	0.656385	-0.395122	-0.702649
H318	H	0.692124	-0.409597	-0.709175
H319	H	0.656170	-0.357809	-0.670325
C320	C	0.596447	-0.382525	-0.803226
C321	C	0.640342	-0.400307	-0.811248
H322	H	0.586550	-0.385722	-0.870214
H323	H	0.576743	-0.398355	-0.757743
H324	H	0.596273	-0.351433	-0.776285
H325	H	0.640513	-0.431400	-0.838176
H326	H	0.660045	-0.384483	-0.856738
H327	H	0.631043	-0.506871	-0.624568
