data_functionalizedCrystal
_audit_creation_method	'MofGen! by Chris Wilmer'
_symmetry_space_group_name_H-M	'P1'
_symmetry_Int_Tables_number	1
_symmetry_cell_setting	triclinic
loop_
_symmetry_equiv_pos_as_xyz
  x,y,z
_cell_length_a	14.971486
_cell_length_b	19.288865
_cell_length_c	14.048226
_cell_angle_alpha	89.988335
_cell_angle_beta	89.998499
_cell_angle_gamma	83.375189
loop_
_atom_site_label
_atom_site_type_symbol
_atom_site_fract_x
_atom_site_fract_y
_atom_site_fract_z
O1	O	1.186458	0.090517	-0.079062
O2	O	1.519791	0.423851	0.254271
O3	O	1.853124	0.757184	0.587604
O4	O	0.925999	0.101357	-0.079090
O5	O	1.259332	0.434690	0.254244
O6	O	1.592666	0.768024	0.587577
O7	O	1.063754	-0.005169	-0.079056
O8	O	1.397088	0.328165	0.254277
O9	O	1.730421	0.661498	0.587610
O10	O	1.048702	0.197043	-0.079096
O11	O	1.382036	0.530376	0.254238
O12	O	1.715369	0.863710	0.587571
O13	O	1.063738	-0.005175	0.079265
O14	O	1.397071	0.328158	0.412598
O15	O	1.730404	0.661492	0.745931
O16	O	0.925982	0.101351	0.079232
O17	O	1.259316	0.434684	0.412565
O18	O	1.592649	0.768017	0.745898
O19	O	1.186441	0.090511	0.079259
O20	O	1.519774	0.423844	0.412592
O21	O	1.853108	0.757178	0.745926
Zn22	Zn	1.056209	0.095930	0.104382
Zn23	Zn	1.389542	0.429263	0.437715
Zn24	Zn	1.722876	0.762596	0.771049
Zn25	Zn	1.056231	0.095938	-0.104213
Zn26	Zn	1.389564	0.429271	0.229120
Zn27	Zn	1.722898	0.762605	0.562454
O28	O	1.048686	0.197037	0.079226
O29	O	1.382019	0.530370	0.412559
O30	O	1.715352	0.863703	0.745892
C31	C	0.892669	0.100869	0.000068
C32	C	1.226002	0.434202	0.333401
C33	C	1.559335	0.767536	0.666734
C34	C	0.793379	0.099416	0.000058
C35	C	1.126713	0.432750	0.333391
C36	C	1.460046	0.766083	0.666725
C37	C	0.735816	0.161997	0.000047
C38	C	1.069149	0.495330	0.333381
C39	C	1.402482	0.828664	0.666714
C40	C	0.642524	0.160628	0.000062
C41	C	0.975857	0.493961	0.333395
C42	C	1.309190	0.827295	0.666728
C43	C	0.606797	0.096677	0.000080
C44	C	0.940130	0.430011	0.333414
C45	C	1.273464	0.763344	0.666747
C46	C	0.664368	0.034092	0.000094
C47	C	0.997701	0.367425	0.333427
C48	C	1.331035	0.700758	0.666761
C49	C	0.757658	0.035461	0.000086
C50	C	1.090992	0.368795	0.333420
C51	C	1.424325	0.702128	0.666753
C52	C	0.469921	0.031241	0.000108
C53	C	0.803254	0.364574	0.333441
C54	C	1.136588	0.697908	0.666774
C55	C	0.376624	0.029871	0.000113
C56	C	0.709958	0.363204	0.333447
C57	C	1.043291	0.696537	0.666780
C58	C	0.354786	0.156407	0.000083
C59	C	0.688120	0.489741	0.333416
C60	C	1.021453	0.823074	0.666750
C61	C	0.448077	0.157777	0.000075
C62	C	0.781410	0.491111	0.333409
C63	C	1.114743	0.824444	0.666742
C64	C	0.505641	0.095191	0.000087
C65	C	0.838974	0.428525	0.333421
C66	C	1.172308	0.761858	0.666754
C67	C	1.063262	-0.031050	0.000107
C68	C	1.396595	0.302283	0.333440
C69	C	1.729928	0.635617	0.666774
C70	C	1.061808	-0.108158	0.000115
C71	C	1.395141	0.225175	0.333449
C72	C	1.728475	0.558508	0.666782
C73	C	1.142636	-0.152591	0.000128
C74	C	1.475970	0.180742	0.333462
C75	C	1.809303	0.514076	0.666795
C76	C	1.141271	-0.225043	0.000113
C77	C	1.474604	0.108291	0.333446
C78	C	1.807937	0.441624	0.666780
C79	C	1.059071	-0.253058	0.000104
C80	C	1.392405	0.080275	0.333437
C81	C	1.725738	0.413609	0.666771
C82	C	0.978232	-0.208615	0.000085
C83	C	1.311566	0.124718	0.333419
C84	C	1.644899	0.458051	0.666752
C85	C	0.979600	-0.136166	0.000091
C86	C	1.312934	0.197168	0.333424
C87	C	1.646267	0.530501	0.666758
C88	C	0.994448	-0.361558	0.055554
C89	C	1.327781	-0.028225	0.388887
C90	C	1.661114	0.305108	0.722220
C91	C	0.993083	-0.434007	0.055554
C92	C	1.326416	-0.100674	0.388887
C93	C	1.659749	0.232659	0.722221
C94	C	1.054848	-0.476517	0.000082
C95	C	1.388181	-0.143184	0.333415
C96	C	1.721515	0.190149	0.666749
C97	C	1.117994	-0.446571	-0.055378
C98	C	1.451327	-0.113238	0.277956
C99	C	1.784660	0.220095	0.611289
C100	C	1.119362	-0.374121	-0.055372
C101	C	1.452695	-0.040788	0.277961
C102	C	1.786028	0.292545	0.611295
C103	C	1.057579	-0.331617	0.000097
C104	C	1.390912	0.001716	0.333430
C105	C	1.724245	0.335050	0.666764
C106	C	1.134201	-0.599511	0.000077
C107	C	1.467535	-0.266178	0.333411
C108	C	1.800868	0.067156	0.666744
C109	C	1.132832	-0.671963	0.000056
C110	C	1.466165	-0.338630	0.333390
C111	C	1.799499	-0.005297	0.666723
C112	C	0.969791	-0.655535	0.000038
C113	C	1.303125	-0.322201	0.333372
C114	C	1.636458	0.011132	0.666705
C115	C	0.971163	-0.583084	0.000050
C116	C	1.304496	-0.249751	0.333383
C117	C	1.637830	0.083583	0.666716
C118	C	1.053370	-0.555077	0.000074
C119	C	1.386704	-0.221743	0.333407
C120	C	1.720037	0.111590	0.666741
C121	C	1.219771	0.090999	0.000099
C122	C	1.553105	0.424332	0.333433
C123	C	1.886438	0.757666	0.666766
C124	C	1.319061	0.092452	0.000103
C125	C	1.652394	0.425785	0.333436
C126	C	1.985727	0.759118	0.666769
C127	C	1.049178	0.222918	0.000060
C128	C	1.382512	0.556251	0.333393
C129	C	1.715845	0.889584	0.666727
C130	C	1.050632	0.300026	0.000046
C131	C	1.383966	0.633359	0.333379
C132	C	1.717299	0.966693	0.666712
N133	N	1.056201	0.095924	0.246743
N134	N	1.389534	0.429257	0.580076
N135	N	1.722868	0.762590	0.913409
N136	N	1.056246	0.095939	-0.246574
N137	N	1.389580	0.429272	0.086760
N138	N	1.722913	0.762605	0.420093
C139	C	1.117218	0.048774	0.296576
C140	C	1.450551	0.382107	0.629909
C141	C	1.783885	0.715440	0.963242
C142	C	1.117224	0.048773	0.396233
C143	C	1.450557	0.382107	0.729567
C144	C	1.783891	0.715440	1.062900
C145	C	1.056217	0.095927	0.446056
C146	C	1.389550	0.429260	0.779390
C147	C	1.722883	0.762593	1.112723
C148	C	0.995193	0.143079	0.396217
C149	C	1.328526	0.476412	0.729550
C150	C	1.661860	0.809746	1.062883
C151	C	0.995183	0.143076	0.296561
C152	C	1.328517	0.476409	0.629894
C153	C	1.661850	0.809742	0.963227
C154	C	0.995219	0.143084	0.603931
C155	C	1.328552	0.476417	0.937264
C156	C	1.661885	0.809751	1.270597
C157	C	0.995229	0.143089	0.703593
C158	C	1.328563	0.476422	1.036927
C159	C	1.661896	0.809755	1.370260
C160	C	1.117259	0.048782	0.703603
C161	C	1.450593	0.382115	1.036937
C162	C	1.783926	0.715448	1.370270
C163	C	1.117250	0.048778	0.603947
C164	C	1.450583	0.382112	0.937281
C165	C	1.783916	0.715445	1.270614
C166	C	1.056227	0.095932	0.554115
C167	C	1.389560	0.429265	0.887448
C168	C	1.722894	0.762598	1.220781
H169	H	1.209576	-0.129793	0.000145
H170	H	1.542909	0.203541	0.333478
H171	H	1.876243	0.536874	0.666811
F172	F	0.338604	-0.038193	0.000158
F173	F	0.671937	0.295141	0.333491
F174	F	1.005270	0.628474	0.666824
H175	H	1.166908	0.010380	0.436807
H176	H	1.500241	0.343713	0.770140
H177	H	1.833575	0.677046	1.103473
F178	F	0.531184	-0.035371	0.000123
F179	F	0.864517	0.297963	0.333457
F180	F	1.197851	0.631296	0.666790
F181	F	0.626343	-0.033970	0.000120
F182	F	0.959676	0.299363	0.333453
F183	F	1.293009	0.632697	0.666786
F184	F	1.182185	-0.001403	0.550922
F185	F	1.515518	0.331930	0.884255
F186	F	1.848851	0.665264	1.217588
F187	F	0.818922	-0.031146	0.000101
F188	F	1.152255	0.302188	0.333434
F189	F	1.485589	0.635521	0.666768
H190	H	0.477162	0.209852	0.000051
H191	H	0.810495	0.543185	0.333385
H192	H	1.143828	0.876518	0.666718
F193	F	0.893568	-0.088875	0.000077
F194	F	1.226901	0.244458	0.333410
F195	F	1.560234	0.577792	0.666743
H196	H	0.595658	0.211588	0.000052
H197	H	0.928992	0.544921	0.333385
H198	H	1.262325	0.878254	0.666719
H199	H	1.166946	0.010388	0.744183
H200	H	1.500279	0.343721	1.077516
H201	H	1.833612	0.677055	1.410850
H202	H	0.945515	0.181470	0.436788
H203	H	1.278848	0.514803	0.770122
H204	H	1.612182	0.848137	1.103455
F205	F	0.930238	0.193257	0.243526
F206	F	1.263571	0.526591	0.576860
F207	F	1.596904	0.859924	0.910193
H208	H	0.905343	-0.546906	0.000044
H209	H	1.238677	-0.213572	0.333378
H210	H	1.572010	0.119761	0.666711
F211	F	0.930295	0.193275	0.756612
F212	F	1.263628	0.526609	1.089945
F213	F	1.596962	0.859942	1.423279
H214	H	1.166901	0.010379	0.256016
H215	H	1.500234	0.343712	0.589350
H216	H	1.833568	0.677045	0.922683
H217	H	0.764896	0.214073	0.000032
H218	H	1.098230	0.547407	0.333365
H219	H	1.431563	0.880740	0.666698
F220	F	0.293521	0.223017	0.000072
F221	F	0.626854	0.556350	0.333406
F222	F	0.960188	0.889683	0.666739
H223	H	1.207093	-0.261227	0.000120
H224	H	1.540426	0.072107	0.333453
H225	H	1.873760	0.405440	0.666787
H226	H	0.902863	-0.678344	0.000026
H227	H	1.236197	-0.345011	0.333359
H228	H	1.569530	-0.011678	0.666693
H229	H	0.945524	0.181479	0.563360
H230	H	1.278858	0.514813	0.896693
H231	H	1.612191	0.848146	1.230027
H232	H	1.170775	-0.349742	-0.100531
H233	H	1.504108	-0.016409	0.232803
H234	H	1.837442	0.316925	0.566136
H235	H	0.944148	-0.326952	0.100731
H236	H	1.277482	0.006382	0.434064
H237	H	1.610815	0.339715	0.767397
H238	H	1.168289	-0.481182	-0.100548
H239	H	1.501622	-0.147849	0.232785
H240	H	1.834955	0.185485	0.566118
H241	H	1.201139	-0.576706	0.000093
H242	H	1.534473	-0.243373	0.333426
H243	H	1.867806	0.089960	0.666759
H244	H	1.198655	-0.708141	0.000062
H245	H	1.531989	-0.374807	0.333395
H246	H	1.865322	-0.041474	0.666728
H247	H	0.941662	-0.458383	0.100707
H248	H	1.274996	-0.125050	0.434040
H249	H	1.608329	0.208284	0.767374
H250	H	0.911305	-0.231430	0.000076
H251	H	1.244638	0.101903	0.333409
H252	H	1.577972	0.435236	0.666742
