data_functionalizedCrystal
_audit_creation_method	'MofGen! by Chris Wilmer'
_symmetry_space_group_name_H-M	'P1'
_symmetry_Int_Tables_number	1
_symmetry_cell_setting	triclinic
loop_
_symmetry_equiv_pos_as_xyz
  x,y,z
_cell_length_a	17.077404
_cell_length_b	19.805405
_cell_length_c	17.077396
_cell_angle_alpha	89.971037
_cell_angle_beta	89.980499
_cell_angle_gamma	90.026951
loop_
_atom_site_label
_atom_site_type_symbol
_atom_site_fract_x
_atom_site_fract_y
_atom_site_fract_z
Zn1	Zn	1.200034	-0.269459	-0.443840
Zn2	Zn	1.700034	0.230541	0.056160
Zn3	Zn	1.199932	-0.382652	-0.312573
Zn4	Zn	1.699932	0.117348	0.187427
Zn5	Zn	1.068765	-0.269483	-0.312588
Zn6	Zn	1.568765	0.230517	0.187412
Zn7	Zn	1.068725	-0.382612	-0.443797
Zn8	Zn	1.568725	0.117388	0.056203
O9	O	1.134364	-0.326052	-0.378199
O10	O	1.634364	0.173948	0.121801
O11	O	1.309867	-0.284481	-0.426439
O12	O	1.809867	0.215519	0.073561
O13	O	1.182507	-0.367667	-0.202728
O14	O	1.682507	0.132333	0.297272
O15	O	1.086238	-0.174763	-0.330023
O16	O	1.586238	0.325237	0.169977
O17	O	1.309792	-0.367644	-0.329998
O18	O	1.809792	0.132356	0.170002
O19	O	1.182680	-0.174746	-0.426454
O20	O	1.682680	0.325254	0.073546
O21	O	1.086140	-0.284522	-0.202739
O22	O	1.586140	0.215478	0.297261
O23	O	0.958913	-0.284483	-0.329981
O24	O	1.458913	0.215517	0.170019
O25	O	1.086169	-0.367575	-0.553649
O26	O	1.586169	0.132425	-0.053649
O27	O	0.958883	-0.367598	-0.426380
O28	O	1.458883	0.132402	0.073620
O29	O	1.182641	-0.284442	-0.553681
O30	O	1.682641	0.215558	-0.053681
O31	O	1.182467	-0.477363	-0.329956
O32	O	1.682467	0.022637	0.170044
O33	O	1.086070	-0.477334	-0.426365
O34	O	1.586070	0.022666	0.073635
C35	C	0.930416	-0.326039	-0.378178
C36	C	1.430416	0.173961	0.121822
C37	C	0.843166	-0.326050	-0.378187
C38	C	1.343166	0.173950	0.121813
C39	C	0.802181	-0.369394	-0.428301
C40	C	1.302181	0.130606	0.071699
C41	C	0.720201	-0.369395	-0.428314
C42	C	1.220201	0.130605	0.071686
C43	C	0.679207	-0.326056	-0.378208
C44	C	1.179207	0.173944	0.121792
C45	C	0.720198	-0.282708	-0.328091
C46	C	1.220198	0.217292	0.171909
C47	C	0.802177	-0.282703	-0.328083
C48	C	1.302177	0.217297	0.171917
C49	C	0.549328	-0.282721	-0.328110
C50	C	1.049328	0.217279	0.171890
C51	C	0.467343	-0.282726	-0.328117
C52	C	0.967343	0.217274	0.171883
C53	C	0.467352	-0.369413	-0.428341
C54	C	0.967352	0.130587	0.071659
C55	C	0.549331	-0.369409	-0.428333
C56	C	1.049331	0.130591	0.071667
C57	C	0.590316	-0.326061	-0.378215
C58	C	1.090316	0.173939	0.121785
C59	C	1.134275	-0.501908	-0.378171
C60	C	1.634275	-0.001908	0.121829
C61	C	1.134308	-0.577140	-0.378185
C62	C	1.634308	-0.077140	0.121815
C63	C	1.184496	-0.612416	-0.428436
C64	C	1.684496	-0.112416	0.071564
C65	C	1.184524	-0.683105	-0.428450
C66	C	1.684524	-0.183105	0.071550
C67	C	1.134368	-0.718515	-0.378210
C68	C	1.634368	-0.218515	0.121790
C69	C	1.084175	-0.683233	-0.327957
C70	C	1.584175	-0.183233	0.172043
C71	C	1.084143	-0.612546	-0.327947
C72	C	1.584143	-0.112546	0.172053
C73	C	1.084301	-0.968307	-0.327997
C74	C	1.584301	-0.468307	0.172003
C75	C	1.084338	-1.038999	-0.328009
C76	C	1.584338	-0.538999	0.171991
C77	C	1.184682	-1.038865	-0.428501
C78	C	1.684682	-0.538865	0.071499
C79	C	1.184650	-0.968178	-0.428491
C80	C	1.684650	-0.468178	0.071509
C81	C	1.134454	-0.932902	-0.378241
C82	C	1.634454	-0.432902	0.121759
C83	C	1.134423	-0.856254	-0.378227
C84	C	1.634423	-0.356254	0.121773
C85	C	1.134403	-0.795162	-0.378219
C86	C	1.634403	-0.295162	0.121781
C87	C	1.339108	-0.326064	-0.378222
C88	C	1.839108	0.173936	0.121778
C89	C	1.426358	-0.326070	-0.378231
C90	C	1.926358	0.173930	0.121769
C91	C	1.134411	-0.326002	-0.582944
C92	C	1.634411	0.173998	-0.082944
C93	C	1.134432	-0.325980	-0.670194
C94	C	1.634432	0.174020	-0.170194
C95	C	1.134475	-0.149509	-0.378245
C96	C	1.634475	0.350491	0.121755
C97	C	1.134523	-0.074277	-0.378265
C98	C	1.634523	0.425723	0.121735
C99	C	1.184667	-0.282689	-0.711202
C100	C	1.684667	0.217311	-0.211202
C101	C	1.184676	-0.282667	-0.793182
C102	C	1.684676	0.217333	-0.293182
C103	C	1.134454	-0.325939	-0.834153
C104	C	1.634454	0.174061	-0.334153
C105	C	1.084214	-0.369232	-0.793139
C106	C	1.584214	0.130768	-0.293139
C107	C	1.084201	-0.369251	-0.711160
C108	C	1.584201	0.130749	-0.211160
C109	C	1.084245	-0.369191	-0.964009
C110	C	1.584245	0.130809	-0.464009
C111	C	1.084259	-0.369174	-1.045994
C112	C	1.584259	0.130826	-0.545994
C113	C	1.184720	-0.282608	-1.046031
C114	C	1.684720	0.217392	-0.546031
C115	C	1.184708	-0.282626	-0.964052
C116	C	1.684708	0.217374	-0.464052
C117	C	1.134468	-0.325920	-0.923044
C118	C	1.634468	0.174080	-0.423044
C119	C	1.134362	-0.326052	-0.174252
C120	C	1.634362	0.173948	0.325748
C121	C	1.134494	-0.325883	-0.087002
C122	C	1.634494	0.174117	0.412998
H123	H	0.835546	-0.247405	-0.287279
H124	H	1.335546	0.252595	0.212721
H125	H	1.043274	-0.583824	-0.287029
H126	H	1.543274	-0.083824	0.212971
H127	H	1.043334	-0.712070	-0.287053
H128	H	1.543334	-0.212070	0.212947
O129	O	0.593537	-0.235968	-0.274056
O130	O	1.093537	0.264032	0.225944
H131	H	0.630859	-0.266220	-0.234060
H132	H	1.130859	0.233780	0.265940
H133	H	1.043322	-0.404435	-0.930623
H134	H	1.543322	0.095565	-0.430623
H135	H	1.043362	-0.404408	-1.079350
H136	H	1.543362	0.095592	-0.579350
O137	O	0.675976	-0.235980	-0.274035
O138	O	1.175976	0.264020	0.225965
H139	H	0.638641	-0.201589	-0.309231
H140	H	1.138641	0.298411	0.190769
O141	O	1.238909	-0.235910	-1.090256
O142	O	1.738909	0.264090	-0.590256
H143	H	1.225485	-0.182791	-1.074524
H144	H	1.725485	0.317209	-0.574524
H145	H	1.225342	-0.583590	-0.469344
H146	H	1.725342	-0.083590	0.030656
H147	H	0.433977	-0.404706	-0.469150
H148	H	0.933977	0.095294	0.030850
H149	H	1.043319	-0.404463	-0.826504
H150	H	1.543319	0.095537	-0.326504
H151	H	1.225398	-0.711824	-0.469363
H152	H	1.725398	-0.211824	0.030637
H153	H	1.043286	-0.404496	-0.677773
H154	H	1.543286	0.095504	-0.177773
H155	H	1.225495	-0.939349	-0.469398
H156	H	1.725495	-0.439349	0.030602
O157	O	1.238813	-1.076911	-0.482715
O158	O	1.738813	-0.576911	0.017285
H159	H	1.230404	-1.132013	-0.474293
H160	H	1.730404	-0.632013	0.025707
H161	H	1.043491	-1.067828	-0.287096
H162	H	1.543491	-0.567828	0.212904
O163	O	0.593548	-0.416148	-0.482379
O164	O	1.093548	0.083852	0.017621
H165	H	0.577783	-0.469258	-0.468817
H166	H	1.077783	0.030742	0.031183
O167	O	0.846395	-0.416136	-0.482348
O168	O	1.346395	0.083864	0.017652
H169	H	0.804119	-0.446269	-0.517203
H170	H	1.304119	0.053731	-0.017203
O171	O	1.030180	-0.930262	-0.273787
O172	O	1.530180	-0.430262	0.226213
H173	H	0.995321	-0.966763	-0.238844
H174	H	1.495321	-0.466763	0.261156
H175	H	0.686834	-0.404691	-0.469121
H176	H	1.186834	0.095309	0.030879
O177	O	0.423123	-0.235977	-0.274084
O178	O	0.923123	0.264023	0.225916
H179	H	0.465394	-0.205825	-0.239243
H180	H	0.965394	0.294175	0.260757
O181	O	1.238838	-0.236020	-0.667011
O182	O	1.738838	0.263980	-0.167011
H183	H	1.225408	-0.182893	-0.682751
H184	H	1.725408	0.317107	-0.182751
O185	O	1.238862	-0.235979	-0.837416
O186	O	1.738862	0.264021	-0.337416
H187	H	1.273790	-0.205900	-0.795153
H188	H	1.773790	0.294100	-0.295153
O189	O	1.238878	-0.235959	-0.919857
O190	O	1.738878	0.264041	-0.419857
H191	H	1.273810	-0.205847	-0.962143
H192	H	1.773810	0.294153	-0.462143
