data_functionalizedCrystal
_audit_creation_method	'MofGen! by Chris Wilmer'
_symmetry_space_group_name_H-M	'P1'
_symmetry_Int_Tables_number	1
_symmetry_cell_setting	triclinic
loop_
_symmetry_equiv_pos_as_xyz
  x,y,z
_cell_length_a	8.597340
_cell_length_b	14.519709
_cell_length_c	12.996460
_cell_angle_alpha	89.998766
_cell_angle_beta	97.695834
_cell_angle_gamma	84.511855
loop_
_atom_site_label
_atom_site_type_symbol
_atom_site_fract_x
_atom_site_fract_y
_atom_site_fract_z
O1	O	2.082780	0.137656	0.099084
O2	O	2.332780	0.387656	0.349084
O3	O	2.582780	0.637656	0.599084
O4	O	2.832780	0.887656	0.849084
O5	O	1.625887	0.148214	0.058575
O6	O	1.875887	0.398214	0.308575
O7	O	2.125887	0.648214	0.558575
O8	O	2.375887	0.898214	0.808575
O9	O	1.866448	0.008794	0.079913
O10	O	2.116448	0.258794	0.329913
O11	O	2.366448	0.508794	0.579913
O12	O	2.616448	0.758794	0.829913
O13	O	1.842220	0.277076	0.077746
O14	O	2.092220	0.527076	0.327746
O15	O	2.342220	0.777076	0.577746
O16	O	2.592220	1.027076	0.827746
O17	O	1.866417	0.008802	0.251044
O18	O	2.116417	0.258802	0.501044
O19	O	2.366417	0.508802	0.751044
O20	O	2.616417	0.758802	1.001044
O21	O	1.625856	0.148222	0.229706
O22	O	1.875856	0.398222	0.479706
O23	O	2.125856	0.648222	0.729706
O24	O	2.375856	0.898222	0.979706
O25	O	2.082749	0.137664	0.270215
O26	O	2.332749	0.387664	0.520215
O27	O	2.582749	0.637664	0.770215
O28	O	2.832749	0.887664	1.020215
Cu29	Cu	1.854300	0.142944	0.265586
Cu30	Cu	2.104300	0.392944	0.515586
Cu31	Cu	2.354300	0.642944	0.765586
Cu32	Cu	2.604300	0.892944	1.015586
Cu33	Cu	1.854337	0.142934	0.063204
Cu34	Cu	2.104337	0.392934	0.313204
Cu35	Cu	2.354337	0.642934	0.563204
Cu36	Cu	2.604337	0.892934	0.813204
O37	O	1.842189	0.277084	0.248877
O38	O	2.092189	0.527084	0.498877
O39	O	2.342189	0.777084	0.748877
O40	O	2.592189	1.027084	0.998877
C41	C	1.567398	0.147083	0.138956
C42	C	1.817398	0.397083	0.388956
C43	C	2.067398	0.647083	0.638956
C44	C	2.317398	0.897083	0.888956
C45	C	1.393166	0.143692	0.123509
C46	C	1.643166	0.393692	0.373509
C47	C	1.893166	0.643692	0.623509
C48	C	2.143166	0.893692	0.873509
C49	C	1.865303	-0.025571	0.165379
C50	C	2.115303	0.224429	0.415379
C51	C	2.365303	0.474429	0.665379
C52	C	2.615303	0.724429	0.915379
C53	C	1.861919	-0.127979	0.165079
C54	C	2.111919	0.122021	0.415079
C55	C	2.361919	0.372021	0.665079
C56	C	2.611919	0.622021	0.915079
C57	C	1.849463	-0.502976	0.163948
C58	C	2.099463	-0.252976	0.413948
C59	C	2.349463	-0.002976	0.663948
C60	C	2.599463	0.247024	0.913948
C61	C	1.852922	-0.398640	0.164262
C62	C	2.102922	-0.148640	0.414262
C63	C	2.352922	0.101360	0.664262
C64	C	2.602922	0.351360	0.914262
C65	C	1.855691	-0.315481	0.164514
C66	C	2.105691	-0.065481	0.414514
C67	C	2.355691	0.184519	0.664514
C68	C	2.605691	0.434519	0.914514
C69	C	1.859151	-0.211138	0.164827
C70	C	2.109151	0.038862	0.414827
C71	C	2.359151	0.288862	0.664827
C72	C	2.609151	0.538862	0.914827
C73	C	2.141238	0.138794	0.189832
C74	C	2.391238	0.388794	0.439832
C75	C	2.641238	0.638794	0.689832
C76	C	2.891238	0.888794	0.939832
C77	C	2.315471	0.142186	0.205273
C78	C	2.565471	0.392186	0.455273
C79	C	2.815471	0.642186	0.705273
C80	C	3.065471	0.892186	0.955273
C81	C	1.843334	0.311449	0.163409
C82	C	2.093334	0.561449	0.413409
C83	C	2.343334	0.811449	0.663409
C84	C	2.593334	1.061449	0.913409
C85	C	1.846717	0.413857	0.163702
C86	C	2.096717	0.663857	0.413702
C87	C	2.346717	0.913857	0.663702
C88	C	2.596717	1.163857	0.913702
N89	N	1.854286	0.142950	0.407932
N90	N	2.104286	0.392950	0.657932
N91	N	2.354286	0.642950	0.907932
N92	N	2.604286	0.892950	1.157932
N93	N	1.854363	0.142921	-0.079141
N94	N	2.104363	0.392921	0.170859
N95	N	2.354363	0.642921	0.420859
N96	N	2.604363	0.892921	0.670859
C97	C	1.854293	0.142952	0.501039
C98	C	2.104293	0.392952	0.751039
C99	C	2.354293	0.642952	1.001039
C100	C	2.604293	0.892952	1.251039
C101	C	1.854307	0.142946	0.617845
C102	C	2.104307	0.392946	0.867845
C103	C	2.354307	0.642946	1.117845
C104	C	2.604307	0.892946	1.367845
C105	C	1.854327	0.142936	0.710945
C106	C	2.104327	0.392936	0.960945
C107	C	2.354327	0.642936	1.210945
C108	C	2.604327	0.892936	1.460945
C109	C	1.854344	0.142931	0.827759
C110	C	2.104344	0.392931	1.077759
C111	C	2.354344	0.642931	1.327759
C112	C	2.604344	0.892931	1.577759
H113	H	1.326383	0.142387	0.041680
H114	H	1.576383	0.392387	0.291680
H115	H	1.826383	0.642387	0.541680
H116	H	2.076383	0.892387	0.791680
H117	H	1.382247	0.143484	0.287096
H118	H	1.632247	0.393484	0.537096
H119	H	1.882247	0.643484	0.787096
H120	H	2.132247	0.893484	1.037096
