data_functionalizedCrystal
_audit_creation_method	'MofGen! by Chris Wilmer'
_symmetry_space_group_name_H-M	'P1'
_symmetry_Int_Tables_number	1
_symmetry_cell_setting	triclinic
loop_
_symmetry_equiv_pos_as_xyz
  x,y,z
_cell_length_a	12.759395
_cell_length_b	19.121063
_cell_length_c	12.759387
_cell_angle_alpha	92.403602
_cell_angle_beta	89.979491
_cell_angle_gamma	92.470426
loop_
_atom_site_label
_atom_site_type_symbol
_atom_site_fract_x
_atom_site_fract_y
_atom_site_fract_z
Zn1	Zn	1.588336	-0.279547	-0.611793
Zn2	Zn	1.580692	-0.397015	-0.443587
Zn3	Zn	1.412632	-0.279586	-0.436132
Zn4	Zn	1.405095	-0.396965	-0.619223
O5	O	1.496689	-0.338278	-0.527684
O6	O	1.734343	-0.295134	-0.589490
O7	O	1.558353	-0.381475	-0.295580
O8	O	1.442293	-0.181296	-0.453204
O9	O	1.728726	-0.381437	-0.465911
O10	O	1.571382	-0.181268	-0.582261
O11	O	1.434881	-0.295200	-0.290102
O12	O	1.264611	-0.295151	-0.460409
O13	O	1.429447	-0.381352	-0.765256
O14	O	1.259074	-0.381389	-0.594925
O15	O	1.564074	-0.295086	-0.759797
O16	O	1.551045	-0.495293	-0.473116
O17	O	1.422034	-0.495256	-0.602155
C18	C	1.223722	-0.338270	-0.527665
C19	C	1.106944	-0.338283	-0.527683
C20	C	1.101207	-0.428228	-0.667547
C21	C	1.043477	-0.473206	-0.737482
C22	C	0.933755	-0.473214	-0.737496
C23	C	0.881761	-0.428239	-0.667569
C24	C	0.939490	-0.383261	-0.597633
C25	C	1.049215	-0.383258	-0.597625
C26	C	0.945228	-0.293313	-0.457776
C27	C	1.054950	-0.293307	-0.457756
C28	C	0.893233	-0.248337	-0.387849
C29	C	0.950963	-0.203362	-0.317907
C30	C	1.060691	-0.203356	-0.317895
C31	C	1.112679	-0.248329	-0.387821
C32	C	1.484921	-0.520758	-0.539274
C33	C	1.479982	-0.598824	-0.544267
C34	C	1.544883	-0.635495	-0.479485
C35	C	1.540245	-0.708846	-0.484187
C36	C	1.470700	-0.745525	-0.553667
C37	C	1.405796	-0.708848	-0.618456
C38	C	1.410440	-0.635499	-0.613759
C39	C	1.453319	-0.966994	-0.571215
C40	C	1.448677	-1.040349	-0.575905
C41	C	1.583128	-1.040341	-0.441637
C42	C	1.587762	-0.966990	-0.436941
C43	C	1.522862	-0.930320	-0.501734
C44	C	1.465955	-0.820501	-0.558473
C45	C	1.527613	-0.855345	-0.496933
C46	C	1.770721	-0.338287	-0.527703
C47	C	1.887498	-0.338291	-0.527711
C48	C	1.496772	-0.338209	-0.801713
C49	C	1.496808	-0.338180	-0.918488
C50	C	1.508531	-0.155086	-0.516072
C51	C	1.513578	-0.077020	-0.511123
C52	C	1.637004	-0.248357	-0.912823
C53	C	1.707117	-0.203435	-0.964851
C54	C	1.707144	-0.203409	-1.074571
C55	C	1.637048	-0.248309	-1.132266
C56	C	1.566935	-0.293231	-1.080238
C57	C	1.566918	-0.293253	-0.970516
C58	C	1.426736	-0.383050	-1.085903
C59	C	1.426712	-0.383080	-0.976183
C60	C	1.356641	-0.427949	-1.143598
C61	C	1.286531	-0.472876	-1.091570
C62	C	1.286507	-0.472900	-0.981843
C63	C	1.356599	-0.428002	-0.924155
C64	C	1.496669	-0.338296	-0.254717
C65	C	1.496849	-0.338128	-0.137931
H66	H	1.601510	-0.605636	-0.422902
C67	C	0.739183	-0.199369	-0.311721
C68	C	0.772625	-0.248343	-0.387862
H69	H	0.664724	-0.199370	-0.311732
H70	H	0.763193	-0.211456	-0.244667
H71	H	0.766939	-0.154063	-0.327139
H72	H	0.744875	-0.293650	-0.372439
H73	H	0.748603	-0.236259	-0.454931
C74	C	1.379119	-0.494735	-1.305001
C75	C	1.356667	-0.427924	-1.264204
H76	H	1.379129	-0.494721	-1.379459
H77	H	1.446119	-0.506885	-1.280961
H78	H	1.327324	-0.527906	-1.282263
H79	H	1.408467	-0.394753	-1.286935
H80	H	1.289658	-0.415766	-1.288254
H81	H	1.584241	-0.825479	-0.440366
H82	H	1.636998	-0.248380	-0.823484
H83	H	1.409329	-0.850373	-0.615042
H84	H	0.908620	-0.166743	-0.260982
H85	H	1.190548	-0.428231	-0.667536
H86	H	1.644391	-0.937128	-0.380365
H87	H	1.229460	-0.509426	-1.138554
H88	H	1.085824	-0.509823	-0.794417
C89	C	1.769355	-0.163598	-0.794139
C90	C	1.784173	-0.154088	-0.901432
H91	H	1.816931	-0.133137	-0.754992
H92	H	1.699439	-0.153309	-0.775497
H93	H	1.781663	-0.210798	-0.779163
H94	H	1.771857	-0.106890	-0.916409
H95	H	1.854105	-0.164372	-0.920081
H96	H	1.229402	-0.509474	-0.939489
H97	H	1.356591	-0.428020	-0.834815
C98	C	1.845732	-0.114627	-1.057963
C99	C	1.784213	-0.154032	-1.131767
H100	H	1.893315	-0.084147	-1.093276
H101	H	1.801691	-0.087765	-1.013464
H102	H	1.883927	-0.145246	-1.017108
H103	H	1.746013	-0.123412	-1.172617
H104	H	1.828260	-0.180896	-1.176284
C105	C	1.055331	-0.114449	-0.179643
C106	C	1.124144	-0.153917	-0.241013
H107	H	1.094503	-0.083931	-0.132174
H108	H	1.014293	-0.087624	-0.223791
H109	H	1.010539	-0.145026	-0.141331
H110	H	1.168931	-0.123340	-0.279331
H111	H	1.165199	-0.180744	-0.196860
H112	H	0.886752	-0.509836	-0.794448
H113	H	1.635967	-1.070206	-0.388888
C114	C	0.721462	-0.477221	-0.743737
C115	C	0.761152	-0.428247	-0.667584
H116	H	0.647003	-0.477228	-0.743738
H117	H	0.747090	-0.465127	-0.810785
H118	H	0.743362	-0.522525	-0.728320
H119	H	0.739258	-0.382941	-0.683005
H120	H	0.735514	-0.440337	-0.600521
H121	H	1.202020	-0.248330	-0.387815
H122	H	1.637068	-0.248278	-1.221605
C123	C	1.673593	-0.701472	-0.350985
C124	C	1.611580	-0.749155	-0.412970
H125	H	1.717630	-0.726358	-0.307013
H126	H	1.715573	-0.672816	-0.394956
H127	H	1.629631	-0.672910	-0.308935
H128	H	1.655543	-0.777714	-0.455026
H129	H	1.569597	-0.777823	-0.368994
H130	H	1.400473	-0.937143	-0.623970
C131	C	1.396001	-1.062883	-0.755217
C132	C	1.372238	-1.080672	-0.652289
H133	H	1.348816	-1.087782	-0.802368
H134	H	1.389468	-1.013958	-0.761695
H135	H	1.465831	-1.074857	-0.771397
H136	H	1.302410	-1.068693	-0.636106
H137	H	1.378761	-1.129608	-0.645808
C138	C	1.338968	-0.821290	-0.685267
C139	C	1.329347	-0.749164	-0.694828
H140	H	1.291763	-0.846176	-0.732411
H141	H	1.408783	-0.833261	-0.701476
H142	H	1.322865	-0.833348	-0.615431
H143	H	1.345458	-0.737104	-0.764663
H144	H	1.259516	-0.737188	-0.678626
C145	C	1.277076	-0.642869	-0.746947
C146	C	1.339101	-0.595187	-0.684971
H147	H	1.233034	-0.617981	-0.790911
H148	H	1.321023	-0.671431	-0.788996
H149	H	1.235094	-0.671524	-0.702963
H150	H	1.381090	-0.566535	-0.728956
H151	H	1.295149	-0.566612	-0.642918
