data_functionalizedCrystal
_audit_creation_method	'MofGen! by Chris Wilmer'
_symmetry_space_group_name_H-M	'P1'
_symmetry_Int_Tables_number	1
_symmetry_cell_setting	triclinic
loop_
_symmetry_equiv_pos_as_xyz
  x,y,z
_cell_length_a	12.759401
_cell_length_b	15.297327
_cell_length_c	12.759393
_cell_angle_alpha	99.641734
_cell_angle_beta	89.981504
_cell_angle_gamma	99.706546
loop_
_atom_site_label
_atom_site_type_symbol
_atom_site_fract_x
_atom_site_fract_y
_atom_site_fract_z
Zn1	Zn	1.533799	-0.359102	-0.666297
Zn2	Zn	1.503249	-0.509990	-0.521002
Zn3	Zn	1.358091	-0.359150	-0.490645
Zn4	Zn	1.327659	-0.509920	-0.696630
O5	O	1.430699	-0.434541	-0.593643
O6	O	1.676766	-0.379127	-0.647033
O7	O	1.483944	-0.490029	-0.369964
O8	O	1.406921	-0.232898	-0.488547
O9	O	1.654320	-0.489984	-0.540286
O10	O	1.536012	-0.232864	-0.617597
O11	O	1.377297	-0.379208	-0.347661
O12	O	1.207035	-0.379140	-0.517960
O13	O	1.355053	-0.489865	-0.839617
O14	O	1.184677	-0.489911	-0.669295
O15	O	1.506503	-0.379060	-0.817332
O16	O	1.454435	-0.636226	-0.569698
O17	O	1.325430	-0.636175	-0.698731
C18	C	1.157735	-0.434524	-0.593626
C19	C	1.040956	-0.434539	-0.593648
C20	C	0.974461	-0.492309	-0.672355
C21	C	0.864734	-0.492321	-0.672369
C22	C	0.888009	-0.376788	-0.514958
C23	C	0.997734	-0.376773	-0.514949
C24	C	0.961022	-0.559014	-0.763233
C25	C	0.851295	-0.559025	-0.763247
C26	C	1.383343	-0.668934	-0.640823
C27	C	1.363180	-0.769208	-0.661042
C28	C	1.575241	-1.051846	-0.449495
C29	C	1.594185	-0.957633	-0.430493
C30	C	1.536436	-0.910523	-0.488129
C31	C	1.459739	-0.957634	-0.564769
C32	C	1.440787	-1.051856	-0.583767
C33	C	1.401982	-0.910532	-0.622401
C34	C	1.325285	-0.957643	-0.699042
C35	C	1.306338	-1.051856	-0.718037
C36	C	1.364087	-1.098967	-0.660401
C37	C	1.420933	-0.816310	-0.603403
C38	C	1.286480	-0.816320	-0.737676
C39	C	1.267536	-0.910532	-0.756677
C40	C	1.704729	-0.434558	-0.593662
C41	C	1.821504	-0.434565	-0.593670
C42	C	1.430791	-0.434450	-0.867659
C43	C	1.430831	-0.434411	-0.984427
C44	C	1.478269	-0.199232	-0.546302
C45	C	1.498541	-0.098957	-0.526129
C46	C	1.509701	-0.376709	-1.027686
C47	C	1.509733	-0.376676	-1.137404
C48	C	1.352019	-0.492055	-1.160596
C49	C	1.351984	-0.492083	-1.050879
C50	C	1.600759	-0.310099	-1.014298
C51	C	1.600790	-0.310066	-1.124015
C52	C	1.430681	-0.434566	-0.320681
C53	C	1.430897	-0.434351	-0.203862
H54	H	1.483380	-0.777960	-0.541002
H55	H	0.807405	-0.628879	-0.755382
H56	H	1.051872	-0.329725	-0.450863
H57	H	1.585071	-0.243682	-1.144695
H58	H	0.852804	-0.329757	-0.450885
C59	C	1.696922	-0.343653	-0.975604
C60	C	1.662792	-0.419927	-0.929258
C61	C	1.751346	-0.450872	-0.893615
H62	H	1.736670	-0.297820	-0.924414
H63	H	1.740391	-0.358755	-1.034065
H64	H	1.619341	-0.404823	-0.870804
H65	H	1.623056	-0.465778	-0.980427
H66	H	1.794815	-0.465974	-0.952076
H67	H	1.791087	-0.405034	-0.842429
H68	H	1.728202	-0.502632	-0.862174
H69	H	1.678385	-0.328779	-1.157562
H70	H	0.994590	-0.540381	-0.840888
H71	H	1.551863	-0.833810	-0.472652
H72	H	0.981651	-0.625349	-0.747307
H73	H	1.287757	-0.539066	-1.015663
C74	C	1.184269	-0.961850	-0.839798
C75	C	1.180021	-1.054442	-0.844076
C76	C	1.103320	-1.101743	-0.920623
H77	H	1.202634	-0.946463	-0.907343
H78	H	1.116745	-0.946524	-0.821262
H79	H	1.247531	-1.069761	-0.862618
H80	H	1.161643	-1.069856	-0.776550
H81	H	1.035795	-1.086418	-0.902087
H82	H	1.121692	-1.086349	-0.988162
H83	H	1.100420	-1.164572	-0.923528
H84	H	1.593087	-0.240232	-0.970472
H85	H	1.622246	-1.090213	-0.402570
H86	H	0.822330	-0.534085	-0.835577
C87	C	1.677539	-0.906650	-0.347290
C88	C	1.724081	-0.968069	-0.300904
C89	C	1.800889	-0.921135	-0.224262
H90	H	1.644876	-0.869949	-0.293985
H91	H	1.730750	-0.869858	-0.380081
H92	H	1.670879	-1.004845	-0.268113
H93	H	1.756766	-1.004771	-0.354182
H94	H	1.854099	-0.884343	-0.257052
H95	H	1.768216	-0.884436	-0.170964
H96	H	1.832483	-0.962800	-0.192786
C97	C	1.343637	-1.201259	-0.681231
C98	C	1.364164	-1.232338	-0.787542
C99	C	1.345358	-1.326565	-0.806764
H100	H	1.271564	-1.222758	-0.667406
H101	H	1.389047	-1.222597	-0.635989
H102	H	1.318754	-1.211010	-0.832770
H103	H	1.436232	-1.210865	-0.801392
H104	H	1.390769	-1.347903	-0.761522
H105	H	1.273286	-1.348055	-0.792934
H106	H	1.359293	-1.347664	-0.878894
H107	H	1.243874	-1.090211	-0.780430
C108	C	1.223924	-0.765018	-0.800188
C109	C	1.256957	-0.672424	-0.767170
C110	C	1.199368	-0.625132	-0.824735
H111	H	1.150202	-0.780407	-0.787923
H112	H	1.236190	-0.780350	-0.873906
H113	H	1.244683	-0.657099	-0.693469
H114	H	1.330670	-0.657009	-0.779437
H115	H	1.211634	-0.640464	-0.898453
H116	H	1.125649	-0.640528	-0.812465
H117	H	1.221780	-0.562303	-0.802348
H118	H	1.287822	-0.539007	-1.214714
