data_functionalizedCrystal
_audit_creation_method	'MofGen! by Chris Wilmer'
_symmetry_space_group_name_H-M	'P1'
_symmetry_Int_Tables_number	1
_symmetry_cell_setting	triclinic
loop_
_symmetry_equiv_pos_as_xyz
  x,y,z
_cell_length_a	16.109296
_cell_length_b	27.732048
_cell_length_c	15.186229
_cell_angle_alpha	89.991324
_cell_angle_beta	90.001331
_cell_angle_gamma	96.949028
loop_
_atom_site_label
_atom_site_type_symbol
_atom_site_fract_x
_atom_site_fract_y
_atom_site_fract_z
O1	O	-1.102364	0.062118	-0.073197
O2	O	-0.769031	0.395451	0.260137
O3	O	-0.435698	0.728784	0.593470
O4	O	-0.860206	0.069852	-0.073209
O5	O	-0.526873	0.403186	0.260124
O6	O	-0.193539	0.736519	0.593458
O7	O	-0.988806	-0.004380	-0.073186
O8	O	-0.655473	0.328953	0.260148
O9	O	-0.322139	0.662286	0.593481
O10	O	-0.973764	0.136350	-0.073220
O11	O	-0.640431	0.469684	0.260113
O12	O	-0.307098	0.803017	0.593447
O13	O	-0.988798	-0.004381	0.073272
O14	O	-0.655464	0.328952	0.406605
O15	O	-0.322131	0.662285	0.739938
O16	O	-0.860197	0.069851	0.073248
O17	O	-0.526864	0.403185	0.406582
O18	O	-0.193531	0.736518	0.739915
O19	O	-1.102356	0.062117	0.073260
O20	O	-0.769022	0.395450	0.406594
O21	O	-0.435689	0.728783	0.739927
Zn22	Zn	-0.981275	0.065984	0.096508
Zn23	Zn	-0.647942	0.399317	0.429841
Zn24	Zn	-0.314609	0.732650	0.763174
Zn25	Zn	-0.981286	0.065985	-0.096456
Zn26	Zn	-0.647953	0.399319	0.236877
Zn27	Zn	-0.314620	0.732652	0.570211
O28	O	-0.973756	0.136349	0.073237
O29	O	-0.640422	0.469683	0.406571
O30	O	-0.307089	0.803016	0.739904
C31	C	-0.829231	0.069539	0.000018
C32	C	-0.495897	0.402872	0.333352
C33	C	-0.162564	0.736206	0.666685
C34	C	-0.736947	0.068601	0.000015
C35	C	-0.403613	0.401934	0.333348
C36	C	-0.070280	0.735268	0.666681
C37	C	-0.427440	0.109582	0.000022
C38	C	-0.094107	0.442916	0.333355
C39	C	0.239226	0.776249	0.666688
C40	C	-0.514150	0.110468	0.000016
C41	C	-0.180816	0.443801	0.333349
C42	C	0.152517	0.777135	0.666683
C43	C	-0.535113	0.022395	0.000026
C44	C	-0.201780	0.355728	0.333359
C45	C	0.131553	0.689062	0.666692
C46	C	-0.448405	0.021510	0.000025
C47	C	-0.115072	0.354843	0.333358
C48	C	0.218261	0.688176	0.666692
C49	C	-0.394571	0.065105	0.000028
C50	C	-0.061237	0.398438	0.333361
C51	C	0.272096	0.731771	0.666694
C52	C	-0.567988	0.066876	0.000022
C53	C	-0.234655	0.400209	0.333356
C54	C	0.098678	0.733543	0.666689
C55	C	-0.662003	0.067836	0.000016
C56	C	-0.328669	0.401169	0.333349
C57	C	0.004664	0.734503	0.666683
C58	C	-0.300550	0.064145	0.000032
C59	C	0.032783	0.397478	0.333366
C60	C	0.366116	0.730811	0.666699
C61	C	-0.988486	-0.022389	0.000045
C62	C	-0.655153	0.310944	0.333379
C63	C	-0.321819	0.644278	0.666712
C64	C	-0.987535	-0.076048	0.000053
C65	C	-0.654202	0.257285	0.333386
C66	C	-0.320869	0.590619	0.666719
C67	C	-1.057544	-0.414571	0.000011
C68	C	-0.724211	-0.081237	0.333344
C69	C	-0.390877	0.252096	0.666677
C70	C	-1.054016	-0.616245	-0.000002
C71	C	-0.720683	-0.282912	0.333332
C72	C	-0.387350	0.050422	0.666665
O73	O	-1.118034	-0.647234	-0.000037
O74	O	-0.784701	-0.313900	0.333296
O75	O	-0.451368	0.019433	0.666630
N76	N	-0.977762	-0.635687	-0.000005
N77	N	-0.644428	-0.302354	0.333329
N78	N	-0.311095	0.030980	0.666662
C79	C	-0.902384	-0.604707	-0.000010
C80	C	-0.569050	-0.271374	0.333323
C81	C	-0.235717	0.061960	0.666656
O82	O	-0.837444	-0.625871	-0.000022
O83	O	-0.504110	-0.292538	0.333311
O84	O	-0.170777	0.040795	0.666645
C85	C	-0.905912	-0.403034	-0.000004
C86	C	-0.572579	-0.069700	0.333329
C87	C	-0.239246	0.263633	0.666663
C88	C	-0.982172	-0.383595	0.000008
C89	C	-0.648838	-0.050261	0.333341
C90	C	-0.315505	0.283072	0.666674
C91	C	-1.133797	-0.395131	0.000022
C92	C	-0.800464	-0.061798	0.333355
C93	C	-0.467131	0.271535	0.666688
C94	C	-1.134678	-0.344716	0.000030
C95	C	-0.801345	-0.011382	0.333363
C96	C	-0.468012	0.321951	0.666696
C97	C	-1.059306	-0.313740	0.000027
C98	C	-0.725973	0.019594	0.333360
C99	C	-0.392639	0.352927	0.666693
C100	C	-0.983053	-0.333179	0.000016
C101	C	-0.649719	0.000154	0.333349
C102	C	-0.316386	0.333488	0.666682
C103	C	-0.830535	-0.372055	-0.000016
C104	C	-0.497202	-0.038721	0.333317
C105	C	-0.163868	0.294612	0.666651
C106	C	-0.831424	-0.321634	-0.000017
C107	C	-0.498091	0.011700	0.333317
C108	C	-0.164757	0.345033	0.666650
C109	C	-0.907684	-0.302195	-0.000005
C110	C	-0.574350	0.031139	0.333328
C111	C	-0.241017	0.364472	0.666662
C112	C	-0.908562	-0.251787	0.000021
C113	C	-0.575228	0.081546	0.333354
C114	C	-0.241895	0.414879	0.666687
N115	N	-0.984816	-0.232345	0.000024
N116	N	-0.651483	0.100988	0.333357
N117	N	-0.318150	0.434321	0.666690
C118	C	-1.060188	-0.263321	0.000027
C119	C	-0.726855	0.070012	0.333360
C120	C	-0.393522	0.403345	0.666693
C121	C	-0.900537	-0.710589	-0.000012
C122	C	-0.567203	-0.377256	0.333322
C123	C	-0.233870	-0.043922	0.666655
C124	C	-0.899654	-0.761007	-0.000012
C125	C	-0.566321	-0.427674	0.333322
C126	C	-0.232988	-0.094340	0.666655
C127	C	-1.051287	-0.772542	-0.000005
C128	C	-0.717954	-0.439208	0.333329
C129	C	-0.384620	-0.105875	0.666662
C130	C	-1.052169	-0.722122	0.000002
C131	C	-0.718835	-0.388789	0.333335
C132	C	-0.385502	-0.055456	0.666668
C133	C	-0.976791	-0.691147	-0.000009
C134	C	-0.643458	-0.357814	0.333325
C135	C	-0.310124	-0.024480	0.666658
C136	C	-1.062033	-0.157445	0.000044
C137	C	-0.728700	0.175889	0.333377
C138	C	-0.395366	0.509222	0.666711
C139	C	-1.062907	-0.107024	0.000056
C140	C	-0.729574	0.226309	0.333389
C141	C	-0.396241	0.559643	0.666722
C142	C	-0.911275	-0.095494	0.000044
C143	C	-0.577942	0.237839	0.333377
C144	C	-0.244608	0.571173	0.666711
C145	C	-0.910400	-0.145910	0.000037
C146	C	-0.577067	0.187423	0.333370
C147	C	-0.243733	0.520757	0.666704
C148	C	-0.985786	-0.176885	0.000034
C149	C	-0.652453	0.156449	0.333367
C150	C	-0.319119	0.489782	0.666701
O151	O	-0.844578	-0.220770	0.000046
O152	O	-0.511245	0.112563	0.333379
O153	O	-0.177911	0.445896	0.666713
O154	O	-1.125119	-0.242148	0.000019
O155	O	-0.791786	0.091185	0.333352
O156	O	-0.458452	0.424519	0.666686
C157	C	-1.056663	-0.464986	0.000003
C158	C	-0.723329	-0.131653	0.333336
C159	C	-0.389996	0.201680	0.666670
C160	C	-0.980410	-0.484426	-0.000008
C161	C	-0.647076	-0.151093	0.333325
C162	C	-0.313743	0.182241	0.666659
C163	C	-0.905037	-0.453450	-0.000011
C164	C	-0.571704	-0.120117	0.333322
C165	C	-0.238371	0.213217	0.666656
C166	C	-0.979527	-0.534844	-0.000008
C167	C	-0.646194	-0.201511	0.333325
C168	C	-0.312861	0.131823	0.666659
C169	C	-1.054899	-0.565820	-0.000005
C170	C	-0.721566	-0.232487	0.333328
C171	C	-0.388233	0.100847	0.666662
C172	C	-1.131154	-0.546378	-0.000002
C173	C	-0.797821	-0.213045	0.333331
C174	C	-0.464487	0.120289	0.666665
C175	C	-1.132035	-0.495962	0.000006
C176	C	-0.798702	-0.162629	0.333339
C177	C	-0.465368	0.170704	0.666673
C178	C	-0.828783	-0.472892	-0.000014
C179	C	-0.495449	-0.139559	0.333319
C180	C	-0.162116	0.193775	0.666653
C181	C	-0.827908	-0.523308	-0.000021
C182	C	-0.494575	-0.189975	0.333312
C183	C	-0.161241	0.143359	0.666646
C184	C	-0.903280	-0.554284	-0.000018
C185	C	-0.569947	-0.220951	0.333315
C186	C	-0.236613	0.112383	0.666649
C187	C	-0.133330	0.062433	0.000033
C188	C	0.200003	0.395766	0.333366
C189	C	0.533336	0.729100	0.666699
C190	C	-0.225612	0.063380	0.000036
C191	C	0.107721	0.396713	0.333369
C192	C	0.441054	0.730046	0.666702
C193	C	-0.974076	0.154358	0.000004
C194	C	-0.640742	0.487691	0.333338
C195	C	-0.307409	0.821025	0.666671
C196	C	-0.975026	0.208017	-0.000009
C197	C	-0.641693	0.541350	0.333325
C198	C	-0.308360	0.874684	0.666658
N199	N	-0.981274	0.065983	0.228200
N200	N	-0.647940	0.399316	0.561534
N201	N	-0.314607	0.732649	0.894867
N202	N	-0.981295	0.065983	-0.228149
N203	N	-0.647961	0.399316	0.105185
N204	N	-0.314628	0.732649	0.438518
C205	C	-1.038237	0.033123	0.453933
C206	C	-0.704904	0.366457	0.787267
C207	C	-0.371570	0.699790	1.120600
C208	C	-1.038240	0.033122	0.546123
C209	C	-0.704906	0.366456	0.879456
C210	C	-0.371573	0.699789	1.212790
C211	C	-0.924325	0.098843	0.546112
C212	C	-0.590992	0.432177	0.879445
C213	C	-0.257659	0.765510	1.212778
C214	C	-0.924319	0.098842	0.453924
C215	C	-0.590986	0.432175	0.787257
C216	C	-0.257653	0.765508	1.120590
C217	C	-0.981280	0.065982	0.407837
C218	C	-0.647947	0.399316	0.741170
C219	C	-0.314613	0.732649	1.074504
C220	C	-0.981288	0.065983	0.592215
C221	C	-0.647955	0.399316	0.925548
C222	C	-0.314622	0.732649	1.258881
C223	C	-0.981291	0.065982	0.692171
C224	C	-0.647958	0.399315	1.025504
C225	C	-0.314624	0.732648	1.358837
C226	C	-0.981277	0.065983	0.307874
C227	C	-0.647943	0.399316	0.641208
C228	C	-0.314610	0.732649	0.974541
H229	H	-0.578956	-0.013098	0.000026
H230	H	-0.245623	0.320235	0.333359
H231	H	0.087711	0.653568	0.666692
H232	H	-0.877951	0.125597	0.583645
H233	H	-0.544617	0.458931	0.916978
H234	H	-0.211284	0.792264	1.250311
H235	H	-1.084616	0.006367	0.416412
H236	H	-0.751283	0.339700	0.749745
H237	H	-0.417950	0.673033	1.083078
H238	H	-0.837556	-0.776829	-0.000006
H239	H	-0.504223	-0.443496	0.333327
H240	H	-0.170890	-0.110163	0.666661
H241	H	-1.084618	0.006365	0.583652
H242	H	-0.751285	0.339698	0.916986
H243	H	-0.417951	0.673032	1.250319
H244	H	-0.540907	0.146686	0.000010
H245	H	-0.207574	0.480019	0.333344
H246	H	0.125760	0.813353	0.666677
H247	H	-0.421644	-0.014711	0.000027
H248	H	-0.088311	0.318622	0.333360
H249	H	0.245023	0.651955	0.666694
H250	H	-1.125010	-0.091200	0.000068
H251	H	-0.791676	0.242133	0.333401
H252	H	-0.458343	0.575467	0.666734
H253	H	-0.877934	0.125600	0.416389
H254	H	-0.544601	0.458933	0.749723
H255	H	-0.211268	0.792266	1.083056
H256	H	-0.383610	0.145080	0.000023
H257	H	-0.050276	0.478414	0.333357
H258	H	0.283057	0.811747	0.666690
H259	H	-1.123419	-0.182659	0.000038
H260	H	-0.790086	0.150675	0.333372
H261	H	-0.456753	0.484008	0.666705
H262	H	-1.192525	-0.571608	0.000004
H263	H	-0.859191	-0.238274	0.333338
H264	H	-0.525858	0.095059	0.666671
H265	H	-1.195178	-0.420348	0.000021
H266	H	-0.861845	-0.087014	0.333354
H267	H	-0.528511	0.246319	0.666688
H268	H	-1.196777	-0.328893	0.000036
H269	H	-0.863443	0.004440	0.333369
H270	H	-0.530110	0.337773	0.666702
H271	H	-0.848304	-0.161738	0.000052
H272	H	-0.514970	0.171595	0.333385
H273	H	-0.181637	0.504929	0.666718
H274	H	-1.114266	-0.706299	0.000010
H275	H	-0.780932	-0.372966	0.333344
H276	H	-0.447599	-0.039632	0.666677
H277	H	-0.839152	-0.685372	-0.000020
H278	H	-0.505818	-0.352039	0.333313
H279	H	-0.172485	-0.018706	0.666647
H280	H	-0.768437	-0.387873	-0.000031
H281	H	-0.435103	-0.054539	0.333302
H282	H	-0.101770	0.278794	0.666636
H283	H	-1.112658	-0.797771	-0.000002
H284	H	-0.779325	-0.464438	0.333331
H285	H	-0.445991	-0.131104	0.666665
H286	H	-0.849909	-0.070264	0.000045
H287	H	-0.516576	0.263069	0.333378
H288	H	-0.183242	0.596402	0.666711
H289	H	-0.770041	-0.296415	-0.000026
H290	H	-0.436708	0.036918	0.333307
H291	H	-0.103374	0.370252	0.666640
H292	H	-1.194133	-0.480140	0.000015
H293	H	-0.860800	-0.146807	0.333349
H294	H	-0.527467	0.186526	0.666682
H295	H	-0.765804	-0.539130	-0.000023
H296	H	-0.432470	-0.205797	0.333310
H297	H	-0.099137	0.127537	0.666644
H298	H	-0.767404	-0.447676	-0.000018
H299	H	-0.434071	-0.114342	0.333315
H300	H	-0.100737	0.218991	0.666648
