data_functionalizedCrystal
_audit_creation_method	'MofGen! by Chris Wilmer'
_symmetry_space_group_name_H-M	'P1'
_symmetry_Int_Tables_number	1
_symmetry_cell_setting	triclinic
loop_
_symmetry_equiv_pos_as_xyz
  x,y,z
_cell_length_a	11.026607
_cell_length_b	19.188930
_cell_length_c	9.482900
_cell_angle_alpha	99.297616
_cell_angle_beta	78.636152
_cell_angle_gamma	95.865399
loop_
_atom_site_label
_atom_site_type_symbol
_atom_site_fract_x
_atom_site_fract_y
_atom_site_fract_z
O1	O	1.627581	0.283622	-0.120957
O2	O	1.274451	0.250352	-0.120952
O3	O	1.461202	0.166632	-0.120926
O4	O	1.440830	0.367342	-0.120983
O5	O	1.423268	0.183725	0.120861
O6	O	1.236517	0.267445	0.120835
O7	O	1.589648	0.300715	0.120830
Cu8	Cu	1.409619	0.285641	0.142910
Cu9	Cu	1.454480	0.265426	-0.143032
O10	O	1.402896	0.384435	0.120804
C11	C	1.210306	0.252761	-0.000057
C12	C	1.075688	0.234464	-0.000054
C13	C	1.001617	0.284984	-0.000069
C14	C	0.862482	0.266075	-0.000066
C15	C	1.441575	0.149084	-0.000029
C16	C	1.439592	0.071328	-0.000016
C17	C	1.549173	0.040370	-0.000011
C18	C	1.547315	-0.032693	-0.000034
C19	C	1.435865	-0.074793	-0.000033
C20	C	1.326271	-0.043828	-0.000047
C21	C	1.328134	0.029233	-0.000038
N22	N	1.337766	-0.187838	0.082253
N23	N	1.336003	-0.257242	0.082248
C24	C	1.430246	-0.294921	-0.000063
N25	N	1.526334	-0.260572	-0.082349
N26	N	1.528099	-0.191161	-0.082338
C27	C	1.433833	-0.154016	-0.000044
C28	C	1.537820	-0.405101	-0.000085
C29	C	1.535959	-0.478166	-0.000117
C30	C	1.314910	-0.489299	-0.000115
C31	C	1.316776	-0.416236	-0.000098
C32	C	1.428234	-0.374141	-0.000075
C33	C	1.653793	0.298306	-0.000068
C34	C	1.788412	0.316602	-0.000081
C35	C	1.422524	0.401983	-0.000097
C36	C	1.424509	0.479738	-0.000119
N37	N	1.378075	0.299859	0.344025
N38	N	1.486034	0.251204	-0.344148
C39	C	1.445167	0.269615	0.416234
C40	C	1.418931	0.281452	0.583648
H41	H	0.827994	0.373857	-0.000087
O42	O	1.577463	0.209666	0.581754
C43	C	1.629663	0.105207	0.410302
C44	C	1.526098	0.152279	0.494002
H45	H	1.588169	0.058791	0.339358
H46	H	1.701565	0.137640	0.338767
H47	H	1.675925	0.084318	0.490910
H48	H	1.479740	0.173179	0.413499
H49	H	1.454277	0.119816	0.565559
H50	H	1.041206	0.342235	-0.000077
O51	O	1.286455	0.341207	0.418346
C52	C	1.176685	0.390644	0.652967
C53	C	1.280502	0.343814	0.568986
H54	H	1.171820	0.392756	0.774773
H55	H	1.197100	0.446436	0.623219
H56	H	1.084207	0.367368	0.623064
H57	H	1.373021	0.367027	0.598843
H58	H	1.259979	0.288028	0.598741
H59	H	1.636553	-0.057905	-0.000036
O60	O	0.815288	0.197778	0.000208
C61	C	0.782035	0.095805	0.125450
C62	C	0.835510	0.173152	0.125339
H63	H	0.798388	0.075866	0.226592
H64	H	0.678216	0.092688	0.125543
H65	H	0.829992	0.061580	0.024222
H66	H	0.787648	0.207423	0.226550
H67	H	0.939335	0.176212	0.125170
H68	H	1.036104	0.177212	-0.000075
O69	O	1.657513	0.081209	-0.000259
C70	C	1.866692	0.104199	-0.125469
C71	C	1.744058	0.057905	-0.125383
H72	H	1.936705	0.085366	-0.226604
H73	H	1.849297	0.161742	-0.125557
H74	H	1.904887	0.099730	-0.024234
H75	H	1.705797	0.062313	-0.226600
H76	H	1.761527	0.000381	-0.125218
H77	H	1.235528	-0.078111	-0.000050
O78	O	1.221559	0.059200	0.000029
C79	C	1.002130	0.040442	-0.000065
C80	C	1.122732	0.006413	-0.000111
H81	H	0.922202	-0.002222	-0.000210
H82	H	0.981512	0.081488	0.101154
H83	H	1.013419	0.067252	-0.101221
H84	H	1.111534	-0.020436	0.100976
H85	H	1.143310	-0.034596	-0.101397
O86	O	1.646204	-0.364315	-0.000154
C87	C	1.865245	-0.360978	-0.000100
C88	C	1.742592	-0.407250	-0.000048
H89	H	1.943202	-0.395671	0.000017
H90	H	1.887596	-0.333656	-0.101307
H91	H	1.855715	-0.319337	0.101068
H92	H	1.752028	-0.448929	-0.101147
H93	H	1.720283	-0.434522	0.101226
H94	H	1.625199	-0.503371	-0.000121
H95	H	1.224167	-0.523576	-0.000122
H96	H	1.227542	-0.391030	-0.000094
H97	H	1.522028	0.234957	0.354116
H98	H	1.342057	0.316106	0.645762
