data_functionalizedCrystal
_audit_creation_method	'MofGen! by Chris Wilmer'
_symmetry_space_group_name_H-M	'P1'
_symmetry_Int_Tables_number	1
_symmetry_cell_setting	triclinic
loop_
_symmetry_equiv_pos_as_xyz
  x,y,z
_cell_length_a	10.967926
_cell_length_b	10.967829
_cell_length_c	7.540329
_cell_angle_alpha	77.868523
_cell_angle_beta	102.126281
_cell_angle_gamma	87.248880
loop_
_atom_site_label
_atom_site_type_symbol
_atom_site_fract_x
_atom_site_fract_y
_atom_site_fract_z
O1	O	1.657161	0.175018	0.305511
O2	O	1.294015	0.191774	0.189398
O3	O	1.483963	0.001818	0.305515
O4	O	1.467213	0.364974	0.189394
O5	O	1.483952	0.001815	0.600478
O6	O	1.294003	0.191771	0.484361
O7	O	1.657150	0.175016	0.600473
Cu8	Cu	1.475576	0.183393	0.569349
Cu9	Cu	1.475589	0.183396	0.220522
O10	O	1.467202	0.364972	0.484356
C11	C	1.247510	0.190554	0.323040
C12	C	1.108958	0.186907	0.281808
C13	C	1.047181	0.185280	0.416225
C14	C	0.903980	0.181510	0.373612
C15	C	1.482738	-0.044683	0.466833
C16	C	1.479089	-0.183239	0.508058
C17	C	1.477468	-0.245004	0.373636
C18	C	1.473697	-0.388209	0.416240
C19	C	1.703655	0.176236	0.466827
C20	C	1.842207	0.179883	0.508048
C21	C	1.468427	0.411473	0.323035
C22	C	1.472076	0.550029	0.281799
N23	N	1.475575	0.183391	0.814699
N24	N	1.475599	0.183389	-0.024821
H25	H	0.850859	0.180110	0.226978
C26	C	0.869412	0.288028	0.757350
C27	C	0.913903	0.181768	0.706008
H28	H	0.913672	0.289184	0.879564
H29	H	0.881808	0.361219	0.672664
H30	H	0.782584	0.285730	0.754671
H31	H	1.000730	0.184070	0.708674
H32	H	0.901518	0.108557	0.790717
C33	C	0.909271	0.181659	0.079960
C34	C	1.037252	0.185025	0.083859
H35	H	0.865007	0.180506	-0.042253
H36	H	0.896894	0.108456	0.164641
H37	H	0.879114	0.253747	0.114820
H38	H	1.067411	0.112932	0.049012
H39	H	1.049637	0.258236	-0.000850
C40	C	1.482783	-0.045306	0.171817
C41	C	1.479398	-0.173286	0.175702
H42	H	1.483992	-0.001037	0.049623
H43	H	1.410691	-0.015137	0.206624
H44	H	1.555978	-0.032951	0.256552
H45	H	1.406199	-0.185642	0.090977
H46	H	1.551497	-0.203465	0.140872
C47	C	1.479407	-0.170468	0.822148
C48	C	1.477189	-0.254960	0.706003
H49	H	1.478226	-0.214745	0.944350
H50	H	1.553385	-0.128584	0.825368
H51	H	1.408098	-0.110786	0.775507
H52	H	1.548504	-0.314637	0.752637
H53	H	1.403203	-0.296865	0.702790
C54	C	1.468416	-0.587907	0.618080
C55	C	1.471789	-0.459926	0.614191
H56	H	1.467242	-0.632180	0.740286
H57	H	1.395223	-0.600272	0.533384
H58	H	1.540510	-0.618066	0.583235
H59	H	1.399691	-0.429764	0.649023
H60	H	1.544990	-0.447553	0.698915
C61	C	1.366004	-0.396629	-0.040924
C62	C	1.473931	-0.378304	0.083800
H63	H	1.367137	-0.352393	-0.163166
H64	H	1.363741	-0.483459	-0.038168
H65	H	1.293939	-0.366443	-0.006038
H66	H	1.545997	-0.408499	0.048921
H67	H	1.476206	-0.291456	0.081038
C68	C	1.246867	0.190542	0.618067
C69	C	1.118886	0.187170	0.614170
H70	H	1.291128	0.191717	0.740273
H71	H	1.277028	0.118460	0.583230
H72	H	1.259238	0.263751	0.533360
H73	H	1.106514	0.113956	0.698868
H74	H	1.088715	0.259260	0.649031
