data_functionalizedCrystal
_audit_creation_method	'MofGen! by Chris Wilmer'
_symmetry_space_group_name_H-M	'P1'
_symmetry_Int_Tables_number	1
_symmetry_cell_setting	triclinic
loop_
_symmetry_equiv_pos_as_xyz
  x,y,z
_cell_length_a	12.594516
_cell_length_b	12.594517
_cell_length_c	19.077271
_cell_angle_alpha	92.305069
_cell_angle_beta	87.707717
_cell_angle_gamma	89.990306
loop_
_atom_site_label
_atom_site_type_symbol
_atom_site_fract_x
_atom_site_fract_y
_atom_site_fract_z
Zn1	Zn	-0.448267	-1.602950	0.397734
Zn2	Zn	0.051733	-1.102950	0.897734
Zn3	Zn	-0.619064	-1.610036	0.280050
Zn4	Zn	-0.119064	-1.110036	0.780050
Zn5	Zn	-0.441082	-1.432147	0.280079
Zn6	Zn	0.058918	-0.932147	0.780079
Zn7	Zn	-0.626184	-1.424936	0.397734
Zn8	Zn	-0.126184	-0.924936	0.897734
O9	O	-0.533649	-1.517518	0.338899
O10	O	-0.033649	-1.017518	0.838899
O11	O	-0.470951	-1.752837	0.382111
O12	O	0.029049	-1.252837	0.882111
O13	O	-0.589469	-1.592422	0.181564
O14	O	-0.089469	-1.092422	0.681564
O15	O	-0.293090	-1.454857	0.295698
O16	O	0.206910	-0.954857	0.795698
O17	O	-0.596435	-1.758043	0.295649
O18	O	-0.096435	-1.258043	0.795649
O19	O	-0.298369	-1.580345	0.382139
O20	O	0.201631	-1.080345	0.882139
O21	O	-0.458706	-1.461728	0.181585
O22	O	0.041294	-0.961728	0.681585
O23	O	-0.465609	-1.282244	0.295698
O24	O	0.034391	-0.782244	0.795698
O25	O	-0.608569	-1.442567	0.496224
O26	O	-0.108569	-0.942567	0.996224
O27	O	-0.601602	-1.276947	0.382139
O28	O	-0.101602	-0.776947	0.882139
O29	O	-0.477854	-1.573353	0.496224
O30	O	0.022146	-1.073353	0.996224
O31	O	-0.768954	-1.585430	0.295649
O32	O	-0.268954	-1.085430	0.795649
O33	O	-0.774184	-1.449438	0.382111
O34	O	-0.274184	-0.949438	0.882111
C35	C	-0.533600	-1.240975	0.338922
C36	C	-0.033600	-0.740975	0.838922
C37	C	-0.533605	-1.122668	0.338948
C38	C	-0.033605	-0.622668	0.838948
C39	C	-0.607703	-1.050570	0.385876
C40	C	-0.107703	-0.550570	0.885876
C41	C	-0.511715	-0.978703	0.403187
C42	C	-0.011715	-0.478703	0.903187
C43	C	-0.629664	-0.983736	0.321631
C44	C	-0.129664	-0.483736	0.821631
C45	C	-0.437568	-1.052358	0.356293
C46	C	0.062432	-0.552358	0.856293
C47	C	-0.555580	-1.057399	0.274707
C48	C	-0.055580	-0.557399	0.774707
C49	C	-0.459524	-0.985566	0.291994
C50	C	0.040476	-0.485566	0.791994
C51	C	-0.810190	-1.517448	0.338892
C52	C	-0.310190	-1.017448	0.838892
C53	C	-0.928497	-1.517515	0.338913
C54	C	-0.428497	-1.017515	0.838913
C55	C	-1.000631	-1.443544	0.385907
C56	C	-0.500631	-0.943544	0.885907
C57	C	-1.067558	-1.421536	0.321688
C58	C	-0.567558	-0.921536	0.821688
C59	C	-1.072369	-1.539618	0.403143
C60	C	-0.572369	-1.039618	0.903143
C61	C	-0.993863	-1.495458	0.274661
C62	C	-0.493863	-0.995458	0.774661
C63	C	-0.998671	-1.613582	0.356158
C64	C	-0.498671	-1.113582	0.856158
C65	C	-1.065563	-1.591615	0.291895
C66	C	-0.565563	-1.091615	0.791895
C67	C	-0.256030	-1.517615	0.338922
C68	C	0.243970	-1.017615	0.838922
C69	C	-0.137725	-1.517657	0.338931
C70	C	0.362275	-1.017657	0.838931
C71	C	-0.544807	-1.506365	0.522476
C72	C	-0.044807	-1.006365	1.022476
C73	C	-0.549562	-1.501613	0.600705
C74	C	-0.049562	-1.001613	1.100705
C75	C	-0.533691	-0.795139	0.338888
C76	C	-0.033691	-0.295139	0.838888
C77	C	-0.533685	-0.913443	0.338911
C78	C	-0.033685	-0.413443	0.838911
C79	C	-0.483742	-1.567470	0.637459
C80	C	0.016258	-1.067470	1.137459
C81	C	-0.488206	-1.562992	0.710964
C82	C	0.011794	-1.062992	1.210964
C83	C	-0.558495	-1.492661	0.747714
C84	C	-0.058495	-0.992661	1.247714
C85	C	-0.624317	-1.426797	0.710955
C86	C	-0.124317	-0.926797	1.210955
C87	C	-0.619847	-1.431270	0.637451
C88	C	-0.119847	-0.931270	1.137451
C89	C	-0.579155	-1.471975	0.967545
C90	C	-0.079155	-0.971975	1.467545
C91	C	-0.583622	-1.467508	1.041054
C92	C	-0.083622	-0.967508	1.541054
C93	C	-0.447509	-1.603702	1.041058
C94	C	0.052491	-1.103702	1.541058
C95	C	-0.443050	-1.608174	0.967553
C96	C	0.056950	-1.108174	1.467553
C97	C	-0.508868	-1.542306	0.930800
C98	C	-0.008868	-1.042306	1.430800
N99	N	-0.563061	-1.488084	0.822847
N100	N	-0.063061	-0.988084	1.322847
N101	N	-0.504295	-1.546878	0.855668
N102	N	-0.004295	-1.046878	1.355668
C103	C	-0.522558	-1.528617	1.156037
C104	C	-0.022558	-1.028617	1.656037
C105	C	-0.517802	-1.533365	1.077807
C106	C	-0.017802	-1.033365	1.577807
H107	H	-0.710866	-0.953552	0.307001
H108	H	-0.210866	-0.453552	0.807001
C109	C	-0.692203	-1.089264	0.439545
C110	C	-0.192203	-0.589264	0.939545
H111	H	-0.676437	-1.062218	0.485156
H112	H	-0.176437	-0.562218	0.985156
H113	H	-0.760267	-1.064730	0.427706
H114	H	-0.260267	-0.564730	0.927706
H115	H	-0.692015	-1.164727	0.438894
H116	H	-0.192015	-0.664727	0.938894
H117	H	-0.493155	-0.944266	0.457498
H118	H	0.006845	-0.444266	0.957498
C119	C	-0.327847	-1.092937	0.376152
C120	C	0.172153	-0.592937	0.876152
H121	H	-0.328500	-1.168371	0.376070
H122	H	0.171500	-0.668371	0.876070
H123	H	-0.275212	-1.070176	0.343016
H124	H	0.224788	-0.570176	0.843016
H125	H	-0.312153	-1.065310	0.421636
H126	H	0.187847	-0.565310	0.921636
C127	C	-0.957710	-1.723215	0.375880
C128	C	-0.457710	-1.223215	0.875880
H129	H	-0.913928	-1.752750	0.338327
H130	H	-0.413928	-1.252750	0.838327
H131	H	-0.917620	-1.715566	0.416907
H132	H	-0.417620	-1.215566	0.916907
H133	H	-1.016320	-1.768972	0.384566
H134	H	-0.516320	-1.268972	0.884566
C135	C	-0.961971	-1.358904	0.439513
C136	C	-0.461971	-0.858904	0.939513
H137	H	-0.985528	-1.290736	0.427148
H138	H	-0.485528	-0.790736	0.927148
H139	H	-0.989982	-1.373885	0.485018
H140	H	-0.489982	-0.873885	0.985018
H141	H	-0.886543	-1.359863	0.439430
H142	H	-0.386543	-0.859863	0.939430
C143	C	-0.651557	-1.399532	0.927124
C144	C	-0.151557	-0.899532	1.427124
H145	H	-0.638826	-1.412256	0.878084
H146	H	-0.138826	-0.912256	1.378084
H147	H	-0.723806	-1.414352	0.939164
H148	H	-0.223806	-0.914352	1.439164
H149	H	-0.636693	-1.327287	0.939177
H150	H	-0.136693	-0.827287	1.439177
C151	C	-0.580687	-1.103961	0.201360
C152	C	-0.080687	-0.603961	0.701360
H153	H	-0.522733	-1.146539	0.183420
H154	H	-0.022733	-0.646539	0.683420
H155	H	-0.642931	-1.146345	0.204655
H156	H	-0.142931	-0.646345	0.704655
H157	H	-0.591874	-1.047717	0.170748
H158	H	-0.091874	-0.547717	0.670748
H159	H	-0.385816	-1.665448	0.937636
H160	H	0.114184	-1.165448	1.437636
H161	H	-0.640862	-1.410233	1.070974
H162	H	-0.140862	-0.910233	1.570974
H163	H	-0.426508	-1.624745	0.607542
H164	H	0.073492	-1.124745	1.107542
C165	C	-0.374836	-0.947132	0.238362
C166	C	0.125164	-0.447132	0.738362
H167	H	-0.408146	-0.907732	0.203906
H168	H	0.091854	-0.407732	0.703906
H169	H	-0.324996	-0.903212	0.261786
H170	H	0.175004	-0.403212	0.761786
H171	H	-0.339129	-1.006749	0.216299
H172	H	0.160871	-0.506749	0.716299
H173	H	-0.393922	-1.657327	1.070989
H174	H	0.106078	-1.157327	1.570989
H175	H	-1.097875	-1.340360	0.307117
H176	H	-0.597875	-0.840360	0.807117
C177	C	-1.118778	-1.564803	0.476509
C178	C	-0.618778	-1.064803	0.976509
H179	H	-1.096601	-1.512129	0.509831
H180	H	-0.596601	-1.012129	1.009831
H181	H	-1.194157	-1.565318	0.475889
H182	H	-0.694157	-1.065318	0.975889
H183	H	-1.094183	-1.632493	0.489075
H184	H	-0.594183	-1.132493	0.989075
H185	H	-0.959636	-1.476726	0.220335
H186	H	-0.459636	-0.976726	0.720335
C187	C	-1.103951	-1.676202	0.238162
C188	C	-0.603951	-1.176202	0.738162
H189	H	-1.076843	-1.660375	0.192583
H190	H	-0.576843	-1.160375	0.692583
H191	H	-1.079293	-1.744212	0.250016
H192	H	-0.579293	-1.244212	0.750016
H193	H	-1.179410	-1.676186	0.238726
H194	H	-0.679410	-1.176186	0.738726
H195	H	-0.681544	-1.369528	0.740883
H196	H	-0.181544	-0.869528	1.240883
C197	C	-0.415809	-1.635440	0.751389
C198	C	0.084191	-1.135440	1.251389
H199	H	-0.373319	-1.677977	0.718975
H200	H	0.126681	-1.177977	1.218975
H201	H	-0.371164	-1.593002	0.780069
H202	H	0.128836	-1.093002	1.280069
H203	H	-0.458287	-1.680057	0.780057
H204	H	0.041713	-1.180057	1.280057
C205	C	-0.692275	-1.358854	0.597023
C206	C	-0.192275	-0.858854	1.097023
H207	H	-0.734791	-1.316340	0.629436
H208	H	-0.234791	-0.816340	1.129436
H209	H	-0.649828	-1.314231	0.568346
H210	H	-0.149828	-0.814231	1.068346
H211	H	-0.736911	-1.401326	0.568352
H212	H	-0.236911	-0.901326	1.068352
