data_functionalizedCrystal
_audit_creation_method	'MofGen! by Chris Wilmer'
_symmetry_space_group_name_H-M	'P1'
_symmetry_Int_Tables_number	1
_symmetry_cell_setting	triclinic
loop_
_symmetry_equiv_pos_as_xyz
  x,y,z
_cell_length_a	29.839133
_cell_length_b	19.077115
_cell_length_c	19.076919
_cell_angle_alpha	89.923103
_cell_angle_beta	87.721777
_cell_angle_gamma	87.726222
loop_
_atom_site_label
_atom_site_type_symbol
_atom_site_fract_x
_atom_site_fract_y
_atom_site_fract_z
Zn1	Zn	-0.217340	1.058238	0.440444
Zn2	Zn	0.282660	1.558238	0.940444
Zn3	Zn	-0.289574	1.062867	0.322949
Zn4	Zn	0.210426	1.562867	0.822949
Zn5	Zn	-0.211322	0.945456	0.318237
Zn6	Zn	0.288678	1.445456	0.818237
Zn7	Zn	-0.289303	0.940689	0.435703
Zn8	Zn	0.210697	1.440689	0.935703
O9	O	-0.251885	1.001812	0.379333
O10	O	0.248115	1.501812	0.879333
O11	O	-0.229554	1.157183	0.428814
O12	O	0.270446	1.657183	0.928814
O13	O	-0.276788	1.051225	0.223993
O14	O	0.223212	1.551225	0.723993
O15	O	-0.149255	0.960475	0.334460
O16	O	0.350745	1.460475	0.834460
O17	O	-0.282624	1.160584	0.342491
O18	O	0.217376	1.660584	0.842491
O19	O	-0.153676	1.043335	0.424244
O20	O	0.346324	1.543335	0.924244
O21	O	-0.219297	0.964964	0.220531
O22	O	0.280703	1.464964	0.720531
O23	O	-0.219034	0.846493	0.329864
O24	O	0.280966	1.346493	0.829864
O25	O	-0.282162	0.952349	0.534664
O26	O	0.217838	1.452349	1.034664
O27	O	-0.276326	0.842990	0.416165
O28	O	0.223674	1.342990	0.916165
O29	O	-0.229291	1.038712	0.538147
O30	O	0.270709	1.538712	1.038147
O31	O	-0.352403	1.046602	0.337895
O32	O	0.147597	1.546602	0.837895
O33	O	-0.352204	0.956838	0.420735
O34	O	0.147796	1.456838	0.920735
C35	C	-0.246998	0.819245	0.371989
C36	C	0.253002	1.319245	0.871989
C37	C	-0.244919	0.741141	0.368864
C38	C	0.255081	1.241141	0.868864
C39	C	-0.229987	0.301693	0.346456
C40	C	0.270013	0.801693	0.846456
C41	C	-0.231943	0.375079	0.349396
C42	C	0.268057	0.875079	0.849396
C43	C	-0.262796	0.409968	0.395726
C44	C	0.237204	0.909968	0.895726
C45	C	-0.291691	0.371466	0.439124
C46	C	0.208309	0.871466	0.939124
C47	C	-0.289732	0.298080	0.436187
C48	C	0.210268	0.798080	0.936187
C49	C	-0.271855	0.629254	0.409324
C50	C	0.228145	1.129254	0.909324
C51	C	-0.273813	0.702644	0.412257
C52	C	0.226187	1.202644	0.912257
C53	C	-0.214064	0.706253	0.322530
C54	C	0.285936	1.206253	0.822530
C55	C	-0.212110	0.632866	0.319594
C56	C	0.287890	1.132866	0.819594
C57	C	-0.241004	0.594370	0.362994
C58	C	0.258996	1.094370	0.862994
N59	N	-0.264797	0.484981	0.398731
N60	N	0.235203	0.984981	0.898731
N61	N	-0.239000	0.519358	0.359992
N62	N	0.261000	1.019358	0.859992
C63	C	-0.368605	1.001723	0.379328
C64	C	0.131395	1.501723	0.879328
C65	C	-0.418540	1.001749	0.379352
C66	C	0.081460	1.501749	0.879352
C67	C	-0.777398	1.044981	0.426137
C68	C	-0.277398	1.544981	0.926137
C69	C	-0.589723	1.044915	0.426133
C70	C	-0.089723	1.544915	0.926133
O71	O	-0.567386	1.081582	0.465898
O72	O	-0.067386	1.581582	0.965898
N73	N	-0.563987	1.001804	0.379352
N74	N	-0.063987	1.501804	0.879352
C75	C	-0.585172	0.958710	0.332565
C76	C	-0.085172	1.458710	0.832565
O77	O	-0.558976	0.922046	0.292770
O78	O	-0.058976	1.422046	0.792770
C79	C	-0.772846	0.958781	0.332566
C80	C	-0.272846	1.458781	0.832566
C81	C	-0.798580	1.001889	0.379355
C82	C	-0.298580	1.501889	0.879355
C83	C	-0.803132	1.088087	0.472922
C84	C	-0.303132	1.588087	0.972922
C85	C	-0.850048	1.088100	0.472925
C86	C	-0.350048	1.588100	0.972925
C87	C	-0.871230	1.045008	0.426143
C88	C	-0.371230	1.545008	0.926143
C89	C	-0.845496	1.001903	0.379358
C90	C	-0.345496	1.501903	0.879358
C91	C	-0.794031	0.915691	0.285776
C92	C	-0.294031	1.415691	0.785776
C93	C	-0.840952	0.915714	0.285779
C94	C	-0.340952	1.415714	0.785779
C95	C	-0.866686	0.958822	0.332569
C96	C	-0.366686	1.458822	0.832569
C97	C	-0.913594	0.958824	0.332579
C98	C	-0.413594	1.458824	0.832579
N99	N	-0.939330	1.001935	0.379361
N100	N	-0.439330	1.501935	0.879361
C101	C	-0.918148	1.045027	0.426142
C102	C	-0.418148	1.545027	0.926142
C103	C	-0.486641	0.958675	0.332569
C104	C	0.013359	1.458675	0.832569
C105	C	-0.439722	0.958656	0.332570
C106	C	0.060278	1.458656	0.832570
C107	C	-0.444277	1.044862	0.426137
C108	C	0.055723	1.544862	0.926137
C109	C	-0.491196	1.044877	0.426139
C110	C	0.008804	1.544877	0.926139
C111	C	-0.512377	1.001786	0.379350
C112	C	-0.012377	1.501786	0.879350
C113	C	-1.016675	1.045051	0.426145
C114	C	-0.516675	1.545051	0.926145
C115	C	-1.063594	1.045059	0.426146
C116	C	-0.563594	1.545059	0.926146
C117	C	-1.059036	0.958856	0.332577
C118	C	-0.559036	1.458856	0.832577
C119	C	-1.012120	0.958845	0.332578
C120	C	-0.512120	1.458845	0.832578
C121	C	-0.990941	1.001949	0.379365
C122	C	-0.490941	1.501949	0.879365
O123	O	-0.935961	0.922182	0.292830
O124	O	-0.435961	1.422182	0.792830
O125	O	-0.944352	1.081697	0.465921
O126	O	-0.444352	1.581697	0.965921
C127	C	-0.730482	1.044968	0.426134
C128	C	-0.230482	1.544968	0.926134
C129	C	-0.704748	1.001863	0.379349
C130	C	-0.204748	1.501863	0.879349
C131	C	-0.725930	0.958770	0.332567
C132	C	-0.225930	1.458770	0.832567
C133	C	-0.657830	1.001844	0.379350
C134	C	-0.157830	1.501844	0.879350
C135	C	-0.636648	1.044936	0.426131
C136	C	-0.136648	1.544936	0.926131
C137	C	-0.662384	1.088047	0.472913
C138	C	-0.162384	1.588047	0.972913
C139	C	-0.709300	1.088060	0.472916
C140	C	-0.209300	1.588060	0.972916
C141	C	-0.700194	0.915660	0.285786
C142	C	-0.200194	1.415660	0.785786
C143	C	-0.653279	0.915649	0.285787
C144	C	-0.153279	1.415649	0.785787
C145	C	-0.632096	0.958741	0.332569
C146	C	-0.132096	1.458741	0.832569
C147	C	-0.134710	1.001920	0.379355
C148	C	0.365290	1.501920	0.879355
C149	C	-0.084777	1.001966	0.379365
C150	C	0.415223	1.501966	0.879365
C151	C	-0.256368	0.994482	0.562615
C152	C	0.243632	1.494482	1.062615
C153	C	-0.258278	0.991359	0.640718
C154	C	0.241722	1.491359	1.140718
C155	C	-0.256790	1.185093	0.386707
C156	C	0.243210	1.685093	0.886707
C157	C	-0.258881	1.263196	0.389849
C158	C	0.241119	1.763196	0.889849
C159	C	-0.247387	1.009154	0.196767
C160	C	0.252613	1.509154	0.696767
C161	C	-0.245354	1.012414	0.118669
C162	C	0.254646	1.512414	0.618669
C163	C	-0.231650	1.034853	0.679225
C164	C	0.268350	1.534853	1.179225
C165	C	-0.233443	1.031910	0.752612
C166	C	0.266557	1.531910	1.252612
C167	C	-0.261867	0.985475	0.787489
C168	C	0.238133	1.485475	1.287489
C169	C	-0.288496	0.941975	0.748976
C170	C	0.211504	1.441975	1.248976
C171	C	-0.286701	0.944916	0.675591
C172	C	0.213299	1.444916	1.175591
C173	C	-0.270187	0.971855	1.006772
C174	C	0.229813	1.471855	1.506772
C175	C	-0.271982	0.968920	1.080162
C176	C	0.228018	1.468920	1.580162
C177	C	-0.216928	1.058854	1.083792
C178	C	0.283072	1.558854	1.583792
C179	C	-0.215137	1.061793	1.010406
C180	C	0.284863	1.561793	1.510406
C181	C	-0.241764	1.018291	0.971899
C182	C	0.258236	1.518291	1.471899
N183	N	-0.263702	0.982466	0.862502
N184	N	0.236298	1.482466	1.362502
N185	N	-0.239927	1.021296	0.896888
N186	N	0.260073	1.521296	1.396888
H187	H	-0.190540	0.737604	0.287197
H188	H	0.309460	1.237604	0.787197
H189	H	-0.295384	0.597919	0.444661
H190	H	0.204616	1.097919	0.944661
H191	H	-0.316810	0.399878	0.476850
H192	H	0.183190	0.899878	0.976850
H193	H	-0.308379	0.909491	0.644239
H194	H	0.191621	1.409491	1.144239
H195	H	-0.298937	0.731048	0.449988
H196	H	0.201063	1.231048	0.949988
C197	C	-0.384400	0.952727	0.237651
C198	C	0.115600	1.452727	0.737651
C199	C	-0.411437	0.911264	0.281145
C200	C	0.088563	1.411264	0.781145
H201	H	-0.366937	0.923468	0.205904
H202	H	0.133063	1.423468	0.705904
H203	H	-0.402852	0.984441	0.212035
H204	H	0.097148	1.484441	0.712035
H205	H	-0.365068	0.978382	0.265518
H206	H	0.134932	1.478382	0.765518
H207	H	-0.430772	0.885613	0.253278
H208	H	0.069228	1.385613	0.753278
H209	H	-0.392984	0.879538	0.306763
H210	H	0.107016	1.379538	0.806763
C211	C	-0.348987	0.301880	0.525173
C212	C	0.151013	0.801880	1.025173
C213	C	-0.321492	0.255762	0.483887
C214	C	0.178508	0.755762	0.983887
H215	H	-0.368594	0.275753	0.554622
H216	H	0.131406	0.775753	1.054622
H217	H	-0.330863	0.329448	0.553244
H218	H	0.169137	0.829448	1.053244
H219	H	-0.366155	0.331708	0.495651
H220	H	0.133845	0.831708	0.995651
H221	H	-0.304321	0.225936	0.513410
H222	H	0.195679	0.725936	1.013410
H223	H	-0.339618	0.228182	0.455814
H224	H	0.160382	0.728182	0.955814
C225	C	-1.063376	1.130270	0.518635
C226	C	-0.563376	1.630270	1.018635
C227	C	-1.091881	1.092448	0.477579
C228	C	-0.591881	1.592448	0.977579
H229	H	-1.080839	1.159528	0.550383
H230	H	-0.580839	1.659528	1.050383
H231	H	-1.044927	1.098551	0.544251
H232	H	-0.544927	1.598551	1.044251
H233	H	-1.045036	1.158391	0.489114
H234	H	-0.545036	1.658391	0.989114
H235	H	-1.110218	1.064324	0.507099
H236	H	-0.610218	1.564324	1.007099
H237	H	-1.110337	1.124171	0.451961
H238	H	-0.610337	1.624171	0.951961
H239	H	-0.717436	0.880569	0.247689
H240	H	-0.217436	1.380569	0.747689
H241	H	-0.999436	1.080151	0.464243
H242	H	-0.499436	1.580151	0.964243
C243	C	-0.177409	1.123447	0.690192
C244	C	0.322591	1.623447	1.190192
C245	C	-0.200404	1.085895	0.640892
C246	C	0.299596	1.585895	1.140892
H247	H	-0.158116	1.154954	0.666526
H248	H	0.341884	1.654954	1.166526
H249	H	-0.198401	1.149160	0.719892
H250	H	0.301599	1.649160	1.219892
H251	H	-0.160108	1.091691	0.717586
H252	H	0.339892	1.591691	1.217586
H253	H	-0.217708	1.117651	0.613501
H254	H	0.282292	1.617651	1.113501
H255	H	-0.179409	1.060181	0.611180
H256	H	0.320591	1.560181	1.111180
H257	H	-0.191992	1.099607	0.982014
H258	H	0.308008	1.599607	1.482014
C259	C	-0.849822	1.173324	0.565392
C260	C	-0.349822	1.673324	1.065392
C261	C	-0.878330	1.135502	0.524343
C262	C	-0.378330	1.635502	1.024343
H263	H	-0.867281	1.202597	0.597130
H264	H	-0.367281	1.702597	1.097130
H265	H	-0.831379	1.141606	0.591017
H266	H	-0.331379	1.641606	1.091017
H267	H	-0.831476	1.201430	0.535865
H268	H	-0.331476	1.701430	1.035865
H269	H	-0.896674	1.107392	0.553869
H270	H	-0.396674	1.607392	1.053869
H271	H	-0.896781	1.167225	0.498715
H272	H	-0.396781	1.667225	0.998715
C273	C	-0.752938	1.093969	0.567848
C274	C	-0.252938	1.593969	1.067848
C275	C	-0.779853	1.135455	0.524353
C276	C	-0.279853	1.635455	1.024353
H277	H	-0.738567	1.123213	0.599601
H278	H	-0.238567	1.623213	1.099601
H279	H	-0.771094	1.062265	0.593457
H280	H	-0.271094	1.562265	1.093457
H281	H	-0.730893	1.068301	0.539982
H282	H	-0.230893	1.568301	1.039982
H283	H	-0.801900	1.161119	0.552218
H284	H	-0.301900	1.661119	1.052218
H285	H	-0.761695	1.167171	0.498742
H286	H	-0.261695	1.667171	0.998742
C287	C	-0.490974	1.130076	0.518631
C288	C	0.009026	1.630076	1.018631
C289	C	-0.519480	1.092263	0.477570
C290	C	-0.019480	1.592263	0.977570
H291	H	-0.508435	1.159333	0.550381
H292	H	-0.008435	1.659333	1.050381
H293	H	-0.472527	1.098352	0.544244
H294	H	0.027473	1.598352	1.044244
H295	H	-0.472632	1.158197	0.489114
H296	H	0.027368	1.658197	0.989114
H297	H	-0.537820	1.064138	0.507088
H298	H	-0.037820	1.564138	1.007088
H299	H	-0.537935	1.123991	0.451956
H300	H	-0.037935	1.623991	0.951956
C301	C	-0.374372	1.083111	0.467669
C302	C	0.125628	1.583111	0.967669
C303	C	-0.420987	1.092235	0.477557
C304	C	0.079013	1.592235	0.977557
H305	H	-0.359994	1.112362	0.499406
H306	H	0.140006	1.612362	0.999406
H307	H	-0.365699	1.035483	0.476020
H308	H	0.134301	1.535483	0.976020
H309	H	-0.365810	1.095313	0.420874
H310	H	0.134190	1.595313	0.920874
H311	H	-0.429550	1.080028	0.524350
H312	H	0.070450	1.580028	1.024350
H313	H	-0.429664	1.139874	0.469210
H314	H	0.070336	1.639874	0.969210
C315	C	-0.653501	0.830448	0.193290
C316	C	-0.153501	1.330448	0.693290
C317	C	-0.624995	0.868261	0.234350
C318	C	-0.124995	1.368261	0.734350
H319	H	-0.636040	0.801201	0.161530
H320	H	-0.136040	1.301201	0.661530
H321	H	-0.671837	0.802323	0.222802
H322	H	-0.171837	1.302323	0.722802
H323	H	-0.671955	0.862177	0.167681
H324	H	-0.171955	1.362177	0.667681
H325	H	-0.606544	0.836532	0.259963
H326	H	-0.106544	1.336532	0.759963
H327	H	-0.606652	0.896388	0.204835
H328	H	-0.106652	1.396388	0.704835
C329	C	-0.153243	0.643807	0.231205
C330	C	0.346757	1.143807	0.731205
C331	C	-0.178193	0.594518	0.268671
C332	C	0.321807	1.094518	0.768671
H333	H	-0.132303	0.620131	0.199770
H334	H	0.367697	1.120131	0.699770
H335	H	-0.172893	0.673484	0.205419
H336	H	0.327107	1.173484	0.705419
H337	H	-0.137606	0.671225	0.263021
H338	H	0.362394	1.171225	0.763021
H339	H	-0.193833	0.567104	0.236855
H340	H	0.306167	1.067104	0.736855
H341	H	-0.158541	0.564829	0.294459
H342	H	0.341459	1.064829	0.794459
H343	H	-0.211761	1.067329	0.783961
H344	H	0.288239	1.567329	1.283961
C345	C	-0.299175	0.924476	1.191046
C346	C	0.200825	1.424476	1.691046
C347	C	-0.303222	0.917866	1.118502
C348	C	0.196778	1.417866	1.618502
H349	H	-0.318462	0.892961	1.214714
H350	H	0.181538	1.392961	1.714714
H351	H	-0.269011	0.913748	1.202657
H352	H	0.230989	1.413748	1.702657
H353	H	-0.307314	0.971201	1.204965
H354	H	0.192686	1.471201	1.704965
H355	H	-0.295080	0.871142	1.104581
H356	H	0.204920	1.371142	1.604581
H357	H	-0.333392	0.928590	1.106885
H358	H	0.166608	1.428590	1.606885
H359	H	-0.195249	1.094270	1.115152
H360	H	0.304751	1.594270	1.615152
C361	C	-0.536676	0.864565	0.318923
C362	C	-0.036676	1.364565	0.818923
C363	C	-0.509918	0.911296	0.281142
C364	C	-0.009918	1.411296	0.781142
H365	H	-0.551046	0.835315	0.287175
H366	H	-0.051046	1.335315	0.787175
H367	H	-0.518412	0.836443	0.348434
H368	H	-0.018412	1.336443	0.848434
H369	H	-0.558721	0.890248	0.346774
H370	H	-0.058721	1.390248	0.846774
H371	H	-0.487871	0.885612	0.253295
H372	H	0.012129	1.385612	0.753295
H373	H	-0.528183	0.939421	0.251618
H374	H	-0.028183	1.439421	0.751618
C375	C	-0.171122	0.312638	0.258067
C376	C	0.328878	0.812638	0.758067
C377	C	-0.196072	0.263347	0.295529
C378	C	0.303928	0.763347	0.795529
H379	H	-0.150182	0.288965	0.226631
H380	H	0.349818	0.788965	0.726631
H381	H	-0.190773	0.342316	0.232281
H382	H	0.309227	0.842316	0.732281
H383	H	-0.155486	0.340056	0.289884
H384	H	0.344514	0.840056	0.789884
H385	H	-0.211710	0.235933	0.263713
H386	H	0.288290	0.735933	0.763713
H387	H	-0.176419	0.233657	0.321316
H388	H	0.323581	0.733657	0.821316
C389	C	-0.794262	0.830508	0.193272
C390	C	-0.294262	1.330508	0.693272
C391	C	-0.765752	0.868314	0.234335
C392	C	-0.265752	1.368314	0.734335
H393	H	-0.776804	0.801263	0.161508
H394	H	-0.276804	1.301263	0.661508
H395	H	-0.812598	0.802382	0.222783
H396	H	-0.312598	1.302382	0.722783
H397	H	-0.812715	0.862243	0.167669
H398	H	-0.312715	1.362243	0.667669
H399	H	-0.747301	0.836579	0.259942
H400	H	-0.247301	1.336579	0.759942
H401	H	-0.747409	0.896442	0.204821
H402	H	-0.247409	1.396442	0.704821
H403	H	-0.645130	1.123131	0.511007
H404	H	-0.145130	1.623131	1.011007
H405	H	-0.291876	0.936443	0.975429
H406	H	0.208124	1.436443	1.475429
H407	H	-0.858195	0.880624	0.247677
H408	H	-0.358195	1.380624	0.747677
H409	H	-0.208417	0.406421	0.314058
H410	H	0.291583	0.906421	0.814058
H411	H	-0.311638	0.904164	0.777379
H412	H	0.188362	1.404164	1.277379
H413	H	-0.991167	0.923735	0.294485
H414	H	-0.491167	1.423735	0.794485
H415	H	-1.076291	0.923770	0.294490
H416	H	-0.576291	1.423770	0.794490
H417	H	-0.730249	1.123163	0.511017
H418	H	-0.230249	1.623163	1.011017
