data_functionalizedCrystal
_audit_creation_method	'MofGen! by Chris Wilmer'
_symmetry_space_group_name_H-M	'P1'
_symmetry_Int_Tables_number	1
_symmetry_cell_setting	triclinic
loop_
_symmetry_equiv_pos_as_xyz
  x,y,z
_cell_length_a	13.635800
_cell_length_b	17.253917
_cell_length_c	11.102300
_cell_angle_alpha	82.486930
_cell_angle_beta	71.394150
_cell_angle_gamma	102.659311
loop_
_atom_site_label
_atom_site_type_symbol
_atom_site_fract_x
_atom_site_fract_y
_atom_site_fract_z
V1	V	-2.044083	-0.111294	0.408319
O2	O	-2.035843	0.005348	0.388134
O3	O	-2.020989	-0.220677	0.417464
O4	O	-2.032653	-0.109582	0.580954
O5	O	-2.024098	-0.106516	0.223512
V6	V	-2.284098	-0.097342	0.384764
O7	O	-2.178541	-0.141898	0.459988
O8	O	-2.374739	-0.066738	0.333095
O9	O	-2.195589	0.012041	0.375619
O10	O	-2.351036	-0.213984	0.404949
O11	O	-2.362781	-0.102120	0.569571
O12	O	-2.183925	-0.099054	0.212129
V13	V	-1.544083	-0.111294	0.408319
O14	O	-1.535843	0.005348	0.388134
O15	O	-1.520989	-0.220677	0.417464
O16	O	-1.532653	-0.109582	0.580954
O17	O	-1.524098	-0.106516	0.223512
V18	V	-1.784098	-0.097342	0.384764
O19	O	-1.678541	-0.141898	0.459988
O20	O	-1.874739	-0.066738	0.333095
O21	O	-1.695589	0.012041	0.375619
O22	O	-1.851036	-0.213984	0.404949
O23	O	-1.862781	-0.102120	0.569571
O24	O	-1.683925	-0.099054	0.212129
C25	C	-1.943345	-0.247343	0.414103
C26	C	-1.965192	-0.336765	0.422731
C27	C	-1.946576	-0.367288	0.309155
C28	C	-1.967114	-0.451311	0.317266
C29	C	-2.006260	-0.504808	0.438955
C30	C	-2.024880	-0.474280	0.552540
C31	C	-2.004350	-0.390259	0.544427
C32	C	-2.070766	-0.757327	0.475830
C33	C	-2.091292	-0.841353	0.483934
C34	C	-2.033526	-0.818378	0.248659
C35	C	-2.012992	-0.734356	0.240557
C36	C	-2.031619	-0.703835	0.354143
N37	N	-2.027251	-0.590693	0.447248
N38	N	-2.010636	-0.617952	0.345848
C39	C	-1.958223	-0.105628	0.622649
C40	C	-1.989527	-0.104952	0.763858
C41	C	-2.104903	0.038702	0.378977
C42	C	-2.072676	0.128124	0.370357
C43	C	-2.090025	-0.103010	0.170427
C44	C	-2.048340	-0.103682	0.029217
C45	C	-1.443345	-0.247343	0.414103
C46	C	-1.465192	-0.336765	0.422731
C47	C	-1.458223	-0.105628	0.622649
C48	C	-1.489527	-0.104952	0.763858
C49	C	-2.095817	-0.108652	0.837108
C50	C	-2.125224	-0.108014	0.969787
C51	C	-1.942040	-0.099980	0.955956
C52	C	-1.912633	-0.100612	0.823277
C53	C	-1.604903	0.038702	0.378977
C54	C	-1.572676	0.128124	0.370357
C55	C	-1.590025	-0.103010	0.170427
C56	C	-1.548340	-0.103682	0.029217
C57	C	-1.567038	-0.382860	0.433577
C58	C	-1.587585	-0.466884	0.441704
C59	C	-1.506281	-0.504811	0.438975
C60	C	-1.404427	-0.458710	0.428132
C61	C	-1.383885	-0.374688	0.420014
C62	C	-1.643324	0.174219	0.359515
C63	C	-1.613050	0.258242	0.351394
C64	C	-1.512131	0.296169	0.354126
C65	C	-1.441477	0.250068	0.364966
C66	C	-1.471748	0.166047	0.373077
C67	C	-1.595817	-0.108652	0.837108
C68	C	-1.625224	-0.108014	0.969787
C69	C	-1.442040	-0.099980	0.955956
C70	C	-1.412633	-0.100612	0.823277
H71	H	-1.914692	-0.323735	0.210062
H72	H	-1.379441	-0.096448	1.004352
H73	H	-1.359306	0.280961	0.367187
H74	H	-1.711773	-0.111026	1.029422
H75	H	-1.658431	-0.112185	0.788733
Br76	Br	-1.268369	-0.095585	0.723855
H77	H	-2.018365	-0.843237	0.156185
Br78	Br	-1.375853	0.103500	0.387793
Br79	Br	-2.269479	-0.113033	1.069193
H80	H	-1.300948	-0.337162	0.411176
Br81	Br	-1.959859	-0.661757	0.075402
Br82	Br	-1.708951	0.320789	0.336684
Br83	Br	-1.941862	-0.492732	0.163121
Br84	Br	-1.294096	-0.510194	0.424425
Br85	Br	-2.096039	-0.715916	0.629982
Br86	Br	-2.144505	-0.913962	0.649099
H87	H	-1.487495	0.364585	0.347520
Br88	Br	-1.725819	-0.529432	0.456415
Br89	Br	-1.780293	0.122766	0.355807
Br90	Br	-1.837695	-0.094099	1.036608
H91	H	-1.523023	-0.573227	0.445586
H92	H	-2.056762	-0.517845	0.651622
Br93	Br	-1.768369	-0.095585	0.723855
H94	H	-2.158431	-0.112185	0.788733
Br95	Br	-2.029627	-0.348835	0.698574
H96	H	-1.633251	-0.351991	0.435793
