data_functionalizedCrystal
_audit_creation_method	'MofGen! by Chris Wilmer'
_symmetry_space_group_name_H-M	'P1'
_symmetry_Int_Tables_number	1
_symmetry_cell_setting	triclinic
loop_
_symmetry_equiv_pos_as_xyz
  x,y,z
_cell_length_a	14.519709
_cell_length_b	15.944545
_cell_length_c	12.996460
_cell_angle_alpha	89.991753
_cell_angle_beta	90.000034
_cell_angle_gamma	83.588159
loop_
_atom_site_label
_atom_site_type_symbol
_atom_site_fract_x
_atom_site_fract_y
_atom_site_fract_z
O1	O	1.223673	0.110109	-0.085438
O2	O	1.557007	0.443443	0.247896
O3	O	1.890340	0.776776	0.581229
O4	O	0.955174	0.123076	-0.085470
O5	O	1.288507	0.456409	0.247863
O6	O	1.621840	0.789743	0.581197
O7	O	1.096759	-0.005672	-0.085441
O8	O	1.430092	0.327662	0.247893
O9	O	1.763425	0.660995	0.581226
O10	O	1.082088	0.238857	-0.085467
O11	O	1.415422	0.572191	0.247866
O12	O	1.748755	0.905524	0.581200
O13	O	1.096744	-0.005679	0.085693
O14	O	1.430077	0.327654	0.419026
O15	O	1.763411	0.660988	0.752360
O16	O	0.955159	0.123069	0.085664
O17	O	1.288492	0.456402	0.418997
O18	O	1.621825	0.789736	0.752331
O19	O	1.223659	0.110102	0.085696
O20	O	1.556992	0.443436	0.419029
O21	O	1.890325	0.776769	0.752363
Cu22	Cu	1.089407	0.116585	0.101306
Cu23	Cu	1.422741	0.449918	0.434639
Cu24	Cu	1.756074	0.783252	0.767972
Cu25	Cu	1.089425	0.116593	-0.101080
Cu26	Cu	1.422758	0.449927	0.232254
Cu27	Cu	1.756091	0.783260	0.565587
O28	O	1.082074	0.238850	0.085667
O29	O	1.415407	0.572183	0.419000
O30	O	1.748740	0.905517	0.752333
C31	C	0.920807	0.122468	0.000093
C32	C	1.254141	0.455802	0.333426
C33	C	1.587474	0.789135	0.666760
C34	C	0.818429	0.120657	0.000081
C35	C	1.151763	0.453991	0.333415
C36	C	1.485096	0.787324	0.666748
C37	C	1.096143	-0.036970	0.000127
C38	C	1.429477	0.296363	0.333460
C39	C	1.762810	0.629696	0.666794
C40	C	1.094320	-0.130219	0.000130
C41	C	1.427654	0.203114	0.333463
C42	C	1.760987	0.536447	0.666796
C43	C	0.443545	0.113991	0.000129
C44	C	0.776879	0.447324	0.333462
C45	C	1.110212	0.780657	0.666795
C46	C	0.547850	0.115842	0.000115
C47	C	0.881183	0.449175	0.333449
C48	C	1.214517	0.782509	0.666782
C49	C	0.630984	0.117324	0.000104
C50	C	0.964317	0.450657	0.333437
C51	C	1.297651	0.783991	0.666771
C52	C	0.735295	0.119176	0.000092
C53	C	1.068629	0.452509	0.333426
C54	C	1.401962	0.785842	0.666759
C55	C	1.001113	-0.400987	0.000098
C56	C	1.334446	-0.067654	0.333431
C57	C	1.667780	0.265679	0.666764
C58	C	1.046057	-0.350333	-0.084275
C59	C	1.379391	-0.017000	0.249058
C60	C	1.712724	0.316334	0.582391
C61	C	1.087820	-0.465873	0.000100
C62	C	1.421153	-0.132539	0.333433
C63	C	1.754487	0.200794	0.666766
C64	C	1.046066	-0.350367	0.084449
C65	C	1.379399	-0.017034	0.417783
C66	C	1.712733	0.316299	0.751116
C67	C	1.091009	-0.300954	0.000116
C68	C	1.424342	0.032379	0.333450
C69	C	1.757676	0.365712	0.666783
C70	C	1.132741	-0.416447	-0.084343
C71	C	1.466075	-0.083113	0.248990
C72	C	1.799408	0.250220	0.582324
C73	C	1.132737	-0.416484	0.084457
C74	C	1.466071	-0.083151	0.417791
C75	C	1.799404	0.250182	0.751124
C76	C	1.177746	-0.365863	0.000064
C77	C	1.511079	-0.032529	0.333397
C78	C	1.844412	0.300804	0.666730
C79	C	1.085980	-0.560877	0.000089
C80	C	1.419314	-0.227544	0.333423
C81	C	1.752647	0.105789	0.666756
C82	C	1.092856	-0.205952	0.000119
C83	C	1.426189	0.127381	0.333452
C84	C	1.759522	0.460714	0.666786
C85	C	1.258025	0.110710	0.000131
C86	C	1.591358	0.444044	0.333464
C87	C	1.924691	0.777377	0.666797
C88	C	1.360403	0.112521	0.000136
C89	C	1.693736	0.445854	0.333469
C90	C	2.027069	0.779188	0.666802
C91	C	1.082689	0.270149	0.000097
C92	C	1.416022	0.603482	0.333430
C93	C	1.749356	0.936815	0.666763
C94	C	1.084512	0.363398	0.000087
C95	C	1.417845	0.696731	0.333421
C96	C	1.751178	1.030064	0.666754
N97	N	1.089402	0.116578	0.243653
N98	N	1.422735	0.449912	0.576986
N99	N	1.756069	0.783245	0.910320
N100	N	1.089438	0.116593	-0.243427
N101	N	1.422771	0.449927	0.089907
N102	N	1.756104	0.783260	0.423240
C103	C	1.089424	0.116594	0.663467
C104	C	1.422757	0.449928	0.996801
C105	C	1.756090	0.783261	1.330134
C106	C	1.089415	0.116593	0.546662
C107	C	1.422748	0.449926	0.879995
C108	C	1.756081	0.783259	1.213329
C109	C	1.089413	0.116587	0.453564
C110	C	1.422746	0.449920	0.786897
C111	C	1.756080	0.783254	1.120230
C112	C	1.089404	0.116584	0.336751
C113	C	1.422737	0.449918	0.670085
C114	C	1.756070	0.783251	1.003418
H115	H	0.926439	-0.416748	0.000006
H116	H	1.259773	-0.083415	0.333340
H117	H	1.593106	0.249919	0.666673
F118	F	1.275423	-0.345468	0.000015
F119	F	1.608756	-0.012135	0.333348
F120	F	1.942089	0.321198	0.666681
F121	F	1.180578	-0.454022	-0.177682
F122	F	1.513911	-0.120688	0.155652
F123	F	1.847244	0.212645	0.488985
F124	F	0.998205	-0.312581	-0.177524
F125	F	1.331538	0.020752	0.155809
F126	F	1.664872	0.354086	0.489142
H127	H	1.169318	-0.445384	0.155800
H128	H	1.502651	-0.112050	0.489134
H129	H	1.835984	0.221283	0.822467
H130	H	1.009426	-0.321509	0.155778
H131	H	1.342760	0.011824	0.489111
H132	H	1.676093	0.345158	0.822445
