data_functionalizedCrystal
_audit_creation_method	'MofGen! by Chris Wilmer'
_symmetry_space_group_name_H-M	'P1'
_symmetry_Int_Tables_number	1
_symmetry_cell_setting	triclinic
loop_
_symmetry_equiv_pos_as_xyz
  x,y,z
_cell_length_a	12.996460
_cell_length_b	17.699083
_cell_length_c	17.699083
_cell_angle_alpha	96.716985
_cell_angle_beta	89.998816
_cell_angle_gamma	90.000172
loop_
_atom_site_label
_atom_site_type_symbol
_atom_site_fract_x
_atom_site_fract_y
_atom_site_fract_z
O1	O	-0.085425	-1.004078	0.095706
O2	O	-0.085459	-0.783700	0.108158
O3	O	-0.085432	-0.900115	-0.008257
O4	O	-0.085452	-0.887663	0.212121
O5	O	0.085702	-0.900100	-0.008250
O6	O	0.085675	-0.783685	0.108165
O7	O	0.085709	-1.004063	0.095713
Cu8	Cu	0.101318	-0.893873	0.101940
Cu9	Cu	-0.101067	-0.893890	0.101932
O10	O	0.085682	-0.887648	0.212128
C11	C	0.000104	-0.755495	0.107716
C12	C	0.000091	-0.671477	0.106377
N13	N	0.243665	-0.893866	0.101945
N14	N	-0.243415	-0.893903	0.101920
C15	C	0.336771	-0.893869	0.101947
C16	C	0.453576	-0.893876	0.101942
C17	C	0.546675	-0.893886	0.101933
C18	C	0.663487	-0.893894	0.101929
C19	C	0.000135	-0.899662	-0.036451
C20	C	0.000136	-0.898323	-0.120469
C21	C	0.000144	-1.032268	0.096156
C22	C	0.000150	-1.116286	0.097494
C23	C	0.000085	-0.622856	0.174710
C24	C	0.000099	-0.543913	0.173448
C25	C	0.000111	-0.513592	0.103852
C26	C	0.000120	-0.562219	0.035513
C27	C	0.000114	-0.641161	0.036776
C28	C	0.000146	-0.243856	0.030418
C29	C	0.000149	-0.164908	0.029160
C30	C	0.000131	-0.146608	0.167090
C31	C	0.000125	-0.225550	0.168353
C32	C	0.000139	-0.274170	0.100015
C33	C	0.000127	-0.359769	0.101384
C34	C	0.000116	-0.427995	0.102481
C35	C	0.000148	-0.966656	-0.169090
C36	C	0.000138	-0.965394	-0.248033
C37	C	0.000124	-0.895798	-0.278354
C38	C	0.000109	-0.827459	-0.229727
C39	C	0.000111	-0.828722	-0.150785
C40	C	0.000100	-0.822364	-0.548090
C41	C	0.000101	-0.821106	-0.627038
C42	C	0.000127	-0.959036	-0.645338
C43	C	0.000129	-0.960299	-0.566396
C44	C	0.000109	-0.891961	-0.517776
C45	C	0.000117	-0.893330	-0.432177
C46	C	0.000124	-0.894427	-0.363951
C47	C	0.000113	-0.888102	0.240322
C48	C	0.000106	-0.889440	0.324340
H49	H	0.000075	-0.647537	0.231384
H50	H	0.000144	-0.537526	-0.021154
H51	H	0.000158	-0.283434	-0.025228
H52	H	0.000101	-0.773078	-0.111198
H53	H	0.000118	-0.680748	-0.018868
H54	H	0.000093	-0.504328	0.229092
H55	H	0.000092	-0.764429	-0.651721
H56	H	0.000150	-1.021038	-0.287618
H57	H	0.000110	-0.250232	0.225025
H58	H	0.000146	-1.016971	-0.541714
H59	H	0.000139	-1.014680	-0.684934
H60	H	0.000084	-0.766718	-0.508512
H61	H	0.000165	-1.023330	-0.144409
H62	H	0.000125	-0.107012	0.222734
H63	H	0.000091	-0.770792	-0.254420
H64	H	0.000160	-0.140225	-0.027517
