data_functionalizedCrystal
_audit_creation_method	'MofGen! by Chris Wilmer'
_symmetry_space_group_name_H-M	'P1'
_symmetry_Int_Tables_number	1
_symmetry_cell_setting	triclinic
loop_
_symmetry_equiv_pos_as_xyz
  x,y,z
_cell_length_a	12.759401
_cell_length_b	18.050588
_cell_length_c	12.759393
_cell_angle_alpha	90.033567
_cell_angle_beta	90.018567
_cell_angle_gamma	90.028605
loop_
_atom_site_label
_atom_site_type_symbol
_atom_site_fract_x
_atom_site_fract_y
_atom_site_fract_z
Zn1	Zn	1.606147	-0.295635	0.593969
Zn2	Zn	1.605996	-0.419845	0.418283
Zn3	Zn	1.430449	-0.295671	0.418308
Zn4	Zn	1.430392	-0.419785	0.593924
O5	O	1.518246	-0.357734	0.506121
O6	O	1.753148	-0.312121	0.570672
O7	O	1.582670	-0.403413	0.271265
O8	O	1.453843	-0.191742	0.441639
O9	O	1.753037	-0.403378	0.441596
O10	O	1.582927	-0.191715	0.570696
O11	O	1.453696	-0.312183	0.271283
O12	O	1.283420	-0.312125	0.441596
O13	O	1.453746	-0.403276	0.740951
O14	O	1.283378	-0.403312	0.570620
O15	O	1.582872	-0.312063	0.740984
O16	O	1.582614	-0.523762	0.441553
O17	O	1.453599	-0.523718	0.570595
C18	C	1.245278	-0.357717	0.506106
C19	C	1.128502	-0.357727	0.506125
C20	C	1.073691	-0.310299	0.573439
C21	C	0.963967	-0.310313	0.573445
C22	C	0.963875	-0.405189	0.438821
C23	C	1.073597	-0.405171	0.438810
C24	C	1.073743	-0.255525	0.651166
C25	C	0.964019	-0.255540	0.651173
C26	C	1.518113	-0.550686	0.506089
C27	C	1.518152	-0.633232	0.506111
C28	C	1.448104	-0.882061	0.576285
C29	C	1.543904	-0.832589	0.602061
C30	C	1.518370	-0.930352	0.506169
C31	C	1.422467	-0.832742	0.480414
C32	C	1.518258	-0.784367	0.506143
C33	C	1.614222	-0.881968	0.531996
C34	C	1.492720	-0.882125	0.410303
C35	C	1.588587	-0.832676	0.436043
C36	C	1.518433	-1.014450	0.506187
C37	C	1.518205	-0.700271	0.506125
C38	C	1.792279	-0.357752	0.506136
C39	C	1.909056	-0.357760	0.506143
C40	C	1.518319	-0.357659	0.780154
C41	C	1.518351	-0.357627	0.896931
C42	C	1.518408	-0.164028	0.506175
C43	C	1.518477	-0.081483	0.506199
C44	C	1.518233	-0.357755	0.233153
C45	C	1.518405	-0.357578	0.116377
C46	C	1.585596	-0.310128	0.951812
C47	C	1.585621	-0.310101	1.061536
C48	C	1.451152	-0.405079	1.061489
C49	C	1.451123	-0.405101	0.951767
C50	C	1.663234	-0.255296	0.951840
C51	C	1.663259	-0.255269	1.061564
H52	H	0.919157	-0.443817	0.384016
C53	C	1.664493	-0.760482	0.704523
C54	C	1.573145	-0.803216	0.711486
H55	H	1.682542	-0.742356	0.772080
H56	H	1.652833	-0.719953	0.658535
H57	H	1.720059	-0.790160	0.678244
H58	H	1.517577	-0.773536	0.737757
H59	H	1.584798	-0.843750	0.757490
H60	H	1.634165	-0.200621	1.095615
H61	H	1.695302	-0.903503	0.553863
H62	H	1.103531	-0.197984	0.629515
C63	C	1.038022	-0.301747	0.823921
C64	C	1.119731	-0.283413	0.755433
H65	H	1.066417	-0.318961	0.888291
H66	H	0.996103	-0.339543	0.793423
H67	H	0.996144	-0.259167	0.836510
H68	H	1.161604	-0.325995	0.742838
H69	H	1.161668	-0.245614	0.785938
H70	H	0.929997	-0.200879	0.622176
H71	H	1.388803	-0.903742	0.635636
C72	C	1.769080	-0.828561	0.383193
C73	C	1.668826	-0.803578	0.355986
H74	H	1.818617	-0.810591	0.333775
H75	H	1.769951	-0.881177	0.383172
H76	H	1.786670	-0.810846	0.451080
H77	H	1.651233	-0.821298	0.288101
H78	H	1.667953	-0.750951	0.355995
C79	C	1.616074	-0.130549	0.997042
C80	C	1.633864	-0.177659	0.911664
H81	H	1.597935	-0.082623	0.972236
H82	H	1.677828	-0.127416	1.038398
H83	H	1.560379	-0.149653	1.038384
H84	H	1.689565	-0.158558	0.870325
H85	H	1.572103	-0.180790	0.870290
C86	C	1.362997	-0.886728	0.274105
C87	C	1.463450	-0.911529	0.300910
H88	H	1.344918	-0.904886	0.206573
H89	H	1.362116	-0.834114	0.273452
H90	H	1.313827	-0.904375	0.324106
H91	H	1.512621	-0.893876	0.250912
H92	H	1.464339	-0.964153	0.301555
C93	C	1.812371	-0.227390	0.844131
C94	C	1.767534	-0.283124	0.905874
H95	H	1.876757	-0.244575	0.815748
H96	H	1.824910	-0.184799	0.886057
H97	H	1.765858	-0.215008	0.788702
H98	H	1.814045	-0.295502	0.961308
H99	H	1.755000	-0.325728	0.863946
C100	C	1.239654	-0.828509	0.524537
C101	C	1.313040	-0.803567	0.450993
H102	H	1.172096	-0.810508	0.506370
H103	H	1.258298	-0.810806	0.592138
H104	H	1.238787	-0.881132	0.524965
H105	H	1.313913	-0.750944	0.450570
H106	H	1.294391	-0.821267	0.383375
H107	H	1.396362	-0.443777	0.907087
C108	C	1.391492	-0.447218	1.229665
C109	C	1.377267	-0.457267	1.121768
H110	H	1.345882	-0.479443	1.266875
H111	H	1.376159	-0.397321	1.247659
H112	H	1.462081	-0.458088	1.247637
H113	H	1.306679	-0.446392	1.103795
H114	H	1.392593	-0.507176	1.103766
H115	H	0.934268	-0.271017	0.732508
H116	H	1.744624	-0.270674	1.091342
H117	H	1.118220	-0.443784	0.383987
