data_functionalizedCrystal
_audit_creation_method	'MofGen! by Chris Wilmer'
_symmetry_space_group_name_H-M	'P1'
_symmetry_Int_Tables_number	1
_symmetry_cell_setting	triclinic
loop_
_symmetry_equiv_pos_as_xyz
  x,y,z
_cell_length_a	31.640172
_cell_length_b	23.196402
_cell_length_c	23.196401
_cell_angle_alpha	60.007332
_cell_angle_beta	90.017286
_cell_angle_gamma	60.002544
loop_
_atom_site_label
_atom_site_type_symbol
_atom_site_fract_x
_atom_site_fract_y
_atom_site_fract_z
Zr1	Zr	0.407215	0.630908	-0.075557
O2	O	0.339718	0.751182	-0.167616
O3	O	0.427901	0.510642	-0.047339
O4	O	0.427888	0.630905	-0.167605
O5	O	0.339747	0.630917	0.047521
O6	O	0.497446	0.630893	-0.167592
O7	O	0.339731	0.630919	-0.047350
O8	O	0.497467	0.415765	0.047542
O9	O	0.339726	0.846046	-0.167613
O10	O	0.488640	0.560097	-0.035291
O11	O	0.436743	0.560105	0.035501
O12	O	0.436728	0.701699	-0.106097
O13	O	0.384831	0.701707	-0.035305
Zr14	Zr	0.518177	0.630886	0.075772
Zr15	Zr	0.518151	0.630888	-0.075537
Zr16	Zr	0.407242	0.630905	0.075752
Zr17	Zr	0.407227	0.782205	-0.075551
Zr18	Zr	0.518166	0.479589	0.075767
O19	O	0.497492	0.751151	0.047554
O20	O	0.497454	0.751155	-0.167588
O21	O	0.339756	0.751178	0.047526
O22	O	0.585674	0.510612	0.167832
O23	O	0.585637	0.510615	-0.047310
O24	O	0.427938	0.510639	0.167803
O25	O	0.585645	0.630876	-0.047306
O26	O	0.497504	0.630888	0.167820
O27	O	0.427947	0.630900	0.167807
O28	O	0.585662	0.630875	0.047566
O29	O	0.427904	0.846031	-0.167597
O30	O	0.497488	0.415763	0.167812
O31	O	0.585667	0.415748	0.167828
O32	O	0.585646	0.415750	0.047558
O33	O	0.339747	0.846044	-0.047342
O34	O	0.427925	0.846029	-0.047326
O35	O	0.488665	0.560095	0.106312
O36	O	0.540562	0.560087	0.035520
O37	O	0.488650	0.701689	-0.035286
O38	O	0.436753	0.701697	0.035506
C39	C	0.462682	0.441647	0.000101
C40	C	0.462678	0.377417	0.000098
C41	C	0.501007	0.294981	0.052366
C42	C	0.501010	0.234621	0.052372
C43	C	0.462689	0.256702	0.000100
C44	C	0.424353	0.339152	-0.052172
C45	C	0.424347	0.399509	-0.052173
C46	C	0.450746	0.201117	-0.063694
C47	C	0.450755	0.140758	-0.063693
C48	C	0.462702	0.070540	0.000103
C49	C	0.474652	0.060678	0.063903
C50	C	0.474647	0.121036	0.063902
C51	C	0.462690	0.191259	0.000096
C52	C	0.501038	-0.077350	0.052382
C53	C	0.501038	-0.137709	0.052389
C54	C	0.424382	-0.033176	-0.052161
C55	C	0.424380	0.027181	-0.052162
C56	C	0.462710	0.005089	0.000109
C57	C	0.323933	0.630921	0.000082
C58	C	0.276838	0.630929	0.000074
C59	C	0.011929	0.556974	0.037082
C60	C	-0.165056	0.556960	0.037096
O61	O	-0.164896	0.494098	0.068554
N62	N	-0.214283	0.630874	0.000135
C63	C	-0.219263	0.704797	-0.036828
O64	O	-0.265194	0.767666	-0.068259
C65	C	-0.042278	0.704811	-0.036837
C66	C	0.006948	0.630892	0.000120
C67	C	0.061154	0.483061	0.074037
C68	C	0.105397	0.483066	0.074030
C69	C	0.100416	0.556983	0.037068
C70	C	0.051192	0.630896	0.000113
C71	C	-0.047259	0.778733	-0.073796
C72	C	-0.003007	0.778730	-0.073794
C73	C	0.046219	0.704811	-0.036836
C74	C	0.090454	0.704818	-0.036856
N75	N	0.139681	0.630903	0.000105
C76	C	0.144662	0.556986	0.037067
C77	C	-0.312180	0.704785	-0.036822
C78	C	-0.356426	0.704782	-0.036820
C79	C	-0.302216	0.556945	0.037105
C80	C	-0.257970	0.556949	0.037099
C81	C	-0.262953	0.630871	0.000139
C82	C	0.237574	0.557001	0.037049
C83	C	0.281819	0.557011	0.037036
C84	C	0.227605	0.704848	-0.036886
C85	C	0.183364	0.704838	-0.036876
C86	C	0.188352	0.630908	0.000096
O87	O	0.090334	0.767647	-0.068292
O88	O	0.190598	0.494127	0.068506
C89	C	-0.032314	0.556970	0.037089
C90	C	-0.081538	0.630883	0.000134
C91	C	-0.086519	0.704800	-0.036828
C92	C	-0.125784	0.630880	0.000135
C93	C	-0.120803	0.556963	0.037097
C94	C	-0.071576	0.483048	0.074058
C95	C	-0.027333	0.483053	0.074051
C96	C	-0.135746	0.778715	-0.073789
C97	C	-0.179987	0.778704	-0.073779
C98	C	-0.175007	0.704787	-0.036818
C99	C	0.601460	0.630873	0.000133
C100	C	0.648555	0.630865	0.000141
C101	C	0.462663	0.630900	-0.189157
C102	C	0.462652	0.630901	-0.253391
C103	C	0.462710	0.820147	0.000115
C104	C	0.462715	0.884376	0.000117
C105	C	0.435557	0.704813	-0.320524
C106	C	0.435570	0.704814	-0.380879
C107	C	0.462671	0.630899	-0.374098
C108	C	0.489772	0.556976	-0.306953
C109	C	0.489762	0.556977	-0.246600
C110	C	0.458818	0.574273	-0.441418
C111	C	0.458824	0.574275	-0.501771
C112	C	0.462704	0.630892	-0.560245
C113	C	0.466568	0.687521	-0.558365
C114	C	0.466558	0.687522	-0.498012
C115	C	0.462685	0.630889	-0.439536
C116	C	0.435622	0.704811	-0.692825
C117	C	0.435639	0.704809	-0.753180
C118	C	0.489837	0.556969	-0.679251
C119	C	0.489824	0.556973	-0.618898
C120	C	0.462713	0.630897	-0.625690
C121	C	0.462730	0.630894	0.189372
C122	C	0.462741	0.630893	0.253607
C123	C	0.601446	0.441623	0.000126
C124	C	0.648536	0.377385	0.000132
C125	C	0.462716	0.441644	0.189365
C126	C	0.462722	0.377413	0.253597
C127	C	0.601479	0.441620	0.189390
C128	C	0.648580	0.377381	0.253631
C129	C	0.323914	0.820173	-0.189175
C130	C	0.276812	0.884412	-0.253416
C131	C	0.323947	0.820170	0.000090
C132	C	0.276857	0.884408	0.000083
C133	C	0.462677	0.820150	-0.189150
C134	C	0.462671	0.884380	-0.253382
C135	C	0.643547	0.347224	-0.036834
C136	C	0.687789	0.286874	-0.036842
C137	C	0.737020	0.256683	0.000120
C138	C	0.742007	0.286850	0.037087
C139	C	0.697766	0.347203	0.037091
C140	C	0.489828	0.347245	0.320730
C141	C	0.489832	0.286902	0.381089
C142	C	0.462733	0.256724	0.374313
C143	C	0.435624	0.286899	0.307173
C144	C	0.435617	0.347245	0.246816
C145	C	0.697794	0.347210	0.246846
C146	C	0.742055	0.286859	0.307202
C147	C	0.737102	0.256677	0.374341
C148	C	0.687883	0.286854	0.381124
C149	C	0.643623	0.347208	0.320769
C150	C	0.227599	0.914591	-0.246631
C151	C	0.183337	0.974960	-0.306986
C152	C	0.188291	1.005146	-0.374125
C153	C	0.237510	0.974965	-0.380909
C154	C	0.281770	0.914601	-0.320554
C155	C	0.281846	0.914576	0.037043
C156	C	0.237603	0.974943	0.037035
C157	C	0.188373	1.005136	0.000070
C158	C	0.183386	0.974966	-0.036894
C159	C	0.227627	0.914604	-0.036889
C160	C	0.489775	0.914539	-0.246583
C161	C	0.489779	0.974882	-0.306931
C162	C	0.462675	1.005070	-0.374076
C163	C	0.435570	0.974906	-0.380873
C164	C	0.435570	0.914559	-0.320526
H165	H	0.532246	-0.095339	0.094948
H166	H	0.441027	0.148793	-0.115642
H167	H	0.701838	0.371776	0.192184
H168	H	0.462680	1.054209	-0.423208
H169	H	0.241643	0.496799	0.067156
H170	H	0.603552	0.371766	0.326303
H171	H	0.511885	0.496786	-0.564234
H172	H	0.413496	0.890011	-0.326071
H173	H	0.143281	0.765029	-0.066979
H174	H	0.462743	0.207587	0.423466
H175	H	0.413561	0.262319	0.301667
H176	H	0.223555	0.890017	-0.191968
H177	H	0.143266	0.999523	-0.301449
H178	H	0.152248	1.054298	-0.423264
H179	H	0.455675	0.528168	-0.503297
H180	H	0.393150	0.357126	-0.094731
H181	H	0.223558	0.890043	-0.066984
H182	H	0.241538	0.999550	-0.435580
H183	H	0.413546	0.371800	0.192155
H184	H	0.484375	0.113004	0.115850
H185	H	0.413503	0.999495	-0.435550
H186	H	0.511895	0.371809	0.326261
H187	H	0.532218	0.276986	0.094930
H188	H	0.321927	0.889997	0.067149
H189	H	0.321841	0.890030	-0.326087
H190	H	-0.139810	0.838908	-0.103890
H191	H	0.413577	0.765000	-0.807844
H192	H	-0.220069	0.838903	-0.103881
H193	H	0.241675	0.999497	0.067138
H194	H	-0.316246	0.764985	-0.066924
H195	H	-0.087334	0.838926	-0.103890
H196	H	0.152353	1.054286	0.000073
H197	H	0.145476	0.422873	0.104121
H198	H	0.413548	0.765004	-0.698355
H199	H	0.773040	0.207539	0.000112
H200	H	0.782096	0.262260	0.067180
H201	H	0.143296	0.999559	-0.066989
H202	H	0.413505	0.765005	-0.435549
H203	H	0.511846	0.889969	-0.191916
H204	H	0.511850	0.999435	-0.301382
H205	H	0.532249	-0.204835	0.094956
H206	H	0.511909	0.262341	0.435751
H207	H	0.532223	0.167489	0.094937
H208	H	0.413484	0.765007	-0.326061
H209	H	0.393179	-0.015196	-0.094721
H210	H	0.484377	0.003506	0.115852
H211	H	0.701835	0.371753	0.067197
H212	H	0.393171	0.094306	-0.094728
H213	H	0.782128	0.262295	0.301666
H214	H	0.441012	0.258295	-0.115649
H215	H	0.321902	0.496815	0.067133
H216	H	0.393133	0.466636	-0.094735
H217	H	0.683718	0.262319	-0.066945
H218	H	0.065218	0.422866	0.104139
H219	H	-0.217890	0.496757	0.067199
H220	H	-0.396505	0.764975	-0.066924
H221	H	-0.007071	0.838928	-0.103882
H222	H	-0.298167	0.496758	0.067196
H223	H	0.455655	0.528169	-0.393810
H224	H	0.223558	0.765030	-0.066982
H225	H	0.773145	0.207533	0.423480
H226	H	-0.067528	0.422862	0.104149
H227	H	0.469705	0.733630	-0.496484
H228	H	0.012746	0.422860	0.104147
H229	H	0.683857	0.262271	0.435797
H230	H	0.469725	0.733627	-0.605978
H231	H	0.511904	0.496786	-0.673728
H232	H	0.511838	0.496794	-0.301435
H233	H	0.511827	0.496787	-0.191935
H234	H	0.603466	0.371805	-0.066942
