data_functionalizedCrystal
_audit_creation_method	'MofGen! by Chris Wilmer'
_symmetry_space_group_name_H-M	'P1'
_symmetry_Int_Tables_number	1
_symmetry_cell_setting	triclinic
loop_
_symmetry_equiv_pos_as_xyz
  x,y,z
_cell_length_a	6.817900
_cell_length_b	17.982959
_cell_length_c	17.982968
_cell_angle_alpha	95.926238
_cell_angle_beta	102.451960
_cell_angle_gamma	102.451857
loop_
_atom_site_label
_atom_site_type_symbol
_atom_site_fract_x
_atom_site_fract_y
_atom_site_fract_z
V1	V	-4.009936	-0.106127	-0.237869
O2	O	-4.003034	0.004365	-0.233013
O3	O	-3.956505	-0.209726	-0.236557
O4	O	-3.956507	-0.104817	-0.341468
O5	O	-4.003032	-0.101270	-0.127376
V6	V	-4.494867	-0.092873	-0.224615
O7	O	-4.268105	-0.135201	-0.266943
O8	O	-4.686896	-0.063799	-0.195541
O9	O	-4.325092	0.010726	-0.225927
O10	O	-4.619167	-0.203366	-0.229470
O11	O	-4.619168	-0.097730	-0.335108
O12	O	-4.325090	-0.094183	-0.121016
C13	C	-3.800445	-0.234971	-0.232886
C14	C	-3.838012	-0.319667	-0.232503
C15	C	-4.037393	-0.363349	-0.236136
C16	C	-4.072682	-0.442930	-0.235781
C17	C	-3.908585	-0.478826	-0.231789
C18	C	-3.709188	-0.435138	-0.228158
C19	C	-3.673905	-0.355560	-0.228518
C20	C	-3.851479	-0.756070	-0.226707
C21	C	-3.886778	-0.835654	-0.226345
C22	C	-4.250256	-0.843439	-0.233970
C23	C	-4.214973	-0.763861	-0.234330
C24	C	-4.015583	-0.720181	-0.230704
C25	C	-3.977322	-0.633891	-0.231090
C26	C	-3.946841	-0.565114	-0.231397
C27	C	-3.800446	-0.101148	-0.366709
C28	C	-3.838012	-0.100762	-0.451404
C29	C	-4.037396	-0.104399	-0.495087
C30	C	-4.072681	-0.104036	-0.574666
C31	C	-3.908583	-0.100042	-0.610563
C32	C	-3.709182	-0.096403	-0.566874
C33	C	-3.673896	-0.096760	-0.487295
C34	C	-3.851479	-0.094960	-0.887806
C35	C	-3.886782	-0.094605	-0.967391
C36	C	-4.250264	-0.102236	-0.975178
C37	C	-4.214978	-0.102593	-0.895599
C38	C	-4.015580	-0.098950	-0.851916
C39	C	-3.977321	-0.099342	-0.765627
C40	C	-3.946842	-0.099655	-0.696851
C41	C	-4.144494	0.035967	-0.229596
C42	C	-4.086164	0.120662	-0.229983
C43	C	-4.144493	-0.097854	-0.095770
C44	C	-4.086166	-0.098236	-0.011075
H45	H	-3.575582	-0.464372	-0.224912
C46	C	-3.531144	-0.091948	-0.605927
C47	C	-3.506584	-0.025649	-0.640940
C48	C	-3.342613	-0.021528	-0.676931
H49	H	-3.407190	-0.089789	-0.568591
H50	H	-3.560554	-0.136285	-0.643941
H51	H	-3.477162	0.018676	-0.602930
H52	H	-3.630495	-0.027794	-0.678288
H53	H	-3.372023	-0.065864	-0.714946
H54	H	-3.218672	-0.019371	-0.639590
H55	H	-3.325940	0.023452	-0.700698
H56	H	-3.511530	-0.093780	-0.451726
H57	H	-4.235033	-0.106993	-0.610229
C58	C	-4.215399	-0.324311	-0.240310
C59	C	-4.171546	-0.268400	-0.174846
C60	C	-4.335494	-0.232432	-0.178662
H61	H	-4.232539	-0.300456	-0.285217
H62	H	-4.339227	-0.361696	-0.242384
H63	H	-4.047754	-0.231020	-0.172780
H64	H	-4.154427	-0.292234	-0.129929
H65	H	-4.459322	-0.269817	-0.180735
H66	H	-4.352621	-0.208582	-0.223571
H67	H	-4.305771	-0.194497	-0.134243
H68	H	-3.689127	-0.720514	-0.223750
H69	H	-4.348609	-0.105850	-0.866377
H70	H	-3.753141	-0.091351	-0.996615
H71	H	-4.235035	-0.478493	-0.238741
C72	C	-4.392979	-0.724822	-0.238506
C73	C	-4.349128	-0.668910	-0.173044
C74	C	-4.513076	-0.632941	-0.176863
H75	H	-4.410115	-0.700969	-0.283415
H76	H	-4.516807	-0.762208	-0.240580
H77	H	-4.225335	-0.631531	-0.170978
H78	H	-4.332013	-0.692743	-0.128126
H79	H	-4.636905	-0.670326	-0.178937
H80	H	-4.530200	-0.609093	-0.221773
H81	H	-4.483355	-0.595006	-0.132445
H82	H	-4.412613	-0.879014	-0.236924
H83	H	-3.753141	-0.864879	-0.223099
C84	C	-4.215314	-0.108614	-0.455998
C85	C	-4.171416	-0.043169	-0.400060
C86	C	-4.335259	-0.047029	-0.364031
H87	H	-4.339222	-0.110691	-0.493324
H88	H	-4.232302	-0.153547	-0.432163
H89	H	-4.154453	0.001752	-0.423894
H90	H	-4.047537	-0.041080	-0.362719
H91	H	-4.352246	-0.091962	-0.340197
H92	H	-4.459155	-0.049107	-0.401363
H93	H	-4.305488	-0.002630	-0.326069
C94	C	-4.466713	-0.106301	-1.022722
C95	C	-4.531793	-0.172190	-1.079114
C96	C	-4.731156	-0.175959	-1.122932
H97	H	-4.559623	-0.108777	-0.990046
H98	H	-4.464881	-0.061686	-1.046881
H99	H	-4.533640	-0.216794	-1.054956
H100	H	-4.438939	-0.169728	-1.111808
H101	H	-4.729324	-0.131344	-1.147092
H102	H	-4.824048	-0.178433	-1.090250
H103	H	-4.775330	-0.220660	-1.161204
H104	H	-3.511552	-0.319995	-0.225564
H105	H	-3.689136	-0.092020	-0.852254
