data_functionalizedCrystal
_audit_creation_method	'MofGen! by Chris Wilmer'
_symmetry_space_group_name_H-M	'P1'
_symmetry_Int_Tables_number	1
_symmetry_cell_setting	triclinic
loop_
_symmetry_equiv_pos_as_xyz
  x,y,z
_cell_length_a	10.723024
_cell_length_b	19.188930
_cell_length_c	9.798715
_cell_angle_alpha	89.991738
_cell_angle_beta	89.996609
_cell_angle_gamma	83.806325
loop_
_atom_site_label
_atom_site_type_symbol
_atom_site_fract_x
_atom_site_fract_y
_atom_site_fract_z
O1	O	1.655155	0.097922	-0.113499
O2	O	1.291808	0.107295	-0.113506
O3	O	1.483967	0.001021	-0.113476
O4	O	1.462996	0.204196	-0.113529
O5	O	1.483952	0.001021	0.113507
O6	O	1.291793	0.107295	0.113477
O7	O	1.655140	0.097922	0.113483
Zn8	Zn	1.473465	0.102608	0.149518
Zn9	Zn	1.473483	0.102609	-0.149541
O10	O	1.462982	0.204196	0.113453
C11	C	1.245315	0.106613	-0.000015
C12	C	1.106803	0.104572	-0.000016
C13	C	1.483280	-0.024995	0.000019
C14	C	1.481242	-0.102512	0.000031
C15	C	1.030586	0.164037	-0.000033
C16	C	0.887427	0.161930	-0.000034
C17	C	1.593994	-0.146704	0.000040
C18	C	1.592079	-0.219540	0.000018
C19	C	1.477405	-0.248182	0.000015
C20	C	1.364638	-0.203981	-0.000001
C21	C	1.366556	-0.131146	0.000007
N22	N	1.389745	-0.356756	0.077260
N23	N	1.387931	-0.425947	0.077255
C24	C	1.471618	-0.467628	-0.000013
N25	N	1.557208	-0.437506	-0.077259
N26	N	1.559026	-0.368310	-0.077248
C27	C	1.475312	-0.327158	0.000005
C28	C	1.582302	-0.590797	-0.000030
C29	C	1.580382	-0.663634	-0.000061
C30	C	1.352937	-0.648073	-0.000066
C31	C	1.354860	-0.575238	-0.000049
C32	C	1.469546	-0.546604	-0.000025
C33	C	1.701633	0.098604	-0.000011
C34	C	1.840145	0.100645	-0.000019
C35	C	1.463668	0.230211	-0.000045
C36	C	1.465706	0.307729	-0.000066
N37	N	1.473461	0.102608	0.353618
N38	N	1.473497	0.102604	-0.353640
C39	C	1.554147	0.057789	0.421407
C40	C	1.554167	0.057787	0.578570
H41	H	1.071319	0.216508	-0.000039
O42	O	0.809131	0.222599	0.000006
C43	C	0.683625	0.206988	-0.000030
H44	H	0.679051	0.152115	0.042958
H45	H	0.624353	0.246798	0.065854
H46	H	0.645981	0.209429	-0.108928
O47	O	1.636699	0.011980	0.647895
C48	C	1.711676	-0.029703	0.554339
H49	H	1.713152	-0.001130	0.452439
H50	H	1.811326	-0.039983	0.595713
H51	H	1.671181	-0.081703	0.539212
H52	H	0.905627	0.049735	-0.000013
O53	O	1.636398	0.012011	0.351671
C54	C	1.569541	-0.031261	0.269028
H55	H	1.471813	-0.003824	0.247805
H56	H	1.621542	-0.042024	0.168471
H57	H	1.561205	-0.082925	0.323977
H58	H	1.404419	0.140979	0.588072
H59	H	1.683899	-0.255527	0.000019
O60	O	1.058370	0.041928	-0.000184
C61	C	1.099328	0.003731	-0.117749
H62	H	1.189554	0.023120	-0.156945
H63	H	1.117571	-0.054330	-0.091297
H64	H	1.023983	0.011514	-0.200067
H65	H	1.259567	-0.671393	-0.000075
H66	H	1.687380	-0.123395	0.000055
H67	H	1.271269	-0.227305	-0.000007
O68	O	1.391012	0.148287	0.423325
C69	C	1.314093	0.110591	0.505976
H70	H	1.363854	0.056139	0.527243
H71	H	1.294433	0.139602	0.606511
H72	H	1.221795	0.105550	0.451011
H73	H	1.274736	-0.095165	0.000000
O74	O	1.693731	-0.563008	-0.000271
C75	C	1.762455	-0.585537	-0.117818
H76	H	1.695390	-0.601000	-0.199981
H77	H	1.815294	-0.541160	-0.157273
H78	H	1.832253	-0.632666	-0.091252
O79	O	1.245216	-0.532406	0.000021
C80	C	1.143587	-0.573302	-0.000021
H81	H	1.175555	-0.627506	0.042944
H82	H	1.064605	-0.546824	0.065881
H83	H	1.108422	-0.578643	-0.108917
H84	H	1.672202	-0.699615	-0.000061
