data_functionalizedCrystal
_audit_creation_method	'MofGen! by Chris Wilmer'
_symmetry_space_group_name_H-M	'P1'
_symmetry_Int_Tables_number	1
_symmetry_cell_setting	triclinic
loop_
_symmetry_equiv_pos_as_xyz
  x,y,z
_cell_length_a	14.853567
_cell_length_b	16.974813
_cell_length_c	15.455313
_cell_angle_alpha	90.987683
_cell_angle_beta	87.317942
_cell_angle_gamma	96.484965
loop_
_atom_site_label
_atom_site_type_symbol
_atom_site_fract_x
_atom_site_fract_y
_atom_site_fract_z
O1	O	1.200425	-0.099447	-0.079050
O2	O	0.937981	-0.111703	-0.079925
O3	O	1.076078	0.009135	-0.071431
O4	O	1.062327	-0.220285	-0.087544
O5	O	1.068181	0.002253	0.072347
O6	O	0.930083	-0.118584	0.063853
O7	O	1.192528	-0.106329	0.064728
Cu8	Cu	1.060585	-0.113085	0.077419
Cu9	Cu	1.069924	-0.104947	-0.092616
O10	O	1.054430	-0.227166	0.056234
C11	C	0.900443	-0.114588	-0.007999
C12	C	0.800357	-0.112924	-0.007887
N13	N	1.054022	-0.118808	0.197012
C14	C	1.071460	0.035054	0.002518
C15	C	1.069454	0.122539	0.008657
C16	C	0.387730	-0.034110	-0.002333
C17	C	0.366618	-0.177668	-0.012416
C18	C	0.460653	-0.179232	-0.012529
C19	C	0.518232	-0.108234	-0.007545
C20	C	0.481775	-0.035672	-0.002448
C21	C	0.497118	-0.251793	-0.017634
C22	C	0.591160	-0.253361	-0.017748
C23	C	0.648739	-0.182362	-0.012758
C24	C	0.612277	-0.109797	-0.007660
C25	C	0.669855	-0.038799	-0.002675
C26	C	0.633394	0.033767	0.002429
C27	C	0.539355	0.035326	0.002543
C28	C	0.742779	-0.183922	-0.012872
C29	C	0.763900	-0.040361	-0.002791
C30	C	1.230066	-0.103443	-0.007200
C31	C	1.330151	-0.105108	-0.007317
C32	C	1.059048	-0.253086	-0.017717
C33	C	1.061055	-0.340570	-0.023861
C34	C	1.072818	0.167386	-0.066833
C35	C	1.070926	0.249587	-0.061062
C36	C	1.065678	0.286939	0.020198
C37	C	1.062311	0.242086	0.095693
C38	C	1.064195	0.159886	0.089922
C39	C	1.059573	0.532377	0.045863
C40	C	1.057691	0.614583	0.051628
C41	C	1.066305	0.622078	-0.105128
C42	C	1.068195	0.539877	-0.110892
C43	C	1.064823	0.495030	-0.035397
N44	N	1.063747	0.370961	0.026098
N45	N	1.066747	0.411009	-0.041298
N46	N	1.076493	-0.099217	-0.212208
C47	C	1.112712	-0.067491	0.246014
C48	C	1.107757	-0.071827	0.336517
C49	C	1.044117	-0.127484	0.378017
C50	C	0.985422	-0.178803	0.329009
C51	C	0.990372	-0.174463	0.238508
C52	C	1.022748	-0.146196	0.648283
C53	C	1.017804	-0.150534	0.738790
C54	C	1.140139	-0.043556	0.746292
C55	C	1.145087	-0.039224	0.655789
C56	C	1.086389	-0.090541	0.606789
N57	N	1.039054	-0.131919	0.470525
N58	N	1.091449	-0.086102	0.514282
H59	H	0.810775	0.017455	0.001272
Cl60	Cl	1.051097	0.661539	0.153792
Cl61	Cl	0.424733	-0.341040	-0.023914
Cl62	Cl	1.059965	0.103506	0.184827
Cl63	Cl	1.213924	0.020955	0.807895
H64	H	0.942580	-0.216250	0.198611
H65	H	0.772462	-0.243004	-0.017026
H66	H	0.620838	-0.312448	-0.021904
H67	H	1.069049	0.658601	-0.166591
Cl68	Cl	1.225094	0.030744	0.603617
H69	H	1.072471	0.509471	-0.177062
H70	H	0.680287	0.091573	0.006481
H71	H	1.056845	0.495874	0.107336
H72	H	1.077097	0.136981	-0.133004
H73	H	0.509658	0.094405	0.006719
Cl74	Cl	1.055701	0.289042	0.197850
H75	H	1.164538	-0.022173	0.212230
H76	H	0.974955	-0.187982	0.608394
Cl77	Cl	1.181538	-0.007312	0.398120
H78	H	1.073670	0.286098	-0.122534
Cl79	Cl	0.937793	-0.220511	0.790955
Cl80	Cl	0.905411	-0.248770	0.381178
H81	H	0.358038	0.024972	0.001826
H82	H	0.319733	-0.235470	-0.016481
