data_functionalizedCrystal
_audit_creation_method	'MofGen! by Chris Wilmer'
_symmetry_space_group_name_H-M	'P1'
_symmetry_Int_Tables_number	1
_symmetry_cell_setting	triclinic
loop_
_symmetry_equiv_pos_as_xyz
  x,y,z
_cell_length_a	12.759401
_cell_length_b	19.076808
_cell_length_c	12.759393
_cell_angle_alpha	87.665862
_cell_angle_beta	89.979062
_cell_angle_gamma	92.325019
loop_
_atom_site_label
_atom_site_type_symbol
_atom_site_fract_x
_atom_site_fract_y
_atom_site_fract_z
Zn1	Zn	1.589386	-0.280155	-0.577177
Zn2	Zn	1.582184	-0.397876	-0.394420
Zn3	Zn	1.413683	-0.280193	-0.401510
Zn4	Zn	1.406587	-0.397827	-0.570060
O5	O	1.497960	-0.339013	-0.485792
O6	O	1.735451	-0.295776	-0.552945
O7	O	1.559788	-0.382302	-0.248337
O8	O	1.442974	-0.181691	-0.430759
O9	O	1.730160	-0.382265	-0.418675
O10	O	1.572062	-0.181663	-0.559820
O11	O	1.435990	-0.295840	-0.253546
O12	O	1.265721	-0.295792	-0.423858
O13	O	1.430880	-0.382182	-0.718028
O14	O	1.260507	-0.382218	-0.547691
O15	O	1.565182	-0.295729	-0.723257
O16	O	1.552907	-0.496367	-0.411773
O17	O	1.423896	-0.496331	-0.540816
C18	C	1.224993	-0.339004	-0.485772
C19	C	1.108216	-0.339018	-0.485787
C20	C	1.050662	-0.384088	-0.550157
C21	C	0.940938	-0.384091	-0.550178
C22	C	0.946330	-0.293951	-0.421449
C23	C	1.056052	-0.293945	-0.421435
C24	C	1.486879	-0.521888	-0.474776
C25	C	1.482234	-0.600123	-0.470098
C26	C	1.547211	-0.636803	-0.535150
C27	C	1.542843	-0.710312	-0.530757
C28	C	1.473502	-0.747141	-0.461305
C29	C	1.408518	-0.710456	-0.396250
C30	C	1.412881	-0.636947	-0.400650
C31	C	1.453245	-0.966996	-0.440941
C32	C	1.448889	-1.040509	-0.436545
C33	C	1.583213	-1.040361	-0.571053
C34	C	1.587575	-0.966851	-0.575442
C35	C	1.522587	-0.930172	-0.510391
N36	N	1.469038	-0.822280	-0.456811
N37	N	1.527047	-0.855035	-0.514892
C38	C	1.771992	-0.339022	-0.485813
C39	C	1.888769	-0.339026	-0.485822
C40	C	1.498042	-0.338945	-0.759830
C41	C	1.498078	-0.338917	-0.876608
C42	C	1.509113	-0.155424	-0.496874
C43	C	1.513866	-0.077189	-0.501597
C44	C	1.568014	-0.293893	-0.934195
C45	C	1.568034	-0.293863	-1.043921
C46	C	1.428177	-0.383885	-1.038463
C47	C	1.428153	-0.383912	-0.928739
C48	C	1.497941	-0.339030	-0.212824
C49	C	1.498121	-0.338860	-0.096058
H50	H	0.894083	-0.420790	-0.602596
Br51	Br	1.354784	-1.090491	-0.342275
H52	H	1.102914	-0.257239	-0.369017
Br53	Br	1.641330	-0.586828	-0.629403
H54	H	1.636121	-1.070233	-0.624015
H55	H	1.595763	-0.740174	-0.583722
Br56	Br	1.681685	-0.916874	-0.669700
Br57	Br	1.121452	-0.445256	-0.637493
Br58	Br	1.662959	-0.232762	-1.122070
Br59	Br	0.875531	-0.232784	-0.334119
H60	H	1.400331	-0.937138	-0.387972
Br61	Br	1.314397	-0.760436	-0.302007
Br62	Br	1.333288	-0.444949	-1.109219
Br63	Br	1.324690	-0.587166	-0.312365
Br64	Br	1.662909	-0.232828	-0.863448
Br65	Br	1.333223	-0.445013	-0.850579
