data_functionalizedCrystal
_audit_creation_method	'MofGen! by Chris Wilmer'
_symmetry_space_group_name_H-M	'P1'
_symmetry_Int_Tables_number	1
_symmetry_cell_setting	triclinic
loop_
_symmetry_equiv_pos_as_xyz
  x,y,z
_cell_length_a	11.792241
_cell_length_b	10.654550
_cell_length_c	9.130313
_cell_angle_alpha	90.000110
_cell_angle_beta	89.996046
_cell_angle_gamma	84.339159
loop_
_atom_site_label
_atom_site_type_symbol
_atom_site_fract_x
_atom_site_fract_y
_atom_site_fract_z
O1	O	-1.507300	-0.172130	-0.121653
O2	O	-1.177000	-0.189870	-0.121687
O3	O	-1.349744	0.001761	-0.121664
O4	O	-1.334556	-0.363761	-0.121676
O5	O	-1.349742	0.001756	0.121935
O6	O	-1.176998	-0.189875	0.121912
O7	O	-1.507298	-0.172135	0.121946
Cu8	Cu	-1.342148	-0.181006	0.144171
Cu9	Cu	-1.342150	-0.180999	-0.143912
O10	O	-1.334554	-0.363766	0.121923
C11	C	-1.348628	0.048553	0.000134
C12	C	-1.345291	0.187987	0.000128
C13	C	-1.134705	-0.188758	0.000108
C14	C	-1.008684	-0.185423	0.000095
C15	C	-1.549592	-0.173247	0.000147
C16	C	-1.675614	-0.176582	0.000151
C17	C	-0.777958	-0.179290	0.000138
C18	C	-0.906351	-0.182697	0.000114
C19	C	-1.335670	-0.410558	0.000122
C20	C	-1.339006	-0.549992	0.000118
N21	N	-1.342154	-0.181009	0.346794
C22	C	-1.447000	0.267760	0.000143
C23	C	-1.443858	0.398772	0.000133
C24	C	-1.237290	0.370224	0.000099
C25	C	-1.240433	0.239215	0.000099
C26	C	-1.551859	0.216532	0.000173
C27	C	-1.653577	0.296307	0.000189
C28	C	-1.650435	0.427319	0.000179
C29	C	-1.545575	0.478556	0.000152
N30	N	-1.342152	-0.180986	-0.346535
C31	C	-1.418665	-0.096184	0.423456
C32	C	-1.418662	-0.096169	0.576793
C33	C	-1.265633	-0.265815	0.576792
C34	C	-1.265632	-0.265823	0.423458
C35	C	-1.495187	-0.011370	0.346792
C36	C	-1.571705	0.073461	0.423455
C37	C	-1.571702	0.073476	0.576791
C38	C	-1.495181	-0.011340	0.653466
H39	H	-1.554429	0.109857	0.000186
H40	H	-1.738949	0.254580	0.000175
H41	H	-1.633998	0.142557	0.639208
H42	H	-1.634000	0.142523	0.361018
Br43	Br	-1.788476	0.535582	0.000180
Br44	Br	-1.541314	0.656360	0.000206
Br45	Br	-1.094990	0.439761	0.000062
Br46	Br	-1.495169	-0.011300	0.861568
Br47	Br	-1.102397	0.130942	0.000073
H48	H	-1.203328	-0.334895	0.361039
H49	H	-1.495199	-0.011377	0.221938
H50	H	-1.203334	-0.334870	0.639230
