data_functionalizedCrystal
_audit_creation_method	'MofGen! by Chris Wilmer'
_symmetry_space_group_name_H-M	'P1'
_symmetry_Int_Tables_number	1
_symmetry_cell_setting	triclinic
loop_
_symmetry_equiv_pos_as_xyz
  x,y,z
_cell_length_a	13.897448
_cell_length_b	13.897449
_cell_length_c	13.897441
_cell_angle_alpha	90.022859
_cell_angle_beta	89.969401
_cell_angle_gamma	89.982475
loop_
_atom_site_label
_atom_site_type_symbol
_atom_site_fract_x
_atom_site_fract_y
_atom_site_fract_z
Zn1	Zn	-0.383988	-1.474703	-0.545436
Zn2	Zn	-0.050655	-1.141369	-0.212103
Zn3	Zn	0.282678	-0.808036	0.121231
Zn4	Zn	-0.545310	-1.474597	-0.384137
Zn5	Zn	-0.211977	-1.141263	-0.050804
Zn6	Zn	0.121357	-0.807930	0.282529
Zn7	Zn	-0.384030	-1.313392	-0.384148
Zn8	Zn	-0.050697	-0.980058	-0.050815
Zn9	Zn	0.282636	-0.646725	0.282518
Zn10	Zn	-0.545243	-1.313373	-0.545384
Zn11	Zn	-0.211909	-0.980040	-0.212051
Zn12	Zn	0.121424	-0.646707	0.121283
O13	O	-0.464643	-1.394016	-0.464776
O14	O	-0.131310	-1.060683	-0.131443
O15	O	0.202024	-0.727349	0.201890
O16	O	-0.405399	-1.609670	-0.524056
O17	O	-0.072065	-1.276337	-0.190723
O18	O	0.261268	-0.943003	0.142610
O19	O	-0.523962	-1.453176	-0.249157
O20	O	-0.190628	-1.119842	0.084176
O21	O	0.142705	-0.786509	0.417510
O22	O	-0.249043	-1.334842	-0.405570
O23	O	0.084290	-1.001509	-0.072236
O24	O	0.417624	-0.668175	0.261097
O25	O	-0.523921	-1.609592	-0.405551
O26	O	-0.190588	-1.276259	-0.072218
O27	O	0.142746	-0.942926	0.261116
O28	O	-0.249012	-1.453356	-0.524067
O29	O	0.084321	-1.120023	-0.190734
O30	O	0.417654	-0.786690	0.142600
O31	O	-0.405470	-1.334739	-0.249165
O32	O	-0.072137	-1.001406	0.084168
O33	O	0.261197	-0.668073	0.417502
O34	O	-0.405405	-1.178408	-0.405519
O35	O	-0.072071	-0.845074	-0.072186
O36	O	0.261262	-0.511741	0.261147
O37	O	-0.523806	-1.334811	-0.680372
O38	O	-0.190473	-1.001478	-0.347039
O39	O	0.142860	-0.668144	-0.013706
O40	O	-0.523847	-1.178394	-0.523978
O41	O	-0.190513	-0.845061	-0.190645
O42	O	0.142820	-0.511728	0.142688
O43	O	-0.405333	-1.453339	-0.680411
O44	O	-0.072000	-1.120005	-0.347077
O45	O	0.261333	-0.786672	-0.013744
O46	O	-0.680283	-1.453158	-0.405501
O47	O	-0.346949	-1.119825	-0.072167
O48	O	-0.013616	-0.786491	0.261166
O49	O	-0.680233	-1.334708	-0.523968
O50	O	-0.346900	-1.001375	-0.190634
O51	O	-0.013567	-0.668041	0.142699
C52	C	-0.464624	-1.143402	-0.464745
C53	C	-0.131290	-0.810068	-0.131412
C54	C	0.202043	-0.476735	0.201922
C55	C	-0.464639	-1.036188	-0.464755
C56	C	-0.131305	-0.702855	-0.131421
C57	C	0.202028	-0.369521	0.201912
C58	C	-0.464637	-0.839893	-0.464773
C59	C	-0.131304	-0.506559	-0.131439
C60	C	0.202030	-0.173226	0.201894
C61	C	-0.464635	-0.949125	-0.464760
C62	C	-0.131302	-0.615792	-0.131427
C63	C	0.202032	-0.282459	0.201907
C64	C	-0.715257	-1.393946	-0.464748
C65	C	-0.381924	-1.060612	-0.131415
C66	C	-0.048591	-0.727279	0.201918
C67	C	-0.822471	-1.394004	-0.464769
C68	C	-0.489138	-1.060671	-0.131435
C69	C	-0.155804	-0.727337	0.201898
C70	C	-1.018766	-1.394105	-0.464829
C71	C	-0.685433	-1.060772	-0.131496
C72	C	-0.352100	-0.727438	0.201837
C73	C	-0.909534	-1.394046	-0.464798
C74	C	-0.576200	-1.060713	-0.131465
C75	C	-0.242867	-0.727379	0.201868
C76	C	-0.213050	-1.394113	-0.464825
C77	C	0.120283	-1.060780	-0.131492
C78	C	0.453617	-0.727446	0.201841
C79	C	-0.105836	-1.394154	-0.464846
C80	C	0.227497	-1.060821	-0.131513
C81	C	0.560831	-0.727488	0.201820
C82	C	-0.464558	-1.394085	-0.716369
C83	C	-0.131224	-1.060751	-0.383036
C84	C	0.202109	-0.727418	-0.049703
C85	C	-0.464521	-1.394114	-0.823583
C86	C	-0.131188	-1.060780	-0.490250
C87	C	0.202145	-0.727447	-0.156917
C88	C	-0.464656	-0.645609	-0.464799
C89	C	-0.131323	-0.312276	-0.131466
C90	C	0.202010	0.021058	0.201868
C91	C	-0.464646	-0.752823	-0.464785
C92	C	-0.131313	-0.419490	-0.131451
C93	C	0.202021	-0.086156	0.201882
C94	C	-0.464456	-1.394140	-1.019879
C95	C	-0.131123	-1.060807	-0.686545
C96	C	0.202211	-0.727473	-0.353212
C97	C	-0.464495	-1.394122	-0.910646
C98	C	-0.131162	-1.060789	-0.577313
C99	C	0.202172	-0.727456	-0.243979
C100	C	-0.464658	-1.394003	-0.214162
C101	C	-0.131325	-1.060670	0.119171
C102	C	0.202008	-0.727337	0.452505
C103	C	-0.464423	-1.394161	-0.106949
C104	C	-0.131089	-1.060828	0.226385
C105	C	0.202244	-0.727495	0.559718
