data_functionalizedCrystal
_audit_creation_method	'MofGen! by Chris Wilmer'
_symmetry_space_group_name_H-M	'P1'
_symmetry_Int_Tables_number	1
_symmetry_cell_setting	triclinic
loop_
_symmetry_equiv_pos_as_xyz
  x,y,z
_cell_length_a	14.853567
_cell_length_b	15.944551
_cell_length_c	13.330367
_cell_angle_alpha	89.994404
_cell_angle_beta	89.995418
_cell_angle_gamma	83.566834
loop_
_atom_site_label
_atom_site_type_symbol
_atom_site_fract_x
_atom_site_fract_y
_atom_site_fract_z
O1	O	1.196228	0.109665	-0.083357
O2	O	0.933752	0.122728	-0.083374
O3	O	1.072158	-0.006070	-0.083356
O4	O	1.057822	0.238463	-0.083375
O5	O	1.072137	-0.006073	0.083491
O6	O	0.933732	0.122725	0.083473
O7	O	1.196208	0.109662	0.083491
Cu8	Cu	1.064968	0.116193	0.098716
Cu9	Cu	1.064992	0.116197	-0.098600
O10	O	1.057802	0.238460	0.083472
C11	C	0.900154	0.122135	0.000047
C12	C	0.800072	0.120361	0.000041
C13	C	0.387646	0.036354	0.000070
C14	C	0.366169	0.189369	0.000057
C15	C	0.460201	0.191037	0.000054
C16	C	0.517960	0.115362	0.000057
C17	C	0.481687	0.038019	0.000064
C18	C	0.496480	0.268379	0.000037
C19	C	0.590517	0.270050	0.000033
C20	C	0.648278	0.194374	0.000043
C21	C	0.612000	0.117028	0.000051
C22	C	0.669759	0.041353	0.000054
C23	C	0.633483	-0.035994	0.000069
C24	C	0.539448	-0.037657	0.000074
C25	C	0.742313	0.196036	0.000038
C26	C	0.763800	0.043018	0.000048
C27	C	1.071552	-0.037367	0.000068
C28	C	1.069768	-0.130615	0.000068
C29	C	0.979713	-0.345572	0.000049
C30	C	1.021522	-0.406544	0.082317
C31	C	1.066541	-0.301344	0.000060
C32	C	1.021562	-0.406524	-0.082181
C33	C	1.063416	-0.466260	0.000048
C34	C	1.108373	-0.361088	0.082397
C35	C	1.108401	-0.361062	-0.082175
C36	C	1.150273	-0.422017	0.000113
C37	C	1.068338	-0.206340	0.000068
C38	C	1.061626	-0.561263	0.000048
C39	C	1.229806	0.110255	0.000067
C40	C	1.329887	0.112029	0.000067
C41	C	1.058407	0.269756	0.000046
C42	C	1.060191	0.363004	0.000039
N43	N	1.064958	0.116190	0.237498
N44	N	1.065009	0.116193	-0.237381
C45	C	1.003703	0.173206	0.710113
C46	C	1.126305	0.059180	0.710097
C47	C	1.126295	0.059178	0.605078
C48	C	1.064989	0.116191	0.552572
C49	C	1.003693	0.173207	0.605085
C50	C	1.187595	0.002169	0.552558
C51	C	1.187588	0.002164	0.447534
C52	C	1.126277	0.059174	0.395026
C53	C	1.064978	0.116192	0.447544
C54	C	1.003672	0.173205	0.395038
C55	C	0.942368	0.230220	0.447555
C56	C	0.942382	0.230217	0.552577
C57	C	1.126264	0.059177	0.290004
C58	C	1.003662	0.173206	0.290010
H59	H	0.620045	0.333030	0.000020
O60	O	0.893678	-0.306061	0.000181
C61	C	0.734256	-0.321973	0.001176
C62	C	0.831639	-0.366826	0.001044
H63	H	0.684071	-0.371081	0.001852
H64	H	0.723510	-0.280388	0.070671
H65	H	0.723097	-0.281236	-0.068975
H66	H	0.842865	-0.407606	0.071148
H67	H	0.842339	-0.408359	-0.068497
H68	H	1.222407	-0.455095	0.000165
H69	H	1.145102	-0.340890	-0.151725
O70	O	0.777703	0.271088	-0.000020
C71	C	0.913049	0.341470	0.000032
C72	C	0.873094	0.256411	0.000070
H73	H	0.990177	0.329633	0.000126
H74	H	0.889335	0.378882	-0.069815
H75	H	0.889204	0.378871	0.069836
H76	H	0.896920	0.218941	-0.069686
H77	H	0.896803	0.219062	0.069963
H78	H	0.319136	0.250981	0.000046
H79	H	0.984835	-0.426641	-0.151738
O80	O	0.882853	0.285522	0.396391
C81	C	0.828560	0.336088	0.234593
C82	C	0.895991	0.273403	0.292415
H83	H	0.839171	0.326324	0.150519
H84	H	0.756334	0.325018	0.255171
H85	H	0.840295	0.403378	0.255293
H86	H	0.884338	0.206088	0.271747
H87	H	0.968193	0.284546	0.271833
H88	H	1.237513	-0.044246	0.595312
O89	O	0.882929	0.285570	0.603746
C90	C	0.828587	0.336074	0.765549
C91	C	0.895975	0.273354	0.707720
H92	H	0.839099	0.326208	0.849622
H93	H	0.840335	0.403390	0.744961
H94	H	0.756387	0.325017	0.744863
H95	H	0.968202	0.284334	0.728374
H96	H	0.884149	0.206060	0.728312
O97	O	1.185809	0.003683	0.760992
C98	C	1.238570	-0.142287	0.793197
C99	C	1.171149	-0.079522	0.735470
H100	H	1.226729	-0.209573	0.772600
H101	H	1.310798	-0.131302	0.772521
H102	H	1.228054	-0.132446	0.877274
H103	H	1.181583	-0.089326	0.651381
H104	H	1.098946	-0.090524	0.756230
O105	O	1.247164	-0.053302	0.396679
C106	C	1.368804	-0.166371	0.407756
C107	C	1.301373	-0.103612	0.465475
H108	H	1.412662	-0.207051	0.463352
H109	H	1.329922	-0.208459	0.358634
H110	H	1.413793	-0.130016	0.358541
H111	H	1.256366	-0.139898	0.514745
H112	H	1.340311	-0.061524	0.514534
H113	H	0.984789	-0.426694	0.151864
O114	O	1.152077	-0.337052	0.165435
C115	C	1.202834	-0.221655	0.258567
C116	C	1.153306	-0.248760	0.164498
H117	H	1.203861	-0.150272	0.257830
H118	H	1.166063	-0.240708	0.328620
H119	H	1.275309	-0.253936	0.258858
H120	H	1.080830	-0.216493	0.164110
H121	H	1.190148	-0.229722	0.094487
O122	O	1.185841	0.003721	0.239145
C123	C	1.307494	-0.109336	0.250218
C124	C	1.240055	-0.046586	0.307939
H125	H	1.351356	-0.150014	0.305813
H126	H	1.268618	-0.151428	0.201093
H127	H	1.352478	-0.072974	0.201005
H128	H	1.195053	-0.082880	0.357206
H129	H	1.278987	-0.004495	0.357001
H130	H	0.810822	-0.018607	0.000054
H131	H	0.680523	-0.097609	0.000065
H132	H	0.509903	-0.100629	0.000110
O133	O	0.440248	0.341806	0.000080
C134	C	0.285857	0.407048	0.000040
C135	C	0.349442	0.323826	0.000010
H136	H	0.212428	0.392540	-0.000038
H137	H	0.298983	0.445113	0.069877
H138	H	0.299096	0.445108	-0.069774
H139	H	0.336241	0.285699	0.069777
H140	H	0.336304	0.285824	-0.069873
H141	H	0.358106	-0.026620	0.000086
H142	H	0.953736	0.219631	0.247266
H143	H	0.953788	0.219624	0.752874
