data_functionalizedCrystal
_audit_creation_method	'MofGen! by Chris Wilmer'
_symmetry_space_group_name_H-M	'P1'
_symmetry_Int_Tables_number	1
_symmetry_cell_setting	triclinic
loop_
_symmetry_equiv_pos_as_xyz
  x,y,z
_cell_length_a	11.169417
_cell_length_b	18.101395
_cell_length_c	11.169409
_cell_angle_alpha	90.035674
_cell_angle_beta	90.019824
_cell_angle_gamma	90.031983
loop_
_atom_site_label
_atom_site_type_symbol
_atom_site_fract_x
_atom_site_fract_y
_atom_site_fract_z
Zn1	Zn	1.834789	-0.294752	0.678515
Zn2	Zn	2.334789	0.205248	1.178515
Zn3	Zn	1.834606	-0.418619	0.477820
Zn4	Zn	2.334606	0.081381	0.977820
Zn5	Zn	1.634075	-0.294797	0.477849
Zn6	Zn	2.134075	0.205203	0.977849
Zn7	Zn	1.634010	-0.418558	0.678465
Zn8	Zn	2.134010	0.081442	1.178465
O9	O	1.734370	-0.356682	0.578162
O10	O	2.234370	0.143318	1.078162
O11	O	2.002715	-0.311190	0.651901
O12	O	2.502715	0.188810	1.151901
O13	O	1.807956	-0.402238	0.309874
O14	O	2.307956	0.097762	0.809874
O15	O	1.660804	-0.191159	0.504501
O16	O	2.160804	0.308841	1.004501
O17	O	2.002580	-0.402194	0.504451
O18	O	2.502580	0.097806	1.004451
O19	O	1.808268	-0.191125	0.651929
O20	O	2.308268	0.308875	1.151929
O21	O	1.660626	-0.311267	0.309896
O22	O	2.160626	0.188733	0.809896
O23	O	1.466117	-0.311208	0.504453
O24	O	1.966117	0.188792	1.004453
O25	O	1.660693	-0.402091	0.846421
O26	O	2.160693	0.097909	1.346421
O27	O	1.466069	-0.402135	0.651844
O28	O	1.966069	0.097865	1.151844
O29	O	1.808205	-0.311131	0.846458
O30	O	2.308205	0.188869	1.346458
O31	O	1.807892	-0.522244	0.504403
O32	O	2.307892	-0.022244	1.004403
O33	O	1.660515	-0.522199	0.651816
O34	O	2.160515	-0.022199	1.151816
C35	C	1.422545	-0.356670	0.578147
C36	C	1.922545	0.143330	1.078147
C37	C	1.289145	-0.356684	0.578169
C38	C	1.789145	0.143316	1.078169
C39	C	1.734209	-0.549092	0.578127
C40	C	2.234209	-0.049092	1.078127
C41	C	1.734250	-0.631406	0.578152
C42	C	2.234250	-0.131406	1.078152
C43	C	1.734514	-0.930497	0.578217
C44	C	2.234514	-0.430497	1.078217
C45	C	1.642003	-0.899175	0.671195
C46	C	2.142003	-0.399175	1.171195
C47	C	1.641564	-0.813557	0.670904
C48	C	2.141564	-0.313557	1.170904
C49	C	1.734383	-0.782115	0.578186
C50	C	2.234383	-0.282115	1.078186
C51	C	1.700132	-0.813278	0.451699
C52	C	2.200132	-0.313278	0.951699
C53	C	1.699535	-0.898923	0.452255
C54	C	2.199535	-0.398923	0.952255
C55	C	1.861478	-0.898837	0.610612
C56	C	2.361478	-0.398837	1.110612
C57	C	1.860732	-0.813186	0.613386
C58	C	2.360732	-0.313186	1.113386
C59	C	1.734311	-0.698255	0.578160
C60	C	2.234311	-0.198255	1.078160
C61	C	1.734583	-1.014357	0.578234
C62	C	2.234583	-0.514357	1.078234
C63	C	2.047412	-0.356694	0.578178
C64	C	2.547412	0.143306	1.078178
C65	C	2.180812	-0.356699	0.578185
C66	C	2.680812	0.143301	1.078185
C67	C	1.734462	-0.356599	0.891205
C68	C	2.234462	0.143401	1.391205
C69	C	1.734501	-0.356564	1.024605
C70	C	2.234501	0.143436	1.524605
C71	C	1.734564	-0.163520	0.578224
C72	C	2.234564	0.336480	1.078224
C73	C	1.734647	-0.081206	0.578250
C74	C	2.234647	0.418794	1.078250
C75	C	1.734347	-0.356710	0.266338
C76	C	2.234347	0.143290	0.766338
C77	C	1.734541	-0.356537	0.132938
C78	C	2.234541	0.143463	0.632938
H79	H	1.663221	-0.919714	0.765288
H80	H	2.163221	-0.419714	1.265288
O81	O	1.943708	-0.923127	0.529928
O82	O	2.443708	-0.423127	1.029928
C83	C	1.947738	-1.000965	0.532081
C84	C	2.447738	-0.500965	1.032081
H85	H	1.913175	-1.021680	0.622029
H86	H	2.413175	-0.521680	1.122029
H87	H	2.044008	-1.020188	0.518849
H88	H	2.544008	-0.520188	1.018849
H89	H	1.889292	-1.023969	0.457107
H90	H	2.389292	-0.523969	0.957107
H91	H	1.933304	-0.791778	0.550600
H92	H	2.433304	-0.291778	1.050600
H93	H	1.608304	-0.791896	0.423764
H94	H	2.108304	-0.291896	0.923764
H95	H	1.547455	-0.793137	0.649447
H96	H	2.047455	-0.293137	1.149447
H97	H	1.763992	-0.919646	0.380617
H98	H	2.263992	-0.419646	0.880617
O99	O	1.898942	-0.924485	0.718727
O100	O	2.398942	-0.424485	1.218727
C101	C	2.012865	-0.895066	0.745044
C102	C	2.512865	-0.395066	1.245044
H103	H	2.059197	-0.878286	0.658290
H104	H	2.559197	-0.378286	1.158290
H105	H	2.068999	-0.938555	0.792921
H106	H	2.568999	-0.438555	1.292921
H107	H	2.002522	-0.844571	0.805201
H108	H	2.502522	-0.344571	1.305201
O109	O	1.667280	-0.788503	0.782810
O110	O	2.167280	-0.288503	1.282810
C111	C	1.781190	-0.814265	0.817618
C112	C	2.281190	-0.314265	1.317618
H113	H	1.804442	-0.865966	0.764153
H114	H	2.304442	-0.365966	1.264153
H115	H	1.780286	-0.828029	0.917197
H116	H	2.280286	-0.328029	1.417197
H117	H	1.850951	-0.769634	0.799651
H118	H	2.350951	-0.269634	1.299651
H119	H	1.765392	-0.792913	0.380534
H120	H	2.265392	-0.292913	0.880534
H121	H	1.886561	-0.792814	0.706473
H122	H	2.386561	-0.292814	1.206473
O123	O	1.530493	-0.925051	0.645895
O124	O	2.030493	-0.425051	1.145895
C125	C	1.530525	-1.002853	0.651846
C126	C	2.030525	-0.502853	1.151846
H127	H	1.625472	-1.024234	0.637803
H128	H	2.125472	-0.524234	1.137803
H129	H	1.469474	-1.026046	0.579139
H130	H	1.969474	-0.526046	1.079139
H131	H	1.496653	-1.021192	0.743404
H132	H	1.996653	-0.521192	1.243404
O133	O	1.588734	-0.922806	0.419723
O134	O	2.088734	-0.422806	0.919723
C135	C	1.503231	-0.895833	0.501627
C136	C	2.003231	-0.395833	1.001627
H137	H	1.548972	-0.882518	0.590314
H138	H	2.048972	-0.382518	1.090314
H139	H	1.431291	-0.939542	0.516721
H140	H	1.931291	-0.439542	1.016721
H141	H	1.460291	-0.843631	0.464079
H142	H	1.960291	-0.343631	0.964079
