data_functionalizedCrystal
_audit_creation_method	'MofGen! by Chris Wilmer'
_symmetry_space_group_name_H-M	'P1'
_symmetry_Int_Tables_number	1
_symmetry_cell_setting	triclinic
loop_
_symmetry_equiv_pos_as_xyz
  x,y,z
_cell_length_a	14.519709
_cell_length_b	14.421503
_cell_length_c	14.519709
_cell_angle_alpha	90.003352
_cell_angle_beta	96.319855
_cell_angle_gamma	90.002031
loop_
_atom_site_label
_atom_site_type_symbol
_atom_site_fract_x
_atom_site_fract_y
_atom_site_fract_z
O1	O	1.223873	0.076993	-0.120878
O2	O	0.955396	0.077022	-0.135115
O3	O	1.096753	0.076998	0.006242
O4	O	1.082516	0.077016	-0.262235
O5	O	1.096729	-0.077225	0.006221
O6	O	0.955373	-0.077202	-0.135136
O7	O	1.223850	-0.077230	-0.120900
Cu8	Cu	1.089609	-0.091298	-0.128020
Cu9	Cu	1.089637	0.091089	-0.127995
O10	O	1.082493	-0.077207	-0.262256
C11	C	0.921025	-0.000087	-0.134462
C12	C	0.818643	-0.000076	-0.132474
N13	N	1.089596	-0.219579	-0.128037
C14	C	0.443748	-0.000119	-0.125154
C15	C	0.548056	-0.000106	-0.127187
C16	C	0.631192	-0.000096	-0.128814
C17	C	0.735507	-0.000086	-0.130847
C18	C	1.024221	-0.469222	-0.193371
C19	C	1.107583	-0.531032	-0.211408
C20	C	1.089619	-0.408741	-0.128015
C21	C	1.006278	-0.531024	-0.109999
C22	C	1.089633	-0.591462	-0.127996
C23	C	1.173023	-0.469190	-0.146093
C24	C	1.071663	-0.469177	-0.044648
C25	C	1.155085	-0.530959	-0.062650
C26	C	1.089609	-0.303480	-0.128028
C27	C	1.089652	-0.696721	-0.127981
C28	C	1.258221	-0.000120	-0.121553
C29	C	1.360602	-0.000125	-0.123541
C30	C	1.096078	-0.000114	0.040591
C31	C	1.094090	-0.000114	0.142972
N32	N	1.089657	0.219370	-0.127971
C33	C	1.083168	-0.000093	-0.296606
C34	C	1.085156	-0.000087	-0.398987
C35	C	1.086770	-0.000089	0.517868
C36	C	1.088803	-0.000096	0.413560
C37	C	1.090430	-0.000102	0.330423
C38	C	1.092463	-0.000108	0.226109
H39	H	0.968973	-0.442115	-0.248684
C40	C	1.127671	-0.567218	-0.305474
C41	C	1.058981	-0.535964	-0.373645
C42	C	1.077442	-0.569286	-0.460309
H43	H	1.186393	-0.545158	-0.318843
H44	H	1.128049	-0.633090	-0.304654
H45	H	1.058613	-0.470106	-0.374467
H46	H	1.000252	-0.558022	-0.360307
H47	H	1.077820	-0.635158	-0.459489
H48	H	1.136165	-0.547224	-0.473669
H49	H	1.030835	-0.548092	-0.506572
C50	C	1.051422	-0.432728	0.049265
C51	C	1.052549	-0.335655	0.048238
C52	C	1.033907	-0.302043	0.134737
H53	H	0.992153	-0.453761	0.062060
H54	H	1.097295	-0.454731	0.095844
H55	H	1.006678	-0.313660	0.001674
H56	H	1.111811	-0.314597	0.035459
H57	H	1.079781	-0.324047	0.181316
H58	H	0.974639	-0.323083	0.147525
H59	H	1.034678	-0.236177	0.134055
C60	C	1.266929	-0.432953	-0.166621
C61	C	1.265795	-0.335875	-0.166486
C62	C	1.352266	-0.302460	-0.185440
H63	H	1.313528	-0.454467	-0.120528
H64	H	1.279750	-0.454615	-0.225677
H65	H	1.252985	-0.314222	-0.107439
H66	H	1.219215	-0.314336	-0.212579
H67	H	1.365087	-0.324121	-0.244496
H68	H	1.398858	-0.323980	-0.139345
H69	H	1.351506	-0.236589	-0.185360
H70	H	1.210456	-0.557896	-0.007370
C71	C	0.912386	-0.567367	-0.089549
C72	C	0.923303	-0.620740	-0.008535
C73	C	0.836831	-0.654240	0.010317
H74	H	0.872292	-0.516676	-0.081442
H75	H	0.886422	-0.604597	-0.139824
H76	H	0.949254	-0.583512	0.041728
H77	H	0.963381	-0.671444	-0.016621
H78	H	0.810867	-0.691470	-0.039958
H79	H	0.796744	-0.603544	0.018421
H80	H	0.844227	-0.690464	0.065282
