data_functionalizedCrystal
_audit_creation_method	'MofGen! by Chris Wilmer'
_symmetry_space_group_name_H-M	'P1'
_symmetry_Int_Tables_number	1
_symmetry_cell_setting	triclinic
loop_
_symmetry_equiv_pos_as_xyz
  x,y,z
_cell_length_a	19.805407
_cell_length_b	18.101397
_cell_length_c	19.805399
_cell_angle_alpha	89.970675
_cell_angle_beta	89.979591
_cell_angle_gamma	90.022406
loop_
_atom_site_label
_atom_site_type_symbol
_atom_site_fract_x
_atom_site_fract_y
_atom_site_fract_z
Zn1	Zn	1.034764	-0.294808	-0.382727
Zn2	Zn	1.284764	-0.044808	-0.132727
Zn3	Zn	1.534764	0.205192	0.117273
Zn4	Zn	1.784764	0.455192	0.367273
Zn5	Zn	1.034690	-0.418652	-0.269535
Zn6	Zn	1.284690	-0.168652	-0.019535
Zn7	Zn	1.534690	0.081348	0.230465
Zn8	Zn	1.784690	0.331348	0.480465
Zn9	Zn	0.921578	-0.294833	-0.269550
Zn10	Zn	1.171578	-0.044833	-0.019550
Zn11	Zn	1.421578	0.205167	0.230450
Zn12	Zn	1.671578	0.455167	0.480450
Zn13	Zn	0.921554	-0.418617	-0.382680
Zn14	Zn	1.171554	-0.168617	-0.132680
Zn15	Zn	1.421554	0.081383	0.117320
Zn16	Zn	1.671554	0.331383	0.367320
O17	O	0.978146	-0.356728	-0.326123
O18	O	1.228146	-0.106728	-0.076123
O19	O	1.478146	0.143272	0.173877
O20	O	1.728146	0.393272	0.423877
O21	O	1.129470	-0.311241	-0.367725
O22	O	1.379470	-0.061241	-0.117725
O23	O	1.629470	0.188759	0.132275
O24	O	1.879470	0.438759	0.382275
O25	O	1.019665	-0.402252	-0.174820
O26	O	1.269665	-0.152252	0.075180
O27	O	1.519665	0.097748	0.325180
O28	O	1.769665	0.347748	0.575180
O29	O	0.936634	-0.191197	-0.284588
O30	O	1.186634	0.058803	-0.034588
O31	O	1.436634	0.308803	0.215412
O32	O	1.686634	0.558803	0.465412
O33	O	1.129417	-0.402228	-0.284563
O34	O	1.379417	-0.152228	-0.034563
O35	O	1.629417	0.097772	0.215437
O36	O	1.879417	0.347772	0.465437
O37	O	1.019790	-0.191179	-0.367739
O38	O	1.269790	0.058821	-0.117739
O39	O	1.519790	0.308821	0.132261
O40	O	1.769790	0.558821	0.382261
O41	O	0.936562	-0.311283	-0.174831
O42	O	1.186562	-0.061283	0.075169
O43	O	1.436562	0.188717	0.325169
O44	O	1.686562	0.438717	0.575169
O45	O	0.826858	-0.311249	-0.284543
O46	O	1.076858	-0.061249	-0.034543
O47	O	1.326858	0.188751	0.215457
O48	O	1.576858	0.438751	0.465457
O49	O	0.936591	-0.402168	-0.477403
O50	O	1.186591	-0.152168	-0.227403
O51	O	1.436591	0.097832	0.022597
O52	O	1.686591	0.347832	0.272597
O53	O	0.826840	-0.402192	-0.367660
O54	O	1.076840	-0.152192	-0.117660
O55	O	1.326840	0.097808	0.132340
O56	O	1.576840	0.347808	0.382340
O57	O	1.019766	-0.311207	-0.477437
O58	O	1.269766	-0.061207	-0.227437
O59	O	1.519766	0.188793	0.022563
O60	O	1.769766	0.438793	0.272563
O61	O	1.019641	-0.522280	-0.284518
O62	O	1.269641	-0.272280	-0.034518
O63	O	1.519641	-0.022280	0.215482
O64	O	1.769641	0.227720	0.465482
O65	O	0.936520	-0.522254	-0.367645
O66	O	1.186520	-0.272254	-0.117645
O67	O	1.436520	-0.022254	0.132355
O68	O	1.686520	0.227746	0.382355
C69	C	0.802290	-0.356720	-0.326098
C70	C	1.052290	-0.106720	-0.076098
C71	C	1.302290	0.143280	0.173902
C72	C	1.552290	0.393280	0.423902
C73	C	0.727058	-0.356734	-0.326104
C74	C	0.977058	-0.106734	-0.076104
C75	C	1.227058	0.143266	0.173896
C76	C	1.477058	0.393266	0.423896
C77	C	0.265299	-0.309439	-0.369517
C78	C	0.515299	-0.059439	-0.119517
C79	C	0.765299	0.190561	0.130483
C80	C	1.015299	0.440561	0.380483
C81	C	0.335987	-0.309440	-0.369512
C82	C	0.585987	-0.059440	-0.119512
C83	C	0.835987	0.190560	0.130488
C84	C	1.085987	0.440560	0.380488
C85	C	0.371297	-0.356739	-0.326145
C86	C	0.621297	-0.106739	-0.076145
C87	C	0.871297	0.143261	0.173855
C88	C	1.121297	0.393261	0.423855
C89	C	0.335914	-0.404044	-0.282784
C90	C	0.585914	-0.154044	-0.032784
C91	C	0.835914	0.095956	0.217216
C92	C	1.085914	0.345956	0.467216
C93	C	0.265227	-0.404046	-0.282792
C94	C	0.515227	-0.154046	-0.032792
C95	C	0.765227	0.095954	0.217208
C96	C	1.015227	0.345954	0.467208
C97	C	0.620987	-0.404039	-0.282748
C98	C	0.870987	-0.154039	-0.032748
C99	C	1.120987	0.095961	0.217252
C100	C	1.370987	0.345961	0.467252
C101	C	0.691679	-0.404031	-0.282741
C102	C	0.941679	-0.154031	-0.032741
C103	C	1.191679	0.095969	0.217259
C104	C	1.441679	0.345969	0.467259
C105	C	0.691748	-0.309433	-0.369468
C106	C	0.941748	-0.059433	-0.119468
C107	C	1.191748	0.190567	0.130532
C108	C	1.441748	0.440567	0.380532
C109	C	0.621061	-0.309435	-0.369477
C110	C	0.871061	-0.059435	-0.119477
C111	C	1.121061	0.190565	0.130523
C112	C	1.371061	0.440565	0.380523
C113	C	0.585684	-0.356743	-0.326118
C114	C	0.835684	-0.106743	-0.076118
C115	C	1.085684	0.143257	0.173882
C116	C	1.335684	0.393257	0.423882
C117	C	0.509036	-0.356742	-0.326125
C118	C	0.759036	-0.106742	-0.076125
C119	C	1.009036	0.143258	0.173875
C120	C	1.259036	0.393258	0.423875
C121	C	0.447944	-0.356737	-0.326134
C122	C	0.697944	-0.106737	-0.076134
C123	C	0.947944	0.143263	0.173866
C124	C	1.197944	0.393263	0.423866
C125	C	0.978089	-0.549138	-0.326090
C126	C	1.228089	-0.299138	-0.076090
C127	C	1.478089	-0.049138	0.173910
C128	C	1.728089	0.200862	0.423910
C129	C	0.978126	-0.631452	-0.326099
C130	C	1.228126	-0.381452	-0.076099
C131	C	1.478126	-0.131452	0.173901
C132	C	1.728126	0.118548	0.423901
C133	C	0.978212	-0.930543	-0.326160
C134	C	1.228212	-0.680543	-0.076160
C135	C	1.478212	-0.430543	0.173840
C136	C	1.728212	-0.180543	0.423840
C137	C	1.030364	-0.899203	-0.273719
C138	C	1.280364	-0.649203	-0.023719
C139	C	1.530364	-0.399203	0.226281
C140	C	1.780364	-0.149203	0.476281
C141	C	1.030544	-0.813585	-0.273855
C142	C	1.280544	-0.563585	-0.023855
C143	C	1.530544	-0.313585	0.226145
C144	C	1.780544	-0.063585	0.476145
C145	C	0.978169	-0.782161	-0.326129
C146	C	1.228169	-0.532161	-0.076129
C147	C	1.478169	-0.282161	0.173871
C148	C	1.728169	-0.032161	0.423871
C149	C	0.997504	-0.813169	-0.397474
C150	C	1.247504	-0.563169	-0.147474
C151	C	1.497504	-0.313169	0.102526
C152	C	1.747504	-0.063169	0.352526
C153	C	0.997908	-0.898814	-0.397189
C154	C	1.247908	-0.648814	-0.147189
C155	C	1.497908	-0.398814	0.102811
C156	C	1.747908	-0.148814	0.352811
C157	C	0.906586	-0.899054	-0.307874
C158	C	1.156586	-0.649054	-0.057874
C159	C	1.406586	-0.399054	0.192126
C160	C	1.656586	-0.149054	0.442126
C161	C	0.906940	-0.813405	-0.306282
C162	C	1.156940	-0.563405	-0.056282
C163	C	1.406940	-0.313405	0.193718
C164	C	1.656940	-0.063405	0.443718
C165	C	0.978144	-0.698301	-0.326116
C166	C	1.228144	-0.448301	-0.076116
C167	C	1.478144	-0.198301	0.173884
C168	C	1.728144	0.051699	0.423884
C169	C	0.978239	-1.014403	-0.326178
C170	C	1.228239	-0.764403	-0.076178
C171	C	1.478239	-0.514403	0.173822
C172	C	1.728239	-0.264403	0.423822
C173	C	1.154689	-0.356736	-0.326148
C174	C	1.404689	-0.106736	-0.076148
C175	C	1.654689	0.143264	0.173852
C176	C	1.904689	0.393264	0.423852
C177	C	1.229921	-0.356739	-0.326158
C178	C	1.479921	-0.106739	-0.076158
C179	C	1.729921	0.143261	0.173842
C180	C	1.979921	0.393261	0.423842
C181	C	0.978184	-0.356681	-0.502666
C182	C	1.228184	-0.106681	-0.252666
C183	C	1.478184	0.143319	-0.002666
C184	C	1.728184	0.393319	0.247334
C185	C	0.978201	-0.356661	-0.577898
C186	C	1.228201	-0.106661	-0.327898
C187	C	1.478201	0.143339	-0.077898
C188	C	1.728201	0.393339	0.172102
C189	C	0.978223	-0.163566	-0.326170
C190	C	1.228223	0.086434	-0.076170
C191	C	1.478223	0.336434	0.173830
C192	C	1.728223	0.586434	0.423830
C193	C	0.978256	-0.081252	-0.326191
C194	C	1.228256	0.168748	-0.076191
C195	C	1.478256	0.418748	0.173809
C196	C	1.728256	0.668748	0.423809
C197	C	1.021511	-0.309295	-0.613261
C198	C	1.271511	-0.059295	-0.363261
C199	C	1.521511	0.190705	-0.113261
C200	C	1.771511	0.440705	0.136739
C201	C	1.021518	-0.309274	-0.683949
C202	C	1.271518	-0.059274	-0.433949
C203	C	1.521518	0.190726	-0.183949
C204	C	1.771518	0.440726	0.066051
C205	C	0.978217	-0.356622	-0.719273
C206	C	1.228217	-0.106622	-0.469273
C207	C	1.478217	0.143378	-0.219273
C208	C	1.728217	0.393378	0.030727
C209	C	0.934902	-0.403990	-0.683905
C210	C	1.184902	-0.153990	-0.433905
C211	C	1.434902	0.096010	-0.183905
C212	C	1.684902	0.346010	0.066095
C213	C	0.934893	-0.404008	-0.613218
C214	C	1.184893	-0.154008	-0.363218
C215	C	1.434893	0.095992	-0.113218
C216	C	1.684893	0.345992	0.136782
C217	C	0.934941	-0.403921	-0.968979
C218	C	1.184941	-0.153921	-0.718979
C219	C	1.434941	0.096079	-0.468979
C220	C	1.684941	0.346079	-0.218979
C221	C	0.934955	-0.403902	-1.039671
C222	C	1.184955	-0.153902	-0.789671
C223	C	1.434955	0.096098	-0.539671
C224	C	1.684955	0.346098	-0.289671
C225	C	1.021566	-0.309187	-1.039710
C226	C	1.271566	-0.059187	-0.789710
C227	C	1.521566	0.190813	-0.539710
C228	C	1.771566	0.440813	-0.289710
C229	C	1.021556	-0.309204	-0.969023
C230	C	1.271556	-0.059204	-0.719023
C231	C	1.521556	0.190796	-0.469023
C232	C	1.771556	0.440796	-0.219023
C233	C	0.978239	-0.356569	-0.933661
C234	C	1.228239	-0.106569	-0.683661
C235	C	1.478239	0.143431	-0.433661
C236	C	1.728239	0.393431	-0.183661
C237	C	0.978231	-0.356591	-0.857012
C238	C	1.228231	-0.106591	-0.607012
C239	C	1.478231	0.143409	-0.357012
C240	C	1.728231	0.393409	-0.107012
C241	C	0.978228	-0.356605	-0.795920
C242	C	1.228228	-0.106605	-0.545920
C243	C	1.478228	0.143395	-0.295920
C244	C	1.728228	0.393395	-0.045920
C245	C	0.978148	-0.356721	-0.150267
C246	C	1.228148	-0.106721	0.099733
C247	C	1.478148	0.143279	0.349733
C248	C	1.728148	0.393279	0.599733
C249	C	0.978263	-0.356532	-0.075035
C250	C	1.228263	-0.106532	0.174965
C251	C	1.478263	0.143468	0.424965
C252	C	1.728263	0.393468	0.674965
H253	H	0.364789	-0.270926	-0.404822
H254	H	0.614789	-0.020926	-0.154822
H255	H	0.864789	0.229074	0.095178
H256	H	1.114789	0.479074	0.345178
H257	H	0.720560	-0.270915	-0.404774
H258	H	0.970560	-0.020915	-0.154774
H259	H	1.220560	0.229085	0.095226
H260	H	1.470560	0.479085	0.345226
H261	H	0.960681	-0.792812	-0.437598
H262	H	1.210681	-0.542812	-0.187598
H263	H	1.460681	-0.292812	0.062402
H264	H	1.710681	-0.042812	0.312402
H265	H	1.056787	-0.270705	-0.712739
H266	H	1.306787	-0.020705	-0.462739
H267	H	1.556787	0.229295	-0.212739
H268	H	1.806787	0.479295	0.037261
F269	F	0.888866	-0.454299	-1.077264
F270	F	1.138866	-0.204299	-0.827264
F271	F	1.388866	0.045701	-0.577264
F272	F	1.638866	0.295701	-0.327264
H273	H	0.364668	-0.442558	-0.247475
H274	H	0.614668	-0.192558	0.002525
H275	H	0.864668	0.057442	0.252525
H276	H	1.114668	0.307442	0.502525
F277	F	1.014698	-0.786183	-0.204717
F278	F	1.264698	-0.536183	0.045283
F279	F	1.514698	-0.286183	0.295283
F280	F	1.764698	-0.036183	0.545283
F281	F	0.883593	-0.927366	-0.241053
F282	F	1.133593	-0.677366	0.008947
F283	F	1.383593	-0.427366	0.258947
F284	F	1.633593	-0.177366	0.508947
H285	H	0.961587	-0.919543	-0.437608
H286	H	1.211587	-0.669543	-0.187608
H287	H	1.461587	-0.419543	0.062392
H288	H	1.711587	-0.169543	0.312392
H289	H	0.720426	-0.442551	-0.247424
H290	H	0.970426	-0.192551	0.002576
H291	H	1.220426	0.057449	0.252576
H292	H	1.470426	0.307449	0.502576
F293	F	0.583346	-0.454371	-0.236587
F294	F	0.833346	-0.204371	0.013413
F295	F	1.083346	0.045629	0.263413
F296	F	1.333346	0.295629	0.513413
F297	F	1.014748	-0.926188	-0.204364
F298	F	1.264748	-0.676188	0.045636
F299	F	1.514748	-0.426188	0.295636
F300	F	1.764748	-0.176188	0.545636
F301	F	0.855797	-0.925547	-0.357796
F302	F	1.105797	-0.675547	-0.107796
F303	F	1.355797	-0.425547	0.142204
F304	F	1.605797	-0.175547	0.392204
H305	H	1.049274	-0.791660	-0.413225
H306	H	1.299274	-0.541660	-0.163225
H307	H	1.549274	-0.291660	0.086775
H308	H	1.799274	-0.041660	0.336775
F309	F	1.067666	-0.258774	-1.077350
F310	F	1.317666	-0.008774	-0.827350
F311	F	1.567666	0.241226	-0.577350
F312	F	1.817666	0.491226	-0.327350
H313	H	0.899644	-0.442540	-0.712672
H314	H	1.149644	-0.192540	-0.462672
H315	H	1.399644	0.057460	-0.212672
H316	H	1.649644	0.307460	0.037328
F317	F	0.227575	-0.454394	-0.236648
F318	F	0.477575	-0.204394	0.013352
F319	F	0.727575	0.045606	0.263352
F320	F	0.977575	0.295606	0.513352
H321	H	1.083130	-0.920670	-0.285679
H322	H	1.333130	-0.670670	-0.035679
H323	H	1.583130	-0.420670	0.214321
H324	H	1.833130	-0.170670	0.464321
H325	H	0.899679	-0.442500	-0.940196
H326	H	1.149679	-0.192500	-0.690196
H327	H	1.399679	0.057500	-0.440196
H328	H	1.649679	0.307500	-0.190196
F329	F	1.067644	-0.258812	-0.931432
F330	F	1.317644	-0.008812	-0.681432
F331	F	1.567644	0.241188	-0.431432
F332	F	1.817644	0.491188	-0.181432
F333	F	0.888794	-0.454419	-0.575582
F334	F	1.138794	-0.204419	-0.325582
F335	F	1.388794	0.045581	-0.075582
F336	F	1.638794	0.295581	0.174418
H337	H	1.050263	-0.918731	-0.412678
H338	H	1.300263	-0.668731	-0.162678
H339	H	1.550263	-0.418731	0.087322
H340	H	1.800263	-0.168731	0.337322
F341	F	0.227726	-0.259093	-0.415673
F342	F	0.477726	-0.009093	-0.165673
F343	F	0.727726	0.240907	0.084327
F344	F	0.977726	0.490907	0.334327
F345	F	0.887879	-0.786921	-0.237656
F346	F	1.137879	-0.536921	0.012344
F347	F	1.387879	-0.286921	0.262344
F348	F	1.637879	-0.036921	0.512344
H349	H	0.865993	-0.792022	-0.341680
H350	H	1.115993	-0.542022	-0.091680
H351	H	1.365993	-0.292022	0.158320
H352	H	1.615993	-0.042022	0.408320
F353	F	1.099893	-0.786727	-0.289672
F354	F	1.349893	-0.536727	-0.039672
F355	F	1.599893	-0.286727	0.210328
F356	F	1.849893	-0.036727	0.460328
H357	H	0.592315	-0.270917	-0.404789
H358	H	0.842315	-0.020917	-0.154789
H359	H	1.092315	0.229083	0.095211
H360	H	1.342315	0.479083	0.345211
F361	F	1.067601	-0.258903	-0.575672
F362	F	1.317601	-0.008903	-0.325672
F363	F	1.567601	0.241097	-0.075672
F364	F	1.817601	0.491097	0.174328
