data_functionalizedCrystal
_audit_creation_method	'MofGen! by Chris Wilmer'
_symmetry_space_group_name_H-M	'P1'
_symmetry_Int_Tables_number	1
_symmetry_cell_setting	triclinic
loop_
_symmetry_equiv_pos_as_xyz
  x,y,z
_cell_length_a	16.109301
_cell_length_b	10.654545
_cell_length_c	15.186229
_cell_angle_alpha	89.998599
_cell_angle_beta	89.999006
_cell_angle_gamma	83.973505
loop_
_atom_site_label
_atom_site_type_symbol
_atom_site_fract_x
_atom_site_fract_y
_atom_site_fract_z
O1	O	1.104091	0.161420	-0.073176
O2	O	0.862148	0.181508	-0.073187
O3	O	0.988682	-0.011350	-0.073181
O4	O	0.977557	0.354279	-0.073182
O5	O	0.988673	-0.011353	0.073277
O6	O	0.862140	0.181506	0.073270
O7	O	1.104082	0.161418	0.073282
Zn8	Zn	0.983110	0.171461	0.096529
Zn9	Zn	0.983121	0.171465	-0.096435
O10	O	0.977549	0.354276	0.073275
C11	C	0.831164	0.180693	0.000040
C12	C	0.738854	0.178254	0.000035
C13	C	0.987860	-0.058139	0.000046
C14	C	0.985416	-0.197549	0.000041
C15	C	0.430489	0.284717	0.000050
C16	C	0.517223	0.287021	0.000045
C17	C	0.535736	0.058200	0.000034
C18	C	0.449003	0.055898	0.000033
C19	C	0.396382	0.169160	0.000045
C20	C	0.569848	0.173766	0.000041
C21	C	0.663889	0.176264	0.000036
C22	C	0.302335	0.166663	0.000049
C23	C	0.985435	-0.197554	-0.159631
C24	C	0.984300	-0.263052	-0.239467
C25	C	0.982003	-0.394039	-0.239468
C26	C	0.980840	-0.459532	-0.159625
C27	C	0.981975	-0.394035	-0.079789
C28	C	0.984274	-0.263045	-0.079797
C29	C	0.981950	-0.394028	0.079881
C30	C	0.984253	-0.263042	0.079884
C31	C	0.980787	-0.459521	0.159725
C32	C	0.981928	-0.394025	0.239562
C33	C	0.984226	-0.263030	0.239560
C34	C	0.985388	-0.197544	0.159720
C35	C	1.135066	0.162233	0.000053
C36	C	1.227376	0.164673	0.000052
C37	C	0.978370	0.401065	0.000046
C38	C	0.980814	0.540475	0.000046
N39	N	0.983108	0.171458	0.228222
N40	N	0.983129	0.171458	-0.228127
C41	C	1.039156	0.086089	0.453948
C42	C	1.039159	0.086086	0.546137
C43	C	0.927075	0.256831	0.546140
C44	C	0.927069	0.256827	0.453952
C45	C	0.983114	0.171458	0.407858
C46	C	0.983123	0.171459	0.592236
C47	C	0.983125	0.171456	0.692192
C48	C	0.983111	0.171458	0.307896
H49	H	0.387647	0.376942	0.000059
H50	H	0.544989	0.381119	0.000048
C51	C	0.411482	-0.071221	0.000031
H52	H	0.455242	-0.138346	0.000036
H53	H	0.378033	-0.076869	-0.051042
H54	H	0.378032	-0.076877	0.051110
H55	H	0.980975	-0.447358	0.304564
H56	H	0.578590	-0.034013	0.000026
H57	H	0.987315	-0.090899	-0.159638
C58	C	0.865427	0.350743	0.403247
H59	H	0.873447	0.338506	0.341742
H60	H	0.874941	0.434561	0.418350
H61	H	0.809859	0.337081	0.418357
C62	C	1.100809	-0.007815	0.596832
H63	H	1.134188	-0.058648	0.556174
H64	H	1.070607	-0.060108	0.632799
H65	H	1.135680	0.037387	0.632789
H66	H	0.985246	-0.209712	-0.304474
C67	C	0.865409	0.350704	0.596842
H68	H	0.832019	0.401528	0.556187
H69	H	0.895594	0.403011	0.632814
H70	H	0.830551	0.305471	0.632795
C71	C	0.980773	-0.466093	-0.327284
H72	H	0.981805	-0.408335	-0.374836
H73	H	0.931488	-0.507611	-0.330621
H74	H	1.028289	-0.526775	-0.330578
C75	C	0.978308	-0.603613	-0.159627
H76	H	0.977801	-0.633241	-0.218609
H77	H	0.929388	-0.623648	-0.130146
H78	H	1.026189	-0.642843	-0.130138
C79	C	0.978258	-0.603603	0.159729
H80	H	0.977722	-0.633223	0.218713
H81	H	1.026140	-0.642835	0.130253
H82	H	0.929340	-0.623638	0.130237
C83	C	0.985475	-0.190992	0.327381
H84	H	0.984458	-0.248763	0.374927
H85	H	0.937975	-0.130294	0.330693
H86	H	1.034776	-0.149497	0.330710
H87	H	0.987263	-0.090888	0.159711
H88	H	1.084791	0.016574	0.416420
