data_functionalizedCrystal
_audit_creation_method	'MofGen! by Chris Wilmer'
_symmetry_space_group_name_H-M	'P1'
_symmetry_Int_Tables_number	1
_symmetry_cell_setting	triclinic
loop_
_symmetry_equiv_pos_as_xyz
  x,y,z
_cell_length_a	6.817900
_cell_length_b	10.773972
_cell_length_c	14.125465
_cell_angle_alpha	96.482283
_cell_angle_beta	100.398878
_cell_angle_gamma	96.646171
loop_
_atom_site_label
_atom_site_type_symbol
_atom_site_fract_x
_atom_site_fract_y
_atom_site_fract_z
V1	V	-3.957267	-0.171528	-0.298420
O2	O	-3.981363	0.009345	-0.294351
O3	O	-3.875348	-0.341171	-0.294830
O4	O	-3.894029	-0.168405	-0.429279
O5	O	-3.962553	-0.164616	-0.158971
V6	V	-4.447161	-0.149950	-0.281929
O7	O	-4.204551	-0.218859	-0.334595
O8	O	-4.650075	-0.102619	-0.245755
O9	O	-4.305874	0.019693	-0.285520
O10	O	-4.540462	-0.330823	-0.285999
O11	O	-4.559273	-0.156862	-0.421379
O12	O	-4.287193	-0.153073	-0.151071
C13	C	-3.712675	-0.382542	-0.289722
C14	C	-3.726884	-0.521224	-0.287659
C15	C	-3.919251	-0.732409	-0.289108
C16	C	-3.904570	-0.589074	-0.291246
C17	C	-3.736504	-0.162160	-0.461224
C18	C	-3.765862	-0.160730	-0.568191
C19	C	-3.819672	-0.158107	-0.764038
C20	C	-4.004125	-0.163369	-0.816312
C21	C	-4.034069	-0.161909	-0.925288
C22	C	-3.789722	-0.159566	-0.655052
C23	C	-4.131888	0.061057	-0.290625
C24	C	-4.096916	0.199738	-0.292694
C25	C	-4.108060	-0.159322	-0.119121
C26	C	-4.057942	-0.160746	-0.012153
H27	H	-3.778015	-0.780433	-0.284461
C28	C	-3.636735	-0.150557	-0.814140
H29	H	-3.681185	-0.150569	-0.881874
H30	H	-3.547893	-0.075177	-0.787610
H31	H	-3.568290	-0.221295	-0.803865
H32	H	-4.045822	-0.541057	-0.295904
C33	C	-3.536055	-0.586077	-0.281361
H34	H	-3.570947	-0.673903	-0.280738
H35	H	-3.476595	-0.573376	-0.335986
H36	H	-3.442906	-0.550970	-0.223452
C37	C	-4.187088	-0.170944	-0.766218
H38	H	-4.306756	-0.174048	-0.813348
H39	H	-4.193864	-0.244777	-0.735333
H40	H	-4.173524	-0.098662	-0.719073
H41	H	-4.238155	-0.752239	-0.297352
