data_functionalizedCrystal
_audit_creation_method	'MofGen! by Chris Wilmer'
_symmetry_space_group_name_H-M	'P1'
_symmetry_Int_Tables_number	1
_symmetry_cell_setting	triclinic
loop_
_symmetry_equiv_pos_as_xyz
  x,y,z
_cell_length_a	18.215407
_cell_length_b	16.120484
_cell_length_c	18.215399
_cell_angle_alpha	92.869789
_cell_angle_beta	89.982632
_cell_angle_gamma	92.922890
loop_
_atom_site_label
_atom_site_type_symbol
_atom_site_fract_x
_atom_site_fract_y
_atom_site_fract_z
Zn1	Zn	1.110210	-0.331972	-0.430915
Zn2	Zn	1.360210	-0.081972	-0.180915
Zn3	Zn	1.610210	0.168028	0.069085
Zn4	Zn	1.860210	0.418028	0.319085
Zn5	Zn	1.103876	-0.471394	-0.314084
Zn6	Zn	1.353876	-0.221394	-0.064084
Zn7	Zn	1.603876	0.028606	0.185916
Zn8	Zn	1.853876	0.278606	0.435916
Zn9	Zn	0.987141	-0.331992	-0.307869
Zn10	Zn	1.237141	-0.081992	-0.057869
Zn11	Zn	1.487141	0.168008	0.192131
Zn12	Zn	1.737141	0.418008	0.442131
Zn13	Zn	0.980869	-0.471340	-0.437112
Zn14	Zn	1.230869	-0.221340	-0.187112
Zn15	Zn	1.480869	0.028660	0.062888
Zn16	Zn	1.730869	0.278660	0.312888
O17	O	1.045524	-0.401675	-0.372495
O18	O	1.295524	-0.151675	-0.122495
O19	O	1.545524	0.098325	0.127505
O20	O	1.795524	0.348325	0.377505
O21	O	1.212353	-0.350481	-0.415425
O22	O	1.462353	-0.100481	-0.165425
O23	O	1.712353	0.149519	0.084575
O24	O	1.962353	0.399519	0.334575
O25	O	1.088366	-0.452933	-0.210277
O26	O	1.338366	-0.202933	0.039723
O27	O	1.588366	0.047067	0.289723
O28	O	1.838366	0.297067	0.539723
O29	O	1.008742	-0.215324	-0.318996
O30	O	1.258742	0.034676	-0.068996
O31	O	1.508742	0.284676	0.181004
O32	O	1.758742	0.534676	0.431004
O33	O	1.207700	-0.452913	-0.329590
O34	O	1.457700	-0.202913	-0.079590
O35	O	1.707700	0.047087	0.170410
O36	O	1.957700	0.297087	0.420410
O37	O	1.099160	-0.215309	-0.409398
O38	O	1.349160	0.034691	-0.159398
O39	O	1.599160	0.284691	0.090602
O40	O	1.849160	0.534691	0.340602
O41	O	1.002601	-0.350515	-0.205710
O42	O	1.252601	-0.100515	0.044290
O43	O	1.502601	0.149485	0.294290
O44	O	1.752601	0.399485	0.544290
O45	O	0.883326	-0.350463	-0.325005
O46	O	1.133326	-0.100463	-0.075005
O47	O	1.383326	0.149537	0.174995
O48	O	1.633326	0.399537	0.424995
O49	O	0.998051	-0.452822	-0.539273
O50	O	1.248051	-0.202822	-0.289273
O51	O	1.498051	0.047178	-0.039273
O52	O	1.748051	0.297178	0.210727
O53	O	0.878717	-0.452841	-0.419960
O54	O	1.128717	-0.202841	-0.169960
O55	O	1.378717	0.047159	0.080040
O56	O	1.628717	0.297159	0.330040
O57	O	1.093078	-0.350429	-0.534720
O58	O	1.343078	-0.100429	-0.284720
O59	O	1.593078	0.149571	-0.034720
O60	O	1.843078	0.399571	0.215280
O61	O	1.082283	-0.588052	-0.335599
O62	O	1.332283	-0.338052	-0.085599
O63	O	1.582283	-0.088052	0.164401
O64	O	1.832283	0.161948	0.414401
O65	O	0.991910	-0.588013	-0.425987
O66	O	1.241910	-0.338013	-0.175987
O67	O	1.491910	-0.088013	0.074013
O68	O	1.741910	0.161987	0.324013
C69	C	0.854319	-0.401649	-0.372481
C70	C	1.104319	-0.151649	-0.122481
C71	C	1.354319	0.098351	0.127519
C72	C	1.604319	0.348351	0.377519
C73	C	0.772519	-0.401658	-0.372493
C74	C	1.022519	-0.151658	-0.122493
C75	C	1.272519	0.098342	0.127507
C76	C	1.522519	0.348342	0.377507
C77	C	0.586742	-0.348431	-0.417267
C78	C	0.836742	-0.098431	-0.167267
C79	C	1.086742	0.151569	0.082733
C80	C	1.336742	0.401569	0.332733
C81	C	0.509883	-0.348439	-0.417270
C82	C	0.759883	-0.098439	-0.167270
C83	C	1.009883	0.151561	0.082730
C84	C	1.259883	0.401561	0.332730
C85	C	0.505056	-0.454941	-0.327737
C86	C	0.755056	-0.204941	-0.077737
C87	C	1.005056	0.045059	0.172263
C88	C	1.255056	0.295059	0.422263
C89	C	0.581914	-0.454929	-0.327731
C90	C	0.831914	-0.204929	-0.077731
C91	C	1.081914	0.045071	0.172269
C92	C	1.331914	0.295071	0.422269
C93	C	0.622755	-0.401676	-0.372500
C94	C	0.872755	-0.151676	-0.122500
C95	C	1.122755	0.098324	0.127500
C96	C	1.372755	0.348324	0.377500
C97	C	0.469038	-0.401695	-0.372509
C98	C	0.719038	-0.151695	-0.122509
C99	C	0.969038	0.098305	0.127491
C100	C	1.219038	0.348305	0.377491
C101	C	0.385704	-0.401703	-0.372512
C102	C	0.635704	-0.151703	-0.122512
C103	C	0.885704	0.098297	0.127488
C104	C	1.135704	0.348297	0.377488
C105	C	0.706095	-0.401666	-0.372497
C106	C	0.956095	-0.151666	-0.122497
C107	C	1.206095	0.098334	0.127503
C108	C	1.456095	0.348334	0.377503
C109	C	1.035749	-0.618282	-0.382156
C110	C	1.285749	-0.368282	-0.132156
C111	C	1.535749	-0.118282	0.117844
C112	C	1.785749	0.131718	0.367844
C113	C	1.031634	-0.710948	-0.386314
C114	C	1.281634	-0.460948	-0.136314
C115	C	1.531634	-0.210948	0.113686
C116	C	1.781634	0.039052	0.363686
C117	C	1.024126	-0.880610	-0.393920
C118	C	1.274126	-0.630610	-0.143920
C119	C	1.524126	-0.380610	0.106080
C120	C	1.774126	-0.130610	0.356080
C121	C	1.067053	-0.921899	-0.351082
C122	C	1.317053	-0.671899	-0.101082
C123	C	1.567053	-0.421899	0.148918
C124	C	1.817053	-0.171899	0.398918
C125	C	1.062876	-1.016304	-0.355314
C126	C	1.312876	-0.766304	-0.105314
C127	C	1.562876	-0.516304	0.144686
C128	C	1.812876	-0.266304	0.394686
C129	C	1.028303	-0.786196	-0.389689
C130	C	1.278303	-0.536196	-0.139689
C131	C	1.528303	-0.286196	0.110311
C132	C	1.778303	-0.036196	0.360311
C133	C	1.237476	-0.401701	-0.372510
C134	C	1.487476	-0.151701	-0.122510
C135	C	1.737476	0.098299	0.127490
C136	C	1.987476	0.348299	0.377490
C137	C	1.319274	-0.401712	-0.372516
C138	C	1.569274	-0.151712	-0.122516
C139	C	1.819274	0.098288	0.127484
C140	C	2.069274	0.348288	0.377484
C141	C	1.045571	-0.401617	-0.564445
C142	C	1.295571	-0.151617	-0.314445
C143	C	1.545571	0.098383	-0.064445
C144	C	1.795571	0.348383	0.185555
C145	C	1.045591	-0.401593	-0.646243
C146	C	1.295591	-0.151593	-0.396243
C147	C	1.545591	0.098407	-0.146243
C148	C	1.795591	0.348407	0.103757
C149	C	1.055357	-0.184221	-0.362812
C150	C	1.305357	0.065779	-0.112812
C151	C	1.555357	0.315779	0.137188
C152	C	1.805357	0.565779	0.387188
C153	C	1.059548	-0.091555	-0.358686
C154	C	1.309548	0.158445	-0.108686
C155	C	1.559548	0.408445	0.141314
C156	C	1.809548	0.658445	0.391314
C157	C	1.095091	-0.348227	-0.832066
C158	C	1.345091	-0.098227	-0.582066
C159	C	1.595091	0.151773	-0.332066
C160	C	1.845091	0.401773	-0.082066
C161	C	1.095101	-0.348203	-0.908923
C162	C	1.345101	-0.098203	-0.658923
C163	C	1.595101	0.151797	-0.408923
C164	C	1.845101	0.401797	-0.158923
C165	C	0.996150	-0.454829	-0.913653
C166	C	1.246150	-0.204829	-0.663653
C167	C	1.496150	0.045171	-0.413653
C168	C	1.746150	0.295171	-0.163653
C169	C	0.996137	-0.454849	-0.836797
C170	C	1.246137	-0.204849	-0.586797
C171	C	1.496137	0.045151	-0.336797
C172	C	1.746137	0.295151	-0.086797
C173	C	1.045612	-0.401549	-0.796005
C174	C	1.295612	-0.151549	-0.546005
C175	C	1.545612	0.098451	-0.296005
C176	C	1.795612	0.348451	-0.046005
C177	C	1.045634	-0.401505	-0.949719
C178	C	1.295634	-0.151505	-0.699719
C179	C	1.545634	0.098495	-0.449719
C180	C	1.795634	0.348495	-0.199719
C181	C	1.045645	-0.401479	-1.033052
C182	C	1.295645	-0.151479	-0.783052
C183	C	1.545645	0.098521	-0.533052
C184	C	1.795645	0.348521	-0.283052
C185	C	1.045601	-0.401573	-0.712667
C186	C	1.295601	-0.151573	-0.462667
C187	C	1.545601	0.098427	-0.212667
C188	C	1.795601	0.348427	0.037333
C189	C	1.045522	-0.401672	-0.181289
C190	C	1.295522	-0.151672	0.068711
C191	C	1.545522	0.098328	0.318711
C192	C	1.795522	0.348328	0.568711
C193	C	1.045655	-0.401461	-0.099481
C194	C	1.295655	-0.151461	0.150519
C195	C	1.545655	0.098539	0.400519
C196	C	1.795655	0.348539	0.650519
H197	H	0.480566	-0.305081	-0.453722
H198	H	0.730566	-0.055081	-0.203722
H199	H	0.980566	0.194919	0.046278
H200	H	1.230566	0.444919	0.296278
H201	H	0.984241	-0.916159	-0.433769
H202	H	1.234241	-0.666159	-0.183769
H203	H	1.484241	-0.416159	0.066231
H204	H	1.734241	-0.166159	0.316231
H205	H	0.619993	-0.305066	-0.453718
H206	H	0.869993	-0.055066	-0.203718
H207	H	1.119993	0.194934	0.046282
H208	H	1.369993	0.444934	0.296282
Cl209	Cl	0.453708	-0.521888	-0.271462
Cl210	Cl	0.703708	-0.271888	-0.021462
Cl211	Cl	0.953708	-0.021888	0.228538
Cl212	Cl	1.203708	0.228112	0.478538
H213	H	0.955871	-0.498226	-0.946875
H214	H	1.205871	-0.248226	-0.696875
H215	H	1.455871	0.001774	-0.446875
H216	H	1.705871	0.251774	-0.196875
H217	H	1.106941	-0.886347	-0.311229
H218	H	1.356941	-0.636347	-0.061229
H219	H	1.606941	-0.386347	0.188771
H220	H	1.856941	-0.136347	0.438771
H221	H	0.611236	-0.498288	-0.291273
H222	H	0.861236	-0.248288	-0.041273
H223	H	1.111236	0.001712	0.208727
H224	H	1.361236	0.251712	0.458727
Cl225	Cl	1.157312	-0.281173	-0.954254
Cl226	Cl	1.407312	-0.031173	-0.704254
Cl227	Cl	1.657312	0.218827	-0.454254
Cl228	Cl	1.907312	0.468827	-0.204254
H229	H	0.955840	-0.498269	-0.807436
H230	H	1.205840	-0.248269	-0.557436
H231	H	1.455840	0.001731	-0.307436
H232	H	1.705840	0.251731	-0.057436
H233	H	1.135374	-0.304824	-0.798855
H234	H	1.385374	-0.054824	-0.548855
H235	H	1.635374	0.195176	-0.298855
H236	H	1.885374	0.445176	-0.048855
