data_functionalizedCrystal
_audit_creation_method	'MofGen! by Chris Wilmer'
_symmetry_space_group_name_H-M	'P1'
_symmetry_Int_Tables_number	1
_symmetry_cell_setting	triclinic
loop_
_symmetry_equiv_pos_as_xyz
  x,y,z
_cell_length_a	23.532407
_cell_length_b	14.586319
_cell_length_c	23.532407
_cell_angle_alpha	90.020857
_cell_angle_beta	97.151291
_cell_angle_gamma	89.998126
loop_
_atom_site_label
_atom_site_type_symbol
_atom_site_fract_x
_atom_site_fract_y
_atom_site_fract_z
O1	O	-0.755262	0.076120	0.069141
O2	O	-0.589399	0.076154	0.079144
O3	O	-0.677332	0.076110	-0.008789
O4	O	-0.667329	0.076164	0.157074
O5	O	-0.677320	-0.076371	-0.008804
O6	O	-0.589386	-0.076327	0.079129
O7	O	-0.755250	-0.076361	0.069126
Cu8	Cu	-0.672317	-0.090267	0.074126
Cu9	Cu	-0.672331	0.090060	0.074144
O10	O	-0.667316	-0.076317	0.157059
C11	C	-0.568176	-0.000082	0.078882
C12	C	-0.504959	-0.000070	0.078116
N13	N	-0.672311	-0.217098	0.074114
C14	C	-0.637984	-0.548132	0.039772
C15	C	-0.637980	-0.452150	0.039764
C16	C	-0.706672	-0.452082	0.108495
C17	C	-0.706680	-0.548062	0.108499
C18	C	-0.672332	-0.596084	0.074139
C19	C	-0.672321	-0.404123	0.074127
C20	C	-0.672316	-0.300056	0.074118
C21	C	-0.672337	-0.700158	0.074146
C22	C	-0.105856	-0.000085	0.125350
C23	C	-0.046456	-0.000089	0.124638
O24	O	-0.009711	-0.000107	0.168424
N25	N	-0.023830	-0.000103	0.072362
C26	C	-0.060607	-0.000123	0.020794
O27	O	-0.035908	-0.000137	-0.023737
C28	C	-0.120006	-0.000126	0.021506
C29	C	-0.142629	-0.000102	0.073785
C30	C	-0.128480	-0.000062	0.177625
C31	C	-0.187876	-0.000056	0.178336
C32	C	-0.224649	-0.000073	0.126772
C33	C	-0.202025	-0.000096	0.074496
C34	C	-0.156783	-0.000152	-0.030062
C35	C	-0.216185	-0.000155	-0.029345
C36	C	-0.238808	-0.000131	0.022934
C37	C	-0.298194	-0.000107	0.023643
N38	N	-0.320821	-0.000093	0.075920
C39	C	-0.284048	-0.000076	0.127484
C40	C	0.064135	-0.000120	0.019302
C41	C	0.123533	-0.000110	0.018589
C42	C	0.137680	-0.000078	0.122434
C43	C	0.078281	-0.000080	0.123146
C44	C	0.041509	-0.000105	0.071578
C45	C	-0.408784	-0.000063	0.128974
C46	C	-0.468186	-0.000053	0.129680
C47	C	-0.482329	-0.000091	0.025836
C48	C	-0.422932	-0.000096	0.025129
C49	C	-0.386160	-0.000085	0.076702
O50	O	-0.334974	-0.000093	-0.020119
O51	O	-0.308756	-0.000074	0.172007
C52	C	0.223528	-0.000115	0.069388
C53	C	0.160311	-0.000098	0.070154
C54	C	-0.677071	-0.000135	-0.030013
C55	C	-0.676305	-0.000149	-0.093230
N56	N	-0.672342	0.216891	0.074152
C57	C	-0.621110	-0.000080	-0.359397
C58	C	-0.621821	-0.000087	-0.299997
O59	O	-0.578035	-0.000049	-0.263252
N60	N	-0.674097	-0.000109	-0.277371
C61	C	-0.725666	-0.000113	-0.314148
O62	O	-0.770196	-0.000131	-0.289449
C63	C	-0.724954	-0.000100	-0.373547
C64	C	-0.672674	-0.000088	-0.396170
C65	C	-0.568834	-0.000067	-0.382020
C66	C	-0.568123	-0.000061	-0.441417
C67	C	-0.619687	-0.000069	-0.478190
C68	C	-0.671963	-0.000082	-0.455566
C69	C	-0.776521	-0.000098	-0.410324
C70	C	-0.775805	-0.000083	-0.469726
C71	C	-0.723525	-0.000071	-0.492349
C72	C	-0.722816	-0.000084	-0.551735
N73	N	-0.670539	-0.000063	-0.574361
C74	C	-0.618975	-0.000055	-0.537589
C75	C	-0.727157	-0.000141	-0.189406
C76	C	-0.727870	-0.000161	-0.130008
C77	C	-0.624025	-0.000133	-0.115861
C78	C	-0.623313	-0.000119	-0.175260
C79	C	-0.674881	-0.000119	-0.212032
C80	C	-0.617486	-0.000045	-0.662325
C81	C	-0.616779	-0.000043	-0.721727
C82	C	-0.720623	-0.000066	-0.735869
C83	C	-0.721330	-0.000072	-0.676473
C84	C	-0.669757	-0.000059	-0.639701
O85	O	-0.766579	-0.000119	-0.588514
O86	O	-0.574452	-0.000025	-0.562297
C87	C	-0.667577	-0.000070	0.178283
C88	C	-0.668343	-0.000050	0.241500
H89	H	-0.610017	-0.587228	0.011793
H90	H	-0.734653	-0.587106	0.136485
H91	H	-0.378852	-0.000057	0.170970
H92	H	-0.098544	-0.000051	0.219617
F93	F	-0.492259	-0.000025	0.185326
F94	F	-0.601420	-0.401120	0.003189
F95	F	-0.512479	-0.000040	-0.465485
H96	H	-0.734636	-0.412971	0.136470
H97	H	0.167632	-0.000068	0.164421
H98	H	-0.404512	-0.000102	-0.017441
F99	F	-0.211945	-0.000035	0.233980
F100	F	0.054210	-0.000057	0.178789
F101	F	0.147603	-0.000115	-0.037054
F102	F	-0.561133	-0.000032	-0.745800
F103	F	0.025003	-0.000137	-0.035587
H104	H	-0.762606	-0.000076	-0.765820
H105	H	-0.138374	-0.000172	-0.072634
F106	F	-0.255318	-0.000184	-0.084233
F107	F	-0.513947	-0.000056	-0.342892
H108	H	-0.512280	-0.000101	-0.016146
F109	F	-0.562595	-0.000031	-0.623199
F110	F	-0.567670	-0.000105	-0.199331
F111	F	-0.569145	-0.000124	-0.076714
H112	H	-0.770441	-0.000185	-0.111594
H113	H	-0.817799	-0.000079	-0.499664
H114	H	-0.769152	-0.000147	-0.219343
H115	H	-0.819093	-0.000107	-0.391915
H116	H	-0.763901	-0.000095	-0.658053
