data_functionalizedCrystal
_audit_creation_method	'MofGen! by Chris Wilmer'
_symmetry_space_group_name_H-M	'P1'
_symmetry_Int_Tables_number	1
_symmetry_cell_setting	triclinic
loop_
_symmetry_equiv_pos_as_xyz
  x,y,z
_cell_length_a	33.592126
_cell_length_b	33.591377
_cell_length_c	33.588093
_cell_angle_alpha	60.004089
_cell_angle_beta	60.008299
_cell_angle_gamma	59.994549
loop_
_atom_site_label
_atom_site_type_symbol
_atom_site_fract_x
_atom_site_fract_y
_atom_site_fract_z
O1	O	0.055297	-0.581666	0.486338
O2	O	0.555297	-0.081666	0.986338
O3	O	0.020882	-0.452873	0.391864
O4	O	0.520882	0.047127	0.891864
O5	O	0.102445	-0.534352	0.391775
O6	O	0.602445	-0.034352	0.891775
O7	O	-0.026266	-0.500187	0.486427
O8	O	0.473734	-0.000187	0.986427
O9	O	0.129510	-0.507292	0.418747
O10	O	0.629510	-0.007292	0.918747
O11	O	0.047947	-0.425814	0.418835
O12	O	0.547947	0.074186	0.918835
O13	O	0.082362	-0.554606	0.513309
O14	O	0.582362	-0.054606	1.013309
Cu15	Cu	0.067626	-0.487739	0.468535
Cu16	Cu	0.567626	0.012261	0.968535
Cu17	Cu	0.035618	-0.519740	0.436638
Cu18	Cu	0.535618	-0.019740	0.936638
O19	O	0.000799	-0.473128	0.513398
O20	O	0.500799	0.026872	1.013398
N21	N	0.090139	-0.465235	0.490972
N22	N	0.590139	0.034765	0.990972
N23	N	0.013110	-0.542249	0.414202
N24	N	0.513110	-0.042249	0.914202
C25	C	0.124394	-0.431229	0.734914
C26	C	0.624394	0.068771	1.234914
C27	C	0.334265	-0.431145	0.524799
C28	C	0.834265	0.068855	1.024799
C29	C	0.124204	-0.431200	0.524965
C30	C	0.624204	0.068800	1.024965
C31	C	0.124184	-0.221175	0.524955
C32	C	0.624184	0.278825	1.024955
C33	C	0.158017	-0.322536	0.558710
C34	C	0.658017	0.177464	1.058710
C35	C	0.158027	-0.397406	0.558711
C36	C	0.658027	0.102594	1.058711
C37	C	0.176763	-0.378688	0.577408
C38	C	0.676763	0.121312	1.077408
C39	C	0.258412	-0.364594	0.534386
C40	C	0.758412	0.135406	1.034386
C41	C	0.309454	-0.381596	0.517340
C42	C	0.809454	0.118404	1.017340
C43	C	0.309485	-0.464188	0.548836
C44	C	0.809485	0.035812	1.048836
C45	C	0.258444	-0.447186	0.565883
C46	C	0.758444	0.052814	1.065883
C47	C	0.170304	-0.297002	0.508532
C48	C	0.670304	0.202998	1.008532
C49	C	0.153260	-0.245956	0.491537
C50	C	0.653260	0.254044	0.991537
C51	C	0.111648	-0.245983	0.574901
C52	C	0.611648	0.254017	1.074901
C53	C	0.128691	-0.297029	0.591896
C54	C	0.628691	0.202971	1.091896
C55	C	0.107841	-0.385091	0.571080
C56	C	0.607841	0.114909	1.071080
C57	C	0.090813	-0.402108	0.554078
C58	C	0.590813	0.097892	1.054078
C59	C	0.174153	-0.443755	0.512351
C60	C	0.674153	0.056245	1.012351
C61	C	0.191183	-0.426739	0.529347
C62	C	0.691183	0.073261	1.029347
C63	C	0.107923	-0.385106	0.659111
C64	C	0.607923	0.114894	1.159111
C65	C	0.090955	-0.402138	0.710156
C66	C	0.590955	0.097862	1.210156
C67	C	0.174335	-0.443795	0.710087
C68	C	0.674335	0.056205	1.210087
C69	C	0.191302	-0.426764	0.659041
C70	C	0.691302	0.073236	1.159041
C71	C	0.158095	-0.397418	0.633555
C72	C	0.658095	0.102582	1.133555
C73	C	0.232909	-0.397388	0.558656
C74	C	0.732909	0.102612	1.058656
C75	C	0.105069	-0.449619	0.791057
C76	C	0.605069	0.050381	1.291057
C77	C	0.390406	-0.449193	0.505789
C78	C	0.890406	0.050807	1.005789
C79	C	0.104813	-0.449599	0.506607
C80	C	0.604813	0.050401	1.006607
C81	C	0.105125	-0.165028	0.506915
C82	C	0.605125	0.334972	1.006915
C83	C	-0.020560	-0.576246	0.169890
C84	C	0.479440	-0.076246	0.669890
C85	C	-0.020889	-0.786183	0.379970
C86	C	0.479111	-0.286183	0.879970
C87	C	-0.020859	-0.576235	0.380063
C88	C	0.479141	-0.076235	0.880063
C89	C	-0.230772	-0.576015	0.379658
C90	C	0.269228	-0.076015	0.879658
C91	C	-0.129417	-0.609898	0.346025
C92	C	0.370583	-0.109898	0.846025
C93	C	-0.054587	-0.609979	0.346172
C94	C	0.445413	-0.109979	0.846172
C95	C	-0.073269	-0.628671	0.327396
C96	C	0.426731	-0.128671	0.827396
C97	C	-0.087401	-0.710299	0.370335
C98	C	0.412599	-0.210299	0.870335
C99	C	-0.070424	-0.761345	0.387369
C100	C	0.429576	-0.261345	0.887369
C101	C	0.012165	-0.761428	0.356003
C102	C	0.512165	-0.261428	0.856003
C103	C	-0.004813	-0.710383	0.338967
C104	C	0.495187	-0.210383	0.838967
C105	C	-0.155001	-0.622196	0.396191
C106	C	0.344999	-0.122196	0.896191
C107	C	-0.206043	-0.605128	0.413125
C108	C	0.293957	-0.105128	0.913125
C109	C	-0.205914	-0.563467	0.329724
C110	C	0.294086	-0.063467	0.829724
C111	C	-0.154872	-0.580535	0.312790
C112	C	0.345128	-0.080535	0.812790
C113	C	-0.066886	-0.559797	0.333828
C114	C	0.433114	-0.059797	0.833828
C115	C	-0.049903	-0.542809	0.350903
C116	C	0.450097	-0.042809	0.850903
C117	C	-0.008321	-0.626180	0.392654
C118	C	0.491679	-0.126180	0.892654
C119	C	-0.025304	-0.643170	0.375585
C120	C	0.474696	-0.143170	0.875585
C121	C	-0.066758	-0.559805	0.245702
C122	C	0.433242	-0.059805	0.745702
C123	C	-0.049671	-0.542819	0.194658
C124	C	0.450329	-0.042819	0.694658
C125	C	-0.008026	-0.626194	0.194706
C126	C	0.491974	-0.126194	0.694706
C127	C	-0.025111	-0.643179	0.245752
C128	C	0.474889	-0.143179	0.745752
C129	C	-0.054479	-0.609983	0.271248
C130	C	0.445521	-0.109983	0.771248
C131	C	-0.054597	-0.684821	0.346135
C132	C	0.445403	-0.184821	0.846135
C133	C	-0.002109	-0.556901	0.113746
C134	C	0.497891	-0.056901	0.613746
C135	C	-0.002869	-0.842328	0.398966
C136	C	0.497131	-0.342328	0.898966
C137	C	-0.002496	-0.556887	0.398501
C138	C	0.497504	-0.056887	0.898501
C139	C	-0.286914	-0.556929	0.397631
C140	C	0.213086	-0.056929	0.897631
N141	N	0.436349	-0.465146	0.490703
N142	N	0.936349	0.034854	0.990703
O143	O	0.592194	-0.469605	0.374236
O144	O	1.092194	0.030395	0.874236
O145	O	0.592389	-0.564393	0.502890
O146	O	1.092389	-0.064393	1.002890
O147	O	0.592305	-0.564176	0.421300
O148	O	1.092305	-0.064176	0.921300
O149	O	0.592277	-0.469822	0.455826
O150	O	1.092277	0.030178	0.955826
O151	O	0.511216	-0.537214	0.448415
O152	O	1.011216	-0.037214	0.948415
O153	O	0.511300	-0.537431	0.530004
O154	O	1.011300	-0.037431	1.030004
O155	O	0.511104	-0.442643	0.401350
O156	O	1.011104	0.057357	0.901350
Cu157	Cu	0.503798	-0.487575	0.468153
Cu158	Cu	1.003798	0.012425	0.968153
Cu159	Cu	0.599695	-0.519461	0.436087
Cu160	Cu	1.099695	-0.019461	0.936087
O161	O	0.511188	-0.442860	0.482940
O162	O	1.011188	0.057140	0.982940
N163	N	0.667145	-0.541890	0.413532
N164	N	1.167145	-0.041890	0.913532
N165	N	0.090108	-0.119085	0.490958
N166	N	0.590108	0.380915	0.990958
O167	O	-0.026275	0.036848	0.486394
O168	O	0.473725	0.536848	0.986394
O169	O	0.102381	0.036888	0.391584
O170	O	0.602381	0.536888	0.891584
O171	O	0.020751	0.036852	0.391854
O172	O	0.520751	0.536852	0.891854
O173	O	0.055356	0.036884	0.486124
O174	O	0.555356	0.536884	0.986124
O175	O	0.047821	-0.044242	0.418876
O176	O	0.547821	0.455758	0.918876
O177	O	0.129452	-0.044207	0.418606
O178	O	0.629452	0.455793	0.918606
O179	O	0.000796	-0.044246	0.513417
O180	O	0.500796	0.455754	1.013417
Cu181	Cu	0.067596	-0.051631	0.468479
Cu182	Cu	0.567596	0.448369	0.968479
Cu183	Cu	0.035582	0.044273	0.436522
Cu184	Cu	0.535582	0.544273	0.936522
O185	O	0.082426	-0.044211	0.513146
O186	O	0.582426	0.455789	1.013146
N187	N	0.013063	0.111726	0.414043
N188	N	0.513063	0.611726	0.914043
N189	N	0.090453	-0.465282	0.837001
N190	N	0.590453	0.034718	1.337001
O191	O	0.085913	-0.581648	0.992925
O192	O	0.585913	-0.081648	1.492925
O193	O	-0.008857	-0.452947	0.992970
O194	O	0.491143	0.047053	1.492970
O195	O	-0.008635	-0.534562	0.992946
O196	O	0.491365	-0.034562	1.492946
O197	O	0.085691	-0.500033	0.992949
O198	O	0.585691	-0.000033	1.492949
O199	O	0.018365	-0.507512	0.911855
O200	O	0.518365	-0.007512	1.411855
O201	O	0.018143	-0.425898	0.911878
O202	O	0.518143	0.074102	1.411878
O203	O	0.112912	-0.554598	0.911834
O204	O	0.612912	-0.054598	1.411834
Cu205	Cu	0.067993	-0.487778	0.904452
Cu206	Cu	0.567993	0.012222	1.404452
Cu207	Cu	0.036063	-0.519767	1.000352
Cu208	Cu	0.536063	-0.019767	1.500352
O209	O	0.112691	-0.472984	0.911857
O210	O	0.612691	0.027016	1.411857
N211	N	0.013602	-0.542269	1.067803
N212	N	0.513602	-0.042269	1.567803
C213	C	0.031188	-0.423114	0.392334
C214	C	0.531188	0.076886	0.892334
C215	C	0.132194	-0.524016	0.392223
C216	C	0.632194	-0.024016	0.892223
C217	C	0.072056	-0.584366	0.512840
C218	C	0.572056	-0.084366	1.012840
C219	C	-0.028950	-0.483464	0.512950
C220	C	0.471050	0.016536	1.012950
C221	C	0.551868	-0.563965	0.532655
C222	C	1.051868	-0.063965	1.032655
C223	C	0.551766	-0.563697	0.431617
C224	C	1.051766	-0.063697	0.931617
C225	C	0.551623	-0.443070	0.371586
C226	C	1.051623	0.056930	0.871586
C227	C	0.551728	-0.443339	0.472623
C228	C	1.051728	0.056661	0.972623
C229	C	0.132090	-0.003555	0.392006
C230	C	0.632090	0.496445	0.892006
C231	C	0.031035	-0.003698	0.392374
C232	C	0.531035	0.496302	0.892374
C233	C	-0.028947	-0.003703	0.512961
C234	C	0.471053	0.496297	1.012961
C235	C	0.072143	-0.003661	0.512626
C236	C	0.572143	0.496339	1.012626
C237	C	-0.008408	-0.423209	0.952430
C238	C	0.491592	0.076791	1.452430
C239	C	-0.008128	-0.524272	0.952385
C240	C	0.491872	-0.024272	1.452385
C241	C	0.112464	-0.584336	0.952374
C242	C	0.612464	-0.084336	1.452374
C243	C	0.112190	-0.483267	0.952401
C244	C	0.612190	0.016733	1.452401
H245	H	0.080878	-0.361206	0.638363
H246	H	0.580878	0.138794	1.138363
H247	H	-0.059919	-0.501948	0.340854
H248	H	0.440081	-0.001948	0.840854
O249	O	0.022270	-0.003686	0.356978
O250	O	0.522270	0.496314	0.856978
C251	C	0.064122	-0.003689	0.314892
C252	C	0.564122	0.496311	0.814892
H253	H	0.087410	0.011677	0.315285
H254	H	0.587410	0.511677	0.815285
H255	H	0.052662	0.019849	0.281053
H256	H	0.552662	0.519849	0.781053
H257	H	0.086136	-0.042592	0.314304
H258	H	0.586136	0.457408	0.814304
O259	O	0.148022	-0.628396	0.952337
O260	O	0.648022	-0.128396	1.452337
C261	C	0.189985	-0.628388	0.952347
C262	C	0.689985	-0.128388	1.452347
H263	H	0.189399	-0.589273	0.937005
H264	H	0.689399	-0.089273	1.437005
H265	H	0.223919	-0.650062	0.928793
H266	H	0.723919	-0.150062	1.428793
H267	H	0.190571	-0.645821	0.991248
H268	H	0.690571	-0.145821	1.491248
H269	H	0.551779	-0.593338	0.424228
H270	H	1.051779	-0.093338	0.924228
H271	H	0.551918	-0.593721	0.569607
H272	H	1.051918	-0.093721	1.069607
H273	H	-0.065895	-0.003715	0.542725
H274	H	0.434105	0.496285	1.042725
O275	O	0.551571	-0.407625	0.327475
O276	O	1.051571	0.092375	0.827475
C277	C	0.551536	-0.425177	0.297144
C278	C	1.051536	0.074823	0.797144
H279	H	0.566934	-0.466709	0.310323
H280	H	1.066934	0.033291	0.810323
H281	H	0.575027	-0.410198	0.258073
H282	H	1.075027	0.089802	0.758073
H283	H	0.512620	-0.412816	0.298508
H284	H	1.012620	0.087184	0.798508
H285	H	0.169160	-0.531297	0.362501
H286	H	0.669160	-0.031297	0.862501
O287	O	0.081071	-0.003682	0.547918
O288	O	0.581071	0.496318	1.047918
C289	C	0.128995	-0.003655	0.530130
C290	C	0.628995	0.496345	1.030130
H291	H	0.152044	-0.018998	0.498825
H292	H	0.652044	0.481002	0.998825
H293	H	0.145429	-0.027200	0.560651
H294	H	0.645429	0.472800	1.060651
H295	H	0.128266	0.035253	0.516532
H296	H	0.628266	0.535253	1.016532
O297	O	-0.073029	-0.474732	0.548424
O298	O	0.426971	0.025268	1.048424
C299	C	-0.081753	-0.435264	0.559672
C300	C	0.418247	0.064736	1.059672
H301	H	-0.045549	-0.431339	0.548876
H302	H	0.454451	0.068661	1.048876
H303	H	-0.101472	-0.442225	0.600492
H304	H	0.398528	0.057775	1.100492
H305	H	-0.105292	-0.400313	0.538747
H306	H	0.394708	0.099687	1.038747
H307	H	0.551722	-0.413701	0.480010
H308	H	1.051722	0.086299	0.980010
O309	O	-0.230668	-0.535015	0.297463
O310	O	0.269332	-0.035015	0.797463
C311	C	-0.260211	-0.558168	0.304764
C312	C	0.239789	-0.058168	0.804764
H313	H	-0.244872	-0.599092	0.323314
H314	H	0.255128	-0.099092	0.823314
H315	H	-0.260742	-0.551059	0.268072
H316	H	0.239258	-0.051059	0.768072
H317	H	-0.298908	-0.543077	0.328808
H318	H	0.201092	-0.043077	0.828808
H319	H	-0.037749	-0.531650	0.952352
H320	H	0.462251	-0.031650	1.452352
H321	H	0.141823	-0.475877	0.952395
H322	H	0.641823	0.024123	1.452395
O323	O	0.176096	-0.003249	0.356452
O324	O	0.676096	0.496751	0.856452
C325	C	0.206432	-0.003152	0.373950
C326	C	0.706432	0.496848	0.873950
H327	H	0.182986	0.012037	0.405365
H328	H	0.682986	0.512037	0.905365
H329	H	0.229594	0.020588	0.343326
H330	H	0.729594	0.520588	0.843326
H331	H	0.231247	-0.042002	0.387309
H332	H	0.731247	0.457998	0.887309
H333	H	-0.038161	-0.386246	0.952443
H334	H	0.461839	0.113754	1.452443
O335	O	0.233744	-0.479106	0.589429
O336	O	0.733744	0.020894	1.089429
C337	C	0.267230	-0.526705	0.592158
C338	C	0.767230	-0.026705	1.092158
H339	H	0.303597	-0.524753	0.561992
H340	H	0.803597	-0.024753	1.061992
H341	H	0.252475	-0.547660	0.587551
H342	H	0.752475	-0.047660	1.087551
H343	H	0.272694	-0.546193	0.629137
H344	H	0.772694	-0.046193	1.129137
O345	O	0.042203	-0.390189	0.734922
O346	O	0.542203	0.109811	1.234922
C347	C	0.020989	-0.407656	0.722479
C348	C	0.520989	0.092344	1.222479
H349	H	0.045164	-0.412650	0.685410
H350	H	0.545164	0.087350	1.185410
H351	H	-0.016567	-0.380302	0.720760
H352	H	0.483433	0.119698	1.220760
H353	H	0.017214	-0.444139	0.751204
H354	H	0.517214	0.055861	1.251204
O355	O	0.206613	-0.472362	0.734818
O356	O	0.706613	0.027638	1.234818
C357	C	0.236138	-0.515158	0.722314
C358	C	0.736138	-0.015158	1.222314
H359	H	0.216413	-0.522265	0.708306
H360	H	0.716413	-0.022265	1.208306
H361	H	0.243897	-0.547315	0.755865
H362	H	0.743897	-0.047315	1.255865
H363	H	0.271978	-0.510501	0.692661
H364	H	0.771978	-0.010501	1.192661
O365	O	0.240031	-0.438641	0.634163
O366	O	0.740031	0.061359	1.134163
C367	C	0.252340	-0.395745	0.604644
C368	C	0.752340	0.104255	1.104644
H369	H	0.218686	-0.363676	0.597025
H370	H	0.718686	0.136324	1.097025
H371	H	0.281918	-0.400299	0.568736
H372	H	0.781918	0.099701	1.068736
H373	H	0.266372	-0.388573	0.624298
H374	H	0.766372	0.111427	1.124298
H375	H	0.049948	-0.392069	0.564138
H376	H	0.549948	0.107931	1.064138
O377	O	0.075567	-0.356584	0.599579
O378	O	0.575567	0.143416	1.099579
C379	C	0.027621	-0.349371	0.606855
C380	C	0.527621	0.150629	1.106855
H381	H	0.027685	-0.355067	0.576088
H382	H	0.527685	0.144933	1.076088
H383	H	0.003378	-0.310662	0.607142
H384	H	0.503378	0.189338	1.107142
H385	H	0.013028	-0.376551	0.643218
H386	H	0.513028	0.123449	1.143218
H387	H	0.201155	-0.467643	0.488446
H388	H	0.701155	0.032357	0.988446
H389	H	0.232048	-0.436761	0.519270
H390	H	0.732048	0.063239	1.019270
H391	H	0.330277	-0.504737	0.554712
H392	H	0.830277	-0.004737	1.054712
H393	H	0.330218	-0.354891	0.497577
H394	H	0.830218	0.145109	0.997577
H395	H	0.079411	-0.621363	0.542512
H396	H	0.579411	-0.121363	1.042512
H397	H	0.015526	-0.653210	0.416597
H398	H	0.515526	-0.153210	0.916597
O399	O	0.233663	-0.316202	0.527281
O400	O	0.733663	0.183798	1.027281
C401	C	0.246084	-0.289860	0.476884
C402	C	0.746084	0.210140	0.976884
H403	H	0.283137	-0.312156	0.456767
H404	H	0.783137	0.187844	0.956767
H405	H	0.247825	-0.253873	0.470136
H406	H	0.747825	0.246127	0.970136
H407	H	0.217336	-0.282250	0.462997
H408	H	0.717336	0.217750	0.962997
O409	O	0.198765	-0.321705	0.476232
O410	O	0.698765	0.178295	0.976232
C411	C	0.205958	-0.288220	0.428298
C412	C	0.705958	0.211780	0.928298
H413	H	0.175174	-0.251841	0.428414
H414	H	0.675174	0.248159	0.928414
H415	H	0.206201	-0.302964	0.404075
H416	H	0.706201	0.197036	0.904075
H417	H	0.242316	-0.282777	0.413645
H418	H	0.742316	0.217223	0.913645
H419	H	0.163263	-0.225165	0.450676
H420	H	0.663263	0.274835	0.950676
O421	O	-0.013294	-0.691932	0.387599
O422	O	0.486706	-0.191932	0.887599
C423	C	0.016184	-0.717586	0.417230
C424	C	0.516184	-0.217586	0.917230
H425	H	0.034743	-0.693270	0.410762
H426	H	0.534743	-0.193270	0.910762
H427	H	0.045060	-0.751670	0.407695
H428	H	0.545060	-0.251670	0.907695
H429	H	-0.007414	-0.728564	0.457191
H430	H	0.492586	-0.228564	0.957191
H431	H	0.087777	-0.225214	0.601924
H432	H	0.587777	0.274786	1.101924
H433	H	0.118680	-0.317820	0.632757
H434	H	0.618680	0.182180	1.132757
H435	H	-0.090673	-0.532769	0.266460
H436	H	0.409327	-0.032769	0.766460
O437	O	-0.061671	-0.494056	0.169923
O438	O	0.438329	0.005944	0.669923
C439	C	-0.091245	-0.468403	0.203376
C440	C	0.408755	0.031597	0.703376
H441	H	-0.109844	-0.492723	0.239744
H442	H	0.390156	0.007277	0.739744
H443	H	-0.120089	-0.434323	0.188576
H444	H	0.379911	0.065677	0.688576
H445	H	-0.067718	-0.457420	0.208858
H446	H	0.432282	0.042580	0.708858
H447	H	0.015877	-0.653227	0.173952
H448	H	0.515877	-0.153227	0.673952
H449	H	-0.015108	-0.684041	0.266548
H450	H	0.484892	-0.184041	0.766548
H451	H	0.021903	-0.689639	0.319262
H452	H	0.521903	-0.189639	0.819262
O453	O	-0.095346	-0.527489	0.305282
O454	O	0.404654	-0.027489	0.805282
C455	C	-0.102551	-0.479556	0.298044
C456	C	0.397449	0.020444	0.798044
H457	H	-0.096897	-0.479652	0.328854
H458	H	0.403103	0.020348	0.828854
H459	H	-0.141242	-0.455289	0.297711
H460	H	0.358758	0.044711	0.797711
H461	H	-0.075341	-0.464965	0.261713
H462	H	0.424659	0.035035	0.761713
O463	O	0.022454	-0.379020	0.356871
O464	O	0.522454	0.120980	0.856871
C465	C	0.027858	-0.385382	0.315793
C466	C	0.527858	0.114618	0.815793
H467	H	0.052286	-0.424252	0.316236
H468	H	0.552286	0.075748	0.816236
H469	H	0.045091	-0.358581	0.281163
H470	H	0.545091	0.141419	0.781163
H471	H	-0.009432	-0.378458	0.316762
H472	H	0.490568	0.121542	0.816762
H473	H	0.052703	-0.782242	0.350169
H474	H	0.552703	-0.282242	0.850169
H475	H	-0.127938	-0.689491	0.376175
H476	H	0.372062	-0.189491	0.876175
O477	O	-0.102367	-0.786021	0.410943
O478	O	0.397633	-0.286021	0.910943
C479	C	-0.149951	-0.752513	0.413637
C480	C	0.350049	-0.252513	0.913637
H481	H	-0.151902	-0.716120	0.410238
H482	H	0.348098	-0.216120	0.910238
H483	H	-0.176941	-0.767206	0.450128
H484	H	0.323059	-0.267206	0.950128
H485	H	-0.159487	-0.747116	0.382726
H486	H	0.340513	-0.247116	0.882726
H487	H	-0.134277	-0.646110	0.423254
H488	H	0.365723	-0.146110	0.923254
H489	H	-0.226875	-0.615140	0.453976
H490	H	0.273125	-0.115140	0.953976
H491	H	-0.134040	-0.570516	0.271939
H492	H	0.365960	-0.070516	0.771939
