data_functionalizedCrystal
_audit_creation_method	'MofGen! by Chris Wilmer'
_symmetry_space_group_name_H-M	'P1'
_symmetry_Int_Tables_number	1
_symmetry_cell_setting	triclinic
loop_
_symmetry_equiv_pos_as_xyz
  x,y,z
_cell_length_a	19.121063
_cell_length_b	19.121147
_cell_length_c	18.215399
_cell_angle_alpha	92.459497
_cell_angle_beta	92.409843
_cell_angle_gamma	89.873734
loop_
_atom_site_label
_atom_site_type_symbol
_atom_site_fract_x
_atom_site_fract_y
_atom_site_fract_z
Zn1	Zn	-0.324920	-1.059850	-0.477954
Zn2	Zn	-0.442158	-1.054756	-0.359893
Zn3	Zn	-0.319932	-0.942612	-0.349442
Zn4	Zn	-0.437109	-0.937575	-0.477459
O5	O	-0.381030	-0.998698	-0.416187
O6	O	-0.344673	-1.157279	-0.466873
O7	O	-0.425969	-1.039856	-0.255522
O8	O	-0.222490	-0.962404	-0.362323
O9	O	-0.430806	-1.153536	-0.380134
O10	O	-0.226155	-1.048538	-0.456740
O11	O	-0.336170	-0.957464	-0.247844
O12	O	-0.331275	-0.843839	-0.361843
O13	O	-0.422202	-0.953819	-0.580509
O14	O	-0.417365	-0.840138	-0.455896
O15	O	-0.339777	-1.043654	-0.580872
O16	O	-0.539591	-1.034971	-0.379654
O17	O	-0.535882	-0.948879	-0.466029
C18	C	-0.373231	-0.816551	-0.407682
C19	C	-0.369912	-0.738627	-0.404062
C20	C	-0.348853	-0.298002	-0.381135
C21	C	-0.351976	-0.371219	-0.384540
C22	C	-0.398434	-0.405914	-0.435138
C23	C	-0.441766	-0.367388	-0.482338
C24	C	-0.438639	-0.294172	-0.478936
C25	C	-0.410117	-0.626884	-0.447861
C26	C	-0.413242	-0.700106	-0.451258
C27	C	-0.323451	-0.703932	-0.353460
C28	C	-0.320331	-0.630714	-0.350059
C29	C	-0.363661	-0.592194	-0.397262
C30	C	-0.401628	-0.480754	-0.438619
C31	C	-0.360462	-0.517356	-0.393785
C32	C	-0.563175	-0.990845	-0.423939
C33	C	-0.641100	-0.987550	-0.427283
C34	C	-0.679619	-1.030860	-0.383924
C35	C	-0.752838	-1.027764	-0.387073
C36	C	-0.787536	-0.981355	-0.433579
C37	C	-0.749012	-0.938043	-0.476943
C38	C	-0.675795	-0.941142	-0.473797
C39	C	-1.008511	-0.969756	-0.445330
C40	C	-1.081733	-0.966659	-0.448471
C41	C	-1.085553	-1.056381	-0.358602
C42	C	-1.012334	-1.059474	-0.355457
C43	C	-0.973817	-1.016164	-0.398824
C44	C	-0.862378	-0.978189	-0.436798
C45	C	-0.898977	-1.019335	-0.395608
C46	C	-0.198174	-1.006601	-0.408421
C47	C	-0.120252	-1.009969	-0.405112
C48	C	-0.380983	-0.998743	-0.608140
C49	C	-0.380963	-0.998762	-0.689939
C50	C	-0.388856	-0.181557	-0.424716
C51	C	-0.392184	-0.259480	-0.428330
C52	C	-0.338004	-1.045557	-0.878322
C53	C	-0.337983	-1.045566	-0.955180
C54	C	-0.423817	-0.952021	-0.954791
C55	C	-0.423833	-0.952009	-0.877933
C56	C	-0.380927	-0.998781	-0.839701
C57	C	-0.380891	-0.998802	-0.993417
C58	C	-0.380870	-0.998812	-1.076750
C59	C	-0.380948	-0.998771	-0.756363
C60	C	-0.381027	-0.998696	-0.224980
C61	C	-0.380855	-0.998821	-0.143180
H62	H	-0.288174	-0.735303	-0.315031
H63	H	-0.479590	-0.395642	-0.523539
Cl64	Cl	-0.284026	-1.104379	-1.003730
H65	H	-0.451074	-0.728352	-0.492465
Cl66	Cl	-0.855354	-1.077679	-0.337149
H67	H	-0.311023	-0.269758	-0.339932
Cl68	Cl	-0.477794	-0.893196	-0.829377
Cl69	Cl	-0.968719	-1.117829	-0.297001
Cl70	Cl	-0.792634	-0.879704	-0.535412
Cl71	Cl	-0.906005	-0.919846	-0.495259
Cl72	Cl	-0.627371	-0.886695	-0.528311
H73	H	-0.282506	-0.602471	-0.308852
H74	H	-0.473922	-0.262808	-0.517370
H75	H	-1.109983	-0.928875	-0.486355
Cl76	Cl	-0.297495	-0.419643	-0.325211
Cl77	Cl	-0.464593	-0.578469	-0.507199
Cl78	Cl	-0.284063	-1.104353	-0.830261
H79	H	-0.322634	-0.489104	-0.352591
H80	H	-0.439456	-0.509011	-0.479814
Cl81	Cl	-0.477756	-0.893230	-1.002859
H82	H	-0.651372	-1.068648	-0.346051
H83	H	-0.784196	-1.063032	-0.351765
H84	H	-1.116922	-1.091642	-0.323296
H85	H	-0.977155	-0.934491	-0.480640
