data_functionalizedCrystal
_audit_creation_method	'MofGen! by Chris Wilmer'
_symmetry_space_group_name_H-M	'P1'
_symmetry_Int_Tables_number	1
_symmetry_cell_setting	triclinic
loop_
_symmetry_equiv_pos_as_xyz
  x,y,z
_cell_length_a	16.109301
_cell_length_b	9.730223
_cell_length_c	10.654550
_cell_angle_alpha	89.998582
_cell_angle_beta	96.026808
_cell_angle_gamma	89.996899
loop_
_atom_site_label
_atom_site_type_symbol
_atom_site_fract_x
_atom_site_fract_y
_atom_site_fract_z
O1	O	1.104086	0.114199	-0.161417
O2	O	0.862143	0.114221	-0.181506
O3	O	0.988677	0.114205	0.011353
O4	O	0.977552	0.114216	-0.354276
O5	O	0.988678	-0.114375	0.011353
O6	O	0.862144	-0.114359	-0.181506
O7	O	1.104086	-0.114381	-0.161418
Zn8	Zn	0.983115	-0.150662	-0.171462
Zn9	Zn	0.983115	0.150502	-0.171462
O10	O	0.977552	-0.114364	-0.354276
C11	C	0.831164	-0.000066	-0.180692
C12	C	0.738854	-0.000058	-0.178253
N13	N	0.983121	-0.356198	-0.171461
C14	C	1.033976	-0.572035	-0.247643
C15	C	1.033978	-0.428152	-0.247651
C16	C	0.932254	-0.428135	-0.095268
C17	C	0.932249	-0.572015	-0.095267
C18	C	1.092709	-0.572043	-0.335616
C19	C	1.092710	-0.428160	-0.335624
C20	C	0.517228	-0.000071	-0.287019
C21	C	0.430494	-0.000080	-0.284717
C22	C	0.449008	-0.000081	-0.055896
C23	C	0.535741	-0.000082	-0.058199
C24	C	0.569848	-0.000070	-0.173764
C25	C	0.396382	-0.000078	-0.169159
C26	C	0.302341	-0.000087	-0.166662
C27	C	0.663895	-0.000063	-0.176262
C28	C	1.135066	-0.000090	-0.162231
C29	C	1.227376	-0.000089	-0.164671
C30	C	0.987861	-0.000084	0.058140
C31	C	0.985417	-0.000079	0.197550
N32	N	0.983115	0.356038	-0.171452
C33	C	0.978369	-0.000073	-0.401063
C34	C	0.980813	-0.000069	-0.540473
C35	C	1.059918	-0.000089	0.278046
C36	C	1.057616	-0.000080	0.409036
C37	C	0.906306	-0.000054	0.379020
C38	C	0.908608	-0.000054	0.248033
C39	C	1.147276	-0.000110	0.295377
C40	C	1.144974	-0.000100	0.426367
H41	H	0.890825	-0.630573	-0.033237
H42	H	1.066554	-0.383531	-0.430553
F43	F	1.178416	-0.377128	-0.294108
F44	F	1.174545	-0.630398	-0.282921
H45	H	0.890840	-0.369539	-0.033242
F46	F	0.412701	-0.000088	0.067090
H47	H	0.544995	-0.000071	-0.381119
H48	H	0.387654	-0.000083	-0.376940
F49	F	0.591746	-0.000090	0.062348
H50	H	0.847942	-0.000026	0.182496
H51	H	1.072235	-0.611083	-0.434933
F52	F	0.824566	-0.000024	0.432759
F53	F	1.191936	0.124909	0.257603
F54	F	1.183624	-0.129123	0.249295
H55	H	1.171375	0.098592	0.472368
H56	H	1.177890	-0.095762	0.468573
