data_functionalizedCrystal
_audit_creation_method	'MofGen! by Chris Wilmer'
_symmetry_space_group_name_H-M	'P1'
_symmetry_Int_Tables_number	1
_symmetry_cell_setting	triclinic
loop_
_symmetry_equiv_pos_as_xyz
  x,y,z
_cell_length_a	29.839131
_cell_length_b	19.077105
_cell_length_c	29.839125
_cell_angle_alpha	87.691159
_cell_angle_beta	89.982291
_cell_angle_gamma	87.737628
loop_
_atom_site_label
_atom_site_type_symbol
_atom_site_fract_x
_atom_site_fract_y
_atom_site_fract_z
Zn1	Zn	-0.206556	1.075833	-0.281562
Zn2	Zn	-0.281665	1.075726	-0.206430
Zn3	Zn	-0.203530	0.958152	-0.203431
Zn4	Zn	-0.278634	0.958070	-0.278517
O5	O	-0.242596	1.016945	-0.242485
O6	O	-0.219055	1.174308	-0.274125
O7	O	-0.271302	1.060120	-0.143164
O8	O	-0.141066	0.973841	-0.213814
O9	O	-0.274237	1.174230	-0.218925
O10	O	-0.143290	1.060301	-0.271217
O11	O	-0.213896	0.973738	-0.140961
O12	O	-0.210957	0.859652	-0.210862
O13	O	-0.269071	0.973702	-0.341789
O14	O	-0.266136	0.859592	-0.266028
O15	O	-0.216116	1.060222	-0.344026
O16	O	-0.344128	1.060040	-0.215973
O17	O	-0.341902	0.973599	-0.268935
C18	C	-0.237890	0.834085	-0.237789
C19	C	-0.235887	0.755856	-0.235791
C20	C	-0.263718	0.719091	-0.263529
C21	C	-0.261831	0.645587	-0.261653
C22	C	-0.232114	0.608850	-0.232037
C23	C	-0.204279	0.645620	-0.204298
C24	C	-0.206165	0.719122	-0.206176
C25	C	-0.223387	0.389021	-0.223348
C26	C	-0.221504	0.315513	-0.221471
C27	C	-0.279055	0.315486	-0.278827
C28	C	-0.280940	0.388990	-0.280700
C29	C	-0.253104	0.425754	-0.252963
N30	N	-0.230185	0.533717	-0.230119
N31	N	-0.255031	0.500886	-0.254884
C32	C	-0.359316	1.016818	-0.242459
C33	C	-0.409250	1.016828	-0.242465
C34	C	-0.720046	1.062037	-0.214951
C35	C	-0.907721	1.062124	-0.214971
O36	O	-0.932963	1.100462	-0.191558
N37	N	-0.930042	1.017091	-0.242523
C38	C	-0.905442	0.972037	-0.270073
O39	O	-0.928733	0.933741	-0.293511
C40	C	-0.717767	0.971954	-0.270056
C41	C	-0.695449	1.016985	-0.242499
C42	C	-0.697727	1.107065	-0.187397
C43	C	-0.650811	1.107040	-0.187391
C44	C	-0.626214	1.061988	-0.214939
C45	C	-0.648532	1.016960	-0.242493
C46	C	-0.693168	0.926904	-0.297608
C47	C	-0.646246	0.926888	-0.297602
C48	C	-0.623927	0.971919	-0.270046
C49	C	-0.577019	0.971883	-0.270034
N50	N	-0.554698	1.016915	-0.242482
C51	C	-0.579295	1.061968	-0.214935
C52	C	-1.003973	0.972083	-0.270080
C53	C	-1.050892	0.972102	-0.270084
C54	C	-1.053168	1.062191	-0.214982
C55	C	-1.006249	1.062167	-0.214976
C56	C	-0.981652	1.017115	-0.242528
C57	C	-0.480768	1.061912	-0.214923
C58	C	-0.433848	1.061881	-0.214918
C59	C	-0.431576	0.971795	-0.270021
C60	C	-0.478492	0.971823	-0.270025
C61	C	-0.503087	1.016887	-0.242474
O62	O	-0.551749	0.933571	-0.293438
O63	O	-0.555995	1.100269	-0.191507
C64	C	-0.766962	1.062062	-0.214958
C65	C	-0.789281	1.017035	-0.242512
C66	C	-0.764683	0.971982	-0.270059
C67	C	-0.836199	1.017054	-0.242516
C68	C	-0.860796	1.062107	-0.214968
C69	C	-0.838475	1.107140	-0.187417
C70	C	-0.791559	1.107115	-0.187410
C71	C	-0.787005	0.926949	-0.297611
C72	C	-0.833921	0.926977	-0.297615
C73	C	-0.858518	0.972030	-0.270067
C74	C	-0.125422	1.017092	-0.242521
C75	C	-0.075489	1.017155	-0.242536
C76	C	-0.242593	1.016964	-0.359664
C77	C	-0.242591	1.016973	-0.409598
C78	C	-0.247322	1.200520	-0.247200
C79	C	-0.249335	1.278749	-0.249209
C80	C	-0.214943	1.062071	-0.720411
C81	C	-0.214906	1.062106	-0.908085
O82	O	-0.191440	1.100397	-0.933343
N83	N	-0.242473	1.017066	-0.930386
C84	C	-0.270050	0.972011	-0.905766
O85	O	-0.293494	0.933698	-0.929040
C86	C	-0.270085	0.971973	-0.718092
C87	C	-0.242519	1.017021	-0.695794
C88	C	-0.187379	1.107114	-0.698113
C89	C	-0.187391	1.107108	-0.651197
C90	C	-0.214966	1.062058	-0.626580
C91	C	-0.242530	1.017014	-0.648878
C92	C	-0.297659	0.926915	-0.693473
C93	C	-0.297664	0.926908	-0.646551
C94	C	-0.270098	0.971956	-0.624253
C95	C	-0.270117	0.971958	-0.577346
N96	N	-0.242550	1.016998	-0.555045
C97	C	-0.214974	1.062047	-0.579662
C98	C	-0.270030	0.972035	-1.004297
C99	C	-0.270022	0.972045	-1.051215
C100	C	-0.214878	1.062139	-1.053531
C101	C	-0.214888	1.062132	-1.006612
C102	C	-0.242463	1.017075	-0.981996
C103	C	-0.215001	1.062031	-0.481135
C104	C	-0.215016	1.062022	-0.434216
C105	C	-0.270159	0.971926	-0.431903
C106	C	-0.270145	0.971937	-0.478819
C107	C	-0.242563	1.016992	-0.503434
O108	O	-0.293567	0.933681	-0.552060
O109	O	-0.191527	1.100344	-0.556379
C110	C	-0.214932	1.062077	-0.767327
C111	C	-0.242496	1.017034	-0.789625
C112	C	-0.270071	0.971984	-0.765008
C113	C	-0.242488	1.017044	-0.836543
C114	C	-0.214912	1.062094	-0.861160
C115	C	-0.187345	1.107134	-0.838859
C116	C	-0.187356	1.107127	-0.791944
C117	C	-0.297639	0.926944	-0.787309
C118	C	-0.297626	0.926955	-0.834225
C119	C	-0.270050	0.972005	-0.858842
C120	C	-0.242569	1.016967	-0.125763
C121	C	-0.242447	1.017095	-0.075832
H122	H	-0.197300	0.285604	-0.197356
H123	H	-0.200724	0.418945	-0.200758
O124	O	-0.324470	0.883227	-0.855833
C125	C	-0.369644	0.898559	-0.844764
H126	H	-0.371278	0.925618	-0.811397
H127	H	-0.385704	0.934719	-0.872101
C128	C	-0.393079	0.796675	-0.881803
C129	C	-0.395086	0.829904	-0.840819
H130	H	-0.408774	0.754326	-0.879371
H131	H	-0.362645	0.786346	-0.889262
H132	H	-0.406462	0.826815	-0.904579
H133	H	-0.381698	0.799767	-0.818045
H134	H	-0.425518	0.840226	-0.833356
H135	H	-0.773391	1.143783	-0.164971
O136	O	-0.309744	0.424749	-0.309498
C137	C	-0.285300	0.467291	-0.339655
H138	H	-0.251514	0.478333	-0.324153
H139	H	-0.279685	0.438981	-0.372232
C140	C	-0.353316	0.523526	-0.368573
C141	C	-0.311822	0.537093	-0.349531
H142	H	-0.369677	0.566582	-0.374667
H143	H	-0.369785	0.494864	-0.348257
H144	H	-0.348631	0.499933	-0.395718
H145	H	-0.316507	0.560678	-0.322384
H146	H	-0.295354	0.565761	-0.369843
H147	H	-0.284494	0.615657	-0.284240
H148	H	-0.192539	1.098716	-0.501171
O149	O	-0.714821	0.883238	-0.324447
C150	C	-0.703705	0.898566	-0.369618
H151	H	-0.692219	0.954787	-0.373350
H152	H	-0.675515	0.860816	-0.380367
C153	C	-0.759266	0.821308	-0.394816
C154	C	-0.745162	0.890361	-0.399400
H155	H	-0.784837	0.816244	-0.413188
H156	H	-0.766754	0.810979	-0.364384
H157	H	-0.735770	0.789857	-0.403773
H158	H	-0.768655	0.921810	-0.390438
H159	H	-0.737678	0.900696	-0.429833
O160	O	-1.077075	1.106072	-0.188305
C161	C	-1.105331	1.151489	-0.215104
H162	H	-1.091279	1.155723	-0.250598
H163	H	-1.140353	1.129774	-0.216074
C164	C	-1.125125	1.219513	-0.151525
C165	C	-1.107864	1.224718	-0.195119
H166	H	-1.126690	1.264683	-0.139196
H167	H	-1.106090	1.188913	-0.133469
H168	H	-1.154308	1.201414	-0.152340
H169	H	-1.078680	1.242807	-0.194303
H170	H	-1.126894	1.255323	-0.213174
H171	H	-0.164943	1.143789	-0.633046
H172	H	-0.292475	0.935371	-1.069367
H173	H	-0.766981	0.890263	-0.320044
O174	O	-0.862390	1.150996	-0.160729
C175	C	-0.890655	1.196419	-0.187514
H176	H	-0.876604	1.200694	-0.223007
H177	H	-0.925671	1.174684	-0.188495
C178	C	-0.910469	1.264374	-0.123910
C179	C	-0.893209	1.269629	-0.167502
H180	H	-0.912046	1.309532	-0.111565
H181	H	-0.891428	1.233770	-0.105864
H182	H	-0.939647	1.246259	-0.124733
H183	H	-0.864029	1.287735	-0.166678
H184	H	-0.912245	1.300237	-0.185548
O185	O	-0.160579	1.150948	-0.721954
C186	C	-0.136247	1.190682	-0.692202
H187	H	-0.154720	1.193075	-0.658818
H188	H	-0.101465	1.164954	-0.686555
C189	C	-0.109011	1.262668	-0.753428
C190	C	-0.131702	1.265612	-0.712427
H191	H	-0.106205	1.308887	-0.765904
H192	H	-0.125402	1.235896	-0.773473
H193	H	-0.080028	1.241224	-0.748717
H194	H	-0.160686	1.287047	-0.717139
H195	H	-0.115315	1.292389	-0.692383
H196	H	-0.626222	0.890203	-0.320040
O197	O	-0.855528	0.883207	-0.324427
C198	C	-0.823751	0.843430	-0.348730
H199	H	-0.791027	0.872241	-0.351030
H200	H	-0.817432	0.789990	-0.330880
C201	C	-0.881972	0.797863	-0.393458
C202	C	-0.841781	0.833252	-0.396286
H203	H	-0.893094	0.791581	-0.422792
H204	H	-0.903381	0.824659	-0.377084
H205	H	-0.876701	0.753333	-0.378581
H206	H	-0.847054	0.877784	-0.411157
H207	H	-0.820373	0.806463	-0.412664
H208	H	-0.301717	0.285546	-0.301409
O209	O	-1.072499	0.928331	-0.296890
C210	C	-1.040722	0.888555	-0.321194
H211	H	-1.008000	0.917370	-0.323498
H212	H	-1.034399	0.835118	-0.303342
C213	C	-1.098944	0.842974	-0.365914
C214	C	-1.058755	0.878368	-0.368748
H215	H	-1.110068	0.836687	-0.395247
H216	H	-1.120353	0.869770	-0.349539
H217	H	-1.093669	0.798447	-0.351036
H218	H	-1.064031	0.922897	-0.383621
H219	H	-1.037347	0.851579	-0.385126
O220	O	-0.175449	0.609826	-0.175543
C221	C	-0.179744	0.537066	-0.179841
H222	H	-0.214179	0.526997	-0.194230
H223	H	-0.152601	0.516248	-0.203284
C224	C	-0.132290	0.511677	-0.115755
C225	C	-0.174586	0.499310	-0.133425
H226	H	-0.129107	0.488386	-0.087125
H227	H	-0.129395	0.560697	-0.112861
H228	H	-0.109676	0.494329	-0.135296
H229	H	-0.197200	0.516666	-0.113888
H230	H	-0.177485	0.450293	-0.136316
O231	O	-0.324388	0.883065	-0.622620
C232	C	-0.297653	0.837643	-0.594307
H233	H	-0.262154	0.833343	-0.608333
H234	H	-0.296679	0.859395	-0.559306
C235	C	-0.361319	0.769731	-0.574485
C236	C	-0.317719	0.764445	-0.591714
H237	H	-0.373697	0.724580	-0.572884
H238	H	-0.379331	0.800334	-0.593559
H239	H	-0.360501	0.787860	-0.545319
H240	H	-0.318538	0.746324	-0.620881
H241	H	-0.299707	0.733837	-0.572645
O242	O	-0.500105	0.928057	-0.296833
C243	C	-0.468331	0.888273	-0.321135
H244	H	-0.435605	0.917078	-0.323436
H245	H	-0.462015	0.834833	-0.303285
C246	C	-0.526556	0.842713	-0.365861
C247	C	-0.486362	0.878095	-0.368690
H248	H	-0.537679	0.836432	-0.395195
H249	H	-0.547963	0.869514	-0.349487
H250	H	-0.521288	0.798184	-0.350984
H251	H	-0.491632	0.922627	-0.383562
H252	H	-0.464956	0.851301	-0.385068
O253	O	-0.188194	1.105805	-0.412625
C254	C	-0.163861	1.145577	-0.444418
H255	H	-0.161557	1.116754	-0.477122
H256	H	-0.181687	1.199011	-0.450781
C257	C	-0.119142	1.191181	-0.386208
C258	C	-0.116310	1.155776	-0.426374
H259	H	-0.089811	1.197476	-0.375078
H260	H	-0.135537	1.164388	-0.364789
H261	H	-0.133999	1.235705	-0.391516
H262	H	-0.101459	1.111250	-0.421065
H263	H	-0.099912	1.182562	-0.447793
O264	O	-0.179115	0.754729	-0.179184
C265	C	-0.152475	0.706544	-0.152648
H266	H	-0.169529	0.654128	-0.149720
H267	H	-0.118180	0.698771	-0.168961
C268	C	-0.125720	0.799592	-0.109173
C269	C	-0.146667	0.735215	-0.105575
H270	H	-0.122135	0.817278	-0.080137
H271	H	-0.143666	0.832056	-0.127052
H272	H	-0.097143	0.793106	-0.122770
H273	H	-0.175246	0.741703	-0.091983
H274	H	-0.128725	0.702753	-0.087692
O275	O	-0.188041	1.105812	-0.984973
C276	C	-0.142872	1.090498	-0.996065
H277	H	-0.139157	1.034276	-1.007518
H278	H	-0.132100	1.128248	-1.024273
C279	C	-0.117665	1.167773	-0.940540
C280	C	-0.113101	1.098718	-0.954603
H281	H	-0.099300	1.172846	-0.914965
H282	H	-0.148096	1.178093	-0.933068
H283	H	-0.108688	1.199224	-0.964050
H284	H	-0.122083	1.067269	-0.931095
H285	H	-0.082671	1.088393	-0.962071
O286	O	-0.296846	0.928364	-0.980342
C287	C	-0.326908	0.968388	-0.954236
H288	H	-0.312437	1.021740	-0.948570
H289	H	-0.360392	0.976091	-0.972516
C290	C	-0.351835	0.864106	-0.915637
C291	C	-0.334060	0.929632	-0.908675
H292	H	-0.356249	0.840198	-0.887534
H293	H	-0.331583	0.837140	-0.933227
H294	H	-0.379737	0.870534	-0.930872
H295	H	-0.306157	0.923203	-0.893446
H296	H	-0.354308	0.956596	-0.891082
O297	O	-0.412239	1.105694	-0.188136
C298	C	-0.444014	1.145451	-0.163817
H299	H	-0.477510	1.147882	-0.182288
H300	H	-0.448376	1.119717	-0.129024
C301	C	-0.386441	1.217370	-0.136615
C302	C	-0.427581	1.220361	-0.159303
H303	H	-0.376304	1.263577	-0.133829
H304	H	-0.365033	1.190583	-0.152998
H305	H	-0.390081	1.195922	-0.107623
H306	H	-0.423939	1.241800	-0.188296
H307	H	-0.448988	1.247153	-0.142925
H308	H	-0.411541	0.935112	-0.292448
H309	H	-0.192425	1.098821	-1.073582
O310	O	-0.292537	0.754744	-0.292362
C311	C	-0.282332	0.736801	-0.336696
H312	H	-0.245928	0.716634	-0.338513
H313	H	-0.305340	0.694115	-0.347304
C314	C	-0.333992	0.826872	-0.366106
C315	C	-0.289279	0.802109	-0.368339
H316	H	-0.338279	0.867156	-0.385626
H317	H	-0.340869	0.838960	-0.336238
H318	H	-0.353161	0.791295	-0.374946
H319	H	-0.270112	0.837683	-0.359494
H320	H	-0.282399	0.790029	-0.398207
H321	H	-0.500788	1.098609	-0.192490
O322	O	-0.324447	0.883085	-0.715055
C323	C	-0.348789	0.843335	-0.683257
H324	H	-0.330329	0.840930	-0.649754
H325	H	-0.383574	0.869058	-0.678924
C326	C	-0.375998	0.771371	-0.740783
C327	C	-0.353324	0.768412	-0.699635
H328	H	-0.378798	0.725155	-0.750886
H329	H	-0.359600	0.798152	-0.762206
H330	H	-0.404984	0.792809	-0.737166
H331	H	-0.324337	0.746982	-0.703253
H332	H	-0.369717	0.741625	-0.678213
O333	O	-0.629205	1.150857	-0.160615
C334	C	-0.660984	1.190611	-0.136299
H335	H	-0.694481	1.193030	-0.154769
H336	H	-0.665343	1.164884	-0.101503
C337	C	-0.603419	1.262552	-0.109104
C338	C	-0.644559	1.265528	-0.131792
H339	H	-0.593287	1.308763	-0.106322
H340	H	-0.582008	1.235768	-0.125485
H341	H	-0.607057	1.241110	-0.080110
H342	H	-0.640920	1.286962	-0.160787
H343	H	-0.665969	1.292318	-0.115416
O344	O	-0.721678	1.150756	-0.160637
C345	C	-0.747837	1.110767	-0.130563
H346	H	-0.753515	1.057397	-0.144987
H347	H	-0.729595	1.103102	-0.097054
C348	C	-0.786407	1.215084	-0.105776
C349	C	-0.793384	1.149536	-0.123494
H350	H	-0.814502	1.238999	-0.101413
H351	H	-0.768782	1.242026	-0.126036
H352	H	-0.771204	1.208687	-0.077854
H353	H	-0.808582	1.155933	-0.151418
H354	H	-0.811012	1.122595	-0.103238
O355	O	-0.160544	1.150961	-0.862709
C356	C	-0.136203	1.190706	-0.832972
H357	H	-0.154670	1.193125	-0.799586
H358	H	-0.101423	1.164972	-0.827325
C359	C	-0.108968	1.262649	-0.894220
C360	C	-0.131652	1.265624	-0.853216
H361	H	-0.106158	1.308860	-0.906708
H362	H	-0.125365	1.235870	-0.914255
H363	H	-0.079986	1.241200	-0.889508
H364	H	-0.160634	1.287064	-0.857929
H365	H	-0.115259	1.292408	-0.833182
H366	H	-0.292596	0.935262	-0.496976
H367	H	-0.988080	1.098835	-0.192538
H368	H	-0.164909	1.143809	-0.773793
H369	H	-0.983950	0.935394	-0.292517
H370	H	-0.292611	0.935250	-0.411852
H371	H	-0.320095	0.890259	-0.767271
