data_functionalizedCrystal
_audit_creation_method	'MofGen! by Chris Wilmer'
_symmetry_space_group_name_H-M	'P1'
_symmetry_Int_Tables_number	1
_symmetry_cell_setting	triclinic
loop_
_symmetry_equiv_pos_as_xyz
  x,y,z
_cell_length_a	19.077105
_cell_length_b	14.908520
_cell_length_c	19.077314
_cell_angle_alpha	90.840876
_cell_angle_beta	89.892247
_cell_angle_gamma	91.150228
loop_
_atom_site_label
_atom_site_type_symbol
_atom_site_fract_x
_atom_site_fract_y
_atom_site_fract_z
Zn1	Zn	1.040090	-0.389295	-0.457212
Zn2	Zn	1.037418	-0.545725	-0.346448
Zn3	Zn	0.927282	-0.389791	-0.335024
Zn4	Zn	0.915807	-0.533627	-0.458681
O5	O	0.980149	-0.464610	-0.399341
O6	O	1.137840	-0.414902	-0.446685
O7	O	1.026492	-0.530310	-0.246827
O8	O	0.948166	-0.264063	-0.345837
O9	O	1.135877	-0.529830	-0.365307
O10	O	1.031046	-0.263699	-0.435607
O11	O	0.945575	-0.415747	-0.238434
O12	O	0.827655	-0.404016	-0.347262
O13	O	0.928610	-0.509211	-0.556592
O14	O	0.819224	-0.509691	-0.438112
O15	O	1.019919	-0.403171	-0.555512
O16	O	1.015366	-0.669782	-0.366732
O17	O	0.926019	-0.660894	-0.449189
C18	C	0.798002	-0.455595	-0.391607
C19	C	0.720077	-0.451759	-0.388316
C20	C	0.679095	-0.505067	-0.434003
C21	C	0.605877	-0.501451	-0.430914
C22	C	0.573641	-0.444531	-0.382133
C23	C	0.614628	-0.391217	-0.336443
C24	C	0.687846	-0.394829	-0.339536
C25	C	0.355135	-0.427815	-0.367819
C26	C	0.281912	-0.424209	-0.364727
C27	C	0.273166	-0.534442	-0.459200
C28	C	0.346385	-0.538053	-0.462286
C29	C	0.387365	-0.484735	-0.416599
N30	N	0.498801	-0.440836	-0.378972
N31	N	0.462205	-0.488427	-0.419763
C32	C	0.969176	-0.697921	-0.409376
C33	C	0.964544	-0.797734	-0.413694
C34	C	1.048968	-0.994489	-0.336024
C35	C	1.044619	-1.088273	-0.340080
C36	C	0.951501	-1.079088	-0.425865
C37	C	0.955850	-0.985304	-0.421809
C38	C	1.004584	-0.943008	-0.376886
C39	C	1.008930	-0.849223	-0.372827
C40	C	0.915816	-0.840039	-0.458616
C41	C	0.911467	-0.933823	-0.462672
C42	C	1.163008	-0.473660	-0.407106
C43	C	1.240931	-0.477517	-0.410415
C44	C	0.973283	-0.454786	-0.582201
C45	C	0.970357	-0.450600	-0.660125
C46	C	0.991184	-0.230387	-0.389284
C47	C	0.995886	-0.130576	-0.384998
C48	C	1.011107	-0.508277	-0.701106
C49	C	1.008359	-0.504333	-0.774323
C50	C	0.964855	-0.442715	-0.806558
C51	C	0.924102	-0.385031	-0.765571
C52	C	0.926855	-0.388972	-0.692355
C53	C	0.952107	-0.424529	-1.025061
C54	C	0.949355	-0.420595	-1.098282
C55	C	1.033613	-0.539896	-1.107029
C56	C	1.036359	-0.543834	-1.033811
C57	C	0.995609	-0.486148	-0.992831
N58	N	0.962042	-0.438684	-0.881398
N59	N	0.998426	-0.490175	-0.917993
C60	C	0.987032	-0.474332	-0.217192
C61	C	0.990106	-0.478272	-0.139263
H62	H	0.721212	-0.351415	-0.302336
Cl63	Cl	0.860007	-0.775314	-0.509979
Cl64	Cl	0.554360	-0.568470	-0.488353
Cl65	Cl	1.065797	-0.585749	-0.660590
H66	H	1.048610	-0.814786	-0.336247
Cl67	Cl	1.091054	-0.621298	-0.993293
H68	H	0.911829	-1.113541	-0.462444
H69	H	0.255669	-0.377847	-0.325008
H70	H	0.913931	-0.370411	-1.124525
H71	H	1.066790	-0.586859	-1.140403
Cl72	Cl	0.719613	-0.576632	-0.495329
Cl73	Cl	0.850206	-0.987003	-0.519145
Cl74	Cl	1.059586	-0.576851	-0.825840
Cl75	Cl	1.110222	-0.941314	-0.279540
H76	H	0.588377	-0.344868	-0.296727
H77	H	1.080762	-1.130186	-0.306807
Cl78	Cl	0.900876	-0.352011	-0.973552
H79	H	0.888683	-0.334857	-0.791823
Cl80	Cl	0.875626	-0.316457	-0.640836
H81	H	0.239792	-0.577848	-0.496397
Cl82	Cl	0.406644	-0.360784	-0.310385
Cl83	Cl	0.386904	-0.609615	-0.523612
