data_functionalizedCrystal
_audit_creation_method	'MofGen! by Chris Wilmer'
_symmetry_space_group_name_H-M	'P1'
_symmetry_Int_Tables_number	1
_symmetry_cell_setting	triclinic
loop_
_symmetry_equiv_pos_as_xyz
  x,y,z
_cell_length_a	27.732048
_cell_length_b	27.732048
_cell_length_c	26.809956
_cell_angle_alpha	90.009578
_cell_angle_beta	90.010552
_cell_angle_gamma	82.642655
loop_
_atom_site_label
_atom_site_type_symbol
_atom_site_fract_x
_atom_site_fract_y
_atom_site_fract_z
O1	O	0.640935	0.057516	0.041421
O2	O	0.500142	0.066261	0.041436
O3	O	0.574911	-0.008508	0.041419
O4	O	0.566166	0.132285	0.041439
O5	O	0.574889	-0.008508	-0.041541
O6	O	0.500119	0.066261	-0.041523
O7	O	0.640912	0.057516	-0.041539
Zn8	Zn	0.570512	0.061889	-0.054702
Zn9	Zn	0.570542	0.061889	0.054600
O10	O	0.566143	0.132285	-0.041521
C11	C	0.482124	0.066078	-0.000041
C12	C	0.428469	0.065525	-0.000036
C13	C	0.089654	0.106229	-0.000051
C14	C	-0.112006	0.104178	-0.000056
O15	O	-0.143262	0.141398	-0.000073
N16	N	-0.131130	0.059843	-0.000062
C17	C	-0.099835	0.016017	-0.000069
O18	O	-0.120728	-0.021740	-0.000079
C19	C	0.101824	0.018068	-0.000068
C20	C	0.120944	0.062407	-0.000057
C21	C	0.108775	0.150563	-0.000042
C22	C	0.159187	0.151075	-0.000038
C23	C	0.190477	0.107253	-0.000044
C24	C	0.171356	0.062919	-0.000054
C25	C	0.133117	-0.025757	-0.000079
C26	C	0.183535	-0.025240	-0.000080
C27	C	0.202655	0.019098	-0.000069
C28	C	0.253059	0.019609	-0.000056
N29	N	0.272183	0.063944	-0.000050
C30	C	0.240892	0.107766	-0.000044
C31	C	-0.205709	0.014943	-0.000069
C32	C	-0.256124	0.014430	-0.000068
C33	C	-0.268291	0.102591	-0.000056
C34	C	-0.217876	0.103104	-0.000053
C35	C	-0.186585	0.059278	-0.000063
C36	C	0.346761	0.108839	-0.000036
C37	C	0.397178	0.109347	-0.000030
C38	C	0.409341	0.021186	-0.000044
C39	C	0.358929	0.020678	-0.000048
C40	C	0.327639	0.064508	-0.000045
O41	O	0.284343	-0.017592	-0.000045
O42	O	0.261794	0.145518	-0.000045
C43	C	0.039242	0.105716	-0.000055
C44	C	0.020120	0.061382	-0.000065
C45	C	0.051411	0.017560	-0.000071
C46	C	-0.030294	0.060869	-0.000065
C47	C	-0.061585	0.104691	-0.000059
C48	C	-0.042461	0.149026	-0.000053
C49	C	0.007951	0.149539	-0.000049
C50	C	0.032287	-0.026775	-0.000077
C51	C	-0.018125	-0.027284	-0.000080
C52	C	-0.049416	0.016538	-0.000074
C53	C	0.574716	-0.026515	-0.000062
C54	C	0.574164	-0.080170	-0.000066
C55	C	0.614867	-0.418985	-0.000045
C56	C	0.612816	-0.620645	-0.000038
O57	O	0.650037	-0.651900	-0.000021
N58	N	0.568481	-0.639768	-0.000034
C59	C	0.524656	-0.608474	-0.000028
O60	O	0.486899	-0.629367	-0.000019
C61	C	0.526707	-0.406815	-0.000031
C62	C	0.571045	-0.387694	-0.000041
C63	C	0.659202	-0.399864	-0.000054
C64	C	0.659714	-0.349452	-0.000059
C65	C	0.615892	-0.318161	-0.000054
C66	C	0.571557	-0.337282	-0.000045
C67	C	0.482882	-0.375521	-0.000022
C68	C	0.483399	-0.325104	-0.000021
C69	C	0.527737	-0.305983	-0.000031
C70	C	0.528247	-0.255580	-0.000045
N71	N	0.572583	-0.236456	-0.000050
C72	C	0.616405	-0.267747	-0.000054
C73	C	0.523582	-0.714348	-0.000027
C74	C	0.523069	-0.764762	-0.000027
C75	C	0.611230	-0.776930	-0.000036
C76	C	0.611742	-0.726514	-0.000040
C77	C	0.567917	-0.695224	-0.000031
C78	C	0.617477	-0.161878	-0.000064
C79	C	0.617986	-0.111461	-0.000071
C80	C	0.529825	-0.099298	-0.000059
C81	C	0.529316	-0.149710	-0.000055
C82	C	0.573147	-0.180999	-0.000056
O83	O	0.491047	-0.224296	-0.000057
O84	O	0.654156	-0.246844	-0.000053
C85	C	0.614355	-0.469397	-0.000041
C86	C	0.570021	-0.488518	-0.000032
C87	C	0.526198	-0.457228	-0.000027
C88	C	0.569508	-0.538933	-0.000032
C89	C	0.613330	-0.570223	-0.000036
C90	C	0.657665	-0.551100	-0.000041
C91	C	0.658177	-0.500688	-0.000045
C92	C	0.481863	-0.476351	-0.000023
C93	C	0.481355	-0.526764	-0.000019
C94	C	0.525177	-0.558054	-0.000023
C95	C	0.658931	0.057699	-0.000060
C96	C	0.712586	0.058252	-0.000062
C97	C	0.566338	0.150292	-0.000039
C98	C	0.566891	0.203947	-0.000031
N99	N	0.570495	0.061888	-0.129298
C100	C	0.599633	0.090999	-0.473923
C101	C	0.599648	0.090999	-0.682801
O102	O	0.624410	0.115745	-0.709804
N103	N	0.570554	0.061884	-0.708925
C104	C	0.541456	0.032764	-0.682827
O105	O	0.516713	0.007996	-0.709840
C106	C	0.541443	0.032762	-0.473950
C107	C	0.570536	0.061883	-0.447829
C108	C	0.628724	0.120117	-0.447802
C109	C	0.628717	0.120119	-0.395586
C110	C	0.599620	0.091003	-0.369491
C111	C	0.570530	0.061885	-0.395612
C112	C	0.512348	0.003640	-0.447853
C113	C	0.512348	0.003641	-0.395630
C114	C	0.541441	0.032762	-0.369509
C115	C	0.541426	0.032770	-0.317301
N116	N	0.570521	0.061886	-0.291177
C117	C	0.599618	0.091002	-0.317272
C118	C	0.541464	0.032768	-0.792490
C119	C	0.541466	0.032769	-0.844709
C120	C	0.599660	0.091003	-0.844680
C121	C	0.599654	0.091004	-0.792460
C122	C	0.570558	0.061883	-0.766366
C123	C	0.599602	0.091004	-0.207614
C124	C	0.599592	0.091005	-0.155393
C125	C	0.541401	0.032769	-0.155427
C126	C	0.541409	0.032769	-0.207643
C127	C	0.570514	0.061889	-0.233735
O128	O	0.516682	0.008033	-0.290266
O129	O	0.624365	0.115758	-0.290250
C130	C	0.599639	0.090998	-0.526140
C131	C	0.570548	0.061879	-0.552261
C132	C	0.541451	0.032763	-0.526166
C133	C	0.570551	0.061880	-0.604480
C134	C	0.599648	0.090997	-0.630575
C135	C	0.628742	0.120112	-0.604451
C136	C	0.628736	0.120114	-0.552235
C137	C	0.512357	0.003648	-0.552291
C138	C	0.512365	0.003649	-0.604507
C139	C	0.541462	0.032765	-0.630602
N140	N	0.570563	0.061885	0.129196
H141	H	-0.271687	-0.021674	-0.000069
H142	H	-0.067947	0.184708	-0.000046
Cl143	Cl	0.183216	0.206818	-0.000028
Cl144	Cl	0.636232	0.127612	-0.759627
Cl145	Cl	0.031981	0.205281	-0.000037
H146	H	0.653168	-0.187348	-0.000063
H147	H	0.652410	0.143830	-0.374322
H148	H	0.623283	0.114721	-0.134127
H149	H	0.117558	-0.061861	-0.000088
H150	H	0.447710	-0.299629	-0.000014
Cl151	Cl	0.071617	-0.081872	-0.000084
H152	H	0.488669	-0.020064	-0.625771
Cl153	Cl	0.473577	-0.173748	-0.000052
H154	H	0.083302	0.186251	-0.000038
Cl155	Cl	0.474737	-0.059952	-0.000052
H156	H	0.445246	-0.542327	-0.000015
Cl157	Cl	-0.193844	0.158845	-0.000042
Cl158	Cl	0.475772	-0.032975	-0.362830
Cl159	Cl	-0.307637	0.157681	-0.000051
H160	H	0.412743	0.145454	-0.000021
Cl161	Cl	-0.042156	-0.083029	-0.000087
Cl162	Cl	0.673729	-0.087427	-0.000082
Cl163	Cl	0.665309	0.156728	-0.519404
H164	H	-0.180236	-0.020747	-0.000077
H165	H	0.652420	0.143828	-0.469043
Cl166	Cl	0.426766	-0.437021	-0.000016
Cl167	Cl	0.475765	-0.032951	-0.519494
Cl168	Cl	0.222868	-0.080338	-0.000094
H169	H	0.623350	0.114713	-0.865935
Cl170	Cl	0.504823	-0.003832	-0.122612
Cl171	Cl	0.307434	0.163940	-0.000032
Cl172	Cl	0.713920	-0.476658	-0.000053
H173	H	0.434827	-0.014492	-0.000047
H174	H	0.695819	-0.333889	-0.000065
H175	H	0.646911	-0.802415	-0.000040
Cl176	Cl	0.714300	-0.439193	-0.000061
H177	H	0.517770	0.009061	-0.865973
H178	H	0.517713	0.009063	-0.228912
Cl179	Cl	0.667483	-0.702482	-0.000051
H180	H	0.343360	-0.015426	-0.000049
H181	H	0.693347	-0.576585	-0.000047
H182	H	0.487892	-0.688875	-0.000020
Cl183	Cl	0.467327	-0.788793	-0.000024
Cl184	Cl	0.427139	-0.399546	-0.000006
Cl185	Cl	0.504872	-0.003836	-0.759694
H186	H	0.623303	0.114715	-0.228852
Cl187	Cl	0.475772	-0.032972	-0.480678
Cl188	Cl	0.665319	0.156717	-0.637266
