data_functionalizedCrystal
_audit_creation_method	'MofGen! by Chris Wilmer'
_symmetry_space_group_name_H-M	'P1'
_symmetry_Int_Tables_number	1
_symmetry_cell_setting	triclinic
loop_
_symmetry_equiv_pos_as_xyz
  x,y,z
_cell_length_a	13.635800
_cell_length_b	17.296766
_cell_length_c	11.102300
_cell_angle_alpha	82.266923
_cell_angle_beta	108.605850
_cell_angle_gamma	77.378987
loop_
_atom_site_label
_atom_site_type_symbol
_atom_site_fract_x
_atom_site_fract_y
_atom_site_fract_z
V1	V	2.044201	-0.111100	0.409041
O2	O	2.035837	0.005339	0.388099
O3	O	2.021224	-0.220293	0.418895
O4	O	2.032769	-0.109391	0.581665
O5	O	2.024212	-0.106331	0.224202
V6	V	2.284202	-0.097173	0.385395
O7	O	2.178692	-0.141651	0.460908
O8	O	2.374810	-0.066622	0.333528
O9	O	2.195576	0.012020	0.375541
O10	O	2.351264	-0.213612	0.406337
O11	O	2.362890	-0.101942	0.570234
O12	O	2.184030	-0.098882	0.212771
V13	V	2.544201	-0.111100	0.409041
O14	O	2.535837	0.005339	0.388099
O15	O	2.521224	-0.220293	0.418895
O16	O	2.532769	-0.109391	0.581665
O17	O	2.524212	-0.106331	0.224202
V18	V	2.784202	-0.097173	0.385395
O19	O	2.678692	-0.141651	0.460908
O20	O	2.874810	-0.066622	0.333528
O21	O	2.695576	0.012020	0.375541
O22	O	2.851264	-0.213612	0.406337
O23	O	2.862890	-0.101942	0.570234
O24	O	2.684030	-0.098882	0.212771
C25	C	1.943608	-0.246912	0.415707
C26	C	1.965550	-0.336178	0.424915
C27	C	1.946967	-0.366648	0.311537
C28	C	1.967594	-0.450525	0.320193
C29	C	2.006797	-0.503929	0.442229
C30	C	2.025385	-0.473454	0.555616
C31	C	2.004765	-0.389580	0.546959
C32	C	2.070507	-0.757750	0.474256
C33	C	2.091123	-0.841629	0.482905
C34	C	2.033333	-0.818694	0.247481
C35	C	2.012709	-0.734819	0.238835
C36	C	2.031304	-0.704351	0.352222
C37	C	2.027879	-0.589664	0.451079
C38	C	2.010229	-0.618618	0.343370
C39	C	1.958335	-0.105444	0.623334
C40	C	1.989639	-0.104770	0.764539
C41	C	2.104862	0.038635	0.378726
C42	C	2.072540	0.127901	0.369526
C43	C	2.090135	-0.102831	0.171095
C44	C	2.048451	-0.103502	0.029889
C45	C	2.443608	-0.246912	0.415707
C46	C	2.465550	-0.336178	0.424915
C47	C	2.458335	-0.105444	0.623334
C48	C	2.489639	-0.104770	0.764539
C49	C	2.095933	-0.108463	0.837813
C50	C	2.125339	-0.107826	0.970488
C51	C	1.942146	-0.099806	0.956605
C52	C	1.912740	-0.100437	0.823930
C53	C	2.604862	0.038635	0.378726
C54	C	2.572540	0.127901	0.369526
C55	C	2.590135	-0.102831	0.171095
C56	C	2.548451	-0.103502	0.029889
C57	C	2.567446	-0.382193	0.436060
C58	C	2.588081	-0.466071	0.444732
C59	C	2.506818	-0.503932	0.442249
C60	C	2.404915	-0.457911	0.431107
C61	C	2.384283	-0.374036	0.422444
C62	C	2.643138	0.173915	0.358385
C63	C	2.612775	0.257792	0.349719
C64	C	2.511816	0.295653	0.352205
C65	C	2.441211	0.249633	0.363344
C66	C	2.471572	0.165758	0.372000
C67	C	2.595933	-0.108463	0.837813
C68	C	2.625339	-0.107826	0.970488
C69	C	2.442146	-0.099806	0.956605
C70	C	2.412740	-0.100437	0.823930
H71	H	1.915036	-0.323171	0.212162
F72	F	1.947822	-0.482949	0.199520
F73	F	2.177775	-0.113071	0.774608
F74	F	1.860316	-0.095202	1.019827
H75	H	2.414079	0.128297	0.381083
H76	H	2.326178	-0.097423	0.764265
H77	H	1.826178	-0.097423	0.764265
H78	H	2.633625	-0.351378	0.438076
H79	H	2.301306	-0.336575	0.413363
F80	F	2.013551	-0.851127	0.126815
H81	H	2.671060	-0.503530	0.453800
F82	F	1.968521	-0.561781	0.213497
F83	F	2.528792	-0.593201	0.451468
F84	F	2.750594	0.133637	0.355737
F85	F	2.333762	0.289939	0.365981
H86	H	2.211891	-0.110833	1.030142
H87	H	2.338756	-0.488750	0.429087
F88	F	2.687933	0.306756	0.337868
F89	F	2.479517	0.384922	0.342991
F90	F	2.677775	-0.113071	0.774608
H91	H	1.980794	-0.691341	0.139461
F92	F	2.738470	-0.111757	1.048466
H93	H	2.379543	-0.096280	1.004978
H94	H	2.123044	-0.885111	0.582285
H95	H	2.085637	-0.732953	0.566584
H96	H	2.019909	-0.364774	0.639284
F97	F	2.067116	-0.530294	0.685496
F98	F	2.069600	-0.646508	0.580955
