data_functionalizedCrystal
_audit_creation_method	'MofGen! by Chris Wilmer'
_symmetry_space_group_name_H-M	'P1'
_symmetry_Int_Tables_number	1
_symmetry_cell_setting	triclinic
loop_
_symmetry_equiv_pos_as_xyz
  x,y,z
_cell_length_a	18.101398
_cell_length_b	18.101395
_cell_length_c	18.101389
_cell_angle_alpha	89.983159
_cell_angle_beta	89.975673
_cell_angle_gamma	90.026371
loop_
_atom_site_label
_atom_site_type_symbol
_atom_site_fract_x
_atom_site_fract_y
_atom_site_fract_z
Zn1	Zn	1.132121	-0.295001	-0.418847
Zn2	Zn	1.382121	-0.045001	-0.168847
Zn3	Zn	1.632121	0.204999	0.081153
Zn4	Zn	1.882121	0.454999	0.331153
Zn5	Zn	1.132017	-0.418826	-0.295009
Zn6	Zn	1.382017	-0.168826	-0.045009
Zn7	Zn	1.632017	0.081174	0.204991
Zn8	Zn	1.882017	0.331174	0.454991
Zn9	Zn	1.008280	-0.294993	-0.295008
Zn10	Zn	1.258280	-0.044993	-0.045008
Zn11	Zn	1.508280	0.205007	0.204992
Zn12	Zn	1.758280	0.455007	0.454992
Zn13	Zn	1.008231	-0.418795	-0.418797
Zn14	Zn	1.258231	-0.168795	-0.168797
Zn15	Zn	1.508231	0.081205	0.081203
Zn16	Zn	1.758231	0.331205	0.331203
O17	O	1.070162	-0.356904	-0.356915
O18	O	1.320162	-0.106904	-0.106915
O19	O	1.570162	0.143096	0.143085
O20	O	1.820162	0.393096	0.393085
O21	O	1.235740	-0.311443	-0.402440
O22	O	1.485740	-0.061443	-0.152440
O23	O	1.735740	0.188557	0.097560
O24	O	1.985740	0.438557	0.347560
O25	O	1.115580	-0.402410	-0.191376
O26	O	1.365580	-0.152410	0.058624
O27	O	1.615580	0.097590	0.308624
O28	O	1.865580	0.347590	0.558624
O29	O	1.024772	-0.191361	-0.311456
O30	O	1.274772	0.058639	-0.061456
O31	O	1.524772	0.308639	0.188544
O32	O	1.774772	0.558639	0.438544
O33	O	1.235664	-0.402417	-0.311457
O34	O	1.485664	-0.152417	-0.061457
O35	O	1.735664	0.097583	0.188543
O36	O	1.985664	0.347583	0.438543
O37	O	1.115757	-0.191367	-0.402440
O38	O	1.365757	0.058633	-0.152440
O39	O	1.615757	0.308633	0.097560
O40	O	1.865757	0.558633	0.347560
O41	O	1.024671	-0.311430	-0.191375
O42	O	1.274671	-0.061430	0.058625
O43	O	1.524671	0.188570	0.308625
O44	O	1.774671	0.438570	0.558625
O45	O	0.904641	-0.311399	-0.311408
O46	O	1.154641	-0.061399	-0.061408
O47	O	1.404641	0.188601	0.188592
O48	O	1.654641	0.438601	0.438592
O49	O	1.024688	-0.402363	-0.522437
O50	O	1.274688	-0.152363	-0.272437
O51	O	1.524688	0.097637	-0.022437
O52	O	1.774688	0.347637	0.227563
O53	O	0.904604	-0.402356	-0.402355
O54	O	1.154604	-0.152356	-0.152355
O55	O	1.404604	0.097644	0.097645
O56	O	1.654604	0.347644	0.347645
O57	O	1.115710	-0.311412	-0.522473
O58	O	1.365710	-0.061412	-0.272473
O59	O	1.615710	0.188588	-0.022473
O60	O	1.865710	0.438588	0.227527
O61	O	1.115532	-0.522455	-0.311409
O62	O	1.365532	-0.272455	-0.061409
O63	O	1.615532	-0.022455	0.188591
O64	O	1.865532	0.227545	0.438591
O65	O	1.024587	-0.522432	-0.402356
O66	O	1.274587	-0.272432	-0.152356
O67	O	1.524587	-0.022432	0.097644
O68	O	1.774587	0.227568	0.347644
C69	C	0.877752	-0.356874	-0.356877
C70	C	1.127752	-0.106874	-0.106877
C71	C	1.377752	0.143126	0.143123
C72	C	1.627752	0.393126	0.393123
C73	C	0.795437	-0.356879	-0.356878
C74	C	1.045437	-0.106879	-0.106878
C75	C	1.295437	0.143121	0.143122
C76	C	1.545437	0.393121	0.393122
C77	C	1.070063	-0.549314	-0.356893
C78	C	1.320063	-0.299314	-0.106893
C79	C	1.570063	-0.049314	0.143107
C80	C	1.820063	0.200686	0.393107
C81	C	1.070088	-0.631628	-0.356909
C82	C	1.320088	-0.381628	-0.106909
C83	C	1.570088	-0.131628	0.143091
C84	C	1.820088	0.118372	0.393091
C85	C	0.496347	-0.356925	-0.356940
C86	C	0.746347	-0.106925	-0.106940
C87	C	0.996347	0.143075	0.143060
C88	C	1.246347	0.393075	0.393060
C89	C	0.527670	-0.299412	-0.299997
C90	C	0.777670	-0.049412	-0.049997
C91	C	1.027670	0.200588	0.200003
C92	C	1.277670	0.450588	0.450003
C93	C	0.613288	-0.299566	-0.299754
C94	C	0.863288	-0.049566	-0.049754
C95	C	1.113288	0.200434	0.200246
C96	C	1.363288	0.450434	0.450246
C97	C	0.644729	-0.356901	-0.356909
C98	C	0.894729	-0.106901	-0.106909
C99	C	1.144729	0.143099	0.143091
C100	C	1.394729	0.393099	0.393091
C101	C	0.613611	-0.434909	-0.335587
C102	C	0.863611	-0.184909	-0.085587
C103	C	1.113611	0.065091	0.164413
C104	C	1.363611	0.315091	0.414413
C105	C	0.527966	-0.434590	-0.335191
C106	C	0.777966	-0.184590	-0.085191
C107	C	1.027966	0.065410	0.164809
C108	C	1.277966	0.315410	0.414809
C109	C	0.527961	-0.337109	-0.435339
C110	C	0.777961	-0.087109	-0.185339
C111	C	1.027961	0.162891	0.064661
C112	C	1.277961	0.412891	0.314661
C113	C	0.613612	-0.335371	-0.434911
C114	C	0.863612	-0.085371	-0.184911
C115	C	1.113612	0.164629	0.065089
C116	C	1.363612	0.414629	0.315089
C117	C	0.728589	-0.356893	-0.356893
C118	C	0.978589	-0.106893	-0.106893
C119	C	1.228589	0.143107	0.143107
C120	C	1.478589	0.393107	0.393107
C121	C	0.412487	-0.356939	-0.356954
C122	C	0.662487	-0.106939	-0.106954
C123	C	0.912487	0.143061	0.143046
C124	C	1.162487	0.393061	0.393046
C125	C	1.070251	-0.930719	-0.356949
C126	C	1.320251	-0.680719	-0.106949
C127	C	1.570251	-0.430719	0.143051
C128	C	1.820251	-0.180719	0.393051
C129	C	1.013163	-0.899410	-0.414312
C130	C	1.263163	-0.649410	-0.164312
C131	C	1.513163	-0.399410	0.085688
C132	C	1.763163	-0.149410	0.335688
C133	C	1.012892	-0.813792	-0.414133
C134	C	1.262892	-0.563792	-0.164133
C135	C	1.512892	-0.313792	0.085867
C136	C	1.762892	-0.063792	0.335867
C137	C	1.070170	-0.782337	-0.356930
C138	C	1.320170	-0.532337	-0.106930
C139	C	1.570170	-0.282337	0.143070
C140	C	1.820170	-0.032337	0.393070
C141	C	1.049041	-0.813472	-0.278878
C142	C	1.299041	-0.563472	-0.028878
C143	C	1.549041	-0.313472	0.221122
C144	C	1.799041	-0.063472	0.471122
C145	C	1.048673	-0.899117	-0.279221
C146	C	1.298673	-0.649117	-0.029221
C147	C	1.548673	-0.399117	0.220779
C148	C	1.798673	-0.149117	0.470779
C149	C	1.148593	-0.899073	-0.376950
C150	C	1.398593	-0.649073	-0.126950
C151	C	1.648593	-0.399073	0.123050
C152	C	1.898593	-0.149073	0.373050
C153	C	1.148132	-0.813422	-0.378661
C154	C	1.398132	-0.563422	-0.128661
C155	C	1.648132	-0.313422	0.121339
C156	C	1.898132	-0.063422	0.371339
C157	C	1.070126	-0.698477	-0.356914
C158	C	1.320126	-0.448477	-0.106914
C159	C	1.570126	-0.198477	0.143086
C160	C	1.820126	0.051523	0.393086
C161	C	1.070293	-1.014579	-0.356959
C162	C	1.320293	-0.764579	-0.106959
C163	C	1.570293	-0.514579	0.143041
C164	C	1.820293	-0.264579	0.393041
C165	C	1.263324	-0.356934	-0.356954
C166	C	1.513324	-0.106934	-0.106954
C167	C	1.763324	0.143066	0.143046
C168	C	2.013324	0.393066	0.393046
C169	C	1.345638	-0.356948	-0.356971
C170	C	1.595638	-0.106948	-0.106971
C171	C	1.845638	0.143052	0.143029
C172	C	2.095638	0.393052	0.393029
C173	C	1.070205	-0.356885	-0.550077
C174	C	1.320205	-0.106885	-0.300077
C175	C	1.570205	0.143115	-0.050077
C176	C	1.820205	0.393115	0.199923
C177	C	1.070223	-0.356877	-0.632391
C178	C	1.320223	-0.106877	-0.382391
C179	C	1.570223	0.143123	-0.132391
C180	C	1.820223	0.393123	0.117609
C181	C	1.070282	-0.163742	-0.356953
C182	C	1.320282	0.086258	-0.106953
C183	C	1.570282	0.336258	0.143047
C184	C	1.820282	0.586258	0.393047
C185	C	1.070333	-0.081428	-0.356970
C186	C	1.320333	0.168572	-0.106970
C187	C	1.570333	0.418572	0.143030
C188	C	1.820333	0.668572	0.393030
C189	C	1.070266	-0.356738	-0.931482
C190	C	1.320266	-0.106738	-0.681482
C191	C	1.570266	0.143262	-0.431482
C192	C	1.820266	0.393262	-0.181482
C193	C	1.012801	-0.413780	-0.900134
C194	C	1.262801	-0.163780	-0.650134
C195	C	1.512801	0.086220	-0.400134
C196	C	1.762801	0.336220	-0.150134
C197	C	1.012956	-0.414045	-0.814516
C198	C	1.262956	-0.164045	-0.564516
C199	C	1.512956	0.085955	-0.314516
C200	C	1.762956	0.335955	-0.064516
C201	C	1.070244	-0.356807	-0.783100
C202	C	1.320244	-0.106807	-0.533100
C203	C	1.570244	0.143193	-0.283100
C204	C	1.820244	0.393193	-0.033100
C205	C	1.148270	-0.377998	-0.814206
C206	C	1.398270	-0.127998	-0.564206
C207	C	1.648270	0.122002	-0.314206
C208	C	1.898270	0.372002	-0.064206
C209	C	1.147949	-0.378372	-0.899851
C210	C	1.397949	-0.128372	-0.649851
C211	C	1.647949	0.121628	-0.399851
C212	C	1.897949	0.371628	-0.149851
C213	C	1.050385	-0.278379	-0.899905
C214	C	1.300385	-0.028379	-0.649905
C215	C	1.550385	0.221621	-0.399905
C216	C	1.800385	0.471621	-0.149905
C217	C	1.048649	-0.278832	-0.814254
C218	C	1.298649	-0.028832	-0.564254
C219	C	1.548649	0.221168	-0.314254
C220	C	1.798649	0.471168	-0.064254
C221	C	1.070237	-0.356845	-0.699240
C222	C	1.320237	-0.106845	-0.449240
C223	C	1.570237	0.143155	-0.199240
C224	C	1.820237	0.393155	0.050760
C225	C	1.070279	-0.356702	-1.015342
C226	C	1.320279	-0.106702	-0.765342
C227	C	1.570279	0.143298	-0.515342
C228	C	1.820279	0.393298	-0.265342
C229	C	1.070162	-0.356869	-0.164505
C230	C	1.320162	-0.106869	0.085495
C231	C	1.570162	0.143131	0.335495
C232	C	1.820162	0.393131	0.585495
C233	C	1.070287	-0.356668	-0.082191
C234	C	1.320287	-0.106668	0.167809
C235	C	1.570287	0.143332	0.417809
C236	C	1.820287	0.393332	0.667809
H237	H	0.634329	-0.241719	-0.313119
H238	H	0.884329	0.008281	-0.063119
H239	H	1.134329	0.258281	0.186881
H240	H	1.384329	0.508281	0.436881
H241	H	1.089313	-0.793097	-0.234972
H242	H	1.339313	-0.543097	0.015028
H243	H	1.589313	-0.293097	0.265028
H244	H	1.839313	-0.043097	0.515028
H245	H	1.092240	-0.235880	-0.920179
H246	H	1.342240	0.014120	-0.670179
H247	H	1.592240	0.264120	-0.420179
H248	H	1.842240	0.514120	-0.170179
F249	F	0.937726	-0.927629	-0.397225
F250	F	1.187726	-0.677629	-0.147225
F251	F	1.437726	-0.427629	0.102775
F252	F	1.687726	-0.177629	0.352775
H253	H	1.191125	-0.919319	-0.335170
H254	H	1.441125	-0.669319	-0.085170
H255	H	1.691125	-0.419319	0.164830
H256	H	1.941125	-0.169319	0.414830
F257	F	0.936991	-0.787085	-0.396818
F258	F	1.186991	-0.537085	-0.146818
F259	F	1.436991	-0.287085	0.103182
F260	F	1.686991	-0.037085	0.353182
H261	H	0.635026	-0.452008	-0.278892
H262	H	0.885026	-0.202008	-0.028892
H263	H	1.135026	0.047992	0.221108
H264	H	1.385026	0.297992	0.471108
H265	H	1.088449	-0.919830	-0.235023
H266	H	1.338449	-0.669830	0.014977
H267	H	1.588449	-0.419830	0.264977
H268	H	1.838449	-0.169830	0.514977
H269	H	1.026082	-0.472127	-0.794035
H270	H	1.276082	-0.222127	-0.544035
H271	H	1.526082	0.027873	-0.294035
H272	H	1.776082	0.277873	-0.044035
F273	F	0.977309	-0.253146	-0.928116
F274	F	1.227309	-0.003146	-0.678116
F275	F	1.477309	0.246854	-0.428116
F276	F	1.727309	0.496854	-0.178116
F277	F	1.099370	-0.220332	-0.786310
F278	F	1.349370	0.029668	-0.536310
F279	F	1.599370	0.279668	-0.286310
F280	F	1.849370	0.529668	-0.036310
F281	F	1.205739	-0.325401	-0.787614
F282	F	1.455739	-0.075401	-0.537614
F283	F	1.705739	0.174599	-0.287614
F284	F	1.955739	0.424599	-0.037614
F285	F	0.640212	-0.260344	-0.455933
F286	F	0.890212	-0.010344	-0.205933
F287	F	1.140212	0.239656	0.044067
F288	F	1.390212	0.489656	0.294067
F289	F	0.641586	-0.386138	-0.493338
F290	F	0.891586	-0.136138	-0.243338
F291	F	1.141586	0.113862	0.006662
F292	F	1.391586	0.363862	0.256662
F293	F	0.973593	-0.257946	-0.787686
F294	F	1.223593	-0.007946	-0.537686
F295	F	1.473593	0.242054	-0.287686
F296	F	1.723593	0.492054	-0.037686
H297	H	0.507705	-0.378999	-0.477766
H298	H	0.757705	-0.128999	-0.227766
H299	H	1.007705	0.121001	0.022234
H300	H	1.257705	0.371001	0.272234
F301	F	1.205779	-0.326393	-0.926961
F302	F	1.455779	-0.076393	-0.676961
F303	F	1.705779	0.173607	-0.426961
F304	F	1.955779	0.423607	-0.176961
F305	F	0.499491	-0.316327	-0.224509
F306	F	0.749491	-0.066327	0.025491
F307	F	0.999491	0.183673	0.275491
F308	F	1.249491	0.433673	0.525491
F309	F	0.500784	-0.223569	-0.317272
F310	F	0.750784	0.026431	-0.067272
F311	F	1.000784	0.276431	0.182728
F312	F	1.250784	0.526431	0.432728
F313	F	0.499768	-0.264052	-0.460678
F314	F	0.749768	-0.014052	-0.210678
F315	F	0.999768	0.235948	0.039322
F316	F	1.249768	0.485948	0.289322
F317	F	1.030169	-0.786273	-0.489779
F318	F	1.280169	-0.536273	-0.239779
F319	F	1.530169	-0.286273	0.010221
F320	F	1.780169	-0.036273	0.260221
F321	F	1.170683	-0.452073	-0.786183
F322	F	1.420683	-0.202073	-0.536183
F323	F	1.670683	0.047927	-0.286183
F324	F	1.920683	0.297927	-0.036183
F325	F	1.030267	-0.926284	-0.490205
F326	F	1.280267	-0.676284	-0.240205
F327	F	1.530267	-0.426284	0.009795
F328	F	1.780267	-0.176284	0.259795
H329	H	0.991406	-0.919153	-0.262279
H330	H	1.241406	-0.669153	-0.012279
H331	H	1.491406	-0.419153	0.237721
H332	H	1.741406	-0.169153	0.487721
H333	H	0.992380	-0.792080	-0.261633
H334	H	1.242380	-0.542080	-0.011633
H335	H	1.492380	-0.292080	0.238367
H336	H	1.742380	-0.042080	0.488367
F337	F	0.640220	-0.492421	-0.388103
F338	F	0.890220	-0.242421	-0.138103
F339	F	1.140220	0.007579	0.111897
F340	F	1.390220	0.257579	0.361897
F341	F	0.937331	-0.396708	-0.787022
F342	F	1.187331	-0.146708	-0.537022
F343	F	1.437331	0.103292	-0.287022
F344	F	1.687331	0.353292	-0.037022
H345	H	0.633741	-0.312665	-0.241661
H346	H	0.883741	-0.062665	0.008339
H347	H	1.133741	0.187335	0.258339
H348	H	1.383741	0.437335	0.508339
H349	H	1.167856	-0.920633	-0.432895
H350	H	1.417856	-0.670633	-0.182895
H351	H	1.667856	-0.420633	0.067105
H352	H	1.917856	-0.170633	0.317105
F353	F	0.501807	-0.456556	-0.260278
F354	F	0.751807	-0.206556	-0.010278
F355	F	1.001807	0.043444	0.239722
F356	F	1.251807	0.293444	0.489722
F357	F	1.168960	-0.786823	-0.453742
F358	F	1.418960	-0.536823	-0.203742
F359	F	1.668960	-0.286823	0.046258
F360	F	1.918960	-0.036823	0.296258
H361	H	0.954768	-0.400655	-0.920720
H362	H	1.204768	-0.150655	-0.670720
H363	H	1.454768	0.099345	-0.420720
H364	H	1.704768	0.349345	-0.170720
F365	F	0.500878	-0.492498	-0.387032
F366	F	0.750878	-0.242498	-0.137032
F367	F	1.000878	0.007502	0.112968
F368	F	1.250878	0.257502	0.362968
H369	H	1.192915	-0.792007	-0.339927
H370	H	1.442915	-0.542007	-0.089927
H371	H	1.692915	-0.292007	0.160073
H372	H	1.942915	-0.042007	0.410073
H373	H	1.025796	-0.471508	-0.921661
H374	H	1.275796	-0.221508	-0.671661
H375	H	1.525796	0.028492	-0.421661
H376	H	1.775796	0.278492	-0.171661
F377	F	1.169978	-0.453243	-0.925975
F378	F	1.419978	-0.203243	-0.675975
F379	F	1.669978	0.046757	-0.425975
F380	F	1.919978	0.296757	-0.175975
