data_functionalizedCrystal
_audit_creation_method	'MofGen! by Chris Wilmer'
_symmetry_space_group_name_H-M	'P1'
_symmetry_Int_Tables_number	1
_symmetry_cell_setting	triclinic
loop_
_symmetry_equiv_pos_as_xyz
  x,y,z
_cell_length_a	11.169417
_cell_length_b	11.169416
_cell_length_c	21.395356
_cell_angle_alpha	89.979903
_cell_angle_beta	89.979762
_cell_angle_gamma	90.011219
loop_
_atom_site_label
_atom_site_type_symbol
_atom_site_fract_x
_atom_site_fract_y
_atom_site_fract_z
Zn1	Zn	1.834967	-0.477809	-0.354238
Zn2	Zn	2.334967	0.022191	0.145762
Zn3	Zn	1.834855	-0.678512	-0.249475
Zn4	Zn	2.334855	-0.178512	0.250525
Zn5	Zn	1.634252	-0.477845	-0.249481
Zn6	Zn	2.134252	0.022155	0.250519
Zn7	Zn	1.634261	-0.678452	-0.354221
Zn8	Zn	2.134261	-0.178452	0.145779
O9	O	1.734584	-0.578155	-0.301854
O10	O	2.234584	-0.078155	0.198146
O11	O	2.002902	-0.504443	-0.340346
O12	O	2.502902	-0.004443	0.159654
O13	O	1.808194	-0.651933	-0.161798
O14	O	2.308194	-0.151933	0.338202
O15	O	1.660920	-0.309890	-0.263387
O16	O	2.160920	0.190110	0.236613
O17	O	2.002820	-0.651899	-0.263376
O18	O	2.502820	-0.151899	0.236624
O19	O	1.808385	-0.309864	-0.340352
O20	O	2.308385	0.190136	0.159648
O21	O	1.660811	-0.504504	-0.161803
O22	O	2.160811	-0.004504	0.338197
O23	O	1.466303	-0.504446	-0.263371
O24	O	1.966303	-0.004446	0.236629
O25	O	1.660935	-0.651797	-0.441901
O26	O	2.160935	-0.151797	0.058099
O27	O	1.466310	-0.651831	-0.340323
O28	O	1.966310	-0.151831	0.159677
O29	O	1.808394	-0.504385	-0.441914
O30	O	2.308394	-0.004385	0.058086
O31	O	1.808203	-0.846454	-0.263360
O32	O	2.308203	-0.346454	0.236640
O33	O	1.660827	-0.846410	-0.340316
O34	O	2.160827	-0.346410	0.159684
C35	C	1.422759	-0.578137	-0.301846
C36	C	1.922759	-0.078137	0.198154
C37	C	1.289359	-0.578158	-0.301857
C38	C	1.789359	-0.078158	0.198143
C39	C	1.734536	-0.889979	-0.301849
C40	C	2.234536	-0.389979	0.198151
C41	C	1.734626	-1.023379	-0.301868
C42	C	2.234626	-0.523379	0.198132
C43	C	2.047626	-0.578174	-0.301862
C44	C	2.547626	-0.078174	0.198138
C45	C	2.181026	-0.578182	-0.301866
C46	C	2.681026	-0.078182	0.198134
C47	C	1.734678	-0.578080	-0.465277
C48	C	2.234678	-0.078080	0.034723
C49	C	1.734718	-0.578049	-0.534919
C50	C	2.234718	-0.078049	-0.034919
C51	C	1.734664	-0.265112	-0.301872
C52	C	2.234664	0.234888	0.198128
C53	C	1.734698	-0.131712	-0.301880
C54	C	2.234698	0.368288	0.198120
C55	C	1.657997	-0.501273	-0.567624
C56	C	2.157997	-0.001273	-0.067624
C57	C	1.657993	-0.501251	-0.633060
C58	C	2.157993	-0.001251	-0.133060
C59	C	1.734731	-0.577992	-0.665787
C60	C	2.234731	-0.077992	-0.165787
C61	C	1.811458	-0.654782	-0.633073
C62	C	2.311458	-0.154782	-0.133073
C63	C	1.811452	-0.654810	-0.567639
C64	C	2.311452	-0.154810	-0.067639
C65	C	1.842870	-0.587426	-0.769471
C66	C	2.342870	-0.087426	-0.269471
C67	C	1.842879	-0.587389	-0.834904
C68	C	2.342879	-0.087389	-0.334904
C69	C	1.734751	-0.577910	-0.867608
C70	C	2.234751	-0.077910	-0.367608
C71	C	1.626612	-0.568444	-0.834871
C72	C	2.126612	-0.068444	-0.334871
C73	C	1.626605	-0.568473	-0.769437
C74	C	2.126605	-0.068473	-0.269437
C75	C	1.734747	-0.577970	-0.736739
C76	C	2.234747	-0.077970	-0.236739
C77	C	1.658019	-0.501107	-0.971266
C78	C	2.158019	-0.001107	-0.471266
C79	C	1.658013	-0.501093	-1.036703
C80	C	2.158013	-0.001093	-0.536703
C81	C	1.811489	-0.654617	-1.036715
C82	C	2.311489	-0.154617	-0.536715
C83	C	1.811485	-0.654637	-0.971280
C84	C	2.311485	-0.154637	-0.471280
C85	C	1.734751	-0.577876	-0.938559
C86	C	2.234751	-0.077876	-0.438559
C87	C	1.734559	-0.578142	-0.139066
C88	C	2.234559	-0.078142	0.360934
C89	C	1.734751	-0.577836	-0.069425
C90	C	2.234751	-0.077836	0.430575
H91	H	1.595510	-0.438773	-0.540987
H92	H	2.095510	0.061227	-0.040987
N93	N	1.894219	-0.737614	-0.532364
N94	N	2.394219	-0.237614	-0.032364
H95	H	1.949847	-0.688849	-0.505230
H96	H	2.449847	-0.188849	-0.005230
H97	H	1.845348	-0.793224	-0.505237
H98	H	2.345348	-0.293224	-0.005237
H99	H	1.873974	-0.717098	-1.063361
H100	H	2.373974	-0.217098	-0.563361
H101	H	1.595519	-0.438726	-0.659694
H102	H	2.095519	0.061274	-0.159694
N103	N	1.509982	-0.558249	-0.734127
N104	N	2.009982	-0.058249	-0.234127
H105	H	1.441480	-0.552233	-0.764769
H106	H	1.941480	-0.052233	-0.264769
H107	H	1.498809	-0.631381	-0.706968
H108	H	1.998809	-0.131381	-0.206968
N109	N	1.575247	-0.418338	-0.935967
N110	N	2.075247	0.081662	-0.435967
H111	H	1.624033	-0.362730	-0.908832
H112	H	2.124033	0.137270	-0.408832
H113	H	1.526649	-0.369783	-0.966656
H114	H	2.026649	0.130217	-0.466656
H115	H	1.873963	-0.717153	-0.944650
H116	H	2.373963	-0.217153	-0.444650
H117	H	1.595528	-0.438577	-1.063331
H118	H	2.095528	0.061423	-0.563331
H119	H	1.538564	-0.560718	-0.861497
H120	H	2.038564	-0.060718	-0.361497
H121	H	1.930933	-0.595091	-0.861553
H122	H	2.430933	-0.095091	-0.361553
N123	N	1.959499	-0.597671	-0.734199
N124	N	2.459499	-0.097671	-0.234199
H125	H	2.028003	-0.603658	-0.764865
H126	H	2.528003	-0.103658	-0.264865
H127	H	1.970668	-0.524563	-0.707054
H128	H	2.470668	-0.024563	-0.207054
H129	H	1.873939	-0.717264	-0.659724
H130	H	2.373939	-0.217264	-0.159724
